QCQ.pdb
     RDKit          3D

 25 24  0  0  1  0  0  0  0  0999 V2000
   -8.3013  -16.7967   19.5849 N   0  0  0  0  0  0  0  0  0  0  0  0
   -7.3360  -16.5022   18.5632 C   0  0  0  0  0  0  0  0  0  0  0  0
   -6.8920  -17.4608   17.9070 O   0  0  0  0  0  0  0  0  0  0  0  0
   -6.9348  -15.1276   18.3579 C   0  0  0  0  0  0  0  0  0  0  0  0
   -7.5245  -14.1063   19.2803 C   0  0  0  0  0  0  0  0  0  0  0  0
   -8.6113  -13.2715   18.7118 C   0  0  2  0  0  0  0  0  0  0  0  0
   -8.1665  -12.5131   17.5845 N   0  0  0  0  0  0  0  0  0  0  0  0
   -9.1856  -12.3280   19.7223 C   0  0  0  0  0  0  0  0  0  0  0  0
   -9.6262  -12.7542   20.8215 O   0  0  0  0  0  0  0  0  0  0  0  0
   -9.2674  -10.9302   19.5089 N   0  0  0  0  0  0  0  0  0  0  0  0
   -9.8152  -10.0052   20.4606 C   0  0  1  0  0  0  0  0  0  0  0  0
   -9.4385   -8.5894   20.2592 C   0  0  0  0  0  0  0  0  0  0  0  0
   -7.6592   -8.3561   20.6356 S   0  0  0  0  0  0  0  0  0  0  0  0
  -11.3125  -10.1193   20.4535 C   0  0  0  0  0  0  0  0  0  0  0  0
  -11.9443  -10.0887   19.3674 O   0  0  0  0  0  0  0  0  0  0  0  0
  -14.4954  -14.1127   23.4111 N   0  0  0  0  0  0  0  0  0  0  0  0
  -15.5849  -13.2510   23.0277 C   0  0  0  0  0  0  0  0  0  0  0  0
  -16.7261  -13.6710   23.2772 O   0  0  0  0  0  0  0  0  0  0  0  0
  -15.2561  -11.9813   22.3920 C   0  0  0  0  0  0  0  0  0  0  0  0
  -13.7789  -11.7758   22.2970 C   0  0  0  0  0  0  0  0  0  0  0  0
  -13.4716  -10.4377   21.7206 C   0  0  2  0  0  0  0  0  0  0  0  0
  -12.0278  -10.2629   21.6725 N   0  0  0  0  0  0  0  0  0  0  0  0
  -14.0828   -9.3587   22.5366 C   0  0  0  0  0  0  0  0  0  0  0  0
  -15.3588   -8.9333   22.2240 O   0  0  0  0  0  0  0  0  0  0  0  0
  -13.4806   -8.8327   23.4861 O   0  0  0  0  0  0  0  0  0  0  0  0
  1  2  1  0
  2  4  1  0
  3  2  2  0
  5  4  1  0
  6  5  1  0
  6  7  1  6
  8  6  1  0
  8  9  2  0
 10  8  1  0
 11 10  1  0
 11 14  1  0
 11 12  1  6
 13 12  1  0
 14 22  1  0
 15 14  2  0
 17 16  1  0
 17 19  1  0
 18 17  2  0
 19 20  1  0
 21 20  1  1
 21 23  1  0
 22 21  1  0
 23 25  2  0
 23 24  1  0
M  END
$$$$
