QCQ.pdb
     RDKit          3D

 25 24  0  0  1  0  0  0  0  0999 V2000
    6.4777  -20.0471   15.6890 N   0  0  0  0  0  0  0  0  0  0  0  0
    7.8886  -19.8123   15.8178 C   0  0  0  0  0  0  0  0  0  0  0  0
    8.6249  -20.8102   15.9116 O   0  0  0  0  0  0  0  0  0  0  0  0
    8.3702  -18.4483   15.8352 C   0  0  0  0  0  0  0  0  0  0  0  0
    7.3491  -17.3685   15.6531 C   0  0  0  0  0  0  0  0  0  0  0  0
    7.8751  -15.9822   15.6031 C   0  0  2  0  0  0  0  0  0  0  0  0
    8.9173  -15.8423   14.6346 N   0  0  0  0  0  0  0  0  0  0  0  0
    8.3966  -15.5283   16.9310 C   0  0  0  0  0  0  0  0  0  0  0  0
    9.5860  -15.7634   17.2686 O   0  0  0  0  0  0  0  0  0  0  0  0
    7.6023  -14.8230   17.8679 N   0  0  0  0  0  0  0  0  0  0  0  0
    8.0726  -14.3943   19.1551 C   0  0  1  0  0  0  0  0  0  0  0  0
    7.1024  -13.6218   19.9605 C   0  0  0  0  0  0  0  0  0  0  0  0
    7.8804  -13.0861   21.5320 S   0  0  0  0  0  0  0  0  0  0  0  0
    8.5173  -15.5934   19.9419 C   0  0  0  0  0  0  0  0  0  0  0  0
    7.8840  -16.6759   19.8580 O   0  0  0  0  0  0  0  0  0  0  0  0
   13.8853  -17.9228   20.3460 N   0  0  0  0  0  0  0  0  0  0  0  0
   13.3005  -18.6248   21.4604 C   0  0  0  0  0  0  0  0  0  0  0  0
   13.9682  -19.5623   21.9253 O   0  0  0  0  0  0  0  0  0  0  0  0
   11.9976  -18.1782   21.9371 C   0  0  0  0  0  0  0  0  0  0  0  0
   11.5053  -16.9920   21.1730 C   0  0  0  0  0  0  0  0  0  0  0  0
   10.1192  -16.6396   21.5877 C   0  0  2  0  0  0  0  0  0  0  0  0
    9.6566  -15.5159   20.7871 N   0  0  0  0  0  0  0  0  0  0  0  0
   10.0736  -16.2844   23.0283 C   0  0  0  0  0  0  0  0  0  0  0  0
   10.2621  -17.2828   23.9634 O   0  0  0  0  0  0  0  0  0  0  0  0
    9.8718  -15.1210   23.4113 O   0  0  0  0  0  0  0  0  0  0  0  0
  1  2  1  0
  2  4  1  0
  3  2  2  0
  5  4  1  0
  6  5  1  0
  6  7  1  6
  8  6  1  0
  8  9  2  0
 10  8  1  0
 11 10  1  0
 11 14  1  0
 11 12  1  1
 13 12  1  0
 14 22  1  0
 15 14  2  0
 17 16  1  0
 17 19  1  0
 18 17  2  0
 19 20  1  0
 21 20  1  6
 21 23  1  0
 22 21  1  0
 23 25  2  0
 23 24  1  0
M  END
$$$$
