QCQ.pdb
     RDKit          3D

 25 24  0  0  1  0  0  0  0  0999 V2000
    9.0715  -13.4831   18.1426 N   0  0  0  0  0  0  0  0  0  0  0  0
    8.0527  -13.0030   19.0335 C   0  0  0  0  0  0  0  0  0  0  0  0
    7.5515  -11.8936   18.7793 O   0  0  0  0  0  0  0  0  0  0  0  0
    7.6724  -13.8214   20.1642 C   0  0  0  0  0  0  0  0  0  0  0  0
    8.4369  -15.0928   20.3659 C   0  0  0  0  0  0  0  0  0  0  0  0
    8.0980  -15.8649   21.5866 C   0  0  2  0  0  0  0  0  0  0  0  0
    6.6855  -16.0149   21.7473 N   0  0  0  0  0  0  0  0  0  0  0  0
    8.6527  -15.2338   22.8257 C   0  0  0  0  0  0  0  0  0  0  0  0
    9.8928  -15.0685   22.9625 O   0  0  0  0  0  0  0  0  0  0  0  0
    7.8355  -14.7943   23.8958 N   0  0  0  0  0  0  0  0  0  0  0  0
    8.3452  -14.3421   25.1597 C   0  0  1  0  0  0  0  0  0  0  0  0
    7.4531  -13.4382   25.9173 C   0  0  0  0  0  0  0  0  0  0  0  0
    5.8425  -14.2600   26.2216 S   0  0  0  0  0  0  0  0  0  0  0  0
    8.6751  -15.5329   26.0129 C   0  0  0  0  0  0  0  0  0  0  0  0
    7.8643  -16.4888   26.1059 O   0  0  0  0  0  0  0  0  0  0  0  0
   13.6208  -18.5200   25.9467 N   0  0  0  0  0  0  0  0  0  0  0  0
   12.3807  -18.6774   25.2298 C   0  0  0  0  0  0  0  0  0  0  0  0
   12.4454  -19.3017   24.1588 O   0  0  0  0  0  0  0  0  0  0  0  0
   11.1781  -18.1000   25.8168 C   0  0  0  0  0  0  0  0  0  0  0  0
   11.4785  -17.3622   27.0812 C   0  0  0  0  0  0  0  0  0  0  0  0
   10.2538  -16.6948   27.6025 C   0  0  2  0  0  0  0  0  0  0  0  0
    9.9049  -15.5902   26.7217 N   0  0  0  0  0  0  0  0  0  0  0  0
   10.4741  -16.1898   28.9809 C   0  0  0  0  0  0  0  0  0  0  0  0
   10.7065  -17.1016   29.9915 O   0  0  0  0  0  0  0  0  0  0  0  0
   10.4549  -14.9774   29.2466 O   0  0  0  0  0  0  0  0  0  0  0  0
  1  2  1  0
  2  4  1  0
  3  2  2  0
  5  4  1  0
  6  5  1  0
  6  7  1  1
  8  6  1  0
  8  9  2  0
 10  8  1  0
 11 10  1  0
 11 14  1  0
 11 12  1  1
 13 12  1  0
 14 22  1  0
 15 14  2  0
 17 16  1  0
 17 19  1  0
 18 17  2  0
 19 20  1  0
 21 20  1  6
 21 23  1  0
 22 21  1  0
 23 25  2  0
 23 24  1  0
M  END
$$$$
