QCQ.pdb
     RDKit          3D

 25 24  0  0  1  0  0  0  0  0999 V2000
    5.7058  -19.4939   16.0622 N   0  0  0  0  0  0  0  0  0  0  0  0
    6.3453  -19.3966   17.3443 C   0  0  0  0  0  0  0  0  0  0  0  0
    5.9479  -20.1648   18.2379 O   0  0  0  0  0  0  0  0  0  0  0  0
    7.3991  -18.4223   17.5261 C   0  0  0  0  0  0  0  0  0  0  0  0
    7.7787  -17.6059   16.3298 C   0  0  0  0  0  0  0  0  0  0  0  0
    7.7177  -16.1339   16.5050 C   0  0  2  0  0  0  0  0  0  0  0  0
    8.2707  -15.4404   15.3839 N   0  0  0  0  0  0  0  0  0  0  0  0
    8.4310  -15.6828   17.7415 C   0  0  0  0  0  0  0  0  0  0  0  0
    9.6886  -15.6756   17.7913 O   0  0  0  0  0  0  0  0  0  0  0  0
    7.7509  -15.2469   18.9050 N   0  0  0  0  0  0  0  0  0  0  0  0
    8.4110  -14.8340   20.1114 C   0  0  1  0  0  0  0  0  0  0  0  0
    7.5243  -14.3104   21.1728 C   0  0  0  0  0  0  0  0  0  0  0  0
    6.2571  -15.5636   21.6038 S   0  0  0  0  0  0  0  0  0  0  0  0
    9.2030  -15.9861   20.6592 C   0  0  0  0  0  0  0  0  0  0  0  0
    9.0606  -17.1381   20.1771 O   0  0  0  0  0  0  0  0  0  0  0  0
   15.0876  -14.1986   21.2075 N   0  0  0  0  0  0  0  0  0  0  0  0
   14.3265  -15.2245   20.5405 C   0  0  0  0  0  0  0  0  0  0  0  0
   14.3513  -15.2020   19.2996 O   0  0  0  0  0  0  0  0  0  0  0  0
   13.6070  -16.1841   21.3686 C   0  0  0  0  0  0  0  0  0  0  0  0
   12.2393  -16.4609   20.8340 C   0  0  0  0  0  0  0  0  0  0  0  0
   11.2692  -16.6494   21.9477 C   0  0  2  0  0  0  0  0  0  0  0  0
   10.1196  -15.7851   21.7259 N   0  0  0  0  0  0  0  0  0  0  0  0
   11.8965  -16.3277   23.2541 C   0  0  0  0  0  0  0  0  0  0  0  0
   11.3428  -15.3258   24.0264 O   0  0  0  0  0  0  0  0  0  0  0  0
   12.8990  -16.9321   23.6673 O   0  0  0  0  0  0  0  0  0  0  0  0
  1  2  1  0
  2  4  1  0
  3  2  2  0
  5  4  1  0
  6  5  1  0
  6  7  1  6
  8  6  1  0
  8  9  2  0
 10  8  1  0
 11 10  1  0
 11 14  1  0
 11 12  1  1
 13 12  1  0
 14 22  1  0
 15 14  2  0
 17 16  1  0
 17 19  1  0
 18 17  2  0
 19 20  1  0
 21 20  1  6
 21 23  1  0
 22 21  1  0
 23 25  2  0
 23 24  1  0
M  END
$$$$
