IYG.pdb
     RDKit          3D

 25 25  0  0  1  0  0  0  0  0999 V2000
    6.3011  -12.6582   18.8394 C   0  0  0  0  0  0  0  0  0  0  0  0
    6.9721  -13.9788   19.1980 C   0  0  0  0  0  0  0  0  0  0  0  0
    7.9923  -13.7273   20.2527 C   0  0  2  0  0  0  0  0  0  0  0  0
    8.9794  -12.6431   19.8610 C   0  0  0  0  0  0  0  0  0  0  0  0
    8.6561  -14.9454   20.7921 C   0  0  2  0  0  0  0  0  0  0  0  0
    7.6499  -16.0244   20.8124 N   0  0  0  0  0  0  0  0  0  0  0  0
    9.2664  -14.8305   22.1151 C   0  0  0  0  0  0  0  0  0  0  0  0
   10.2918  -14.0671   22.2433 O   0  0  0  0  0  0  0  0  0  0  0  0
   11.0141  -15.2468   30.8649 O   0  0  0  0  0  0  0  0  0  0  0  0
   10.4483  -15.3620   29.6099 C   0  0  0  0  0  0  0  0  0  0  0  0
   10.2464  -16.5499   28.9639 C   0  0  0  0  0  0  0  0  0  0  0  0
    9.6805  -16.6110   27.7173 C   0  0  0  0  0  0  0  0  0  0  0  0
    9.2853  -15.4646   27.0517 C   0  0  0  0  0  0  0  0  0  0  0  0
    8.6882  -15.5584   25.7185 C   0  0  0  0  0  0  0  0  0  0  0  0
    9.6165  -15.3196   24.5651 C   0  0  2  0  0  0  0  0  0  0  0  0
    8.8633  -15.4660   23.3054 N   0  0  0  0  0  0  0  0  0  0  0  0
   10.7195  -16.2842   24.5445 C   0  0  0  0  0  0  0  0  0  0  0  0
   11.6913  -16.1153   25.3554 O   0  0  0  0  0  0  0  0  0  0  0  0
    9.4873  -14.2584   27.7015 C   0  0  0  0  0  0  0  0  0  0  0  0
   10.0542  -14.2096   28.9482 C   0  0  0  0  0  0  0  0  0  0  0  0
   10.8248  -17.4159   23.7042 N   0  0  0  0  0  0  0  0  0  0  0  0
   11.8725  -18.4011   23.8124 C   0  0  0  0  0  0  0  0  0  0  0  0
   11.8371  -19.2137   25.0291 C   0  0  0  0  0  0  0  0  0  0  0  0
   11.3343  -20.4964   24.9751 O   0  0  0  0  0  0  0  0  0  0  0  0
   12.2551  -18.7618   26.1119 O   0  0  0  0  0  0  0  0  0  0  0  0
  2  1  1  0
  3  2  1  0
  3  5  1  0
  3  4  1  6
  5  7  1  0
  5  6  1  1
  7  8  2  0
  9 10  1  0
 10 20  2  0
 10 11  1  0
 11 12  2  0
 12 13  1  0
 13 14  1  0
 15 14  1  1
 16 15  1  0
 16  7  1  0
 17 21  1  0
 17 15  1  0
 18 17  2  0
 19 13  2  0
 20 19  1  0
 22 21  1  0
 23 22  1  0
 24 23  1  0
 25 23  2  0
M  END
$$$$
