IYG.pdb
     RDKit          3D

 25 25  0  0  1  0  0  0  0  0999 V2000
    7.2260  -16.2309   17.1782 C   0  0  0  0  0  0  0  0  0  0  0  0
    7.0126  -14.9508   17.9774 C   0  0  0  0  0  0  0  0  0  0  0  0
    7.7201  -15.0761   19.2813 C   0  0  2  0  0  0  0  0  0  0  0  0
    7.4953  -16.4256   19.9382 C   0  0  0  0  0  0  0  0  0  0  0  0
    7.5222  -13.9371   20.2188 C   0  0  2  0  0  0  0  0  0  0  0  0
    7.8177  -12.6971   19.4759 N   0  0  0  0  0  0  0  0  0  0  0  0
    8.3048  -13.9577   21.4530 C   0  0  0  0  0  0  0  0  0  0  0  0
    9.5389  -13.6060   21.3919 O   0  0  0  0  0  0  0  0  0  0  0  0
   10.7993  -14.8194   30.0174 O   0  0  0  0  0  0  0  0  0  0  0  0
   10.1118  -14.6433   28.8321 C   0  0  0  0  0  0  0  0  0  0  0  0
    9.8960  -13.4291   28.2418 C   0  0  0  0  0  0  0  0  0  0  0  0
    9.2064  -13.3072   27.0638 C   0  0  0  0  0  0  0  0  0  0  0  0
    8.6940  -14.4159   26.4144 C   0  0  0  0  0  0  0  0  0  0  0  0
    7.9567  -14.2564   25.1598 C   0  0  0  0  0  0  0  0  0  0  0  0
    8.7748  -14.3217   23.9047 C   0  0  2  0  0  0  0  0  0  0  0  0
    7.8682  -14.3227   22.7411 N   0  0  0  0  0  0  0  0  0  0  0  0
    9.5848  -15.5416   23.8449 C   0  0  0  0  0  0  0  0  0  0  0  0
   10.5165  -15.6966   24.7043 O   0  0  0  0  0  0  0  0  0  0  0  0
    8.9098  -15.6485   27.0078 C   0  0  0  0  0  0  0  0  0  0  0  0
    9.6009  -15.7581   28.1860 C   0  0  0  0  0  0  0  0  0  0  0  0
    9.4389  -16.5972   22.9164 N   0  0  0  0  0  0  0  0  0  0  0  0
   10.2464  -17.7922   22.9264 C   0  0  0  0  0  0  0  0  0  0  0  0
   11.6039  -17.6284   22.4045 C   0  0  0  0  0  0  0  0  0  0  0  0
   12.6766  -17.6960   23.2681 O   0  0  0  0  0  0  0  0  0  0  0  0
   11.8024  -17.4288   21.1912 O   0  0  0  0  0  0  0  0  0  0  0  0
  2  1  1  0
  3  2  1  0
  3  5  1  0
  3  4  1  1
  5  7  1  0
  5  6  1  6
  7  8  2  0
  9 10  1  0
 10 20  2  0
 10 11  1  0
 11 12  2  0
 12 13  1  0
 13 14  1  0
 15 14  1  1
 16 15  1  0
 16  7  1  0
 17 21  1  0
 17 15  1  0
 18 17  2  0
 19 13  2  0
 20 19  1  0
 22 21  1  0
 23 22  1  0
 24 23  1  0
 25 23  2  0
M  END
$$$$
