IYG.pdb
     RDKit          3D

 25 25  0  0  1  0  0  0  0  0999 V2000
    7.8437  -16.4935   17.3479 C   0  0  0  0  0  0  0  0  0  0  0  0
    7.1420  -15.5069   18.2738 C   0  0  0  0  0  0  0  0  0  0  0  0
    7.9241  -15.3942   19.5356 C   0  0  2  0  0  0  0  0  0  0  0  0
    8.3629  -16.7448   20.0710 C   0  0  0  0  0  0  0  0  0  0  0  0
    7.3137  -14.5288   20.5814 C   0  0  2  0  0  0  0  0  0  0  0  0
    7.0761  -13.2046   19.9756 N   0  0  0  0  0  0  0  0  0  0  0  0
    8.0697  -14.3630   21.8212 C   0  0  0  0  0  0  0  0  0  0  0  0
    9.0839  -13.5745   21.8097 O   0  0  0  0  0  0  0  0  0  0  0  0
   10.8144  -14.5217   30.3253 O   0  0  0  0  0  0  0  0  0  0  0  0
   10.1119  -14.6149   29.1394 C   0  0  0  0  0  0  0  0  0  0  0  0
    9.6652  -13.5388   28.4240 C   0  0  0  0  0  0  0  0  0  0  0  0
    8.9713  -13.6844   27.2513 C   0  0  0  0  0  0  0  0  0  0  0  0
    8.6896  -14.9365   26.7350 C   0  0  0  0  0  0  0  0  0  0  0  0
    7.9419  -15.0632   25.4829 C   0  0  0  0  0  0  0  0  0  0  0  0
    8.7081  -14.7681   24.2280 C   0  0  2  0  0  0  0  0  0  0  0  0
    7.8224  -14.9726   23.0663 N   0  0  0  0  0  0  0  0  0  0  0  0
    9.8643  -15.6553   24.0739 C   0  0  0  0  0  0  0  0  0  0  0  0
   11.0076  -15.2383   24.4606 O   0  0  0  0  0  0  0  0  0  0  0  0
    9.1400  -16.0301   27.4555 C   0  0  0  0  0  0  0  0  0  0  0  0
    9.8330  -15.8722   28.6271 C   0  0  0  0  0  0  0  0  0  0  0  0
    9.8497  -16.9612   23.5333 N   0  0  0  0  0  0  0  0  0  0  0  0
   11.0055  -17.8225   23.4845 C   0  0  0  0  0  0  0  0  0  0  0  0
   11.5343  -18.2261   24.7882 C   0  0  0  0  0  0  0  0  0  0  0  0
   12.8834  -18.0994   25.0429 O   0  0  0  0  0  0  0  0  0  0  0  0
   10.7818  -18.6822   25.6698 O   0  0  0  0  0  0  0  0  0  0  0  0
  2  1  1  0
  3  2  1  0
  3  5  1  0
  3  4  1  1
  5  7  1  0
  5  6  1  6
  7  8  2  0
  9 10  1  0
 10 20  2  0
 10 11  1  0
 11 12  2  0
 12 13  1  0
 13 14  1  0
 15 14  1  1
 16 15  1  0
 16  7  1  0
 17 21  1  0
 17 15  1  0
 18 17  2  0
 19 13  2  0
 20 19  1  0
 22 21  1  0
 23 22  1  0
 24 23  1  0
 25 23  2  0
M  END
$$$$
