IYG.pdb
     RDKit          3D

 25 25  0  0  1  0  0  0  0  0999 V2000
    7.5837  -12.7831   18.3239 C   0  0  0  0  0  0  0  0  0  0  0  0
    7.0236  -13.9601   19.1138 C   0  0  0  0  0  0  0  0  0  0  0  0
    7.6667  -13.9859   20.4562 C   0  0  2  0  0  0  0  0  0  0  0  0
    9.1794  -13.8907   20.3790 C   0  0  0  0  0  0  0  0  0  0  0  0
    7.2017  -15.0750   21.3580 C   0  0  2  0  0  0  0  0  0  0  0  0
    5.7300  -15.1258   21.2669 N   0  0  0  0  0  0  0  0  0  0  0  0
    7.5946  -14.9785   22.7624 C   0  0  0  0  0  0  0  0  0  0  0  0
    7.0944  -14.0269   23.4658 O   0  0  0  0  0  0  0  0  0  0  0  0
   11.0984  -14.8678   30.8207 O   0  0  0  0  0  0  0  0  0  0  0  0
   10.4905  -15.1807   29.6203 C   0  0  0  0  0  0  0  0  0  0  0  0
   10.3767  -16.4496   29.1241 C   0  0  0  0  0  0  0  0  0  0  0  0
    9.7638  -16.7080   27.9259 C   0  0  0  0  0  0  0  0  0  0  0  0
    9.2288  -15.6885   27.1590 C   0  0  0  0  0  0  0  0  0  0  0  0
    8.5842  -15.9923   25.8803 C   0  0  0  0  0  0  0  0  0  0  0  0
    9.2029  -15.3636   24.6675 C   0  0  2  0  0  0  0  0  0  0  0  0
    8.4764  -15.8201   23.4677 N   0  0  0  0  0  0  0  0  0  0  0  0
   10.6096  -15.7447   24.5137 C   0  0  0  0  0  0  0  0  0  0  0  0
   11.4853  -15.1379   25.2176 O   0  0  0  0  0  0  0  0  0  0  0  0
    9.3411  -14.4011   27.6570 C   0  0  0  0  0  0  0  0  0  0  0  0
    9.9562  -14.1548   28.8566 C   0  0  0  0  0  0  0  0  0  0  0  0
   11.1158  -16.7427   23.6502 N   0  0  0  0  0  0  0  0  0  0  0  0
   12.5205  -17.0257   23.4870 C   0  0  0  0  0  0  0  0  0  0  0  0
   13.0903  -17.9345   24.4826 C   0  0  0  0  0  0  0  0  0  0  0  0
   14.4251  -18.2721   24.4092 O   0  0  0  0  0  0  0  0  0  0  0  0
   12.3855  -18.4067   25.3946 O   0  0  0  0  0  0  0  0  0  0  0  0
  2  1  1  0
  3  2  1  0
  3  5  1  0
  3  4  1  6
  5  7  1  0
  5  6  1  1
  7  8  2  0
  9 10  1  0
 10 20  2  0
 10 11  1  0
 11 12  2  0
 12 13  1  0
 13 14  1  0
 15 14  1  1
 16 15  1  0
 16  7  1  0
 17 21  1  0
 17 15  1  0
 18 17  2  0
 19 13  2  0
 20 19  1  0
 22 21  1  0
 23 22  1  0
 24 23  1  0
 25 23  2  0
M  END
$$$$
