IYG.pdb
     RDKit          3D

 25 25  0  0  1  0  0  0  0  0999 V2000
    8.3784  -15.5615   17.0460 C   0  0  0  0  0  0  0  0  0  0  0  0
    7.6304  -14.7771   18.1175 C   0  0  0  0  0  0  0  0  0  0  0  0
    8.3148  -14.9779   19.4242 C   0  0  2  0  0  0  0  0  0  0  0  0
    8.6252  -16.4376   19.7005 C   0  0  0  0  0  0  0  0  0  0  0  0
    7.6776  -14.2936   20.5822 C   0  0  2  0  0  0  0  0  0  0  0  0
    7.3967  -12.9039   20.1741 N   0  0  0  0  0  0  0  0  0  0  0  0
    8.4289  -14.2853   21.8359 C   0  0  0  0  0  0  0  0  0  0  0  0
    9.3408  -13.3932   21.9880 O   0  0  0  0  0  0  0  0  0  0  0  0
    5.5437  -10.4824   26.9678 O   0  0  0  0  0  0  0  0  0  0  0  0
    6.2378  -11.6151   26.5885 C   0  0  0  0  0  0  0  0  0  0  0  0
    7.5827  -11.7872   26.7639 C   0  0  0  0  0  0  0  0  0  0  0  0
    8.2255  -12.9314   26.3694 C   0  0  0  0  0  0  0  0  0  0  0  0
    7.5368  -13.9714   25.7714 C   0  0  0  0  0  0  0  0  0  0  0  0
    8.2494  -15.1804   25.3549 C   0  0  0  0  0  0  0  0  0  0  0  0
    9.1189  -15.0445   24.1406 C   0  0  2  0  0  0  0  0  0  0  0  0
    8.2776  -15.1539   22.9340 N   0  0  0  0  0  0  0  0  0  0  0  0
   10.1353  -16.0984   24.0774 C   0  0  0  0  0  0  0  0  0  0  0  0
   11.0457  -16.1207   24.9725 O   0  0  0  0  0  0  0  0  0  0  0  0
    6.1741  -13.8025   25.5913 C   0  0  0  0  0  0  0  0  0  0  0  0
    5.5421  -12.6537   25.9899 C   0  0  0  0  0  0  0  0  0  0  0  0
   10.2163  -17.1246   23.1089 N   0  0  0  0  0  0  0  0  0  0  0  0
   11.1587  -18.2146   23.1715 C   0  0  0  0  0  0  0  0  0  0  0  0
   11.0786  -19.0358   24.3803 C   0  0  0  0  0  0  0  0  0  0  0  0
   12.0814  -19.9415   24.6540 O   0  0  0  0  0  0  0  0  0  0  0  0
   10.1168  -18.9271   25.1642 O   0  0  0  0  0  0  0  0  0  0  0  0
  2  1  1  0
  3  2  1  0
  3  5  1  0
  3  4  1  1
  5  7  1  0
  5  6  1  6
  7  8  2  0
  9 10  1  0
 10 20  2  0
 10 11  1  0
 11 12  2  0
 12 13  1  0
 13 14  1  0
 15 14  1  1
 16 15  1  0
 16  7  1  0
 17 21  1  0
 17 15  1  0
 18 17  2  0
 19 13  2  0
 20 19  1  0
 22 21  1  0
 23 22  1  0
 24 23  1  0
 25 23  2  0
M  END
$$$$
