IYG.pdb
     RDKit          3D

 25 25  0  0  1  0  0  0  0  0999 V2000
    7.4066  -12.2994   19.5891 C   0  0  0  0  0  0  0  0  0  0  0  0
    8.6683  -12.9846   20.1006 C   0  0  0  0  0  0  0  0  0  0  0  0
    8.6133  -14.4263   19.7334 C   0  0  2  0  0  0  0  0  0  0  0  0
    7.9997  -14.6554   18.3643 C   0  0  0  0  0  0  0  0  0  0  0  0
    8.0463  -15.3225   20.7778 C   0  0  2  0  0  0  0  0  0  0  0  0
    6.5765  -15.2269   20.6913 N   0  0  0  0  0  0  0  0  0  0  0  0
    8.4653  -15.0739   22.1558 C   0  0  0  0  0  0  0  0  0  0  0  0
    8.6254  -13.8547   22.5280 O   0  0  0  0  0  0  0  0  0  0  0  0
    5.8936  -10.6153   26.8786 O   0  0  0  0  0  0  0  0  0  0  0  0
    6.4387  -11.8325   26.5181 C   0  0  0  0  0  0  0  0  0  0  0  0
    7.7031  -11.9920   26.0231 C   0  0  0  0  0  0  0  0  0  0  0  0
    8.1979  -13.2229   25.6794 C   0  0  0  0  0  0  0  0  0  0  0  0
    7.4341  -14.3677   25.8190 C   0  0  0  0  0  0  0  0  0  0  0  0
    7.9858  -15.6694   25.4391 C   0  0  0  0  0  0  0  0  0  0  0  0
    9.1650  -15.6376   24.5130 C   0  0  2  0  0  0  0  0  0  0  0  0
    8.7228  -16.0263   23.1606 N   0  0  0  0  0  0  0  0  0  0  0  0
   10.2115  -16.5747   24.9308 C   0  0  0  0  0  0  0  0  0  0  0  0
   10.7987  -16.3735   26.0467 O   0  0  0  0  0  0  0  0  0  0  0  0
    6.1525  -14.2120   26.3202 C   0  0  0  0  0  0  0  0  0  0  0  0
    5.6685  -12.9759   26.6605 C   0  0  0  0  0  0  0  0  0  0  0  0
   10.6498  -17.7118   24.2148 N   0  0  0  0  0  0  0  0  0  0  0  0
   11.6905  -18.5979   24.6750 C   0  0  0  0  0  0  0  0  0  0  0  0
   11.8729  -19.8095   23.8745 C   0  0  0  0  0  0  0  0  0  0  0  0
   12.8573  -20.7107   24.2207 O   0  0  0  0  0  0  0  0  0  0  0  0
   11.1509  -20.0368   22.8853 O   0  0  0  0  0  0  0  0  0  0  0  0
  2  1  1  0
  3  2  1  0
  3  5  1  0
  3  4  1  6
  5  7  1  0
  5  6  1  1
  7  8  2  0
  9 10  1  0
 10 20  2  0
 10 11  1  0
 11 12  2  0
 12 13  1  0
 13 14  1  0
 15 14  1  1
 16 15  1  0
 16  7  1  0
 17 21  1  0
 17 15  1  0
 18 17  2  0
 19 13  2  0
 20 19  1  0
 22 21  1  0
 23 22  1  0
 24 23  1  0
 25 23  2  0
M  END
$$$$
