IYG.pdb
     RDKit          3D

 25 25  0  0  1  0  0  0  0  0999 V2000
    8.0491  -15.3197   17.0471 C   0  0  0  0  0  0  0  0  0  0  0  0
    7.5727  -14.3861   18.1535 C   0  0  0  0  0  0  0  0  0  0  0  0
    8.2094  -14.7972   19.4349 C   0  0  2  0  0  0  0  0  0  0  0  0
    8.1929  -16.3013   19.6369 C   0  0  0  0  0  0  0  0  0  0  0  0
    7.7510  -14.0480   20.6365 C   0  0  2  0  0  0  0  0  0  0  0  0
    7.8059  -12.6105   20.3082 N   0  0  0  0  0  0  0  0  0  0  0  0
    8.4824  -14.2868   21.8791 C   0  0  0  0  0  0  0  0  0  0  0  0
    9.5558  -13.6125   22.0876 O   0  0  0  0  0  0  0  0  0  0  0  0
    5.6149  -10.3748   26.9036 O   0  0  0  0  0  0  0  0  0  0  0  0
    6.1436  -11.5902   26.5138 C   0  0  0  0  0  0  0  0  0  0  0  0
    5.3973  -12.7074   26.2608 C   0  0  0  0  0  0  0  0  0  0  0  0
    5.9705  -13.8914   25.8764 C   0  0  0  0  0  0  0  0  0  0  0  0
    7.3405  -14.0097   25.7260 C   0  0  0  0  0  0  0  0  0  0  0  0
    7.9268  -15.2879   25.3193 C   0  0  0  0  0  0  0  0  0  0  0  0
    8.9013  -15.2305   24.1809 C   0  0  2  0  0  0  0  0  0  0  0  0
    8.1525  -15.1869   22.9107 N   0  0  0  0  0  0  0  0  0  0  0  0
    9.7724  -16.4086   24.1492 C   0  0  0  0  0  0  0  0  0  0  0  0
   10.5309  -16.6320   25.1519 O   0  0  0  0  0  0  0  0  0  0  0  0
    8.1014  -12.8810   25.9807 C   0  0  0  0  0  0  0  0  0  0  0  0
    7.5170  -11.7024   26.3646 C   0  0  0  0  0  0  0  0  0  0  0  0
    9.8627  -17.3537   23.1021 N   0  0  0  0  0  0  0  0  0  0  0  0
   11.0000  -17.4714   22.2231 C   0  0  0  0  0  0  0  0  0  0  0  0
   12.1962  -18.0561   22.8309 C   0  0  0  0  0  0  0  0  0  0  0  0
   13.3145  -18.2754   22.0548 O   0  0  0  0  0  0  0  0  0  0  0  0
   12.2168  -18.3579   24.0391 O   0  0  0  0  0  0  0  0  0  0  0  0
  2  1  1  0
  3  2  1  0
  3  5  1  0
  3  4  1  1
  5  7  1  0
  5  6  1  6
  7  8  2  0
  9 10  1  0
 10 20  2  0
 10 11  1  0
 11 12  2  0
 12 13  1  0
 13 14  1  0
 15 14  1  1
 16 15  1  0
 16  7  1  0
 17 21  1  0
 17 15  1  0
 18 17  2  0
 19 13  2  0
 20 19  1  0
 22 21  1  0
 23 22  1  0
 24 23  1  0
 25 23  2  0
M  END
$$$$
