IYG.pdb
     RDKit          3D

 25 25  0  0  1  0  0  0  0  0999 V2000
    7.7863  -12.6434   18.3791 C   0  0  0  0  0  0  0  0  0  0  0  0
    7.1417  -13.6041   19.3713 C   0  0  0  0  0  0  0  0  0  0  0  0
    8.1458  -13.9665   20.4090 C   0  0  2  0  0  0  0  0  0  0  0  0
    9.4647  -14.4190   19.8100 C   0  0  0  0  0  0  0  0  0  0  0  0
    7.6510  -14.8811   21.4739 C   0  0  2  0  0  0  0  0  0  0  0  0
    6.2066  -14.6283   21.6373 N   0  0  0  0  0  0  0  0  0  0  0  0
    8.3068  -14.7891   22.7768 C   0  0  0  0  0  0  0  0  0  0  0  0
    8.3579  -13.6392   23.3477 O   0  0  0  0  0  0  0  0  0  0  0  0
    5.3817  -11.2313   27.0327 O   0  0  0  0  0  0  0  0  0  0  0  0
    6.1394  -12.3515   26.7506 C   0  0  0  0  0  0  0  0  0  0  0  0
    5.6167  -13.5611   26.3859 C   0  0  0  0  0  0  0  0  0  0  0  0
    6.4123  -14.6439   26.1164 C   0  0  0  0  0  0  0  0  0  0  0  0
    7.7904  -14.5607   26.2019 C   0  0  0  0  0  0  0  0  0  0  0  0
    8.6162  -15.7345   25.9136 C   0  0  0  0  0  0  0  0  0  0  0  0
    9.5997  -15.5857   24.7913 C   0  0  2  0  0  0  0  0  0  0  0  0
    8.9073  -15.8294   23.5118 N   0  0  0  0  0  0  0  0  0  0  0  0
   10.6989  -16.5490   24.8985 C   0  0  0  0  0  0  0  0  0  0  0  0
   11.3825  -16.5751   25.9767 O   0  0  0  0  0  0  0  0  0  0  0  0
    8.3253  -13.3376   26.5707 C   0  0  0  0  0  0  0  0  0  0  0  0
    7.5197  -12.2617   26.8379 C   0  0  0  0  0  0  0  0  0  0  0  0
   11.0920  -17.4819   23.9122 N   0  0  0  0  0  0  0  0  0  0  0  0
   12.2231  -18.3662   24.0494 C   0  0  0  0  0  0  0  0  0  0  0  0
   13.5134  -17.7862   23.6742 C   0  0  0  0  0  0  0  0  0  0  0  0
   13.5762  -16.4666   23.2797 O   0  0  0  0  0  0  0  0  0  0  0  0
   14.5547  -18.4690   23.7066 O   0  0  0  0  0  0  0  0  0  0  0  0
  2  1  1  0
  3  2  1  0
  3  5  1  0
  3  4  1  6
  5  7  1  0
  5  6  1  1
  7  8  2  0
  9 10  1  0
 10 20  2  0
 10 11  1  0
 11 12  2  0
 12 13  1  0
 13 14  1  0
 15 14  1  1
 16 15  1  0
 16  7  1  0
 17 21  1  0
 17 15  1  0
 18 17  2  0
 19 13  2  0
 20 19  1  0
 22 21  1  0
 23 22  1  0
 24 23  1  0
 25 23  2  0
M  END
$$$$
