IYG.pdb
     RDKit          3D

 25 25  0  0  1  0  0  0  0  0999 V2000
    6.8689  -11.9968   27.3851 C   0  0  0  0  0  0  0  0  0  0  0  0
    6.7874  -13.4965   27.1258 C   0  0  0  0  0  0  0  0  0  0  0  0
    7.1422  -13.7571   25.7036 C   0  0  2  0  0  0  0  0  0  0  0  0
    7.2596  -12.4814   24.8898 C   0  0  0  0  0  0  0  0  0  0  0  0
    6.3212  -14.7992   25.0290 C   0  0  2  0  0  0  0  0  0  0  0  0
    5.6784  -15.6063   26.0836 N   0  0  0  0  0  0  0  0  0  0  0  0
    7.0187  -15.6868   24.1006 C   0  0  0  0  0  0  0  0  0  0  0  0
    6.3801  -16.1011   23.0656 O   0  0  0  0  0  0  0  0  0  0  0  0
    6.7101  -13.1909   17.9100 O   0  0  0  0  0  0  0  0  0  0  0  0
    7.3572  -13.5686   19.0707 C   0  0  0  0  0  0  0  0  0  0  0  0
    7.4255  -14.8549   19.5288 C   0  0  0  0  0  0  0  0  0  0  0  0
    8.0805  -15.1785   20.6883 C   0  0  0  0  0  0  0  0  0  0  0  0
    8.7066  -14.2104   21.4528 C   0  0  0  0  0  0  0  0  0  0  0  0
    9.3947  -14.5831   22.6899 C   0  0  0  0  0  0  0  0  0  0  0  0
    9.3019  -16.0274   23.0832 C   0  0  2  0  0  0  0  0  0  0  0  0
    8.3415  -16.1606   24.1947 N   0  0  0  0  0  0  0  0  0  0  0  0
   10.5923  -16.5522   23.5383 C   0  0  0  0  0  0  0  0  0  0  0  0
   11.5804  -16.5236   22.7300 O   0  0  0  0  0  0  0  0  0  0  0  0
    8.6408  -12.9056   20.9932 C   0  0  0  0  0  0  0  0  0  0  0  0
    7.9828  -12.5940   19.8322 C   0  0  0  0  0  0  0  0  0  0  0  0
   10.8707  -17.0972   24.8123 N   0  0  0  0  0  0  0  0  0  0  0  0
   12.1646  -17.5986   25.2054 C   0  0  0  0  0  0  0  0  0  0  0  0
   12.2688  -18.0191   26.6034 C   0  0  0  0  0  0  0  0  0  0  0  0
   13.4767  -18.4748   27.0876 O   0  0  0  0  0  0  0  0  0  0  0  0
   11.2811  -17.9707   27.3607 O   0  0  0  0  0  0  0  0  0  0  0  0
  2  1  1  0
  3  2  1  0
  3  5  1  0
  3  4  1  6
  5  7  1  0
  5  6  1  1
  7  8  2  0
  9 10  1  0
 10 20  2  0
 10 11  1  0
 11 12  2  0
 12 13  1  0
 13 14  1  0
 15 14  1  1
 16 15  1  0
 16  7  1  0
 17 21  1  0
 17 15  1  0
 18 17  2  0
 19 13  2  0
 20 19  1  0
 22 21  1  0
 23 22  1  0
 24 23  1  0
 25 23  2  0
M  END
$$$$
