KAN.pdb
     RDKit          3D

 23 22  0  0  1  0  0  0  0  0999 V2000
    7.4320  -17.6399   13.7876 N   0  0  0  0  0  0  0  0  0  0  0  0
    7.4972  -18.8721   14.5501 C   0  0  1  0  0  0  0  0  0  0  0  0
    8.7206  -19.6243   14.1420 C   0  0  0  0  0  0  0  0  0  0  0  0
    8.5461  -20.1890   12.7555 C   0  0  0  0  0  0  0  0  0  0  0  0
    9.6772  -21.0614   12.3198 C   0  0  0  0  0  0  0  0  0  0  0  0
    9.4974  -21.6209   10.9176 C   0  0  0  0  0  0  0  0  0  0  0  0
   10.6198  -22.4524   10.5740 N   0  0  0  0  0  0  0  0  0  0  0  0
    7.5268  -18.5111   15.9881 C   0  0  0  0  0  0  0  0  0  0  0  0
    8.2105  -17.5397   16.3973 O   0  0  0  0  0  0  0  0  0  0  0  0
    5.5004  -19.3034   18.9814 C   0  0  0  0  0  0  0  0  0  0  0  0
    6.8037  -18.9135   18.3814 C   0  0  2  0  0  0  0  0  0  0  0  0
    6.7988  -19.2256   16.9794 N   0  0  0  0  0  0  0  0  0  0  0  0
    7.9879  -19.4487   19.0860 C   0  0  0  0  0  0  0  0  0  0  0  0
    8.1715  -19.1408   20.2945 O   0  0  0  0  0  0  0  0  0  0  0  0
   12.4364  -20.6382   17.5784 N   0  0  0  0  0  0  0  0  0  0  0  0
   12.2775  -19.7329   18.6530 C   0  0  0  0  0  0  0  0  0  0  0  0
   13.1593  -18.8581   18.8211 O   0  0  0  0  0  0  0  0  0  0  0  0
   11.1241  -19.7721   19.5812 C   0  0  0  0  0  0  0  0  0  0  0  0
   10.1088  -20.7802   19.1954 C   0  0  2  0  0  0  0  0  0  0  0  0
    8.9609  -20.2988   18.5099 N   0  0  0  0  0  0  0  0  0  0  0  0
    9.7307  -21.5610   20.4076 C   0  0  0  0  0  0  0  0  0  0  0  0
    8.4560  -21.9437   20.7159 O   0  0  0  0  0  0  0  0  0  0  0  0
   10.6546  -21.8848   21.1945 O   0  0  0  0  0  0  0  0  0  0  0  0
  2  1  1  6
  2  3  1  0
  4  3  1  0
  5  4  1  0
  5  6  1  0
  7  6  1  0
  8  2  1  0
  8  9  2  0
 11 10  1  1
 11 12  1  0
 12  8  1  0
 13 11  1  0
 14 13  2  0
 16 18  1  0
 16 15  1  0
 17 16  2  0
 19 18  1  1
 19 20  1  0
 19 21  1  0
 20 13  1  0
 21 22  1  0
 23 21  2  0
M  END
$$$$
