KAN.pdb
     RDKit          3D

 23 22  0  0  1  0  0  0  0  0999 V2000
    7.0093  -17.5504   19.1356 N   0  0  0  0  0  0  0  0  0  0  0  0
    8.4374  -17.7023   19.3394 C   0  0  1  0  0  0  0  0  0  0  0  0
    9.0723  -18.0588   18.0359 C   0  0  0  0  0  0  0  0  0  0  0  0
    8.0190  -18.4682   17.0386 C   0  0  0  0  0  0  0  0  0  0  0  0
    8.5808  -18.9505   15.7416 C   0  0  0  0  0  0  0  0  0  0  0  0
    7.5140  -19.4028   14.7572 C   0  0  0  0  0  0  0  0  0  0  0  0
    8.1297  -19.8288   13.5288 N   0  0  0  0  0  0  0  0  0  0  0  0
    8.9556  -16.4190   19.8717 C   0  0  0  0  0  0  0  0  0  0  0  0
   10.1650  -16.2906   20.1870 O   0  0  0  0  0  0  0  0  0  0  0  0
    7.5269  -12.9943   20.4349 C   0  0  0  0  0  0  0  0  0  0  0  0
    8.5881  -14.0222   20.6017 C   0  0  2  0  0  0  0  0  0  0  0  0
    8.1353  -15.2718   20.0576 N   0  0  0  0  0  0  0  0  0  0  0  0
    9.1079  -14.1491   21.9798 C   0  0  0  0  0  0  0  0  0  0  0  0
   10.2514  -13.6910   22.2468 O   0  0  0  0  0  0  0  0  0  0  0  0
    6.1294  -15.1441   23.8983 N   0  0  0  0  0  0  0  0  0  0  0  0
    6.5517  -14.5284   25.0992 C   0  0  0  0  0  0  0  0  0  0  0  0
    5.6714  -14.1372   25.9013 O   0  0  0  0  0  0  0  0  0  0  0  0
    7.9767  -14.3270   25.4486 C   0  0  0  0  0  0  0  0  0  0  0  0
    8.9010  -14.8003   24.3915 C   0  0  2  0  0  0  0  0  0  0  0  0
    8.4182  -14.7557   23.0558 N   0  0  0  0  0  0  0  0  0  0  0  0
    9.3758  -16.1662   24.7529 C   0  0  0  0  0  0  0  0  0  0  0  0
   10.5103  -16.4279   25.4676 O   0  0  0  0  0  0  0  0  0  0  0  0
    8.6783  -17.1379   24.3694 O   0  0  0  0  0  0  0  0  0  0  0  0
  2  1  1  6
  2  3  1  0
  4  3  1  0
  5  4  1  0
  5  6  1  0
  7  6  1  0
  8  2  1  0
  8  9  2  0
 11 10  1  1
 11 12  1  0
 12  8  1  0
 13 11  1  0
 14 13  2  0
 16 18  1  0
 16 15  1  0
 17 16  2  0
 19 18  1  1
 19 20  1  0
 19 21  1  0
 20 13  1  0
 21 22  1  0
 23 21  2  0
M  END
$$$$
