KAN.pdb
     RDKit          3D

 23 22  0  0  1  0  0  0  0  0999 V2000
    8.3730  -14.2630   14.6722 N   0  0  0  0  0  0  0  0  0  0  0  0
    8.3034  -15.0961   15.8575 C   0  0  1  0  0  0  0  0  0  0  0  0
    9.2406  -16.2464   15.6907 C   0  0  0  0  0  0  0  0  0  0  0  0
    8.4800  -17.4829   15.2851 C   0  0  0  0  0  0  0  0  0  0  0  0
    9.3528  -18.6742   15.0632 C   0  0  0  0  0  0  0  0  0  0  0  0
    8.6028  -19.8703   14.4988 C   0  0  0  0  0  0  0  0  0  0  0  0
    9.5160  -20.9581   14.2702 N   0  0  0  0  0  0  0  0  0  0  0  0
    8.6672  -14.2538   17.0224 C   0  0  0  0  0  0  0  0  0  0  0  0
    9.6817  -13.5132   16.9936 O   0  0  0  0  0  0  0  0  0  0  0  0
    6.9510  -13.1909   20.1503 C   0  0  0  0  0  0  0  0  0  0  0  0
    8.1908  -13.3858   19.3531 C   0  0  2  0  0  0  0  0  0  0  0  0
    7.9083  -14.2289   18.2252 N   0  0  0  0  0  0  0  0  0  0  0  0
    9.3578  -13.8441   20.1363 C   0  0  0  0  0  0  0  0  0  0  0  0
    9.7766  -13.1284   21.0856 O   0  0  0  0  0  0  0  0  0  0  0  0
   13.7688  -15.9588   18.8974 N   0  0  0  0  0  0  0  0  0  0  0  0
   13.1091  -14.7740   19.2982 C   0  0  0  0  0  0  0  0  0  0  0  0
   13.1251  -13.7969   18.5131 O   0  0  0  0  0  0  0  0  0  0  0  0
   12.4053  -14.6377   20.5941 C   0  0  0  0  0  0  0  0  0  0  0  0
   11.1843  -15.4734   20.6768 C   0  0  2  0  0  0  0  0  0  0  0  0
   10.0669  -15.0470   19.9095 N   0  0  0  0  0  0  0  0  0  0  0  0
   10.8239  -15.6463   22.1128 C   0  0  0  0  0  0  0  0  0  0  0  0
   11.6684  -16.1331   23.0701 O   0  0  0  0  0  0  0  0  0  0  0  0
    9.6612  -15.3194   22.4575 O   0  0  0  0  0  0  0  0  0  0  0  0
  2  1  1  6
  2  3  1  0
  4  3  1  0
  5  4  1  0
  5  6  1  0
  7  6  1  0
  8  2  1  0
  8  9  2  0
 11 10  1  1
 11 12  1  0
 12  8  1  0
 13 11  1  0
 14 13  2  0
 16 18  1  0
 16 15  1  0
 17 16  2  0
 19 18  1  1
 19 20  1  0
 19 21  1  0
 20 13  1  0
 21 22  1  0
 23 21  2  0
M  END
$$$$
