KAN.pdb
     RDKit          3D

 23 22  0  0  1  0  0  0  0  0999 V2000
   10.1562  -16.2662   19.4065 N   0  0  0  0  0  0  0  0  0  0  0  0
   10.5493  -14.9645   19.9113 C   0  0  1  0  0  0  0  0  0  0  0  0
    9.5311  -13.9583   19.4872 C   0  0  0  0  0  0  0  0  0  0  0  0
    8.9826  -14.3135   18.1289 C   0  0  0  0  0  0  0  0  0  0  0  0
    7.9981  -13.3204   17.6046 C   0  0  0  0  0  0  0  0  0  0  0  0
    7.4939  -13.6548   16.2097 C   0  0  0  0  0  0  0  0  0  0  0  0
    6.5162  -12.6840   15.7963 N   0  0  0  0  0  0  0  0  0  0  0  0
   10.6440  -15.0635   21.3878 C   0  0  0  0  0  0  0  0  0  0  0  0
   11.0099  -14.0809   22.0800 O   0  0  0  0  0  0  0  0  0  0  0  0
    9.4673  -17.3526   24.0376 C   0  0  0  0  0  0  0  0  0  0  0  0
   10.5055  -16.4228   23.5199 C   0  0  2  0  0  0  0  0  0  0  0  0
   10.3340  -16.2527   22.1040 N   0  0  0  0  0  0  0  0  0  0  0  0
   11.8904  -16.7807   23.8930 C   0  0  0  0  0  0  0  0  0  0  0  0
   12.1376  -17.1080   25.0849 O   0  0  0  0  0  0  0  0  0  0  0  0
   16.8177  -18.2992   24.0984 N   0  0  0  0  0  0  0  0  0  0  0  0
   16.4696  -18.2128   22.7307 C   0  0  0  0  0  0  0  0  0  0  0  0
   17.2951  -18.6319   21.8855 O   0  0  0  0  0  0  0  0  0  0  0  0
   15.1829  -17.6538   22.2561 C   0  0  0  0  0  0  0  0  0  0  0  0
   14.3015  -17.2169   23.3643 C   0  0  2  0  0  0  0  0  0  0  0  0
   12.9942  -16.7888   23.0081 N   0  0  0  0  0  0  0  0  0  0  0  0
   15.0167  -16.1775   24.1580 C   0  0  0  0  0  0  0  0  0  0  0  0
   16.1773  -16.3911   24.8464 O   0  0  0  0  0  0  0  0  0  0  0  0
   14.5099  -15.0287   24.1907 O   0  0  0  0  0  0  0  0  0  0  0  0
  2  1  1  6
  2  3  1  0
  4  3  1  0
  5  4  1  0
  5  6  1  0
  7  6  1  0
  8  2  1  0
  8  9  2  0
 11 10  1  6
 11 12  1  0
 12  8  1  0
 13 11  1  0
 14 13  2  0
 16 18  1  0
 16 15  1  0
 17 16  2  0
 19 18  1  6
 19 20  1  0
 19 21  1  0
 20 13  1  0
 21 22  1  0
 23 21  2  0
M  END
$$$$
