KAN.pdb
     RDKit          3D

 23 22  0  0  1  0  0  0  0  0999 V2000
   -1.8574  -28.0146   25.4141 N   0  0  0  0  0  0  0  0  0  0  0  0
   -1.9157  -26.5774   25.2269 C   0  0  1  0  0  0  0  0  0  0  0  0
   -1.0892  -26.2150   24.0375 C   0  0  0  0  0  0  0  0  0  0  0  0
    0.1737  -27.0374   24.0111 C   0  0  0  0  0  0  0  0  0  0  0  0
    1.2438  -26.5167   24.9135 C   0  0  0  0  0  0  0  0  0  0  0  0
    2.5474  -27.2919   24.8073 C   0  0  0  0  0  0  0  0  0  0  0  0
    3.5887  -26.4336   24.3090 N   0  0  0  0  0  0  0  0  0  0  0  0
   -3.3391  -26.2044   25.0427 C   0  0  0  0  0  0  0  0  0  0  0  0
   -3.6749  -25.0092   24.8496 O   0  0  0  0  0  0  0  0  0  0  0  0
   -6.4366  -27.7800   24.0005 C   0  0  0  0  0  0  0  0  0  0  0  0
   -5.7907  -26.8311   24.9454 C   0  0  2  0  0  0  0  0  0  0  0  0
   -4.3971  -27.1547   25.0723 N   0  0  0  0  0  0  0  0  0  0  0  0
   -6.4734  -26.7048   26.2504 C   0  0  0  0  0  0  0  0  0  0  0  0
   -7.6968  -26.4020   26.2739 O   0  0  0  0  0  0  0  0  0  0  0  0
   -6.8058  -28.1857   32.1901 N   0  0  0  0  0  0  0  0  0  0  0  0
   -7.2111  -27.6430   30.9489 C   0  0  0  0  0  0  0  0  0  0  0  0
   -8.2291  -26.9117   30.9304 O   0  0  0  0  0  0  0  0  0  0  0  0
   -6.4918  -27.8982   29.6797 C   0  0  0  0  0  0  0  0  0  0  0  0
   -6.5251  -26.7398   28.7562 C   0  0  2  0  0  0  0  0  0  0  0  0
   -5.8601  -26.8983   27.5105 N   0  0  0  0  0  0  0  0  0  0  0  0
   -6.0333  -25.5367   29.4860 C   0  0  0  0  0  0  0  0  0  0  0  0
   -6.8334  -24.6620   30.1652 O   0  0  0  0  0  0  0  0  0  0  0  0
   -4.7963  -25.3198   29.4699 O   0  0  0  0  0  0  0  0  0  0  0  0
  2  1  1  6
  2  3  1  0
  4  3  1  0
  5  4  1  0
  5  6  1  0
  7  6  1  0
  8  2  1  0
  8  9  2  0
 11 10  1  6
 11 12  1  0
 12  8  1  0
 13 11  1  0
 14 13  2  0
 16 18  1  0
 16 15  1  0
 17 16  2  0
 19 18  1  1
 19 20  1  0
 19 21  1  0
 20 13  1  0
 21 22  1  0
 23 21  2  0
M  END
$$$$
