KAN.pdb
     RDKit          3D

 23 22  0  0  1  0  0  0  0  0999 V2000
    6.5388  -17.4443   20.0600 N   0  0  0  0  0  0  0  0  0  0  0  0
    7.9270  -17.5620   20.4635 C   0  0  1  0  0  0  0  0  0  0  0  0
    8.7255  -18.0461   19.2986 C   0  0  0  0  0  0  0  0  0  0  0  0
    8.2856  -19.4334   18.9064 C   0  0  0  0  0  0  0  0  0  0  0  0
    9.4207  -20.3729   18.6635 C   0  0  0  0  0  0  0  0  0  0  0  0
    8.9712  -21.7492   18.1992 C   0  0  0  0  0  0  0  0  0  0  0  0
   10.1134  -22.6078   18.0338 N   0  0  0  0  0  0  0  0  0  0  0  0
    8.3775  -16.2260   20.9230 C   0  0  0  0  0  0  0  0  0  0  0  0
    9.5496  -16.0459   21.3381 O   0  0  0  0  0  0  0  0  0  0  0  0
    6.8985  -12.7821   20.9955 C   0  0  0  0  0  0  0  0  0  0  0  0
    7.9033  -13.7899   21.4259 C   0  0  2  0  0  0  0  0  0  0  0  0
    7.5305  -15.0833   20.9250 N   0  0  0  0  0  0  0  0  0  0  0  0
    8.1851  -13.7940   22.8771 C   0  0  0  0  0  0  0  0  0  0  0  0
    8.5711  -12.7281   23.4283 O   0  0  0  0  0  0  0  0  0  0  0  0
    8.3147  -12.1703   25.9509 N   0  0  0  0  0  0  0  0  0  0  0  0
    7.2161  -12.9857   26.3084 C   0  0  0  0  0  0  0  0  0  0  0  0
    6.2764  -12.4594   26.9498 O   0  0  0  0  0  0  0  0  0  0  0  0
    7.1272  -14.4227   25.9612 C   0  0  0  0  0  0  0  0  0  0  0  0
    8.2645  -14.8860   25.1320 C   0  0  2  0  0  0  0  0  0  0  0  0
    8.0573  -14.9181   23.7265 N   0  0  0  0  0  0  0  0  0  0  0  0
    8.7178  -16.2099   25.6453 C   0  0  0  0  0  0  0  0  0  0  0  0
    9.0992  -16.4514   26.9347 O   0  0  0  0  0  0  0  0  0  0  0  0
    8.7483  -17.1638   24.8287 O   0  0  0  0  0  0  0  0  0  0  0  0
  2  1  1  6
  2  3  1  0
  4  3  1  0
  5  4  1  0
  5  6  1  0
  7  6  1  0
  8  2  1  0
  8  9  2  0
 11 10  1  1
 11 12  1  0
 12  8  1  0
 13 11  1  0
 14 13  2  0
 16 18  1  0
 16 15  1  0
 17 16  2  0
 19 18  1  1
 19 20  1  0
 19 21  1  0
 20 13  1  0
 21 22  1  0
 23 21  2  0
M  END
$$$$
