RFC.pdb
     RDKit          3D

 29 29  0  0  1  0  0  0  0  0999 V2000
   28.7312  -26.7407  -19.8532 N   0  0  0  0  0  0  0  0  0  0  0  0
   28.6280  -25.7416  -20.8654 C   0  0  0  0  0  0  0  0  0  0  0  0
   28.7393  -26.1503  -22.0951 N   0  0  0  0  0  0  0  0  0  0  0  0
   28.4157  -24.3849  -20.5234 N   0  0  0  0  0  0  0  0  0  0  0  0
   28.2122  -24.0222  -19.1614 C   0  0  0  0  0  0  0  0  0  0  0  0
   26.7984  -24.2312  -18.6878 C   0  0  0  0  0  0  0  0  0  0  0  0
   26.1503  -22.9403  -18.2362 C   0  0  0  0  0  0  0  0  0  0  0  0
   26.8645  -22.4865  -16.9808 C   0  0  2  0  0  0  0  0  0  0  0  0
   27.9905  -23.3770  -16.7891 N   0  0  0  0  0  0  0  0  0  0  0  0
   25.9967  -22.5765  -15.7857 C   0  0  0  0  0  0  0  0  0  0  0  0
   25.4259  -23.6565  -15.5053 O   0  0  0  0  0  0  0  0  0  0  0  0
   28.7719  -25.4764  -22.8964 N   0  0  0  0  0  0  0  0  0  0  0  0
   25.7661  -21.4782  -14.9120 C   0  0  1  0  0  0  0  0  0  0  0  0
   24.8765  -21.4932  -13.7957 C   0  0  0  0  0  0  0  0  0  0  0  0
   25.3789  -20.4017  -12.8400 C   0  0  0  0  0  0  0  0  0  0  0  0
   24.6278  -20.4164  -11.5677 C   0  0  0  0  0  0  0  0  0  0  0  0
   23.3782  -19.8492  -11.4294 C   0  0  0  0  0  0  0  0  0  0  0  0
   22.6837  -19.8649  -10.2457 C   0  0  0  0  0  0  0  0  0  0  0  0
   23.2260  -20.4616   -9.1334 C   0  0  0  0  0  0  0  0  0  0  0  0
   24.4715  -21.0344   -9.2464 C   0  0  0  0  0  0  0  0  0  0  0  0
   25.1677  -21.0119  -10.4555 C   0  0  0  0  0  0  0  0  0  0  0  0
   23.4729  -21.1711  -14.1180 O   0  0  0  0  0  0  0  0  0  0  0  0
   23.2214  -20.1956  -14.8922 N   0  0  0  0  0  0  0  0  0  0  0  0
   22.3626  -21.8846  -13.6195 C   0  0  1  0  0  0  0  0  0  0  0  0
   20.9825  -21.5000  -13.9211 C   0  0  0  0  0  0  0  0  0  0  0  0
   20.4031  -22.4456  -14.9778 S   0  0  0  0  0  0  0  0  0  0  0  0
   19.0395  -21.5715  -15.7805 C   0  0  0  0  0  0  0  0  0  0  0  0
   20.1913  -21.7601  -12.6963 O   0  0  0  0  0  0  0  0  0  0  0  0
   20.7292  -22.5294  -11.8335 O   0  0  0  0  0  0  0  0  0  0  0  0
  1  2  1  0
  2  3  2  0
  4  5  1  0
  4  2  1  0
  6  5  1  0
  7  6  1  0
  8 10  1  0
  8  7  1  0
  8  9  1  1
 10 11  2  0
 12 13  1  0
 12 10  1  0
 14 15  1  0
 13 14  1  6
 15 16  2  0
 16 17  1  0
 18 17  2  0
 19 18  1  0
 20 19  2  0
 20 15  1  0
 21 22  2  0
 21 13  1  0
 23 21  1  0
 24 23  1  0
 24 27  1  0
 24 25  1  1
 26 25  1  0
 27 29  1  0
 28 27  2  0
M  END
$$$$
