RFC.pdb
     RDKit          3D

 29 29  0  0  1  0  0  0  0  0999 V2000
   27.5493  -27.6539  -16.6171 N   0  0  0  0  0  0  0  0  0  0  0  0
   26.3194  -27.4349  -17.3049 C   0  0  0  0  0  0  0  0  0  0  0  0
   25.6683  -28.4970  -17.6781 N   0  0  0  0  0  0  0  0  0  0  0  0
   25.8548  -26.1219  -17.5552 N   0  0  0  0  0  0  0  0  0  0  0  0
   26.5180  -25.0112  -16.9596 C   0  0  0  0  0  0  0  0  0  0  0  0
   27.9660  -24.8925  -17.3543 C   0  0  0  0  0  0  0  0  0  0  0  0
   28.7322  -23.9588  -16.4424 C   0  0  0  0  0  0  0  0  0  0  0  0
   28.3694  -22.5416  -16.8322 C   0  0  2  0  0  0  0  0  0  0  0  0
   29.5084  -21.9920  -17.5380 N   0  0  0  0  0  0  0  0  0  0  0  0
   28.1051  -21.6915  -15.6503 C   0  0  0  0  0  0  0  0  0  0  0  0
   29.0595  -21.1726  -15.0253 O   0  0  0  0  0  0  0  0  0  0  0  0
   24.7305  -28.4315  -18.1403 N   0  0  0  0  0  0  0  0  0  0  0  0
   26.7945  -21.4213  -15.1685 C   0  0  2  0  0  0  0  0  0  0  0  0
   26.4828  -20.5210  -14.1055 C   0  0  0  0  0  0  0  0  0  0  0  0
   25.5257  -19.4787  -14.7012 C   0  0  0  0  0  0  0  0  0  0  0  0
   26.2667  -18.4092  -15.4014 C   0  0  0  0  0  0  0  0  0  0  0  0
   26.5930  -18.4772  -16.7397 C   0  0  0  0  0  0  0  0  0  0  0  0
   27.2815  -17.4816  -17.3864 C   0  0  0  0  0  0  0  0  0  0  0  0
   27.6770  -16.3575  -16.7028 C   0  0  0  0  0  0  0  0  0  0  0  0
   27.3632  -16.2665  -15.3666 C   0  0  0  0  0  0  0  0  0  0  0  0
   26.6626  -17.2857  -14.7202 C   0  0  0  0  0  0  0  0  0  0  0  0
   25.7899  -21.1355  -12.9567 O   0  0  0  0  0  0  0  0  0  0  0  0
   24.9338  -22.0511  -13.1646 N   0  0  0  0  0  0  0  0  0  0  0  0
   26.0142  -20.7742  -11.6114 C   0  0  2  0  0  0  0  0  0  0  0  0
   25.2507  -21.3541  -10.5050 C   0  0  0  0  0  0  0  0  0  0  0  0
   25.8132  -20.8518   -9.1716 S   0  0  0  0  0  0  0  0  0  0  0  0
   25.6675  -19.0500   -9.1799 C   0  0  0  0  0  0  0  0  0  0  0  0
   23.8857  -20.7848  -10.5859 O   0  0  0  0  0  0  0  0  0  0  0  0
   23.7038  -19.8866  -11.4722 O   0  0  0  0  0  0  0  0  0  0  0  0
  1  2  1  0
  2  3  2  0
  4  5  1  0
  4  2  1  0
  6  5  1  0
  7  6  1  0
  8 10  1  0
  8  7  1  0
  8  9  1  1
 10 11  2  0
 12 13  1  0
 12 10  1  0
 14 15  1  0
 13 14  1  6
 15 16  2  0
 16 17  1  0
 18 17  2  0
 19 18  1  0
 20 19  2  0
 20 15  1  0
 21 22  2  0
 21 13  1  0
 23 21  1  0
 24 23  1  0
 24 27  1  0
 24 25  1  6
 26 25  1  0
 27 29  1  0
 28 27  2  0
M  END
$$$$
