RFC.pdb
     RDKit          3D

 29 29  0  0  1  0  0  0  0  0999 V2000
   27.5326  -17.7861  -18.9959 N   0  0  0  0  0  0  0  0  0  0  0  0
   26.3340  -17.5539  -18.2591 C   0  0  0  0  0  0  0  0  0  0  0  0
   25.2497  -17.3842  -18.9569 N   0  0  0  0  0  0  0  0  0  0  0  0
   26.3508  -17.5151  -16.8446 N   0  0  0  0  0  0  0  0  0  0  0  0
   27.5609  -17.7844  -16.1438 C   0  0  0  0  0  0  0  0  0  0  0  0
   27.7383  -19.2357  -15.7847 C   0  0  0  0  0  0  0  0  0  0  0  0
   26.9763  -19.6117  -14.5323 C   0  0  0  0  0  0  0  0  0  0  0  0
   27.3741  -21.0252  -14.1639 C   0  0  2  0  0  0  0  0  0  0  0  0
   26.8745  -21.8920  -15.2110 N   0  0  0  0  0  0  0  0  0  0  0  0
   26.7713  -21.4550  -12.8827 C   0  0  0  0  0  0  0  0  0  0  0  0
   25.6768  -22.0658  -12.8784 O   0  0  0  0  0  0  0  0  0  0  0  0
   24.3267  -17.1946  -18.4992 N   0  0  0  0  0  0  0  0  0  0  0  0
   27.3784  -21.2088  -11.6204 C   0  0  2  0  0  0  0  0  0  0  0  0
   26.6802  -21.1311  -10.3777 C   0  0  0  0  0  0  0  0  0  0  0  0
   27.6707  -20.5247   -9.3734 C   0  0  0  0  0  0  0  0  0  0  0  0
   27.0150  -20.2380   -8.0808 C   0  0  0  0  0  0  0  0  0  0  0  0
   26.0200  -21.0341   -7.5532 C   0  0  0  0  0  0  0  0  0  0  0  0
   25.4133  -20.7643   -6.3520 C   0  0  0  0  0  0  0  0  0  0  0  0
   25.7883  -19.6643   -5.6193 C   0  0  0  0  0  0  0  0  0  0  0  0
   26.7789  -18.8548   -6.1248 C   0  0  0  0  0  0  0  0  0  0  0  0
   27.3882  -19.1398   -7.3474 C   0  0  0  0  0  0  0  0  0  0  0  0
   25.4902  -20.2586  -10.3895 O   0  0  0  0  0  0  0  0  0  0  0  0
   25.6440  -18.9975  -10.3697 N   0  0  0  0  0  0  0  0  0  0  0  0
   24.1617  -20.7324  -10.4238 C   0  0  1  0  0  0  0  0  0  0  0  0
   23.0093  -19.8332  -10.5065 C   0  0  0  0  0  0  0  0  0  0  0  0
   22.7015  -19.5235  -11.9748 S   0  0  0  0  0  0  0  0  0  0  0  0
   22.6258  -21.1058  -12.8457 C   0  0  0  0  0  0  0  0  0  0  0  0
   21.8376  -20.5978  -10.0205 O   0  0  0  0  0  0  0  0  0  0  0  0
   22.0357  -21.8333   -9.7761 O   0  0  0  0  0  0  0  0  0  0  0  0
  1  2  1  0
  2  3  2  0
  4  5  1  0
  4  2  1  0
  6  5  1  0
  7  6  1  0
  8 10  1  0
  8  7  1  0
  8  9  1  6
 10 11  2  0
 12 13  1  0
 12 10  1  0
 14 15  1  0
 13 14  1  6
 15 16  2  0
 16 17  1  0
 18 17  2  0
 19 18  1  0
 20 19  2  0
 20 15  1  0
 21 22  2  0
 21 13  1  0
 23 21  1  0
 24 23  1  0
 24 27  1  0
 24 25  1  1
 26 25  1  0
 27 29  1  0
 28 27  2  0
M  END
$$$$
