RFC.pdb
     RDKit          3D

 29 29  0  0  1  0  0  0  0  0999 V2000
   19.1118  -31.2544  -15.4245 N   0  0  0  0  0  0  0  0  0  0  0  0
   18.7537  -32.3014  -14.5250 C   0  0  0  0  0  0  0  0  0  0  0  0
   18.5027  -33.4611  -15.0577 N   0  0  0  0  0  0  0  0  0  0  0  0
   18.6824  -32.0648  -13.1317 N   0  0  0  0  0  0  0  0  0  0  0  0
   19.1287  -30.8207  -12.6016 C   0  0  0  0  0  0  0  0  0  0  0  0
   20.6275  -30.6803  -12.5761 C   0  0  0  0  0  0  0  0  0  0  0  0
   21.0670  -29.3479  -12.0086 C   0  0  0  0  0  0  0  0  0  0  0  0
   20.2517  -28.2704  -12.6914 C   0  0  2  0  0  0  0  0  0  0  0  0
   21.0326  -27.7972  -13.8156 N   0  0  0  0  0  0  0  0  0  0  0  0
   19.9896  -27.1219  -11.7960 C   0  0  0  0  0  0  0  0  0  0  0  0
   20.9451  -26.5198  -11.2526 O   0  0  0  0  0  0  0  0  0  0  0  0
   18.1645  -34.2678  -14.4814 N   0  0  0  0  0  0  0  0  0  0  0  0
   18.6799  -26.6481  -11.5078 C   0  0  2  0  0  0  0  0  0  0  0  0
   18.3752  -25.5771  -10.6146 C   0  0  0  0  0  0  0  0  0  0  0  0
   17.5873  -24.5496  -11.4397 C   0  0  0  0  0  0  0  0  0  0  0  0
   18.4837  -23.7599  -12.3092 C   0  0  0  0  0  0  0  0  0  0  0  0
   18.6606  -24.0352  -13.6491 C   0  0  0  0  0  0  0  0  0  0  0  0
   19.4943  -23.2993  -14.4534 C   0  0  0  0  0  0  0  0  0  0  0  0
   20.1965  -22.2383  -13.9352 C   0  0  0  0  0  0  0  0  0  0  0  0
   20.0367  -21.9440  -12.6010 C   0  0  0  0  0  0  0  0  0  0  0  0
   19.1860  -22.6998  -11.7935 C   0  0  0  0  0  0  0  0  0  0  0  0
   17.5260  -25.9505   -9.4669 O   0  0  0  0  0  0  0  0  0  0  0  0
   16.6132  -26.8198   -9.6262 N   0  0  0  0  0  0  0  0  0  0  0  0
   17.6569  -25.4017   -8.1738 C   0  0  1  0  0  0  0  0  0  0  0  0
   16.7877  -25.7936   -7.0629 C   0  0  0  0  0  0  0  0  0  0  0  0
   17.3345  -25.2184   -5.7527 S   0  0  0  0  0  0  0  0  0  0  0  0
   19.0193  -25.8450   -5.5611 C   0  0  0  0  0  0  0  0  0  0  0  0
   15.4923  -25.1070   -7.2738 O   0  0  0  0  0  0  0  0  0  0  0  0
   15.4213  -24.3432   -8.2922 O   0  0  0  0  0  0  0  0  0  0  0  0
  1  2  1  0
  2  3  2  0
  4  5  1  0
  4  2  1  0
  6  5  1  0
  7  6  1  0
  8 10  1  0
  8  7  1  0
  8  9  1  6
 10 11  2  0
 12 13  1  0
 12 10  1  0
 14 15  1  0
 13 14  1  1
 15 16  2  0
 16 17  1  0
 18 17  2  0
 19 18  1  0
 20 19  2  0
 20 15  1  0
 21 22  2  0
 21 13  1  0
 23 21  1  0
 24 23  1  0
 24 27  1  0
 24 25  1  1
 26 25  1  0
 27 29  1  0
 28 27  2  0
M  END
$$$$
