RFC.pdb
     RDKit          3D

 29 29  0  0  1  0  0  0  0  0999 V2000
   27.4014  -19.8046  -16.5358 N   0  0  0  0  0  0  0  0  0  0  0  0
   26.2051  -20.3686  -17.0689 C   0  0  0  0  0  0  0  0  0  0  0  0
   26.3377  -21.1107  -18.1287 N   0  0  0  0  0  0  0  0  0  0  0  0
   24.9532  -20.1185  -16.4583 N   0  0  0  0  0  0  0  0  0  0  0  0
   24.7090  -20.5761  -15.1320 C   0  0  0  0  0  0  0  0  0  0  0  0
   24.9216  -19.5185  -14.0817 C   0  0  0  0  0  0  0  0  0  0  0  0
   24.8148  -20.0765  -12.6790 C   0  0  0  0  0  0  0  0  0  0  0  0
   26.1137  -20.7913  -12.3727 C   0  0  2  0  0  0  0  0  0  0  0  0
   26.0833  -22.0498  -13.0889 N   0  0  0  0  0  0  0  0  0  0  0  0
   26.2582  -21.0853  -10.9297 C   0  0  0  0  0  0  0  0  0  0  0  0
   25.7411  -22.1193  -10.4457 O   0  0  0  0  0  0  0  0  0  0  0  0
   25.5103  -21.5486  -18.5988 N   0  0  0  0  0  0  0  0  0  0  0  0
   26.9696  -20.2393  -10.0348 C   0  0  2  0  0  0  0  0  0  0  0  0
   27.1017  -20.4599   -8.6307 C   0  0  0  0  0  0  0  0  0  0  0  0
   28.0912  -19.3994   -8.1272 C   0  0  0  0  0  0  0  0  0  0  0  0
   28.3237  -19.5305   -6.6740 C   0  0  0  0  0  0  0  0  0  0  0  0
   28.9893  -20.6019   -6.1160 C   0  0  0  0  0  0  0  0  0  0  0  0
   29.2033  -20.7201   -4.7655 C   0  0  0  0  0  0  0  0  0  0  0  0
   28.7492  -19.7496   -3.9057 C   0  0  0  0  0  0  0  0  0  0  0  0
   28.0822  -18.6710   -4.4385 C   0  0  0  0  0  0  0  0  0  0  0  0
   27.8709  -18.5622   -5.8135 C   0  0  0  0  0  0  0  0  0  0  0  0
   25.8566  -20.2894   -7.8571 O   0  0  0  0  0  0  0  0  0  0  0  0
   25.2247  -19.1896   -7.9316 N   0  0  0  0  0  0  0  0  0  0  0  0
   25.3014  -21.2818   -7.0221 C   0  0  1  0  0  0  0  0  0  0  0  0
   24.0718  -21.0663   -6.2573 C   0  0  0  0  0  0  0  0  0  0  0  0
   23.2856  -22.3778   -6.1651 S   0  0  0  0  0  0  0  0  0  0  0  0
   21.8744  -22.0745   -5.0768 C   0  0  0  0  0  0  0  0  0  0  0  0
   24.4831  -20.7655   -4.8666 O   0  0  0  0  0  0  0  0  0  0  0  0
   25.4234  -21.4837   -4.3916 O   0  0  0  0  0  0  0  0  0  0  0  0
  1  2  1  0
  2  3  2  0
  4  5  1  0
  4  2  1  0
  6  5  1  0
  7  6  1  0
  8 10  1  0
  8  7  1  0
  8  9  1  6
 10 11  2  0
 12 13  1  0
 12 10  1  0
 14 15  1  0
 13 14  1  6
 15 16  2  0
 16 17  1  0
 18 17  2  0
 19 18  1  0
 20 19  2  0
 20 15  1  0
 21 22  2  0
 21 13  1  0
 23 21  1  0
 24 23  1  0
 24 27  1  0
 24 25  1  1
 26 25  1  0
 27 29  1  0
 28 27  2  0
M  END
$$$$
