RFC.pdb
     RDKit          3D

 29 29  0  0  1  0  0  0  0  0999 V2000
   20.3979  -26.2778  -11.6626 N   0  0  0  0  0  0  0  0  0  0  0  0
   20.2105  -27.6578  -11.3562 C   0  0  0  0  0  0  0  0  0  0  0  0
   21.0565  -28.4890  -11.8901 N   0  0  0  0  0  0  0  0  0  0  0  0
   19.1528  -28.0742  -10.5134 N   0  0  0  0  0  0  0  0  0  0  0  0
   18.2598  -27.1078   -9.9688 C   0  0  0  0  0  0  0  0  0  0  0  0
   18.9527  -25.8847   -9.4294 C   0  0  0  0  0  0  0  0  0  0  0  0
   19.0271  -25.8899   -7.9179 C   0  0  0  0  0  0  0  0  0  0  0  0
   17.9585  -24.9477   -7.4057 C   0  0  2  0  0  0  0  0  0  0  0  0
   18.3507  -23.6098   -7.7977 N   0  0  0  0  0  0  0  0  0  0  0  0
   17.8489  -24.9825   -5.9305 C   0  0  0  0  0  0  0  0  0  0  0  0
   18.6148  -24.2817   -5.2282 O   0  0  0  0  0  0  0  0  0  0  0  0
   20.9756  -29.5232  -11.7447 N   0  0  0  0  0  0  0  0  0  0  0  0
   16.8986  -25.7874   -5.2436 C   0  0  1  0  0  0  0  0  0  0  0  0
   16.7916  -25.8960   -3.8243 C   0  0  0  0  0  0  0  0  0  0  0  0
   15.2915  -25.8196   -3.5063 C   0  0  0  0  0  0  0  0  0  0  0  0
   14.8454  -24.4186   -3.3602 C   0  0  0  0  0  0  0  0  0  0  0  0
   14.2730  -23.7039   -4.3915 C   0  0  0  0  0  0  0  0  0  0  0  0
   13.8600  -22.4025   -4.2518 C   0  0  0  0  0  0  0  0  0  0  0  0
   14.0079  -21.7551   -3.0491 C   0  0  0  0  0  0  0  0  0  0  0  0
   14.5764  -22.4473   -2.0052 C   0  0  0  0  0  0  0  0  0  0  0  0
   14.9924  -23.7703   -2.1597 C   0  0  0  0  0  0  0  0  0  0  0  0
   17.2873  -27.1668   -3.2614 O   0  0  0  0  0  0  0  0  0  0  0  0
   16.9628  -28.2617   -3.8185 N   0  0  0  0  0  0  0  0  0  0  0  0
   18.1167  -27.2585   -2.1237 C   0  0  1  0  0  0  0  0  0  0  0  0
   18.5122  -28.5424   -1.5419 C   0  0  0  0  0  0  0  0  0  0  0  0
   19.7337  -28.3446   -0.6389 S   0  0  0  0  0  0  0  0  0  0  0  0
   21.0551  -27.6738   -1.6741 C   0  0  0  0  0  0  0  0  0  0  0  0
   17.4199  -28.9497   -0.6282 O   0  0  0  0  0  0  0  0  0  0  0  0
   16.4900  -28.0959   -0.4494 O   0  0  0  0  0  0  0  0  0  0  0  0
  1  2  1  0
  2  3  2  0
  4  5  1  0
  4  2  1  0
  6  5  1  0
  7  6  1  0
  8 10  1  0
  8  7  1  0
  8  9  1  1
 10 11  2  0
 12 13  1  0
 12 10  1  0
 14 15  1  0
 13 14  1  1
 15 16  2  0
 16 17  1  0
 18 17  2  0
 19 18  1  0
 20 19  2  0
 20 15  1  0
 21 22  2  0
 21 13  1  0
 23 21  1  0
 24 23  1  0
 24 27  1  0
 24 25  1  1
 26 25  1  0
 27 29  1  0
 28 27  2  0
M  END
$$$$
