HGH.pdb
     RDKit          3D

 25 26  0  0  1  0  0  0  0  0999 V2000
    8.7086  -15.6958   21.1109 N   0  0  0  0  0  0  0  0  0  0  0  0
    7.6247  -14.8280   21.5524 C   0  0  1  0  0  0  0  0  0  0  0  0
    6.6949  -14.5608   20.3617 C   0  0  0  0  0  0  0  0  0  0  0  0
    7.3862  -13.8559   19.2767 C   0  0  0  0  0  0  0  0  0  0  0  0
    8.4276  -12.9613   19.4892 C   0  0  0  0  0  0  0  0  0  0  0  0
    8.8146  -12.5132   18.2950 N   0  0  0  0  0  0  0  0  0  0  0  0
    8.0683  -13.0802   17.3277 C   0  0  0  0  0  0  0  0  0  0  0  0
    7.1986  -13.8986   17.9354 N   0  0  0  0  0  0  0  0  0  0  0  0
    6.8691  -15.4521   22.6688 C   0  0  0  0  0  0  0  0  0  0  0  0
    5.9591  -14.8131   23.2259 O   0  0  0  0  0  0  0  0  0  0  0  0
    7.1341  -16.7597   23.1415 N   0  0  0  0  0  0  0  0  0  0  0  0
    6.4352  -17.3412   24.2703 C   0  0  0  0  0  0  0  0  0  0  0  0
    7.1791  -16.9724   25.5272 C   0  0  0  0  0  0  0  0  0  0  0  0
    6.7323  -17.3088   26.6532 O   0  0  0  0  0  0  0  0  0  0  0  0
    8.3877  -16.2464   25.4958 N   0  0  0  0  0  0  0  0  0  0  0  0
    9.0655  -15.8196   26.7440 C   0  0  1  0  0  0  0  0  0  0  0  0
    8.0798  -15.2046   27.6645 C   0  0  0  0  0  0  0  0  0  0  0  0
    7.4445  -14.0142   27.0740 C   0  0  0  0  0  0  0  0  0  0  0  0
    7.9582  -13.3094   25.9629 C   0  0  0  0  0  0  0  0  0  0  0  0
    7.1594  -12.2800   25.6659 N   0  0  0  0  0  0  0  0  0  0  0  0
    6.1555  -12.3026   26.5467 C   0  0  0  0  0  0  0  0  0  0  0  0
    6.3349  -13.3319   27.3737 N   0  0  0  0  0  0  0  0  0  0  0  0
    9.6964  -17.0260   27.3370 C   0  0  0  0  0  0  0  0  0  0  0  0
    9.9867  -16.9765   28.5817 O   0  0  0  0  0  0  0  0  0  0  0  0
    9.9564  -18.1440   26.5892 O   0  0  0  0  0  0  0  0  0  0  0  0
  2  1  1  6
  3  2  1  0
  4  3  1  0
  5  4  2  0
  6  7  1  0
  6  5  1  0
  7  8  2  0
  8  4  1  0
  9  2  1  0
 10  9  2  0
 11  9  1  0
 12 13  1  0
 12 11  1  0
 13 15  1  0
 14 13  2  0
 15 16  1  0
 16 17  1  1
 16 23  1  0
 18 22  1  0
 18 17  1  0
 19 18  2  0
 20 19  1  0
 20 21  1  0
 21 22  2  0
 23 24  2  0
 23 25  1  0
M  END
$$$$
