HGH.pdb
     RDKit          3D

 25 26  0  0  1  0  0  0  0  0999 V2000
    9.7151  -15.1542   20.0949 N   0  0  0  0  0  0  0  0  0  0  0  0
    8.2951  -15.2540   20.4055 C   0  0  1  0  0  0  0  0  0  0  0  0
    7.5341  -15.5913   19.1168 C   0  0  0  0  0  0  0  0  0  0  0  0
    7.7476  -14.5799   18.0760 C   0  0  0  0  0  0  0  0  0  0  0  0
    8.5443  -13.4560   18.2556 C   0  0  0  0  0  0  0  0  0  0  0  0
    8.5128  -12.7623   17.1179 N   0  0  0  0  0  0  0  0  0  0  0  0
    7.7322  -13.3909   16.2180 C   0  0  0  0  0  0  0  0  0  0  0  0
    7.2689  -14.4997   16.8109 N   0  0  0  0  0  0  0  0  0  0  0  0
    8.0514  -16.2943   21.4375 C   0  0  0  0  0  0  0  0  0  0  0  0
    6.8966  -16.4799   21.8602 O   0  0  0  0  0  0  0  0  0  0  0  0
    9.0824  -17.1009   21.9760 N   0  0  0  0  0  0  0  0  0  0  0  0
    8.8282  -18.1673   22.9241 C   0  0  0  0  0  0  0  0  0  0  0  0
    9.3611  -17.7418   24.2673 C   0  0  0  0  0  0  0  0  0  0  0  0
    9.7552  -18.6004   25.0968 O   0  0  0  0  0  0  0  0  0  0  0  0
    9.4395  -16.3856   24.6459 N   0  0  0  0  0  0  0  0  0  0  0  0
    9.6066  -15.9877   26.0648 C   0  0  1  0  0  0  0  0  0  0  0  0
    8.2789  -15.7396   26.6754 C   0  0  0  0  0  0  0  0  0  0  0  0
    7.6399  -14.5302   26.1290 C   0  0  0  0  0  0  0  0  0  0  0  0
    8.2553  -13.6557   25.2060 C   0  0  0  0  0  0  0  0  0  0  0  0
    7.4242  -12.6544   24.9017 N   0  0  0  0  0  0  0  0  0  0  0  0
    6.3019  -12.8582   25.5966 C   0  0  0  0  0  0  0  0  0  0  0  0
    6.4412  -13.9698   26.3182 N   0  0  0  0  0  0  0  0  0  0  0  0
   10.3311  -17.0890   26.7485 C   0  0  0  0  0  0  0  0  0  0  0  0
   10.2381  -18.2545   26.2299 O   0  0  0  0  0  0  0  0  0  0  0  0
   11.0681  -16.8710   27.8825 O   0  0  0  0  0  0  0  0  0  0  0  0
  2  1  1  6
  3  2  1  0
  4  3  1  0
  5  4  2  0
  6  7  1  0
  6  5  1  0
  7  8  2  0
  8  4  1  0
  9  2  1  0
 10  9  2  0
 11  9  1  0
 12 13  1  0
 12 11  1  0
 13 15  1  0
 14 13  2  0
 15 16  1  0
 16 17  1  1
 16 23  1  0
 18 22  1  0
 18 17  1  0
 19 18  2  0
 20 19  1  0
 20 21  1  0
 21 22  2  0
 23 24  2  0
 23 25  1  0
M  END
$$$$
