HGH.pdb
     RDKit          3D

 25 26  0  0  1  0  0  0  0  0999 V2000
    9.8943  -17.4686   17.6557 N   0  0  0  0  0  0  0  0  0  0  0  0
   10.7285  -16.8444   16.6372 C   0  0  1  0  0  0  0  0  0  0  0  0
    9.8494  -15.9246   15.7799 C   0  0  0  0  0  0  0  0  0  0  0  0
    9.1834  -14.8974   16.5879 C   0  0  0  0  0  0  0  0  0  0  0  0
    8.1612  -15.1766   17.4864 C   0  0  0  0  0  0  0  0  0  0  0  0
    7.7940  -14.0211   18.0400 N   0  0  0  0  0  0  0  0  0  0  0  0
    8.5345  -13.0148   17.5370 C   0  0  0  0  0  0  0  0  0  0  0  0
    9.3803  -13.5582   16.6511 N   0  0  0  0  0  0  0  0  0  0  0  0
   11.8334  -16.0709   17.2598 C   0  0  0  0  0  0  0  0  0  0  0  0
   12.6013  -15.4100   16.5385 O   0  0  0  0  0  0  0  0  0  0  0  0
   12.0635  -16.0450   18.6561 N   0  0  0  0  0  0  0  0  0  0  0  0
   12.7243  -14.9395   19.3208 C   0  0  0  0  0  0  0  0  0  0  0  0
   12.4102  -15.0171   20.7920 C   0  0  0  0  0  0  0  0  0  0  0  0
   12.8780  -14.1645   21.5886 O   0  0  0  0  0  0  0  0  0  0  0  0
   11.5920  -16.0320   21.3300 N   0  0  0  0  0  0  0  0  0  0  0  0
   11.1927  -16.0268   22.7583 C   0  0  1  0  0  0  0  0  0  0  0  0
    9.7696  -16.4226   22.8822 C   0  0  0  0  0  0  0  0  0  0  0  0
    8.8774  -15.4993   22.1605 C   0  0  0  0  0  0  0  0  0  0  0  0
    9.2543  -14.2095   21.7254 C   0  0  0  0  0  0  0  0  0  0  0  0
    8.2290  -13.6194   21.1036 N   0  0  0  0  0  0  0  0  0  0  0  0
    7.2124  -14.4855   21.1265 C   0  0  0  0  0  0  0  0  0  0  0  0
    7.6076  -15.5928   21.7537 N   0  0  0  0  0  0  0  0  0  0  0  0
   12.0918  -16.9702   23.4702 C   0  0  0  0  0  0  0  0  0  0  0  0
   12.9537  -17.5962   22.7623 O   0  0  0  0  0  0  0  0  0  0  0  0
   12.0065  -17.1635   24.8237 O   0  0  0  0  0  0  0  0  0  0  0  0
  2  1  1  1
  3  2  1  0
  4  3  1  0
  5  4  2  0
  6  7  1  0
  6  5  1  0
  7  8  2  0
  8  4  1  0
  9  2  1  0
 10  9  2  0
 11  9  1  0
 12 13  1  0
 12 11  1  0
 13 15  1  0
 14 13  2  0
 15 16  1  0
 16 17  1  6
 16 23  1  0
 18 22  1  0
 18 17  1  0
 19 18  2  0
 20 19  1  0
 20 21  1  0
 21 22  2  0
 23 24  2  0
 23 25  1  0
M  END
$$$$
