HGH.pdb
     RDKit          3D

 25 26  0  0  1  0  0  0  0  0999 V2000
    9.5685  -13.3093   19.4676 N   0  0  0  0  0  0  0  0  0  0  0  0
    9.3742  -14.7396   19.6657 C   0  0  1  0  0  0  0  0  0  0  0  0
    9.5397  -15.4483   18.3151 C   0  0  0  0  0  0  0  0  0  0  0  0
    8.7404  -14.8114   17.2628 C   0  0  0  0  0  0  0  0  0  0  0  0
    7.3808  -14.5540   17.3871 C   0  0  0  0  0  0  0  0  0  0  0  0
    6.9824  -13.9745   16.2548 N   0  0  0  0  0  0  0  0  0  0  0  0
    8.0249  -13.8493   15.4113 C   0  0  0  0  0  0  0  0  0  0  0  0
    9.0944  -14.3626   16.0343 N   0  0  0  0  0  0  0  0  0  0  0  0
   10.3475  -15.2737   20.6528 C   0  0  0  0  0  0  0  0  0  0  0  0
   11.5267  -15.4668   20.3081 O   0  0  0  0  0  0  0  0  0  0  0  0
    9.9984  -15.5803   21.9898 N   0  0  0  0  0  0  0  0  0  0  0  0
   10.9625  -16.0566   22.9615 C   0  0  0  0  0  0  0  0  0  0  0  0
   10.2275  -16.3821   24.2355 C   0  0  0  0  0  0  0  0  0  0  0  0
   10.8620  -16.7044   25.2719 O   0  0  0  0  0  0  0  0  0  0  0  0
    8.8204  -16.3399   24.3193 N   0  0  0  0  0  0  0  0  0  0  0  0
    8.1073  -16.7449   25.5551 C   0  0  1  0  0  0  0  0  0  0  0  0
    6.7695  -16.1076   25.5933 C   0  0  0  0  0  0  0  0  0  0  0  0
    6.8540  -14.6700   25.9023 C   0  0  0  0  0  0  0  0  0  0  0  0
    8.0360  -14.0149   26.3131 C   0  0  0  0  0  0  0  0  0  0  0  0
    7.7916  -12.7169   26.5165 N   0  0  0  0  0  0  0  0  0  0  0  0
    6.4975  -12.5204   26.2506 C   0  0  0  0  0  0  0  0  0  0  0  0
    5.9539  -13.6819   25.8887 N   0  0  0  0  0  0  0  0  0  0  0  0
    8.0125  -18.2267   25.5432 C   0  0  0  0  0  0  0  0  0  0  0  0
    7.4761  -18.7820   26.5629 O   0  0  0  0  0  0  0  0  0  0  0  0
    8.4759  -18.9694   24.4895 O   0  0  0  0  0  0  0  0  0  0  0  0
  2  1  1  6
  3  2  1  0
  4  3  1  0
  5  4  2  0
  6  7  1  0
  6  5  1  0
  7  8  2  0
  8  4  1  0
  9  2  1  0
 10  9  2  0
 11  9  1  0
 12 13  1  0
 12 11  1  0
 13 15  1  0
 14 13  2  0
 15 16  1  0
 16 17  1  6
 16 23  1  0
 18 22  1  0
 18 17  1  0
 19 18  2  0
 20 19  1  0
 20 21  1  0
 21 22  2  0
 23 24  2  0
 23 25  1  0
M  END
$$$$
