HGH.pdb
     RDKit          3D

 25 26  0  0  1  0  0  0  0  0999 V2000
    9.0556  -15.6894   19.5849 N   0  0  0  0  0  0  0  0  0  0  0  0
    7.9113  -14.8112   19.3797 C   0  0  1  0  0  0  0  0  0  0  0  0
    7.1223  -15.3107   18.1623 C   0  0  0  0  0  0  0  0  0  0  0  0
    7.6404  -14.7514   16.9091 C   0  0  0  0  0  0  0  0  0  0  0  0
    8.1770  -13.4740   16.8074 C   0  0  0  0  0  0  0  0  0  0  0  0
    8.5443  -13.2987   15.5381 N   0  0  0  0  0  0  0  0  0  0  0  0
    8.2674  -14.4057   14.8226 C   0  0  0  0  0  0  0  0  0  0  0  0
    7.7157  -15.2879   15.6670 N   0  0  0  0  0  0  0  0  0  0  0  0
    7.0422  -14.7851   20.5841 C   0  0  0  0  0  0  0  0  0  0  0  0
    6.0634  -14.0186   20.6174 O   0  0  0  0  0  0  0  0  0  0  0  0
    7.2724  -15.6013   21.7175 N   0  0  0  0  0  0  0  0  0  0  0  0
    6.4433  -15.5448   22.9049 C   0  0  0  0  0  0  0  0  0  0  0  0
    7.3247  -15.2147   24.0810 C   0  0  0  0  0  0  0  0  0  0  0  0
    6.8185  -14.9395   25.1984 O   0  0  0  0  0  0  0  0  0  0  0  0
    8.7313  -15.2003   23.9813 N   0  0  0  0  0  0  0  0  0  0  0  0
    9.5887  -14.9990   25.1746 C   0  0  1  0  0  0  0  0  0  0  0  0
    8.7714  -15.1211   26.4052 C   0  0  0  0  0  0  0  0  0  0  0  0
    7.9691  -13.9113   26.6545 C   0  0  0  0  0  0  0  0  0  0  0  0
    8.5107  -12.6137   26.7884 C   0  0  0  0  0  0  0  0  0  0  0  0
    7.5319  -11.7307   27.0080 N   0  0  0  0  0  0  0  0  0  0  0  0
    6.3864  -12.4175   27.0189 C   0  0  0  0  0  0  0  0  0  0  0  0
    6.6575  -13.7052   26.8090 N   0  0  0  0  0  0  0  0  0  0  0  0
   10.6634  -16.0224   25.1222 C   0  0  0  0  0  0  0  0  0  0  0  0
   10.6457  -16.8322   24.1324 O   0  0  0  0  0  0  0  0  0  0  0  0
   11.6327  -16.0987   26.0873 O   0  0  0  0  0  0  0  0  0  0  0  0
  2  1  1  1
  3  2  1  0
  4  3  1  0
  5  4  2  0
  6  7  1  0
  6  5  1  0
  7  8  2  0
  8  4  1  0
  9  2  1  0
 10  9  2  0
 11  9  1  0
 12 13  1  0
 12 11  1  0
 13 15  1  0
 14 13  2  0
 15 16  1  0
 16 17  1  1
 16 23  1  0
 18 22  1  0
 18 17  1  0
 19 18  2  0
 20 19  1  0
 20 21  1  0
 21 22  2  0
 23 24  2  0
 23 25  1  0
M  END
$$$$
