HGH.pdb
     RDKit          3D

 25 26  0  0  1  0  0  0  0  0999 V2000
    9.5036  -17.7963   16.3027 N   0  0  0  0  0  0  0  0  0  0  0  0
    8.6076  -16.7061   16.6650 C   0  0  1  0  0  0  0  0  0  0  0  0
    7.4040  -16.7242   15.7137 C   0  0  0  0  0  0  0  0  0  0  0  0
    7.7411  -16.1743   14.3963 C   0  0  0  0  0  0  0  0  0  0  0  0
    8.3544  -14.9405   14.2182 C   0  0  0  0  0  0  0  0  0  0  0  0
    8.5095  -14.7610   12.9066 N   0  0  0  0  0  0  0  0  0  0  0  0
    8.0234  -15.8237   12.2368 C   0  0  0  0  0  0  0  0  0  0  0  0
    7.5562  -16.6819   13.1536 N   0  0  0  0  0  0  0  0  0  0  0  0
    8.1555  -16.8392   18.0738 C   0  0  0  0  0  0  0  0  0  0  0  0
    7.4381  -15.9547   18.5736 O   0  0  0  0  0  0  0  0  0  0  0  0
    8.5038  -17.9394   18.8934 N   0  0  0  0  0  0  0  0  0  0  0  0
    7.9902  -18.1079   20.2382 C   0  0  0  0  0  0  0  0  0  0  0  0
    8.7492  -17.1824   21.1529 C   0  0  0  0  0  0  0  0  0  0  0  0
    9.9577  -16.9173   20.9301 O   0  0  0  0  0  0  0  0  0  0  0  0
    8.1473  -16.5840   22.2791 N   0  0  0  0  0  0  0  0  0  0  0  0
    8.8927  -15.6340   23.1404 C   0  0  1  0  0  0  0  0  0  0  0  0
    8.2466  -14.3008   23.0919 C   0  0  0  0  0  0  0  0  0  0  0  0
    8.2941  -13.7157   21.7411 C   0  0  0  0  0  0  0  0  0  0  0  0
    7.1636  -13.5385   20.9130 C   0  0  0  0  0  0  0  0  0  0  0  0
    7.5296  -12.9852   19.7528 N   0  0  0  0  0  0  0  0  0  0  0  0
    8.8516  -12.8032   19.8109 C   0  0  0  0  0  0  0  0  0  0  0  0
    9.2921  -13.2387   20.9907 N   0  0  0  0  0  0  0  0  0  0  0  0
    8.8964  -16.1958   24.5149 C   0  0  0  0  0  0  0  0  0  0  0  0
    8.1403  -17.2045   24.7315 O   0  0  0  0  0  0  0  0  0  0  0  0
    9.6736  -15.6621   25.5088 O   0  0  0  0  0  0  0  0  0  0  0  0
  2  1  1  6
  3  2  1  0
  4  3  1  0
  5  4  2  0
  6  7  1  0
  6  5  1  0
  7  8  2  0
  8  4  1  0
  9  2  1  0
 10  9  2  0
 11  9  1  0
 12 13  1  0
 12 11  1  0
 13 15  1  0
 14 13  2  0
 15 16  1  0
 16 17  1  1
 16 23  1  0
 18 22  1  0
 18 17  1  0
 19 18  2  0
 20 19  1  0
 20 21  1  0
 21 22  2  0
 23 24  2  0
 23 25  1  0
M  END
$$$$
