HGH.pdb
     RDKit          3D

 25 26  0  0  1  0  0  0  0  0999 V2000
    8.9341  -16.0047   19.6787 N   0  0  0  0  0  0  0  0  0  0  0  0
    8.1203  -14.9777   20.3158 C   0  0  1  0  0  0  0  0  0  0  0  0
    6.9493  -14.6337   19.3861 C   0  0  0  0  0  0  0  0  0  0  0  0
    7.4024  -14.3451   18.0212 C   0  0  0  0  0  0  0  0  0  0  0  0
    8.1698  -13.2353   17.6901 C   0  0  0  0  0  0  0  0  0  0  0  0
    8.3965  -13.2878   16.3777 N   0  0  0  0  0  0  0  0  0  0  0  0
    7.8093  -14.3806   15.8534 C   0  0  0  0  0  0  0  0  0  0  0  0
    7.2045  -15.0207   16.8634 N   0  0  0  0  0  0  0  0  0  0  0  0
    7.6154  -15.4445   21.6326 C   0  0  0  0  0  0  0  0  0  0  0  0
    6.9116  -14.6865   22.3230 O   0  0  0  0  0  0  0  0  0  0  0  0
    7.8977  -16.7299   22.1536 N   0  0  0  0  0  0  0  0  0  0  0  0
    7.3617  -17.1985   23.4161 C   0  0  0  0  0  0  0  0  0  0  0  0
    8.2255  -16.6580   24.5255 C   0  0  0  0  0  0  0  0  0  0  0  0
    9.3366  -16.1296   24.2672 O   0  0  0  0  0  0  0  0  0  0  0  0
    7.8321  -16.7204   25.8783 N   0  0  0  0  0  0  0  0  0  0  0  0
    8.6903  -16.1765   26.9587 C   0  0  1  0  0  0  0  0  0  0  0  0
    7.8764  -15.3389   27.8715 C   0  0  0  0  0  0  0  0  0  0  0  0
    7.4080  -14.1062   27.2155 C   0  0  0  0  0  0  0  0  0  0  0  0
    8.2603  -13.1572   26.6089 C   0  0  0  0  0  0  0  0  0  0  0  0
    7.5385  -12.1527   26.1028 N   0  0  0  0  0  0  0  0  0  0  0  0
    6.2576  -12.4265   26.3645 C   0  0  0  0  0  0  0  0  0  0  0  0
    6.1930  -13.5835   27.0224 N   0  0  0  0  0  0  0  0  0  0  0  0
    9.2959  -17.3340   27.6647 C   0  0  0  0  0  0  0  0  0  0  0  0
    8.8933  -18.4985   27.3212 O   0  0  0  0  0  0  0  0  0  0  0  0
   10.2440  -17.1673   28.6394 O   0  0  0  0  0  0  0  0  0  0  0  0
  2  1  1  6
  3  2  1  0
  4  3  1  0
  5  4  2  0
  6  7  1  0
  6  5  1  0
  7  8  2  0
  8  4  1  0
  9  2  1  0
 10  9  2  0
 11  9  1  0
 12 13  1  0
 12 11  1  0
 13 15  1  0
 14 13  2  0
 15 16  1  0
 16 17  1  1
 16 23  1  0
 18 22  1  0
 18 17  1  0
 19 18  2  0
 20 19  1  0
 20 21  1  0
 21 22  2  0
 23 24  2  0
 23 25  1  0
M  END
$$$$
