HGH.pdb
     RDKit          3D

 25 26  0  0  1  0  0  0  0  0999 V2000
    9.6921  -16.7216   16.8371 N   0  0  0  0  0  0  0  0  0  0  0  0
    9.0223  -16.8362   18.1259 C   0  0  1  0  0  0  0  0  0  0  0  0
    7.5370  -16.5008   17.9377 C   0  0  0  0  0  0  0  0  0  0  0  0
    7.3034  -15.0529   17.9113 C   0  0  0  0  0  0  0  0  0  0  0  0
    8.3198  -14.1132   18.0297 C   0  0  0  0  0  0  0  0  0  0  0  0
    7.7544  -12.9080   17.9650 N   0  0  0  0  0  0  0  0  0  0  0  0
    6.4222  -13.0331   17.8106 C   0  0  0  0  0  0  0  0  0  0  0  0
    6.1551  -14.3458   17.7788 N   0  0  0  0  0  0  0  0  0  0  0  0
    9.1771  -18.2048   18.6823 C   0  0  0  0  0  0  0  0  0  0  0  0
    8.9507  -19.1902   17.9582 O   0  0  0  0  0  0  0  0  0  0  0  0
    9.5759  -18.4524   20.0177 N   0  0  0  0  0  0  0  0  0  0  0  0
   10.6898  -19.3160   20.3552 C   0  0  0  0  0  0  0  0  0  0  0  0
   11.4880  -18.6523   21.4467 C   0  0  0  0  0  0  0  0  0  0  0  0
   12.4557  -19.2508   21.9815 O   0  0  0  0  0  0  0  0  0  0  0  0
   11.1896  -17.3535   21.9079 N   0  0  0  0  0  0  0  0  0  0  0  0
   12.0481  -16.6718   22.9069 C   0  0  1  0  0  0  0  0  0  0  0  0
   12.1856  -15.2385   22.5547 C   0  0  0  0  0  0  0  0  0  0  0  0
   12.7992  -15.0549   21.2283 C   0  0  0  0  0  0  0  0  0  0  0  0
   12.1885  -14.3599   20.1610 C   0  0  0  0  0  0  0  0  0  0  0  0
   12.9921  -14.3656   19.0931 N   0  0  0  0  0  0  0  0  0  0  0  0
   14.0924  -15.0385   19.4405 C   0  0  0  0  0  0  0  0  0  0  0  0
   13.9668  -15.4409   20.7045 N   0  0  0  0  0  0  0  0  0  0  0  0
   11.4088  -16.8548   24.2347 C   0  0  0  0  0  0  0  0  0  0  0  0
   10.2746  -17.4456   24.2561 O   0  0  0  0  0  0  0  0  0  0  0  0
   12.0037  -16.4137   25.3872 O   0  0  0  0  0  0  0  0  0  0  0  0
  2  1  1  6
  3  2  1  0
  4  3  1  0
  5  4  2  0
  6  7  1  0
  6  5  1  0
  7  8  2  0
  8  4  1  0
  9  2  1  0
 10  9  2  0
 11  9  1  0
 12 13  1  0
 12 11  1  0
 13 15  1  0
 14 13  2  0
 15 16  1  0
 16 17  1  6
 16 23  1  0
 18 22  1  0
 18 17  1  0
 19 18  2  0
 20 19  1  0
 20 21  1  0
 21 22  2  0
 23 24  2  0
 23 25  1  0
M  END
$$$$
