HGH.pdb
     RDKit          3D

 25 26  0  0  1  0  0  0  0  0999 V2000
    9.2649  -16.9002   17.8358 N   0  0  0  0  0  0  0  0  0  0  0  0
    8.7611  -16.0526   18.9084 C   0  0  1  0  0  0  0  0  0  0  0  0
    7.4800  -15.3604   18.4252 C   0  0  0  0  0  0  0  0  0  0  0  0
    7.7100  -14.5740   17.2083 C   0  0  0  0  0  0  0  0  0  0  0  0
    8.2821  -13.3080   17.2143 C   0  0  0  0  0  0  0  0  0  0  0  0
    8.3390  -12.8933   15.9488 N   0  0  0  0  0  0  0  0  0  0  0  0
    7.8295  -13.8362   15.1330 C   0  0  0  0  0  0  0  0  0  0  0  0
    7.4477  -14.8590   15.9098 N   0  0  0  0  0  0  0  0  0  0  0  0
    8.4877  -16.8522   20.1301 C   0  0  0  0  0  0  0  0  0  0  0  0
    7.8884  -17.9374   20.0311 O   0  0  0  0  0  0  0  0  0  0  0  0
    8.8800  -16.4375   21.4253 N   0  0  0  0  0  0  0  0  0  0  0  0
    8.5048  -17.1580   22.6256 C   0  0  0  0  0  0  0  0  0  0  0  0
    9.1073  -16.4485   23.8100 C   0  0  0  0  0  0  0  0  0  0  0  0
    9.9592  -15.5395   23.6416 O   0  0  0  0  0  0  0  0  0  0  0  0
    8.7480  -16.7678   25.1358 N   0  0  0  0  0  0  0  0  0  0  0  0
    9.4101  -16.1191   26.2935 C   0  0  1  0  0  0  0  0  0  0  0  0
    8.3877  -15.5241   27.1868 C   0  0  0  0  0  0  0  0  0  0  0  0
    7.6950  -14.3904   26.5510 C   0  0  0  0  0  0  0  0  0  0  0  0
    7.9782  -13.9155   25.2513 C   0  0  0  0  0  0  0  0  0  0  0  0
    7.1849  -12.8800   24.9605 N   0  0  0  0  0  0  0  0  0  0  0  0
    6.4066  -12.6774   26.0269 C   0  0  0  0  0  0  0  0  0  0  0  0
    6.7173  -13.5761   26.9604 N   0  0  0  0  0  0  0  0  0  0  0  0
   10.2079  -17.1627   26.9861 C   0  0  0  0  0  0  0  0  0  0  0  0
   10.0813  -18.3640   26.5657 O   0  0  0  0  0  0  0  0  0  0  0  0
   11.0438  -16.8571   28.0275 O   0  0  0  0  0  0  0  0  0  0  0  0
  2  1  1  6
  3  2  1  0
  4  3  1  0
  5  4  2  0
  6  7  1  0
  6  5  1  0
  7  8  2  0
  8  4  1  0
  9  2  1  0
 10  9  2  0
 11  9  1  0
 12 13  1  0
 12 11  1  0
 13 15  1  0
 14 13  2  0
 15 16  1  0
 16 17  1  1
 16 23  1  0
 18 22  1  0
 18 17  1  0
 19 18  2  0
 20 19  1  0
 20 21  1  0
 21 22  2  0
 23 24  2  0
 23 25  1  0
M  END
$$$$
