VAV.pdb
     RDKit          3D

 20 19  0  0  1  0  0  0  0  0999 V2000
    7.9894  -12.6251   20.6448 C   0  0  0  0  0  0  0  0  0  0  0  0
    7.4436  -13.5957   19.6403 C   0  0  1  0  0  0  0  0  0  0  0  0
    8.1804  -13.4460   18.3034 C   0  0  0  0  0  0  0  0  0  0  0  0
    7.5961  -15.0343   20.0546 C   0  0  2  0  0  0  0  0  0  0  0  0
    6.9112  -15.8562   19.0768 N   0  0  0  0  0  0  0  0  0  0  0  0
    7.1182  -15.3065   21.4169 C   0  0  0  0  0  0  0  0  0  0  0  0
    5.9926  -15.0171   21.8486 O   0  0  0  0  0  0  0  0  0  0  0  0
    8.2554  -17.5596   24.0772 C   0  0  0  0  0  0  0  0  0  0  0  0
    7.6789  -16.1896   23.7110 C   0  0  2  0  0  0  0  0  0  0  0  0
    8.0116  -15.9554   22.3256 N   0  0  0  0  0  0  0  0  0  0  0  0
    8.3523  -15.2050   24.5958 C   0  0  0  0  0  0  0  0  0  0  0  0
    9.5609  -14.9369   24.3798 O   0  0  0  0  0  0  0  0  0  0  0  0
    7.0451  -11.5554   25.8359 C   0  0  0  0  0  0  0  0  0  0  0  0
    7.4233  -12.4824   26.9568 C   0  0  1  0  0  0  0  0  0  0  0  0
    6.1620  -12.9863   27.6078 C   0  0  0  0  0  0  0  0  0  0  0  0
    8.3392  -13.5884   26.5272 C   0  0  2  0  0  0  0  0  0  0  0  0
    7.7068  -14.5518   25.6694 N   0  0  0  0  0  0  0  0  0  0  0  0
    8.8076  -14.2932   27.7464 C   0  0  0  0  0  0  0  0  0  0  0  0
    8.4165  -15.4800   28.0044 O   0  0  0  0  0  0  0  0  0  0  0  0
    9.6790  -13.6957   28.6430 O   0  0  0  0  0  0  0  0  0  0  0  0
  2  1  1  1
  2  4  1  0
  3  2  1  0
  4  5  1  6
  6 10  1  0
  6  4  1  0
  7  6  2  0
  9  8  1  1
  9 11  1  0
  9 10  1  0
 11 17  1  0
 12 11  2  0
 14 13  1  6
 14 16  1  0
 15 14  1  0
 16 18  1  0
 16 17  1  6
 18 19  2  0
 18 20  1  0
M  END
$$$$
