VAV.pdb
     RDKit          3D

 20 19  0  0  1  0  0  0  0  0999 V2000
    9.0160  -12.9611   18.0915 C   0  0  0  0  0  0  0  0  0  0  0  0
    8.5600  -13.4602   19.4301 C   0  0  1  0  0  0  0  0  0  0  0  0
    7.1541  -12.9323   19.7423 C   0  0  0  0  0  0  0  0  0  0  0  0
    8.4823  -14.9607   19.5142 C   0  0  2  0  0  0  0  0  0  0  0  0
    7.7558  -15.4366   18.3538 N   0  0  0  0  0  0  0  0  0  0  0  0
    7.8817  -15.4481   20.7632 C   0  0  0  0  0  0  0  0  0  0  0  0
    6.6664  -15.5943   20.9602 O   0  0  0  0  0  0  0  0  0  0  0  0
    9.0206  -17.4885   23.4943 C   0  0  0  0  0  0  0  0  0  0  0  0
    8.2709  -16.2023   23.1375 C   0  0  2  0  0  0  0  0  0  0  0  0
    8.7565  -15.7835   21.8437 N   0  0  0  0  0  0  0  0  0  0  0  0
    8.6226  -15.2113   24.1862 C   0  0  0  0  0  0  0  0  0  0  0  0
    9.7868  -14.7382   24.1944 O   0  0  0  0  0  0  0  0  0  0  0  0
    7.1635  -11.9558   27.6570 C   0  0  0  0  0  0  0  0  0  0  0  0
    6.8328  -13.0015   26.6295 C   0  0  1  0  0  0  0  0  0  0  0  0
    6.0972  -12.3408   25.4933 C   0  0  0  0  0  0  0  0  0  0  0  0
    8.0280  -13.7829   26.1737 C   0  0  2  0  0  0  0  0  0  0  0  0
    7.7175  -14.7704   25.1775 N   0  0  0  0  0  0  0  0  0  0  0  0
    8.5950  -14.4807   27.3544 C   0  0  0  0  0  0  0  0  0  0  0  0
    8.3215  -15.7062   27.5812 O   0  0  0  0  0  0  0  0  0  0  0  0
    9.4351  -13.8349   28.2474 O   0  0  0  0  0  0  0  0  0  0  0  0
  2  1  1  6
  2  4  1  0
  3  2  1  0
  4  5  1  6
  6 10  1  0
  6  4  1  0
  7  6  2  0
  9  8  1  1
  9 11  1  0
  9 10  1  0
 11 17  1  0
 12 11  2  0
 14 13  1  1
 14 16  1  0
 15 14  1  0
 16 18  1  0
 16 17  1  6
 18 19  2  0
 18 20  1  0
M  END
$$$$
