VAV.pdb
     RDKit          3D

 20 19  0  0  1  0  0  0  0  0999 V2000
    9.3933  -12.5693   18.1820 C   0  0  0  0  0  0  0  0  0  0  0  0
    8.7730  -13.2765   19.3499 C   0  0  1  0  0  0  0  0  0  0  0  0
    7.2675  -12.9883   19.4059 C   0  0  0  0  0  0  0  0  0  0  0  0
    8.9206  -14.7729   19.2901 C   0  0  2  0  0  0  0  0  0  0  0  0
    8.3806  -15.2252   18.0233 N   0  0  0  0  0  0  0  0  0  0  0  0
    8.2951  -15.4699   20.4221 C   0  0  0  0  0  0  0  0  0  0  0  0
    7.3372  -16.2523   20.3363 O   0  0  0  0  0  0  0  0  0  0  0  0
    9.0171  -17.2710   22.9644 C   0  0  0  0  0  0  0  0  0  0  0  0
    8.3206  -15.9090   22.9048 C   0  0  2  0  0  0  0  0  0  0  0  0
    8.8234  -15.2361   21.7303 N   0  0  0  0  0  0  0  0  0  0  0  0
    8.7119  -15.1872   24.1424 C   0  0  0  0  0  0  0  0  0  0  0  0
    9.9225  -14.8912   24.3035 O   0  0  0  0  0  0  0  0  0  0  0  0
    5.6371  -13.6205   26.8064 C   0  0  0  0  0  0  0  0  0  0  0  0
    6.8764  -12.8922   26.3677 C   0  0  1  0  0  0  0  0  0  0  0  0
    7.1694  -11.8019   27.3647 C   0  0  0  0  0  0  0  0  0  0  0  0
    8.0465  -13.8001   26.1366 C   0  0  2  0  0  0  0  0  0  0  0  0
    7.7952  -14.8144   25.1508 N   0  0  0  0  0  0  0  0  0  0  0  0
    8.3632  -14.4731   27.4209 C   0  0  0  0  0  0  0  0  0  0  0  0
    8.7774  -13.8021   28.4240 O   0  0  0  0  0  0  0  0  0  0  0  0
    8.2228  -15.8426   27.5789 O   0  0  0  0  0  0  0  0  0  0  0  0
  2  1  1  6
  2  4  1  0
  3  2  1  0
  4  5  1  6
  6 10  1  0
  6  4  1  0
  7  6  2  0
  9  8  1  1
  9 11  1  0
  9 10  1  0
 11 17  1  0
 12 11  2  0
 14 13  1  1
 14 16  1  0
 15 14  1  0
 16 18  1  0
 16 17  1  6
 18 19  2  0
 18 20  1  0
M  END
$$$$
