VAV.pdb
     RDKit          3D

 20 19  0  0  1  0  0  0  0  0999 V2000
    6.7011  -16.7313   20.7884 C   0  0  0  0  0  0  0  0  0  0  0  0
    7.2280  -15.6570   19.8844 C   0  0  1  0  0  0  0  0  0  0  0  0
    6.3028  -15.4816   18.6736 C   0  0  0  0  0  0  0  0  0  0  0  0
    7.3239  -14.3102   20.5487 C   0  0  2  0  0  0  0  0  0  0  0  0
    7.7999  -13.3589   19.5642 N   0  0  0  0  0  0  0  0  0  0  0  0
    8.1671  -14.3080   21.7518 C   0  0  0  0  0  0  0  0  0  0  0  0
    9.4061  -14.3530   21.7540 O   0  0  0  0  0  0  0  0  0  0  0  0
    7.2931  -13.8093   25.3616 C   0  0  0  0  0  0  0  0  0  0  0  0
    8.2481  -14.3033   24.2718 C   0  0  2  0  0  0  0  0  0  0  0  0
    7.5203  -14.2495   23.0258 N   0  0  0  0  0  0  0  0  0  0  0  0
    8.5961  -15.7028   24.6270 C   0  0  0  0  0  0  0  0  0  0  0  0
    7.6925  -16.5746   24.5744 O   0  0  0  0  0  0  0  0  0  0  0  0
   12.7095  -16.9231   25.2501 C   0  0  0  0  0  0  0  0  0  0  0  0
   11.6162  -17.8338   24.7663 C   0  0  1  0  0  0  0  0  0  0  0  0
   12.0035  -19.2553   25.0793 C   0  0  0  0  0  0  0  0  0  0  0  0
   10.2628  -17.4684   25.2967 C   0  0  2  0  0  0  0  0  0  0  0  0
    9.8907  -16.1084   25.0216 N   0  0  0  0  0  0  0  0  0  0  0  0
   10.2843  -17.6522   26.7692 C   0  0  0  0  0  0  0  0  0  0  0  0
   10.3847  -18.8173   27.2796 O   0  0  0  0  0  0  0  0  0  0  0  0
   10.1972  -16.5764   27.6383 O   0  0  0  0  0  0  0  0  0  0  0  0
  2  1  1  1
  2  4  1  0
  3  2  1  0
  4  5  1  6
  6 10  1  0
  6  4  1  0
  7  6  2  0
  9  8  1  1
  9 11  1  0
  9 10  1  0
 11 17  1  0
 12 11  2  0
 14 13  1  1
 14 16  1  0
 15 14  1  0
 16 18  1  0
 16 17  1  1
 18 19  2  0
 18 20  1  0
M  END
$$$$
