QLE.pdb
     RDKit          3D

 27 26  0  0  1  0  0  0  0  0999 V2000
    6.9479  -19.4421   20.6107 N   0  0  0  0  0  0  0  0  0  0  0  0
    7.7182  -18.7604   19.6379 C   0  0  0  0  0  0  0  0  0  0  0  0
    8.0511  -19.3240   18.5710 O   0  0  0  0  0  0  0  0  0  0  0  0
    8.1337  -17.3707   19.8840 C   0  0  0  0  0  0  0  0  0  0  0  0
    7.5310  -16.8584   21.1775 C   0  0  0  0  0  0  0  0  0  0  0  0
    7.9071  -15.3932   21.2791 C   0  0  2  0  0  0  0  0  0  0  0  0
    8.9149  -15.0851   20.3017 N   0  0  0  0  0  0  0  0  0  0  0  0
    8.3814  -15.1178   22.6559 C   0  0  0  0  0  0  0  0  0  0  0  0
    9.6360  -15.2346   22.8476 O   0  0  0  0  0  0  0  0  0  0  0  0
    5.6207  -11.8731   26.3900 C   0  0  0  0  0  0  0  0  0  0  0  0
    6.7750  -12.4645   25.6194 C   0  0  1  0  0  0  0  0  0  0  0  0
    8.0027  -11.6282   26.0223 C   0  0  0  0  0  0  0  0  0  0  0  0
    7.0938  -13.8664   25.9823 C   0  0  0  0  0  0  0  0  0  0  0  0
    8.0881  -14.5527   25.0805 C   0  0  2  0  0  0  0  0  0  0  0  0
    7.5533  -14.7432   23.7428 N   0  0  0  0  0  0  0  0  0  0  0  0
    8.4902  -15.8698   25.6336 C   0  0  0  0  0  0  0  0  0  0  0  0
    7.8445  -16.9313   25.3504 O   0  0  0  0  0  0  0  0  0  0  0  0
    9.5898  -16.0519   26.4945 N   0  0  0  0  0  0  0  0  0  0  0  0
   10.3258  -17.3258   26.5545 C   0  0  1  0  0  0  0  0  0  0  0  0
   11.4759  -17.3131   25.6180 C   0  0  0  0  0  0  0  0  0  0  0  0
   12.2799  -18.5777   25.7052 C   0  0  0  0  0  0  0  0  0  0  0  0
   12.5768  -19.1918   24.4034 C   0  0  0  0  0  0  0  0  0  0  0  0
   12.9961  -18.4837   23.4609 O   0  0  0  0  0  0  0  0  0  0  0  0
   10.7967  -17.4197   27.9560 C   0  0  0  0  0  0  0  0  0  0  0  0
   10.7361  -16.4130   28.7566 O   0  0  0  0  0  0  0  0  0  0  0  0
   12.3950  -20.5549   24.2110 O   0  0  0  0  0  0  0  0  0  0  0  0
   11.3225  -18.5763   28.4925 O   0  0  0  0  0  0  0  0  0  0  0  0
  2  1  1  0
  2  3  2  0
  4  2  1  0
  5  4  1  0
  6  8  1  0
  6  5  1  0
  6  7  1  6
  8 15  1  0
  9  8  2  0
 11 10  1  1
 12 11  1  0
 14 13  1  1
 13 11  1  0
 14 16  1  0
 15 14  1  0
 16 18  1  0
 17 16  2  0
 18 19  1  0
 19 24  1  0
 19 20  1  6
 21 20  1  0
 22 23  2  0
 22 21  1  0
 24 25  2  0
 24 27  1  0
 26 22  1  0
M  END
$$$$
