QLE.pdb
     RDKit          3D

 27 26  0  0  1  0  0  0  0  0999 V2000
    7.4737  -12.7552   18.9316 N   0  0  0  0  0  0  0  0  0  0  0  0
    7.9499  -13.9769   18.3977 C   0  0  0  0  0  0  0  0  0  0  0  0
    7.6273  -14.3440   17.2454 O   0  0  0  0  0  0  0  0  0  0  0  0
    8.8355  -14.8273   19.2082 C   0  0  0  0  0  0  0  0  0  0  0  0
    9.0423  -14.2199   20.5819 C   0  0  0  0  0  0  0  0  0  0  0  0
    8.8508  -15.3415   21.5838 C   0  0  2  0  0  0  0  0  0  0  0  0
    7.5176  -15.8666   21.4709 N   0  0  0  0  0  0  0  0  0  0  0  0
    9.1154  -14.8153   22.9438 C   0  0  0  0  0  0  0  0  0  0  0  0
   10.2594  -14.2829   23.1232 O   0  0  0  0  0  0  0  0  0  0  0  0
    5.3155  -12.3249   26.1828 C   0  0  0  0  0  0  0  0  0  0  0  0
    6.5425  -12.7620   25.4216 C   0  0  1  0  0  0  0  0  0  0  0  0
    7.4762  -11.5385   25.4199 C   0  0  0  0  0  0  0  0  0  0  0  0
    7.3013  -13.8590   26.0695 C   0  0  0  0  0  0  0  0  0  0  0  0
    8.5349  -14.3104   25.3296 C   0  0  2  0  0  0  0  0  0  0  0  0
    8.2041  -14.8643   24.0276 N   0  0  0  0  0  0  0  0  0  0  0  0
    9.2850  -15.3247   26.1112 C   0  0  0  0  0  0  0  0  0  0  0  0
    9.5594  -15.1413   27.3421 O   0  0  0  0  0  0  0  0  0  0  0  0
    9.7437  -16.5424   25.5725 N   0  0  0  0  0  0  0  0  0  0  0  0
   10.4743  -17.5260   26.3892 C   0  0  1  0  0  0  0  0  0  0  0  0
    9.5647  -18.6003   26.8568 C   0  0  0  0  0  0  0  0  0  0  0  0
   10.2918  -19.6318   27.6696 C   0  0  0  0  0  0  0  0  0  0  0  0
    9.4259  -20.6866   28.2149 C   0  0  0  0  0  0  0  0  0  0  0  0
    8.2305  -20.4346   28.4851 O   0  0  0  0  0  0  0  0  0  0  0  0
   11.5049  -18.0763   25.4784 C   0  0  0  0  0  0  0  0  0  0  0  0
   11.2707  -18.2558   24.2250 O   0  0  0  0  0  0  0  0  0  0  0  0
    9.9256  -21.9637   28.4332 O   0  0  0  0  0  0  0  0  0  0  0  0
   12.7691  -18.4267   25.9039 O   0  0  0  0  0  0  0  0  0  0  0  0
  2  1  1  0
  2  3  2  0
  4  2  1  0
  5  4  1  0
  6  8  1  0
  6  5  1  0
  6  7  1  1
  8 15  1  0
  9  8  2  0
 11 10  1  1
 12 11  1  0
 14 13  1  1
 13 11  1  0
 14 16  1  0
 15 14  1  0
 16 18  1  0
 17 16  2  0
 18 19  1  0
 19 24  1  0
 19 20  1  6
 21 20  1  0
 22 23  2  0
 22 21  1  0
 24 25  2  0
 24 27  1  0
 26 22  1  0
M  END
$$$$
