QLE.pdb
     RDKit          3D

 27 26  0  0  1  0  0  0  0  0999 V2000
    8.7520  -15.0478   13.5407 N   0  0  0  0  0  0  0  0  0  0  0  0
    9.5132  -16.2404   13.5922 C   0  0  0  0  0  0  0  0  0  0  0  0
   10.1923  -16.6125   12.6088 O   0  0  0  0  0  0  0  0  0  0  0  0
    9.5059  -17.0541   14.8179 C   0  0  0  0  0  0  0  0  0  0  0  0
   10.4338  -16.4557   15.8569 C   0  0  0  0  0  0  0  0  0  0  0  0
   10.2485  -17.2701   17.1222 C   0  0  2  0  0  0  0  0  0  0  0  0
    8.9863  -17.9560   17.0738 N   0  0  0  0  0  0  0  0  0  0  0  0
   10.3298  -16.3609   18.2898 C   0  0  0  0  0  0  0  0  0  0  0  0
   11.4800  -15.8701   18.5356 O   0  0  0  0  0  0  0  0  0  0  0  0
    6.2648  -12.9780   20.1060 C   0  0  0  0  0  0  0  0  0  0  0  0
    7.6110  -13.5528   19.7409 C   0  0  1  0  0  0  0  0  0  0  0  0
    8.5774  -12.3550   19.7420 C   0  0  0  0  0  0  0  0  0  0  0  0
    8.1488  -14.5176   20.7301 C   0  0  0  0  0  0  0  0  0  0  0  0
    9.4259  -15.2085   20.3241 C   0  0  2  0  0  0  0  0  0  0  0  0
    9.2416  -16.0114   19.1271 N   0  0  0  0  0  0  0  0  0  0  0  0
    9.9339  -16.0759   21.4159 C   0  0  0  0  0  0  0  0  0  0  0  0
    9.5637  -17.2906   21.5225 O   0  0  0  0  0  0  0  0  0  0  0  0
   10.8436  -15.6408   22.3990 N   0  0  0  0  0  0  0  0  0  0  0  0
   11.8287  -16.5534   23.0031 C   0  0  1  0  0  0  0  0  0  0  0  0
   13.2079  -16.0459   22.8022 C   0  0  0  0  0  0  0  0  0  0  0  0
   14.2273  -16.9227   23.4695 C   0  0  0  0  0  0  0  0  0  0  0  0
   15.6168  -16.4874   23.2703 C   0  0  0  0  0  0  0  0  0  0  0  0
   16.1265  -16.5312   22.1285 O   0  0  0  0  0  0  0  0  0  0  0  0
   11.4858  -16.5727   24.4441 C   0  0  0  0  0  0  0  0  0  0  0  0
   10.8248  -15.6136   24.9929 O   0  0  0  0  0  0  0  0  0  0  0  0
   16.3699  -16.0268   24.3422 O   0  0  0  0  0  0  0  0  0  0  0  0
   11.8439  -17.6061   25.2844 O   0  0  0  0  0  0  0  0  0  0  0  0
  2  1  1  0
  2  3  2  0
  4  2  1  0
  5  4  1  0
  6  8  1  0
  6  5  1  0
  6  7  1  6
  8 15  1  0
  9  8  2  0
 11 10  1  1
 12 11  1  0
 14 13  1  1
 13 11  1  0
 14 16  1  0
 15 14  1  0
 16 18  1  0
 17 16  2  0
 18 19  1  0
 19 24  1  0
 19 20  1  1
 21 20  1  0
 22 23  2  0
 22 21  1  0
 24 25  2  0
 24 27  1  0
 26 22  1  0
M  END
$$$$
