QLE.pdb
     RDKit          3D

 27 26  0  0  1  0  0  0  0  0999 V2000
    9.7946  -13.9518   17.1404 N   0  0  0  0  0  0  0  0  0  0  0  0
    8.3813  -13.8717   17.1151 C   0  0  0  0  0  0  0  0  0  0  0  0
    7.7449  -14.0744   16.0566 O   0  0  0  0  0  0  0  0  0  0  0  0
    7.6503  -13.5454   18.3495 C   0  0  0  0  0  0  0  0  0  0  0  0
    8.6033  -13.4725   19.5264 C   0  0  0  0  0  0  0  0  0  0  0  0
    8.3299  -14.6950   20.3804 C   0  0  2  0  0  0  0  0  0  0  0  0
    6.9587  -15.0962   20.2235 N   0  0  0  0  0  0  0  0  0  0  0  0
    8.6442  -14.3698   21.7918 C   0  0  0  0  0  0  0  0  0  0  0  0
    9.8296  -13.9609   22.0194 O   0  0  0  0  0  0  0  0  0  0  0  0
    8.5408  -12.1462   26.5704 C   0  0  0  0  0  0  0  0  0  0  0  0
    7.4509  -13.1794   26.4271 C   0  0  1  0  0  0  0  0  0  0  0  0
    6.1988  -12.5374   27.0507 C   0  0  0  0  0  0  0  0  0  0  0  0
    7.0954  -13.4977   25.0232 C   0  0  0  0  0  0  0  0  0  0  0  0
    8.1519  -14.2416   24.2464 C   0  0  2  0  0  0  0  0  0  0  0  0
    7.7370  -14.4808   22.8744 N   0  0  0  0  0  0  0  0  0  0  0  0
    8.4719  -15.5404   24.8892 C   0  0  0  0  0  0  0  0  0  0  0  0
    7.5752  -16.4276   25.0703 O   0  0  0  0  0  0  0  0  0  0  0  0
    9.7588  -15.8916   25.3405 N   0  0  0  0  0  0  0  0  0  0  0  0
   10.0493  -17.2235   25.8972 C   0  0  1  0  0  0  0  0  0  0  0  0
   11.3146  -17.7614   25.3408 C   0  0  0  0  0  0  0  0  0  0  0  0
   11.2200  -17.9895   23.8601 C   0  0  0  0  0  0  0  0  0  0  0  0
   12.4755  -18.4347   23.2395 C   0  0  0  0  0  0  0  0  0  0  0  0
   13.4687  -18.6913   23.9558 O   0  0  0  0  0  0  0  0  0  0  0  0
   10.1760  -16.9992   27.3561 C   0  0  0  0  0  0  0  0  0  0  0  0
   10.2099  -15.8128   27.8555 O   0  0  0  0  0  0  0  0  0  0  0  0
   12.5680  -18.5730   21.8608 O   0  0  0  0  0  0  0  0  0  0  0  0
   10.2624  -18.0312   28.2669 O   0  0  0  0  0  0  0  0  0  0  0  0
  2  1  1  0
  2  3  2  0
  4  2  1  0
  5  4  1  0
  6  8  1  0
  6  5  1  0
  6  7  1  1
  8 15  1  0
  9  8  2  0
 11 10  1  6
 12 11  1  0
 14 13  1  1
 13 11  1  0
 14 16  1  0
 15 14  1  0
 16 18  1  0
 17 16  2  0
 18 19  1  0
 19 24  1  0
 19 20  1  6
 21 20  1  0
 22 23  2  0
 22 21  1  0
 24 25  2  0
 24 27  1  0
 26 22  1  0
M  END
$$$$
