DVI.pdb
     RDKit          3D

 24 23  0  0  1  0  0  0  0  0999 V2000
   13.0066  -17.0223   19.8184 N   0  0  0  0  0  0  0  0  0  0  0  0
   12.0272  -17.6207   20.7643 C   0  0  1  0  0  0  0  0  0  0  0  0
   12.7486  -18.3275   21.8561 C   0  0  0  0  0  0  0  0  0  0  0  0
   13.4301  -19.5680   21.5370 C   0  0  0  0  0  0  0  0  0  0  0  0
   13.1549  -20.2738   20.5500 O   0  0  0  0  0  0  0  0  0  0  0  0
   11.0864  -16.5670   21.1906 C   0  0  0  0  0  0  0  0  0  0  0  0
   11.4438  -15.4049   21.3401 O   0  0  0  0  0  0  0  0  0  0  0  0
   14.4512  -20.0120   22.3671 O   0  0  0  0  0  0  0  0  0  0  0  0
    7.4564  -15.7027   19.7388 C   0  0  0  0  0  0  0  0  0  0  0  0
    7.4371  -15.7802   21.2283 C   0  0  2  0  0  0  0  0  0  0  0  0
    6.5540  -14.7358   21.8638 C   0  0  0  0  0  0  0  0  0  0  0  0
    8.7553  -15.8450   21.9036 C   0  0  2  0  0  0  0  0  0  0  0  0
    9.6845  -16.8224   21.4619 N   0  0  0  0  0  0  0  0  0  0  0  0
    8.7338  -15.5551   23.3577 C   0  0  0  0  0  0  0  0  0  0  0  0
    9.1924  -16.4077   24.2015 O   0  0  0  0  0  0  0  0  0  0  0  0
    6.9350  -11.3639   27.5777 C   0  0  0  0  0  0  0  0  0  0  0  0
    7.4478  -12.7834   27.3389 C   0  0  0  0  0  0  0  0  0  0  0  0
    7.3840  -13.0179   25.8461 C   0  0  2  0  0  0  0  0  0  0  0  0
    5.9332  -13.3029   25.5257 C   0  0  0  0  0  0  0  0  0  0  0  0
    8.2016  -14.1739   25.3966 C   0  0  2  0  0  0  0  0  0  0  0  0
    8.2318  -14.3735   23.9583 N   0  0  0  0  0  0  0  0  0  0  0  0
    7.7471  -15.3980   26.0988 C   0  0  0  0  0  0  0  0  0  0  0  0
    8.1899  -15.6469   27.2386 O   0  0  0  0  0  0  0  0  0  0  0  0
    6.8403  -16.2947   25.5436 O   0  0  0  0  0  0  0  0  0  0  0  0
  2  3  1  0
  2  1  1  6
  3  4  1  0
  4  5  2  0
  4  8  1  0
  6  7  2  0
  6  2  1  0
 10  9  1  6
 10 12  1  0
 11 10  1  0
 12 14  1  0
 12 13  1  1
 13  6  1  0
 14 21  1  0
 15 14  2  0
 16 17  1  0
 18 20  1  0
 18 17  1  0
 18 19  1  1
 20 22  1  0
 20 21  1  6
 22 23  2  0
 22 24  1  0
M  END
$$$$
