DVI.pdb
     RDKit          3D

 24 23  0  0  1  0  0  0  0  0999 V2000
   11.7334  -17.2331   18.9249 N   0  0  0  0  0  0  0  0  0  0  0  0
   10.9352  -17.9220   19.9737 C   0  0  1  0  0  0  0  0  0  0  0  0
   11.7046  -19.0727   20.5179 C   0  0  0  0  0  0  0  0  0  0  0  0
   11.9282  -20.2175   19.6552 C   0  0  0  0  0  0  0  0  0  0  0  0
   11.7100  -20.2132   18.4303 O   0  0  0  0  0  0  0  0  0  0  0  0
   10.4949  -16.9172   20.9605 C   0  0  0  0  0  0  0  0  0  0  0  0
   11.2797  -16.1269   21.4707 O   0  0  0  0  0  0  0  0  0  0  0  0
   12.4132  -21.3961   20.2071 O   0  0  0  0  0  0  0  0  0  0  0  0
    6.9913  -14.6794   20.9273 C   0  0  0  0  0  0  0  0  0  0  0  0
    7.3074  -15.3064   22.2434 C   0  0  2  0  0  0  0  0  0  0  0  0
    6.9636  -14.4238   23.4170 C   0  0  0  0  0  0  0  0  0  0  0  0
    8.6651  -15.8835   22.3911 C   0  0  2  0  0  0  0  0  0  0  0  0
    9.1174  -16.7892   21.3966 N   0  0  0  0  0  0  0  0  0  0  0  0
    9.0833  -16.1621   23.7862 C   0  0  0  0  0  0  0  0  0  0  0  0
    9.1926  -17.3705   24.2072 O   0  0  0  0  0  0  0  0  0  0  0  0
   10.3818  -13.4638   29.2563 C   0  0  0  0  0  0  0  0  0  0  0  0
   10.3165  -14.7583   28.4470 C   0  0  0  0  0  0  0  0  0  0  0  0
    9.8898  -14.3699   27.0489 C   0  0  2  0  0  0  0  0  0  0  0  0
    8.5403  -13.7009   27.1905 C   0  0  0  0  0  0  0  0  0  0  0  0
    9.7462  -15.5311   26.1337 C   0  0  2  0  0  0  0  0  0  0  0  0
    9.3925  -15.1874   24.7676 N   0  0  0  0  0  0  0  0  0  0  0  0
    8.7790  -16.4944   26.7122 C   0  0  0  0  0  0  0  0  0  0  0  0
    7.5784  -16.4277   26.3782 O   0  0  0  0  0  0  0  0  0  0  0  0
    9.1471  -17.4815   27.6203 O   0  0  0  0  0  0  0  0  0  0  0  0
  2  3  1  0
  2  1  1  6
  3  4  1  0
  4  5  2  0
  4  8  1  0
  6  7  2  0
  6  2  1  0
 10  9  1  6
 10 12  1  0
 11 10  1  0
 12 14  1  0
 12 13  1  6
 13  6  1  0
 14 21  1  0
 15 14  2  0
 16 17  1  0
 18 20  1  0
 18 17  1  0
 18 19  1  1
 20 22  1  0
 20 21  1  6
 22 23  2  0
 22 24  1  0
M  END
$$$$
