DVI.pdb
     RDKit          3D

 24 23  0  0  1  0  0  0  0  0999 V2000
   11.9142  -16.4286   19.3780 N   0  0  0  0  0  0  0  0  0  0  0  0
   12.4763  -15.3166   20.1900 C   0  0  1  0  0  0  0  0  0  0  0  0
   13.3351  -14.4533   19.3359 C   0  0  0  0  0  0  0  0  0  0  0  0
   14.6972  -14.8815   19.0785 C   0  0  0  0  0  0  0  0  0  0  0  0
   15.0743  -16.0652   19.1466 O   0  0  0  0  0  0  0  0  0  0  0  0
   11.3650  -14.6360   20.8822 C   0  0  0  0  0  0  0  0  0  0  0  0
   11.5613  -13.7216   21.6733 O   0  0  0  0  0  0  0  0  0  0  0  0
   15.6512  -13.9326   18.7347 O   0  0  0  0  0  0  0  0  0  0  0  0
    7.7520  -13.3587   19.3308 C   0  0  0  0  0  0  0  0  0  0  0  0
    7.6298  -14.1617   20.5819 C   0  0  2  0  0  0  0  0  0  0  0  0
    6.5176  -13.6872   21.4833 C   0  0  0  0  0  0  0  0  0  0  0  0
    8.8788  -14.3836   21.3493 C   0  0  2  0  0  0  0  0  0  0  0  0
    9.9733  -14.9922   20.6818 N   0  0  0  0  0  0  0  0  0  0  0  0
    8.6875  -14.7386   22.7762 C   0  0  0  0  0  0  0  0  0  0  0  0
    8.9755  -15.9156   23.2016 O   0  0  0  0  0  0  0  0  0  0  0  0
    6.0117  -11.3767   26.5652 C   0  0  0  0  0  0  0  0  0  0  0  0
    7.2558  -12.0659   26.0065 C   0  0  0  0  0  0  0  0  0  0  0  0
    6.9115  -13.5326   25.8739 C   0  0  2  0  0  0  0  0  0  0  0  0
    6.8080  -14.0704   27.2842 C   0  0  0  0  0  0  0  0  0  0  0  0
    7.9428  -14.3156   25.1458 C   0  0  2  0  0  0  0  0  0  0  0  0
    8.1905  -13.8749   23.7842 N   0  0  0  0  0  0  0  0  0  0  0  0
    7.5862  -15.7540   25.1876 C   0  0  0  0  0  0  0  0  0  0  0  0
    8.1900  -16.5090   25.9767 O   0  0  0  0  0  0  0  0  0  0  0  0
    6.5996  -16.3116   24.3812 O   0  0  0  0  0  0  0  0  0  0  0  0
  2  3  1  0
  2  1  1  6
  3  4  1  0
  4  5  2  0
  4  8  1  0
  6  7  2  0
  6  2  1  0
 10  9  1  6
 10 12  1  0
 11 10  1  0
 12 14  1  0
 12 13  1  6
 13  6  1  0
 14 21  1  0
 15 14  2  0
 16 17  1  0
 18 20  1  0
 18 17  1  0
 18 19  1  1
 20 22  1  0
 20 21  1  6
 22 23  2  0
 22 24  1  0
M  END
$$$$
