DVI.pdb
     RDKit          3D

 24 23  0  0  1  0  0  0  0  0999 V2000
    8.9274  -17.2859   18.7641 N   0  0  0  0  0  0  0  0  0  0  0  0
    9.6990  -17.6017   19.9957 C   0  0  1  0  0  0  0  0  0  0  0  0
   11.0630  -17.0165   19.8995 C   0  0  0  0  0  0  0  0  0  0  0  0
   11.9904  -17.5922   18.9438 C   0  0  0  0  0  0  0  0  0  0  0  0
   11.8095  -18.6849   18.3771 O   0  0  0  0  0  0  0  0  0  0  0  0
    8.9012  -17.1869   21.1656 C   0  0  0  0  0  0  0  0  0  0  0  0
    8.3223  -16.1079   21.2019 O   0  0  0  0  0  0  0  0  0  0  0  0
   13.1531  -16.9011   18.6286 O   0  0  0  0  0  0  0  0  0  0  0  0
    6.1775  -19.4877   23.0570 C   0  0  0  0  0  0  0  0  0  0  0  0
    7.0591  -18.7640   24.0183 C   0  0  2  0  0  0  0  0  0  0  0  0
    6.3263  -18.2814   25.2450 C   0  0  0  0  0  0  0  0  0  0  0  0
    7.9139  -17.6926   23.4531 C   0  0  2  0  0  0  0  0  0  0  0  0
    8.7427  -18.0137   22.3469 N   0  0  0  0  0  0  0  0  0  0  0  0
    8.4654  -16.7374   24.4441 C   0  0  0  0  0  0  0  0  0  0  0  0
    9.6627  -16.8741   24.8882 O   0  0  0  0  0  0  0  0  0  0  0  0
    5.9916  -11.8343   25.8916 C   0  0  0  0  0  0  0  0  0  0  0  0
    7.1031  -12.7400   25.3631 C   0  0  0  0  0  0  0  0  0  0  0  0
    7.4621  -13.6822   26.4904 C   0  0  2  0  0  0  0  0  0  0  0  0
    8.2193  -12.8552   27.5060 C   0  0  0  0  0  0  0  0  0  0  0  0
    8.3284  -14.8100   26.0612 C   0  0  2  0  0  0  0  0  0  0  0  0
    7.7789  -15.6249   24.9918 N   0  0  0  0  0  0  0  0  0  0  0  0
    8.6766  -15.6372   27.2413 C   0  0  0  0  0  0  0  0  0  0  0  0
    7.8632  -16.4916   27.6482 O   0  0  0  0  0  0  0  0  0  0  0  0
    9.8799  -15.5070   27.9266 O   0  0  0  0  0  0  0  0  0  0  0  0
  2  3  1  0
  2  1  1  6
  3  4  1  0
  4  5  2  0
  4  8  1  0
  6  7  2  0
  6  2  1  0
 10  9  1  6
 10 12  1  0
 11 10  1  0
 12 14  1  0
 12 13  1  1
 13  6  1  0
 14 21  1  0
 15 14  2  0
 16 17  1  0
 18 20  1  0
 18 17  1  0
 18 19  1  1
 20 22  1  0
 20 21  1  6
 22 23  2  0
 22 24  1  0
M  END
$$$$
