DVI.pdb
     RDKit          3D

 24 23  0  0  1  0  0  0  0  0999 V2000
   10.2925  -16.6285   18.9622 N   0  0  0  0  0  0  0  0  0  0  0  0
   10.8301  -16.8114   20.3367 C   0  0  1  0  0  0  0  0  0  0  0  0
   12.1248  -16.0919   20.4712 C   0  0  0  0  0  0  0  0  0  0  0  0
   13.3190  -16.7247   19.9436 C   0  0  0  0  0  0  0  0  0  0  0  0
   13.3330  -17.8610   19.4369 O   0  0  0  0  0  0  0  0  0  0  0  0
    9.7803  -16.4342   21.3026 C   0  0  0  0  0  0  0  0  0  0  0  0
    9.1878  -15.3647   21.2265 O   0  0  0  0  0  0  0  0  0  0  0  0
   14.5268  -16.0412   19.9969 O   0  0  0  0  0  0  0  0  0  0  0  0
    6.2794  -17.5237   24.6308 C   0  0  0  0  0  0  0  0  0  0  0  0
    7.3687  -17.9632   23.7115 C   0  0  2  0  0  0  0  0  0  0  0  0
    8.0090  -19.2625   24.1313 C   0  0  0  0  0  0  0  0  0  0  0  0
    8.3956  -16.9492   23.3716 C   0  0  2  0  0  0  0  0  0  0  0  0
    9.3742  -17.2892   22.4018 N   0  0  0  0  0  0  0  0  0  0  0  0
    8.8447  -16.1028   24.5032 C   0  0  0  0  0  0  0  0  0  0  0  0
    9.9588  -16.3408   25.0961 O   0  0  0  0  0  0  0  0  0  0  0  0
    5.7267  -11.9510   27.1159 C   0  0  0  0  0  0  0  0  0  0  0  0
    6.3626  -13.2984   26.7770 C   0  0  0  0  0  0  0  0  0  0  0  0
    7.8250  -13.0266   26.5029 C   0  0  2  0  0  0  0  0  0  0  0  0
    7.8656  -12.1195   25.2929 C   0  0  0  0  0  0  0  0  0  0  0  0
    8.6045  -14.2539   26.1979 C   0  0  2  0  0  0  0  0  0  0  0  0
    8.1402  -14.9956   25.0387 N   0  0  0  0  0  0  0  0  0  0  0  0
    8.6519  -15.1163   27.4030 C   0  0  0  0  0  0  0  0  0  0  0  0
    9.2582  -14.7142   28.4168 O   0  0  0  0  0  0  0  0  0  0  0  0
    8.0469  -16.3674   27.4609 O   0  0  0  0  0  0  0  0  0  0  0  0
  2  3  1  0
  2  1  1  6
  3  4  1  0
  4  5  2  0
  4  8  1  0
  6  7  2  0
  6  2  1  0
 10  9  1  1
 10 12  1  0
 11 10  1  0
 12 14  1  0
 12 13  1  1
 13  6  1  0
 14 21  1  0
 15 14  2  0
 16 17  1  0
 18 20  1  0
 18 17  1  0
 18 19  1  6
 20 22  1  0
 20 21  1  6
 22 23  2  0
 22 24  1  0
M  END
$$$$
