DVI.pdb
     RDKit          3D

 24 23  0  0  1  0  0  0  0  0999 V2000
   12.2436  -17.0168   19.3271 N   0  0  0  0  0  0  0  0  0  0  0  0
   11.2137  -17.6887   20.1635 C   0  0  1  0  0  0  0  0  0  0  0  0
   11.7746  -18.9363   20.7476 C   0  0  0  0  0  0  0  0  0  0  0  0
   12.2283  -19.9742   19.8410 C   0  0  0  0  0  0  0  0  0  0  0  0
   12.5462  -21.1204   20.2061 O   0  0  0  0  0  0  0  0  0  0  0  0
   10.6836  -16.7071   21.1293 C   0  0  0  0  0  0  0  0  0  0  0  0
   11.4036  -15.8693   21.6587 O   0  0  0  0  0  0  0  0  0  0  0  0
   12.3207  -19.6943   18.4839 O   0  0  0  0  0  0  0  0  0  0  0  0
    7.1650  -14.5481   20.9411 C   0  0  0  0  0  0  0  0  0  0  0  0
    7.3917  -15.2229   22.2520 C   0  0  2  0  0  0  0  0  0  0  0  0
    6.9277  -14.4013   23.4285 C   0  0  0  0  0  0  0  0  0  0  0  0
    8.7494  -15.7701   22.4873 C   0  0  2  0  0  0  0  0  0  0  0  0
    9.2877  -16.6589   21.5209 N   0  0  0  0  0  0  0  0  0  0  0  0
    9.0800  -16.0481   23.9058 C   0  0  0  0  0  0  0  0  0  0  0  0
    9.1218  -17.2549   24.3432 O   0  0  0  0  0  0  0  0  0  0  0  0
   10.5218  -13.3596   29.3363 C   0  0  0  0  0  0  0  0  0  0  0  0
   10.2464  -14.6627   28.5872 C   0  0  0  0  0  0  0  0  0  0  0  0
    9.8102  -14.2727   27.1926 C   0  0  2  0  0  0  0  0  0  0  0  0
    8.4187  -13.6955   27.3320 C   0  0  0  0  0  0  0  0  0  0  0  0
    9.7517  -15.4208   26.2517 C   0  0  2  0  0  0  0  0  0  0  0  0
    9.3701  -15.0743   24.8939 N   0  0  0  0  0  0  0  0  0  0  0  0
    8.8607  -16.4664   26.8093 C   0  0  0  0  0  0  0  0  0  0  0  0
    9.2944  -17.2256   27.6997 O   0  0  0  0  0  0  0  0  0  0  0  0
    7.5486  -16.6461   26.3842 O   0  0  0  0  0  0  0  0  0  0  0  0
  2  3  1  0
  2  1  1  1
  3  4  1  0
  4  5  2  0
  4  8  1  0
  6  7  2  0
  6  2  1  0
 10  9  1  6
 10 12  1  0
 11 10  1  0
 12 14  1  0
 12 13  1  6
 13  6  1  0
 14 21  1  0
 15 14  2  0
 16 17  1  0
 18 20  1  0
 18 17  1  0
 18 19  1  1
 20 22  1  0
 20 21  1  6
 22 23  2  0
 22 24  1  0
M  END
$$$$
