DVI.pdb
     RDKit          3D

 24 23  0  0  1  0  0  0  0  0999 V2000
    9.5899  -18.5456   19.6031 N   0  0  0  0  0  0  0  0  0  0  0  0
    8.6929  -17.3904   19.3336 C   0  0  1  0  0  0  0  0  0  0  0  0
    7.8165  -17.6938   18.1707 C   0  0  0  0  0  0  0  0  0  0  0  0
    8.4320  -17.8221   16.8632 C   0  0  0  0  0  0  0  0  0  0  0  0
    9.3449  -18.6271   16.6048 O   0  0  0  0  0  0  0  0  0  0  0  0
    8.0000  -17.0350   20.5869 C   0  0  0  0  0  0  0  0  0  0  0  0
    7.1680  -16.1369   20.6317 O   0  0  0  0  0  0  0  0  0  0  0  0
    7.9927  -17.0098   15.8259 O   0  0  0  0  0  0  0  0  0  0  0  0
    7.9509  -19.3989   24.6033 C   0  0  0  0  0  0  0  0  0  0  0  0
    6.9934  -18.5679   23.8174 C   0  0  2  0  0  0  0  0  0  0  0  0
    6.0760  -19.3878   22.9452 C   0  0  0  0  0  0  0  0  0  0  0  0
    7.5713  -17.4311   23.0613 C   0  0  2  0  0  0  0  0  0  0  0  0
    8.2469  -17.7126   21.8454 N   0  0  0  0  0  0  0  0  0  0  0  0
    8.1262  -16.3369   23.8941 C   0  0  0  0  0  0  0  0  0  0  0  0
    9.3943  -16.2192   24.0591 O   0  0  0  0  0  0  0  0  0  0  0  0
    6.9261  -10.8155   26.4004 C   0  0  0  0  0  0  0  0  0  0  0  0
    7.8629  -12.0225   26.3807 C   0  0  0  0  0  0  0  0  0  0  0  0
    7.1703  -13.0909   25.5645 C   0  0  2  0  0  0  0  0  0  0  0  0
    5.9030  -13.4386   26.3140 C   0  0  0  0  0  0  0  0  0  0  0  0
    7.9785  -14.3272   25.4066 C   0  0  2  0  0  0  0  0  0  0  0  0
    7.3699  -15.3479   24.5716 N   0  0  0  0  0  0  0  0  0  0  0  0
    8.3207  -14.8633   26.7459 C   0  0  0  0  0  0  0  0  0  0  0  0
    7.7085  -15.8614   27.1776 O   0  0  0  0  0  0  0  0  0  0  0  0
    9.3025  -14.3025   27.5559 O   0  0  0  0  0  0  0  0  0  0  0  0
  2  3  1  0
  2  1  1  1
  3  4  1  0
  4  5  2  0
  4  8  1  0
  6  7  2  0
  6  2  1  0
 10  9  1  6
 10 12  1  0
 11 10  1  0
 12 14  1  0
 12 13  1  1
 13  6  1  0
 14 21  1  0
 15 14  2  0
 16 17  1  0
 18 20  1  0
 18 17  1  0
 18 19  1  1
 20 22  1  0
 20 21  1  6
 22 23  2  0
 22 24  1  0
M  END
$$$$
