DVI.pdb
     RDKit          3D

 24 23  0  0  1  0  0  0  0  0999 V2000
   13.3378  -14.4438   18.9786 N   0  0  0  0  0  0  0  0  0  0  0  0
   12.5283  -15.3870   19.7952 C   0  0  1  0  0  0  0  0  0  0  0  0
   13.4147  -16.1386   20.7234 C   0  0  0  0  0  0  0  0  0  0  0  0
   14.4260  -17.0082   20.1523 C   0  0  0  0  0  0  0  0  0  0  0  0
   14.2219  -17.7636   19.1850 O   0  0  0  0  0  0  0  0  0  0  0  0
   11.4275  -14.6329   20.4251 C   0  0  0  0  0  0  0  0  0  0  0  0
   11.6285  -13.5972   21.0477 O   0  0  0  0  0  0  0  0  0  0  0  0
   15.7017  -17.0140   20.7012 O   0  0  0  0  0  0  0  0  0  0  0  0
    7.8081  -13.4234   19.0378 C   0  0  0  0  0  0  0  0  0  0  0  0
    7.7054  -14.1971   20.3090 C   0  0  2  0  0  0  0  0  0  0  0  0
    6.6282  -13.6814   21.2301 C   0  0  0  0  0  0  0  0  0  0  0  0
    8.9708  -14.4274   21.0464 C   0  0  2  0  0  0  0  0  0  0  0  0
   10.0410  -15.0538   20.3564 N   0  0  0  0  0  0  0  0  0  0  0  0
    8.8117  -14.7690   22.4805 C   0  0  0  0  0  0  0  0  0  0  0  0
    9.2914  -15.8643   22.9490 O   0  0  0  0  0  0  0  0  0  0  0  0
    6.4636  -11.2483   26.3003 C   0  0  0  0  0  0  0  0  0  0  0  0
    7.5469  -12.0444   25.5739 C   0  0  0  0  0  0  0  0  0  0  0  0
    7.1414  -13.4990   25.6595 C   0  0  2  0  0  0  0  0  0  0  0  0
    7.2973  -13.8954   27.1111 C   0  0  0  0  0  0  0  0  0  0  0  0
    7.9892  -14.3958   24.8326 C   0  0  2  0  0  0  0  0  0  0  0  0
    8.1479  -13.9774   23.4509 N   0  0  0  0  0  0  0  0  0  0  0  0
    7.4659  -15.7804   24.9173 C   0  0  0  0  0  0  0  0  0  0  0  0
    6.4948  -16.1095   24.2061 O   0  0  0  0  0  0  0  0  0  0  0  0
    8.0100  -16.7434   25.7605 O   0  0  0  0  0  0  0  0  0  0  0  0
  2  3  1  0
  2  1  1  1
  3  4  1  0
  4  5  2  0
  4  8  1  0
  6  7  2  0
  6  2  1  0
 10  9  1  6
 10 12  1  0
 11 10  1  0
 12 14  1  0
 12 13  1  6
 13  6  1  0
 14 21  1  0
 15 14  2  0
 16 17  1  0
 18 20  1  0
 18 17  1  0
 18 19  1  1
 20 22  1  0
 20 21  1  6
 22 23  2  0
 22 24  1  0
M  END
$$$$
