DVI.pdb
     RDKit          3D

 24 23  0  0  1  0  0  0  0  0999 V2000
   11.9932  -17.0750   19.0086 N   0  0  0  0  0  0  0  0  0  0  0  0
   11.1944  -17.7374   20.0739 C   0  0  1  0  0  0  0  0  0  0  0  0
   11.9977  -18.8165   20.7084 C   0  0  0  0  0  0  0  0  0  0  0  0
   12.4620  -19.9077   19.8725 C   0  0  0  0  0  0  0  0  0  0  0  0
   13.5139  -20.5386   20.0806 O   0  0  0  0  0  0  0  0  0  0  0  0
   10.6784  -16.6979   20.9852 C   0  0  0  0  0  0  0  0  0  0  0  0
   11.4281  -15.9510   21.6022 O   0  0  0  0  0  0  0  0  0  0  0  0
   11.7045  -20.2864   18.7718 O   0  0  0  0  0  0  0  0  0  0  0  0
    7.3009  -14.2311   20.6187 C   0  0  0  0  0  0  0  0  0  0  0  0
    7.4201  -14.9626   21.9132 C   0  0  2  0  0  0  0  0  0  0  0  0
    6.9492  -14.1533   23.0956 C   0  0  0  0  0  0  0  0  0  0  0  0
    8.7282  -15.6018   22.1929 C   0  0  2  0  0  0  0  0  0  0  0  0
    9.2628  -16.4830   21.2174 N   0  0  0  0  0  0  0  0  0  0  0  0
    8.9660  -15.9563   23.6129 C   0  0  0  0  0  0  0  0  0  0  0  0
    8.9292  -17.1815   23.9962 O   0  0  0  0  0  0  0  0  0  0  0  0
   10.1405  -13.5750   29.2571 C   0  0  0  0  0  0  0  0  0  0  0  0
   10.0634  -14.8246   28.3810 C   0  0  0  0  0  0  0  0  0  0  0  0
    9.6824  -14.3547   26.9948 C   0  0  2  0  0  0  0  0  0  0  0  0
    8.3459  -13.6603   27.1376 C   0  0  0  0  0  0  0  0  0  0  0  0
    9.5349  -15.4637   26.0175 C   0  0  2  0  0  0  0  0  0  0  0  0
    9.2435  -15.0410   24.6589 N   0  0  0  0  0  0  0  0  0  0  0  0
    8.5159  -16.4204   26.5120 C   0  0  0  0  0  0  0  0  0  0  0  0
    7.3310  -16.2948   26.1409 O   0  0  0  0  0  0  0  0  0  0  0  0
    8.8180  -17.4644   27.3800 O   0  0  0  0  0  0  0  0  0  0  0  0
  2  3  1  0
  2  1  1  6
  3  4  1  0
  4  5  2  0
  4  8  1  0
  6  7  2  0
  6  2  1  0
 10  9  1  6
 10 12  1  0
 11 10  1  0
 12 14  1  0
 12 13  1  6
 13  6  1  0
 14 21  1  0
 15 14  2  0
 16 17  1  0
 18 20  1  0
 18 17  1  0
 18 19  1  1
 20 22  1  0
 20 21  1  6
 22 23  2  0
 22 24  1  0
M  END
$$$$
