DVI.pdb
     RDKit          3D

 24 23  0  0  1  0  0  0  0  0999 V2000
   10.0861  -18.7518   19.3909 N   0  0  0  0  0  0  0  0  0  0  0  0
    8.9842  -18.3476   20.3042 C   0  0  1  0  0  0  0  0  0  0  0  0
    8.8408  -19.3490   21.3946 C   0  0  0  0  0  0  0  0  0  0  0  0
    8.6096  -20.7336   21.0280 C   0  0  0  0  0  0  0  0  0  0  0  0
    9.4324  -21.6465   21.2214 O   0  0  0  0  0  0  0  0  0  0  0  0
    9.2212  -16.9562   20.7346 C   0  0  0  0  0  0  0  0  0  0  0  0
   10.3194  -16.5804   21.1264 O   0  0  0  0  0  0  0  0  0  0  0  0
    7.4078  -21.0824   20.4256 O   0  0  0  0  0  0  0  0  0  0  0  0
    7.0213  -13.5827   19.2933 C   0  0  0  0  0  0  0  0  0  0  0  0
    7.3743  -13.5879   20.7426 C   0  0  2  0  0  0  0  0  0  0  0  0
    7.7385  -12.2218   21.2677 C   0  0  0  0  0  0  0  0  0  0  0  0
    8.3598  -14.6059   21.1789 C   0  0  2  0  0  0  0  0  0  0  0  0
    8.1863  -15.9399   20.7269 N   0  0  0  0  0  0  0  0  0  0  0  0
    8.8786  -14.4314   22.5570 C   0  0  0  0  0  0  0  0  0  0  0  0
    9.8019  -13.5737   22.8045 O   0  0  0  0  0  0  0  0  0  0  0  0
    6.9927  -11.8072   26.9824 C   0  0  0  0  0  0  0  0  0  0  0  0
    7.9828  -12.9547   26.7874 C   0  0  0  0  0  0  0  0  0  0  0  0
    7.6835  -13.5547   25.4317 C   0  0  2  0  0  0  0  0  0  0  0  0
    6.2857  -14.1262   25.5230 C   0  0  0  0  0  0  0  0  0  0  0  0
    8.6156  -14.6479   25.0534 C   0  0  2  0  0  0  0  0  0  0  0  0
    8.4467  -15.1487   23.7006 N   0  0  0  0  0  0  0  0  0  0  0  0
    8.5154  -15.7433   26.0475 C   0  0  0  0  0  0  0  0  0  0  0  0
    8.7237  -15.4939   27.2523 O   0  0  0  0  0  0  0  0  0  0  0  0
    8.1968  -17.0519   25.7002 O   0  0  0  0  0  0  0  0  0  0  0  0
  2  3  1  0
  2  1  1  6
  3  4  1  0
  4  5  2  0
  4  8  1  0
  6  7  2  0
  6  2  1  0
 10  9  1  6
 10 12  1  0
 11 10  1  0
 12 14  1  0
 12 13  1  1
 13  6  1  0
 14 21  1  0
 15 14  2  0
 16 17  1  0
 18 20  1  0
 18 17  1  0
 18 19  1  1
 20 22  1  0
 20 21  1  6
 22 23  2  0
 22 24  1  0
M  END
$$$$
