DVI.pdb
     RDKit          3D

 24 23  0  0  1  0  0  0  0  0999 V2000
   11.5828  -18.0256   20.2192 N   0  0  0  0  0  0  0  0  0  0  0  0
   12.2008  -17.2304   21.3134 C   0  0  1  0  0  0  0  0  0  0  0  0
   13.4872  -16.6470   20.8475 C   0  0  0  0  0  0  0  0  0  0  0  0
   14.5784  -17.5517   20.5381 C   0  0  0  0  0  0  0  0  0  0  0  0
   14.6420  -18.7242   20.9493 O   0  0  0  0  0  0  0  0  0  0  0  0
   11.2005  -16.2678   21.8134 C   0  0  0  0  0  0  0  0  0  0  0  0
   11.5156  -15.3199   22.5226 O   0  0  0  0  0  0  0  0  0  0  0  0
   15.6223  -17.1043   19.7389 O   0  0  0  0  0  0  0  0  0  0  0  0
    7.6956  -14.9333   19.8586 C   0  0  0  0  0  0  0  0  0  0  0  0
    7.5318  -15.3386   21.2848 C   0  0  2  0  0  0  0  0  0  0  0  0
    6.5560  -14.4699   22.0384 C   0  0  0  0  0  0  0  0  0  0  0  0
    8.7782  -15.5373   22.0625 C   0  0  2  0  0  0  0  0  0  0  0  0
    9.7861  -16.3680   21.5076 N   0  0  0  0  0  0  0  0  0  0  0  0
    8.6009  -15.5967   23.5335 C   0  0  0  0  0  0  0  0  0  0  0  0
    8.6348  -16.7220   24.1515 O   0  0  0  0  0  0  0  0  0  0  0  0
    5.7718  -11.9206   26.9239 C   0  0  0  0  0  0  0  0  0  0  0  0
    6.2833  -13.0091   25.9813 C   0  0  0  0  0  0  0  0  0  0  0  0
    7.6496  -13.4110   26.4903 C   0  0  2  0  0  0  0  0  0  0  0  0
    8.5680  -12.2447   26.1986 C   0  0  0  0  0  0  0  0  0  0  0  0
    8.1952  -14.6192   25.8200 C   0  0  2  0  0  0  0  0  0  0  0  0
    8.3825  -14.4856   24.3860 N   0  0  0  0  0  0  0  0  0  0  0  0
    7.3405  -15.7868   26.1431 C   0  0  0  0  0  0  0  0  0  0  0  0
    7.4143  -16.3009   27.2777 O   0  0  0  0  0  0  0  0  0  0  0  0
    6.4491  -16.3453   25.2331 O   0  0  0  0  0  0  0  0  0  0  0  0
  2  3  1  0
  2  1  1  6
  3  4  1  0
  4  5  2  0
  4  8  1  0
  6  7  2  0
  6  2  1  0
 10  9  1  6
 10 12  1  0
 11 10  1  0
 12 14  1  0
 12 13  1  6
 13  6  1  0
 14 21  1  0
 15 14  2  0
 16 17  1  0
 18 20  1  0
 18 17  1  0
 18 19  1  6
 20 22  1  0
 20 21  1  6
 22 23  2  0
 22 24  1  0
M  END
$$$$
