CVH.pdb
     RDKit          3D

 24 24  0  0  1  0  0  0  0  0999 V2000
    7.7915  -15.2790   20.6368 N   0  0  0  0  0  0  0  0  0  0  0  0
    7.2839  -15.5628   21.9531 C   0  0  1  0  0  0  0  0  0  0  0  0
    7.1171  -17.0449   22.2188 C   0  0  0  0  0  0  0  0  0  0  0  0
    6.4782  -17.2175   23.9180 S   0  0  0  0  0  0  0  0  0  0  0  0
    8.0970  -14.9076   23.0149 C   0  0  0  0  0  0  0  0  0  0  0  0
    9.3495  -14.9719   23.0264 O   0  0  0  0  0  0  0  0  0  0  0  0
    8.4121  -11.9037   26.9790 C   0  0  0  0  0  0  0  0  0  0  0  0
    7.5780  -12.4663   25.8499 C   0  0  2  0  0  0  0  0  0  0  0  0
    6.2315  -12.8661   26.4061 C   0  0  0  0  0  0  0  0  0  0  0  0
    8.2009  -13.6520   25.1988 C   0  0  2  0  0  0  0  0  0  0  0  0
    7.4852  -14.1742   24.0741 N   0  0  0  0  0  0  0  0  0  0  0  0
    8.5321  -14.7350   26.1917 C   0  0  0  0  0  0  0  0  0  0  0  0
    7.5914  -15.4056   26.6660 O   0  0  0  0  0  0  0  0  0  0  0  0
    9.8430  -15.0302   26.6121 N   0  0  0  0  0  0  0  0  0  0  0  0
   10.2148  -16.0761   27.5077 C   0  0  1  0  0  0  0  0  0  0  0  0
   11.5783  -16.6449   27.3418 C   0  0  0  0  0  0  0  0  0  0  0  0
   11.7666  -17.2487   26.0022 C   0  0  0  0  0  0  0  0  0  0  0  0
   10.7684  -17.4535   25.0874 C   0  0  0  0  0  0  0  0  0  0  0  0
   11.3360  -18.0041   24.0041 N   0  0  0  0  0  0  0  0  0  0  0  0
   12.6464  -18.1424   24.2266 C   0  0  0  0  0  0  0  0  0  0  0  0
   12.9250  -17.6690   25.4824 N   0  0  0  0  0  0  0  0  0  0  0  0
   10.0510  -15.6804   28.9387 C   0  0  0  0  0  0  0  0  0  0  0  0
    9.8135  -14.4746   29.1902 O   0  0  0  0  0  0  0  0  0  0  0  0
   10.1505  -16.5818   29.9852 O   0  0  0  0  0  0  0  0  0  0  0  0
  2  5  1  0
  2  1  1  6
  3  2  1  0
  4  3  1  0
  5  6  2  0
  8  7  1  1
  8  9  1  0
  8 10  1  0
 10 11  1  6
 11  5  1  0
 12 13  2  0
 12 10  1  0
 14 12  1  0
 15 14  1  0
 15 22  1  0
 15 16  1  1
 17 21  1  0
 17 16  1  0
 18 17  2  0
 19 18  1  0
 19 20  1  0
 20 21  2  0
 22 24  1  0
 23 22  2  0
M  END
$$$$
