CVH.pdb
     RDKit          3D

 24 24  0  0  1  0  0  0  0  0999 V2000
    7.7353  -15.2248   20.8051 N   0  0  0  0  0  0  0  0  0  0  0  0
    7.1776  -15.6541   22.0603 C   0  0  1  0  0  0  0  0  0  0  0  0
    7.1091  -17.1614   22.1956 C   0  0  0  0  0  0  0  0  0  0  0  0
    6.3027  -17.5214   23.7910 S   0  0  0  0  0  0  0  0  0  0  0  0
    7.8776  -15.0347   23.2197 C   0  0  0  0  0  0  0  0  0  0  0  0
    9.1254  -14.9135   23.2540 O   0  0  0  0  0  0  0  0  0  0  0  0
    6.5750  -11.8196   25.5958 C   0  0  0  0  0  0  0  0  0  0  0  0
    6.9294  -13.0944   26.3282 C   0  0  2  0  0  0  0  0  0  0  0  0
    7.6691  -12.7268   27.5932 C   0  0  0  0  0  0  0  0  0  0  0  0
    7.7810  -14.0129   25.5226 C   0  0  2  0  0  0  0  0  0  0  0  0
    7.1572  -14.5496   24.3509 N   0  0  0  0  0  0  0  0  0  0  0  0
    8.3975  -15.0988   26.3646 C   0  0  0  0  0  0  0  0  0  0  0  0
    7.6340  -15.8476   27.0096 O   0  0  0  0  0  0  0  0  0  0  0  0
    9.7855  -15.3136   26.4625 N   0  0  0  0  0  0  0  0  0  0  0  0
   10.4228  -16.2693   27.3078 C   0  0  1  0  0  0  0  0  0  0  0  0
   11.9086  -16.2382   27.3506 C   0  0  0  0  0  0  0  0  0  0  0  0
   12.4606  -17.3273   28.1894 C   0  0  0  0  0  0  0  0  0  0  0  0
   12.6594  -18.6157   27.7702 C   0  0  0  0  0  0  0  0  0  0  0  0
   13.1811  -19.2893   28.8060 N   0  0  0  0  0  0  0  0  0  0  0  0
   13.3074  -18.4560   29.8430 C   0  0  0  0  0  0  0  0  0  0  0  0
   12.8560  -17.2190   29.4625 N   0  0  0  0  0  0  0  0  0  0  0  0
    9.9196  -16.2063   28.7129 C   0  0  0  0  0  0  0  0  0  0  0  0
    9.4426  -17.2535   29.2123 O   0  0  0  0  0  0  0  0  0  0  0  0
    9.9583  -15.0510   29.4754 O   0  0  0  0  0  0  0  0  0  0  0  0
  2  5  1  0
  2  1  1  6
  3  2  1  0
  4  3  1  0
  5  6  2  0
  8  7  1  6
  8  9  1  0
  8 10  1  0
 10 11  1  6
 11  5  1  0
 12 13  2  0
 12 10  1  0
 14 12  1  0
 15 14  1  0
 15 22  1  0
 15 16  1  1
 17 21  1  0
 17 16  1  0
 18 17  2  0
 19 18  1  0
 19 20  1  0
 20 21  2  0
 22 24  1  0
 23 22  2  0
M  END
$$$$
