CVH.pdb
     RDKit          3D

 24 24  0  0  1  0  0  0  0  0999 V2000
    7.4434  -18.6017   16.7332 N   0  0  0  0  0  0  0  0  0  0  0  0
    6.7832  -17.8957   17.7993 C   0  0  1  0  0  0  0  0  0  0  0  0
    6.0102  -18.8095   18.7278 C   0  0  0  0  0  0  0  0  0  0  0  0
    7.0810  -20.2412   19.0868 S   0  0  0  0  0  0  0  0  0  0  0  0
    7.7249  -17.0231   18.5540 C   0  0  0  0  0  0  0  0  0  0  0  0
    8.9654  -17.2061   18.5272 O   0  0  0  0  0  0  0  0  0  0  0  0
    8.4735  -12.9052   21.2972 C   0  0  0  0  0  0  0  0  0  0  0  0
    7.5443  -13.7505   20.4549 C   0  0  2  0  0  0  0  0  0  0  0  0
    6.2553  -13.9460   21.2183 C   0  0  0  0  0  0  0  0  0  0  0  0
    8.1125  -15.0857   20.1202 C   0  0  2  0  0  0  0  0  0  0  0  0
    7.2567  -15.9344   19.3473 N   0  0  0  0  0  0  0  0  0  0  0  0
    8.6407  -15.7982   21.3374 C   0  0  0  0  0  0  0  0  0  0  0  0
    7.8255  -16.4037   22.0643 O   0  0  0  0  0  0  0  0  0  0  0  0
   10.0016  -15.8172   21.6980 N   0  0  0  0  0  0  0  0  0  0  0  0
   10.5500  -16.4606   22.8466 C   0  0  1  0  0  0  0  0  0  0  0  0
   11.5626  -17.5207   22.5994 C   0  0  0  0  0  0  0  0  0  0  0  0
   10.9853  -18.6801   21.8802 C   0  0  0  0  0  0  0  0  0  0  0  0
    9.7946  -19.2811   22.1901 C   0  0  0  0  0  0  0  0  0  0  0  0
    9.6164  -20.2764   21.3090 N   0  0  0  0  0  0  0  0  0  0  0  0
   10.6579  -20.3035   20.4721 C   0  0  0  0  0  0  0  0  0  0  0  0
   11.5238  -19.3015   20.8254 N   0  0  0  0  0  0  0  0  0  0  0  0
   11.1307  -15.4857   23.8180 C   0  0  0  0  0  0  0  0  0  0  0  0
   11.4962  -15.9196   24.9367 O   0  0  0  0  0  0  0  0  0  0  0  0
   11.2787  -14.1382   23.5348 O   0  0  0  0  0  0  0  0  0  0  0  0
  2  5  1  0
  2  1  1  6
  3  2  1  0
  4  3  1  0
  5  6  2  0
  8  7  1  1
  8  9  1  0
  8 10  1  0
 10 11  1  1
 11  5  1  0
 12 13  2  0
 12 10  1  0
 14 12  1  0
 15 14  1  0
 15 22  1  0
 15 16  1  6
 17 21  1  0
 17 16  1  0
 18 17  2  0
 19 18  1  0
 19 20  1  0
 20 21  2  0
 22 24  1  0
 23 22  2  0
M  END
$$$$
