CVH.pdb
     RDKit          3D

 24 24  0  0  1  0  0  0  0  0999 V2000
    8.4260  -15.1474   20.6216 N   0  0  0  0  0  0  0  0  0  0  0  0
    7.5903  -15.3049   21.7824 C   0  0  1  0  0  0  0  0  0  0  0  0
    7.0596  -16.7144   21.9457 C   0  0  0  0  0  0  0  0  0  0  0  0
    5.8631  -16.9973   20.5990 S   0  0  0  0  0  0  0  0  0  0  0  0
    8.2663  -14.8308   23.0218 C   0  0  0  0  0  0  0  0  0  0  0  0
    9.4750  -15.0731   23.2527 O   0  0  0  0  0  0  0  0  0  0  0  0
    8.1010  -12.0368   27.1732 C   0  0  0  0  0  0  0  0  0  0  0  0
    7.4167  -12.5170   25.9129 C   0  0  2  0  0  0  0  0  0  0  0  0
    6.0413  -13.0223   26.2809 C   0  0  0  0  0  0  0  0  0  0  0  0
    8.1613  -13.6072   25.2238 C   0  0  2  0  0  0  0  0  0  0  0  0
    7.5660  -14.0766   24.0091 N   0  0  0  0  0  0  0  0  0  0  0  0
    8.4870  -14.7466   26.1534 C   0  0  0  0  0  0  0  0  0  0  0  0
    7.5524  -15.4855   26.5278 O   0  0  0  0  0  0  0  0  0  0  0  0
    9.7861  -15.0216   26.6212 N   0  0  0  0  0  0  0  0  0  0  0  0
   10.1597  -16.1276   27.4404 C   0  0  1  0  0  0  0  0  0  0  0  0
   11.4617  -16.7766   27.1342 C   0  0  0  0  0  0  0  0  0  0  0  0
   11.5385  -17.2246   25.7243 C   0  0  0  0  0  0  0  0  0  0  0  0
   10.5164  -17.8195   25.0340 C   0  0  0  0  0  0  0  0  0  0  0  0
   10.9688  -18.0625   23.7950 N   0  0  0  0  0  0  0  0  0  0  0  0
   12.2321  -17.6362   23.7057 C   0  0  0  0  0  0  0  0  0  0  0  0
   12.5977  -17.1075   24.9162 N   0  0  0  0  0  0  0  0  0  0  0  0
   10.1457  -15.7850   28.8942 C   0  0  0  0  0  0  0  0  0  0  0  0
   10.3662  -16.7067   29.7160 O   0  0  0  0  0  0  0  0  0  0  0  0
    9.9012  -14.5054   29.3639 O   0  0  0  0  0  0  0  0  0  0  0  0
  2  5  1  0
  2  1  1  6
  3  2  1  0
  4  3  1  0
  5  6  2  0
  8  7  1  1
  8  9  1  0
  8 10  1  0
 10 11  1  6
 11  5  1  0
 12 13  2  0
 12 10  1  0
 14 12  1  0
 15 14  1  0
 15 22  1  0
 15 16  1  6
 17 21  1  0
 17 16  1  0
 18 17  2  0
 19 18  1  0
 19 20  1  0
 20 21  2  0
 22 24  1  0
 23 22  2  0
M  END
$$$$
