CVH.pdb
     RDKit          3D

 24 24  0  0  1  0  0  0  0  0999 V2000
    7.8015  -17.6503   16.6321 N   0  0  0  0  0  0  0  0  0  0  0  0
    7.1566  -17.2324   17.8487 C   0  0  1  0  0  0  0  0  0  0  0  0
    6.4348  -18.3607   18.5564 C   0  0  0  0  0  0  0  0  0  0  0  0
    7.6121  -19.0917   19.7417 S   0  0  0  0  0  0  0  0  0  0  0  0
    8.0988  -16.5303   18.7637 C   0  0  0  0  0  0  0  0  0  0  0  0
    9.3183  -16.8198   18.8103 O   0  0  0  0  0  0  0  0  0  0  0  0
    6.7287  -13.5691   21.8137 C   0  0  0  0  0  0  0  0  0  0  0  0
    8.0132  -13.4841   21.0201 C   0  0  2  0  0  0  0  0  0  0  0  0
    7.7686  -12.6131   19.8102 C   0  0  0  0  0  0  0  0  0  0  0  0
    8.5066  -14.8132   20.5643 C   0  0  2  0  0  0  0  0  0  0  0  0
    7.6549  -15.4920   19.6348 N   0  0  0  0  0  0  0  0  0  0  0  0
    8.8826  -15.7045   21.7186 C   0  0  0  0  0  0  0  0  0  0  0  0
    7.9961  -16.4323   22.2127 O   0  0  0  0  0  0  0  0  0  0  0  0
   10.1776  -15.7602   22.2685 N   0  0  0  0  0  0  0  0  0  0  0  0
   10.5797  -16.5691   23.3722 C   0  0  1  0  0  0  0  0  0  0  0  0
   10.3972  -18.0373   23.2266 C   0  0  0  0  0  0  0  0  0  0  0  0
   10.9861  -18.5455   21.9659 C   0  0  0  0  0  0  0  0  0  0  0  0
   11.6357  -17.7760   21.0380 C   0  0  0  0  0  0  0  0  0  0  0  0
   12.0300  -18.5973   20.0537 N   0  0  0  0  0  0  0  0  0  0  0  0
   11.6431  -19.8418   20.3492 C   0  0  0  0  0  0  0  0  0  0  0  0
   10.9854  -19.8171   21.5515 N   0  0  0  0  0  0  0  0  0  0  0  0
   11.9972  -16.3178   23.7709 C   0  0  0  0  0  0  0  0  0  0  0  0
   12.6594  -15.4947   23.0945 O   0  0  0  0  0  0  0  0  0  0  0  0
   12.6009  -16.9510   24.8444 O   0  0  0  0  0  0  0  0  0  0  0  0
  2  5  1  0
  2  1  1  6
  3  2  1  0
  4  3  1  0
  5  6  2  0
  8  7  1  6
  8  9  1  0
  8 10  1  0
 10 11  1  1
 11  5  1  0
 12 13  2  0
 12 10  1  0
 14 12  1  0
 15 14  1  0
 15 22  1  0
 15 16  1  6
 17 21  1  0
 17 16  1  0
 18 17  2  0
 19 18  1  0
 19 20  1  0
 20 21  2  0
 22 24  1  0
 23 22  2  0
M  END
$$$$
