CVH.pdb
     RDKit          3D

 24 24  0  0  1  0  0  0  0  0999 V2000
    7.5462  -15.1615   20.9367 N   0  0  0  0  0  0  0  0  0  0  0  0
    7.2061  -15.6237   22.2564 C   0  0  1  0  0  0  0  0  0  0  0  0
    7.3055  -17.1282   22.4029 C   0  0  0  0  0  0  0  0  0  0  0  0
    6.6825  -17.5484   24.0645 S   0  0  0  0  0  0  0  0  0  0  0  0
    7.9898  -14.9211   23.3099 C   0  0  0  0  0  0  0  0  0  0  0  0
    9.2353  -14.7931   23.2361 O   0  0  0  0  0  0  0  0  0  0  0  0
    6.4056  -13.2734   27.3643 C   0  0  0  0  0  0  0  0  0  0  0  0
    7.3500  -12.7354   26.3128 C   0  0  2  0  0  0  0  0  0  0  0  0
    6.5496  -11.9139   25.3295 C   0  0  0  0  0  0  0  0  0  0  0  0
    8.0691  -13.8077   25.5706 C   0  0  2  0  0  0  0  0  0  0  0  0
    7.3568  -14.3599   24.4581 N   0  0  0  0  0  0  0  0  0  0  0  0
    8.5796  -14.8875   26.4881 C   0  0  0  0  0  0  0  0  0  0  0  0
    7.7635  -15.7310   26.9147 O   0  0  0  0  0  0  0  0  0  0  0  0
    9.9249  -14.9954   26.8892 N   0  0  0  0  0  0  0  0  0  0  0  0
   10.4382  -15.9249   27.8414 C   0  0  1  0  0  0  0  0  0  0  0  0
   11.7595  -16.5340   27.5358 C   0  0  0  0  0  0  0  0  0  0  0  0
   11.7156  -17.3639   26.3095 C   0  0  0  0  0  0  0  0  0  0  0  0
   10.5953  -17.5892   25.5550 C   0  0  0  0  0  0  0  0  0  0  0  0
   10.9632  -18.3724   24.5303 N   0  0  0  0  0  0  0  0  0  0  0  0
   12.2698  -18.6328   24.6337 C   0  0  0  0  0  0  0  0  0  0  0  0
   12.7504  -18.0014   25.7513 N   0  0  0  0  0  0  0  0  0  0  0  0
   10.5038  -15.3472   29.2173 C   0  0  0  0  0  0  0  0  0  0  0  0
   10.2414  -14.1282   29.3546 O   0  0  0  0  0  0  0  0  0  0  0  0
   10.8393  -16.0957   30.3330 O   0  0  0  0  0  0  0  0  0  0  0  0
  2  5  1  0
  2  1  1  6
  3  2  1  0
  4  3  1  0
  5  6  2  0
  8  7  1  1
  8  9  1  0
  8 10  1  0
 10 11  1  6
 11  5  1  0
 12 13  2  0
 12 10  1  0
 14 12  1  0
 15 14  1  0
 15 22  1  0
 15 16  1  6
 17 21  1  0
 17 16  1  0
 18 17  2  0
 19 18  1  0
 19 20  1  0
 20 21  2  0
 22 24  1  0
 23 22  2  0
M  END
$$$$
