EWA.pdb
     RDKit          3D

 29 30  0  0  1  0  0  0  0  0999 V2000
    9.3291  -18.9034   22.2504 N   0  0  0  0  0  0  0  0  0  0  0  0
   10.5413  -18.1528   22.4482 C   0  0  1  0  0  0  0  0  0  0  0  0
   10.7423  -17.1081   21.3659 C   0  0  0  0  0  0  0  0  0  0  0  0
   11.6291  -17.6492   20.2525 C   0  0  0  0  0  0  0  0  0  0  0  0
   11.7695  -16.5806   19.2281 C   0  0  0  0  0  0  0  0  0  0  0  0
   12.6145  -15.6721   19.3211 O   0  0  0  0  0  0  0  0  0  0  0  0
   10.4811  -17.4184   23.7409 C   0  0  0  0  0  0  0  0  0  0  0  0
   11.3956  -16.6203   24.0541 O   0  0  0  0  0  0  0  0  0  0  0  0
   10.9311  -16.5844   18.1190 O   0  0  0  0  0  0  0  0  0  0  0  0
    9.3928  -17.6207   24.6137 N   0  0  0  0  0  0  0  0  0  0  0  0
    9.3300  -16.8953   25.8947 C   0  0  1  0  0  0  0  0  0  0  0  0
    7.9433  -16.3721   25.9881 C   0  0  0  0  0  0  0  0  0  0  0  0
    7.5706  -15.2886   25.0817 C   0  0  0  0  0  0  0  0  0  0  0  0
    7.3645  -15.3300   23.7040 C   0  0  0  0  0  0  0  0  0  0  0  0
    7.0405  -14.0949   23.2888 N   0  0  0  0  0  0  0  0  0  0  0  0
    7.0230  -13.2381   24.3321 C   0  0  0  0  0  0  0  0  0  0  0  0
    6.7405  -11.8973   24.4427 C   0  0  0  0  0  0  0  0  0  0  0  0
    6.7856  -11.2787   25.6837 C   0  0  0  0  0  0  0  0  0  0  0  0
    7.1124  -12.0165   26.7814 C   0  0  0  0  0  0  0  0  0  0  0  0
    7.3952  -13.3422   26.6921 C   0  0  0  0  0  0  0  0  0  0  0  0
    7.3469  -13.9565   25.4394 C   0  0  0  0  0  0  0  0  0  0  0  0
    9.8312  -17.7202   26.9855 C   0  0  0  0  0  0  0  0  0  0  0  0
    9.7122  -17.3153   28.1910 O   0  0  0  0  0  0  0  0  0  0  0  0
   11.4726  -21.0637   27.2561 C   0  0  0  0  0  0  0  0  0  0  0  0
   11.0338  -19.7055   27.8699 C   0  0  2  0  0  0  0  0  0  0  0  0
   10.4464  -18.9761   26.7602 N   0  0  0  0  0  0  0  0  0  0  0  0
   12.2899  -19.1139   28.3728 C   0  0  0  0  0  0  0  0  0  0  0  0
   13.0648  -18.4190   27.7034 O   0  0  0  0  0  0  0  0  0  0  0  0
   12.6274  -19.3552   29.6967 O   0  0  0  0  0  0  0  0  0  0  0  0
  2  3  1  0
  2  1  1  6
  4  5  1  0
  4  3  1  0
  5  6  2  0
  7  2  1  0
  8  7  2  0
  9  5  1  0
 10  7  1  0
 11 10  1  0
 11 12  1  1
 12 13  1  0
 13 14  2  0
 14 15  1  0
 16 15  1  0
 17 16  2  0
 18 17  1  0
 19 20  1  0
 19 18  2  0
 20 21  2  0
 21 13  1  0
 21 16  1  0
 22 26  1  0
 22 11  1  0
 23 22  2  0
 25 24  1  6
 25 27  1  0
 25 26  1  0
 27 29  1  0
 28 27  2  0
M  END
$$$$
