EWA.pdb
     RDKit          3D

 29 30  0  0  1  0  0  0  0  0999 V2000
   10.4054  -18.4864   22.0601 N   0  0  0  0  0  0  0  0  0  0  0  0
   11.4655  -17.5785   22.4123 C   0  0  1  0  0  0  0  0  0  0  0  0
   11.7497  -16.5834   21.3023 C   0  0  0  0  0  0  0  0  0  0  0  0
   11.8533  -17.2908   19.9577 C   0  0  0  0  0  0  0  0  0  0  0  0
   12.1245  -16.2571   18.9239 C   0  0  0  0  0  0  0  0  0  0  0  0
   11.2662  -15.8952   18.0990 O   0  0  0  0  0  0  0  0  0  0  0  0
   11.0781  -16.7815   23.6077 C   0  0  0  0  0  0  0  0  0  0  0  0
   11.7432  -15.7694   23.9315 O   0  0  0  0  0  0  0  0  0  0  0  0
   13.3806  -15.6640   18.8652 O   0  0  0  0  0  0  0  0  0  0  0  0
    9.9606  -17.1658   24.3762 N   0  0  0  0  0  0  0  0  0  0  0  0
    9.5404  -16.3474   25.5271 C   0  0  1  0  0  0  0  0  0  0  0  0
    8.0664  -16.5081   25.6126 C   0  0  0  0  0  0  0  0  0  0  0  0
    7.2409  -15.5158   24.9283 C   0  0  0  0  0  0  0  0  0  0  0  0
    6.3836  -15.6869   23.8430 C   0  0  0  0  0  0  0  0  0  0  0  0
    5.8352  -14.4975   23.5472 N   0  0  0  0  0  0  0  0  0  0  0  0
    6.2922  -13.5469   24.3900 C   0  0  0  0  0  0  0  0  0  0  0  0
    6.0344  -12.2028   24.5198 C   0  0  0  0  0  0  0  0  0  0  0  0
    6.6554  -11.4706   25.5212 C   0  0  0  0  0  0  0  0  0  0  0  0
    7.5183  -12.1010   26.3663 C   0  0  0  0  0  0  0  0  0  0  0  0
    7.7863  -13.4280   26.2536 C   0  0  0  0  0  0  0  0  0  0  0  0
    7.1565  -14.1571   25.2432 C   0  0  0  0  0  0  0  0  0  0  0  0
   10.3378  -16.6578   26.7058 C   0  0  0  0  0  0  0  0  0  0  0  0
   10.9540  -17.7744   26.7764 O   0  0  0  0  0  0  0  0  0  0  0  0
   11.0216  -14.9674   29.9638 C   0  0  0  0  0  0  0  0  0  0  0  0
   11.2557  -16.1221   28.9508 C   0  0  2  0  0  0  0  0  0  0  0  0
   10.4664  -15.7540   27.7889 N   0  0  0  0  0  0  0  0  0  0  0  0
   10.7591  -17.3234   29.6517 C   0  0  0  0  0  0  0  0  0  0  0  0
    9.6905  -17.8971   29.4060 O   0  0  0  0  0  0  0  0  0  0  0  0
   11.5508  -17.8492   30.6624 O   0  0  0  0  0  0  0  0  0  0  0  0
  2  3  1  0
  2  1  1  6
  4  5  1  0
  4  3  1  0
  5  6  2  0
  7  2  1  0
  8  7  2  0
  9  5  1  0
 10  7  1  0
 11 10  1  0
 11 12  1  1
 12 13  1  0
 13 14  2  0
 14 15  1  0
 16 15  1  0
 17 16  2  0
 18 17  1  0
 19 20  1  0
 19 18  2  0
 20 21  2  0
 21 13  1  0
 21 16  1  0
 22 26  1  0
 22 11  1  0
 23 22  2  0
 25 24  1  1
 25 27  1  0
 25 26  1  0
 27 29  1  0
 28 27  2  0
M  END
$$$$
