EWA.pdb
     RDKit          3D

 29 30  0  0  1  0  0  0  0  0999 V2000
    9.8568  -18.5486   22.1942 N   0  0  0  0  0  0  0  0  0  0  0  0
   11.0001  -17.7078   22.4346 C   0  0  1  0  0  0  0  0  0  0  0  0
   11.1732  -16.6641   21.3466 C   0  0  0  0  0  0  0  0  0  0  0  0
   11.5010  -17.3241   20.0138 C   0  0  0  0  0  0  0  0  0  0  0  0
   11.6400  -16.2464   18.9989 C   0  0  0  0  0  0  0  0  0  0  0  0
   10.6990  -15.8929   18.2658 O   0  0  0  0  0  0  0  0  0  0  0  0
   10.8268  -16.9644   23.7119 C   0  0  0  0  0  0  0  0  0  0  0  0
   11.6039  -16.0249   24.0034 O   0  0  0  0  0  0  0  0  0  0  0  0
   12.8626  -15.6006   18.8527 O   0  0  0  0  0  0  0  0  0  0  0  0
    9.7860  -17.3175   24.5945 N   0  0  0  0  0  0  0  0  0  0  0  0
    9.5830  -16.5542   25.8384 C   0  0  1  0  0  0  0  0  0  0  0  0
    8.1130  -16.3871   25.9673 C   0  0  0  0  0  0  0  0  0  0  0  0
    7.4598  -15.4516   25.0549 C   0  0  0  0  0  0  0  0  0  0  0  0
    6.9510  -15.6830   23.7783 C   0  0  0  0  0  0  0  0  0  0  0  0
    6.4443  -14.5307   23.3110 N   0  0  0  0  0  0  0  0  0  0  0  0
    6.5954  -13.5470   24.2233 C   0  0  0  0  0  0  0  0  0  0  0  0
    6.2396  -12.2192   24.2417 C   0  0  0  0  0  0  0  0  0  0  0  0
    6.5153  -11.4423   25.3575 C   0  0  0  0  0  0  0  0  0  0  0  0
    7.1398  -12.0129   26.4255 C   0  0  0  0  0  0  0  0  0  0  0  0
    7.4994  -13.3229   26.4259 C   0  0  0  0  0  0  0  0  0  0  0  0
    7.2177  -14.0972   25.2990 C   0  0  0  0  0  0  0  0  0  0  0  0
   10.3082  -17.1613   26.9462 C   0  0  0  0  0  0  0  0  0  0  0  0
   10.6181  -18.3994   26.8964 O   0  0  0  0  0  0  0  0  0  0  0  0
   11.4122  -16.0381   30.3252 C   0  0  0  0  0  0  0  0  0  0  0  0
   11.4135  -17.0760   29.1690 C   0  0  2  0  0  0  0  0  0  0  0  0
   10.6970  -16.4206   28.0893 N   0  0  0  0  0  0  0  0  0  0  0  0
   10.7053  -18.2436   29.7310 C   0  0  0  0  0  0  0  0  0  0  0  0
   11.2205  -19.1050   30.4548 O   0  0  0  0  0  0  0  0  0  0  0  0
    9.3596  -18.3858   29.4248 O   0  0  0  0  0  0  0  0  0  0  0  0
  2  3  1  0
  2  1  1  6
  4  5  1  0
  4  3  1  0
  5  6  2  0
  7  2  1  0
  8  7  2  0
  9  5  1  0
 10  7  1  0
 11 10  1  0
 11 12  1  1
 12 13  1  0
 13 14  2  0
 14 15  1  0
 16 15  1  0
 17 16  2  0
 18 17  1  0
 19 20  1  0
 19 18  2  0
 20 21  2  0
 21 13  1  0
 21 16  1  0
 22 26  1  0
 22 11  1  0
 23 22  2  0
 25 24  1  1
 25 27  1  0
 25 26  1  0
 27 29  1  0
 28 27  2  0
M  END
$$$$
