EWA.pdb
     RDKit          3D

 29 30  0  0  1  0  0  0  0  0999 V2000
   10.1515  -18.2529   21.1920 N   0  0  0  0  0  0  0  0  0  0  0  0
   11.0114  -17.1072   21.3331 C   0  0  1  0  0  0  0  0  0  0  0  0
   10.9338  -16.1900   20.1266 C   0  0  0  0  0  0  0  0  0  0  0  0
   10.8020  -16.9982   18.8426 C   0  0  0  0  0  0  0  0  0  0  0  0
   12.1744  -17.2991   18.3561 C   0  0  0  0  0  0  0  0  0  0  0  0
   12.9327  -16.4202   17.9083 O   0  0  0  0  0  0  0  0  0  0  0  0
   10.5930  -16.2974   22.5093 C   0  0  0  0  0  0  0  0  0  0  0  0
   11.0669  -15.1501   22.6838 O   0  0  0  0  0  0  0  0  0  0  0  0
   12.6412  -18.6081   18.3972 O   0  0  0  0  0  0  0  0  0  0  0  0
    9.6613  -16.8221   23.4278 N   0  0  0  0  0  0  0  0  0  0  0  0
    9.2272  -16.0141   24.5809 C   0  0  1  0  0  0  0  0  0  0  0  0
    7.8334  -16.4416   24.8641 C   0  0  0  0  0  0  0  0  0  0  0  0
    6.8596  -15.3976   25.1743 C   0  0  0  0  0  0  0  0  0  0  0  0
    5.4890  -15.5155   25.3970 C   0  0  0  0  0  0  0  0  0  0  0  0
    4.9949  -14.2916   25.6436 N   0  0  0  0  0  0  0  0  0  0  0  0
    5.9794  -13.3689   25.5940 C   0  0  0  0  0  0  0  0  0  0  0  0
    6.0028  -12.0080   25.7867 C   0  0  0  0  0  0  0  0  0  0  0  0
    7.1999  -11.3137   25.6882 C   0  0  0  0  0  0  0  0  0  0  0  0
    8.3420  -11.9979   25.3991 C   0  0  0  0  0  0  0  0  0  0  0  0
    8.3388  -13.3424   25.2049 C   0  0  0  0  0  0  0  0  0  0  0  0
    7.1298  -14.0330   25.3064 C   0  0  0  0  0  0  0  0  0  0  0  0
   10.2024  -16.0814   25.6608 C   0  0  0  0  0  0  0  0  0  0  0  0
   11.0790  -17.0104   25.6643 O   0  0  0  0  0  0  0  0  0  0  0  0
   10.8241  -14.1331   28.7878 C   0  0  0  0  0  0  0  0  0  0  0  0
   11.1091  -15.3394   27.8509 C   0  0  2  0  0  0  0  0  0  0  0  0
   10.2235  -15.1387   26.7178 N   0  0  0  0  0  0  0  0  0  0  0  0
   10.7701  -16.5205   28.6698 C   0  0  0  0  0  0  0  0  0  0  0  0
   11.5165  -17.0398   29.5092 O   0  0  0  0  0  0  0  0  0  0  0  0
    9.5194  -17.0917   28.4845 O   0  0  0  0  0  0  0  0  0  0  0  0
  2  3  1  0
  2  1  1  6
  4  5  1  0
  4  3  1  0
  5  6  2  0
  7  2  1  0
  8  7  2  0
  9  5  1  0
 10  7  1  0
 11 10  1  0
 11 12  1  1
 12 13  1  0
 13 14  2  0
 14 15  1  0
 16 15  1  0
 17 16  2  0
 18 17  1  0
 19 20  1  0
 19 18  2  0
 20 21  2  0
 21 13  1  0
 21 16  1  0
 22 26  1  0
 22 11  1  0
 23 22  2  0
 25 24  1  1
 25 27  1  0
 25 26  1  0
 27 29  1  0
 28 27  2  0
M  END
$$$$
