EWA.pdb
     RDKit          3D

 29 30  0  0  1  0  0  0  0  0999 V2000
   11.7844  -15.9928   20.0316 N   0  0  0  0  0  0  0  0  0  0  0  0
   11.1448  -16.9009   20.9471 C   0  0  1  0  0  0  0  0  0  0  0  0
   12.0852  -18.0022   21.4007 C   0  0  0  0  0  0  0  0  0  0  0  0
   13.2937  -18.0929   20.4784 C   0  0  0  0  0  0  0  0  0  0  0  0
   13.7037  -19.5206   20.4113 C   0  0  0  0  0  0  0  0  0  0  0  0
   14.6983  -19.9597   21.0162 O   0  0  0  0  0  0  0  0  0  0  0  0
   10.7203  -16.1735   22.1738 C   0  0  0  0  0  0  0  0  0  0  0  0
   11.3926  -15.2022   22.5935 O   0  0  0  0  0  0  0  0  0  0  0  0
   12.9564  -20.4099   19.6472 O   0  0  0  0  0  0  0  0  0  0  0  0
    9.5596  -16.5777   22.8639 N   0  0  0  0  0  0  0  0  0  0  0  0
    9.1392  -15.8631   24.0820 C   0  0  1  0  0  0  0  0  0  0  0  0
    7.7198  -16.2435   24.2967 C   0  0  0  0  0  0  0  0  0  0  0  0
    6.8702  -15.2951   25.0129 C   0  0  0  0  0  0  0  0  0  0  0  0
    5.5998  -15.4897   25.5518 C   0  0  0  0  0  0  0  0  0  0  0  0
    5.2003  -14.3388   26.1163 N   0  0  0  0  0  0  0  0  0  0  0  0
    6.1515  -13.3911   25.9746 C   0  0  0  0  0  0  0  0  0  0  0  0
    6.2405  -12.0805   26.3799 C   0  0  0  0  0  0  0  0  0  0  0  0
    7.3820  -11.3434   26.0996 C   0  0  0  0  0  0  0  0  0  0  0  0
    8.4042  -11.9356   25.4211 C   0  0  0  0  0  0  0  0  0  0  0  0
    8.3347  -13.2292   25.0120 C   0  0  0  0  0  0  0  0  0  0  0  0
    7.1825  -13.9634   25.2987 C   0  0  0  0  0  0  0  0  0  0  0  0
   10.0847  -16.0840   25.1678 C   0  0  0  0  0  0  0  0  0  0  0  0
   11.2176  -16.6195   24.9208 O   0  0  0  0  0  0  0  0  0  0  0  0
   10.6865  -14.3397   28.2294 C   0  0  0  0  0  0  0  0  0  0  0  0
   10.8576  -15.6991   27.4968 C   0  0  2  0  0  0  0  0  0  0  0  0
    9.7971  -15.7152   26.5049 N   0  0  0  0  0  0  0  0  0  0  0  0
   10.6910  -16.7073   28.5629 C   0  0  0  0  0  0  0  0  0  0  0  0
   11.4989  -16.9128   29.4774 O   0  0  0  0  0  0  0  0  0  0  0  0
    9.5412  -17.4832   28.5377 O   0  0  0  0  0  0  0  0  0  0  0  0
  2  3  1  0
  2  1  1  6
  4  5  1  0
  4  3  1  0
  5  6  2  0
  7  2  1  0
  8  7  2  0
  9  5  1  0
 10  7  1  0
 11 10  1  0
 11 12  1  1
 12 13  1  0
 13 14  2  0
 14 15  1  0
 16 15  1  0
 17 16  2  0
 18 17  1  0
 19 20  1  0
 19 18  2  0
 20 21  2  0
 21 13  1  0
 21 16  1  0
 22 26  1  0
 22 11  1  0
 23 22  2  0
 25 24  1  1
 25 27  1  0
 25 26  1  0
 27 29  1  0
 28 27  2  0
M  END
$$$$
