EWA.pdb
     RDKit          3D

 29 30  0  0  1  0  0  0  0  0999 V2000
   11.9323  -16.1323   19.6183 N   0  0  0  0  0  0  0  0  0  0  0  0
   11.0931  -16.9305   20.4730 C   0  0  1  0  0  0  0  0  0  0  0  0
   11.7890  -18.2029   20.9202 C   0  0  0  0  0  0  0  0  0  0  0  0
   13.0423  -18.4515   20.0916 C   0  0  0  0  0  0  0  0  0  0  0  0
   13.6818  -19.6928   20.6025 C   0  0  0  0  0  0  0  0  0  0  0  0
   14.3917  -19.7075   21.6241 O   0  0  0  0  0  0  0  0  0  0  0  0
   10.7576  -16.1734   21.7093 C   0  0  0  0  0  0  0  0  0  0  0  0
   11.5464  -15.3032   22.1476 O   0  0  0  0  0  0  0  0  0  0  0  0
   13.4878  -20.8899   19.9224 O   0  0  0  0  0  0  0  0  0  0  0  0
    9.5501  -16.4355   22.3876 N   0  0  0  0  0  0  0  0  0  0  0  0
    9.2122  -15.6841   23.6092 C   0  0  1  0  0  0  0  0  0  0  0  0
    7.7424  -15.4782   23.5560 C   0  0  0  0  0  0  0  0  0  0  0  0
    7.0991  -14.9130   24.7396 C   0  0  0  0  0  0  0  0  0  0  0  0
    6.3547  -15.5585   25.7253 C   0  0  0  0  0  0  0  0  0  0  0  0
    5.9548  -14.6410   26.6203 N   0  0  0  0  0  0  0  0  0  0  0  0
    6.4026  -13.4164   26.2698 C   0  0  0  0  0  0  0  0  0  0  0  0
    6.2869  -12.1730   26.8448 C   0  0  0  0  0  0  0  0  0  0  0  0
    6.8885  -11.0742   26.2488 C   0  0  0  0  0  0  0  0  0  0  0  0
    7.5895  -11.2470   25.0934 C   0  0  0  0  0  0  0  0  0  0  0  0
    7.7146  -12.4674   24.5100 C   0  0  0  0  0  0  0  0  0  0  0  0
    7.1063  -13.5676   25.1169 C   0  0  0  0  0  0  0  0  0  0  0  0
    9.7768  -16.3261   24.7885 C   0  0  0  0  0  0  0  0  0  0  0  0
   10.0207  -17.5797   24.7703 O   0  0  0  0  0  0  0  0  0  0  0  0
   11.3739  -15.0466   27.8843 C   0  0  0  0  0  0  0  0  0  0  0  0
   10.8514  -16.2315   27.0258 C   0  0  2  0  0  0  0  0  0  0  0  0
   10.0788  -15.6036   25.9688 N   0  0  0  0  0  0  0  0  0  0  0  0
   10.0372  -17.0273   27.9662 C   0  0  0  0  0  0  0  0  0  0  0  0
   10.4828  -17.6536   28.9361 O   0  0  0  0  0  0  0  0  0  0  0  0
    8.6683  -17.0767   27.7461 O   0  0  0  0  0  0  0  0  0  0  0  0
  2  3  1  0
  2  1  1  6
  4  5  1  0
  4  3  1  0
  5  6  2  0
  7  2  1  0
  8  7  2  0
  9  5  1  0
 10  7  1  0
 11 10  1  0
 11 12  1  1
 12 13  1  0
 13 14  2  0
 14 15  1  0
 16 15  1  0
 17 16  2  0
 18 17  1  0
 19 20  1  0
 19 18  2  0
 20 21  2  0
 21 13  1  0
 21 16  1  0
 22 26  1  0
 22 11  1  0
 23 22  2  0
 25 24  1  1
 25 27  1  0
 25 26  1  0
 27 29  1  0
 28 27  2  0
M  END
$$$$
