EWA.pdb
     RDKit          3D

 29 30  0  0  1  0  0  0  0  0999 V2000
    7.5610  -17.9938   22.1090 N   0  0  0  0  0  0  0  0  0  0  0  0
    8.2668  -16.8642   21.5634 C   0  0  1  0  0  0  0  0  0  0  0  0
    7.3168  -15.8049   21.0357 C   0  0  0  0  0  0  0  0  0  0  0  0
    8.0609  -14.7960   20.1711 C   0  0  0  0  0  0  0  0  0  0  0  0
    8.4255  -15.4743   18.8991 C   0  0  0  0  0  0  0  0  0  0  0  0
    7.5732  -15.9413   18.1223 O   0  0  0  0  0  0  0  0  0  0  0  0
    9.0827  -16.2123   22.6234 C   0  0  0  0  0  0  0  0  0  0  0  0
    9.8119  -15.2321   22.3424 O   0  0  0  0  0  0  0  0  0  0  0  0
    9.7661  -15.5985   18.5520 O   0  0  0  0  0  0  0  0  0  0  0  0
    9.0340  -16.6982   23.9458 N   0  0  0  0  0  0  0  0  0  0  0  0
    9.9906  -16.2008   24.9500 C   0  0  1  0  0  0  0  0  0  0  0  0
    9.1707  -15.8304   26.1315 C   0  0  0  0  0  0  0  0  0  0  0  0
    7.8735  -15.2068   25.8813 C   0  0  0  0  0  0  0  0  0  0  0  0
    6.6588  -15.8092   25.5588 C   0  0  0  0  0  0  0  0  0  0  0  0
    5.7352  -14.8454   25.4148 N   0  0  0  0  0  0  0  0  0  0  0  0
    6.2859  -13.6313   25.6285 C   0  0  0  0  0  0  0  0  0  0  0  0
    5.7777  -12.3540   25.6207 C   0  0  0  0  0  0  0  0  0  0  0  0
    6.6040  -11.2767   25.9060 C   0  0  0  0  0  0  0  0  0  0  0  0
    7.9166  -11.5044   26.1911 C   0  0  0  0  0  0  0  0  0  0  0  0
    8.4372  -12.7591   26.2033 C   0  0  0  0  0  0  0  0  0  0  0  0
    7.5983  -13.8373   25.9154 C   0  0  0  0  0  0  0  0  0  0  0  0
   11.0855  -17.1429   25.1378 C   0  0  0  0  0  0  0  0  0  0  0  0
   11.9328  -16.9495   26.0737 O   0  0  0  0  0  0  0  0  0  0  0  0
   12.1632  -20.3201   23.4931 C   0  0  0  0  0  0  0  0  0  0  0  0
   12.3470  -19.2021   24.5563 C   0  0  2  0  0  0  0  0  0  0  0  0
   11.2454  -18.2867   24.3175 N   0  0  0  0  0  0  0  0  0  0  0  0
   13.6737  -18.6292   24.2521 C   0  0  0  0  0  0  0  0  0  0  0  0
   14.7529  -19.0928   24.6417 O   0  0  0  0  0  0  0  0  0  0  0  0
   13.7137  -17.4842   23.4697 O   0  0  0  0  0  0  0  0  0  0  0  0
  2  3  1  0
  2  1  1  1
  4  5  1  0
  4  3  1  0
  5  6  2  0
  7  2  1  0
  8  7  2  0
  9  5  1  0
 10  7  1  0
 11 10  1  0
 11 12  1  1
 12 13  1  0
 13 14  2  0
 14 15  1  0
 16 15  1  0
 17 16  2  0
 18 17  1  0
 19 20  1  0
 19 18  2  0
 20 21  2  0
 21 13  1  0
 21 16  1  0
 22 26  1  0
 22 11  1  0
 23 22  2  0
 25 24  1  6
 25 27  1  0
 25 26  1  0
 27 29  1  0
 28 27  2  0
M  END
$$$$
