VVW.pdb
     RDKit          3D

 29 30  0  0  1  0  0  0  0  0999 V2000
   26.0574  -22.8857  -17.8143 C   0  0  0  0  0  0  0  0  0  0  0  0
   25.5823  -24.0857  -17.0299 C   0  0  2  0  0  0  0  0  0  0  0  0
   24.5435  -24.8021  -17.8850 C   0  0  0  0  0  0  0  0  0  0  0  0
   25.0094  -23.6762  -15.6859 C   0  0  2  0  0  0  0  0  0  0  0  0
   23.7115  -23.1179  -15.9271 N   0  0  0  0  0  0  0  0  0  0  0  0
   25.9114  -22.7517  -14.9685 C   0  0  0  0  0  0  0  0  0  0  0  0
   27.0951  -23.0830  -14.7044 O   0  0  0  0  0  0  0  0  0  0  0  0
   26.9754  -19.0469  -15.5118 C   0  0  0  0  0  0  0  0  0  0  0  0
   26.4122  -19.2148  -14.1464 C   0  0  2  0  0  0  0  0  0  0  0  0
   27.3064  -18.4618  -13.1672 C   0  0  0  0  0  0  0  0  0  0  0  0
   26.3534  -20.6419  -13.6642 C   0  0  2  0  0  0  0  0  0  0  0  0
   25.5166  -21.4439  -14.5323 N   0  0  0  0  0  0  0  0  0  0  0  0
   25.9832  -20.7590  -12.2419 C   0  0  0  0  0  0  0  0  0  0  0  0
   24.7891  -20.6164  -11.8892 O   0  0  0  0  0  0  0  0  0  0  0  0
   26.9406  -21.0314  -11.2388 N   0  0  0  0  0  0  0  0  0  0  0  0
   26.5058  -21.0794   -9.8514 C   0  0  1  0  0  0  0  0  0  0  0  0
   27.7289  -21.2954   -8.9421 C   0  0  0  0  0  0  0  0  0  0  0  0
   27.5195  -20.5286   -7.7071 C   0  0  0  0  0  0  0  0  0  0  0  0
   26.4769  -19.6770   -7.4041 C   0  0  0  0  0  0  0  0  0  0  0  0
   26.6735  -19.1804   -6.1732 N   0  0  0  0  0  0  0  0  0  0  0  0
   27.8245  -19.6940   -5.6720 C   0  0  0  0  0  0  0  0  0  0  0  0
   28.4686  -19.5040   -4.4593 C   0  0  0  0  0  0  0  0  0  0  0  0
   29.6480  -20.1315   -4.1480 C   0  0  0  0  0  0  0  0  0  0  0  0
   30.1825  -20.9715   -5.0944 C   0  0  0  0  0  0  0  0  0  0  0  0
   29.5508  -21.1682   -6.3037 C   0  0  0  0  0  0  0  0  0  0  0  0
   28.3550  -20.5340   -6.6232 C   0  0  0  0  0  0  0  0  0  0  0  0
   25.7831  -19.8604   -9.4638 C   0  0  0  0  0  0  0  0  0  0  0  0
   26.2404  -18.7416   -9.7665 O   0  0  0  0  0  0  0  0  0  0  0  0
   24.5974  -19.9308   -8.7650 O   0  0  0  0  0  0  0  0  0  0  0  0
  2  1  1  6
  2  3  1  0
  4  5  1  6
  4  2  1  0
  6  4  1  0
  7  6  2  0
  9  8  1  6
  9 11  1  0
 10  9  1  0
 11 12  1  6
 12  6  1  0
 13 11  1  0
 13 14  2  0
 15 16  1  0
 15 13  1  0
 16 17  1  1
 18 17  1  0
 19 18  2  0
 20 19  1  0
 21 20  1  0
 21 26  2  0
 22 21  1  0
 23 22  2  0
 23 24  1  0
 24 25  2  0
 25 26  1  0
 26 18  1  0
 27 16  1  0
 28 27  2  0
 29 27  1  0
M  END
$$$$
