VVW.pdb
     RDKit          3D

 29 30  0  0  1  0  0  0  0  0999 V2000
   25.4462  -15.4181  -15.9373 C   0  0  0  0  0  0  0  0  0  0  0  0
   25.2356  -16.3756  -14.7883 C   0  0  2  0  0  0  0  0  0  0  0  0
   26.5885  -16.5796  -14.1163 C   0  0  0  0  0  0  0  0  0  0  0  0
   24.6476  -17.6905  -15.2651 C   0  0  2  0  0  0  0  0  0  0  0  0
   23.3904  -17.3956  -15.8870 N   0  0  0  0  0  0  0  0  0  0  0  0
   24.5313  -18.6666  -14.1621 C   0  0  0  0  0  0  0  0  0  0  0  0
   23.5686  -18.6142  -13.3552 O   0  0  0  0  0  0  0  0  0  0  0  0
   24.4446  -22.4732  -14.4045 C   0  0  0  0  0  0  0  0  0  0  0  0
   25.4554  -22.0875  -13.3851 C   0  0  2  0  0  0  0  0  0  0  0  0
   25.2955  -23.0123  -12.1832 C   0  0  0  0  0  0  0  0  0  0  0  0
   25.3151  -20.6795  -12.8653 C   0  0  2  0  0  0  0  0  0  0  0  0
   25.4802  -19.7175  -13.9350 N   0  0  0  0  0  0  0  0  0  0  0  0
   26.1800  -20.4007  -11.7043 C   0  0  0  0  0  0  0  0  0  0  0  0
   27.3921  -20.1312  -11.8735 O   0  0  0  0  0  0  0  0  0  0  0  0
   25.6871  -20.4253  -10.3801 N   0  0  0  0  0  0  0  0  0  0  0  0
   26.6190  -20.2154   -9.2828 C   0  0  1  0  0  0  0  0  0  0  0  0
   26.0902  -19.0908   -8.3744 C   0  0  0  0  0  0  0  0  0  0  0  0
   27.1468  -18.7459   -7.4144 C   0  0  0  0  0  0  0  0  0  0  0  0
   28.0443  -17.6998   -7.4805 C   0  0  0  0  0  0  0  0  0  0  0  0
   28.8400  -17.7494   -6.4013 N   0  0  0  0  0  0  0  0  0  0  0  0
   28.4755  -18.8084   -5.6362 C   0  0  0  0  0  0  0  0  0  0  0  0
   28.9717  -19.2943   -4.4365 C   0  0  0  0  0  0  0  0  0  0  0  0
   28.4486  -20.4027   -3.8206 C   0  0  0  0  0  0  0  0  0  0  0  0
   27.3961  -21.0297   -4.4419 C   0  0  0  0  0  0  0  0  0  0  0  0
   26.8944  -20.5555   -5.6350 C   0  0  0  0  0  0  0  0  0  0  0  0
   27.4217  -19.4321   -6.2627 C   0  0  0  0  0  0  0  0  0  0  0  0
   26.8361  -21.4451   -8.5088 C   0  0  0  0  0  0  0  0  0  0  0  0
   25.8626  -22.1272   -8.1358 O   0  0  0  0  0  0  0  0  0  0  0  0
   28.1085  -21.8632   -8.1841 O   0  0  0  0  0  0  0  0  0  0  0  0
  2  1  1  6
  2  3  1  0
  4  5  1  1
  4  2  1  0
  6  4  1  0
  7  6  2  0
  9  8  1  6
  9 11  1  0
 10  9  1  0
 11 12  1  6
 12  6  1  0
 13 11  1  0
 13 14  2  0
 15 16  1  0
 15 13  1  0
 16 17  1  1
 18 17  1  0
 19 18  2  0
 20 19  1  0
 21 20  1  0
 21 26  2  0
 22 21  1  0
 23 22  2  0
 23 24  1  0
 24 25  2  0
 25 26  1  0
 26 18  1  0
 27 16  1  0
 28 27  2  0
 29 27  1  0
M  END
$$$$
