VVW.pdb
     RDKit          3D

 29 30  0  0  1  0  0  0  0  0999 V2000
   13.9326  -17.6913    2.1331 C   0  0  0  0  0  0  0  0  0  0  0  0
   14.1149  -18.9627    2.9278 C   0  0  2  0  0  0  0  0  0  0  0  0
   15.3215  -18.7584    3.8367 C   0  0  0  0  0  0  0  0  0  0  0  0
   14.3014  -20.1620    2.0173 C   0  0  2  0  0  0  0  0  0  0  0  0
   13.0838  -20.3321    1.2805 N   0  0  0  0  0  0  0  0  0  0  0  0
   14.6892  -21.3679    2.7779 C   0  0  0  0  0  0  0  0  0  0  0  0
   13.8494  -21.9806    3.4849 O   0  0  0  0  0  0  0  0  0  0  0  0
   16.3255  -24.6710    1.5595 C   0  0  0  0  0  0  0  0  0  0  0  0
   17.1172  -24.0819    2.6713 C   0  0  2  0  0  0  0  0  0  0  0  0
   17.5557  -25.2136    3.5945 C   0  0  0  0  0  0  0  0  0  0  0  0
   16.3600  -23.0985    3.5269 C   0  0  2  0  0  0  0  0  0  0  0  0
   16.0147  -21.9151    2.7672 N   0  0  0  0  0  0  0  0  0  0  0  0
   17.0433  -22.7869    4.7957 C   0  0  0  0  0  0  0  0  0  0  0  0
   18.0784  -22.0804    4.7953 O   0  0  0  0  0  0  0  0  0  0  0  0
   16.5681  -23.2624    6.0387 N   0  0  0  0  0  0  0  0  0  0  0  0
   17.3629  -23.0161    7.2320 C   0  0  1  0  0  0  0  0  0  0  0  0
   16.4274  -22.8767    8.4465 C   0  0  0  0  0  0  0  0  0  0  0  0
   17.2443  -22.5115    9.6112 C   0  0  0  0  0  0  0  0  0  0  0  0
   17.7162  -21.2621    9.9578 C   0  0  0  0  0  0  0  0  0  0  0  0
   18.4229  -21.3711   11.0933 N   0  0  0  0  0  0  0  0  0  0  0  0
   18.4181  -22.6682   11.4896 C   0  0  0  0  0  0  0  0  0  0  0  0
   18.9930  -23.3019   12.5803 C   0  0  0  0  0  0  0  0  0  0  0  0
   18.8652  -24.6502   12.7977 C   0  0  0  0  0  0  0  0  0  0  0  0
   18.1348  -25.3685   11.8824 C   0  0  0  0  0  0  0  0  0  0  0  0
   17.5586  -24.7490   10.7942 C   0  0  0  0  0  0  0  0  0  0  0  0
   17.6857  -23.3824   10.5702 C   0  0  0  0  0  0  0  0  0  0  0  0
   18.3494  -24.0808    7.4597 C   0  0  0  0  0  0  0  0  0  0  0  0
   18.0530  -25.2670    7.2205 O   0  0  0  0  0  0  0  0  0  0  0  0
   19.6089  -23.7901    7.9374 O   0  0  0  0  0  0  0  0  0  0  0  0
  2  1  1  6
  2  3  1  0
  4  5  1  1
  4  2  1  0
  6  4  1  0
  7  6  2  0
  9  8  1  6
  9 11  1  0
 10  9  1  0
 11 12  1  6
 12  6  1  0
 13 11  1  0
 13 14  2  0
 15 16  1  0
 15 13  1  0
 16 17  1  1
 18 17  1  0
 19 18  2  0
 20 19  1  0
 21 20  1  0
 21 26  2  0
 22 21  1  0
 23 22  2  0
 23 24  1  0
 24 25  2  0
 25 26  1  0
 26 18  1  0
 27 16  1  0
 28 27  2  0
 29 27  1  0
M  END
$$$$
