VVW.pdb
     RDKit          3D

 29 30  0  0  1  0  0  0  0  0999 V2000
   19.7808  -19.7159  -13.7982 C   0  0  0  0  0  0  0  0  0  0  0  0
   21.0146  -20.2793  -13.1336 C   0  0  2  0  0  0  0  0  0  0  0  0
   21.3691  -19.3509  -11.9777 C   0  0  0  0  0  0  0  0  0  0  0  0
   22.1631  -20.4065  -14.1169 C   0  0  2  0  0  0  0  0  0  0  0  0
   21.7091  -21.2288  -15.1996 N   0  0  0  0  0  0  0  0  0  0  0  0
   23.3817  -20.9301  -13.4658 C   0  0  0  0  0  0  0  0  0  0  0  0
   23.3605  -22.0230  -12.8447 O   0  0  0  0  0  0  0  0  0  0  0  0
   28.2802  -21.2512  -13.2452 C   0  0  0  0  0  0  0  0  0  0  0  0
   27.0327  -20.6297  -13.7621 C   0  0  2  0  0  0  0  0  0  0  0  0
   27.2632  -19.1268  -13.8789 C   0  0  0  0  0  0  0  0  0  0  0  0
   25.8279  -20.8118  -12.8745 C   0  0  2  0  0  0  0  0  0  0  0  0
   24.6445  -20.2511  -13.4926 N   0  0  0  0  0  0  0  0  0  0  0  0
   26.0417  -20.3261  -11.4990 C   0  0  0  0  0  0  0  0  0  0  0  0
   25.3892  -19.3460  -11.0697 O   0  0  0  0  0  0  0  0  0  0  0  0
   26.9724  -20.9338  -10.6263 N   0  0  0  0  0  0  0  0  0  0  0  0
   27.1523  -20.3741   -9.2957 C   0  0  1  0  0  0  0  0  0  0  0  0
   25.8610  -20.5725   -8.4815 C   0  0  0  0  0  0  0  0  0  0  0  0
   26.2370  -20.8091   -7.0816 C   0  0  0  0  0  0  0  0  0  0  0  0
   25.8036  -21.8181   -6.2460 C   0  0  0  0  0  0  0  0  0  0  0  0
   26.3907  -21.6648   -5.0492 N   0  0  0  0  0  0  0  0  0  0  0  0
   27.1970  -20.5750   -5.0929 C   0  0  0  0  0  0  0  0  0  0  0  0
   28.0128  -19.9917   -4.1359 C   0  0  0  0  0  0  0  0  0  0  0  0
   28.7582  -18.8691   -4.3918 C   0  0  0  0  0  0  0  0  0  0  0  0
   28.6699  -18.3291   -5.6518 C   0  0  0  0  0  0  0  0  0  0  0  0
   27.8621  -18.9005   -6.6115 C   0  0  0  0  0  0  0  0  0  0  0  0
   27.1048  -20.0386   -6.3561 C   0  0  0  0  0  0  0  0  0  0  0  0
   28.2982  -20.9762   -8.6010 C   0  0  0  0  0  0  0  0  0  0  0  0
   28.4800  -22.2078   -8.6496 O   0  0  0  0  0  0  0  0  0  0  0  0
   29.1852  -20.1975   -7.8895 O   0  0  0  0  0  0  0  0  0  0  0  0
  2  1  1  6
  2  3  1  0
  4  5  1  6
  4  2  1  0
  6  4  1  0
  7  6  2  0
  9  8  1  1
  9 11  1  0
 10  9  1  0
 11 12  1  6
 12  6  1  0
 13 11  1  0
 13 14  2  0
 15 16  1  0
 15 13  1  0
 16 17  1  1
 18 17  1  0
 19 18  2  0
 20 19  1  0
 21 20  1  0
 21 26  2  0
 22 21  1  0
 23 22  2  0
 23 24  1  0
 24 25  2  0
 25 26  1  0
 26 18  1  0
 27 16  1  0
 28 27  2  0
 29 27  1  0
M  END
$$$$
