MMP.pdb
     RDKit          3D

 24 24  0  0  1  0  0  0  0  0999 V2000
    8.5384  -17.5218   28.7227 C   0  0  0  0  0  0  0  0  0  0  0  0
    8.9495  -19.2768   28.8168 S   0  0  0  0  0  0  0  0  0  0  0  0
    7.8758  -20.1876   27.6847 C   0  0  0  0  0  0  0  0  0  0  0  0
    6.8270  -19.2837   27.0780 C   0  0  0  0  0  0  0  0  0  0  0  0
    7.1662  -18.9412   25.6710 C   0  0  2  0  0  0  0  0  0  0  0  0
    8.5887  -19.1605   25.4633 N   0  0  0  0  0  0  0  0  0  0  0  0
    6.7599  -17.5930   25.2307 C   0  0  0  0  0  0  0  0  0  0  0  0
    5.5175  -17.3412   25.0658 O   0  0  0  0  0  0  0  0  0  0  0  0
    5.8805  -11.1522   26.4597 C   0  0  0  0  0  0  0  0  0  0  0  0
    7.0650  -12.3819   26.9282 S   0  0  0  0  0  0  0  0  0  0  0  0
    6.8753  -13.9702   26.1151 C   0  0  0  0  0  0  0  0  0  0  0  0
    7.4578  -14.1032   24.7705 C   0  0  0  0  0  0  0  0  0  0  0  0
    7.3118  -15.4348   24.1068 C   0  0  2  0  0  0  0  0  0  0  0  0
    7.6442  -16.5170   24.9670 N   0  0  0  0  0  0  0  0  0  0  0  0
    7.9341  -15.5565   22.7825 C   0  0  0  0  0  0  0  0  0  0  0  0
    8.3726  -16.7560   22.4781 O   0  0  0  0  0  0  0  0  0  0  0  0
    8.1366  -14.5989   21.7844 N   0  0  0  0  0  0  0  0  0  0  0  0
    7.8201  -13.1744   21.9420 C   0  0  0  0  0  0  0  0  0  0  0  0
    7.1830  -12.8762   20.6084 C   0  0  0  0  0  0  0  0  0  0  0  0
    7.7261  -13.8820   19.6378 C   0  0  0  0  0  0  0  0  0  0  0  0
    8.6844  -14.7028   20.4898 C   0  0  1  0  0  0  0  0  0  0  0  0
   10.0706  -14.2250   20.3659 C   0  0  0  0  0  0  0  0  0  0  0  0
   10.5614  -13.5529   21.2977 O   0  0  0  0  0  0  0  0  0  0  0  0
   10.8291  -14.5051   19.2477 O   0  0  0  0  0  0  0  0  0  0  0  0
  2  1  1  0
  2  3  1  0
  3  4  1  0
  5  6  1  1
  5  4  1  0
  7  5  1  0
  7  8  2  0
 10  9  1  0
 10 11  1  0
 11 12  1  0
 13 12  1  1
 13 15  1  0
 13 14  1  0
 14  7  1  0
 15 16  2  0
 17 21  1  0
 17 15  1  0
 18 17  1  0
 19 18  1  0
 20 19  1  0
 20 21  1  0
 21 22  1  1
 22 23  2  0
 22 24  1  0
M  END
$$$$
