MMP.pdb
     RDKit          3D

 24 24  0  0  1  0  0  0  0  0999 V2000
   10.6896  -19.5655   25.9531 C   0  0  0  0  0  0  0  0  0  0  0  0
    9.7340  -21.0967   25.9613 S   0  0  0  0  0  0  0  0  0  0  0  0
    8.0032  -20.7046   25.6227 C   0  0  0  0  0  0  0  0  0  0  0  0
    7.8814  -19.6319   24.5646 C   0  0  0  0  0  0  0  0  0  0  0  0
    6.4776  -19.1551   24.4464 C   0  0  2  0  0  0  0  0  0  0  0  0
    5.7462  -20.0578   23.5720 N   0  0  0  0  0  0  0  0  0  0  0  0
    6.3181  -17.7505   24.0243 C   0  0  0  0  0  0  0  0  0  0  0  0
    6.0032  -17.4980   22.8113 O   0  0  0  0  0  0  0  0  0  0  0  0
    7.1945  -12.1740   27.9295 C   0  0  0  0  0  0  0  0  0  0  0  0
    6.9612  -11.6236   26.2630 S   0  0  0  0  0  0  0  0  0  0  0  0
    7.0962  -12.9036   25.0128 C   0  0  0  0  0  0  0  0  0  0  0  0
    6.8066  -14.2821   25.4379 C   0  0  0  0  0  0  0  0  0  0  0  0
    6.7698  -15.3201   24.3626 C   0  0  2  0  0  0  0  0  0  0  0  0
    6.4841  -16.6199   24.8631 N   0  0  0  0  0  0  0  0  0  0  0  0
    7.9058  -15.3119   23.4324 C   0  0  0  0  0  0  0  0  0  0  0  0
    8.8142  -16.2345   23.6500 O   0  0  0  0  0  0  0  0  0  0  0  0
    8.1806  -14.4787   22.3441 N   0  0  0  0  0  0  0  0  0  0  0  0
    7.5936  -13.1452   22.1669 C   0  0  0  0  0  0  0  0  0  0  0  0
    7.2652  -13.1731   20.6957 C   0  0  0  0  0  0  0  0  0  0  0  0
    8.1973  -14.1645   20.0657 C   0  0  0  0  0  0  0  0  0  0  0  0
    9.0415  -14.6404   21.2399 C   0  0  1  0  0  0  0  0  0  0  0  0
   10.3111  -13.9023   21.3336 C   0  0  0  0  0  0  0  0  0  0  0  0
   10.4069  -12.9721   22.1621 O   0  0  0  0  0  0  0  0  0  0  0  0
   11.3863  -14.2186   20.5287 O   0  0  0  0  0  0  0  0  0  0  0  0
  2  1  1  0
  2  3  1  0
  3  4  1  0
  5  6  1  6
  5  4  1  0
  7  5  1  0
  7  8  2  0
 10  9  1  0
 10 11  1  0
 11 12  1  0
 13 12  1  1
 13 15  1  0
 13 14  1  0
 14  7  1  0
 15 16  2  0
 17 21  1  0
 17 15  1  0
 18 17  1  0
 19 18  1  0
 20 19  1  0
 20 21  1  0
 21 22  1  1
 22 23  2  0
 22 24  1  0
M  END
$$$$
