MMP.pdb
     RDKit          3D

 24 24  0  0  1  0  0  0  0  0999 V2000
    9.1334  -12.2181   18.4418 C   0  0  0  0  0  0  0  0  0  0  0  0
    7.5120  -12.8328   18.9431 S   0  0  0  0  0  0  0  0  0  0  0  0
    7.7370  -14.1086   20.2024 C   0  0  0  0  0  0  0  0  0  0  0  0
    9.0443  -14.8428   20.0108 C   0  0  0  0  0  0  0  0  0  0  0  0
    9.2249  -15.8919   21.0495 C   0  0  2  0  0  0  0  0  0  0  0  0
    8.2219  -16.9263   20.8528 N   0  0  0  0  0  0  0  0  0  0  0  0
    9.2338  -15.4095   22.4437 C   0  0  0  0  0  0  0  0  0  0  0  0
   10.2414  -14.7452   22.8651 O   0  0  0  0  0  0  0  0  0  0  0  0
    6.8242  -11.2245   26.9805 C   0  0  0  0  0  0  0  0  0  0  0  0
    5.8758  -12.6912   26.6908 S   0  0  0  0  0  0  0  0  0  0  0  0
    6.8292  -14.2087   26.6017 C   0  0  0  0  0  0  0  0  0  0  0  0
    6.8847  -14.8840   25.2955 C   0  0  0  0  0  0  0  0  0  0  0  0
    8.2440  -15.1047   24.7136 C   0  0  2  0  0  0  0  0  0  0  0  0
    8.1978  -15.6178   23.3884 N   0  0  0  0  0  0  0  0  0  0  0  0
    9.1898  -15.8344   25.5673 C   0  0  0  0  0  0  0  0  0  0  0  0
    9.6730  -16.9401   25.0497 O   0  0  0  0  0  0  0  0  0  0  0  0
    9.6655  -15.5428   26.8490 N   0  0  0  0  0  0  0  0  0  0  0  0
    9.0415  -14.5665   27.7500 C   0  0  0  0  0  0  0  0  0  0  0  0
   10.2597  -13.8688   28.2998 C   0  0  0  0  0  0  0  0  0  0  0  0
   11.3979  -14.8389   28.1883 C   0  0  0  0  0  0  0  0  0  0  0  0
   10.7419  -16.0745   27.5876 C   0  0  1  0  0  0  0  0  0  0  0  0
   10.3593  -17.0471   28.6233 C   0  0  0  0  0  0  0  0  0  0  0  0
    9.1456  -17.2508   28.8390 O   0  0  0  0  0  0  0  0  0  0  0  0
   11.3105  -17.7306   29.3526 O   0  0  0  0  0  0  0  0  0  0  0  0
  2  1  1  0
  2  3  1  0
  3  4  1  0
  5  6  1  1
  5  4  1  0
  7  5  1  0
  7  8  2  0
 10  9  1  0
 10 11  1  0
 11 12  1  0
 13 12  1  1
 13 15  1  0
 13 14  1  0
 14  7  1  0
 15 16  2  0
 17 21  1  0
 17 15  1  0
 18 17  1  0
 19 18  1  0
 20 19  1  0
 20 21  1  0
 21 22  1  1
 22 23  2  0
 22 24  1  0
M  END
$$$$
