MMP.pdb
     RDKit          3D

 24 24  0  0  1  0  0  0  0  0999 V2000
   10.3631  -20.6385   24.6685 C   0  0  0  0  0  0  0  0  0  0  0  0
    9.2873  -21.4965   23.5003 S   0  0  0  0  0  0  0  0  0  0  0  0
    7.7602  -20.5496   23.3117 C   0  0  0  0  0  0  0  0  0  0  0  0
    7.0887  -20.3214   24.6467 C   0  0  0  0  0  0  0  0  0  0  0  0
    5.8453  -19.5208   24.4893 C   0  0  2  0  0  0  0  0  0  0  0  0
    4.9615  -20.2027   23.5574 N   0  0  0  0  0  0  0  0  0  0  0  0
    6.0434  -18.1095   24.1079 C   0  0  0  0  0  0  0  0  0  0  0  0
    5.9030  -17.7711   22.8832 O   0  0  0  0  0  0  0  0  0  0  0  0
    5.9531  -11.3016   26.8477 C   0  0  0  0  0  0  0  0  0  0  0  0
    7.4474  -12.2267   26.6327 S   0  0  0  0  0  0  0  0  0  0  0  0
    7.4047  -13.4465   25.3173 C   0  0  0  0  0  0  0  0  0  0  0  0
    6.9467  -14.7976   25.6774 C   0  0  0  0  0  0  0  0  0  0  0  0
    6.8161  -15.7802   24.5583 C   0  0  2  0  0  0  0  0  0  0  0  0
    6.3833  -17.0608   24.9991 N   0  0  0  0  0  0  0  0  0  0  0  0
    7.9617  -15.8572   23.6432 C   0  0  0  0  0  0  0  0  0  0  0  0
    8.7221  -16.9179   23.7862 O   0  0  0  0  0  0  0  0  0  0  0  0
    8.3784  -14.9815   22.6363 N   0  0  0  0  0  0  0  0  0  0  0  0
    7.9786  -13.5712   22.5625 C   0  0  0  0  0  0  0  0  0  0  0  0
    7.6958  -13.4334   21.0880 C   0  0  0  0  0  0  0  0  0  0  0  0
    8.5082  -14.4858   20.3941 C   0  0  0  0  0  0  0  0  0  0  0  0
    9.2447  -15.1659   21.5399 C   0  0  1  0  0  0  0  0  0  0  0  0
   10.5970  -14.6153   21.7222 C   0  0  0  0  0  0  0  0  0  0  0  0
   10.8115  -13.8530   22.6886 O   0  0  0  0  0  0  0  0  0  0  0  0
   11.6215  -14.9247   20.8512 O   0  0  0  0  0  0  0  0  0  0  0  0
  2  1  1  0
  2  3  1  0
  3  4  1  0
  5  6  1  6
  5  4  1  0
  7  5  1  0
  7  8  2  0
 10  9  1  0
 10 11  1  0
 11 12  1  0
 13 12  1  1
 13 15  1  0
 13 14  1  0
 14  7  1  0
 15 16  2  0
 17 21  1  0
 17 15  1  0
 18 17  1  0
 19 18  1  0
 20 19  1  0
 20 21  1  0
 21 22  1  1
 22 23  2  0
 22 24  1  0
M  END
$$$$
