MMP.pdb
     RDKit          3D

 24 24  0  0  1  0  0  0  0  0999 V2000
    9.9106  -18.4563   25.6695 C   0  0  0  0  0  0  0  0  0  0  0  0
    9.7441  -20.2311   25.9524 S   0  0  0  0  0  0  0  0  0  0  0  0
    7.9889  -20.6594   25.9461 C   0  0  0  0  0  0  0  0  0  0  0  0
    7.3818  -20.4619   24.5759 C   0  0  0  0  0  0  0  0  0  0  0  0
    6.1071  -19.7004   24.6612 C   0  0  2  0  0  0  0  0  0  0  0  0
    5.0795  -20.4192   23.9250 N   0  0  0  0  0  0  0  0  0  0  0  0
    6.1822  -18.2884   24.2403 C   0  0  0  0  0  0  0  0  0  0  0  0
    6.0873  -18.0046   22.9974 O   0  0  0  0  0  0  0  0  0  0  0  0
    8.2927  -12.3009   27.7890 C   0  0  0  0  0  0  0  0  0  0  0  0
    6.9279  -12.2394   26.6628 S   0  0  0  0  0  0  0  0  0  0  0  0
    6.9615  -13.4712   25.3585 C   0  0  0  0  0  0  0  0  0  0  0  0
    6.6282  -14.8529   25.7394 C   0  0  0  0  0  0  0  0  0  0  0  0
    6.6645  -15.8748   24.6488 C   0  0  2  0  0  0  0  0  0  0  0  0
    6.3528  -17.1828   25.1108 N   0  0  0  0  0  0  0  0  0  0  0  0
    7.8575  -15.8491   23.7932 C   0  0  0  0  0  0  0  0  0  0  0  0
    8.7174  -16.8189   24.0026 O   0  0  0  0  0  0  0  0  0  0  0  0
    8.2305  -14.9567   22.7840 N   0  0  0  0  0  0  0  0  0  0  0  0
    7.6590  -13.6138   22.6280 C   0  0  0  0  0  0  0  0  0  0  0  0
    7.4694  -13.5580   21.1333 C   0  0  0  0  0  0  0  0  0  0  0  0
    8.4589  -14.5149   20.5383 C   0  0  0  0  0  0  0  0  0  0  0  0
    9.1911  -15.0583   21.7575 C   0  0  1  0  0  0  0  0  0  0  0  0
   10.4444  -14.3300   22.0106 C   0  0  0  0  0  0  0  0  0  0  0  0
   11.3391  -14.3503   21.1388 O   0  0  0  0  0  0  0  0  0  0  0  0
   10.6447  -13.6321   23.1840 O   0  0  0  0  0  0  0  0  0  0  0  0
  2  1  1  0
  2  3  1  0
  3  4  1  0
  5  6  1  6
  5  4  1  0
  7  5  1  0
  7  8  2  0
 10  9  1  0
 10 11  1  0
 11 12  1  0
 13 12  1  1
 13 15  1  0
 13 14  1  0
 14  7  1  0
 15 16  2  0
 17 21  1  0
 17 15  1  0
 18 17  1  0
 19 18  1  0
 20 19  1  0
 20 21  1  0
 21 22  1  1
 22 23  2  0
 22 24  1  0
M  END
$$$$
