MMP.pdb
     RDKit          3D

 24 24  0  0  1  0  0  0  0  0999 V2000
    6.4033  -12.3571   27.1792 C   0  0  0  0  0  0  0  0  0  0  0  0
    8.0179  -13.1465   27.0122 S   0  0  0  0  0  0  0  0  0  0  0  0
    7.8412  -14.9115   27.3552 C   0  0  0  0  0  0  0  0  0  0  0  0
    6.4954  -15.4264   26.8981 C   0  0  0  0  0  0  0  0  0  0  0  0
    6.6428  -16.6760   26.1051 C   0  0  2  0  0  0  0  0  0  0  0  0
    7.1504  -17.7267   26.9729 N   0  0  0  0  0  0  0  0  0  0  0  0
    7.4506  -16.5561   24.8764 C   0  0  0  0  0  0  0  0  0  0  0  0
    8.3149  -17.4596   24.6103 O   0  0  0  0  0  0  0  0  0  0  0  0
    8.0368  -12.5293   18.0788 C   0  0  0  0  0  0  0  0  0  0  0  0
    8.0062  -12.4684   19.8480 S   0  0  0  0  0  0  0  0  0  0  0  0
    8.1213  -14.0611   20.6664 C   0  0  0  0  0  0  0  0  0  0  0  0
    8.1167  -14.0551   22.1378 C   0  0  0  0  0  0  0  0  0  0  0  0
    8.2215  -15.3849   22.8126 C   0  0  2  0  0  0  0  0  0  0  0  0
    7.3543  -15.5024   23.9332 N   0  0  0  0  0  0  0  0  0  0  0  0
    9.5853  -15.8432   23.1056 C   0  0  0  0  0  0  0  0  0  0  0  0
    9.9750  -15.6821   24.3490 O   0  0  0  0  0  0  0  0  0  0  0  0
   10.5436  -16.4286   22.2731 N   0  0  0  0  0  0  0  0  0  0  0  0
   10.3321  -16.6971   20.8457 C   0  0  0  0  0  0  0  0  0  0  0  0
   10.9375  -18.0724   20.7230 C   0  0  0  0  0  0  0  0  0  0  0  0
   11.9412  -18.2008   21.8297 C   0  0  0  0  0  0  0  0  0  0  0  0
   11.8657  -16.8480   22.5240 C   0  0  1  0  0  0  0  0  0  0  0  0
   12.9074  -15.9279   22.0408 C   0  0  0  0  0  0  0  0  0  0  0  0
   14.0871  -16.1055   22.4123 O   0  0  0  0  0  0  0  0  0  0  0  0
   12.6047  -14.8827   21.1923 O   0  0  0  0  0  0  0  0  0  0  0  0
  2  1  1  0
  2  3  1  0
  3  4  1  0
  5  6  1  1
  5  4  1  0
  7  5  1  0
  7  8  2  0
 10  9  1  0
 10 11  1  0
 11 12  1  0
 13 12  1  1
 13 15  1  0
 13 14  1  0
 14  7  1  0
 15 16  2  0
 17 21  1  0
 17 15  1  0
 18 17  1  0
 19 18  1  0
 20 19  1  0
 20 21  1  0
 21 22  1  6
 22 23  2  0
 22 24  1  0
M  END
$$$$
