MMP.pdb
     RDKit          3D

 24 24  0  0  1  0  0  0  0  0999 V2000
    3.0639  -20.2937   19.6493 C   0  0  0  0  0  0  0  0  0  0  0  0
    4.1958  -20.7513   20.9787 S   0  0  0  0  0  0  0  0  0  0  0  0
    3.5746  -20.0701   22.5325 C   0  0  0  0  0  0  0  0  0  0  0  0
    4.4782  -20.4316   23.6892 C   0  0  0  0  0  0  0  0  0  0  0  0
    5.7965  -19.7538   23.5692 C   0  0  2  0  0  0  0  0  0  0  0  0
    6.6788  -20.2530   24.6117 N   0  0  0  0  0  0  0  0  0  0  0  0
    5.7534  -18.2791   23.5616 C   0  0  0  0  0  0  0  0  0  0  0  0
    5.2763  -17.6765   22.5401 O   0  0  0  0  0  0  0  0  0  0  0  0
    6.8720  -11.2158   26.8371 C   0  0  0  0  0  0  0  0  0  0  0  0
    7.1993  -12.9429   27.0486 S   0  0  0  0  0  0  0  0  0  0  0  0
    7.1571  -13.9157   25.5414 C   0  0  0  0  0  0  0  0  0  0  0  0
    6.7466  -15.3229   25.6690 C   0  0  0  0  0  0  0  0  0  0  0  0
    6.6607  -16.1122   24.4023 C   0  0  2  0  0  0  0  0  0  0  0  0
    6.2031  -17.4417   24.6132 N   0  0  0  0  0  0  0  0  0  0  0  0
    7.8450  -16.0550   23.5363 C   0  0  0  0  0  0  0  0  0  0  0  0
    8.6303  -17.1057   23.5918 O   0  0  0  0  0  0  0  0  0  0  0  0
    8.2764  -15.0597   22.6547 N   0  0  0  0  0  0  0  0  0  0  0  0
    7.7821  -13.6779   22.6768 C   0  0  0  0  0  0  0  0  0  0  0  0
    7.6097  -13.4146   21.2023 C   0  0  0  0  0  0  0  0  0  0  0  0
    8.5498  -14.3389   20.4876 C   0  0  0  0  0  0  0  0  0  0  0  0
    9.2393  -15.0789   21.6255 C   0  0  1  0  0  0  0  0  0  0  0  0
   10.5288  -14.4624   21.9749 C   0  0  0  0  0  0  0  0  0  0  0  0
   11.4251  -14.4077   21.1062 O   0  0  0  0  0  0  0  0  0  0  0  0
   10.7611  -13.9488   23.2344 O   0  0  0  0  0  0  0  0  0  0  0  0
  2  1  1  0
  2  3  1  0
  3  4  1  0
  5  6  1  1
  5  4  1  0
  7  5  1  0
  7  8  2  0
 10  9  1  0
 10 11  1  0
 11 12  1  0
 13 12  1  1
 13 15  1  0
 13 14  1  0
 14  7  1  0
 15 16  2  0
 17 21  1  0
 17 15  1  0
 18 17  1  0
 19 18  1  0
 20 19  1  0
 20 21  1  0
 21 22  1  1
 22 23  2  0
 22 24  1  0
M  END
$$$$
