MMP.pdb
     RDKit          3D

 24 24  0  0  1  0  0  0  0  0999 V2000
    7.8837  -11.9076   18.3091 C   0  0  0  0  0  0  0  0  0  0  0  0
    8.4920  -13.4458   17.5868 S   0  0  0  0  0  0  0  0  0  0  0  0
    8.2101  -14.7910   18.7594 C   0  0  0  0  0  0  0  0  0  0  0  0
    8.1703  -14.2790   20.1812 C   0  0  0  0  0  0  0  0  0  0  0  0
    8.9353  -15.1718   21.0921 C   0  0  2  0  0  0  0  0  0  0  0  0
    8.4757  -16.5388   20.9063 N   0  0  0  0  0  0  0  0  0  0  0  0
    8.9203  -14.7882   22.5166 C   0  0  0  0  0  0  0  0  0  0  0  0
    9.6105  -13.7814   22.8963 O   0  0  0  0  0  0  0  0  0  0  0  0
    5.9246  -11.8175   26.2530 C   0  0  0  0  0  0  0  0  0  0  0  0
    6.9665  -12.8282   27.2667 S   0  0  0  0  0  0  0  0  0  0  0  0
    6.8540  -14.5915   26.9535 C   0  0  0  0  0  0  0  0  0  0  0  0
    6.8977  -15.0215   25.5470 C   0  0  0  0  0  0  0  0  0  0  0  0
    8.2460  -15.0662   24.9026 C   0  0  2  0  0  0  0  0  0  0  0  0
    8.1888  -15.4497   23.5347 N   0  0  0  0  0  0  0  0  0  0  0  0
    9.2827  -15.7912   25.6478 C   0  0  0  0  0  0  0  0  0  0  0  0
    9.7809  -16.8409   25.0364 O   0  0  0  0  0  0  0  0  0  0  0  0
    9.8320  -15.5452   26.9095 N   0  0  0  0  0  0  0  0  0  0  0  0
    9.2963  -14.5599   27.8563 C   0  0  0  0  0  0  0  0  0  0  0  0
   10.5694  -13.9267   28.3575 C   0  0  0  0  0  0  0  0  0  0  0  0
   11.6565  -14.9433   28.1741 C   0  0  0  0  0  0  0  0  0  0  0  0
   10.9180  -16.1373   27.5854 C   0  0  1  0  0  0  0  0  0  0  0  0
   10.5427  -17.1119   28.6220 C   0  0  0  0  0  0  0  0  0  0  0  0
    9.3453  -17.1895   28.9702 O   0  0  0  0  0  0  0  0  0  0  0  0
   11.4833  -17.9330   29.2095 O   0  0  0  0  0  0  0  0  0  0  0  0
  2  1  1  0
  2  3  1  0
  3  4  1  0
  5  6  1  1
  5  4  1  0
  7  5  1  0
  7  8  2  0
 10  9  1  0
 10 11  1  0
 11 12  1  0
 13 12  1  1
 13 15  1  0
 13 14  1  0
 14  7  1  0
 15 16  2  0
 17 21  1  0
 17 15  1  0
 18 17  1  0
 19 18  1  0
 20 19  1  0
 20 21  1  0
 21 22  1  1
 22 23  2  0
 22 24  1  0
M  END
$$$$
