GQP.pdb
     RDKit          3D

 21 21  0  0  1  0  0  0  0  0999 V2000
   29.3870  -23.0608  -16.9783 N   0  0  0  0  0  0  0  0  0  0  0  0
   28.7881  -21.7767  -16.7745 C   0  0  0  0  0  0  0  0  0  0  0  0
   27.4836  -21.9119  -16.0351 C   0  0  0  0  0  0  0  0  0  0  0  0
   26.8360  -22.9600  -16.1569 O   0  0  0  0  0  0  0  0  0  0  0  0
   26.1706  -21.8828  -10.9140 N   0  0  0  0  0  0  0  0  0  0  0  0
   24.9070  -21.2255  -11.1057 C   0  0  0  0  0  0  0  0  0  0  0  0
   24.0151  -21.4597  -10.2620 O   0  0  0  0  0  0  0  0  0  0  0  0
   24.6988  -20.3021  -12.2803 C   0  0  0  0  0  0  0  0  0  0  0  0
   25.9499  -20.3940  -13.1123 C   0  0  0  0  0  0  0  0  0  0  0  0
   25.7761  -20.8683  -14.4982 C   0  0  2  0  0  0  0  0  0  0  0  0
   27.0186  -20.8553  -15.2210 N   0  0  0  0  0  0  0  0  0  0  0  0
   24.6462  -20.3625  -15.2780 C   0  0  0  0  0  0  0  0  0  0  0  0
   24.8193  -19.1973  -15.7952 O   0  0  0  0  0  0  0  0  0  0  0  0
   23.4158  -20.9978  -15.5193 N   0  0  0  0  0  0  0  0  0  0  0  0
   23.2119  -22.4167  -15.1383 C   0  0  0  0  0  0  0  0  0  0  0  0
   22.1899  -22.9146  -16.1363 C   0  0  0  0  0  0  0  0  0  0  0  0
   21.2193  -21.7571  -16.1162 C   0  0  0  0  0  0  0  0  0  0  0  0
   22.1838  -20.5582  -16.1159 C   0  0  1  0  0  0  0  0  0  0  0  0
   21.4893  -19.5073  -15.3526 C   0  0  0  0  0  0  0  0  0  0  0  0
   21.8417  -19.2568  -14.1842 O   0  0  0  0  0  0  0  0  0  0  0  0
   20.4502  -18.7910  -15.9098 O   0  0  0  0  0  0  0  0  0  0  0  0
  2  1  1  0
  2  3  1  0
  3 11  1  0
  4  3  2  0
  5  6  1  0
  6  8  1  0
  7  6  2  0
  8  9  1  0
 10  9  1  1
 11 10  1  0
 12 10  1  0
 12 14  1  0
 13 12  2  0
 14 18  1  0
 15 14  1  0
 15 16  1  0
 16 17  1  0
 18 17  1  0
 18 19  1  1
 19 21  1  0
 20 19  2  0
M  END
$$$$
