GQP.pdb
     RDKit          3D

 21 21  0  0  1  0  0  0  0  0999 V2000
   23.8055  -13.2248  -16.2244 N   0  0  0  0  0  0  0  0  0  0  0  0
   24.0575  -12.1689  -15.2913 C   0  0  0  0  0  0  0  0  0  0  0  0
   23.3325  -10.9148  -15.7019 C   0  0  0  0  0  0  0  0  0  0  0  0
   23.7256  -10.3002  -16.7021 O   0  0  0  0  0  0  0  0  0  0  0  0
   17.8034  -10.5408  -13.9524 N   0  0  0  0  0  0  0  0  0  0  0  0
   18.2699  -11.2730  -15.0976 C   0  0  0  0  0  0  0  0  0  0  0  0
   17.6440  -12.3128  -15.3963 O   0  0  0  0  0  0  0  0  0  0  0  0
   19.4621  -10.7830  -15.8815 C   0  0  0  0  0  0  0  0  0  0  0  0
   19.9892   -9.5853  -15.1374 C   0  0  0  0  0  0  0  0  0  0  0  0
   21.4306   -9.3095  -15.2866 C   0  0  2  0  0  0  0  0  0  0  0  0
   22.2262  -10.4589  -14.9512 N   0  0  0  0  0  0  0  0  0  0  0  0
   21.9660   -8.0575  -14.7515 C   0  0  0  0  0  0  0  0  0  0  0  0
   22.4966   -8.1473  -13.5829 O   0  0  0  0  0  0  0  0  0  0  0  0
   21.9641   -6.7915  -15.3623 N   0  0  0  0  0  0  0  0  0  0  0  0
   21.4542   -6.6217  -16.7448 C   0  0  0  0  0  0  0  0  0  0  0  0
   22.2403   -5.4438  -17.2768 C   0  0  0  0  0  0  0  0  0  0  0  0
   22.1514   -4.5128  -16.0904 C   0  0  0  0  0  0  0  0  0  0  0  0
   22.3896   -5.4895  -14.9254 C   0  0  1  0  0  0  0  0  0  0  0  0
   21.6045   -4.9472  -13.8035 C   0  0  0  0  0  0  0  0  0  0  0  0
   20.4798   -5.4198  -13.5506 O   0  0  0  0  0  0  0  0  0  0  0  0
   22.0934   -3.9202  -13.0228 O   0  0  0  0  0  0  0  0  0  0  0  0
  2  1  1  0
  2  3  1  0
  3 11  1  0
  4  3  2  0
  5  6  1  0
  6  8  1  0
  7  6  2  0
  8  9  1  0
 10  9  1  1
 11 10  1  0
 12 10  1  0
 12 14  1  0
 13 12  2  0
 14 18  1  0
 15 14  1  0
 15 16  1  0
 16 17  1  0
 18 17  1  0
 18 19  1  1
 19 21  1  0
 20 19  2  0
M  END
$$$$
