GQP.pdb
     RDKit          3D

 21 21  0  0  1  0  0  0  0  0999 V2000
   38.5274   -4.4109   -7.8180 N   0  0  0  0  0  0  0  0  0  0  0  0
   38.8802   -5.5794   -8.5658 C   0  0  0  0  0  0  0  0  0  0  0  0
   39.6274   -6.5576   -7.6989 C   0  0  0  0  0  0  0  0  0  0  0  0
   40.2684   -6.1269   -6.7312 O   0  0  0  0  0  0  0  0  0  0  0  0
   38.1728  -12.4351   -6.6060 N   0  0  0  0  0  0  0  0  0  0  0  0
   37.6114  -11.2817   -5.9579 C   0  0  0  0  0  0  0  0  0  0  0  0
   36.5926  -11.4674   -5.2580 O   0  0  0  0  0  0  0  0  0  0  0  0
   38.2458   -9.9244   -6.1342 C   0  0  0  0  0  0  0  0  0  0  0  0
   39.4468  -10.1347   -7.0169 C   0  0  0  0  0  0  0  0  0  0  0  0
   40.2935   -8.9508   -7.2562 C   0  0  2  0  0  0  0  0  0  0  0  0
   39.5896   -7.9383   -7.9951 N   0  0  0  0  0  0  0  0  0  0  0  0
   41.6692   -9.1507   -7.7123 C   0  0  0  0  0  0  0  0  0  0  0  0
   41.8880   -8.8319   -8.9394 O   0  0  0  0  0  0  0  0  0  0  0  0
   42.7571   -9.6435   -6.9712 N   0  0  0  0  0  0  0  0  0  0  0  0
   42.6217   -9.9091   -5.5182 C   0  0  0  0  0  0  0  0  0  0  0  0
   44.0198   -9.6970   -4.9811 C   0  0  0  0  0  0  0  0  0  0  0  0
   44.8178  -10.4347   -6.0304 C   0  0  0  0  0  0  0  0  0  0  0  0
   44.1114   -9.9782   -7.3190 C   0  0  1  0  0  0  0  0  0  0  0  0
   44.2286  -11.1176   -8.2450 C   0  0  0  0  0  0  0  0  0  0  0  0
   43.2815  -11.9185   -8.3626 O   0  0  0  0  0  0  0  0  0  0  0  0
   45.3734  -11.3160   -8.9888 O   0  0  0  0  0  0  0  0  0  0  0  0
  2  1  1  0
  2  3  1  0
  3 11  1  0
  4  3  2  0
  5  6  1  0
  6  8  1  0
  7  6  2  0
  8  9  1  0
 10  9  1  6
 11 10  1  0
 12 10  1  0
 12 14  1  0
 13 12  2  0
 14 18  1  0
 15 14  1  0
 15 16  1  0
 16 17  1  0
 18 17  1  0
 18 19  1  6
 19 21  1  0
 20 19  2  0
M  END
$$$$
