GQP.pdb
     RDKit          3D

 21 21  0  0  1  0  0  0  0  0999 V2000
   15.6484  -11.0758  -15.6175 N   0  0  0  0  0  0  0  0  0  0  0  0
   15.7906   -9.6603  -15.7766 C   0  0  0  0  0  0  0  0  0  0  0  0
   17.2189   -9.2424  -15.5484 C   0  0  0  0  0  0  0  0  0  0  0  0
   17.6285   -9.1320  -14.3853 O   0  0  0  0  0  0  0  0  0  0  0  0
   21.3035   -9.7286  -20.0764 N   0  0  0  0  0  0  0  0  0  0  0  0
   22.1802   -9.0923  -19.1319 C   0  0  0  0  0  0  0  0  0  0  0  0
   23.3607   -8.9025  -19.4963 O   0  0  0  0  0  0  0  0  0  0  0  0
   21.6690   -8.6847  -17.7724 C   0  0  0  0  0  0  0  0  0  0  0  0
   20.2070   -9.0424  -17.7501 C   0  0  0  0  0  0  0  0  0  0  0  0
   19.4570   -8.6395  -16.5456 C   0  0  2  0  0  0  0  0  0  0  0  0
   18.0653   -8.9841  -16.6495 N   0  0  0  0  0  0  0  0  0  0  0  0
   19.6841   -7.3055  -15.9893 C   0  0  0  0  0  0  0  0  0  0  0  0
   18.9304   -6.3797  -16.4690 O   0  0  0  0  0  0  0  0  0  0  0  0
   20.6177   -6.9315  -15.0073 N   0  0  0  0  0  0  0  0  0  0  0  0
   21.4687   -7.9518  -14.3480 C   0  0  0  0  0  0  0  0  0  0  0  0
   21.7384   -7.3665  -12.9794 C   0  0  0  0  0  0  0  0  0  0  0  0
   22.0569   -5.9404  -13.3630 C   0  0  0  0  0  0  0  0  0  0  0  0
   20.9758   -5.6674  -14.4233 C   0  0  1  0  0  0  0  0  0  0  0  0
   21.5957   -4.7240  -15.3692 C   0  0  0  0  0  0  0  0  0  0  0  0
   21.7770   -3.5387  -15.0308 O   0  0  0  0  0  0  0  0  0  0  0  0
   21.9818   -5.1299  -16.6300 O   0  0  0  0  0  0  0  0  0  0  0  0
  2  1  1  0
  2  3  1  0
  3 11  1  0
  4  3  2  0
  5  6  1  0
  6  8  1  0
  7  6  2  0
  8  9  1  0
 10  9  1  6
 11 10  1  0
 12 10  1  0
 12 14  1  0
 13 12  2  0
 14 18  1  0
 15 14  1  0
 15 16  1  0
 16 17  1  0
 18 17  1  0
 18 19  1  6
 19 21  1  0
 20 19  2  0
M  END
$$$$
