GQP.pdb
     RDKit          3D

 21 21  0  0  1  0  0  0  0  0999 V2000
   16.8133  -11.9573  -13.7394 N   0  0  0  0  0  0  0  0  0  0  0  0
   17.5119  -11.1375  -12.7964 C   0  0  0  0  0  0  0  0  0  0  0  0
   16.6759   -9.9472  -12.4077 C   0  0  0  0  0  0  0  0  0  0  0  0
   15.7595   -9.5918  -13.1604 O   0  0  0  0  0  0  0  0  0  0  0  0
   13.5579   -8.5791   -8.5611 N   0  0  0  0  0  0  0  0  0  0  0  0
   14.0346   -7.2442   -8.3241 C   0  0  0  0  0  0  0  0  0  0  0  0
   13.2245   -6.4363   -7.8208 O   0  0  0  0  0  0  0  0  0  0  0  0
   15.4520   -6.8672   -8.6773 C   0  0  0  0  0  0  0  0  0  0  0  0
   16.0751   -8.0981   -9.2794 C   0  0  0  0  0  0  0  0  0  0  0  0
   16.2183   -8.1030  -10.7474 C   0  0  2  0  0  0  0  0  0  0  0  0
   16.9427   -9.2576  -11.2041 N   0  0  0  0  0  0  0  0  0  0  0  0
   16.6161   -6.8657  -11.4193 C   0  0  0  0  0  0  0  0  0  0  0  0
   17.8828   -6.6418  -11.4431 O   0  0  0  0  0  0  0  0  0  0  0  0
   15.7822   -5.9129  -12.0297 N   0  0  0  0  0  0  0  0  0  0  0  0
   14.3270   -6.1635  -12.1700 C   0  0  0  0  0  0  0  0  0  0  0  0
   13.9458   -5.3881  -13.4117 C   0  0  0  0  0  0  0  0  0  0  0  0
   14.6857   -4.0970  -13.1511 C   0  0  0  0  0  0  0  0  0  0  0  0
   16.0294   -4.6247  -12.6184 C   0  0  1  0  0  0  0  0  0  0  0  0
   16.4888   -3.6054  -11.6596 C   0  0  0  0  0  0  0  0  0  0  0  0
   16.4636   -3.8498  -10.4381 O   0  0  0  0  0  0  0  0  0  0  0  0
   16.9492   -2.3784  -12.0905 O   0  0  0  0  0  0  0  0  0  0  0  0
  2  1  1  0
  2  3  1  0
  3 11  1  0
  4  3  2  0
  5  6  1  0
  6  8  1  0
  7  6  2  0
  8  9  1  0
 10  9  1  1
 11 10  1  0
 12 10  1  0
 12 14  1  0
 13 12  2  0
 14 18  1  0
 15 14  1  0
 15 16  1  0
 16 17  1  0
 18 17  1  0
 18 19  1  1
 19 21  1  0
 20 19  2  0
M  END
$$$$
