GQP.pdb
     RDKit          3D

 21 21  0  0  1  0  0  0  0  0999 V2000
   22.6066  -26.9072  -15.6731 N   0  0  0  0  0  0  0  0  0  0  0  0
   23.8324  -26.4637  -15.0816 C   0  0  0  0  0  0  0  0  0  0  0  0
   24.0020  -24.9789  -15.2641 C   0  0  0  0  0  0  0  0  0  0  0  0
   23.1931  -24.3703  -15.9770 O   0  0  0  0  0  0  0  0  0  0  0  0
   25.7251  -21.0817  -11.0119 N   0  0  0  0  0  0  0  0  0  0  0  0
   24.3723  -21.4508  -11.3269 C   0  0  0  0  0  0  0  0  0  0  0  0
   23.4992  -21.1759  -10.4758 O   0  0  0  0  0  0  0  0  0  0  0  0
   24.0539  -22.1368  -12.6322 C   0  0  0  0  0  0  0  0  0  0  0  0
   25.3630  -22.2773  -13.3619 C   0  0  0  0  0  0  0  0  0  0  0  0
   25.2978  -22.8877  -14.7031 C   0  0  2  0  0  0  0  0  0  0  0  0
   25.0682  -24.3048  -14.6284 N   0  0  0  0  0  0  0  0  0  0  0  0
   26.3068  -22.5153  -15.6950 C   0  0  0  0  0  0  0  0  0  0  0  0
   27.4255  -23.1429  -15.5962 O   0  0  0  0  0  0  0  0  0  0  0  0
   26.1903  -21.5650  -16.7242 N   0  0  0  0  0  0  0  0  0  0  0  0
   24.9341  -20.7968  -16.9030 C   0  0  0  0  0  0  0  0  0  0  0  0
   24.9032  -20.4963  -18.3853 C   0  0  0  0  0  0  0  0  0  0  0  0
   26.3373  -20.0707  -18.5958 C   0  0  0  0  0  0  0  0  0  0  0  0
   27.0870  -21.1199  -17.7562 C   0  0  1  0  0  0  0  0  0  0  0  0
   28.2834  -20.4244  -17.2521 C   0  0  0  0  0  0  0  0  0  0  0  0
   29.2725  -20.2781  -17.9954 O   0  0  0  0  0  0  0  0  0  0  0  0
   28.3300  -19.9290  -15.9654 O   0  0  0  0  0  0  0  0  0  0  0  0
  2  1  1  0
  2  3  1  0
  3 11  1  0
  4  3  2  0
  5  6  1  0
  6  8  1  0
  7  6  2  0
  8  9  1  0
 10  9  1  1
 11 10  1  0
 12 10  1  0
 12 14  1  0
 13 12  2  0
 14 18  1  0
 15 14  1  0
 15 16  1  0
 16 17  1  0
 18 17  1  0
 18 19  1  1
 19 21  1  0
 20 19  2  0
M  END
$$$$
