GQP.pdb
     RDKit          3D

 21 21  0  0  1  0  0  0  0  0999 V2000
   19.9626  -19.4652  -14.3468 N   0  0  0  0  0  0  0  0  0  0  0  0
   20.9505  -20.3350  -14.9097 C   0  0  0  0  0  0  0  0  0  0  0  0
   22.3242  -19.9664  -14.4158 C   0  0  0  0  0  0  0  0  0  0  0  0
   22.7658  -18.8383  -14.6709 O   0  0  0  0  0  0  0  0  0  0  0  0
   24.7908  -20.4857   -9.6617 N   0  0  0  0  0  0  0  0  0  0  0  0
   26.0906  -20.6946  -10.2380 C   0  0  0  0  0  0  0  0  0  0  0  0
   27.0751  -20.3414   -9.5537 O   0  0  0  0  0  0  0  0  0  0  0  0
   26.2267  -21.3134  -11.6071 C   0  0  0  0  0  0  0  0  0  0  0  0
   24.8252  -21.4998  -12.1237 C   0  0  0  0  0  0  0  0  0  0  0  0
   24.4704  -20.7332  -13.3329 C   0  0  2  0  0  0  0  0  0  0  0  0
   23.0844  -20.8995  -13.6764 N   0  0  0  0  0  0  0  0  0  0  0  0
   25.3652  -20.7896  -14.4890 C   0  0  0  0  0  0  0  0  0  0  0  0
   25.1063  -21.7253  -15.3331 O   0  0  0  0  0  0  0  0  0  0  0  0
   26.4559  -19.9497  -14.7731 N   0  0  0  0  0  0  0  0  0  0  0  0
   26.8168  -18.8443  -13.8524 C   0  0  0  0  0  0  0  0  0  0  0  0
   27.4492  -17.8117  -14.7591 C   0  0  0  0  0  0  0  0  0  0  0  0
   28.3359  -18.7052  -15.5944 C   0  0  0  0  0  0  0  0  0  0  0  0
   27.3971  -19.8954  -15.8587 C   0  0  1  0  0  0  0  0  0  0  0  0
   28.2815  -21.0699  -15.9450 C   0  0  0  0  0  0  0  0  0  0  0  0
   28.3741  -21.8465  -14.9752 O   0  0  0  0  0  0  0  0  0  0  0  0
   29.0135  -21.3281  -17.0855 O   0  0  0  0  0  0  0  0  0  0  0  0
  2  1  1  0
  2  3  1  0
  3 11  1  0
  4  3  2  0
  5  6  1  0
  6  8  1  0
  7  6  2  0
  8  9  1  0
 10  9  1  1
 11 10  1  0
 12 10  1  0
 12 14  1  0
 13 12  2  0
 14 18  1  0
 15 14  1  0
 15 16  1  0
 16 17  1  0
 18 17  1  0
 18 19  1  1
 19 21  1  0
 20 19  2  0
M  END
$$$$
