GQP.pdb
     RDKit          3D

 21 21  0  0  1  0  0  0  0  0999 V2000
   26.0504  -22.9603  -12.1685 N   0  0  0  0  0  0  0  0  0  0  0  0
   25.7721  -21.5625  -12.3026 C   0  0  0  0  0  0  0  0  0  0  0  0
   24.3076  -21.3371  -12.5691 C   0  0  0  0  0  0  0  0  0  0  0  0
   23.6437  -22.2578  -13.0634 O   0  0  0  0  0  0  0  0  0  0  0  0
   23.3079  -20.2389   -9.6989 N   0  0  0  0  0  0  0  0  0  0  0  0
   21.8918  -20.4210   -9.5351 C   0  0  0  0  0  0  0  0  0  0  0  0
   21.5234  -21.1912   -8.6223 O   0  0  0  0  0  0  0  0  0  0  0  0
   20.9214  -19.7018  -10.4390 C   0  0  0  0  0  0  0  0  0  0  0  0
   21.7587  -18.9500  -11.4388 C   0  0  0  0  0  0  0  0  0  0  0  0
   22.3452  -19.7513  -12.5295 C   0  0  2  0  0  0  0  0  0  0  0  0
   23.7144  -20.0937  -12.2564 N   0  0  0  0  0  0  0  0  0  0  0  0
   22.1174  -19.3306  -13.9121 C   0  0  0  0  0  0  0  0  0  0  0  0
   22.9952  -18.5182  -14.3860 O   0  0  0  0  0  0  0  0  0  0  0  0
   21.0646  -19.7092  -14.7630 N   0  0  0  0  0  0  0  0  0  0  0  0
   20.0919  -20.7475  -14.3438 C   0  0  0  0  0  0  0  0  0  0  0  0
   19.6467  -21.3720  -15.6477 C   0  0  0  0  0  0  0  0  0  0  0  0
   19.4370  -20.1262  -16.4761 C   0  0  0  0  0  0  0  0  0  0  0  0
   20.6695  -19.2937  -16.0816 C   0  0  1  0  0  0  0  0  0  0  0  0
   20.2267  -17.8913  -16.1609 C   0  0  0  0  0  0  0  0  0  0  0  0
   20.0213  -17.2478  -15.1140 O   0  0  0  0  0  0  0  0  0  0  0  0
   20.0340  -17.2731  -17.3791 O   0  0  0  0  0  0  0  0  0  0  0  0
  2  1  1  0
  2  3  1  0
  3 11  1  0
  4  3  2  0
  5  6  1  0
  6  8  1  0
  7  6  2  0
  8  9  1  0
 10  9  1  1
 11 10  1  0
 12 10  1  0
 12 14  1  0
 13 12  2  0
 14 18  1  0
 15 14  1  0
 15 16  1  0
 16 17  1  0
 18 17  1  0
 18 19  1  1
 19 21  1  0
 20 19  2  0
M  END
$$$$
