GQP.pdb
     RDKit          3D

 21 21  0  0  1  0  0  0  0  0999 V2000
   19.9302  -20.6838  -15.0576 N   0  0  0  0  0  0  0  0  0  0  0  0
   21.0167  -21.6106  -14.9580 C   0  0  0  0  0  0  0  0  0  0  0  0
   22.3083  -20.8856  -14.6879 C   0  0  0  0  0  0  0  0  0  0  0  0
   22.3680  -19.6703  -14.9162 O   0  0  0  0  0  0  0  0  0  0  0  0
   26.2127  -21.5670  -10.1632 N   0  0  0  0  0  0  0  0  0  0  0  0
   24.9100  -20.9611  -10.2000 C   0  0  0  0  0  0  0  0  0  0  0  0
   24.3828  -20.6884   -9.1001 O   0  0  0  0  0  0  0  0  0  0  0  0
   24.2371  -20.6805  -11.5208 C   0  0  0  0  0  0  0  0  0  0  0  0
   25.1777  -21.1800  -12.5846 C   0  0  0  0  0  0  0  0  0  0  0  0
   24.7265  -21.0186  -13.9796 C   0  0  2  0  0  0  0  0  0  0  0  0
   23.4235  -21.5907  -14.1833 N   0  0  0  0  0  0  0  0  0  0  0  0
   25.6658  -21.3157  -15.0613 C   0  0  0  0  0  0  0  0  0  0  0  0
   25.4979  -22.4572  -15.6304 O   0  0  0  0  0  0  0  0  0  0  0  0
   26.7116  -20.5063  -15.5376 N   0  0  0  0  0  0  0  0  0  0  0  0
   26.9431  -19.1580  -14.9644 C   0  0  0  0  0  0  0  0  0  0  0  0
   27.5552  -18.3801  -16.1084 C   0  0  0  0  0  0  0  0  0  0  0  0
   28.5470  -19.3999  -16.6169 C   0  0  0  0  0  0  0  0  0  0  0  0
   27.7078  -20.6883  -16.5582 C   0  0  1  0  0  0  0  0  0  0  0  0
   28.6733  -21.7623  -16.2690 C   0  0  0  0  0  0  0  0  0  0  0  0
   28.7859  -22.1957  -15.1064 O   0  0  0  0  0  0  0  0  0  0  0  0
   29.4599  -22.3005  -17.2664 O   0  0  0  0  0  0  0  0  0  0  0  0
  2  1  1  0
  2  3  1  0
  3 11  1  0
  4  3  2  0
  5  6  1  0
  6  8  1  0
  7  6  2  0
  8  9  1  0
 10  9  1  1
 11 10  1  0
 12 10  1  0
 12 14  1  0
 13 12  2  0
 14 18  1  0
 15 14  1  0
 15 16  1  0
 16 17  1  0
 18 17  1  0
 18 19  1  1
 19 21  1  0
 20 19  2  0
M  END
$$$$
