KFG.pdb
     RDKit          3D

 25 25  0  0  1  0  0  0  0  0999 V2000
   27.9131  -20.4225  -16.0278 N   0  0  0  0  0  0  0  0  0  0  0  0
   27.5895  -21.6395  -15.3375 C   0  0  1  0  0  0  0  0  0  0  0  0
   26.3617  -21.5437  -14.4948 C   0  0  0  0  0  0  0  0  0  0  0  0
   25.1512  -21.0123  -15.1862 C   0  0  0  0  0  0  0  0  0  0  0  0
   23.8942  -21.0268  -14.3788 C   0  0  0  0  0  0  0  0  0  0  0  0
   22.7135  -20.5991  -15.2111 C   0  0  0  0  0  0  0  0  0  0  0  0
   21.5019  -20.6627  -14.4284 N   0  0  0  0  0  0  0  0  0  0  0  0
   27.4504  -22.7350  -16.3291 C   0  0  0  0  0  0  0  0  0  0  0  0
   27.2433  -22.4474  -17.5204 O   0  0  0  0  0  0  0  0  0  0  0  0
   27.5411  -24.1028  -15.9941 N   0  0  0  0  0  0  0  0  0  0  0  0
   27.4627  -25.1045  -17.0057 C   0  0  1  0  0  0  0  0  0  0  0  0
   28.4780  -26.1999  -16.7792 C   0  0  0  0  0  0  0  0  0  0  0  0
   29.8704  -25.7453  -16.7848 C   0  0  0  0  0  0  0  0  0  0  0  0
   30.7229  -25.8142  -15.7098 C   0  0  0  0  0  0  0  0  0  0  0  0
   32.0171  -25.3744  -15.7845 C   0  0  0  0  0  0  0  0  0  0  0  0
   32.4911  -24.8503  -16.9494 C   0  0  0  0  0  0  0  0  0  0  0  0
   31.6760  -24.7593  -18.0559 C   0  0  0  0  0  0  0  0  0  0  0  0
   30.3826  -25.2084  -17.9515 C   0  0  0  0  0  0  0  0  0  0  0  0
   26.0869  -25.5777  -17.1404 C   0  0  0  0  0  0  0  0  0  0  0  0
   25.3477  -25.9050  -16.1674 O   0  0  0  0  0  0  0  0  0  0  0  0
   25.5081  -25.6896  -18.4396 N   0  0  0  0  0  0  0  0  0  0  0  0
   24.1240  -26.0907  -18.5851 C   0  0  0  0  0  0  0  0  0  0  0  0
   23.6527  -25.9687  -19.9836 C   0  0  0  0  0  0  0  0  0  0  0  0
   24.3620  -25.5311  -20.9241 O   0  0  0  0  0  0  0  0  0  0  0  0
   22.3572  -26.3548  -20.2912 O   0  0  0  0  0  0  0  0  0  0  0  0
  2  3  1  0
  2  1  1  6
  4  3  1  0
  5  4  1  0
  6  7  1  0
  6  5  1  0
  8  2  1  0
  9  8  2  0
 10  8  1  0
 11 10  1  0
 11 12  1  1
 12 13  1  0
 13 18  2  0
 14 13  1  0
 14 15  2  0
 15 16  1  0
 16 17  2  0
 18 17  1  0
 19 20  2  0
 19 11  1  0
 21 19  1  0
 22 21  1  0
 23 22  1  0
 23 25  1  0
 24 23  2  0
M  END
$$$$
