KFG.pdb
     RDKit          3D

 25 25  0  0  1  0  0  0  0  0999 V2000
   27.8139  -21.1334  -13.3417 N   0  0  0  0  0  0  0  0  0  0  0  0
   27.3433  -20.0110  -12.5794 C   0  0  1  0  0  0  0  0  0  0  0  0
   26.0695  -19.4278  -13.0931 C   0  0  0  0  0  0  0  0  0  0  0  0
   26.1539  -18.7939  -14.4409 C   0  0  0  0  0  0  0  0  0  0  0  0
   26.1656  -19.7423  -15.5953 C   0  0  0  0  0  0  0  0  0  0  0  0
   26.3867  -19.0097  -16.8931 C   0  0  0  0  0  0  0  0  0  0  0  0
   26.5866  -19.9509  -17.9696 N   0  0  0  0  0  0  0  0  0  0  0  0
   27.1880  -20.4212  -11.1614 C   0  0  0  0  0  0  0  0  0  0  0  0
   27.1763  -21.6321  -10.8817 O   0  0  0  0  0  0  0  0  0  0  0  0
   27.0512  -19.5041  -10.0976 N   0  0  0  0  0  0  0  0  0  0  0  0
   27.1360  -19.9448   -8.7443 C   0  0  1  0  0  0  0  0  0  0  0  0
   27.7124  -18.8733   -7.8489 C   0  0  0  0  0  0  0  0  0  0  0  0
   28.0023  -19.3169   -6.4834 C   0  0  0  0  0  0  0  0  0  0  0  0
   27.2955  -18.9377   -5.3681 C   0  0  0  0  0  0  0  0  0  0  0  0
   27.6177  -19.3944   -4.1185 C   0  0  0  0  0  0  0  0  0  0  0  0
   28.6658  -20.2497   -3.9564 C   0  0  0  0  0  0  0  0  0  0  0  0
   29.4058  -20.6599   -5.0431 C   0  0  0  0  0  0  0  0  0  0  0  0
   29.0595  -20.1856   -6.2842 C   0  0  0  0  0  0  0  0  0  0  0  0
   25.8449  -20.4674   -8.3030 C   0  0  0  0  0  0  0  0  0  0  0  0
   25.6207  -20.9292   -7.1468 O   0  0  0  0  0  0  0  0  0  0  0  0
   24.7435  -20.4719   -9.2099 N   0  0  0  0  0  0  0  0  0  0  0  0
   23.4496  -20.9583   -8.7773 C   0  0  0  0  0  0  0  0  0  0  0  0
   22.4159  -20.7997   -9.8257 C   0  0  0  0  0  0  0  0  0  0  0  0
   22.6657  -20.4446  -11.0050 O   0  0  0  0  0  0  0  0  0  0  0  0
   21.0910  -21.0532   -9.5056 O   0  0  0  0  0  0  0  0  0  0  0  0
  2  3  1  0
  2  1  1  6
  4  3  1  0
  5  4  1  0
  6  7  1  0
  6  5  1  0
  8  2  1  0
  9  8  2  0
 10  8  1  0
 11 10  1  0
 11 12  1  1
 12 13  1  0
 13 18  2  0
 14 13  1  0
 14 15  2  0
 15 16  1  0
 16 17  2  0
 18 17  1  0
 19 20  2  0
 19 11  1  0
 21 19  1  0
 22 21  1  0
 23 22  1  0
 23 25  1  0
 24 23  2  0
M  END
$$$$
