KFG.pdb
     RDKit          3D

 25 25  0  0  1  0  0  0  0  0999 V2000
   20.9323  -30.1741  -12.6789 N   0  0  0  0  0  0  0  0  0  0  0  0
   21.3735  -31.5407  -12.6779 C   0  0  1  0  0  0  0  0  0  0  0  0
   20.6262  -32.4138  -13.6298 C   0  0  0  0  0  0  0  0  0  0  0  0
   19.1787  -32.6030  -13.3226 C   0  0  0  0  0  0  0  0  0  0  0  0
   18.4684  -33.6038  -14.1747 C   0  0  0  0  0  0  0  0  0  0  0  0
   17.0186  -33.7158  -13.7806 C   0  0  0  0  0  0  0  0  0  0  0  0
   16.3678  -34.7431  -14.5589 N   0  0  0  0  0  0  0  0  0  0  0  0
   22.8272  -31.5793  -12.9752 C   0  0  0  0  0  0  0  0  0  0  0  0
   23.4964  -30.5396  -12.8484 O   0  0  0  0  0  0  0  0  0  0  0  0
   23.5033  -32.7432  -13.3988 N   0  0  0  0  0  0  0  0  0  0  0  0
   24.9282  -32.7948  -13.4002 C   0  0  1  0  0  0  0  0  0  0  0  0
   25.4490  -33.7235  -12.3286 C   0  0  0  0  0  0  0  0  0  0  0  0
   25.5716  -33.1109  -11.0038 C   0  0  0  0  0  0  0  0  0  0  0  0
   26.6595  -32.3941  -10.5681 C   0  0  0  0  0  0  0  0  0  0  0  0
   26.7075  -31.8430   -9.3160 C   0  0  0  0  0  0  0  0  0  0  0  0
   25.6560  -31.9991   -8.4636 C   0  0  0  0  0  0  0  0  0  0  0  0
   24.5420  -32.7091   -8.8529 C   0  0  0  0  0  0  0  0  0  0  0  0
   24.5220  -33.2505  -10.1146 C   0  0  0  0  0  0  0  0  0  0  0  0
   25.4201  -33.0904  -14.7439 C   0  0  0  0  0  0  0  0  0  0  0  0
   26.6082  -33.4353  -15.0077 O   0  0  0  0  0  0  0  0  0  0  0  0
   24.5287  -32.9938  -15.8537 N   0  0  0  0  0  0  0  0  0  0  0  0
   24.9695  -33.3914  -17.1749 C   0  0  0  0  0  0  0  0  0  0  0  0
   23.9455  -33.1185  -18.2092 C   0  0  0  0  0  0  0  0  0  0  0  0
   22.8180  -32.6217  -17.9620 O   0  0  0  0  0  0  0  0  0  0  0  0
   24.2300  -33.4223  -19.5316 O   0  0  0  0  0  0  0  0  0  0  0  0
  2  3  1  0
  2  1  1  6
  4  3  1  0
  5  4  1  0
  6  7  1  0
  6  5  1  0
  8  2  1  0
  9  8  2  0
 10  8  1  0
 11 10  1  0
 11 12  1  1
 12 13  1  0
 13 18  2  0
 14 13  1  0
 14 15  2  0
 15 16  1  0
 16 17  2  0
 18 17  1  0
 19 20  2  0
 19 11  1  0
 21 19  1  0
 22 21  1  0
 23 22  1  0
 23 25  1  0
 24 23  2  0
M  END
$$$$
