KFG.pdb
     RDKit          3D

 25 25  0  0  1  0  0  0  0  0999 V2000
   27.3128  -33.6283   -9.6542 N   0  0  0  0  0  0  0  0  0  0  0  0
   27.0958  -32.8583   -8.4616 C   0  0  1  0  0  0  0  0  0  0  0  0
   25.6671  -32.8026   -8.0345 C   0  0  0  0  0  0  0  0  0  0  0  0
   24.6956  -32.4178   -9.0992 C   0  0  0  0  0  0  0  0  0  0  0  0
   23.2602  -32.4108   -8.6846 C   0  0  0  0  0  0  0  0  0  0  0  0
   22.3672  -32.0361   -9.8388 C   0  0  0  0  0  0  0  0  0  0  0  0
   20.9834  -32.0618   -9.4278 N   0  0  0  0  0  0  0  0  0  0  0  0
   27.9391  -33.4084   -7.3712 C   0  0  0  0  0  0  0  0  0  0  0  0
   28.4838  -34.5143   -7.5296 O   0  0  0  0  0  0  0  0  0  0  0  0
   28.1621  -32.7400   -6.1485 N   0  0  0  0  0  0  0  0  0  0  0  0
   29.0481  -33.2862   -5.1740 C   0  0  1  0  0  0  0  0  0  0  0  0
   30.2282  -32.3759   -4.9275 C   0  0  0  0  0  0  0  0  0  0  0  0
   31.2006  -32.3357   -6.0221 C   0  0  0  0  0  0  0  0  0  0  0  0
   31.1766  -31.4369   -7.0608 C   0  0  0  0  0  0  0  0  0  0  0  0
   32.1213  -31.4519   -8.0514 C   0  0  0  0  0  0  0  0  0  0  0  0
   33.1213  -32.3769   -8.0235 C   0  0  0  0  0  0  0  0  0  0  0  0
   33.1895  -33.2998   -7.0034 C   0  0  0  0  0  0  0  0  0  0  0  0
   32.2283  -33.2607   -6.0236 C   0  0  0  0  0  0  0  0  0  0  0  0
   28.3075  -33.6511   -3.9685 C   0  0  0  0  0  0  0  0  0  0  0  0
   27.3624  -32.9676   -3.4786 O   0  0  0  0  0  0  0  0  0  0  0  0
   28.6463  -34.8504   -3.2738 N   0  0  0  0  0  0  0  0  0  0  0  0
   27.9490  -35.2041   -2.0545 C   0  0  0  0  0  0  0  0  0  0  0  0
   28.4326  -36.4838   -1.4876 C   0  0  0  0  0  0  0  0  0  0  0  0
   29.3070  -37.2032   -2.0325 O   0  0  0  0  0  0  0  0  0  0  0  0
   27.9011  -36.9292   -0.2871 O   0  0  0  0  0  0  0  0  0  0  0  0
  2  3  1  0
  2  1  1  6
  4  3  1  0
  5  4  1  0
  6  7  1  0
  6  5  1  0
  8  2  1  0
  9  8  2  0
 10  8  1  0
 11 10  1  0
 11 12  1  1
 12 13  1  0
 13 18  2  0
 14 13  1  0
 14 15  2  0
 15 16  1  0
 16 17  2  0
 18 17  1  0
 19 20  2  0
 19 11  1  0
 21 19  1  0
 22 21  1  0
 23 22  1  0
 23 25  1  0
 24 23  2  0
M  END
$$$$
