KFG.pdb
     RDKit          3D

 25 25  0  0  1  0  0  0  0  0999 V2000
   21.7003  -20.0527  -12.7758 N   0  0  0  0  0  0  0  0  0  0  0  0
   22.4668  -20.4609  -13.9195 C   0  0  1  0  0  0  0  0  0  0  0  0
   21.9979  -19.8599  -15.2024 C   0  0  0  0  0  0  0  0  0  0  0  0
   20.9147  -20.6101  -15.9020 C   0  0  0  0  0  0  0  0  0  0  0  0
   21.1019  -22.0909  -15.9700 C   0  0  0  0  0  0  0  0  0  0  0  0
   19.9941  -22.7389  -16.7592 C   0  0  0  0  0  0  0  0  0  0  0  0
   20.1999  -24.1663  -16.8286 N   0  0  0  0  0  0  0  0  0  0  0  0
   23.8950  -20.1307  -13.6869 C   0  0  0  0  0  0  0  0  0  0  0  0
   24.2082  -18.9555  -13.4305 O   0  0  0  0  0  0  0  0  0  0  0  0
   24.9323  -21.0860  -13.7401 N   0  0  0  0  0  0  0  0  0  0  0  0
   26.2794  -20.7107  -13.4616 C   0  0  1  0  0  0  0  0  0  0  0  0
   26.8127  -21.4279  -12.2437 C   0  0  0  0  0  0  0  0  0  0  0  0
   26.1202  -21.0986  -10.9957 C   0  0  0  0  0  0  0  0  0  0  0  0
   26.4608  -20.0641  -10.1584 C   0  0  0  0  0  0  0  0  0  0  0  0
   25.7667  -19.8082   -9.0066 C   0  0  0  0  0  0  0  0  0  0  0  0
   24.7051  -20.5906   -8.6643 C   0  0  0  0  0  0  0  0  0  0  0  0
   24.3236  -21.6402   -9.4703 C   0  0  0  0  0  0  0  0  0  0  0  0
   25.0384  -21.8730  -10.6193 C   0  0  0  0  0  0  0  0  0  0  0  0
   27.1027  -20.8641  -14.6589 C   0  0  0  0  0  0  0  0  0  0  0  0
   28.3599  -20.7260  -14.6814 O   0  0  0  0  0  0  0  0  0  0  0  0
   26.4803  -21.1910  -15.9004 N   0  0  0  0  0  0  0  0  0  0  0  0
   27.2883  -21.3985  -17.0845 C   0  0  0  0  0  0  0  0  0  0  0  0
   27.5181  -20.1395  -17.8295 C   0  0  0  0  0  0  0  0  0  0  0  0
   26.6413  -19.5706  -18.5271 O   0  0  0  0  0  0  0  0  0  0  0  0
   28.7665  -19.5400  -17.7651 O   0  0  0  0  0  0  0  0  0  0  0  0
  2  3  1  0
  2  1  1  1
  4  3  1  0
  5  4  1  0
  6  7  1  0
  6  5  1  0
  8  2  1  0
  9  8  2  0
 10  8  1  0
 11 10  1  0
 11 12  1  1
 12 13  1  0
 13 18  2  0
 14 13  1  0
 14 15  2  0
 15 16  1  0
 16 17  2  0
 18 17  1  0
 19 20  2  0
 19 11  1  0
 21 19  1  0
 22 21  1  0
 23 22  1  0
 23 25  1  0
 24 23  2  0
M  END
$$$$
