KFG.pdb
     RDKit          3D

 25 25  0  0  1  0  0  0  0  0999 V2000
   27.5342  -22.1189  -15.5955 N   0  0  0  0  0  0  0  0  0  0  0  0
   26.1965  -21.7148  -15.2642 C   0  0  1  0  0  0  0  0  0  0  0  0
   25.1407  -22.5715  -15.8791 C   0  0  0  0  0  0  0  0  0  0  0  0
   24.6588  -22.1293  -17.2199 C   0  0  0  0  0  0  0  0  0  0  0  0
   23.8866  -20.8504  -17.2334 C   0  0  0  0  0  0  0  0  0  0  0  0
   23.2925  -20.5933  -18.5938 C   0  0  0  0  0  0  0  0  0  0  0  0
   23.3177  -19.1805  -18.8904 N   0  0  0  0  0  0  0  0  0  0  0  0
   26.0496  -21.6952  -13.7873 C   0  0  0  0  0  0  0  0  0  0  0  0
   26.0380  -22.7728  -13.1682 O   0  0  0  0  0  0  0  0  0  0  0  0
   25.9208  -20.5085  -13.0347 N   0  0  0  0  0  0  0  0  0  0  0  0
   25.7651  -20.5607  -11.6185 C   0  0  1  0  0  0  0  0  0  0  0  0
   26.5816  -19.4907  -10.9325 C   0  0  0  0  0  0  0  0  0  0  0  0
   27.2516  -19.9328   -9.7073 C   0  0  0  0  0  0  0  0  0  0  0  0
   26.8588  -19.5993   -8.4339 C   0  0  0  0  0  0  0  0  0  0  0  0
   27.5290  -20.0516   -7.3292 C   0  0  0  0  0  0  0  0  0  0  0  0
   28.6185  -20.8563   -7.4769 C   0  0  0  0  0  0  0  0  0  0  0  0
   29.0522  -21.2194   -8.7326 C   0  0  0  0  0  0  0  0  0  0  0  0
   28.3605  -20.7506   -9.8222 C   0  0  0  0  0  0  0  0  0  0  0  0
   24.3468  -20.5533  -11.2671 C   0  0  0  0  0  0  0  0  0  0  0  0
   23.9067  -20.5529  -10.0811 O   0  0  0  0  0  0  0  0  0  0  0  0
   23.3677  -20.5456  -12.3048 N   0  0  0  0  0  0  0  0  0  0  0  0
   21.9624  -20.4249  -11.9752 C   0  0  0  0  0  0  0  0  0  0  0  0
   21.1615  -21.5374  -12.5353 C   0  0  0  0  0  0  0  0  0  0  0  0
   21.6315  -22.4261  -13.2892 O   0  0  0  0  0  0  0  0  0  0  0  0
   19.8138  -21.6189  -12.2203 O   0  0  0  0  0  0  0  0  0  0  0  0
  2  3  1  0
  2  1  1  1
  4  3  1  0
  5  4  1  0
  6  7  1  0
  6  5  1  0
  8  2  1  0
  9  8  2  0
 10  8  1  0
 11 10  1  0
 11 12  1  1
 12 13  1  0
 13 18  2  0
 14 13  1  0
 14 15  2  0
 15 16  1  0
 16 17  2  0
 18 17  1  0
 19 20  2  0
 19 11  1  0
 21 19  1  0
 22 21  1  0
 23 22  1  0
 23 25  1  0
 24 23  2  0
M  END
$$$$
