KFG.pdb
     RDKit          3D

 25 25  0  0  1  0  0  0  0  0999 V2000
   21.8125  -20.3327  -11.6927 N   0  0  0  0  0  0  0  0  0  0  0  0
   22.8126  -21.1587  -12.3088 C   0  0  1  0  0  0  0  0  0  0  0  0
   22.6082  -21.3578  -13.7735 C   0  0  0  0  0  0  0  0  0  0  0  0
   21.9070  -22.6177  -14.1561 C   0  0  0  0  0  0  0  0  0  0  0  0
   22.7882  -23.7129  -14.6625 C   0  0  0  0  0  0  0  0  0  0  0  0
   21.9802  -24.9326  -15.0221 C   0  0  0  0  0  0  0  0  0  0  0  0
   22.8387  -25.9564  -15.5692 N   0  0  0  0  0  0  0  0  0  0  0  0
   24.1509  -20.5714  -12.0498 C   0  0  0  0  0  0  0  0  0  0  0  0
   24.2693  -19.3348  -12.0101 O   0  0  0  0  0  0  0  0  0  0  0  0
   25.3126  -21.3455  -11.8430 N   0  0  0  0  0  0  0  0  0  0  0  0
   26.5921  -20.7233  -11.7509 C   0  0  1  0  0  0  0  0  0  0  0  0
   27.4195  -21.3223  -10.6379 C   0  0  0  0  0  0  0  0  0  0  0  0
   27.1662  -20.7434   -9.3165 C   0  0  0  0  0  0  0  0  0  0  0  0
   25.9443  -20.7247   -8.6889 C   0  0  0  0  0  0  0  0  0  0  0  0
   25.7775  -20.1700   -7.4485 C   0  0  0  0  0  0  0  0  0  0  0  0
   26.8416  -19.6160   -6.8026 C   0  0  0  0  0  0  0  0  0  0  0  0
   28.0876  -19.6097   -7.3894 C   0  0  0  0  0  0  0  0  0  0  0  0
   28.2249  -20.1732   -8.6339 C   0  0  0  0  0  0  0  0  0  0  0  0
   27.2482  -20.7255  -13.0565 C   0  0  0  0  0  0  0  0  0  0  0  0
   27.4052  -21.7560  -13.7732 O   0  0  0  0  0  0  0  0  0  0  0  0
   27.7565  -19.5027  -13.5875 N   0  0  0  0  0  0  0  0  0  0  0  0
   28.4390  -19.4948  -14.8650 C   0  0  0  0  0  0  0  0  0  0  0  0
   27.5425  -19.0928  -15.9730 C   0  0  0  0  0  0  0  0  0  0  0  0
   26.3595  -19.4983  -16.0965 O   0  0  0  0  0  0  0  0  0  0  0  0
   28.0190  -18.2195  -16.9385 O   0  0  0  0  0  0  0  0  0  0  0  0
  2  3  1  0
  2  1  1  6
  4  3  1  0
  5  4  1  0
  6  7  1  0
  6  5  1  0
  8  2  1  0
  9  8  2  0
 10  8  1  0
 11 10  1  0
 11 12  1  1
 12 13  1  0
 13 18  2  0
 14 13  1  0
 14 15  2  0
 15 16  1  0
 16 17  2  0
 18 17  1  0
 19 20  2  0
 19 11  1  0
 21 19  1  0
 22 21  1  0
 23 22  1  0
 23 25  1  0
 24 23  2  0
M  END
$$$$
