GYQ.pdb
     RDKit          3D

 26 26  0  0  1  0  0  0  0  0999 V2000
    6.1396  -21.4872   23.0771 N   0  0  0  0  0  0  0  0  0  0  0  0
    5.8185  -20.2175   23.6989 C   0  0  0  0  0  0  0  0  0  0  0  0
    6.5631  -19.1235   23.0154 C   0  0  0  0  0  0  0  0  0  0  0  0
    7.3682  -19.4028   22.0903 O   0  0  0  0  0  0  0  0  0  0  0  0
    8.5582  -11.7559   18.9999 O   0  0  0  0  0  0  0  0  0  0  0  0
    8.0219  -12.6769   19.9067 C   0  0  0  0  0  0  0  0  0  0  0  0
    8.0540  -12.3655   21.2477 C   0  0  0  0  0  0  0  0  0  0  0  0
    7.5152  -13.2988   22.1142 C   0  0  0  0  0  0  0  0  0  0  0  0
    6.9685  -14.4864   21.6840 C   0  0  0  0  0  0  0  0  0  0  0  0
    6.4055  -15.4555   22.6242 C   0  0  0  0  0  0  0  0  0  0  0  0
    7.2107  -16.7196   22.7469 C   0  0  2  0  0  0  0  0  0  0  0  0
    6.4079  -17.7583   23.3608 N   0  0  0  0  0  0  0  0  0  0  0  0
    8.5042  -16.5293   23.4243 C   0  0  0  0  0  0  0  0  0  0  0  0
    9.1310  -15.4626   23.2001 O   0  0  0  0  0  0  0  0  0  0  0  0
    6.9537  -14.7642   20.3358 C   0  0  0  0  0  0  0  0  0  0  0  0
    7.4877  -13.8467   19.4347 C   0  0  0  0  0  0  0  0  0  0  0  0
    9.9840  -19.5549   28.7098 N   0  0  0  0  0  0  0  0  0  0  0  0
    9.0034  -18.5740   28.3540 C   0  0  0  0  0  0  0  0  0  0  0  0
    7.9544  -18.3858   29.0696 O   0  0  0  0  0  0  0  0  0  0  0  0
    9.1411  -17.7200   27.1552 C   0  0  0  0  0  0  0  0  0  0  0  0
   10.3306  -17.9845   26.3061 C   0  0  0  0  0  0  0  0  0  0  0  0
   10.3562  -17.2319   25.0314 C   0  0  2  0  0  0  0  0  0  0  0  0
    9.0876  -17.4610   24.3065 N   0  0  0  0  0  0  0  0  0  0  0  0
   11.4242  -17.5025   24.1077 C   0  0  0  0  0  0  0  0  0  0  0  0
   11.1965  -17.9906   22.8347 O   0  0  0  0  0  0  0  0  0  0  0  0
   12.6265  -17.3156   24.4216 O   0  0  0  0  0  0  0  0  0  0  0  0
  1  2  1  0
  2  3  1  0
  3  4  2  0
  6  7  2  0
  6  5  1  0
  8  7  1  0
  9  8  2  0
 11 10  1  1
 10  9  1  0
 12 11  1  0
 12  3  1  0
 13 11  1  0
 14 13  2  0
 15  9  1  0
 15 16  2  0
 16  6  1  0
 18 19  2  0
 18 17  1  0
 20 18  1  0
 21 20  1  0
 22 21  1  1
 22 23  1  0
 23 13  1  0
 24 25  1  0
 24 22  1  0
 26 24  2  0
M  END
$$$$
