GYQ.pdb
     RDKit          3D

 26 26  0  0  1  0  0  0  0  0999 V2000
    7.6681  -12.7674   19.3577 N   0  0  0  0  0  0  0  0  0  0  0  0
    6.9434  -13.4409   20.4174 C   0  0  0  0  0  0  0  0  0  0  0  0
    7.8362  -13.6243   21.5954 C   0  0  0  0  0  0  0  0  0  0  0  0
    9.0827  -13.5394   21.4503 O   0  0  0  0  0  0  0  0  0  0  0  0
   10.6423  -15.2461   29.7951 O   0  0  0  0  0  0  0  0  0  0  0  0
    9.8672  -14.9248   28.6753 C   0  0  0  0  0  0  0  0  0  0  0  0
    9.7776  -13.6023   28.3023 C   0  0  0  0  0  0  0  0  0  0  0  0
    9.0032  -13.3222   27.1914 C   0  0  0  0  0  0  0  0  0  0  0  0
    8.3450  -14.2973   26.4771 C   0  0  0  0  0  0  0  0  0  0  0  0
    7.5324  -13.9713   25.3051 C   0  0  0  0  0  0  0  0  0  0  0  0
    8.2299  -14.2183   23.9960 C   0  0  2  0  0  0  0  0  0  0  0  0
    7.3435  -13.8948   22.8960 N   0  0  0  0  0  0  0  0  0  0  0  0
    8.8044  -15.5692   23.8815 C   0  0  0  0  0  0  0  0  0  0  0  0
    8.1063  -16.4574   23.3292 O   0  0  0  0  0  0  0  0  0  0  0  0
    8.4574  -15.6091   26.8791 C   0  0  0  0  0  0  0  0  0  0  0  0
    9.2292  -15.9272   27.9937 C   0  0  0  0  0  0  0  0  0  0  0  0
   13.8060  -15.3686   19.9284 N   0  0  0  0  0  0  0  0  0  0  0  0
   12.6365  -16.1642   20.1514 C   0  0  0  0  0  0  0  0  0  0  0  0
   11.7837  -16.3777   19.2160 O   0  0  0  0  0  0  0  0  0  0  0  0
   12.3457  -16.7895   21.4590 C   0  0  0  0  0  0  0  0  0  0  0  0
   11.2872  -16.1334   22.2683 C   0  0  0  0  0  0  0  0  0  0  0  0
   11.0371  -16.7661   23.5832 C   0  0  2  0  0  0  0  0  0  0  0  0
   10.0830  -15.9349   24.3487 N   0  0  0  0  0  0  0  0  0  0  0  0
   12.1646  -17.0116   24.4409 C   0  0  0  0  0  0  0  0  0  0  0  0
   13.1179  -17.9708   24.1545 O   0  0  0  0  0  0  0  0  0  0  0  0
   12.3316  -16.3664   25.5061 O   0  0  0  0  0  0  0  0  0  0  0  0
  1  2  1  0
  2  3  1  0
  3  4  2  0
  6  7  2  0
  6  5  1  0
  8  7  1  0
  9  8  2  0
 11 10  1  1
 10  9  1  0
 12 11  1  0
 12  3  1  0
 13 11  1  0
 14 13  2  0
 15  9  1  0
 15 16  2  0
 16  6  1  0
 18 19  2  0
 18 17  1  0
 20 18  1  0
 21 20  1  0
 22 21  1  6
 22 23  1  0
 23 13  1  0
 24 25  1  0
 24 22  1  0
 26 24  2  0
M  END
$$$$
