GYQ.pdb
     RDKit          3D

 26 26  0  0  1  0  0  0  0  0999 V2000
   10.7370  -17.3669   18.8792 N   0  0  0  0  0  0  0  0  0  0  0  0
    9.5473  -17.5252   19.6927 C   0  0  0  0  0  0  0  0  0  0  0  0
    9.5482  -16.5101   20.7826 C   0  0  0  0  0  0  0  0  0  0  0  0
   10.5962  -15.8580   21.0243 O   0  0  0  0  0  0  0  0  0  0  0  0
    6.8277  -11.4399   27.4754 O   0  0  0  0  0  0  0  0  0  0  0  0
    6.8919  -12.2702   26.3509 C   0  0  0  0  0  0  0  0  0  0  0  0
    7.4063  -11.7493   25.1846 C   0  0  0  0  0  0  0  0  0  0  0  0
    7.4543  -12.5984   24.0942 C   0  0  0  0  0  0  0  0  0  0  0  0
    7.0167  -13.9023   24.1455 C   0  0  0  0  0  0  0  0  0  0  0  0
    7.0798  -14.7780   22.9754 C   0  0  0  0  0  0  0  0  0  0  0  0
    8.4565  -15.3125   22.6917 C   0  0  2  0  0  0  0  0  0  0  0  0
    8.4068  -16.2363   21.5762 N   0  0  0  0  0  0  0  0  0  0  0  0
    9.1190  -15.8879   23.8741 C   0  0  0  0  0  0  0  0  0  0  0  0
    8.7698  -17.0396   24.2384 O   0  0  0  0  0  0  0  0  0  0  0  0
    6.5084  -14.3892   25.3286 C   0  0  0  0  0  0  0  0  0  0  0  0
    6.4452  -13.5616   26.4467 C   0  0  0  0  0  0  0  0  0  0  0  0
   10.2330  -14.3038   29.2563 N   0  0  0  0  0  0  0  0  0  0  0  0
   10.5500  -15.6999   29.2867 C   0  0  0  0  0  0  0  0  0  0  0  0
   11.0758  -16.2445   30.3234 O   0  0  0  0  0  0  0  0  0  0  0  0
   10.2869  -16.5934   28.1388 C   0  0  0  0  0  0  0  0  0  0  0  0
    9.7785  -15.9337   26.9091 C   0  0  0  0  0  0  0  0  0  0  0  0
   10.7711  -15.8206   25.8164 C   0  0  2  0  0  0  0  0  0  0  0  0
   10.1178  -15.2360   24.6253 N   0  0  0  0  0  0  0  0  0  0  0  0
   11.4412  -17.0172   25.3849 C   0  0  0  0  0  0  0  0  0  0  0  0
   10.8160  -17.9790   24.6137 O   0  0  0  0  0  0  0  0  0  0  0  0
   12.6347  -17.2512   25.7007 O   0  0  0  0  0  0  0  0  0  0  0  0
  1  2  1  0
  2  3  1  0
  3  4  2  0
  6  7  2  0
  6  5  1  0
  8  7  1  0
  9  8  2  0
 11 10  1  1
 10  9  1  0
 12 11  1  0
 12  3  1  0
 13 11  1  0
 14 13  2  0
 15  9  1  0
 15 16  2  0
 16  6  1  0
 18 19  2  0
 18 17  1  0
 20 18  1  0
 21 20  1  0
 22 21  1  1
 22 23  1  0
 23 13  1  0
 24 25  1  0
 24 22  1  0
 26 24  2  0
M  END
$$$$
