GYQ.pdb
     RDKit          3D

 26 26  0  0  1  0  0  0  0  0999 V2000
    6.8079  -19.2216   20.2574 N   0  0  0  0  0  0  0  0  0  0  0  0
    6.1080  -18.6849   21.4080 C   0  0  0  0  0  0  0  0  0  0  0  0
    7.0420  -17.8555   22.2193 C   0  0  0  0  0  0  0  0  0  0  0  0
    8.2372  -18.2217   22.3595 O   0  0  0  0  0  0  0  0  0  0  0  0
    8.3853  -12.7093   18.3357 O   0  0  0  0  0  0  0  0  0  0  0  0
    8.1263  -13.1456   19.6398 C   0  0  0  0  0  0  0  0  0  0  0  0
    6.8645  -13.6131   19.9321 C   0  0  0  0  0  0  0  0  0  0  0  0
    6.6450  -14.0357   21.2304 C   0  0  0  0  0  0  0  0  0  0  0  0
    7.6210  -14.0013   22.2001 C   0  0  0  0  0  0  0  0  0  0  0  0
    7.3599  -14.4552   23.5661 C   0  0  0  0  0  0  0  0  0  0  0  0
    7.5270  -15.9377   23.7547 C   0  0  2  0  0  0  0  0  0  0  0  0
    6.6453  -16.6522   22.8534 N   0  0  0  0  0  0  0  0  0  0  0  0
    7.3797  -16.3727   25.1537 C   0  0  0  0  0  0  0  0  0  0  0  0
    6.2265  -16.6729   25.5551 O   0  0  0  0  0  0  0  0  0  0  0  0
    8.8711  -13.5275   21.8717 C   0  0  0  0  0  0  0  0  0  0  0  0
    9.1273  -13.0937   20.5735 C   0  0  0  0  0  0  0  0  0  0  0  0
    5.9759  -21.7371   26.7128 N   0  0  0  0  0  0  0  0  0  0  0  0
    7.1554  -20.9284   26.7857 C   0  0  0  0  0  0  0  0  0  0  0  0
    8.2603  -21.3956   27.2427 O   0  0  0  0  0  0  0  0  0  0  0  0
    7.1751  -19.5203   26.3361 C   0  0  0  0  0  0  0  0  0  0  0  0
    8.5130  -18.8775   26.2818 C   0  0  0  0  0  0  0  0  0  0  0  0
    8.6114  -17.5986   27.0210 C   0  0  2  0  0  0  0  0  0  0  0  0
    8.4429  -16.4756   26.0735 N   0  0  0  0  0  0  0  0  0  0  0  0
    9.8112  -17.3412   27.7703 C   0  0  0  0  0  0  0  0  0  0  0  0
    9.9032  -17.5852   29.1278 O   0  0  0  0  0  0  0  0  0  0  0  0
   10.8384  -16.8684   27.2224 O   0  0  0  0  0  0  0  0  0  0  0  0
  1  2  1  0
  2  3  1  0
  3  4  2  0
  6  7  2  0
  6  5  1  0
  8  7  1  0
  9  8  2  0
 11 10  1  1
 10  9  1  0
 12 11  1  0
 12  3  1  0
 13 11  1  0
 14 13  2  0
 15  9  1  0
 15 16  2  0
 16  6  1  0
 18 19  2  0
 18 17  1  0
 20 18  1  0
 21 20  1  0
 22 21  1  6
 22 23  1  0
 23 13  1  0
 24 25  1  0
 24 22  1  0
 26 24  2  0
M  END
$$$$
