GYQ.pdb
     RDKit          3D

 26 26  0  0  1  0  0  0  0  0999 V2000
    5.4999  -18.3113   23.8071 N   0  0  0  0  0  0  0  0  0  0  0  0
    6.1603  -17.5741   24.8664 C   0  0  0  0  0  0  0  0  0  0  0  0
    7.4042  -16.9473   24.3390 C   0  0  0  0  0  0  0  0  0  0  0  0
    7.7769  -17.1977   23.1640 O   0  0  0  0  0  0  0  0  0  0  0  0
    4.7867  -11.4711   26.3807 O   0  0  0  0  0  0  0  0  0  0  0  0
    5.9872  -12.1244   26.0803 C   0  0  0  0  0  0  0  0  0  0  0  0
    6.8386  -12.4328   27.1177 C   0  0  0  0  0  0  0  0  0  0  0  0
    8.0152  -13.0780   26.7836 C   0  0  0  0  0  0  0  0  0  0  0  0
    8.3425  -13.4066   25.4877 C   0  0  0  0  0  0  0  0  0  0  0  0
    9.5950  -14.0895   25.1638 C   0  0  0  0  0  0  0  0  0  0  0  0
    9.4035  -15.4571   24.5685 C   0  0  2  0  0  0  0  0  0  0  0  0
    8.2044  -16.0665   25.1079 N   0  0  0  0  0  0  0  0  0  0  0  0
   10.5862  -16.3248   24.6963 C   0  0  0  0  0  0  0  0  0  0  0  0
   11.6542  -15.9425   24.1539 O   0  0  0  0  0  0  0  0  0  0  0  0
    7.4670  -13.0826   24.4760 C   0  0  0  0  0  0  0  0  0  0  0  0
    6.2728  -12.4325   24.7765 C   0  0  0  0  0  0  0  0  0  0  0  0
   13.6672  -21.5460   29.0937 N   0  0  0  0  0  0  0  0  0  0  0  0
   12.6361  -20.6932   28.5838 C   0  0  0  0  0  0  0  0  0  0  0  0
   11.5298  -20.5299   29.2142 O   0  0  0  0  0  0  0  0  0  0  0  0
   12.7838  -19.9492   27.3151 C   0  0  0  0  0  0  0  0  0  0  0  0
   11.6489  -19.0641   26.9486 C   0  0  0  0  0  0  0  0  0  0  0  0
   11.8332  -18.3197   25.6822 C   0  0  2  0  0  0  0  0  0  0  0  0
   10.6030  -17.5546   25.3850 N   0  0  0  0  0  0  0  0  0  0  0  0
   12.1599  -19.0686   24.4991 C   0  0  0  0  0  0  0  0  0  0  0  0
   11.2200  -19.8117   23.8099 O   0  0  0  0  0  0  0  0  0  0  0  0
   13.3287  -19.0905   24.0383 O   0  0  0  0  0  0  0  0  0  0  0  0
  1  2  1  0
  2  3  1  0
  3  4  2  0
  6  7  2  0
  6  5  1  0
  8  7  1  0
  9  8  2  0
 11 10  1  1
 10  9  1  0
 12 11  1  0
 12  3  1  0
 13 11  1  0
 14 13  2  0
 15  9  1  0
 15 16  2  0
 16  6  1  0
 18 19  2  0
 18 17  1  0
 20 18  1  0
 21 20  1  0
 22 21  1  1
 22 23  1  0
 23 13  1  0
 24 25  1  0
 24 22  1  0
 26 24  2  0
M  END
$$$$
