GYQ.pdb
     RDKit          3D

 26 26  0  0  1  0  0  0  0  0999 V2000
    8.1882  -13.0896   19.3241 N   0  0  0  0  0  0  0  0  0  0  0  0
    7.5354  -14.0951   20.1396 C   0  0  0  0  0  0  0  0  0  0  0  0
    8.2856  -14.2691   21.4145 C   0  0  0  0  0  0  0  0  0  0  0  0
    9.4046  -13.7132   21.5585 O   0  0  0  0  0  0  0  0  0  0  0  0
    6.0760  -10.1726   26.9611 O   0  0  0  0  0  0  0  0  0  0  0  0
    6.4338  -11.4237   26.4464 C   0  0  0  0  0  0  0  0  0  0  0  0
    7.5294  -12.0609   26.9849 C   0  0  0  0  0  0  0  0  0  0  0  0
    7.8533  -13.2950   26.4517 C   0  0  0  0  0  0  0  0  0  0  0  0
    7.1337  -13.8790   25.4341 C   0  0  0  0  0  0  0  0  0  0  0  0
    7.4999  -15.1864   24.8895 C   0  0  0  0  0  0  0  0  0  0  0  0
    8.4920  -15.1170   23.7616 C   0  0  2  0  0  0  0  0  0  0  0  0
    7.7936  -15.0438   22.4939 N   0  0  0  0  0  0  0  0  0  0  0  0
    9.4951  -16.1946   23.7937 C   0  0  0  0  0  0  0  0  0  0  0  0
    9.1991  -17.2864   23.2447 O   0  0  0  0  0  0  0  0  0  0  0  0
    6.0442  -13.2128   24.9201 C   0  0  0  0  0  0  0  0  0  0  0  0
    5.6894  -11.9679   25.4334 C   0  0  0  0  0  0  0  0  0  0  0  0
   15.7744  -16.8112   21.1405 N   0  0  0  0  0  0  0  0  0  0  0  0
   15.1072  -16.5534   22.3809 C   0  0  0  0  0  0  0  0  0  0  0  0
   15.7268  -16.0372   23.3797 O   0  0  0  0  0  0  0  0  0  0  0  0
   13.6745  -16.8561   22.5836 C   0  0  0  0  0  0  0  0  0  0  0  0
   13.0965  -16.4120   23.8776 C   0  0  0  0  0  0  0  0  0  0  0  0
   11.8374  -17.0931   24.2550 C   0  0  2  0  0  0  0  0  0  0  0  0
   10.7640  -16.0858   24.3977 N   0  0  0  0  0  0  0  0  0  0  0  0
   11.8313  -17.8880   25.4531 C   0  0  0  0  0  0  0  0  0  0  0  0
   11.4848  -17.3671   26.6857 O   0  0  0  0  0  0  0  0  0  0  0  0
   12.1539  -19.1023   25.4365 O   0  0  0  0  0  0  0  0  0  0  0  0
  1  2  1  0
  2  3  1  0
  3  4  2  0
  6  7  2  0
  6  5  1  0
  8  7  1  0
  9  8  2  0
 11 10  1  1
 10  9  1  0
 12 11  1  0
 12  3  1  0
 13 11  1  0
 14 13  2  0
 15  9  1  0
 15 16  2  0
 16  6  1  0
 18 19  2  0
 18 17  1  0
 20 18  1  0
 21 20  1  0
 22 21  1  1
 22 23  1  0
 23 13  1  0
 24 25  1  0
 24 22  1  0
 26 24  2  0
M  END
$$$$
