MLQ.pdb
     RDKit          3D

 26 25  0  0  1  0  0  0  0  0999 V2000
   28.6415  -18.4679   -5.3546 C   0  0  0  0  0  0  0  0  0  0  0  0
   27.6924  -19.9421   -4.9528 S   0  0  0  0  0  0  0  0  0  0  0  0
   26.4384  -20.3724   -6.1372 C   0  0  0  0  0  0  0  0  0  0  0  0
   26.6877  -19.8282   -7.5047 C   0  0  0  0  0  0  0  0  0  0  0  0
   25.6548  -20.1274   -8.5255 C   0  0  2  0  0  0  0  0  0  0  0  0
   25.2323  -21.4979   -8.5512 N   0  0  0  0  0  0  0  0  0  0  0  0
   26.1833  -19.7494   -9.8806 C   0  0  0  0  0  0  0  0  0  0  0  0
   26.5772  -18.5450   -9.9959 O   0  0  0  0  0  0  0  0  0  0  0  0
   29.9016  -22.4408  -12.5332 C   0  0  0  0  0  0  0  0  0  0  0  0
   29.0694  -21.2560  -12.0373 C   0  0  1  0  0  0  0  0  0  0  0  0
   29.8742  -20.0087  -12.0680 C   0  0  0  0  0  0  0  0  0  0  0  0
   27.7653  -21.2346  -12.7343 C   0  0  0  0  0  0  0  0  0  0  0  0
   26.7500  -20.2687  -12.2517 C   0  0  2  0  0  0  0  0  0  0  0  0
   26.2484  -20.6602  -10.9643 N   0  0  0  0  0  0  0  0  0  0  0  0
   25.5614  -20.2010  -13.1901 C   0  0  0  0  0  0  0  0  0  0  0  0
   25.6846  -20.1969  -14.4379 O   0  0  0  0  0  0  0  0  0  0  0  0
   25.0363  -24.4619  -14.7685 N   0  0  0  0  0  0  0  0  0  0  0  0
   23.7045  -24.1017  -15.0593 C   0  0  0  0  0  0  0  0  0  0  0  0
   23.1849  -24.4575  -16.1621 O   0  0  0  0  0  0  0  0  0  0  0  0
   22.8735  -23.3262  -14.1259 C   0  0  0  0  0  0  0  0  0  0  0  0
   23.6923  -22.4219  -13.2770 C   0  0  0  0  0  0  0  0  0  0  0  0
   23.1864  -21.0424  -13.2027 C   0  0  2  0  0  0  0  0  0  0  0  0
   24.2397  -20.1385  -12.6861 N   0  0  0  0  0  0  0  0  0  0  0  0
   21.9540  -20.7136  -12.5266 C   0  0  0  0  0  0  0  0  0  0  0  0
   22.0076  -20.2604  -11.3265 O   0  0  0  0  0  0  0  0  0  0  0  0
   20.6547  -20.8130  -13.0148 O   0  0  0  0  0  0  0  0  0  0  0  0
  2  1  1  0
  3  2  1  0
  4  3  1  0
  4  5  1  0
  5  6  1  6
  7  5  1  0
  7  8  2  0
 10 11  1  6
 10  9  1  0
 12 10  1  0
 13 12  1  6
 13 14  1  0
 14  7  1  0
 15 13  1  0
 16 15  2  0
 17 18  1  0
 18 19  2  0
 20 18  1  0
 20 21  1  0
 22 21  1  1
 22 23  1  0
 23 15  1  0
 24 22  1  0
 25 24  2  0
 26 24  1  0
M  END
$$$$
