MLQ.pdb
     RDKit          3D

 26 25  0  0  1  0  0  0  0  0999 V2000
   26.0998  -17.4736  -17.6906 C   0  0  0  0  0  0  0  0  0  0  0  0
   27.7306  -17.0777  -17.0430 S   0  0  0  0  0  0  0  0  0  0  0  0
   28.4471  -18.3272  -16.0010 C   0  0  0  0  0  0  0  0  0  0  0  0
   27.4498  -19.0662  -15.1717 C   0  0  0  0  0  0  0  0  0  0  0  0
   27.9864  -20.1547  -14.3199 C   0  0  2  0  0  0  0  0  0  0  0  0
   28.6271  -21.2109  -15.0487 N   0  0  0  0  0  0  0  0  0  0  0  0
   26.8663  -20.7307  -13.5002 C   0  0  0  0  0  0  0  0  0  0  0  0
   26.3596  -21.8080  -13.9496 O   0  0  0  0  0  0  0  0  0  0  0  0
   26.3843  -19.6549   -8.0226 C   0  0  0  0  0  0  0  0  0  0  0  0
   26.4484  -20.4851   -9.3068 C   0  0  1  0  0  0  0  0  0  0  0  0
   26.6680  -21.9182   -8.9868 C   0  0  0  0  0  0  0  0  0  0  0  0
   25.2954  -20.1563  -10.1726 C   0  0  0  0  0  0  0  0  0  0  0  0
   25.3075  -20.6889  -11.5556 C   0  0  2  0  0  0  0  0  0  0  0  0
   26.3974  -20.1300  -12.3054 N   0  0  0  0  0  0  0  0  0  0  0  0
   24.0321  -20.3360  -12.2950 C   0  0  0  0  0  0  0  0  0  0  0  0
   23.9458  -19.3460  -13.0596 O   0  0  0  0  0  0  0  0  0  0  0  0
   23.3180  -25.0588  -15.1864 N   0  0  0  0  0  0  0  0  0  0  0  0
   22.1429  -24.4308  -15.6475 C   0  0  0  0  0  0  0  0  0  0  0  0
   21.4725  -24.9646  -16.5847 O   0  0  0  0  0  0  0  0  0  0  0  0
   21.6459  -23.1687  -15.0788 C   0  0  0  0  0  0  0  0  0  0  0  0
   22.4900  -22.7013  -13.9484 C   0  0  0  0  0  0  0  0  0  0  0  0
   22.0214  -21.4559  -13.3206 C   0  0  2  0  0  0  0  0  0  0  0  0
   22.8652  -21.1247  -12.1495 N   0  0  0  0  0  0  0  0  0  0  0  0
   20.6429  -21.2618  -12.9387 C   0  0  0  0  0  0  0  0  0  0  0  0
   20.3423  -21.2452  -11.6906 O   0  0  0  0  0  0  0  0  0  0  0  0
   19.5416  -21.0717  -13.7677 O   0  0  0  0  0  0  0  0  0  0  0  0
  2  1  1  0
  3  2  1  0
  4  3  1  0
  4  5  1  0
  5  6  1  6
  7  5  1  0
  7  8  2  0
 10 11  1  1
 10  9  1  0
 12 10  1  0
 13 12  1  1
 13 14  1  0
 14  7  1  0
 15 13  1  0
 16 15  2  0
 17 18  1  0
 18 19  2  0
 20 18  1  0
 20 21  1  0
 22 21  1  1
 22 23  1  0
 23 15  1  0
 24 22  1  0
 25 24  2  0
 26 24  1  0
M  END
$$$$
