MLQ.pdb
     RDKit          3D

 26 25  0  0  1  0  0  0  0  0999 V2000
   20.6511  -17.1070  -21.5771 C   0  0  0  0  0  0  0  0  0  0  0  0
   21.4392  -15.9603  -20.4370 S   0  0  0  0  0  0  0  0  0  0  0  0
   20.4075  -15.4044  -19.1001 C   0  0  0  0  0  0  0  0  0  0  0  0
   21.0704  -14.4189  -18.1958 C   0  0  0  0  0  0  0  0  0  0  0  0
   22.2359  -14.9183  -17.4272 C   0  0  2  0  0  0  0  0  0  0  0  0
   21.9272  -15.9803  -16.5138 N   0  0  0  0  0  0  0  0  0  0  0  0
   22.8449  -13.7749  -16.6656 C   0  0  0  0  0  0  0  0  0  0  0  0
   22.2384  -13.4474  -15.5959 O   0  0  0  0  0  0  0  0  0  0  0  0
   28.3253  -12.7173  -16.6241 C   0  0  0  0  0  0  0  0  0  0  0  0
   26.8867  -12.9752  -16.1700 C   0  0  1  0  0  0  0  0  0  0  0  0
   26.8539  -13.3288  -14.7284 C   0  0  0  0  0  0  0  0  0  0  0  0
   26.0164  -11.8642  -16.6120 C   0  0  0  0  0  0  0  0  0  0  0  0
   24.5621  -11.9947  -16.3576 C   0  0  2  0  0  0  0  0  0  0  0  0
   24.0151  -13.0998  -17.0936 N   0  0  0  0  0  0  0  0  0  0  0  0
   23.8107  -10.7531  -16.7959 C   0  0  0  0  0  0  0  0  0  0  0  0
   23.5316  -10.5202  -17.9958 O   0  0  0  0  0  0  0  0  0  0  0  0
   19.6062   -7.9340  -13.1942 N   0  0  0  0  0  0  0  0  0  0  0  0
   19.6058   -7.1260  -14.3497 C   0  0  0  0  0  0  0  0  0  0  0  0
   18.7800   -6.1658  -14.4436 O   0  0  0  0  0  0  0  0  0  0  0  0
   20.5380   -7.3432  -15.4664 C   0  0  0  0  0  0  0  0  0  0  0  0
   21.4277   -8.5089  -15.2252 C   0  0  0  0  0  0  0  0  0  0  0  0
   22.4741   -8.6898  -16.2435 C   0  0  2  0  0  0  0  0  0  0  0  0
   23.3858   -9.7887  -15.8503 N   0  0  0  0  0  0  0  0  0  0  0  0
   23.2852   -7.5916  -16.7123 C   0  0  0  0  0  0  0  0  0  0  0  0
   24.4990   -7.4992  -16.3037 O   0  0  0  0  0  0  0  0  0  0  0  0
   22.9271   -6.5751  -17.5925 O   0  0  0  0  0  0  0  0  0  0  0  0
  2  1  1  0
  3  2  1  0
  4  3  1  0
  4  5  1  0
  5  6  1  1
  7  5  1  0
  7  8  2  0
 10 11  1  1
 10  9  1  0
 12 10  1  0
 13 12  1  6
 13 14  1  0
 14  7  1  0
 15 13  1  0
 16 15  2  0
 17 18  1  0
 18 19  2  0
 20 18  1  0
 20 21  1  0
 22 21  1  1
 22 23  1  0
 23 15  1  0
 24 22  1  0
 25 24  2  0
 26 24  1  0
M  END
$$$$
