MLQ.pdb
     RDKit          3D

 26 25  0  0  1  0  0  0  0  0999 V2000
   29.3230  -19.2385   -6.7553 C   0  0  0  0  0  0  0  0  0  0  0  0
   27.7911  -19.6138   -5.8903 S   0  0  0  0  0  0  0  0  0  0  0  0
   26.5875  -20.5041   -6.8491 C   0  0  0  0  0  0  0  0  0  0  0  0
   26.4606  -20.0223   -8.2563 C   0  0  0  0  0  0  0  0  0  0  0  0
   25.4884  -20.7466   -9.1099 C   0  0  2  0  0  0  0  0  0  0  0  0
   25.6986  -22.1642   -9.1686 N   0  0  0  0  0  0  0  0  0  0  0  0
   25.5448  -20.1822  -10.5015 C   0  0  0  0  0  0  0  0  0  0  0  0
   25.4542  -18.9154  -10.5804 O   0  0  0  0  0  0  0  0  0  0  0  0
   29.0463  -20.5610  -14.5551 C   0  0  0  0  0  0  0  0  0  0  0  0
   27.9206  -19.9707  -13.7027 C   0  0  1  0  0  0  0  0  0  0  0  0
   27.7684  -18.5197  -13.9783 C   0  0  0  0  0  0  0  0  0  0  0  0
   26.7094  -20.8108  -13.8231 C   0  0  0  0  0  0  0  0  0  0  0  0
   25.5448  -20.4528  -12.9793 C   0  0  2  0  0  0  0  0  0  0  0  0
   25.6920  -20.9907  -11.6560 N   0  0  0  0  0  0  0  0  0  0  0  0
   24.2569  -21.0157  -13.5473 C   0  0  0  0  0  0  0  0  0  0  0  0
   23.8657  -22.1827  -13.3081 O   0  0  0  0  0  0  0  0  0  0  0  0
   20.0737  -21.5864  -10.9456 N   0  0  0  0  0  0  0  0  0  0  0  0
   19.3027  -21.4784  -12.1211 C   0  0  0  0  0  0  0  0  0  0  0  0
   18.0563  -21.7177  -12.0782 O   0  0  0  0  0  0  0  0  0  0  0  0
   19.8840  -21.0879  -13.4146 C   0  0  0  0  0  0  0  0  0  0  0  0
   21.3450  -20.8362  -13.3108 C   0  0  0  0  0  0  0  0  0  0  0  0
   22.0079  -20.5912  -14.6012 C   0  0  2  0  0  0  0  0  0  0  0  0
   23.4284  -20.2318  -14.3863 N   0  0  0  0  0  0  0  0  0  0  0  0
   21.4663  -19.6788  -15.5799 C   0  0  0  0  0  0  0  0  0  0  0  0
   22.0405  -18.5435  -15.7530 O   0  0  0  0  0  0  0  0  0  0  0  0
   20.3644  -19.8648  -16.4091 O   0  0  0  0  0  0  0  0  0  0  0  0
  2  1  1  0
  3  2  1  0
  4  3  1  0
  4  5  1  0
  5  6  1  6
  7  5  1  0
  7  8  2  0
 10 11  1  6
 10  9  1  0
 12 10  1  0
 13 12  1  6
 13 14  1  0
 14  7  1  0
 15 13  1  0
 16 15  2  0
 17 18  1  0
 18 19  2  0
 20 18  1  0
 20 21  1  0
 22 21  1  1
 22 23  1  0
 23 15  1  0
 24 22  1  0
 25 24  2  0
 26 24  1  0
M  END
$$$$
