MLQ.pdb
     RDKit          3D

 26 25  0  0  1  0  0  0  0  0999 V2000
   29.9828  -21.5106  -12.6604 C   0  0  0  0  0  0  0  0  0  0  0  0
   29.5236  -21.8596  -10.9566 S   0  0  0  0  0  0  0  0  0  0  0  0
   27.8915  -21.3263  -10.4957 C   0  0  0  0  0  0  0  0  0  0  0  0
   27.0974  -20.7656  -11.6287 C   0  0  0  0  0  0  0  0  0  0  0  0
   25.6887  -20.4138  -11.3282 C   0  0  2  0  0  0  0  0  0  0  0  0
   24.8801  -21.5241  -10.9148 N   0  0  0  0  0  0  0  0  0  0  0  0
   25.0729  -19.7821  -12.5449 C   0  0  0  0  0  0  0  0  0  0  0  0
   23.8132  -19.6102  -12.4919 O   0  0  0  0  0  0  0  0  0  0  0  0
   27.8839  -15.5341  -15.7807 C   0  0  0  0  0  0  0  0  0  0  0  0
   26.5294  -16.2149  -15.5712 C   0  0  1  0  0  0  0  0  0  0  0  0
   25.8159  -16.3583  -16.8653 C   0  0  0  0  0  0  0  0  0  0  0  0
   26.7051  -17.4381  -14.7587 C   0  0  0  0  0  0  0  0  0  0  0  0
   25.4924  -18.2329  -14.4520 C   0  0  2  0  0  0  0  0  0  0  0  0
   25.8293  -19.3955  -13.6792 N   0  0  0  0  0  0  0  0  0  0  0  0
   24.8168  -18.7212  -15.7182 C   0  0  0  0  0  0  0  0  0  0  0  0
   24.4151  -17.9413  -16.6140 O   0  0  0  0  0  0  0  0  0  0  0  0
   19.6782  -20.2442  -16.5023 N   0  0  0  0  0  0  0  0  0  0  0  0
   20.4485  -21.0237  -15.6151 C   0  0  0  0  0  0  0  0  0  0  0  0
   19.8799  -21.6217  -14.6497 O   0  0  0  0  0  0  0  0  0  0  0  0
   21.9030  -21.1845  -15.7629 C   0  0  0  0  0  0  0  0  0  0  0  0
   22.4253  -20.4381  -16.9371 C   0  0  0  0  0  0  0  0  0  0  0  0
   23.8757  -20.5748  -17.1421 C   0  0  2  0  0  0  0  0  0  0  0  0
   24.6082  -20.1033  -15.9444 N   0  0  0  0  0  0  0  0  0  0  0  0
   24.5396  -20.0348  -18.3047 C   0  0  0  0  0  0  0  0  0  0  0  0
   25.2987  -19.0088  -18.1640 O   0  0  0  0  0  0  0  0  0  0  0  0
   24.4798  -20.4934  -19.6172 O   0  0  0  0  0  0  0  0  0  0  0  0
  2  1  1  0
  3  2  1  0
  4  3  1  0
  4  5  1  0
  5  6  1  6
  7  5  1  0
  7  8  2  0
 10 11  1  6
 10  9  1  0
 12 10  1  0
 13 12  1  6
 13 14  1  0
 14  7  1  0
 15 13  1  0
 16 15  2  0
 17 18  1  0
 18 19  2  0
 20 18  1  0
 20 21  1  0
 22 21  1  1
 22 23  1  0
 23 15  1  0
 24 22  1  0
 25 24  2  0
 26 24  1  0
M  END
$$$$
