LAW.pdb
     RDKit          3D

 28 29  0  0  1  0  0  0  0  0999 V2000
   21.6085  -17.1749  -16.1353 C   0  0  0  0  0  0  0  0  0  0  0  0
   22.2558  -18.2610  -15.2641 C   0  0  2  0  0  0  0  0  0  0  0  0
   21.1406  -18.9464  -14.5326 C   0  0  0  0  0  0  0  0  0  0  0  0
   23.2800  -17.6304  -14.3492 C   0  0  0  0  0  0  0  0  0  0  0  0
   24.4291  -17.1331  -15.1597 C   0  0  2  0  0  0  0  0  0  0  0  0
   23.9311  -16.5025  -16.3479 N   0  0  0  0  0  0  0  0  0  0  0  0
   25.4605  -18.1517  -15.4284 C   0  0  0  0  0  0  0  0  0  0  0  0
   25.3022  -18.9875  -16.3544 O   0  0  0  0  0  0  0  0  0  0  0  0
   29.0406  -18.7964  -14.5723 C   0  0  0  0  0  0  0  0  0  0  0  0
   27.6733  -19.2687  -14.9768 C   0  0  2  0  0  0  0  0  0  0  0  0
   26.6759  -18.2645  -14.6851 N   0  0  0  0  0  0  0  0  0  0  0  0
   27.3889  -20.5479  -14.2683 C   0  0  0  0  0  0  0  0  0  0  0  0
   28.0976  -21.5943  -14.4757 O   0  0  0  0  0  0  0  0  0  0  0  0
   26.3412  -20.6948  -13.3384 N   0  0  0  0  0  0  0  0  0  0  0  0
   25.9570  -22.0195  -12.8213 C   0  0  1  0  0  0  0  0  0  0  0  0
   26.7555  -22.1648  -11.5560 C   0  0  0  0  0  0  0  0  0  0  0  0
   26.4260  -21.3050  -10.4422 C   0  0  0  0  0  0  0  0  0  0  0  0
   25.2157  -20.6590  -10.2719 C   0  0  0  0  0  0  0  0  0  0  0  0
   25.2593  -19.9188   -9.1556 N   0  0  0  0  0  0  0  0  0  0  0  0
   26.4678  -20.0726   -8.6015 C   0  0  0  0  0  0  0  0  0  0  0  0
   27.0537  -19.5696   -7.4542 C   0  0  0  0  0  0  0  0  0  0  0  0
   28.3424  -19.9067   -7.0870 C   0  0  0  0  0  0  0  0  0  0  0  0
   29.0658  -20.7705   -7.8888 C   0  0  0  0  0  0  0  0  0  0  0  0
   28.5128  -21.2751   -9.0176 C   0  0  0  0  0  0  0  0  0  0  0  0
   27.2258  -20.9392   -9.3868 C   0  0  0  0  0  0  0  0  0  0  0  0
   24.5099  -22.0876  -12.5798 C   0  0  0  0  0  0  0  0  0  0  0  0
   23.8528  -23.3141  -12.4111 O   0  0  0  0  0  0  0  0  0  0  0  0
   23.7697  -21.0744  -12.5077 O   0  0  0  0  0  0  0  0  0  0  0  0
  2  3  1  1
  2  1  1  0
  4  2  1  0
  5  4  1  0
  5  6  1  6
  7  5  1  0
  8  7  2  0
 10  9  1  1
 10 12  1  0
 10 11  1  0
 11  7  1  0
 12 13  2  0
 14 15  1  0
 14 12  1  0
 16 17  1  0
 15 16  1  1
 17 18  2  0
 18 19  1  0
 20 19  1  0
 21 20  2  0
 22 21  1  0
 23 24  1  0
 23 22  2  0
 24 25  2  0
 25 17  1  0
 25 20  1  0
 26 27  1  0
 26 15  1  0
 28 26  2  0
M  END
$$$$
