LAW.pdb
     RDKit          3D

 28 29  0  0  1  0  0  0  0  0999 V2000
   27.0455  -24.2395  -19.2421 C   0  0  0  0  0  0  0  0  0  0  0  0
   27.8517  -22.9343  -19.1787 C   0  0  2  0  0  0  0  0  0  0  0  0
   28.9904  -23.0853  -20.1425 C   0  0  0  0  0  0  0  0  0  0  0  0
   28.2946  -22.6830  -17.7557 C   0  0  0  0  0  0  0  0  0  0  0  0
   27.1025  -22.3815  -16.9116 C   0  0  2  0  0  0  0  0  0  0  0  0
   26.1259  -21.6905  -17.7031 N   0  0  0  0  0  0  0  0  0  0  0  0
   27.4202  -21.6942  -15.6465 C   0  0  0  0  0  0  0  0  0  0  0  0
   28.2903  -22.1635  -14.8696 O   0  0  0  0  0  0  0  0  0  0  0  0
   26.8107  -18.3167  -14.1331 C   0  0  0  0  0  0  0  0  0  0  0  0
   27.2109  -19.7616  -14.0436 C   0  0  2  0  0  0  0  0  0  0  0  0
   26.7874  -20.4857  -15.2204 N   0  0  0  0  0  0  0  0  0  0  0  0
   26.6211  -20.3370  -12.8024 C   0  0  0  0  0  0  0  0  0  0  0  0
   25.4745  -20.9074  -12.8141 O   0  0  0  0  0  0  0  0  0  0  0  0
   27.2696  -20.2954  -11.5528 N   0  0  0  0  0  0  0  0  0  0  0  0
   26.5704  -20.6801  -10.3146 C   0  0  1  0  0  0  0  0  0  0  0  0
   27.5135  -20.2696   -9.2184 C   0  0  0  0  0  0  0  0  0  0  0  0
   27.0716  -20.4189   -7.8506 C   0  0  0  0  0  0  0  0  0  0  0  0
   25.8378  -20.9104   -7.4666 C   0  0  0  0  0  0  0  0  0  0  0  0
   25.7435  -20.8818   -6.1301 N   0  0  0  0  0  0  0  0  0  0  0  0
   26.8866  -20.3847   -5.6430 C   0  0  0  0  0  0  0  0  0  0  0  0
   27.3447  -20.1474   -4.3598 C   0  0  0  0  0  0  0  0  0  0  0  0
   28.6042  -19.6324   -4.1199 C   0  0  0  0  0  0  0  0  0  0  0  0
   29.4290  -19.3464   -5.1925 C   0  0  0  0  0  0  0  0  0  0  0  0
   29.0016  -19.5698   -6.4581 C   0  0  0  0  0  0  0  0  0  0  0  0
   27.7435  -20.0837   -6.7002 C   0  0  0  0  0  0  0  0  0  0  0  0
   25.2704  -20.0039  -10.2158 C   0  0  0  0  0  0  0  0  0  0  0  0
   24.1093  -20.6994   -9.8522 O   0  0  0  0  0  0  0  0  0  0  0  0
   25.1060  -18.7790  -10.4445 O   0  0  0  0  0  0  0  0  0  0  0  0
  2  3  1  6
  2  1  1  0
  4  2  1  0
  5  4  1  0
  5  6  1  6
  7  5  1  0
  8  7  2  0
 10  9  1  6
 10 12  1  0
 10 11  1  0
 11  7  1  0
 12 13  2  0
 14 15  1  0
 14 12  1  0
 16 17  1  0
 15 16  1  1
 17 18  2  0
 18 19  1  0
 20 19  1  0
 21 20  2  0
 22 21  1  0
 23 24  1  0
 23 22  2  0
 24 25  2  0
 25 17  1  0
 25 20  1  0
 26 27  1  0
 26 15  1  0
 28 26  2  0
M  END
$$$$
