LAW.pdb
     RDKit          3D

 28 29  0  0  1  0  0  0  0  0999 V2000
   22.7967  -19.9527  -17.6575 C   0  0  0  0  0  0  0  0  0  0  0  0
   22.0865  -18.9437  -16.7437 C   0  0  2  0  0  0  0  0  0  0  0  0
   21.5525  -17.8607  -17.6326 C   0  0  0  0  0  0  0  0  0  0  0  0
   23.0542  -18.4428  -15.6964 C   0  0  0  0  0  0  0  0  0  0  0  0
   23.5667  -19.5969  -14.9027 C   0  0  2  0  0  0  0  0  0  0  0  0
   22.9660  -20.8065  -15.3861 N   0  0  0  0  0  0  0  0  0  0  0  0
   23.4411  -19.4260  -13.4437 C   0  0  0  0  0  0  0  0  0  0  0  0
   23.7721  -18.3417  -12.9001 O   0  0  0  0  0  0  0  0  0  0  0  0
   21.6256  -20.9323  -10.5937 C   0  0  0  0  0  0  0  0  0  0  0  0
   22.8476  -20.2489  -11.1375 C   0  0  2  0  0  0  0  0  0  0  0  0
   22.9512  -20.4419  -12.5659 N   0  0  0  0  0  0  0  0  0  0  0  0
   24.0415  -20.7813  -10.4229 C   0  0  0  0  0  0  0  0  0  0  0  0
   24.6756  -21.8047  -10.8595 O   0  0  0  0  0  0  0  0  0  0  0  0
   24.5475  -20.2086   -9.2398 N   0  0  0  0  0  0  0  0  0  0  0  0
   25.7015  -20.7964   -8.5378 C   0  0  1  0  0  0  0  0  0  0  0  0
   26.6384  -19.6378   -8.3385 C   0  0  0  0  0  0  0  0  0  0  0  0
   27.8588  -19.8701   -7.6002 C   0  0  0  0  0  0  0  0  0  0  0  0
   29.0410  -20.3299   -8.1497 C   0  0  0  0  0  0  0  0  0  0  0  0
   29.9586  -20.4651   -7.1825 N   0  0  0  0  0  0  0  0  0  0  0  0
   29.3972  -20.1028   -6.0229 C   0  0  0  0  0  0  0  0  0  0  0  0
   29.8696  -20.0281   -4.7252 C   0  0  0  0  0  0  0  0  0  0  0  0
   29.0723  -19.5929   -3.6840 C   0  0  0  0  0  0  0  0  0  0  0  0
   27.7662  -19.2220   -3.9471 C   0  0  0  0  0  0  0  0  0  0  0  0
   27.2815  -19.2875   -5.2101 C   0  0  0  0  0  0  0  0  0  0  0  0
   28.0760  -19.7226   -6.2517 C   0  0  0  0  0  0  0  0  0  0  0  0
   25.2868  -21.4047   -7.2669 C   0  0  0  0  0  0  0  0  0  0  0  0
   26.0449  -22.4129   -6.6562 O   0  0  0  0  0  0  0  0  0  0  0  0
   24.2451  -21.0739   -6.6463 O   0  0  0  0  0  0  0  0  0  0  0  0
  2  3  1  6
  2  1  1  0
  4  2  1  0
  5  4  1  0
  5  6  1  6
  7  5  1  0
  8  7  2  0
 10  9  1  1
 10 12  1  0
 10 11  1  0
 11  7  1  0
 12 13  2  0
 14 15  1  0
 14 12  1  0
 16 17  1  0
 15 16  1  1
 17 18  2  0
 18 19  1  0
 20 19  1  0
 21 20  2  0
 22 21  1  0
 23 24  1  0
 23 22  2  0
 24 25  2  0
 25 17  1  0
 25 20  1  0
 26 27  1  0
 26 15  1  0
 28 26  2  0
M  END
$$$$
