LAW.pdb
     RDKit          3D

 28 29  0  0  1  0  0  0  0  0999 V2000
   29.8716  -23.5121  -18.2497 C   0  0  0  0  0  0  0  0  0  0  0  0
   29.2449  -22.1209  -18.4214 C   0  0  2  0  0  0  0  0  0  0  0  0
   30.0524  -21.4119  -19.4671 C   0  0  0  0  0  0  0  0  0  0  0  0
   29.2243  -21.4085  -17.0887 C   0  0  0  0  0  0  0  0  0  0  0  0
   28.3158  -22.1328  -16.1535 C   0  0  2  0  0  0  0  0  0  0  0  0
   27.5509  -23.0970  -16.8902 N   0  0  0  0  0  0  0  0  0  0  0  0
   27.4866  -21.2479  -15.3152 C   0  0  0  0  0  0  0  0  0  0  0  0
   28.0233  -20.3641  -14.5997 O   0  0  0  0  0  0  0  0  0  0  0  0
   23.9619  -20.1166  -15.0860 C   0  0  0  0  0  0  0  0  0  0  0  0
   25.2730  -20.4363  -14.4266 C   0  0  2  0  0  0  0  0  0  0  0  0
   26.0607  -21.3226  -15.2526 N   0  0  0  0  0  0  0  0  0  0  0  0
   24.9942  -21.0332  -13.0904 C   0  0  0  0  0  0  0  0  0  0  0  0
   24.8845  -22.3001  -12.9384 O   0  0  0  0  0  0  0  0  0  0  0  0
   24.8344  -20.2621  -11.9226 N   0  0  0  0  0  0  0  0  0  0  0  0
   24.5071  -20.8891  -10.6304 C   0  0  1  0  0  0  0  0  0  0  0  0
   25.2111  -20.0301   -9.6174 C   0  0  0  0  0  0  0  0  0  0  0  0
   26.5770  -20.3591   -9.2793 C   0  0  0  0  0  0  0  0  0  0  0  0
   27.4048  -21.1715  -10.0315 C   0  0  0  0  0  0  0  0  0  0  0  0
   28.5886  -21.2934   -9.4153 N   0  0  0  0  0  0  0  0  0  0  0  0
   28.5445  -20.5788   -8.2846 C   0  0  0  0  0  0  0  0  0  0  0  0
   29.4667  -20.3334   -7.2836 C   0  0  0  0  0  0  0  0  0  0  0  0
   29.1711  -19.5233   -6.2040 C   0  0  0  0  0  0  0  0  0  0  0  0
   27.9188  -18.9422   -6.1225 C   0  0  0  0  0  0  0  0  0  0  0  0
   26.9993  -19.1687   -7.0908 C   0  0  0  0  0  0  0  0  0  0  0  0
   27.2921  -19.9781   -8.1699 C   0  0  0  0  0  0  0  0  0  0  0  0
   23.0541  -20.9253  -10.4193 C   0  0  0  0  0  0  0  0  0  0  0  0
   22.4727  -21.7830   -9.4755 O   0  0  0  0  0  0  0  0  0  0  0  0
   22.2423  -20.2062  -11.0544 O   0  0  0  0  0  0  0  0  0  0  0  0
  2  3  1  6
  2  1  1  0
  4  2  1  0
  5  4  1  0
  5  6  1  6
  7  5  1  0
  8  7  2  0
 10  9  1  6
 10 12  1  0
 10 11  1  0
 11  7  1  0
 12 13  2  0
 14 15  1  0
 14 12  1  0
 16 17  1  0
 15 16  1  1
 17 18  2  0
 18 19  1  0
 20 19  1  0
 21 20  2  0
 22 21  1  0
 23 24  1  0
 23 22  2  0
 24 25  2  0
 25 17  1  0
 25 20  1  0
 26 27  1  0
 26 15  1  0
 28 26  2  0
M  END
$$$$
