LAW.pdb
     RDKit          3D

 28 29  0  0  1  0  0  0  0  0999 V2000
   23.1489  -17.2240  -14.6329 C   0  0  0  0  0  0  0  0  0  0  0  0
   22.4773  -18.5849  -14.8660 C   0  0  2  0  0  0  0  0  0  0  0  0
   21.0773  -18.4686  -14.3416 C   0  0  0  0  0  0  0  0  0  0  0  0
   23.2862  -19.6692  -14.1923 C   0  0  0  0  0  0  0  0  0  0  0  0
   24.7047  -19.5828  -14.6447 C   0  0  2  0  0  0  0  0  0  0  0  0
   24.7490  -19.6558  -16.0766 N   0  0  0  0  0  0  0  0  0  0  0  0
   25.6061  -20.5440  -13.9835 C   0  0  0  0  0  0  0  0  0  0  0  0
   25.2461  -21.7360  -13.8088 O   0  0  0  0  0  0  0  0  0  0  0  0
   29.1957  -20.6647  -12.8291 C   0  0  0  0  0  0  0  0  0  0  0  0
   27.7866  -21.1807  -12.8935 C   0  0  2  0  0  0  0  0  0  0  0  0
   26.9111  -20.2085  -13.5072 N   0  0  0  0  0  0  0  0  0  0  0  0
   27.3469  -21.5212  -11.5114 C   0  0  0  0  0  0  0  0  0  0  0  0
   27.9542  -22.4132  -10.8216 O   0  0  0  0  0  0  0  0  0  0  0  0
   26.2537  -20.8989  -10.8777 N   0  0  0  0  0  0  0  0  0  0  0  0
   25.8658  -21.2505   -9.5008 C   0  0  1  0  0  0  0  0  0  0  0  0
   26.2631  -20.0487   -8.6899 C   0  0  0  0  0  0  0  0  0  0  0  0
   27.5499  -20.0678   -8.0325 C   0  0  0  0  0  0  0  0  0  0  0  0
   28.7425  -20.4184   -8.6373 C   0  0  0  0  0  0  0  0  0  0  0  0
   29.7325  -20.3613   -7.7359 N   0  0  0  0  0  0  0  0  0  0  0  0
   29.2075  -19.9817   -6.5649 C   0  0  0  0  0  0  0  0  0  0  0  0
   29.7518  -19.7465   -5.3155 C   0  0  0  0  0  0  0  0  0  0  0  0
   28.9760  -19.3335   -4.2493 C   0  0  0  0  0  0  0  0  0  0  0  0
   27.6182  -19.1505   -4.4370 C   0  0  0  0  0  0  0  0  0  0  0  0
   27.0628  -19.3753   -5.6517 C   0  0  0  0  0  0  0  0  0  0  0  0
   27.8358  -19.7886   -6.7181 C   0  0  0  0  0  0  0  0  0  0  0  0
   24.4263  -21.5297   -9.4176 C   0  0  0  0  0  0  0  0  0  0  0  0
   23.5963  -21.4358  -10.5431 O   0  0  0  0  0  0  0  0  0  0  0  0
   23.8447  -21.8663   -8.3555 O   0  0  0  0  0  0  0  0  0  0  0  0
  2  3  1  1
  2  1  1  0
  4  2  1  0
  5  4  1  0
  5  6  1  6
  7  5  1  0
  8  7  2  0
 10  9  1  1
 10 12  1  0
 10 11  1  0
 11  7  1  0
 12 13  2  0
 14 15  1  0
 14 12  1  0
 16 17  1  0
 15 16  1  1
 17 18  2  0
 18 19  1  0
 20 19  1  0
 21 20  2  0
 22 21  1  0
 23 24  1  0
 23 22  2  0
 24 25  2  0
 25 17  1  0
 25 20  1  0
 26 27  1  0
 26 15  1  0
 28 26  2  0
M  END
$$$$
