LAW.pdb
     RDKit          3D

 28 29  0  0  1  0  0  0  0  0999 V2000
   20.0239  -20.7670  -18.2165 C   0  0  0  0  0  0  0  0  0  0  0  0
   19.5155  -19.4182  -17.6876 C   0  0  2  0  0  0  0  0  0  0  0  0
   19.7824  -18.4071  -18.7623 C   0  0  0  0  0  0  0  0  0  0  0  0
   20.1975  -19.1003  -16.3769 C   0  0  0  0  0  0  0  0  0  0  0  0
   20.1622  -20.3030  -15.4955 C   0  0  2  0  0  0  0  0  0  0  0  0
   18.8912  -20.3664  -14.8337 N   0  0  0  0  0  0  0  0  0  0  0  0
   21.3066  -20.4047  -14.5716 C   0  0  0  0  0  0  0  0  0  0  0  0
   21.5782  -19.4582  -13.7898 O   0  0  0  0  0  0  0  0  0  0  0  0
   23.6288  -22.9872  -13.2051 C   0  0  0  0  0  0  0  0  0  0  0  0
   23.3320  -21.5817  -13.6440 C   0  0  2  0  0  0  0  0  0  0  0  0
   22.1647  -21.5451  -14.4951 N   0  0  0  0  0  0  0  0  0  0  0  0
   24.5350  -21.0418  -14.3375 C   0  0  0  0  0  0  0  0  0  0  0  0
   24.6711  -21.1419  -15.6070 O   0  0  0  0  0  0  0  0  0  0  0  0
   25.5872  -20.3956  -13.6598 N   0  0  0  0  0  0  0  0  0  0  0  0
   26.7520  -19.8619  -14.3867 C   0  0  1  0  0  0  0  0  0  0  0  0
   27.5933  -19.2267  -13.3151 C   0  0  0  0  0  0  0  0  0  0  0  0
   28.0180  -20.0511  -12.2068 C   0  0  0  0  0  0  0  0  0  0  0  0
   29.2268  -20.7179  -12.1340 C   0  0  0  0  0  0  0  0  0  0  0  0
   29.2831  -21.4141  -10.9903 N   0  0  0  0  0  0  0  0  0  0  0  0
   28.1405  -21.2117  -10.3235 C   0  0  0  0  0  0  0  0  0  0  0  0
   27.6649  -21.6571   -9.1037 C   0  0  0  0  0  0  0  0  0  0  0  0
   26.4271  -21.2768   -8.6218 C   0  0  0  0  0  0  0  0  0  0  0  0
   25.6424  -20.4274   -9.3804 C   0  0  0  0  0  0  0  0  0  0  0  0
   26.0870  -19.9789  -10.5786 C   0  0  0  0  0  0  0  0  0  0  0  0
   27.3231  -20.3581  -11.0622 C   0  0  0  0  0  0  0  0  0  0  0  0
   27.4640  -20.9344  -15.0939 C   0  0  0  0  0  0  0  0  0  0  0  0
   28.2720  -20.6663  -16.2073 O   0  0  0  0  0  0  0  0  0  0  0  0
   27.4036  -22.1448  -14.7608 O   0  0  0  0  0  0  0  0  0  0  0  0
  2  3  1  6
  2  1  1  0
  4  2  1  0
  5  4  1  0
  5  6  1  1
  7  5  1  0
  8  7  2  0
 10  9  1  6
 10 12  1  0
 10 11  1  0
 11  7  1  0
 12 13  2  0
 14 15  1  0
 14 12  1  0
 16 17  1  0
 15 16  1  1
 17 18  2  0
 18 19  1  0
 20 19  1  0
 21 20  2  0
 22 21  1  0
 23 24  1  0
 23 22  2  0
 24 25  2  0
 25 17  1  0
 25 20  1  0
 26 27  1  0
 26 15  1  0
 28 26  2  0
M  END
$$$$
