LAW.pdb
     RDKit          3D

 28 29  0  0  1  0  0  0  0  0999 V2000
   19.4734   -8.6079  -16.3241 C   0  0  0  0  0  0  0  0  0  0  0  0
   20.0499   -9.6656  -15.3720 C   0  0  2  0  0  0  0  0  0  0  0  0
   19.4937  -10.9872  -15.8104 C   0  0  0  0  0  0  0  0  0  0  0  0
   19.6997   -9.3062  -13.9465 C   0  0  0  0  0  0  0  0  0  0  0  0
   20.3033   -7.9855  -13.6057 C   0  0  2  0  0  0  0  0  0  0  0  0
   21.6954   -8.1647  -13.3100 N   0  0  0  0  0  0  0  0  0  0  0  0
   19.5755   -7.2440  -12.5597 C   0  0  0  0  0  0  0  0  0  0  0  0
   19.5181   -7.6922  -11.3864 O   0  0  0  0  0  0  0  0  0  0  0  0
   17.8264   -3.9114  -12.1983 C   0  0  0  0  0  0  0  0  0  0  0  0
   18.2195   -5.2859  -11.7379 C   0  0  2  0  0  0  0  0  0  0  0  0
   18.9034   -6.0038  -12.7892 N   0  0  0  0  0  0  0  0  0  0  0  0
   16.9913   -6.0020  -11.2926 C   0  0  0  0  0  0  0  0  0  0  0  0
   16.2958   -6.7003  -12.1105 O   0  0  0  0  0  0  0  0  0  0  0  0
   16.5169   -5.9625   -9.9670 N   0  0  0  0  0  0  0  0  0  0  0  0
   15.2989   -6.6887   -9.5681 C   0  0  1  0  0  0  0  0  0  0  0  0
   15.2567   -6.5403   -8.0728 C   0  0  0  0  0  0  0  0  0  0  0  0
   14.1101   -7.0687   -7.3696 C   0  0  0  0  0  0  0  0  0  0  0  0
   13.8270   -8.4129   -7.2147 C   0  0  0  0  0  0  0  0  0  0  0  0
   12.6754   -8.5509   -6.5435 N   0  0  0  0  0  0  0  0  0  0  0  0
   12.2095   -7.3285   -6.2612 C   0  0  0  0  0  0  0  0  0  0  0  0
   11.0910   -6.8745   -5.5862 C   0  0  0  0  0  0  0  0  0  0  0  0
   10.8433   -5.5265   -5.4113 C   0  0  0  0  0  0  0  0  0  0  0  0
   11.7386   -4.6063   -5.9254 C   0  0  0  0  0  0  0  0  0  0  0  0
   12.8405   -5.0275   -6.5907 C   0  0  0  0  0  0  0  0  0  0  0  0
   13.0896   -6.3737   -6.7672 C   0  0  0  0  0  0  0  0  0  0  0  0
   14.1126   -6.1188  -10.2199 C   0  0  0  0  0  0  0  0  0  0  0  0
   14.0161   -4.7479  -10.4949 O   0  0  0  0  0  0  0  0  0  0  0  0
   13.1183   -6.8023  -10.5720 O   0  0  0  0  0  0  0  0  0  0  0  0
  2  3  1  6
  2  1  1  0
  4  2  1  0
  5  4  1  0
  5  6  1  1
  7  5  1  0
  8  7  2  0
 10  9  1  6
 10 12  1  0
 10 11  1  0
 11  7  1  0
 12 13  2  0
 14 15  1  0
 14 12  1  0
 16 17  1  0
 15 16  1  1
 17 18  2  0
 18 19  1  0
 20 19  1  0
 21 20  2  0
 22 21  1  0
 23 24  1  0
 23 22  2  0
 24 25  2  0
 25 17  1  0
 25 20  1  0
 26 27  1  0
 26 15  1  0
 28 26  2  0
M  END
$$$$
