LAW.pdb
     RDKit          3D

 28 29  0  0  1  0  0  0  0  0999 V2000
   25.1030  -15.6968  -15.8841 C   0  0  0  0  0  0  0  0  0  0  0  0
   26.4108  -16.5006  -15.8505 C   0  0  2  0  0  0  0  0  0  0  0  0
   27.1215  -16.2190  -17.1405 C   0  0  0  0  0  0  0  0  0  0  0  0
   26.0986  -17.9642  -15.6402 C   0  0  0  0  0  0  0  0  0  0  0  0
   25.9854  -18.2419  -14.1791 C   0  0  2  0  0  0  0  0  0  0  0  0
   26.4859  -17.1162  -13.4443 N   0  0  0  0  0  0  0  0  0  0  0  0
   26.5843  -19.5231  -13.7628 C   0  0  0  0  0  0  0  0  0  0  0  0
   26.3147  -20.5823  -14.3843 O   0  0  0  0  0  0  0  0  0  0  0  0
   29.5283  -20.9345  -12.3821 C   0  0  0  0  0  0  0  0  0  0  0  0
   28.0316  -20.9312  -12.2559 C   0  0  2  0  0  0  0  0  0  0  0  0
   27.4848  -19.6564  -12.6610 N   0  0  0  0  0  0  0  0  0  0  0  0
   27.6779  -21.2579  -10.8460 C   0  0  0  0  0  0  0  0  0  0  0  0
   27.9240  -22.4126  -10.3497 O   0  0  0  0  0  0  0  0  0  0  0  0
   27.0599  -20.3386   -9.9761 N   0  0  0  0  0  0  0  0  0  0  0  0
   25.9829  -20.7554   -9.0616 C   0  0  1  0  0  0  0  0  0  0  0  0
   25.8295  -19.5924   -8.1216 C   0  0  0  0  0  0  0  0  0  0  0  0
   26.9693  -19.2134   -7.3181 C   0  0  0  0  0  0  0  0  0  0  0  0
   27.6091  -17.9895   -7.3796 C   0  0  0  0  0  0  0  0  0  0  0  0
   28.6437  -17.9848   -6.5278 N   0  0  0  0  0  0  0  0  0  0  0  0
   28.6860  -19.1754   -5.9181 C   0  0  0  0  0  0  0  0  0  0  0  0
   29.5152  -19.7148   -4.9515 C   0  0  0  0  0  0  0  0  0  0  0  0
   29.3294  -20.9943   -4.4645 C   0  0  0  0  0  0  0  0  0  0  0  0
   28.2858  -21.7563   -4.9572 C   0  0  0  0  0  0  0  0  0  0  0  0
   27.4613  -21.2493   -5.9045 C   0  0  0  0  0  0  0  0  0  0  0  0
   27.6453  -19.9715   -6.3931 C   0  0  0  0  0  0  0  0  0  0  0  0
   24.7478  -21.0412   -9.8033 C   0  0  0  0  0  0  0  0  0  0  0  0
   23.7420  -21.8549   -9.2643 O   0  0  0  0  0  0  0  0  0  0  0  0
   24.5061  -20.5876  -10.9502 O   0  0  0  0  0  0  0  0  0  0  0  0
  2  3  1  6
  2  1  1  0
  4  2  1  0
  5  4  1  0
  5  6  1  1
  7  5  1  0
  8  7  2  0
 10  9  1  1
 10 12  1  0
 10 11  1  0
 11  7  1  0
 12 13  2  0
 14 15  1  0
 14 12  1  0
 16 17  1  0
 15 16  1  1
 17 18  2  0
 18 19  1  0
 20 19  1  0
 21 20  2  0
 22 21  1  0
 23 24  1  0
 23 22  2  0
 24 25  2  0
 25 17  1  0
 25 20  1  0
 26 27  1  0
 26 15  1  0
 28 26  2  0
M  END
$$$$
