EWI.pdb
     RDKit          3D

 32 33  0  0  1  0  0  0  0  0999 V2000
   28.4170  -23.5035  -15.9442 N   0  0  0  0  0  0  0  0  0  0  0  0
   27.6886  -22.2577  -15.8775 C   0  0  1  0  0  0  0  0  0  0  0  0
   26.9029  -22.0153  -17.1497 C   0  0  0  0  0  0  0  0  0  0  0  0
   27.1524  -20.6027  -17.5650 C   0  0  0  0  0  0  0  0  0  0  0  0
   28.4027  -20.4391  -18.3426 C   0  0  0  0  0  0  0  0  0  0  0  0
   28.9323  -21.3474  -19.0337 O   0  0  0  0  0  0  0  0  0  0  0  0
   26.8357  -22.2830  -14.6655 C   0  0  0  0  0  0  0  0  0  0  0  0
   26.0972  -23.2675  -14.3897 O   0  0  0  0  0  0  0  0  0  0  0  0
   29.0900  -19.2181  -18.3508 O   0  0  0  0  0  0  0  0  0  0  0  0
   26.8285  -21.1965  -13.7826 N   0  0  0  0  0  0  0  0  0  0  0  0
   25.9756  -21.0100  -12.6616 C   0  0  1  0  0  0  0  0  0  0  0  0
   26.5591  -20.0529  -11.6776 C   0  0  0  0  0  0  0  0  0  0  0  0
   27.6356  -20.6085  -10.8349 C   0  0  0  0  0  0  0  0  0  0  0  0
   28.8078  -21.1924  -11.3091 C   0  0  0  0  0  0  0  0  0  0  0  0
   29.5239  -21.5194  -10.2332 N   0  0  0  0  0  0  0  0  0  0  0  0
   28.8626  -21.1719   -9.0969 C   0  0  0  0  0  0  0  0  0  0  0  0
   29.1833  -21.3124   -7.7679 C   0  0  0  0  0  0  0  0  0  0  0  0
   28.2815  -20.8651   -6.8251 C   0  0  0  0  0  0  0  0  0  0  0  0
   27.0856  -20.2902   -7.1723 C   0  0  0  0  0  0  0  0  0  0  0  0
   26.7641  -20.1491   -8.5027 C   0  0  0  0  0  0  0  0  0  0  0  0
   27.6691  -20.5965   -9.4613 C   0  0  0  0  0  0  0  0  0  0  0  0
   24.5797  -20.6913  -13.0313 C   0  0  0  0  0  0  0  0  0  0  0  0
   24.3911  -19.6523  -13.7316 O   0  0  0  0  0  0  0  0  0  0  0  0
   21.5061  -23.1749  -16.1215 C   0  0  0  0  0  0  0  0  0  0  0  0
   22.1570  -22.1031  -15.2618 C   0  0  0  0  0  0  0  0  0  0  0  0
   21.4426  -21.9816  -13.9431 C   0  0  2  0  0  0  0  0  0  0  0  0
   20.0114  -21.4639  -14.1658 C   0  0  0  0  0  0  0  0  0  0  0  0
   22.0744  -21.0390  -12.9823 C   0  0  2  0  0  0  0  0  0  0  0  0
   23.4505  -21.4608  -12.6587 N   0  0  0  0  0  0  0  0  0  0  0  0
   21.3124  -20.8040  -11.7359 C   0  0  0  0  0  0  0  0  0  0  0  0
   21.2646  -21.5448  -10.7439 O   0  0  0  0  0  0  0  0  0  0  0  0
   20.5504  -19.6194  -11.6380 O   0  0  0  0  0  0  0  0  0  0  0  0
  2  1  1  6
  2  3  1  0
  3  4  1  0
  4  5  1  0
  5  6  2  0
  7  8  2  0
  7  2  1  0
  9  5  1  0
 10  7  1  0
 11 10  1  0
 11 12  1  1
 13 14  2  0
 13 12  1  0
 15 14  1  0
 16 21  2  0
 16 15  1  0
 17 16  1  0
 18 19  1  0
 18 17  2  0
 19 20  2  0
 20 21  1  0
 21 13  1  0
 22 11  1  0
 22 29  1  0
 23 22  2  0
 24 25  1  0
 26 25  1  0
 26 28  1  0
 26 27  1  6
 28 29  1  1
 28 30  1  0
 30 31  2  0
 30 32  1  0
M  END
$$$$
