EWI.pdb
     RDKit          3D

 32 33  0  0  1  0  0  0  0  0999 V2000
   28.5443  -21.2968  -15.9696 N   0  0  0  0  0  0  0  0  0  0  0  0
   27.3234  -21.9697  -16.3490 C   0  0  1  0  0  0  0  0  0  0  0  0
   27.6081  -23.3585  -16.8825 C   0  0  0  0  0  0  0  0  0  0  0  0
   28.4890  -23.2043  -18.0785 C   0  0  0  0  0  0  0  0  0  0  0  0
   27.8797  -22.3755  -19.1445 C   0  0  0  0  0  0  0  0  0  0  0  0
   26.7657  -22.6135  -19.6786 O   0  0  0  0  0  0  0  0  0  0  0  0
   26.4129  -21.9734  -15.1794 C   0  0  0  0  0  0  0  0  0  0  0  0
   25.3295  -22.6191  -15.1792 O   0  0  0  0  0  0  0  0  0  0  0  0
   28.5358  -21.2389  -19.6352 O   0  0  0  0  0  0  0  0  0  0  0  0
   26.7382  -21.2479  -14.0271 N   0  0  0  0  0  0  0  0  0  0  0  0
   25.9533  -21.1127  -12.8504 C   0  0  1  0  0  0  0  0  0  0  0  0
   26.7324  -20.5022  -11.7347 C   0  0  0  0  0  0  0  0  0  0  0  0
   26.2188  -20.7998  -10.3837 C   0  0  0  0  0  0  0  0  0  0  0  0
   25.4194  -21.8902  -10.0495 C   0  0  0  0  0  0  0  0  0  0  0  0
   25.2157  -21.8148   -8.7342 N   0  0  0  0  0  0  0  0  0  0  0  0
   25.8471  -20.7277   -8.2156 C   0  0  0  0  0  0  0  0  0  0  0  0
   25.9204  -20.2314   -6.9361 C   0  0  0  0  0  0  0  0  0  0  0  0
   26.6419  -19.0757   -6.7217 C   0  0  0  0  0  0  0  0  0  0  0  0
   27.2817  -18.4139   -7.7385 C   0  0  0  0  0  0  0  0  0  0  0  0
   27.2088  -18.9105   -9.0197 C   0  0  0  0  0  0  0  0  0  0  0  0
   26.4838  -20.0774   -9.2452 C   0  0  0  0  0  0  0  0  0  0  0  0
   24.6509  -20.4526  -13.0849 C   0  0  0  0  0  0  0  0  0  0  0  0
   24.6772  -19.2645  -13.5247 O   0  0  0  0  0  0  0  0  0  0  0  0
   21.4748  -21.3415  -16.7260 C   0  0  0  0  0  0  0  0  0  0  0  0
   22.2217  -20.7003  -15.5673 C   0  0  0  0  0  0  0  0  0  0  0  0
   21.4321  -20.8360  -14.2937 C   0  0  2  0  0  0  0  0  0  0  0  0
   20.1214  -20.0379  -14.3997 C   0  0  0  0  0  0  0  0  0  0  0  0
   22.1243  -20.3275  -13.0800 C   0  0  2  0  0  0  0  0  0  0  0  0
   23.3889  -21.0522  -12.8528 N   0  0  0  0  0  0  0  0  0  0  0  0
   21.3121  -20.3300  -11.8431 C   0  0  0  0  0  0  0  0  0  0  0  0
   21.1235  -21.2881  -11.0806 O   0  0  0  0  0  0  0  0  0  0  0  0
   20.6730  -19.1284  -11.4672 O   0  0  0  0  0  0  0  0  0  0  0  0
  2  1  1  1
  2  3  1  0
  3  4  1  0
  4  5  1  0
  5  6  2  0
  7  8  2  0
  7  2  1  0
  9  5  1  0
 10  7  1  0
 11 10  1  0
 11 12  1  1
 13 14  2  0
 13 12  1  0
 15 14  1  0
 16 21  2  0
 16 15  1  0
 17 16  1  0
 18 19  1  0
 18 17  2  0
 19 20  2  0
 20 21  1  0
 21 13  1  0
 22 11  1  0
 22 29  1  0
 23 22  2  0
 24 25  1  0
 26 25  1  0
 26 28  1  0
 26 27  1  6
 28 29  1  1
 28 30  1  0
 30 31  2  0
 30 32  1  0
M  END
$$$$
