EWI.pdb
     RDKit          3D

 32 33  0  0  1  0  0  0  0  0999 V2000
   26.4631  -19.6591  -15.0249 N   0  0  0  0  0  0  0  0  0  0  0  0
   27.2134  -20.3156  -13.9793 C   0  0  1  0  0  0  0  0  0  0  0  0
   28.6938  -20.0186  -14.1000 C   0  0  0  0  0  0  0  0  0  0  0  0
   29.1511  -20.5604  -15.4144 C   0  0  0  0  0  0  0  0  0  0  0  0
   29.3165  -22.0325  -15.4089 C   0  0  0  0  0  0  0  0  0  0  0  0
   28.3769  -22.8514  -15.2365 O   0  0  0  0  0  0  0  0  0  0  0  0
   26.6447  -19.9065  -12.6731 C   0  0  0  0  0  0  0  0  0  0  0  0
   26.5385  -18.6941  -12.3418 O   0  0  0  0  0  0  0  0  0  0  0  0
   30.5760  -22.6154  -15.6019 O   0  0  0  0  0  0  0  0  0  0  0  0
   26.2044  -20.8717  -11.7595 N   0  0  0  0  0  0  0  0  0  0  0  0
   25.5464  -20.6414  -10.5214 C   0  0  1  0  0  0  0  0  0  0  0  0
   24.2061  -21.2944  -10.4792 C   0  0  0  0  0  0  0  0  0  0  0  0
   23.1031  -20.4835  -11.0302 C   0  0  0  0  0  0  0  0  0  0  0  0
   22.2120  -19.7216  -10.2785 C   0  0  0  0  0  0  0  0  0  0  0  0
   21.4084  -19.1159  -11.1530 N   0  0  0  0  0  0  0  0  0  0  0  0
   21.7457  -19.4569  -12.4256 C   0  0  0  0  0  0  0  0  0  0  0  0
   21.2140  -19.1039  -13.6427 C   0  0  0  0  0  0  0  0  0  0  0  0
   21.7770  -19.6370  -14.7834 C   0  0  0  0  0  0  0  0  0  0  0  0
   22.8415  -20.5008  -14.7383 C   0  0  0  0  0  0  0  0  0  0  0  0
   23.3743  -20.8543  -13.5200 C   0  0  0  0  0  0  0  0  0  0  0  0
   22.8132  -20.3200  -12.3634 C   0  0  0  0  0  0  0  0  0  0  0  0
   26.3853  -20.9500   -9.3433 C   0  0  0  0  0  0  0  0  0  0  0  0
   27.0631  -22.0199   -9.3818 O   0  0  0  0  0  0  0  0  0  0  0  0
   30.2344  -18.1724   -6.9732 C   0  0  0  0  0  0  0  0  0  0  0  0
   29.3787  -19.3352   -7.4500 C   0  0  0  0  0  0  0  0  0  0  0  0
   28.1820  -19.5088   -6.5546 C   0  0  2  0  0  0  0  0  0  0  0  0
   28.6367  -19.9047   -5.1395 C   0  0  0  0  0  0  0  0  0  0  0  0
   27.2320  -20.5663   -6.9905 C   0  0  2  0  0  0  0  0  0  0  0  0
   26.4809  -20.1389   -8.1861 N   0  0  0  0  0  0  0  0  0  0  0  0
   26.2945  -21.0404   -5.9484 C   0  0  0  0  0  0  0  0  0  0  0  0
   26.5788  -21.6972   -4.9371 O   0  0  0  0  0  0  0  0  0  0  0  0
   24.9259  -20.7262   -6.0954 O   0  0  0  0  0  0  0  0  0  0  0  0
  2  1  1  6
  2  3  1  0
  3  4  1  0
  4  5  1  0
  5  6  2  0
  7  8  2  0
  7  2  1  0
  9  5  1  0
 10  7  1  0
 11 10  1  0
 11 12  1  6
 13 14  2  0
 13 12  1  0
 15 14  1  0
 16 21  2  0
 16 15  1  0
 17 16  1  0
 18 19  1  0
 18 17  2  0
 19 20  2  0
 20 21  1  0
 21 13  1  0
 22 11  1  0
 22 29  1  0
 23 22  2  0
 24 25  1  0
 26 25  1  0
 26 28  1  0
 26 27  1  1
 28 29  1  6
 28 30  1  0
 30 31  2  0
 30 32  1  0
M  END
$$$$
