EWI.pdb
     RDKit          3D

 32 33  0  0  1  0  0  0  0  0999 V2000
   28.3496  -21.5772  -15.2508 N   0  0  0  0  0  0  0  0  0  0  0  0
   28.3485  -20.5813  -14.2041 C   0  0  1  0  0  0  0  0  0  0  0  0
   27.9280  -19.2277  -14.7383 C   0  0  0  0  0  0  0  0  0  0  0  0
   28.3876  -19.1464  -16.1569 C   0  0  0  0  0  0  0  0  0  0  0  0
   27.2695  -19.1253  -17.1284 C   0  0  0  0  0  0  0  0  0  0  0  0
   27.0872  -19.9950  -18.0193 O   0  0  0  0  0  0  0  0  0  0  0  0
   27.4810  -21.0653  -13.1040 C   0  0  0  0  0  0  0  0  0  0  0  0
   26.4075  -21.6891  -13.3258 O   0  0  0  0  0  0  0  0  0  0  0  0
   26.3183  -18.0967  -17.1081 O   0  0  0  0  0  0  0  0  0  0  0  0
   27.8376  -20.8378  -11.7694 N   0  0  0  0  0  0  0  0  0  0  0  0
   27.0403  -21.0760  -10.6177 C   0  0  1  0  0  0  0  0  0  0  0  0
   27.8348  -20.9520   -9.3615 C   0  0  0  0  0  0  0  0  0  0  0  0
   27.0361  -20.7205   -8.1424 C   0  0  0  0  0  0  0  0  0  0  0  0
   25.6820  -21.0137   -8.0005 C   0  0  0  0  0  0  0  0  0  0  0  0
   25.3608  -20.6973   -6.7460 N   0  0  0  0  0  0  0  0  0  0  0  0
   26.4462  -20.2161   -6.0830 C   0  0  0  0  0  0  0  0  0  0  0  0
   26.6087  -19.7573   -4.7977 C   0  0  0  0  0  0  0  0  0  0  0  0
   27.8559  -19.3106   -4.4139 C   0  0  0  0  0  0  0  0  0  0  0  0
   28.9279  -19.3109   -5.2696 C   0  0  0  0  0  0  0  0  0  0  0  0
   28.7657  -19.7703   -6.5564 C   0  0  0  0  0  0  0  0  0  0  0  0
   27.5106  -20.2243   -6.9521 C   0  0  0  0  0  0  0  0  0  0  0  0
   25.7869  -20.2914  -10.5976 C   0  0  0  0  0  0  0  0  0  0  0  0
   25.8931  -19.0319  -10.6880 O   0  0  0  0  0  0  0  0  0  0  0  0
   22.6557  -18.8063  -14.5685 C   0  0  0  0  0  0  0  0  0  0  0  0
   22.3567  -19.0915  -13.1053 C   0  0  0  0  0  0  0  0  0  0  0  0
   23.4825  -19.8704  -12.4810 C   0  0  2  0  0  0  0  0  0  0  0  0
   23.6345  -21.2303  -13.1835 C   0  0  0  0  0  0  0  0  0  0  0  0
   23.2984  -20.1734  -11.0370 C   0  0  2  0  0  0  0  0  0  0  0  0
   24.4890  -20.8469  -10.4845 N   0  0  0  0  0  0  0  0  0  0  0  0
   22.0816  -20.9471  -10.7052 C   0  0  0  0  0  0  0  0  0  0  0  0
   20.9122  -20.5385  -10.7294 O   0  0  0  0  0  0  0  0  0  0  0  0
   22.2385  -22.2954  -10.3167 O   0  0  0  0  0  0  0  0  0  0  0  0
  2  1  1  6
  2  3  1  0
  3  4  1  0
  4  5  1  0
  5  6  2  0
  7  8  2  0
  7  2  1  0
  9  5  1  0
 10  7  1  0
 11 10  1  0
 11 12  1  1
 13 14  2  0
 13 12  1  0
 15 14  1  0
 16 21  2  0
 16 15  1  0
 17 16  1  0
 18 19  1  0
 18 17  2  0
 19 20  2  0
 20 21  1  0
 21 13  1  0
 22 11  1  0
 22 29  1  0
 23 22  2  0
 24 25  1  0
 26 25  1  0
 26 28  1  0
 26 27  1  6
 28 29  1  6
 28 30  1  0
 30 31  2  0
 30 32  1  0
M  END
$$$$
