EWI.pdb
     RDKit          3D

 32 33  0  0  1  0  0  0  0  0999 V2000
   14.9019  -21.0273    1.0496 N   0  0  0  0  0  0  0  0  0  0  0  0
   14.5414  -20.4988    2.3449 C   0  0  1  0  0  0  0  0  0  0  0  0
   13.7003  -21.4887    3.1241 C   0  0  0  0  0  0  0  0  0  0  0  0
   12.3967  -21.6259    2.4085 C   0  0  0  0  0  0  0  0  0  0  0  0
   11.5166  -20.4461    2.5752 C   0  0  0  0  0  0  0  0  0  0  0  0
   11.8076  -19.4359    3.2666 O   0  0  0  0  0  0  0  0  0  0  0  0
   15.7859  -20.1130    3.0516 C   0  0  0  0  0  0  0  0  0  0  0  0
   16.8948  -20.6565    2.7951 O   0  0  0  0  0  0  0  0  0  0  0  0
   10.2646  -20.3885    1.9488 O   0  0  0  0  0  0  0  0  0  0  0  0
   15.7607  -19.1196    4.0377 N   0  0  0  0  0  0  0  0  0  0  0  0
   16.8589  -18.6479    4.8060 C   0  0  1  0  0  0  0  0  0  0  0  0
   16.5901  -17.2986    5.3821 C   0  0  0  0  0  0  0  0  0  0  0  0
   17.0632  -16.1677    4.5607 C   0  0  0  0  0  0  0  0  0  0  0  0
   16.7518  -14.8282    4.7810 C   0  0  0  0  0  0  0  0  0  0  0  0
   17.4087  -14.1342    3.8514 N   0  0  0  0  0  0  0  0  0  0  0  0
   18.1229  -14.9687    3.0497 C   0  0  0  0  0  0  0  0  0  0  0  0
   18.9338  -14.7304    1.9659 C   0  0  0  0  0  0  0  0  0  0  0  0
   19.5215  -15.8083    1.3375 C   0  0  0  0  0  0  0  0  0  0  0  0
   19.3218  -17.0983    1.7586 C   0  0  0  0  0  0  0  0  0  0  0  0
   18.5102  -17.3373    2.8437 C   0  0  0  0  0  0  0  0  0  0  0  0
   17.9138  -16.2552    3.4851 C   0  0  0  0  0  0  0  0  0  0  0  0
   17.3406  -19.6258    5.8053 C   0  0  0  0  0  0  0  0  0  0  0  0
   16.6619  -20.6862    5.9488 O   0  0  0  0  0  0  0  0  0  0  0  0
   19.8118  -24.1909    6.8929 C   0  0  0  0  0  0  0  0  0  0  0  0
   19.7318  -22.8960    7.6856 C   0  0  0  0  0  0  0  0  0  0  0  0
   19.2256  -21.7777    6.8156 C   0  0  2  0  0  0  0  0  0  0  0  0
   20.2634  -21.4443    5.7303 C   0  0  0  0  0  0  0  0  0  0  0  0
   18.9630  -20.5040    7.5363 C   0  0  2  0  0  0  0  0  0  0  0  0
   18.4974  -19.4586    6.6054 N   0  0  0  0  0  0  0  0  0  0  0  0
   20.0917  -19.9928    8.3453 C   0  0  0  0  0  0  0  0  0  0  0  0
   20.5692  -20.5107    9.3645 O   0  0  0  0  0  0  0  0  0  0  0  0
   20.7092  -18.7906    7.9369 O   0  0  0  0  0  0  0  0  0  0  0  0
  2  1  1  6
  2  3  1  0
  3  4  1  0
  4  5  1  0
  5  6  2  0
  7  8  2  0
  7  2  1  0
  9  5  1  0
 10  7  1  0
 11 10  1  0
 11 12  1  1
 13 14  2  0
 13 12  1  0
 15 14  1  0
 16 21  2  0
 16 15  1  0
 17 16  1  0
 18 19  1  0
 18 17  2  0
 19 20  2  0
 20 21  1  0
 21 13  1  0
 22 11  1  0
 22 29  1  0
 23 22  2  0
 24 25  1  0
 26 25  1  0
 26 28  1  0
 26 27  1  6
 28 29  1  6
 28 30  1  0
 30 31  2  0
 30 32  1  0
M  END
$$$$
