EWI.pdb
     RDKit          3D

 32 33  0  0  1  0  0  0  0  0999 V2000
   29.4014  -23.1279  -15.7518 N   0  0  0  0  0  0  0  0  0  0  0  0
   28.3696  -22.1390  -15.9628 C   0  0  1  0  0  0  0  0  0  0  0  0
   27.6553  -22.3670  -17.2789 C   0  0  0  0  0  0  0  0  0  0  0  0
   28.6934  -22.3826  -18.3523 C   0  0  0  0  0  0  0  0  0  0  0  0
   29.1404  -21.0264  -18.7466 C   0  0  0  0  0  0  0  0  0  0  0  0
   28.3664  -20.0555  -18.9500 O   0  0  0  0  0  0  0  0  0  0  0  0
   27.4564  -22.1648  -14.7956 C   0  0  0  0  0  0  0  0  0  0  0  0
   26.2882  -22.6339  -14.8725 O   0  0  0  0  0  0  0  0  0  0  0  0
   30.5008  -20.7402  -18.9219 O   0  0  0  0  0  0  0  0  0  0  0  0
   27.8749  -21.6604  -13.5585 N   0  0  0  0  0  0  0  0  0  0  0  0
   27.0875  -21.5069  -12.3858 C   0  0  1  0  0  0  0  0  0  0  0  0
   27.9013  -21.0203  -11.2345 C   0  0  0  0  0  0  0  0  0  0  0  0
   27.1263  -20.6851  -10.0243 C   0  0  0  0  0  0  0  0  0  0  0  0
   25.7407  -20.5563   -9.9669 C   0  0  0  0  0  0  0  0  0  0  0  0
   25.4425  -20.2932   -8.6944 N   0  0  0  0  0  0  0  0  0  0  0  0
   26.5727  -20.2479   -7.9396 C   0  0  0  0  0  0  0  0  0  0  0  0
   26.7751  -20.0040   -6.6023 C   0  0  0  0  0  0  0  0  0  0  0  0
   28.0683  -20.0114   -6.1230 C   0  0  0  0  0  0  0  0  0  0  0  0
   29.1475  -20.2524   -6.9346 C   0  0  0  0  0  0  0  0  0  0  0  0
   28.9454  -20.4969   -8.2735 C   0  0  0  0  0  0  0  0  0  0  0  0
   27.6432  -20.4927   -8.7658 C   0  0  0  0  0  0  0  0  0  0  0  0
   25.8539  -20.7210  -12.6045 C   0  0  0  0  0  0  0  0  0  0  0  0
   25.9948  -19.5018  -12.9196 O   0  0  0  0  0  0  0  0  0  0  0  0
   21.8618  -22.0557  -15.8692 C   0  0  0  0  0  0  0  0  0  0  0  0
   22.3202  -21.9626  -14.4226 C   0  0  0  0  0  0  0  0  0  0  0  0
   22.8544  -20.5872  -14.1281 C   0  0  2  0  0  0  0  0  0  0  0  0
   24.0486  -20.2786  -15.0472 C   0  0  0  0  0  0  0  0  0  0  0  0
   23.3482  -20.4002  -12.7382 C   0  0  2  0  0  0  0  0  0  0  0  0
   24.5389  -21.2337  -12.4859 N   0  0  0  0  0  0  0  0  0  0  0  0
   22.3421  -20.6230  -11.6762 C   0  0  0  0  0  0  0  0  0  0  0  0
   22.3191  -21.5536  -10.8586 O   0  0  0  0  0  0  0  0  0  0  0  0
   21.2858  -19.6936  -11.5581 O   0  0  0  0  0  0  0  0  0  0  0  0
  2  1  1  1
  2  3  1  0
  3  4  1  0
  4  5  1  0
  5  6  2  0
  7  8  2  0
  7  2  1  0
  9  5  1  0
 10  7  1  0
 11 10  1  0
 11 12  1  1
 13 14  2  0
 13 12  1  0
 15 14  1  0
 16 21  2  0
 16 15  1  0
 17 16  1  0
 18 19  1  0
 18 17  2  0
 19 20  2  0
 20 21  1  0
 21 13  1  0
 22 11  1  0
 22 29  1  0
 23 22  2  0
 24 25  1  0
 26 25  1  0
 26 28  1  0
 26 27  1  6
 28 29  1  1
 28 30  1  0
 30 31  2  0
 30 32  1  0
M  END
$$$$
