EWI.pdb
     RDKit          3D

 32 33  0  0  1  0  0  0  0  0999 V2000
   26.3932  -21.9119  -14.5854 N   0  0  0  0  0  0  0  0  0  0  0  0
   26.4229  -20.7176  -13.7731 C   0  0  1  0  0  0  0  0  0  0  0  0
   25.6439  -19.5939  -14.4249 C   0  0  0  0  0  0  0  0  0  0  0  0
   24.3187  -20.1488  -14.8328 C   0  0  0  0  0  0  0  0  0  0  0  0
   24.0804  -20.0673  -16.2926 C   0  0  0  0  0  0  0  0  0  0  0  0
   24.6443  -19.2437  -17.0586 O   0  0  0  0  0  0  0  0  0  0  0  0
   25.9212  -21.0629  -12.4217 C   0  0  0  0  0  0  0  0  0  0  0  0
   25.0054  -21.9123  -12.2468 O   0  0  0  0  0  0  0  0  0  0  0  0
   23.1795  -20.9352  -16.9238 O   0  0  0  0  0  0  0  0  0  0  0  0
   26.4602  -20.4440  -11.2875 N   0  0  0  0  0  0  0  0  0  0  0  0
   26.1075  -20.6843   -9.9322 C   0  0  1  0  0  0  0  0  0  0  0  0
   27.1332  -20.1474   -8.9918 C   0  0  0  0  0  0  0  0  0  0  0  0
   26.8520  -20.3882   -7.5633 C   0  0  0  0  0  0  0  0  0  0  0  0
   25.8351  -21.2020   -7.0700 C   0  0  0  0  0  0  0  0  0  0  0  0
   25.9521  -21.1826   -5.7422 N   0  0  0  0  0  0  0  0  0  0  0  0
   26.9949  -20.3945   -5.3671 C   0  0  0  0  0  0  0  0  0  0  0  0
   27.4952  -20.0593   -4.1317 C   0  0  0  0  0  0  0  0  0  0  0  0
   28.5783  -19.2075   -4.0723 C   0  0  0  0  0  0  0  0  0  0  0  0
   29.1644  -18.6901   -5.1993 C   0  0  0  0  0  0  0  0  0  0  0  0
   28.6640  -19.0256   -6.4363 C   0  0  0  0  0  0  0  0  0  0  0  0
   27.5717  -19.8860   -6.5060 C   0  0  0  0  0  0  0  0  0  0  0  0
   24.7299  -20.2621   -9.5992 C   0  0  0  0  0  0  0  0  0  0  0  0
   24.4480  -19.0368   -9.7566 O   0  0  0  0  0  0  0  0  0  0  0  0
   19.8708  -20.0321  -11.9910 C   0  0  0  0  0  0  0  0  0  0  0  0
   20.3299  -20.1184  -10.5442 C   0  0  0  0  0  0  0  0  0  0  0  0
   21.7495  -20.6122  -10.4719 C   0  0  2  0  0  0  0  0  0  0  0  0
   21.8489  -22.0196  -11.0845 C   0  0  0  0  0  0  0  0  0  0  0  0
   22.2950  -20.7259   -9.0934 C   0  0  2  0  0  0  0  0  0  0  0  0
   23.7147  -21.1259   -9.1205 N   0  0  0  0  0  0  0  0  0  0  0  0
   21.5371  -21.6164   -8.1867 C   0  0  0  0  0  0  0  0  0  0  0  0
   21.9424  -22.6649   -7.6659 O   0  0  0  0  0  0  0  0  0  0  0  0
   20.2100  -21.2590   -7.8630 O   0  0  0  0  0  0  0  0  0  0  0  0
  2  1  1  6
  2  3  1  0
  3  4  1  0
  4  5  1  0
  5  6  2  0
  7  8  2  0
  7  2  1  0
  9  5  1  0
 10  7  1  0
 11 10  1  0
 11 12  1  1
 13 14  2  0
 13 12  1  0
 15 14  1  0
 16 21  2  0
 16 15  1  0
 17 16  1  0
 18 19  1  0
 18 17  2  0
 19 20  2  0
 20 21  1  0
 21 13  1  0
 22 11  1  0
 22 29  1  0
 23 22  2  0
 24 25  1  0
 26 25  1  0
 26 28  1  0
 26 27  1  1
 28 29  1  6
 28 30  1  0
 30 31  2  0
 30 32  1  0
M  END
$$$$
