EWI.pdb
     RDKit          3D

 32 33  0  0  1  0  0  0  0  0999 V2000
   27.3564  -19.9111  -14.4954 N   0  0  0  0  0  0  0  0  0  0  0  0
   26.1229  -20.5391  -14.9093 C   0  0  1  0  0  0  0  0  0  0  0  0
   26.3562  -21.4957  -16.0604 C   0  0  0  0  0  0  0  0  0  0  0  0
   26.7369  -20.6768  -17.2498 C   0  0  0  0  0  0  0  0  0  0  0  0
   25.5676  -20.2037  -18.0265 C   0  0  0  0  0  0  0  0  0  0  0  0
   24.7891  -20.9572  -18.6665 O   0  0  0  0  0  0  0  0  0  0  0  0
   25.5154  -21.1933  -13.7260 C   0  0  0  0  0  0  0  0  0  0  0  0
   25.1998  -22.4144  -13.7272 O   0  0  0  0  0  0  0  0  0  0  0  0
   25.2531  -18.8400  -18.0942 O   0  0  0  0  0  0  0  0  0  0  0  0
   25.2726  -20.4596  -12.5587 N   0  0  0  0  0  0  0  0  0  0  0  0
   24.6649  -20.9291  -11.3632 C   0  0  1  0  0  0  0  0  0  0  0  0
   25.2594  -20.2895  -10.1541 C   0  0  0  0  0  0  0  0  0  0  0  0
   26.5907  -20.7996   -9.7733 C   0  0  0  0  0  0  0  0  0  0  0  0
   27.3567  -21.6875  -10.5248 C   0  0  0  0  0  0  0  0  0  0  0  0
   28.4972  -21.8561   -9.8554 N   0  0  0  0  0  0  0  0  0  0  0  0
   28.4930  -21.1180   -8.7133 C   0  0  0  0  0  0  0  0  0  0  0  0
   29.4206  -20.9733   -7.7095 C   0  0  0  0  0  0  0  0  0  0  0  0
   29.1154  -20.1457   -6.6493 C   0  0  0  0  0  0  0  0  0  0  0  0
   27.9246  -19.4699   -6.5684 C   0  0  0  0  0  0  0  0  0  0  0  0
   26.9957  -19.6143   -7.5732 C   0  0  0  0  0  0  0  0  0  0  0  0
   27.2958  -20.4466   -8.6480 C   0  0  0  0  0  0  0  0  0  0  0  0
   23.1876  -20.8681  -11.3913 C   0  0  0  0  0  0  0  0  0  0  0  0
   22.6609  -19.7380  -11.6173 O   0  0  0  0  0  0  0  0  0  0  0  0
   20.4855  -23.2198  -14.8841 C   0  0  0  0  0  0  0  0  0  0  0  0
   20.8615  -22.2134  -13.8084 C   0  0  0  0  0  0  0  0  0  0  0  0
   20.3734  -22.6759  -12.4623 C   0  0  2  0  0  0  0  0  0  0  0  0
   18.8381  -22.6024  -12.4057 C   0  0  0  0  0  0  0  0  0  0  0  0
   20.8648  -21.8675  -11.3153 C   0  0  2  0  0  0  0  0  0  0  0  0
   22.3302  -21.9763  -11.1840 N   0  0  0  0  0  0  0  0  0  0  0  0
   20.2189  -22.1583  -10.0161 C   0  0  0  0  0  0  0  0  0  0  0  0
   20.6047  -22.9658   -9.1593 O   0  0  0  0  0  0  0  0  0  0  0  0
   19.0372  -21.4571   -9.6915 O   0  0  0  0  0  0  0  0  0  0  0  0
  2  1  1  1
  2  3  1  0
  3  4  1  0
  4  5  1  0
  5  6  2  0
  7  8  2  0
  7  2  1  0
  9  5  1  0
 10  7  1  0
 11 10  1  0
 11 12  1  1
 13 14  2  0
 13 12  1  0
 15 14  1  0
 16 21  2  0
 16 15  1  0
 17 16  1  0
 18 19  1  0
 18 17  2  0
 19 20  2  0
 20 21  1  0
 21 13  1  0
 22 11  1  0
 22 29  1  0
 23 22  2  0
 24 25  1  0
 26 25  1  0
 26 28  1  0
 26 27  1  6
 28 29  1  1
 28 30  1  0
 30 31  2  0
 30 32  1  0
M  END
$$$$
