EWI.pdb
     RDKit          3D

 32 33  0  0  1  0  0  0  0  0999 V2000
   27.9625  -23.5554  -16.8034 N   0  0  0  0  0  0  0  0  0  0  0  0
   27.5759  -22.2311  -16.3743 C   0  0  1  0  0  0  0  0  0  0  0  0
   26.7472  -21.5338  -17.4333 C   0  0  0  0  0  0  0  0  0  0  0  0
   27.6779  -21.1178  -18.5247 C   0  0  0  0  0  0  0  0  0  0  0  0
   28.5751  -20.0073  -18.1298 C   0  0  0  0  0  0  0  0  0  0  0  0
   29.7598  -20.1589  -17.7338 O   0  0  0  0  0  0  0  0  0  0  0  0
   26.8735  -22.3510  -15.0746 C   0  0  0  0  0  0  0  0  0  0  0  0
   25.8359  -23.0552  -14.9392 O   0  0  0  0  0  0  0  0  0  0  0  0
   28.1369  -18.6772  -18.1768 O   0  0  0  0  0  0  0  0  0  0  0  0
   27.3522  -21.6741  -13.9465 N   0  0  0  0  0  0  0  0  0  0  0  0
   26.7095  -21.5505  -12.6854 C   0  0  1  0  0  0  0  0  0  0  0  0
   27.6207  -20.9718  -11.6561 C   0  0  0  0  0  0  0  0  0  0  0  0
   26.9937  -20.7175  -10.3447 C   0  0  0  0  0  0  0  0  0  0  0  0
   25.6236  -20.6204  -10.1138 C   0  0  0  0  0  0  0  0  0  0  0  0
   25.4784  -20.4316   -8.8021 N   0  0  0  0  0  0  0  0  0  0  0  0
   26.6911  -20.4033   -8.1875 C   0  0  0  0  0  0  0  0  0  0  0  0
   27.0509  -20.2269   -6.8729 C   0  0  0  0  0  0  0  0  0  0  0  0
   28.3927  -20.2332   -6.5540 C   0  0  0  0  0  0  0  0  0  0  0  0
   29.3687  -20.4085   -7.5017 C   0  0  0  0  0  0  0  0  0  0  0  0
   29.0089  -20.5855   -8.8179 C   0  0  0  0  0  0  0  0  0  0  0  0
   27.6567  -20.5818   -9.1488 C   0  0  0  0  0  0  0  0  0  0  0  0
   25.3993  -20.8684  -12.7574 C   0  0  0  0  0  0  0  0  0  0  0  0
   25.4065  -19.6338  -13.0427 O   0  0  0  0  0  0  0  0  0  0  0  0
   22.4545  -21.1008  -16.5248 C   0  0  0  0  0  0  0  0  0  0  0  0
   23.0886  -20.6344  -15.2241 C   0  0  0  0  0  0  0  0  0  0  0  0
   22.2783  -21.1041  -14.0464 C   0  0  2  0  0  0  0  0  0  0  0  0
   20.8919  -20.4381  -14.0624 C   0  0  0  0  0  0  0  0  0  0  0  0
   22.8712  -20.7842  -12.7210 C   0  0  2  0  0  0  0  0  0  0  0  0
   24.1497  -21.4953  -12.5306 N   0  0  0  0  0  0  0  0  0  0  0  0
   21.9848  -21.0204  -11.5600 C   0  0  0  0  0  0  0  0  0  0  0  0
   21.8017  -22.0955  -10.9721 O   0  0  0  0  0  0  0  0  0  0  0  0
   21.2586  -19.9239  -11.0463 O   0  0  0  0  0  0  0  0  0  0  0  0
  2  1  1  6
  2  3  1  0
  3  4  1  0
  4  5  1  0
  5  6  2  0
  7  8  2  0
  7  2  1  0
  9  5  1  0
 10  7  1  0
 11 10  1  0
 11 12  1  1
 13 14  2  0
 13 12  1  0
 15 14  1  0
 16 21  2  0
 16 15  1  0
 17 16  1  0
 18 19  1  0
 18 17  2  0
 19 20  2  0
 20 21  1  0
 21 13  1  0
 22 11  1  0
 22 29  1  0
 23 22  2  0
 24 25  1  0
 26 25  1  0
 26 28  1  0
 26 27  1  1
 28 29  1  1
 28 30  1  0
 30 31  2  0
 30 32  1  0
M  END
$$$$
