EWI.pdb
     RDKit          3D

 32 33  0  0  1  0  0  0  0  0999 V2000
   28.7550  -21.4564  -15.0226 N   0  0  0  0  0  0  0  0  0  0  0  0
   28.4644  -20.4575  -14.0202 C   0  0  1  0  0  0  0  0  0  0  0  0
   28.2105  -19.1052  -14.6538 C   0  0  0  0  0  0  0  0  0  0  0  0
   27.4187  -19.3382  -15.8984 C   0  0  0  0  0  0  0  0  0  0  0  0
   26.0099  -18.8956  -15.7808 C   0  0  0  0  0  0  0  0  0  0  0  0
   25.5983  -18.0546  -14.9403 O   0  0  0  0  0  0  0  0  0  0  0  0
   27.3249  -20.9378  -13.2030 C   0  0  0  0  0  0  0  0  0  0  0  0
   26.5911  -21.8930  -13.5772 O   0  0  0  0  0  0  0  0  0  0  0  0
   25.0213  -19.4091  -16.6308 O   0  0  0  0  0  0  0  0  0  0  0  0
   27.0299  -20.3328  -11.9754 N   0  0  0  0  0  0  0  0  0  0  0  0
   26.0140  -20.7111  -11.0568 C   0  0  1  0  0  0  0  0  0  0  0  0
   26.2495  -20.1295   -9.7036 C   0  0  0  0  0  0  0  0  0  0  0  0
   27.4472  -20.6397   -9.0088 C   0  0  0  0  0  0  0  0  0  0  0  0
   28.3984  -21.4911   -9.5657 C   0  0  0  0  0  0  0  0  0  0  0  0
   29.3306  -21.6726   -8.6301 N   0  0  0  0  0  0  0  0  0  0  0  0
   29.0173  -20.9777   -7.5040 C   0  0  0  0  0  0  0  0  0  0  0  0
   29.6514  -20.8609   -6.2903 C   0  0  0  0  0  0  0  0  0  0  0  0
   29.0668  -20.0766   -5.3181 C   0  0  0  0  0  0  0  0  0  0  0  0
   27.8824  -19.4166   -5.5254 C   0  0  0  0  0  0  0  0  0  0  0  0
   27.2473  -19.5330   -6.7405 C   0  0  0  0  0  0  0  0  0  0  0  0
   27.8309  -20.3216   -7.7282 C   0  0  0  0  0  0  0  0  0  0  0  0
   24.6450  -20.4768  -11.5646 C   0  0  0  0  0  0  0  0  0  0  0  0
   24.3640  -19.3012  -11.9448 O   0  0  0  0  0  0  0  0  0  0  0  0
   22.8524  -23.1342  -15.6007 C   0  0  0  0  0  0  0  0  0  0  0  0
   23.1414  -22.0891  -14.5350 C   0  0  0  0  0  0  0  0  0  0  0  0
   22.1207  -22.1669  -13.4322 C   0  0  2  0  0  0  0  0  0  0  0  0
   20.7213  -21.8513  -13.9872 C   0  0  0  0  0  0  0  0  0  0  0  0
   22.3435  -21.2113  -12.3151 C   0  0  2  0  0  0  0  0  0  0  0  0
   23.6367  -21.4675  -11.6530 N   0  0  0  0  0  0  0  0  0  0  0  0
   21.2623  -21.1571  -11.3063 C   0  0  0  0  0  0  0  0  0  0  0  0
   21.2023  -21.7968  -10.2470 O   0  0  0  0  0  0  0  0  0  0  0  0
   20.1712  -20.2946  -11.5496 O   0  0  0  0  0  0  0  0  0  0  0  0
  2  1  1  6
  2  3  1  0
  3  4  1  0
  4  5  1  0
  5  6  2  0
  7  8  2  0
  7  2  1  0
  9  5  1  0
 10  7  1  0
 11 10  1  0
 11 12  1  1
 13 14  2  0
 13 12  1  0
 15 14  1  0
 16 21  2  0
 16 15  1  0
 17 16  1  0
 18 19  1  0
 18 17  2  0
 19 20  2  0
 20 21  1  0
 21 13  1  0
 22 11  1  0
 22 29  1  0
 23 22  2  0
 24 25  1  0
 26 25  1  0
 26 28  1  0
 26 27  1  6
 28 29  1  1
 28 30  1  0
 30 31  2  0
 30 32  1  0
M  END
$$$$
