YTI.pdb
     RDKit          3D

 28 28  0  0  1  0  0  0  0  0999 V2000
    8.9973  -12.9176   16.3471 O   0  0  0  0  0  0  0  0  0  0  0  0
    8.4014  -13.3937   17.5265 C   0  0  0  0  0  0  0  0  0  0  0  0
    7.6141  -12.6001   18.3247 C   0  0  0  0  0  0  0  0  0  0  0  0
    7.0129  -13.0306   19.4880 C   0  0  0  0  0  0  0  0  0  0  0  0
    7.2268  -14.3442   19.8582 C   0  0  0  0  0  0  0  0  0  0  0  0
    6.6489  -14.9231   21.0763 C   0  0  0  0  0  0  0  0  0  0  0  0
    6.9083  -16.4009   21.2498 C   0  0  2  0  0  0  0  0  0  0  0  0
    5.8837  -17.0656   20.4282 N   0  0  0  0  0  0  0  0  0  0  0  0
    6.7507  -16.7472   22.6725 C   0  0  0  0  0  0  0  0  0  0  0  0
    5.6375  -17.1280   23.1454 O   0  0  0  0  0  0  0  0  0  0  0  0
    8.0224  -15.1814   19.0702 C   0  0  0  0  0  0  0  0  0  0  0  0
    8.6011  -14.7076   17.9185 C   0  0  0  0  0  0  0  0  0  0  0  0
    6.2232  -18.9845   24.0714 C   0  0  0  0  0  0  0  0  0  0  0  0
    7.4085  -18.6115   24.9281 C   0  0  1  0  0  0  0  0  0  0  0  0
    8.5234  -19.1862   24.2544 O   0  0  0  0  0  0  0  0  0  0  0  0
    7.6200  -17.1028   25.0279 C   0  0  2  0  0  0  0  0  0  0  0  0
    7.8104  -16.6857   23.6182 N   0  0  0  0  0  0  0  0  0  0  0  0
    8.8357  -16.8311   25.7975 C   0  0  0  0  0  0  0  0  0  0  0  0
    9.9588  -16.9880   25.2570 O   0  0  0  0  0  0  0  0  0  0  0  0
    8.3024  -12.3660   27.6322 C   0  0  0  0  0  0  0  0  0  0  0  0
    9.0567  -13.5467   27.1145 C   0  0  0  0  0  0  0  0  0  0  0  0
    9.5752  -14.4115   28.2457 C   0  0  2  0  0  0  0  0  0  0  0  0
   10.6861  -13.7753   29.0153 C   0  0  0  0  0  0  0  0  0  0  0  0
    9.9965  -15.7877   27.6982 C   0  0  2  0  0  0  0  0  0  0  0  0
    8.7790  -16.3926   27.1330 N   0  0  0  0  0  0  0  0  0  0  0  0
   10.4044  -16.5761   28.8701 C   0  0  0  0  0  0  0  0  0  0  0  0
   11.7159  -16.5793   29.2841 O   0  0  0  0  0  0  0  0  0  0  0  0
    9.5613  -17.2567   29.5077 O   0  0  0  0  0  0  0  0  0  0  0  0
  2  1  1  0
  3  2  2  0
  4  3  1  0
  5 11  1  0
  5  4  2  0
  6  5  1  0
  7  6  1  0
  7  8  1  6
  9  7  1  0
  9 10  2  0
 11 12  2  0
 12  2  1  0
 14 13  1  6
 15 14  1  0
 16 14  1  0
 16 17  1  6
 17  9  1  0
 18 16  1  0
 19 18  2  0
 21 20  1  0
 22 23  1  6
 22 21  1  0
 24 22  1  0
 24 25  1  1
 25 18  1  0
 26 27  1  0
 26 24  1  0
 28 26  2  0
M  END
$$$$
