YTI.pdb
     RDKit          3D

 28 28  0  0  1  0  0  0  0  0999 V2000
    9.2979  -12.5366   16.9310 O   0  0  0  0  0  0  0  0  0  0  0  0
    8.4616  -13.2892   17.7717 C   0  0  0  0  0  0  0  0  0  0  0  0
    7.6235  -14.2660   17.2918 C   0  0  0  0  0  0  0  0  0  0  0  0
    6.7890  -15.0247   18.0842 C   0  0  0  0  0  0  0  0  0  0  0  0
    6.8103  -14.7731   19.4424 C   0  0  0  0  0  0  0  0  0  0  0  0
    5.9663  -15.5065   20.3925 C   0  0  0  0  0  0  0  0  0  0  0  0
    6.5204  -16.8464   20.8156 C   0  0  2  0  0  0  0  0  0  0  0  0
    5.6989  -17.8392   20.1041 N   0  0  0  0  0  0  0  0  0  0  0  0
    6.3697  -16.9838   22.2740 C   0  0  0  0  0  0  0  0  0  0  0  0
    5.2286  -16.9966   22.8269 O   0  0  0  0  0  0  0  0  0  0  0  0
    7.6509  -13.7864   19.9667 C   0  0  0  0  0  0  0  0  0  0  0  0
    8.4655  -13.0553   19.1373 C   0  0  0  0  0  0  0  0  0  0  0  0
    6.8128  -19.5070   24.5356 C   0  0  0  0  0  0  0  0  0  0  0  0
    7.6712  -18.4165   25.1287 C   0  0  1  0  0  0  0  0  0  0  0  0
    8.9857  -18.7166   24.6715 O   0  0  0  0  0  0  0  0  0  0  0  0
    7.2872  -17.0228   24.6376 C   0  0  2  0  0  0  0  0  0  0  0  0
    7.4670  -17.1113   23.1688 N   0  0  0  0  0  0  0  0  0  0  0  0
    8.2148  -16.0368   25.1957 C   0  0  0  0  0  0  0  0  0  0  0  0
    9.2651  -15.7504   24.5687 O   0  0  0  0  0  0  0  0  0  0  0  0
    6.3899  -12.0122   28.4278 C   0  0  0  0  0  0  0  0  0  0  0  0
    7.0143  -13.3079   28.0248 C   0  0  0  0  0  0  0  0  0  0  0  0
    8.1804  -13.0905   27.0818 C   0  0  2  0  0  0  0  0  0  0  0  0
    7.7776  -12.5060   25.7677 C   0  0  0  0  0  0  0  0  0  0  0  0
    8.9481  -14.4115   26.8897 C   0  0  2  0  0  0  0  0  0  0  0  0
    7.9578  -15.3950   26.4208 N   0  0  0  0  0  0  0  0  0  0  0  0
    9.3982  -14.8108   28.2310 C   0  0  0  0  0  0  0  0  0  0  0  0
   10.4193  -14.1312   28.8530 O   0  0  0  0  0  0  0  0  0  0  0  0
    8.8569  -15.7770   28.8258 O   0  0  0  0  0  0  0  0  0  0  0  0
  2  1  1  0
  3  2  2  0
  4  3  1  0
  5 11  1  0
  5  4  2  0
  6  5  1  0
  7  6  1  0
  7  8  1  6
  9  7  1  0
  9 10  2  0
 11 12  2  0
 12  2  1  0
 14 13  1  6
 15 14  1  0
 16 14  1  0
 16 17  1  6
 17  9  1  0
 18 16  1  0
 19 18  2  0
 21 20  1  0
 22 23  1  6
 22 21  1  0
 24 22  1  0
 24 25  1  1
 25 18  1  0
 26 27  1  0
 26 24  1  0
 28 26  2  0
M  END
$$$$
