YTI.pdb
     RDKit          3D

 28 28  0  0  1  0  0  0  0  0999 V2000
   11.4696  -22.0640   31.2046 O   0  0  0  0  0  0  0  0  0  0  0  0
   11.5091  -21.0916   30.1919 C   0  0  0  0  0  0  0  0  0  0  0  0
   10.6988  -21.1503   29.0843 C   0  0  0  0  0  0  0  0  0  0  0  0
   10.7084  -20.2163   28.0706 C   0  0  0  0  0  0  0  0  0  0  0  0
   11.5941  -19.1633   28.1933 C   0  0  0  0  0  0  0  0  0  0  0  0
   11.7067  -18.1070   27.1812 C   0  0  0  0  0  0  0  0  0  0  0  0
   11.9334  -18.6100   25.7753 C   0  0  2  0  0  0  0  0  0  0  0  0
   13.3604  -18.9676   25.7251 N   0  0  0  0  0  0  0  0  0  0  0  0
   11.6272  -17.5255   24.8273 C   0  0  0  0  0  0  0  0  0  0  0  0
   12.4716  -16.6186   24.5581 O   0  0  0  0  0  0  0  0  0  0  0  0
   12.4343  -19.0708   29.3071 C   0  0  0  0  0  0  0  0  0  0  0  0
   12.3889  -20.0260   30.2927 C   0  0  0  0  0  0  0  0  0  0  0  0
   10.1041  -16.5961   21.3960 C   0  0  0  0  0  0  0  0  0  0  0  0
    9.1179  -16.2846   22.4952 C   0  0  1  0  0  0  0  0  0  0  0  0
    8.2890  -17.4403   22.5611 O   0  0  0  0  0  0  0  0  0  0  0  0
    9.7846  -16.0809   23.8535 C   0  0  2  0  0  0  0  0  0  0  0  0
   10.3849  -17.4042   24.1467 N   0  0  0  0  0  0  0  0  0  0  0  0
    8.7642  -15.7628   24.8543 C   0  0  0  0  0  0  0  0  0  0  0  0
    8.4679  -16.6145   25.7289 O   0  0  0  0  0  0  0  0  0  0  0  0
    7.4650  -10.4882   25.5304 C   0  0  0  0  0  0  0  0  0  0  0  0
    7.8482  -11.8947   25.8560 C   0  0  0  0  0  0  0  0  0  0  0  0
    6.6556  -12.8261   25.7740 C   0  0  2  0  0  0  0  0  0  0  0  0
    5.5775  -12.4945   26.7531 C   0  0  0  0  0  0  0  0  0  0  0  0
    7.1221  -14.2848   25.9350 C   0  0  2  0  0  0  0  0  0  0  0  0
    8.1056  -14.5197   24.8649 N   0  0  0  0  0  0  0  0  0  0  0  0
    5.9386  -15.1146   25.6668 C   0  0  0  0  0  0  0  0  0  0  0  0
    5.2136  -15.6489   26.7062 O   0  0  0  0  0  0  0  0  0  0  0  0
    5.5747  -15.3467   24.4860 O   0  0  0  0  0  0  0  0  0  0  0  0
  2  1  1  0
  3  2  2  0
  4  3  1  0
  5 11  1  0
  5  4  2  0
  6  5  1  0
  7  6  1  0
  7  8  1  1
  9  7  1  0
  9 10  2  0
 11 12  2  0
 12  2  1  0
 14 13  1  6
 15 14  1  0
 16 14  1  0
 16 17  1  1
 17  9  1  0
 18 16  1  0
 19 18  2  0
 21 20  1  0
 22 23  1  1
 22 21  1  0
 24 22  1  0
 24 25  1  6
 25 18  1  0
 26 27  1  0
 26 24  1  0
 28 26  2  0
M  END
$$$$
