YTI.pdb
     RDKit          3D

 28 28  0  0  1  0  0  0  0  0999 V2000
   17.3843  -14.3131   19.2582 O   0  0  0  0  0  0  0  0  0  0  0  0
   15.9824  -14.3071   19.3451 C   0  0  0  0  0  0  0  0  0  0  0  0
   15.3101  -14.8402   20.4177 C   0  0  0  0  0  0  0  0  0  0  0  0
   13.9370  -14.8532   20.5390 C   0  0  0  0  0  0  0  0  0  0  0  0
   13.2088  -14.2911   19.5084 C   0  0  0  0  0  0  0  0  0  0  0  0
   11.7422  -14.2470   19.5132 C   0  0  0  0  0  0  0  0  0  0  0  0
   11.0761  -15.5805   19.2697 C   0  0  2  0  0  0  0  0  0  0  0  0
   10.6588  -15.5449   17.8586 N   0  0  0  0  0  0  0  0  0  0  0  0
    9.9108  -15.6995   20.1622 C   0  0  0  0  0  0  0  0  0  0  0  0
    8.7534  -15.3303   19.7984 O   0  0  0  0  0  0  0  0  0  0  0  0
   13.8593  -13.7388   18.4007 C   0  0  0  0  0  0  0  0  0  0  0  0
   15.2304  -13.7489   18.3241 C   0  0  0  0  0  0  0  0  0  0  0  0
    8.3675  -18.6299   21.6038 C   0  0  0  0  0  0  0  0  0  0  0  0
    8.6856  -17.7258   22.7696 C   0  0  1  0  0  0  0  0  0  0  0  0
    9.9583  -18.1736   23.2242 O   0  0  0  0  0  0  0  0  0  0  0  0
    8.7964  -16.2562   22.3709 C   0  0  2  0  0  0  0  0  0  0  0  0
    9.9811  -16.2273   21.4803 N   0  0  0  0  0  0  0  0  0  0  0  0
    9.0484  -15.4453   23.5637 C   0  0  0  0  0  0  0  0  0  0  0  0
   10.2316  -15.1951   23.9037 O   0  0  0  0  0  0  0  0  0  0  0  0
    6.4493  -11.1611   27.0453 C   0  0  0  0  0  0  0  0  0  0  0  0
    7.4877  -12.2246   26.8979 C   0  0  0  0  0  0  0  0  0  0  0  0
    7.1900  -13.1291   25.7190 C   0  0  2  0  0  0  0  0  0  0  0  0
    5.8876  -13.8501   25.8407 C   0  0  0  0  0  0  0  0  0  0  0  0
    8.3537  -14.1162   25.5130 C   0  0  2  0  0  0  0  0  0  0  0  0
    7.9944  -14.9326   24.3417 N   0  0  0  0  0  0  0  0  0  0  0  0
    8.3561  -14.9842   26.6995 C   0  0  0  0  0  0  0  0  0  0  0  0
    9.0014  -14.5902   27.8484 O   0  0  0  0  0  0  0  0  0  0  0  0
    7.7698  -16.0961   26.6795 O   0  0  0  0  0  0  0  0  0  0  0  0
  2  1  1  0
  3  2  2  0
  4  3  1  0
  5 11  1  0
  5  4  2  0
  6  5  1  0
  7  6  1  0
  7  8  1  6
  9  7  1  0
  9 10  2  0
 11 12  2  0
 12  2  1  0
 14 13  1  6
 15 14  1  0
 16 14  1  0
 16 17  1  6
 17  9  1  0
 18 16  1  0
 19 18  2  0
 21 20  1  0
 22 23  1  1
 22 21  1  0
 24 22  1  0
 24 25  1  6
 25 18  1  0
 26 27  1  0
 26 24  1  0
 28 26  2  0
M  END
$$$$
