YTI.pdb
     RDKit          3D

 28 28  0  0  1  0  0  0  0  0999 V2000
    8.0263  -13.2479   14.5036 O   0  0  0  0  0  0  0  0  0  0  0  0
    7.7633  -13.6012   15.8373 C   0  0  0  0  0  0  0  0  0  0  0  0
    6.7452  -14.4555   16.1844 C   0  0  0  0  0  0  0  0  0  0  0  0
    6.4563  -14.8257   17.4805 C   0  0  0  0  0  0  0  0  0  0  0  0
    7.2501  -14.2945   18.4785 C   0  0  0  0  0  0  0  0  0  0  0  0
    7.0431  -14.6041   19.8977 C   0  0  0  0  0  0  0  0  0  0  0  0
    8.3162  -14.7755   20.6921 C   0  0  2  0  0  0  0  0  0  0  0  0
    9.0644  -15.8298   19.9882 N   0  0  0  0  0  0  0  0  0  0  0  0
    7.9698  -15.1972   22.0599 C   0  0  0  0  0  0  0  0  0  0  0  0
    7.1786  -14.5212   22.7845 O   0  0  0  0  0  0  0  0  0  0  0  0
    8.2957  -13.4216   18.1626 C   0  0  0  0  0  0  0  0  0  0  0  0
    8.5458  -13.0816   16.8558 C   0  0  0  0  0  0  0  0  0  0  0  0
    7.6004  -19.0486   23.2514 C   0  0  0  0  0  0  0  0  0  0  0  0
    8.4739  -18.2138   24.1558 C   0  0  1  0  0  0  0  0  0  0  0  0
    9.7934  -18.4292   23.6662 O   0  0  0  0  0  0  0  0  0  0  0  0
    8.1589  -16.7220   24.0771 C   0  0  2  0  0  0  0  0  0  0  0  0
    8.4815  -16.3734   22.6729 N   0  0  0  0  0  0  0  0  0  0  0  0
    9.0399  -15.9892   24.9886 C   0  0  0  0  0  0  0  0  0  0  0  0
   10.1522  -15.5759   24.5759 O   0  0  0  0  0  0  0  0  0  0  0  0
    7.0860  -12.0245   27.2159 C   0  0  0  0  0  0  0  0  0  0  0  0
    8.0957  -12.9752   26.6612 C   0  0  0  0  0  0  0  0  0  0  0  0
    8.7402  -13.7996   27.7574 C   0  0  2  0  0  0  0  0  0  0  0  0
    9.5428  -12.9836   28.7170 C   0  0  0  0  0  0  0  0  0  0  0  0
    9.5925  -14.9201   27.1335 C   0  0  2  0  0  0  0  0  0  0  0  0
    8.6702  -15.7307   26.3211 N   0  0  0  0  0  0  0  0  0  0  0  0
   10.0604  -15.7405   28.2601 C   0  0  0  0  0  0  0  0  0  0  0  0
   11.2303  -15.4257   28.9111 O   0  0  0  0  0  0  0  0  0  0  0  0
    9.3988  -16.7388   28.6423 O   0  0  0  0  0  0  0  0  0  0  0  0
  2  1  1  0
  3  2  2  0
  4  3  1  0
  5 11  1  0
  5  4  2  0
  6  5  1  0
  7  6  1  0
  7  8  1  6
  9  7  1  0
  9 10  2  0
 11 12  2  0
 12  2  1  0
 14 13  1  6
 15 14  1  0
 16 14  1  0
 16 17  1  6
 17  9  1  0
 18 16  1  0
 19 18  2  0
 21 20  1  0
 22 23  1  6
 22 21  1  0
 24 22  1  0
 24 25  1  6
 25 18  1  0
 26 27  1  0
 26 24  1  0
 28 26  2  0
M  END
$$$$
