YTI.pdb
     RDKit          3D

 28 28  0  0  1  0  0  0  0  0999 V2000
    8.8230  -12.8118   15.8662 O   0  0  0  0  0  0  0  0  0  0  0  0
    8.4254  -13.3030   17.1206 C   0  0  0  0  0  0  0  0  0  0  0  0
    9.2296  -14.1177   17.8797 C   0  0  0  0  0  0  0  0  0  0  0  0
    8.8751  -14.6191   19.1138 C   0  0  0  0  0  0  0  0  0  0  0  0
    7.6304  -14.2703   19.6010 C   0  0  0  0  0  0  0  0  0  0  0  0
    7.1317  -14.7423   20.8976 C   0  0  0  0  0  0  0  0  0  0  0  0
    7.0559  -16.2451   21.0286 C   0  0  2  0  0  0  0  0  0  0  0  0
    5.9124  -16.6423   20.1911 N   0  0  0  0  0  0  0  0  0  0  0  0
    6.8199  -16.5876   22.4413 C   0  0  0  0  0  0  0  0  0  0  0  0
    5.6742  -16.9344   22.8596 O   0  0  0  0  0  0  0  0  0  0  0  0
    6.7848  -13.4427   18.8559 C   0  0  0  0  0  0  0  0  0  0  0  0
    7.1817  -12.9668   17.6304 C   0  0  0  0  0  0  0  0  0  0  0  0
    6.2743  -18.8808   23.7491 C   0  0  0  0  0  0  0  0  0  0  0  0
    7.3820  -18.5038   24.7023 C   0  0  1  0  0  0  0  0  0  0  0  0
    8.5536  -19.0635   24.1182 O   0  0  0  0  0  0  0  0  0  0  0  0
    7.5703  -16.9940   24.8292 C   0  0  2  0  0  0  0  0  0  0  0  0
    7.8346  -16.5596   23.4367 N   0  0  0  0  0  0  0  0  0  0  0  0
    8.7378  -16.7174   25.6685 C   0  0  0  0  0  0  0  0  0  0  0  0
    9.8911  -16.8904   25.2016 O   0  0  0  0  0  0  0  0  0  0  0  0
    7.6885  -12.2059   27.4784 C   0  0  0  0  0  0  0  0  0  0  0  0
    8.3751  -13.4332   26.9749 C   0  0  0  0  0  0  0  0  0  0  0  0
    9.0805  -14.1713   28.0947 C   0  0  2  0  0  0  0  0  0  0  0  0
   10.0948  -13.3371   28.8062 C   0  0  0  0  0  0  0  0  0  0  0  0
    9.7109  -15.4659   27.5489 C   0  0  2  0  0  0  0  0  0  0  0  0
    8.6015  -16.2568   26.9907 N   0  0  0  0  0  0  0  0  0  0  0  0
   10.2425  -16.1764   28.7209 C   0  0  0  0  0  0  0  0  0  0  0  0
   11.5290  -15.9465   29.1493 O   0  0  0  0  0  0  0  0  0  0  0  0
    9.5296  -17.0022   29.3456 O   0  0  0  0  0  0  0  0  0  0  0  0
  2  1  1  0
  3  2  2  0
  4  3  1  0
  5 11  1  0
  5  4  2  0
  6  5  1  0
  7  6  1  0
  7  8  1  6
  9  7  1  0
  9 10  2  0
 11 12  2  0
 12  2  1  0
 14 13  1  6
 15 14  1  0
 16 14  1  0
 16 17  1  6
 17  9  1  0
 18 16  1  0
 19 18  2  0
 21 20  1  0
 22 23  1  6
 22 21  1  0
 24 22  1  0
 24 25  1  1
 25 18  1  0
 26 27  1  0
 26 24  1  0
 28 26  2  0
M  END
$$$$
