YTI.pdb
     RDKit          3D

 28 28  0  0  1  0  0  0  0  0999 V2000
    9.1818  -12.2639   16.8086 O   0  0  0  0  0  0  0  0  0  0  0  0
    8.5448  -12.8983   17.8877 C   0  0  0  0  0  0  0  0  0  0  0  0
    7.1962  -13.1591   17.8952 C   0  0  0  0  0  0  0  0  0  0  0  0
    6.5357  -13.7789   18.9343 C   0  0  0  0  0  0  0  0  0  0  0  0
    7.2930  -14.1537   20.0271 C   0  0  0  0  0  0  0  0  0  0  0  0
    6.7099  -14.8154   21.1997 C   0  0  0  0  0  0  0  0  0  0  0  0
    6.8892  -16.3148   21.2248 C   0  0  2  0  0  0  0  0  0  0  0  0
    5.8401  -16.8380   20.3346 N   0  0  0  0  0  0  0  0  0  0  0  0
    6.6982  -16.7933   22.6043 C   0  0  0  0  0  0  0  0  0  0  0  0
    5.5475  -16.8563   23.1336 O   0  0  0  0  0  0  0  0  0  0  0  0
    8.6686  -13.9045   20.0545 C   0  0  0  0  0  0  0  0  0  0  0  0
    9.2833  -13.2837   18.9949 C   0  0  0  0  0  0  0  0  0  0  0  0
    6.8616  -19.6886   24.4847 C   0  0  0  0  0  0  0  0  0  0  0  0
    7.8350  -18.7893   25.2070 C   0  0  1  0  0  0  0  0  0  0  0  0
    9.1084  -19.1658   24.6934 O   0  0  0  0  0  0  0  0  0  0  0  0
    7.6067  -17.3082   24.9151 C   0  0  2  0  0  0  0  0  0  0  0  0
    7.7644  -17.2167   23.4440 N   0  0  0  0  0  0  0  0  0  0  0  0
    8.6435  -16.5154   25.5787 C   0  0  0  0  0  0  0  0  0  0  0  0
    9.6520  -16.1455   24.9274 O   0  0  0  0  0  0  0  0  0  0  0  0
    7.5056  -12.1158   27.3079 C   0  0  0  0  0  0  0  0  0  0  0  0
    8.3055  -13.2871   26.8397 C   0  0  0  0  0  0  0  0  0  0  0  0
    8.9312  -14.0303   28.0027 C   0  0  2  0  0  0  0  0  0  0  0  0
    9.8822  -13.1949   28.7957 C   0  0  0  0  0  0  0  0  0  0  0  0
    9.6117  -15.3147   27.4944 C   0  0  2  0  0  0  0  0  0  0  0  0
    8.5379  -16.1514   26.9335 N   0  0  0  0  0  0  0  0  0  0  0  0
   10.1443  -15.9845   28.6898 C   0  0  0  0  0  0  0  0  0  0  0  0
    9.4951  -17.0726   29.2248 O   0  0  0  0  0  0  0  0  0  0  0  0
   11.1979  -15.5721   29.2378 O   0  0  0  0  0  0  0  0  0  0  0  0
  2  1  1  0
  3  2  2  0
  4  3  1  0
  5 11  1  0
  5  4  2  0
  6  5  1  0
  7  6  1  0
  7  8  1  6
  9  7  1  0
  9 10  2  0
 11 12  2  0
 12  2  1  0
 14 13  1  6
 15 14  1  0
 16 14  1  0
 16 17  1  6
 17  9  1  0
 18 16  1  0
 19 18  2  0
 21 20  1  0
 22 23  1  6
 22 21  1  0
 24 22  1  0
 24 25  1  1
 25 18  1  0
 26 27  1  0
 26 24  1  0
 28 26  2  0
M  END
$$$$
