YTI.pdb
     RDKit          3D

 28 28  0  0  1  0  0  0  0  0999 V2000
    8.7962  -13.1052   16.3512 O   0  0  0  0  0  0  0  0  0  0  0  0
    8.2740  -13.5671   17.5705 C   0  0  0  0  0  0  0  0  0  0  0  0
    7.5390  -12.7630   18.4072 C   0  0  0  0  0  0  0  0  0  0  0  0
    7.0105  -13.1793   19.6103 C   0  0  0  0  0  0  0  0  0  0  0  0
    7.2450  -14.4893   19.9811 C   0  0  0  0  0  0  0  0  0  0  0  0
    6.7431  -15.0535   21.2391 C   0  0  0  0  0  0  0  0  0  0  0  0
    6.7318  -16.5631   21.2865 C   0  0  2  0  0  0  0  0  0  0  0  0
    5.5219  -16.9574   20.5466 N   0  0  0  0  0  0  0  0  0  0  0  0
    6.6549  -16.9938   22.6926 C   0  0  0  0  0  0  0  0  0  0  0  0
    5.6477  -17.6189   23.1430 O   0  0  0  0  0  0  0  0  0  0  0  0
    7.9890  -15.3369   19.1545 C   0  0  0  0  0  0  0  0  0  0  0  0
    8.4957  -14.8770   17.9639 C   0  0  0  0  0  0  0  0  0  0  0  0
    7.9696  -19.5408   26.1255 C   0  0  0  0  0  0  0  0  0  0  0  0
    7.7691  -18.7960   24.8282 C   0  0  1  0  0  0  0  0  0  0  0  0
    6.5550  -19.3238   24.3042 O   0  0  0  0  0  0  0  0  0  0  0  0
    7.6054  -17.2909   25.0246 C   0  0  2  0  0  0  0  0  0  0  0  0
    7.6811  -16.7513   23.6460 N   0  0  0  0  0  0  0  0  0  0  0  0
    8.7211  -16.7794   25.8230 C   0  0  0  0  0  0  0  0  0  0  0  0
    9.8912  -16.8548   25.3718 O   0  0  0  0  0  0  0  0  0  0  0  0
    7.4916  -12.1966   27.4976 C   0  0  0  0  0  0  0  0  0  0  0  0
    8.2619  -13.3817   27.0146 C   0  0  0  0  0  0  0  0  0  0  0  0
    8.9637  -14.0883   28.1568 C   0  0  2  0  0  0  0  0  0  0  0  0
    9.9632  -13.2289   28.8593 C   0  0  0  0  0  0  0  0  0  0  0  0
    9.6116  -15.3883   27.6453 C   0  0  2  0  0  0  0  0  0  0  0  0
    8.5162  -16.1989   27.0879 N   0  0  0  0  0  0  0  0  0  0  0  0
   10.1325  -16.0713   28.8384 C   0  0  0  0  0  0  0  0  0  0  0  0
   11.4684  -15.9945   29.1562 O   0  0  0  0  0  0  0  0  0  0  0  0
    9.3653  -16.7337   29.5820 O   0  0  0  0  0  0  0  0  0  0  0  0
  2  1  1  0
  3  2  2  0
  4  3  1  0
  5 11  1  0
  5  4  2  0
  6  5  1  0
  7  6  1  0
  7  8  1  6
  9  7  1  0
  9 10  2  0
 11 12  2  0
 12  2  1  0
 14 13  1  1
 15 14  1  0
 16 14  1  0
 16 17  1  6
 17  9  1  0
 18 16  1  0
 19 18  2  0
 21 20  1  0
 22 23  1  6
 22 21  1  0
 24 22  1  0
 24 25  1  1
 25 18  1  0
 26 27  1  0
 26 24  1  0
 28 26  2  0
M  END
$$$$
