YTI.pdb
     RDKit          3D

 28 28  0  0  1  0  0  0  0  0999 V2000
    8.9617  -12.6796   16.7714 O   0  0  0  0  0  0  0  0  0  0  0  0
    8.3309  -13.3414   17.8377 C   0  0  0  0  0  0  0  0  0  0  0  0
    8.4787  -14.6894   18.0569 C   0  0  0  0  0  0  0  0  0  0  0  0
    7.8767  -15.3738   19.0909 C   0  0  0  0  0  0  0  0  0  0  0  0
    7.0790  -14.6425   19.9495 C   0  0  0  0  0  0  0  0  0  0  0  0
    6.3779  -15.2526   21.0849 C   0  0  0  0  0  0  0  0  0  0  0  0
    6.5736  -16.7449   21.2114 C   0  0  2  0  0  0  0  0  0  0  0  0
    5.4742  -17.3397   20.4339 N   0  0  0  0  0  0  0  0  0  0  0  0
    6.4774  -17.1180   22.6327 C   0  0  0  0  0  0  0  0  0  0  0  0
    5.4357  -17.6622   23.1089 O   0  0  0  0  0  0  0  0  0  0  0  0
    6.9054  -13.2684   19.7573 C   0  0  0  0  0  0  0  0  0  0  0  0
    7.5261  -12.6293   18.7122 C   0  0  0  0  0  0  0  0  0  0  0  0
    7.6023  -19.6016   26.1674 C   0  0  0  0  0  0  0  0  0  0  0  0
    7.4438  -18.8977   24.8418 C   0  0  1  0  0  0  0  0  0  0  0  0
    6.1792  -19.3390   24.3588 O   0  0  0  0  0  0  0  0  0  0  0  0
    7.4148  -17.3771   24.9746 C   0  0  2  0  0  0  0  0  0  0  0  0
    7.5217  -16.9048   23.5735 N   0  0  0  0  0  0  0  0  0  0  0  0
    8.5801  -16.9326   25.7416 C   0  0  0  0  0  0  0  0  0  0  0  0
    9.7318  -17.2680   25.3683 O   0  0  0  0  0  0  0  0  0  0  0  0
    8.2344  -11.9680   26.8572 C   0  0  0  0  0  0  0  0  0  0  0  0
    8.7388  -13.3359   26.5319 C   0  0  0  0  0  0  0  0  0  0  0  0
    9.2574  -14.0427   27.7680 C   0  0  2  0  0  0  0  0  0  0  0  0
   10.3812  -13.3197   28.4352 C   0  0  0  0  0  0  0  0  0  0  0  0
    9.6595  -15.4860   27.4123 C   0  0  2  0  0  0  0  0  0  0  0  0
    8.4438  -16.1319   26.8903 N   0  0  0  0  0  0  0  0  0  0  0  0
   10.0142  -16.1274   28.6867 C   0  0  0  0  0  0  0  0  0  0  0  0
    9.0532  -16.7659   29.4352 O   0  0  0  0  0  0  0  0  0  0  0  0
   11.1982  -16.1005   29.1083 O   0  0  0  0  0  0  0  0  0  0  0  0
  2  1  1  0
  3  2  2  0
  4  3  1  0
  5 11  1  0
  5  4  2  0
  6  5  1  0
  7  6  1  0
  7  8  1  6
  9  7  1  0
  9 10  2  0
 11 12  2  0
 12  2  1  0
 14 13  1  1
 15 14  1  0
 16 14  1  0
 16 17  1  6
 17  9  1  0
 18 16  1  0
 19 18  2  0
 21 20  1  0
 22 23  1  6
 22 21  1  0
 24 22  1  0
 24 25  1  1
 25 18  1  0
 26 27  1  0
 26 24  1  0
 28 26  2  0
M  END
$$$$
