YTI.pdb
     RDKit          3D

 28 28  0  0  1  0  0  0  0  0999 V2000
    8.5632  -13.6146   15.3772 O   0  0  0  0  0  0  0  0  0  0  0  0
    8.1090  -13.9605   16.6605 C   0  0  0  0  0  0  0  0  0  0  0  0
    7.3956  -13.0895   17.4474 C   0  0  0  0  0  0  0  0  0  0  0  0
    6.9334  -13.3919   18.7104 C   0  0  0  0  0  0  0  0  0  0  0  0
    7.2145  -14.6534   19.1982 C   0  0  0  0  0  0  0  0  0  0  0  0
    6.7846  -15.0969   20.5291 C   0  0  0  0  0  0  0  0  0  0  0  0
    7.1298  -16.5315   20.8515 C   0  0  2  0  0  0  0  0  0  0  0  0
    6.2111  -17.3371   20.0307 N   0  0  0  0  0  0  0  0  0  0  0  0
    6.8981  -16.7649   22.2870 C   0  0  0  0  0  0  0  0  0  0  0  0
    5.8790  -17.3946   22.7029 O   0  0  0  0  0  0  0  0  0  0  0  0
    7.9382  -15.5665   18.4252 C   0  0  0  0  0  0  0  0  0  0  0  0
    8.3784  -15.2199   17.1714 C   0  0  0  0  0  0  0  0  0  0  0  0
    6.6736  -18.8591   23.6960 C   0  0  0  0  0  0  0  0  0  0  0  0
    7.6962  -18.2682   24.6356 C   0  0  1  0  0  0  0  0  0  0  0  0
    8.9489  -18.6333   24.0659 O   0  0  0  0  0  0  0  0  0  0  0  0
    7.6198  -16.7456   24.7178 C   0  0  2  0  0  0  0  0  0  0  0  0
    7.7782  -16.3141   23.3084 N   0  0  0  0  0  0  0  0  0  0  0  0
    8.7362  -16.2444   25.5218 C   0  0  0  0  0  0  0  0  0  0  0  0
    9.9005  -16.2736   25.0511 O   0  0  0  0  0  0  0  0  0  0  0  0
    7.1860  -12.5483   29.2819 C   0  0  0  0  0  0  0  0  0  0  0  0
    7.7723  -13.8107   28.7399 C   0  0  0  0  0  0  0  0  0  0  0  0
    8.8690  -13.5241   27.7341 C   0  0  2  0  0  0  0  0  0  0  0  0
    8.3842  -12.8012   26.5202 C   0  0  0  0  0  0  0  0  0  0  0  0
    9.5807  -14.8351   27.3520 C   0  0  2  0  0  0  0  0  0  0  0  0
    8.5379  -15.7242   26.8138 N   0  0  0  0  0  0  0  0  0  0  0  0
   10.0702  -15.4066   28.6149 C   0  0  0  0  0  0  0  0  0  0  0  0
   11.1508  -14.8495   29.2580 O   0  0  0  0  0  0  0  0  0  0  0  0
    9.5088  -16.4104   29.1225 O   0  0  0  0  0  0  0  0  0  0  0  0
  2  1  1  0
  3  2  2  0
  4  3  1  0
  5 11  1  0
  5  4  2  0
  6  5  1  0
  7  6  1  0
  7  8  1  6
  9  7  1  0
  9 10  2  0
 11 12  2  0
 12  2  1  0
 14 13  1  6
 15 14  1  0
 16 14  1  0
 16 17  1  6
 17  9  1  0
 18 16  1  0
 19 18  2  0
 21 20  1  0
 22 23  1  6
 22 21  1  0
 24 22  1  0
 24 25  1  1
 25 18  1  0
 26 27  1  0
 26 24  1  0
 28 26  2  0
M  END
$$$$
