SQE.pdb
     RDKit          3D

 25 24  0  0  1  0  0  0  0  0999 V2000
   18.4768  -12.5585  -17.0605 O   0  0  0  0  0  0  0  0  0  0  0  0
   18.3190  -11.1752  -16.8290 C   0  0  0  0  0  0  0  0  0  0  0  0
   17.2193  -11.0546  -15.7755 C   0  0  2  0  0  0  0  0  0  0  0  0
   15.9719  -11.3036  -16.4554 N   0  0  0  0  0  0  0  0  0  0  0  0
   17.1923   -9.7141  -15.1733 C   0  0  0  0  0  0  0  0  0  0  0  0
   16.7393   -8.7245  -15.8324 O   0  0  0  0  0  0  0  0  0  0  0  0
   16.2859   -8.0948   -9.4048 N   0  0  0  0  0  0  0  0  0  0  0  0
   16.9286   -6.8909   -9.7868 C   0  0  0  0  0  0  0  0  0  0  0  0
   17.0074   -5.9686   -8.9392 O   0  0  0  0  0  0  0  0  0  0  0  0
   17.4708   -6.7885  -11.1643 C   0  0  0  0  0  0  0  0  0  0  0  0
   17.2233   -8.0891  -11.8531 C   0  0  0  0  0  0  0  0  0  0  0  0
   17.7560   -8.1393  -13.2640 C   0  0  2  0  0  0  0  0  0  0  0  0
   17.6575   -9.4537  -13.8570 N   0  0  0  0  0  0  0  0  0  0  0  0
   19.1488   -7.6193  -13.3467 C   0  0  0  0  0  0  0  0  0  0  0  0
   20.1152   -8.3398  -12.9862 O   0  0  0  0  0  0  0  0  0  0  0  0
   19.4680   -6.3194  -13.8220 N   0  0  0  0  0  0  0  0  0  0  0  0
   20.8473   -5.8776  -14.0104 C   0  0  1  0  0  0  0  0  0  0  0  0
   21.0257   -5.0804  -15.2428 C   0  0  0  0  0  0  0  0  0  0  0  0
   22.3511   -4.5100  -15.5455 C   0  0  0  0  0  0  0  0  0  0  0  0
   22.5545   -3.7032  -16.7205 C   0  0  0  0  0  0  0  0  0  0  0  0
   21.6754   -3.1464  -17.3736 O   0  0  0  0  0  0  0  0  0  0  0  0
   21.4284   -5.3324  -12.7902 C   0  0  0  0  0  0  0  0  0  0  0  0
   22.8105   -5.4554  -12.5383 O   0  0  0  0  0  0  0  0  0  0  0  0
   23.8772   -3.5248  -17.1782 O   0  0  0  0  0  0  0  0  0  0  0  0
   20.7620   -4.7388  -11.9036 O   0  0  0  0  0  0  0  0  0  0  0  0
  2  1  1  0
  2  3  1  0
  3  5  1  0
  3  4  1  6
  5  6  2  0
  7  8  1  0
  8  9  2  0
 10  8  1  0
 10 11  1  0
 12 11  1  1
 13 12  1  0
 13  5  1  0
 14 16  1  0
 14 12  1  0
 15 14  2  0
 17 18  1  6
 17 16  1  0
 19 18  1  0
 20 24  1  0
 20 19  1  0
 21 20  2  0
 22 23  1  0
 22 17  1  0
 25 22  2  0
M  END
$$$$
