SQE.pdb
     RDKit          3D

 25 24  0  0  1  0  0  0  0  0999 V2000
   21.7593  -21.5858   -8.9442 O   0  0  0  0  0  0  0  0  0  0  0  0
   22.2110  -20.9572  -10.1244 C   0  0  0  0  0  0  0  0  0  0  0  0
   23.7202  -20.7929   -9.9544 C   0  0  2  0  0  0  0  0  0  0  0  0
   23.9109  -19.8492   -8.8804 N   0  0  0  0  0  0  0  0  0  0  0  0
   24.3493  -20.2781  -11.1790 C   0  0  0  0  0  0  0  0  0  0  0  0
   24.3266  -19.0322  -11.4361 O   0  0  0  0  0  0  0  0  0  0  0  0
   28.1362  -19.0289  -13.8988 N   0  0  0  0  0  0  0  0  0  0  0  0
   27.9710  -19.6563  -15.1588 C   0  0  0  0  0  0  0  0  0  0  0  0
   28.5058  -19.1207  -16.1600 O   0  0  0  0  0  0  0  0  0  0  0  0
   27.1771  -20.9083  -15.2233 C   0  0  0  0  0  0  0  0  0  0  0  0
   26.7640  -21.2623  -13.8337 C   0  0  0  0  0  0  0  0  0  0  0  0
   25.4164  -20.7080  -13.4417 C   0  0  2  0  0  0  0  0  0  0  0  0
   25.0009  -21.1190  -12.1198 N   0  0  0  0  0  0  0  0  0  0  0  0
   24.3722  -21.0292  -14.4535 C   0  0  0  0  0  0  0  0  0  0  0  0
   23.7124  -22.0967  -14.3643 O   0  0  0  0  0  0  0  0  0  0  0  0
   24.0621  -20.1803  -15.5493 N   0  0  0  0  0  0  0  0  0  0  0  0
   22.7283  -20.1323  -16.1423 C   0  0  1  0  0  0  0  0  0  0  0  0
   21.6567  -20.0583  -15.1264 C   0  0  0  0  0  0  0  0  0  0  0  0
   20.2545  -19.9397  -15.5664 C   0  0  0  0  0  0  0  0  0  0  0  0
   19.2946  -19.2114  -14.7784 C   0  0  0  0  0  0  0  0  0  0  0  0
   18.2073  -19.6353  -14.3942 O   0  0  0  0  0  0  0  0  0  0  0  0
   22.6452  -19.1878  -17.2491 C   0  0  0  0  0  0  0  0  0  0  0  0
   21.4930  -19.1353  -18.0607 O   0  0  0  0  0  0  0  0  0  0  0  0
   19.6146  -17.8893  -14.4039 O   0  0  0  0  0  0  0  0  0  0  0  0
   23.5642  -18.3840  -17.5521 O   0  0  0  0  0  0  0  0  0  0  0  0
  2  1  1  0
  2  3  1  0
  3  5  1  0
  3  4  1  1
  5  6  2  0
  7  8  1  0
  8  9  2  0
 10  8  1  0
 10 11  1  0
 12 11  1  6
 13 12  1  0
 13  5  1  0
 14 16  1  0
 14 12  1  0
 15 14  2  0
 17 18  1  1
 17 16  1  0
 19 18  1  0
 20 24  1  0
 20 19  1  0
 21 20  2  0
 22 23  1  0
 22 17  1  0
 25 22  2  0
M  END
$$$$
