SQE.pdb
     RDKit          3D

 25 24  0  0  1  0  0  0  0  0999 V2000
   26.5674  -23.9142  -17.8841 O   0  0  0  0  0  0  0  0  0  0  0  0
   27.7758  -23.4415  -18.4394 C   0  0  0  0  0  0  0  0  0  0  0  0
   28.4547  -22.6390  -17.3309 C   0  0  2  0  0  0  0  0  0  0  0  0
   28.6537  -23.5489  -16.2296 N   0  0  0  0  0  0  0  0  0  0  0  0
   27.6211  -21.5107  -16.8922 C   0  0  0  0  0  0  0  0  0  0  0  0
   27.2396  -21.4286  -15.6812 O   0  0  0  0  0  0  0  0  0  0  0  0
   27.9206  -16.2327  -16.8138 N   0  0  0  0  0  0  0  0  0  0  0  0
   26.5440  -15.9806  -17.0370 C   0  0  0  0  0  0  0  0  0  0  0  0
   26.0476  -14.9372  -16.5470 O   0  0  0  0  0  0  0  0  0  0  0  0
   25.7688  -16.9620  -17.8356 C   0  0  0  0  0  0  0  0  0  0  0  0
   26.6727  -18.1032  -18.1640 C   0  0  0  0  0  0  0  0  0  0  0  0
   26.3645  -19.3626  -17.3922 C   0  0  2  0  0  0  0  0  0  0  0  0
   27.2050  -20.4756  -17.7711 N   0  0  0  0  0  0  0  0  0  0  0  0
   24.9235  -19.7267  -17.4831 C   0  0  0  0  0  0  0  0  0  0  0  0
   24.4792  -20.2975  -18.5126 O   0  0  0  0  0  0  0  0  0  0  0  0
   23.9866  -19.4626  -16.4487 N   0  0  0  0  0  0  0  0  0  0  0  0
   22.5970  -19.9054  -16.5268 C   0  0  1  0  0  0  0  0  0  0  0  0
   22.0493  -20.2944  -15.2097 C   0  0  0  0  0  0  0  0  0  0  0  0
   22.8455  -20.0396  -13.9953 C   0  0  0  0  0  0  0  0  0  0  0  0
   22.3674  -20.4521  -12.7014 C   0  0  0  0  0  0  0  0  0  0  0  0
   22.9924  -21.1204  -11.8815 O   0  0  0  0  0  0  0  0  0  0  0  0
   21.7752  -19.0176  -17.3394 C   0  0  0  0  0  0  0  0  0  0  0  0
   22.2474  -17.7402  -17.7056 O   0  0  0  0  0  0  0  0  0  0  0  0
   21.0650  -20.0627  -12.3237 O   0  0  0  0  0  0  0  0  0  0  0  0
   20.6250  -19.3145  -17.7534 O   0  0  0  0  0  0  0  0  0  0  0  0
  2  1  1  0
  2  3  1  0
  3  5  1  0
  3  4  1  1
  5  6  2  0
  7  8  1  0
  8  9  2  0
 10  8  1  0
 10 11  1  0
 12 11  1  6
 13 12  1  0
 13  5  1  0
 14 16  1  0
 14 12  1  0
 15 14  2  0
 17 18  1  1
 17 16  1  0
 19 18  1  0
 20 24  1  0
 20 19  1  0
 21 20  2  0
 22 23  1  0
 22 17  1  0
 25 22  2  0
M  END
$$$$
