SQE.pdb
     RDKit          3D

 25 24  0  0  1  0  0  0  0  0999 V2000
   26.0430  -14.7865  -15.5970 O   0  0  0  0  0  0  0  0  0  0  0  0
   25.7452  -13.4767  -16.0304 C   0  0  0  0  0  0  0  0  0  0  0  0
   24.6887  -13.6323  -17.1227 C   0  0  2  0  0  0  0  0  0  0  0  0
   25.3648  -14.1848  -18.2707 N   0  0  0  0  0  0  0  0  0  0  0  0
   24.0871  -12.3400  -17.4810 C   0  0  0  0  0  0  0  0  0  0  0  0
   24.6260  -11.6069  -18.3705 O   0  0  0  0  0  0  0  0  0  0  0  0
   18.7206  -11.2202  -19.3420 N   0  0  0  0  0  0  0  0  0  0  0  0
   18.6478  -11.6003  -17.9787 C   0  0  0  0  0  0  0  0  0  0  0  0
   17.5461  -12.0085  -17.5372 O   0  0  0  0  0  0  0  0  0  0  0  0
   19.8753  -11.4946  -17.1517 C   0  0  0  0  0  0  0  0  0  0  0  0
   20.9393  -10.8649  -17.9875 C   0  0  0  0  0  0  0  0  0  0  0  0
   22.2310  -10.6246  -17.2453 C   0  0  2  0  0  0  0  0  0  0  0  0
   22.9022  -11.8488  -16.8715 N   0  0  0  0  0  0  0  0  0  0  0  0
   22.0317   -9.7424  -16.0624 C   0  0  0  0  0  0  0  0  0  0  0  0
   21.7501  -10.2408  -14.9421 O   0  0  0  0  0  0  0  0  0  0  0  0
   22.1425   -8.3274  -16.1186 N   0  0  0  0  0  0  0  0  0  0  0  0
   21.9300   -7.4839  -14.9454 C   0  0  1  0  0  0  0  0  0  0  0  0
   22.2532   -6.0638  -15.2001 C   0  0  0  0  0  0  0  0  0  0  0  0
   22.1506   -5.0929  -14.0953 C   0  0  0  0  0  0  0  0  0  0  0  0
   22.4277   -3.6970  -14.3136 C   0  0  0  0  0  0  0  0  0  0  0  0
   22.8731   -3.2036  -15.3469 O   0  0  0  0  0  0  0  0  0  0  0  0
   20.6585   -7.7563  -14.2874 C   0  0  0  0  0  0  0  0  0  0  0  0
   19.4713   -7.8656  -15.0407 O   0  0  0  0  0  0  0  0  0  0  0  0
   22.1705   -2.7994  -13.2559 O   0  0  0  0  0  0  0  0  0  0  0  0
   20.5325   -7.9033  -13.0444 O   0  0  0  0  0  0  0  0  0  0  0  0
  2  1  1  0
  2  3  1  0
  3  5  1  0
  3  4  1  6
  5  6  2  0
  7  8  1  0
  8  9  2  0
 10  8  1  0
 10 11  1  0
 12 11  1  1
 13 12  1  0
 13  5  1  0
 14 16  1  0
 14 12  1  0
 15 14  2  0
 17 18  1  6
 17 16  1  0
 19 18  1  0
 20 24  1  0
 20 19  1  0
 21 20  2  0
 22 23  1  0
 22 17  1  0
 25 22  2  0
M  END
$$$$
