SQE.pdb
     RDKit          3D

 25 24  0  0  1  0  0  0  0  0999 V2000
   16.8662  -12.5057  -17.4457 O   0  0  0  0  0  0  0  0  0  0  0  0
   17.7324  -11.6804  -16.6971 C   0  0  0  0  0  0  0  0  0  0  0  0
   19.0578  -12.4359  -16.6172 C   0  0  2  0  0  0  0  0  0  0  0  0
   18.7854  -13.6675  -15.9177 N   0  0  0  0  0  0  0  0  0  0  0  0
   20.0743  -11.6682  -15.8839 C   0  0  0  0  0  0  0  0  0  0  0  0
   19.9635  -11.4937  -14.6284 O   0  0  0  0  0  0  0  0  0  0  0  0
   25.9601  -12.0451  -16.7373 N   0  0  0  0  0  0  0  0  0  0  0  0
   26.0330  -10.9005  -15.9049 C   0  0  0  0  0  0  0  0  0  0  0  0
   27.1651  -10.5263  -15.5129 O   0  0  0  0  0  0  0  0  0  0  0  0
   24.7698  -10.2104  -15.5442 C   0  0  0  0  0  0  0  0  0  0  0  0
   23.6462  -10.9308  -16.2118 C   0  0  0  0  0  0  0  0  0  0  0  0
   22.2813  -10.4156  -15.8265 C   0  0  2  0  0  0  0  0  0  0  0  0
   21.2076  -11.0929  -16.5175 N   0  0  0  0  0  0  0  0  0  0  0  0
   22.1798   -8.9400  -15.9986 C   0  0  0  0  0  0  0  0  0  0  0  0
   21.9378   -8.4507  -17.1321 O   0  0  0  0  0  0  0  0  0  0  0  0
   22.3439   -8.0181  -14.9305 N   0  0  0  0  0  0  0  0  0  0  0  0
   21.9447   -6.6178  -15.0441 C   0  0  1  0  0  0  0  0  0  0  0  0
   20.6311   -6.4526  -15.7022 C   0  0  0  0  0  0  0  0  0  0  0  0
   20.0322   -5.1079  -15.7864 C   0  0  0  0  0  0  0  0  0  0  0  0
   18.7203   -4.9201  -16.3489 C   0  0  0  0  0  0  0  0  0  0  0  0
   18.0165   -5.7965  -16.8449 O   0  0  0  0  0  0  0  0  0  0  0  0
   22.1523   -5.8780  -13.8057 C   0  0  0  0  0  0  0  0  0  0  0  0
   22.1616   -4.4677  -13.8071 O   0  0  0  0  0  0  0  0  0  0  0  0
   18.1775   -3.6178  -16.3384 O   0  0  0  0  0  0  0  0  0  0  0  0
   22.3365   -6.4246  -12.6878 O   0  0  0  0  0  0  0  0  0  0  0  0
  2  1  1  0
  2  3  1  0
  3  5  1  0
  3  4  1  1
  5  6  2  0
  7  8  1  0
  8  9  2  0
 10  8  1  0
 10 11  1  0
 12 11  1  6
 13 12  1  0
 13  5  1  0
 14 16  1  0
 14 12  1  0
 15 14  2  0
 17 18  1  1
 17 16  1  0
 19 18  1  0
 20 24  1  0
 20 19  1  0
 21 20  2  0
 22 23  1  0
 22 17  1  0
 25 22  2  0
M  END
$$$$
