SQE.pdb
     RDKit          3D

 25 24  0  0  1  0  0  0  0  0999 V2000
   17.5506  -12.7132  -13.5493 O   0  0  0  0  0  0  0  0  0  0  0  0
   16.9407  -11.5036  -13.9451 C   0  0  0  0  0  0  0  0  0  0  0  0
   15.8103  -11.2636  -12.9460 C   0  0  2  0  0  0  0  0  0  0  0  0
   14.5962  -11.7049  -13.5875 N   0  0  0  0  0  0  0  0  0  0  0  0
   15.6921   -9.8412  -12.5949 C   0  0  0  0  0  0  0  0  0  0  0  0
   15.1120   -9.0317  -13.3867 O   0  0  0  0  0  0  0  0  0  0  0  0
   14.5365   -7.2343   -7.3313 N   0  0  0  0  0  0  0  0  0  0  0  0
   15.0274   -6.0599   -7.9542 C   0  0  0  0  0  0  0  0  0  0  0  0
   14.9085   -4.9717   -7.3402 O   0  0  0  0  0  0  0  0  0  0  0  0
   15.6529   -6.1824   -9.2942 C   0  0  0  0  0  0  0  0  0  0  0  0
   15.7030   -7.6317   -9.6469 C   0  0  0  0  0  0  0  0  0  0  0  0
   16.2070   -7.8990  -11.0438 C   0  0  2  0  0  0  0  0  0  0  0  0
   16.2047   -9.3036  -11.3845 N   0  0  0  0  0  0  0  0  0  0  0  0
   17.5499   -7.2968  -11.2705 C   0  0  0  0  0  0  0  0  0  0  0  0
   18.5864   -7.9041  -10.8969 O   0  0  0  0  0  0  0  0  0  0  0  0
   17.7430   -6.0394  -11.9023 N   0  0  0  0  0  0  0  0  0  0  0  0
   19.0339   -5.6371  -12.4544 C   0  0  1  0  0  0  0  0  0  0  0  0
   19.7408   -6.7528  -13.1188 C   0  0  0  0  0  0  0  0  0  0  0  0
   20.9930   -6.4794  -13.8475 C   0  0  0  0  0  0  0  0  0  0  0  0
   21.7527   -7.5524  -14.4343 C   0  0  0  0  0  0  0  0  0  0  0  0
   21.7021   -8.7352  -14.1057 O   0  0  0  0  0  0  0  0  0  0  0  0
   18.9571   -4.3818  -13.1909 C   0  0  0  0  0  0  0  0  0  0  0  0
   17.7063   -3.8330  -13.5420 O   0  0  0  0  0  0  0  0  0  0  0  0
   22.6412   -7.2356  -15.4836 O   0  0  0  0  0  0  0  0  0  0  0  0
   19.9649   -3.7241  -13.5574 O   0  0  0  0  0  0  0  0  0  0  0  0
  2  1  1  0
  2  3  1  0
  3  5  1  0
  3  4  1  6
  5  6  2  0
  7  8  1  0
  8  9  2  0
 10  8  1  0
 10 11  1  0
 12 11  1  1
 13 12  1  0
 13  5  1  0
 14 16  1  0
 14 12  1  0
 15 14  2  0
 17 18  1  6
 17 16  1  0
 19 18  1  0
 20 24  1  0
 20 19  1  0
 21 20  2  0
 22 23  1  0
 22 17  1  0
 25 22  2  0
M  END
$$$$
