SQE.pdb
     RDKit          3D

 25 24  0  0  1  0  0  0  0  0999 V2000
   28.0322  -11.7606  -15.1008 O   0  0  0  0  0  0  0  0  0  0  0  0
   26.8424  -11.0184  -15.2601 C   0  0  0  0  0  0  0  0  0  0  0  0
   26.3348  -11.3460  -16.6632 C   0  0  2  0  0  0  0  0  0  0  0  0
   27.1736  -10.6171  -17.5827 N   0  0  0  0  0  0  0  0  0  0  0  0
   24.9353  -10.9339  -16.8417 C   0  0  0  0  0  0  0  0  0  0  0  0
   24.6600   -9.8268  -17.4050 O   0  0  0  0  0  0  0  0  0  0  0  0
   19.9833  -14.6718  -16.4028 N   0  0  0  0  0  0  0  0  0  0  0  0
   19.2847  -13.4420  -16.4924 C   0  0  0  0  0  0  0  0  0  0  0  0
   18.0311  -13.4770  -16.5429 O   0  0  0  0  0  0  0  0  0  0  0  0
   20.0727  -12.1850  -16.5214 C   0  0  0  0  0  0  0  0  0  0  0  0
   21.5171  -12.5460  -16.4180 C   0  0  0  0  0  0  0  0  0  0  0  0
   22.4490  -11.3694  -16.5727 C   0  0  2  0  0  0  0  0  0  0  0  0
   23.8397  -11.7265  -16.4074 N   0  0  0  0  0  0  0  0  0  0  0  0
   22.0750  -10.2467  -15.6688 C   0  0  0  0  0  0  0  0  0  0  0  0
   22.8590   -9.8830  -14.7546 O   0  0  0  0  0  0  0  0  0  0  0  0
   20.8498   -9.5360  -15.7753 N   0  0  0  0  0  0  0  0  0  0  0  0
   20.6168   -8.2784  -15.0702 C   0  0  1  0  0  0  0  0  0  0  0  0
   21.7911   -7.3807  -15.1058 C   0  0  0  0  0  0  0  0  0  0  0  0
   21.7046   -6.0564  -14.4633 C   0  0  0  0  0  0  0  0  0  0  0  0
   22.8336   -5.1631  -14.4629 C   0  0  0  0  0  0  0  0  0  0  0  0
   23.6962   -5.0911  -15.3348 O   0  0  0  0  0  0  0  0  0  0  0  0
   19.3294   -7.6831  -15.4049 C   0  0  0  0  0  0  0  0  0  0  0  0
   18.6694   -6.8408  -14.4863 O   0  0  0  0  0  0  0  0  0  0  0  0
   22.9789   -4.2831  -13.3696 O   0  0  0  0  0  0  0  0  0  0  0  0
   18.7335   -7.8751  -16.4961 O   0  0  0  0  0  0  0  0  0  0  0  0
  2  1  1  0
  2  3  1  0
  3  5  1  0
  3  4  1  6
  5  6  2  0
  7  8  1  0
  8  9  2  0
 10  8  1  0
 10 11  1  0
 12 11  1  1
 13 12  1  0
 13  5  1  0
 14 16  1  0
 14 12  1  0
 15 14  2  0
 17 18  1  6
 17 16  1  0
 19 18  1  0
 20 24  1  0
 20 19  1  0
 21 20  2  0
 22 23  1  0
 22 17  1  0
 25 22  2  0
M  END
$$$$
