SQE.pdb
     RDKit          3D

 25 24  0  0  1  0  0  0  0  0999 V2000
   24.5724   -9.6013  -19.2051 O   0  0  0  0  0  0  0  0  0  0  0  0
   23.9882  -10.5749  -20.0436 C   0  0  0  0  0  0  0  0  0  0  0  0
   22.9984  -11.3378  -19.1650 C   0  0  2  0  0  0  0  0  0  0  0  0
   22.4183  -12.3632  -19.9971 N   0  0  0  0  0  0  0  0  0  0  0  0
   21.9367  -10.4576  -18.6569 C   0  0  0  0  0  0  0  0  0  0  0  0
   21.0689   -9.9749  -19.4524 O   0  0  0  0  0  0  0  0  0  0  0  0
   17.9823  -10.9996  -14.4616 N   0  0  0  0  0  0  0  0  0  0  0  0
   17.8244   -9.5947  -14.5593 C   0  0  0  0  0  0  0  0  0  0  0  0
   16.8379   -9.0699  -13.9877 O   0  0  0  0  0  0  0  0  0  0  0  0
   18.8319   -8.8247  -15.3300 C   0  0  0  0  0  0  0  0  0  0  0  0
   19.7544   -9.7998  -15.9822 C   0  0  0  0  0  0  0  0  0  0  0  0
   20.8734   -9.1502  -16.7586 C   0  0  2  0  0  0  0  0  0  0  0  0
   21.8216  -10.1050  -17.2860 N   0  0  0  0  0  0  0  0  0  0  0  0
   21.5622   -8.0996  -15.9592 C   0  0  0  0  0  0  0  0  0  0  0  0
   22.4358   -8.4203  -15.1125 O   0  0  0  0  0  0  0  0  0  0  0  0
   21.2879   -6.7125  -16.0949 N   0  0  0  0  0  0  0  0  0  0  0  0
   21.9930   -5.7006  -15.3127 C   0  0  1  0  0  0  0  0  0  0  0  0
   21.9364   -4.3602  -15.9341 C   0  0  0  0  0  0  0  0  0  0  0  0
   22.4327   -4.1836  -17.3111 C   0  0  0  0  0  0  0  0  0  0  0  0
   22.3912   -2.8935  -17.9490 C   0  0  0  0  0  0  0  0  0  0  0  0
   23.0916   -2.5327  -18.8917 O   0  0  0  0  0  0  0  0  0  0  0  0
   21.6768   -5.7756  -13.8920 C   0  0  0  0  0  0  0  0  0  0  0  0
   20.6378   -6.6114  -13.4328 O   0  0  0  0  0  0  0  0  0  0  0  0
   21.4685   -1.9446  -17.4603 O   0  0  0  0  0  0  0  0  0  0  0  0
   22.2828   -5.1199  -13.0058 O   0  0  0  0  0  0  0  0  0  0  0  0
  2  1  1  0
  2  3  1  0
  3  5  1  0
  3  4  1  6
  5  6  2  0
  7  8  1  0
  8  9  2  0
 10  8  1  0
 10 11  1  0
 12 11  1  1
 13 12  1  0
 13  5  1  0
 14 16  1  0
 14 12  1  0
 15 14  2  0
 17 18  1  6
 17 16  1  0
 19 18  1  0
 20 24  1  0
 20 19  1  0
 21 20  2  0
 22 23  1  0
 22 17  1  0
 25 22  2  0
M  END
$$$$
