GIH.pdb
     RDKit          3D

 23 23  0  0  1  0  0  0  0  0999 V2000
    6.4473  -18.3043   21.9753 N   0  0  0  0  0  0  0  0  0  0  0  0
    6.2328  -17.5448   23.1651 C   0  0  0  0  0  0  0  0  0  0  0  0
    7.1802  -16.3746   23.2567 C   0  0  0  0  0  0  0  0  0  0  0  0
    7.9863  -16.1216   22.3398 O   0  0  0  0  0  0  0  0  0  0  0  0
    6.6979  -12.0492   27.0934 C   0  0  0  0  0  0  0  0  0  0  0  0
    6.4896  -13.3125   26.3055 C   0  0  0  0  0  0  0  0  0  0  0  0
    7.2275  -13.1850   24.9863 C   0  0  2  0  0  0  0  0  0  0  0  0
    6.3233  -12.5893   23.9437 C   0  0  0  0  0  0  0  0  0  0  0  0
    7.9374  -14.4265   24.6184 C   0  0  2  0  0  0  0  0  0  0  0  0
    7.0991  -15.5861   24.4396 N   0  0  0  0  0  0  0  0  0  0  0  0
    9.1576  -14.7518   25.3603 C   0  0  0  0  0  0  0  0  0  0  0  0
    9.5031  -14.1803   26.4326 O   0  0  0  0  0  0  0  0  0  0  0  0
   10.0404  -15.7523   24.8937 N   0  0  0  0  0  0  0  0  0  0  0  0
   11.1587  -16.2290   25.7433 C   0  0  1  0  0  0  0  0  0  0  0  0
   10.6391  -16.8426   26.9963 C   0  0  0  0  0  0  0  0  0  0  0  0
   10.6181  -15.8815   28.0930 C   0  0  0  0  0  0  0  0  0  0  0  0
   10.5902  -14.4967   28.0604 C   0  0  0  0  0  0  0  0  0  0  0  0
   10.6018  -13.9854   29.3036 N   0  0  0  0  0  0  0  0  0  0  0  0
   10.6373  -15.0282   30.1365 C   0  0  0  0  0  0  0  0  0  0  0  0
   10.6474  -16.1613   29.4304 N   0  0  0  0  0  0  0  0  0  0  0  0
   11.9408  -17.2094   24.9733 C   0  0  0  0  0  0  0  0  0  0  0  0
   13.1718  -17.7255   25.3401 O   0  0  0  0  0  0  0  0  0  0  0  0
   11.4768  -17.6326   23.8812 O   0  0  0  0  0  0  0  0  0  0  0  0
  2  1  1  0
  2  3  1  0
  3 10  1  0
  4  3  2  0
  5  6  1  0
  6  7  1  0
  7  8  1  6
  7  9  1  0
  9 11  1  0
  9 10  1  1
 11 12  2  0
 13 11  1  0
 13 14  1  0
 14 21  1  0
 14 15  1  1
 16 15  1  0
 17 16  2  0
 18 19  1  0
 18 17  1  0
 19 20  2  0
 20 16  1  0
 21 23  2  0
 21 22  1  0
M  END
$$$$
