GIH.pdb
     RDKit          3D

 23 23  0  0  1  0  0  0  0  0999 V2000
    5.2129  -19.2792   19.8473 N   0  0  0  0  0  0  0  0  0  0  0  0
    5.0329  -18.1057   20.6403 C   0  0  0  0  0  0  0  0  0  0  0  0
    6.3375  -17.3843   20.8707 C   0  0  0  0  0  0  0  0  0  0  0  0
    7.4224  -17.8759   20.5024 O   0  0  0  0  0  0  0  0  0  0  0  0
    6.8649  -12.2983   19.6303 C   0  0  0  0  0  0  0  0  0  0  0  0
    6.9686  -13.7667   19.9354 C   0  0  0  0  0  0  0  0  0  0  0  0
    7.3743  -13.9298   21.3879 C   0  0  2  0  0  0  0  0  0  0  0  0
    8.5800  -13.0832   21.6860 C   0  0  0  0  0  0  0  0  0  0  0  0
    7.4411  -15.3474   21.7959 C   0  0  2  0  0  0  0  0  0  0  0  0
    6.2556  -16.1229   21.5264 N   0  0  0  0  0  0  0  0  0  0  0  0
    7.9901  -15.6436   23.1210 C   0  0  0  0  0  0  0  0  0  0  0  0
    7.2816  -15.8744   24.1411 O   0  0  0  0  0  0  0  0  0  0  0  0
    9.3874  -15.6822   23.3307 N   0  0  0  0  0  0  0  0  0  0  0  0
    9.9643  -16.4952   24.4290 C   0  0  1  0  0  0  0  0  0  0  0  0
    9.6481  -17.9369   24.2344 C   0  0  0  0  0  0  0  0  0  0  0  0
    8.6031  -18.3827   25.1489 C   0  0  0  0  0  0  0  0  0  0  0  0
    7.9302  -17.6836   26.1378 C   0  0  0  0  0  0  0  0  0  0  0  0
    7.0505  -18.4762   26.7741 N   0  0  0  0  0  0  0  0  0  0  0  0
    7.1510  -19.6794   26.2044 C   0  0  0  0  0  0  0  0  0  0  0  0
    8.0702  -19.6381   25.2369 N   0  0  0  0  0  0  0  0  0  0  0  0
   11.4205  -16.2832   24.4471 C   0  0  0  0  0  0  0  0  0  0  0  0
   12.2177  -16.2606   25.5786 O   0  0  0  0  0  0  0  0  0  0  0  0
   12.0210  -16.1019   23.3547 O   0  0  0  0  0  0  0  0  0  0  0  0
  2  1  1  0
  2  3  1  0
  3 10  1  0
  4  3  2  0
  5  6  1  0
  6  7  1  0
  7  8  1  6
  7  9  1  0
  9 11  1  0
  9 10  1  1
 11 12  2  0
 13 11  1  0
 13 14  1  0
 14 21  1  0
 14 15  1  6
 16 15  1  0
 17 16  2  0
 18 19  1  0
 18 17  1  0
 19 20  2  0
 20 16  1  0
 21 23  2  0
 21 22  1  0
M  END
$$$$
