GIH.pdb
     RDKit          3D

 23 23  0  0  1  0  0  0  0  0999 V2000
    7.4838  -15.7972   19.9992 N   0  0  0  0  0  0  0  0  0  0  0  0
    6.8130  -15.2816   21.1492 C   0  0  0  0  0  0  0  0  0  0  0  0
    7.7787  -14.9796   22.2680 C   0  0  0  0  0  0  0  0  0  0  0  0
    8.9999  -15.1986   22.1452 O   0  0  0  0  0  0  0  0  0  0  0  0
    6.2932  -12.2343   27.3063 C   0  0  0  0  0  0  0  0  0  0  0  0
    6.3468  -13.1993   26.1548 C   0  0  0  0  0  0  0  0  0  0  0  0
    7.6454  -12.9801   25.4022 C   0  0  2  0  0  0  0  0  0  0  0  0
    7.6075  -11.6632   24.6784 C   0  0  0  0  0  0  0  0  0  0  0  0
    8.0410  -14.1619   24.6101 C   0  0  2  0  0  0  0  0  0  0  0  0
    7.2176  -14.4358   23.4584 N   0  0  0  0  0  0  0  0  0  0  0  0
    8.3692  -15.3869   25.3426 C   0  0  0  0  0  0  0  0  0  0  0  0
    7.5625  -16.3446   25.5101 O   0  0  0  0  0  0  0  0  0  0  0  0
    9.6469  -15.5609   25.9216 N   0  0  0  0  0  0  0  0  0  0  0  0
   10.0972  -16.9012   26.3694 C   0  0  1  0  0  0  0  0  0  0  0  0
   11.3781  -17.2711   25.7070 C   0  0  0  0  0  0  0  0  0  0  0  0
   11.8978  -18.5347   26.2170 C   0  0  0  0  0  0  0  0  0  0  0  0
   11.2671  -19.7593   26.3664 C   0  0  0  0  0  0  0  0  0  0  0  0
   12.1014  -20.6688   26.8991 N   0  0  0  0  0  0  0  0  0  0  0  0
   13.2634  -20.0412   27.0944 C   0  0  0  0  0  0  0  0  0  0  0  0
   13.1565  -18.7722   26.6935 N   0  0  0  0  0  0  0  0  0  0  0  0
   10.2614  -16.8706   27.8315 C   0  0  0  0  0  0  0  0  0  0  0  0
   10.3262  -17.9787   28.6588 O   0  0  0  0  0  0  0  0  0  0  0  0
   10.3516  -15.7545   28.4088 O   0  0  0  0  0  0  0  0  0  0  0  0
  2  1  1  0
  2  3  1  0
  3 10  1  0
  4  3  2  0
  5  6  1  0
  6  7  1  0
  7  8  1  6
  7  9  1  0
  9 11  1  0
  9 10  1  6
 11 12  2  0
 13 11  1  0
 13 14  1  0
 14 21  1  0
 14 15  1  6
 16 15  1  0
 17 16  2  0
 18 19  1  0
 18 17  1  0
 19 20  2  0
 20 16  1  0
 21 23  2  0
 21 22  1  0
M  END
$$$$
