GIH.pdb
     RDKit          3D

 23 23  0  0  1  0  0  0  0  0999 V2000
    7.9012  -19.4672   17.1003 N   0  0  0  0  0  0  0  0  0  0  0  0
    7.3246  -18.9393   18.2949 C   0  0  0  0  0  0  0  0  0  0  0  0
    8.2210  -17.9104   18.9379 C   0  0  0  0  0  0  0  0  0  0  0  0
    9.4626  -18.0068   18.8789 O   0  0  0  0  0  0  0  0  0  0  0  0
    7.9433  -12.1004   20.8059 C   0  0  0  0  0  0  0  0  0  0  0  0
    8.6739  -13.4139   20.7772 C   0  0  0  0  0  0  0  0  0  0  0  0
    7.6878  -14.5061   20.4087 C   0  0  2  0  0  0  0  0  0  0  0  0
    6.4616  -14.4085   21.2727 C   0  0  0  0  0  0  0  0  0  0  0  0
    8.3295  -15.8327   20.3141 C   0  0  2  0  0  0  0  0  0  0  0  0
    7.5708  -16.8354   19.6082 N   0  0  0  0  0  0  0  0  0  0  0  0
    8.9415  -16.3750   21.5292 C   0  0  0  0  0  0  0  0  0  0  0  0
    8.2841  -16.8638   22.4908 O   0  0  0  0  0  0  0  0  0  0  0  0
   10.3456  -16.3733   21.6922 N   0  0  0  0  0  0  0  0  0  0  0  0
   10.9693  -17.0125   22.8764 C   0  0  1  0  0  0  0  0  0  0  0  0
   12.2286  -17.7078   22.4930 C   0  0  0  0  0  0  0  0  0  0  0  0
   11.9589  -19.0104   21.8950 C   0  0  0  0  0  0  0  0  0  0  0  0
   10.8099  -19.7838   21.9311 C   0  0  0  0  0  0  0  0  0  0  0  0
   10.9857  -20.9385   21.2656 N   0  0  0  0  0  0  0  0  0  0  0  0
   12.2373  -20.9160   20.8017 C   0  0  0  0  0  0  0  0  0  0  0  0
   12.8272  -19.7758   21.1685 N   0  0  0  0  0  0  0  0  0  0  0  0
   11.2395  -15.9687   23.8781 C   0  0  0  0  0  0  0  0  0  0  0  0
   11.2692  -16.1560   25.2494 O   0  0  0  0  0  0  0  0  0  0  0  0
   11.4648  -14.7935   23.4843 O   0  0  0  0  0  0  0  0  0  0  0  0
  2  1  1  0
  2  3  1  0
  3 10  1  0
  4  3  2  0
  5  6  1  0
  6  7  1  0
  7  8  1  1
  7  9  1  0
  9 11  1  0
  9 10  1  1
 11 12  2  0
 13 11  1  0
 13 14  1  0
 14 21  1  0
 14 15  1  6
 16 15  1  0
 17 16  2  0
 18 19  1  0
 18 17  1  0
 19 20  2  0
 20 16  1  0
 21 23  2  0
 21 22  1  0
M  END
$$$$
