GIH.pdb
     RDKit          3D

 23 23  0  0  1  0  0  0  0  0999 V2000
    7.5740  -15.6973   20.0120 N   0  0  0  0  0  0  0  0  0  0  0  0
    6.8413  -15.6329   21.2357 C   0  0  0  0  0  0  0  0  0  0  0  0
    7.7207  -15.2204   22.3898 C   0  0  0  0  0  0  0  0  0  0  0  0
    8.9486  -15.4360   22.3767 O   0  0  0  0  0  0  0  0  0  0  0  0
    7.5884  -11.4889   27.2517 C   0  0  0  0  0  0  0  0  0  0  0  0
    8.1994  -12.6726   26.5549 C   0  0  0  0  0  0  0  0  0  0  0  0
    7.2327  -13.1576   25.4913 C   0  0  2  0  0  0  0  0  0  0  0  0
    5.8690  -13.3658   26.0883 C   0  0  0  0  0  0  0  0  0  0  0  0
    7.7864  -14.2719   24.6960 C   0  0  2  0  0  0  0  0  0  0  0  0
    7.0712  -14.5776   23.4818 N   0  0  0  0  0  0  0  0  0  0  0  0
    8.1736  -15.4876   25.4151 C   0  0  0  0  0  0  0  0  0  0  0  0
    7.3789  -16.4342   25.6765 O   0  0  0  0  0  0  0  0  0  0  0  0
    9.4998  -15.6646   25.8711 N   0  0  0  0  0  0  0  0  0  0  0  0
    9.9406  -16.9680   26.4247 C   0  0  1  0  0  0  0  0  0  0  0  0
   11.2213  -17.3963   25.7979 C   0  0  0  0  0  0  0  0  0  0  0  0
   11.7563  -18.5920   26.4392 C   0  0  0  0  0  0  0  0  0  0  0  0
   11.8709  -18.9028   27.7845 C   0  0  0  0  0  0  0  0  0  0  0  0
   12.4455  -20.1063   27.9533 N   0  0  0  0  0  0  0  0  0  0  0  0
   12.7021  -20.5732   26.7292 C   0  0  0  0  0  0  0  0  0  0  0  0
   12.2977  -19.6833   25.8198 N   0  0  0  0  0  0  0  0  0  0  0  0
   10.1006  -16.8232   27.8804 C   0  0  0  0  0  0  0  0  0  0  0  0
   10.0728  -17.8566   28.8012 O   0  0  0  0  0  0  0  0  0  0  0  0
   10.2778  -15.6718   28.3599 O   0  0  0  0  0  0  0  0  0  0  0  0
  2  1  1  0
  2  3  1  0
  3 10  1  0
  4  3  2  0
  5  6  1  0
  6  7  1  0
  7  8  1  1
  7  9  1  0
  9 11  1  0
  9 10  1  6
 11 12  2  0
 13 11  1  0
 13 14  1  0
 14 21  1  0
 14 15  1  6
 16 15  1  0
 17 16  2  0
 18 19  1  0
 18 17  1  0
 19 20  2  0
 20 16  1  0
 21 23  2  0
 21 22  1  0
M  END
$$$$
