GIH.pdb
     RDKit          3D

 23 23  0  0  1  0  0  0  0  0999 V2000
    7.2840  -15.0866   19.6872 N   0  0  0  0  0  0  0  0  0  0  0  0
    6.5452  -14.9629   20.9026 C   0  0  0  0  0  0  0  0  0  0  0  0
    7.4553  -14.7643   22.0892 C   0  0  0  0  0  0  0  0  0  0  0  0
    8.6954  -14.8016   21.9668 O   0  0  0  0  0  0  0  0  0  0  0  0
    7.2407  -11.6951   27.3305 C   0  0  0  0  0  0  0  0  0  0  0  0
    7.9358  -12.7303   26.4906 C   0  0  0  0  0  0  0  0  0  0  0  0
    6.9866  -13.1797   25.3961 C   0  0  2  0  0  0  0  0  0  0  0  0
    5.6391  -13.5005   25.9800 C   0  0  0  0  0  0  0  0  0  0  0  0
    7.5888  -14.2009   24.5156 C   0  0  2  0  0  0  0  0  0  0  0  0
    6.8195  -14.5344   23.3424 N   0  0  0  0  0  0  0  0  0  0  0  0
    8.1487  -15.3954   25.1515 C   0  0  0  0  0  0  0  0  0  0  0  0
    7.4507  -16.3547   25.5856 O   0  0  0  0  0  0  0  0  0  0  0  0
    9.5451  -15.5356   25.3202 N   0  0  0  0  0  0  0  0  0  0  0  0
   10.1188  -16.7942   25.8556 C   0  0  1  0  0  0  0  0  0  0  0  0
   11.4919  -17.0115   25.3227 C   0  0  0  0  0  0  0  0  0  0  0  0
   11.4662  -17.3621   23.9072 C   0  0  0  0  0  0  0  0  0  0  0  0
   10.4623  -17.9514   23.1559 C   0  0  0  0  0  0  0  0  0  0  0  0
   10.8533  -18.1248   21.8816 N   0  0  0  0  0  0  0  0  0  0  0  0
   12.0999  -17.6531   21.8053 C   0  0  0  0  0  0  0  0  0  0  0  0
   12.4768  -17.1967   23.0021 N   0  0  0  0  0  0  0  0  0  0  0  0
   10.1425  -16.7049   27.3243 C   0  0  0  0  0  0  0  0  0  0  0  0
   10.1093  -17.7785   28.1977 O   0  0  0  0  0  0  0  0  0  0  0  0
   10.1956  -15.5671   27.8624 O   0  0  0  0  0  0  0  0  0  0  0  0
  2  1  1  0
  2  3  1  0
  3 10  1  0
  4  3  2  0
  5  6  1  0
  6  7  1  0
  7  8  1  1
  7  9  1  0
  9 11  1  0
  9 10  1  6
 11 12  2  0
 13 11  1  0
 13 14  1  0
 14 21  1  0
 14 15  1  6
 16 15  1  0
 17 16  2  0
 18 19  1  0
 18 17  1  0
 19 20  2  0
 20 16  1  0
 21 23  2  0
 21 22  1  0
M  END
$$$$
