GIH.pdb
     RDKit          3D

 23 23  0  0  1  0  0  0  0  0999 V2000
    4.8575  -18.5676   23.5107 N   0  0  0  0  0  0  0  0  0  0  0  0
    5.2777  -17.9659   24.7353 C   0  0  0  0  0  0  0  0  0  0  0  0
    6.0654  -16.7024   24.4929 C   0  0  0  0  0  0  0  0  0  0  0  0
    6.4022  -16.3608   23.3421 O   0  0  0  0  0  0  0  0  0  0  0  0
    6.3290  -11.8039   25.3233 C   0  0  0  0  0  0  0  0  0  0  0  0
    7.4137  -12.3551   26.2063 C   0  0  0  0  0  0  0  0  0  0  0  0
    7.0260  -13.7603   26.6261 C   0  0  2  0  0  0  0  0  0  0  0  0
    7.6612  -14.0995   27.9456 C   0  0  0  0  0  0  0  0  0  0  0  0
    7.1992  -14.7397   25.5347 C   0  0  2  0  0  0  0  0  0  0  0  0
    6.3969  -15.9330   25.6443 N   0  0  0  0  0  0  0  0  0  0  0  0
    8.5679  -15.0463   25.1133 C   0  0  0  0  0  0  0  0  0  0  0  0
    9.4263  -14.1685   24.8159 O   0  0  0  0  0  0  0  0  0  0  0  0
    9.0083  -16.3856   25.0110 N   0  0  0  0  0  0  0  0  0  0  0  0
   10.2237  -16.7236   24.2310 C   0  0  1  0  0  0  0  0  0  0  0  0
   10.3808  -15.7946   23.0784 C   0  0  0  0  0  0  0  0  0  0  0  0
   11.5466  -16.1367   22.2716 C   0  0  0  0  0  0  0  0  0  0  0  0
   12.5254  -17.0936   22.4856 C   0  0  0  0  0  0  0  0  0  0  0  0
   13.4448  -17.0696   21.5053 N   0  0  0  0  0  0  0  0  0  0  0  0
   13.0674  -16.1058   20.6621 C   0  0  0  0  0  0  0  0  0  0  0  0
   11.9407  -15.5431   21.1054 N   0  0  0  0  0  0  0  0  0  0  0  0
   11.3882  -16.6375   25.1268 C   0  0  0  0  0  0  0  0  0  0  0  0
   11.3468  -16.3259   26.4750 O   0  0  0  0  0  0  0  0  0  0  0  0
   12.5348  -16.8594   24.6545 O   0  0  0  0  0  0  0  0  0  0  0  0
  2  1  1  0
  2  3  1  0
  3 10  1  0
  4  3  2  0
  5  6  1  0
  6  7  1  0
  7  8  1  1
  7  9  1  0
  9 11  1  0
  9 10  1  1
 11 12  2  0
 13 11  1  0
 13 14  1  0
 14 21  1  0
 14 15  1  6
 16 15  1  0
 17 16  2  0
 18 19  1  0
 18 17  1  0
 19 20  2  0
 20 16  1  0
 21 23  2  0
 21 22  1  0
M  END
$$$$
