GIH.pdb
     RDKit          3D

 23 23  0  0  1  0  0  0  0  0999 V2000
    6.4472  -16.2806   20.7587 N   0  0  0  0  0  0  0  0  0  0  0  0
    5.8916  -15.9071   22.0197 C   0  0  0  0  0  0  0  0  0  0  0  0
    6.9615  -15.4887   22.9973 C   0  0  0  0  0  0  0  0  0  0  0  0
    8.1609  -15.7675   22.8021 O   0  0  0  0  0  0  0  0  0  0  0  0
    6.2936  -10.9925   26.0360 C   0  0  0  0  0  0  0  0  0  0  0  0
    6.7573  -12.1192   25.1553 C   0  0  0  0  0  0  0  0  0  0  0  0
    7.1200  -13.3006   26.0350 C   0  0  2  0  0  0  0  0  0  0  0  0
    8.1456  -12.8903   27.0545 C   0  0  0  0  0  0  0  0  0  0  0  0
    7.4142  -14.5158   25.2492 C   0  0  2  0  0  0  0  0  0  0  0  0
    6.5237  -14.7647   24.1426 N   0  0  0  0  0  0  0  0  0  0  0  0
    7.7108  -15.7437   25.9902 C   0  0  0  0  0  0  0  0  0  0  0  0
    6.8264  -16.5074   26.4704 O   0  0  0  0  0  0  0  0  0  0  0  0
    9.0472  -16.1452   26.2156 N   0  0  0  0  0  0  0  0  0  0  0  0
    9.3566  -17.5269   26.6574 C   0  0  1  0  0  0  0  0  0  0  0  0
    8.8839  -18.5163   25.6504 C   0  0  0  0  0  0  0  0  0  0  0  0
    9.2596  -19.8761   26.0204 C   0  0  0  0  0  0  0  0  0  0  0  0
    9.9542  -20.3359   27.1275 C   0  0  0  0  0  0  0  0  0  0  0  0
   10.1116  -21.6700   27.0772 N   0  0  0  0  0  0  0  0  0  0  0  0
    9.5250  -22.0735   25.9478 C   0  0  0  0  0  0  0  0  0  0  0  0
    9.0145  -21.0175   25.3099 N   0  0  0  0  0  0  0  0  0  0  0  0
   10.8117  -17.6379   26.8476 C   0  0  0  0  0  0  0  0  0  0  0  0
   11.4466  -18.5038   27.7214 O   0  0  0  0  0  0  0  0  0  0  0  0
   11.5706  -16.8925   26.1727 O   0  0  0  0  0  0  0  0  0  0  0  0
  2  1  1  0
  2  3  1  0
  3 10  1  0
  4  3  2  0
  5  6  1  0
  6  7  1  0
  7  8  1  6
  7  9  1  0
  9 11  1  0
  9 10  1  6
 11 12  2  0
 13 11  1  0
 13 14  1  0
 14 21  1  0
 14 15  1  6
 16 15  1  0
 17 16  2  0
 18 19  1  0
 18 17  1  0
 19 20  2  0
 20 16  1  0
 21 23  2  0
 21 22  1  0
M  END
$$$$
