AWY.pdb
     RDKit          3D

 32 34  0  0  1  0  0  0  0  0999 V2000
   14.2535  -18.9571    7.3444 C   0  0  0  0  0  0  0  0  0  0  0  0
   15.0121  -18.4132    6.1975 C   0  0  2  0  0  0  0  0  0  0  0  0
   14.5125  -18.9506    4.9490 N   0  0  0  0  0  0  0  0  0  0  0  0
   16.4810  -18.5825    6.2441 C   0  0  0  0  0  0  0  0  0  0  0  0
   16.9541  -19.7192    6.1904 O   0  0  0  0  0  0  0  0  0  0  0  0
   17.3996  -17.5129    6.3472 N   0  0  0  0  0  0  0  0  0  0  0  0
   18.7905  -17.5048    6.4121 C   0  0  1  0  0  0  0  0  0  0  0  0
   19.6156  -16.5744    5.6788 C   0  0  0  0  0  0  0  0  0  0  0  0
   18.9720  -15.2345    5.5131 C   0  0  0  0  0  0  0  0  0  0  0  0
   17.6989  -14.9679    5.0278 C   0  0  0  0  0  0  0  0  0  0  0  0
   17.4748  -13.6419    5.0435 N   0  0  0  0  0  0  0  0  0  0  0  0
   18.5619  -13.0228    5.5246 C   0  0  0  0  0  0  0  0  0  0  0  0
   18.8279  -11.6922    5.7314 C   0  0  0  0  0  0  0  0  0  0  0  0
   20.0347  -11.2592    6.2406 C   0  0  0  0  0  0  0  0  0  0  0  0
   20.9572  -12.2521    6.5287 C   0  0  0  0  0  0  0  0  0  0  0  0
   20.7179  -13.5923    6.3319 C   0  0  0  0  0  0  0  0  0  0  0  0
   19.5016  -13.9771    5.8229 C   0  0  0  0  0  0  0  0  0  0  0  0
   19.2187  -17.6002    7.8602 C   0  0  0  0  0  0  0  0  0  0  0  0
   18.4178  -17.2142    8.7339 O   0  0  0  0  0  0  0  0  0  0  0  0
   21.4668  -19.9198   15.8483 O   0  0  0  0  0  0  0  0  0  0  0  0
   21.1714  -19.8105   14.4980 C   0  0  0  0  0  0  0  0  0  0  0  0
   20.4442  -20.7575   13.8184 C   0  0  0  0  0  0  0  0  0  0  0  0
   20.1727  -20.6186   12.4938 C   0  0  0  0  0  0  0  0  0  0  0  0
   20.6067  -19.5213   11.7417 C   0  0  0  0  0  0  0  0  0  0  0  0
   20.2933  -19.4469   10.3031 C   0  0  0  0  0  0  0  0  0  0  0  0
   20.7920  -18.1686    9.7184 C   0  0  2  0  0  0  0  0  0  0  0  0
   20.4694  -18.1003    8.2790 N   0  0  0  0  0  0  0  0  0  0  0  0
   22.2523  -18.0662    9.8346 C   0  0  0  0  0  0  0  0  0  0  0  0
   23.1111  -18.1612    8.7452 O   0  0  0  0  0  0  0  0  0  0  0  0
   21.3356  -18.5766   12.4323 C   0  0  0  0  0  0  0  0  0  0  0  0
   21.6093  -18.7207   13.7780 C   0  0  0  0  0  0  0  0  0  0  0  0
   22.7799  -17.8866   10.9580 O   0  0  0  0  0  0  0  0  0  0  0  0
  2  1  1  1
  3  2  1  0
  4  2  1  0
  4  5  2  0
  6  4  1  0
  7  6  1  0
  7  8  1  1
  9  8  1  0
  9 17  1  0
 10  9  2  0
 11 10  1  0
 11 12  1  0
 12 13  1  0
 12 17  2  0
 13 14  2  0
 14 15  1  0
 16 15  2  0
 17 16  1  0
 18  7  1  0
 19 18  2  0
 20 21  1  0
 21 31  2  0
 21 22  1  0
 22 23  2  0
 23 24  1  0
 24 25  1  0
 26 25  1  6
 26 28  1  0
 26 27  1  0
 27 18  1  0
 28 29  1  0
 30 24  2  0
 31 30  1  0
 32 28  2  0
M  END
$$$$
