AWY.pdb
     RDKit          3D

 32 34  0  0  1  0  0  0  0  0999 V2000
   25.9240  -16.9867  -14.4802 C   0  0  0  0  0  0  0  0  0  0  0  0
   27.0366  -17.8244  -13.9830 C   0  0  2  0  0  0  0  0  0  0  0  0
   28.2681  -17.5085  -14.6764 N   0  0  0  0  0  0  0  0  0  0  0  0
   26.8219  -19.2876  -14.0197 C   0  0  0  0  0  0  0  0  0  0  0  0
   27.4283  -19.9604  -14.8555 O   0  0  0  0  0  0  0  0  0  0  0  0
   25.9545  -19.9840  -13.1472 N   0  0  0  0  0  0  0  0  0  0  0  0
   25.6819  -21.3437  -13.0214 C   0  0  1  0  0  0  0  0  0  0  0  0
   25.6415  -22.0328  -11.7535 C   0  0  0  0  0  0  0  0  0  0  0  0
   26.4024  -21.3196  -10.6814 C   0  0  0  0  0  0  0  0  0  0  0  0
   25.9035  -20.4068   -9.7620 C   0  0  0  0  0  0  0  0  0  0  0  0
   26.8921  -19.9940   -8.9489 N   0  0  0  0  0  0  0  0  0  0  0  0
   28.0306  -20.6063   -9.3030 C   0  0  0  0  0  0  0  0  0  0  0  0
   29.3013  -20.5198   -8.7910 C   0  0  0  0  0  0  0  0  0  0  0  0
   30.3509  -21.2452   -9.3155 C   0  0  0  0  0  0  0  0  0  0  0  0
   30.0394  -22.0640  -10.3891 C   0  0  0  0  0  0  0  0  0  0  0  0
   28.7759  -22.1704  -10.9223 C   0  0  0  0  0  0  0  0  0  0  0  0
   27.7615  -21.4292  -10.3674 C   0  0  0  0  0  0  0  0  0  0  0  0
   24.4820  -21.6887  -13.8761 C   0  0  0  0  0  0  0  0  0  0  0  0
   23.3624  -21.7173  -13.3288 O   0  0  0  0  0  0  0  0  0  0  0  0
   18.9992  -22.0085  -11.3996 O   0  0  0  0  0  0  0  0  0  0  0  0
   19.8217  -21.7693  -12.4899 C   0  0  0  0  0  0  0  0  0  0  0  0
   19.9032  -22.6267  -13.5603 C   0  0  0  0  0  0  0  0  0  0  0  0
   20.7205  -22.3613  -14.6134 C   0  0  0  0  0  0  0  0  0  0  0  0
   21.5226  -21.2166  -14.6811 C   0  0  0  0  0  0  0  0  0  0  0  0
   22.4016  -21.0038  -15.8454 C   0  0  0  0  0  0  0  0  0  0  0  0
   23.3171  -22.1657  -16.0364 C   0  0  2  0  0  0  0  0  0  0  0  0
   24.5558  -21.9792  -15.2544 N   0  0  0  0  0  0  0  0  0  0  0  0
   23.7160  -22.3012  -17.4432 C   0  0  0  0  0  0  0  0  0  0  0  0
   24.9590  -21.9045  -17.9236 O   0  0  0  0  0  0  0  0  0  0  0  0
   21.4341  -20.3626  -13.6026 C   0  0  0  0  0  0  0  0  0  0  0  0
   20.6025  -20.6352  -12.5345 C   0  0  0  0  0  0  0  0  0  0  0  0
   22.9173  -22.7929  -18.2757 O   0  0  0  0  0  0  0  0  0  0  0  0
  2  1  1  6
  3  2  1  0
  4  2  1  0
  4  5  2  0
  6  4  1  0
  7  6  1  0
  7  8  1  1
  9  8  1  0
  9 17  1  0
 10  9  2  0
 11 10  1  0
 11 12  1  0
 12 13  1  0
 12 17  2  0
 13 14  2  0
 14 15  1  0
 16 15  2  0
 17 16  1  0
 18  7  1  0
 19 18  2  0
 20 21  1  0
 21 31  2  0
 21 22  1  0
 22 23  2  0
 23 24  1  0
 24 25  1  0
 26 25  1  6
 26 28  1  0
 26 27  1  0
 27 18  1  0
 28 29  1  0
 30 24  2  0
 31 30  1  0
 32 28  2  0
M  END
$$$$
