AWY.pdb
     RDKit          3D

 32 34  0  0  1  0  0  0  0  0999 V2000
   27.2051  -18.7445  -19.2536 C   0  0  0  0  0  0  0  0  0  0  0  0
   27.9468  -19.7227  -18.4292 C   0  0  2  0  0  0  0  0  0  0  0  0
   28.4534  -20.8053  -19.2469 N   0  0  0  0  0  0  0  0  0  0  0  0
   27.2196  -20.2893  -17.2722 C   0  0  0  0  0  0  0  0  0  0  0  0
   26.4101  -21.1991  -17.4616 O   0  0  0  0  0  0  0  0  0  0  0  0
   27.3903  -19.8542  -15.9380 N   0  0  0  0  0  0  0  0  0  0  0  0
   26.7844  -20.2707  -14.7555 C   0  0  1  0  0  0  0  0  0  0  0  0
   27.3906  -20.1173  -13.4542 C   0  0  0  0  0  0  0  0  0  0  0  0
   26.6292  -20.8172  -12.3738 C   0  0  0  0  0  0  0  0  0  0  0  0
   26.1106  -22.1045  -12.4098 C   0  0  0  0  0  0  0  0  0  0  0  0
   25.5040  -22.3830  -11.2423 N   0  0  0  0  0  0  0  0  0  0  0  0
   25.6054  -21.3182  -10.4346 C   0  0  0  0  0  0  0  0  0  0  0  0
   25.1515  -21.1056   -9.1567 C   0  0  0  0  0  0  0  0  0  0  0  0
   25.3623  -19.9133   -8.4957 C   0  0  0  0  0  0  0  0  0  0  0  0
   26.0599  -18.9479   -9.2038 C   0  0  0  0  0  0  0  0  0  0  0  0
   26.5265  -19.1334  -10.4845 C   0  0  0  0  0  0  0  0  0  0  0  0
   26.2933  -20.3372  -11.1032 C   0  0  0  0  0  0  0  0  0  0  0  0
   25.3424  -19.8126  -14.7505 C   0  0  0  0  0  0  0  0  0  0  0  0
   25.1163  -18.5904  -14.8446 O   0  0  0  0  0  0  0  0  0  0  0  0
   16.7745  -18.5235  -15.4006 O   0  0  0  0  0  0  0  0  0  0  0  0
   18.0633  -19.0269  -15.4900 C   0  0  0  0  0  0  0  0  0  0  0  0
   18.3926  -20.2990  -15.0889 C   0  0  0  0  0  0  0  0  0  0  0  0
   19.6670  -20.7607  -15.1906 C   0  0  0  0  0  0  0  0  0  0  0  0
   20.7152  -19.9873  -15.7019 C   0  0  0  0  0  0  0  0  0  0  0  0
   22.0780  -20.5462  -15.7631 C   0  0  0  0  0  0  0  0  0  0  0  0
   22.8705  -20.1402  -14.5665 C   0  0  2  0  0  0  0  0  0  0  0  0
   24.2401  -20.6865  -14.6463 N   0  0  0  0  0  0  0  0  0  0  0  0
   22.2726  -20.6637  -13.3316 C   0  0  0  0  0  0  0  0  0  0  0  0
   21.5061  -19.8883  -12.4687 O   0  0  0  0  0  0  0  0  0  0  0  0
   20.3749  -18.7125  -16.1015 C   0  0  0  0  0  0  0  0  0  0  0  0
   19.0792  -18.2468  -15.9969 C   0  0  0  0  0  0  0  0  0  0  0  0
   22.4462  -21.8639  -13.0119 O   0  0  0  0  0  0  0  0  0  0  0  0
  2  1  1  6
  3  2  1  0
  4  2  1  0
  4  5  2  0
  6  4  1  0
  7  6  1  0
  7  8  1  1
  9  8  1  0
  9 17  1  0
 10  9  2  0
 11 10  1  0
 11 12  1  0
 12 13  1  0
 12 17  2  0
 13 14  2  0
 14 15  1  0
 16 15  2  0
 17 16  1  0
 18  7  1  0
 19 18  2  0
 20 21  1  0
 21 31  2  0
 21 22  1  0
 22 23  2  0
 23 24  1  0
 24 25  1  0
 26 25  1  6
 26 28  1  0
 26 27  1  0
 27 18  1  0
 28 29  1  0
 30 24  2  0
 31 30  1  0
 32 28  2  0
M  END
$$$$
