AWY.pdb
     RDKit          3D

 32 34  0  0  1  0  0  0  0  0999 V2000
   27.3094  -22.2502  -17.9948 C   0  0  0  0  0  0  0  0  0  0  0  0
   28.0540  -22.1761  -16.7194 C   0  0  2  0  0  0  0  0  0  0  0  0
   29.0842  -23.1925  -16.6654 N   0  0  0  0  0  0  0  0  0  0  0  0
   27.2441  -22.2415  -15.4833 C   0  0  0  0  0  0  0  0  0  0  0  0
   26.8113  -23.3329  -15.1087 O   0  0  0  0  0  0  0  0  0  0  0  0
   26.9249  -21.1199  -14.6840 N   0  0  0  0  0  0  0  0  0  0  0  0
   26.2051  -21.0180  -13.4965 C   0  0  1  0  0  0  0  0  0  0  0  0
   26.4982  -20.0467  -12.4695 C   0  0  0  0  0  0  0  0  0  0  0  0
   27.5551  -20.5101  -11.5179 C   0  0  0  0  0  0  0  0  0  0  0  0
   28.8690  -20.8429  -11.8182 C   0  0  0  0  0  0  0  0  0  0  0  0
   29.5160  -21.1992  -10.6944 N   0  0  0  0  0  0  0  0  0  0  0  0
   28.6692  -21.1124   -9.6590 C   0  0  0  0  0  0  0  0  0  0  0  0
   28.8455  -21.3695   -8.3222 C   0  0  0  0  0  0  0  0  0  0  0  0
   27.8232  -21.2183   -7.4084 C   0  0  0  0  0  0  0  0  0  0  0  0
   26.6112  -20.7914   -7.9267 C   0  0  0  0  0  0  0  0  0  0  0  0
   26.4060  -20.5262   -9.2608 C   0  0  0  0  0  0  0  0  0  0  0  0
   27.4532  -20.6905  -10.1342 C   0  0  0  0  0  0  0  0  0  0  0  0
   24.7254  -21.0612  -13.8097 C   0  0  0  0  0  0  0  0  0  0  0  0
   24.2825  -20.2589  -14.6547 O   0  0  0  0  0  0  0  0  0  0  0  0
   16.2579  -23.1670  -14.7244 O   0  0  0  0  0  0  0  0  0  0  0  0
   17.5770  -23.1342  -14.2986 C   0  0  0  0  0  0  0  0  0  0  0  0
   18.6377  -23.3062  -15.1547 C   0  0  0  0  0  0  0  0  0  0  0  0
   19.9192  -23.2681  -14.7033 C   0  0  0  0  0  0  0  0  0  0  0  0
   20.2435  -23.0548  -13.3589 C   0  0  0  0  0  0  0  0  0  0  0  0
   21.6560  -23.0471  -12.9366 C   0  0  0  0  0  0  0  0  0  0  0  0
   22.3835  -21.8956  -13.5442 C   0  0  2  0  0  0  0  0  0  0  0  0
   23.8189  -21.9553  -13.2027 N   0  0  0  0  0  0  0  0  0  0  0  0
   21.8750  -20.6167  -13.0319 C   0  0  0  0  0  0  0  0  0  0  0  0
   22.4281  -19.9611  -11.9375 O   0  0  0  0  0  0  0  0  0  0  0  0
   19.1727  -22.8834  -12.5077 C   0  0  0  0  0  0  0  0  0  0  0  0
   17.8721  -22.9226  -12.9697 C   0  0  0  0  0  0  0  0  0  0  0  0
   20.8941  -20.0659  -13.5861 O   0  0  0  0  0  0  0  0  0  0  0  0
  2  1  1  6
  3  2  1  0
  4  2  1  0
  4  5  2  0
  6  4  1  0
  7  6  1  0
  7  8  1  6
  9  8  1  0
  9 17  1  0
 10  9  2  0
 11 10  1  0
 11 12  1  0
 12 13  1  0
 12 17  2  0
 13 14  2  0
 14 15  1  0
 16 15  2  0
 17 16  1  0
 18  7  1  0
 19 18  2  0
 20 21  1  0
 21 31  2  0
 21 22  1  0
 22 23  2  0
 23 24  1  0
 24 25  1  0
 26 25  1  1
 26 28  1  0
 26 27  1  0
 27 18  1  0
 28 29  1  0
 30 24  2  0
 31 30  1  0
 32 28  2  0
M  END
$$$$
