AWY.pdb
     RDKit          3D

 32 34  0  0  1  0  0  0  0  0999 V2000
   26.6202  -24.5558  -17.0040 C   0  0  0  0  0  0  0  0  0  0  0  0
   27.2197  -23.5226  -16.1325 C   0  0  2  0  0  0  0  0  0  0  0  0
   28.5475  -23.9150  -15.7079 N   0  0  0  0  0  0  0  0  0  0  0  0
   26.4293  -23.1272  -14.9462 C   0  0  0  0  0  0  0  0  0  0  0  0
   26.2183  -23.9605  -14.0630 O   0  0  0  0  0  0  0  0  0  0  0  0
   25.8883  -21.8362  -14.7480 N   0  0  0  0  0  0  0  0  0  0  0  0
   25.2353  -21.2762  -13.6531 C   0  0  1  0  0  0  0  0  0  0  0  0
   25.7273  -20.1226  -12.9381 C   0  0  0  0  0  0  0  0  0  0  0  0
   26.9370  -20.4249  -12.1122 C   0  0  0  0  0  0  0  0  0  0  0  0
   28.2310  -20.6436  -12.5654 C   0  0  0  0  0  0  0  0  0  0  0  0
   29.0465  -20.8700  -11.5203 N   0  0  0  0  0  0  0  0  0  0  0  0
   28.3309  -20.8079  -10.3887 C   0  0  0  0  0  0  0  0  0  0  0  0
   28.6982  -20.9699   -9.0761 C   0  0  0  0  0  0  0  0  0  0  0  0
   27.7874  -20.8681   -8.0450 C   0  0  0  0  0  0  0  0  0  0  0  0
   26.4822  -20.5926   -8.4200 C   0  0  0  0  0  0  0  0  0  0  0  0
   26.0860  -20.4253   -9.7266 C   0  0  0  0  0  0  0  0  0  0  0  0
   27.0277  -20.5353  -10.7204 C   0  0  0  0  0  0  0  0  0  0  0  0
   23.7622  -21.1419  -13.9714 C   0  0  0  0  0  0  0  0  0  0  0  0
   23.4433  -20.6194  -15.0572 O   0  0  0  0  0  0  0  0  0  0  0  0
   21.4557  -27.1649  -16.1838 O   0  0  0  0  0  0  0  0  0  0  0  0
   21.2112  -26.0373  -15.4150 C   0  0  0  0  0  0  0  0  0  0  0  0
   20.3106  -25.0679  -15.7849 C   0  0  0  0  0  0  0  0  0  0  0  0
   20.0952  -23.9744  -15.0068 C   0  0  0  0  0  0  0  0  0  0  0  0
   20.7632  -23.7619  -13.7957 C   0  0  0  0  0  0  0  0  0  0  0  0
   20.4950  -22.5415  -13.0134 C   0  0  0  0  0  0  0  0  0  0  0  0
   21.3183  -21.4021  -13.5118 C   0  0  2  0  0  0  0  0  0  0  0  0
   22.7297  -21.5732  -13.1126 N   0  0  0  0  0  0  0  0  0  0  0  0
   20.8635  -20.1285  -12.9392 C   0  0  0  0  0  0  0  0  0  0  0  0
   19.6352  -19.5525  -13.2438 O   0  0  0  0  0  0  0  0  0  0  0  0
   21.6648  -24.7399  -13.4332 C   0  0  0  0  0  0  0  0  0  0  0  0
   21.8810  -25.8496  -14.2259 C   0  0  0  0  0  0  0  0  0  0  0  0
   21.5976  -19.5058  -12.1354 O   0  0  0  0  0  0  0  0  0  0  0  0
  2  1  1  1
  3  2  1  0
  4  2  1  0
  4  5  2  0
  6  4  1  0
  7  6  1  0
  7  8  1  6
  9  8  1  0
  9 17  1  0
 10  9  2  0
 11 10  1  0
 11 12  1  0
 12 13  1  0
 12 17  2  0
 13 14  2  0
 14 15  1  0
 16 15  2  0
 17 16  1  0
 18  7  1  0
 19 18  2  0
 20 21  1  0
 21 31  2  0
 21 22  1  0
 22 23  2  0
 23 24  1  0
 24 25  1  0
 26 25  1  1
 26 28  1  0
 26 27  1  0
 27 18  1  0
 28 29  1  0
 30 24  2  0
 31 30  1  0
 32 28  2  0
M  END
$$$$
