AAI.pdb
     RDKit          3D

 19 18  0  0  1  0  0  0  0  0999 V2000
    8.6425  -12.4146   19.4682 C   0  0  0  0  0  0  0  0  0  0  0  0
    8.2637  -13.8599   19.2303 C   0  0  2  0  0  0  0  0  0  0  0  0
    7.0881  -13.8800   18.3844 N   0  0  0  0  0  0  0  0  0  0  0  0
    7.9293  -14.5127   20.5270 C   0  0  0  0  0  0  0  0  0  0  0  0
    6.8507  -14.2868   21.1338 O   0  0  0  0  0  0  0  0  0  0  0  0
    9.2363  -17.4285   22.3607 C   0  0  0  0  0  0  0  0  0  0  0  0
    8.4480  -16.1106   22.3693 C   0  0  2  0  0  0  0  0  0  0  0  0
    8.8291  -15.4290   21.1373 N   0  0  0  0  0  0  0  0  0  0  0  0
    8.9228  -15.3679   23.5633 C   0  0  0  0  0  0  0  0  0  0  0  0
   10.0520  -14.8262   23.4954 O   0  0  0  0  0  0  0  0  0  0  0  0
    5.7580  -12.0103   26.0325 C   0  0  0  0  0  0  0  0  0  0  0  0
    6.9897  -12.7023   25.5522 C   0  0  0  0  0  0  0  0  0  0  0  0
    7.5233  -13.7080   26.5530 C   0  0  2  0  0  0  0  0  0  0  0  0
    8.0836  -12.9375   27.7246 C   0  0  0  0  0  0  0  0  0  0  0  0
    8.6401  -14.5096   25.9240 C   0  0  2  0  0  0  0  0  0  0  0  0
    8.1883  -15.2361   24.7565 N   0  0  0  0  0  0  0  0  0  0  0  0
    9.1340  -15.4856   26.9120 C   0  0  0  0  0  0  0  0  0  0  0  0
    8.6914  -16.7901   26.8652 O   0  0  0  0  0  0  0  0  0  0  0  0
    9.9534  -15.1637   27.8042 O   0  0  0  0  0  0  0  0  0  0  0  0
  2  3  1  0
  2  1  1  1
  4  2  1  0
  5  4  2  0
  7  6  1  6
  7  8  1  0
  8  4  1  0
  9  7  1  0
  9 16  1  0
 10  9  2  0
 12 11  1  0
 12 13  1  0
 13 14  1  1
 15 13  1  0
 15 16  1  6
 15 17  1  0
 17 18  1  0
 19 17  2  0
M  END
$$$$
