AAI.pdb
     RDKit          3D

 19 18  0  0  1  0  0  0  0  0999 V2000
    7.3940  -12.8371   18.8130 C   0  0  0  0  0  0  0  0  0  0  0  0
    8.4641  -13.6320   19.5284 C   0  0  2  0  0  0  0  0  0  0  0  0
    8.8218  -14.7565   18.6884 N   0  0  0  0  0  0  0  0  0  0  0  0
    7.9280  -14.1515   20.8177 C   0  0  0  0  0  0  0  0  0  0  0  0
    7.4451  -13.3937   21.6980 O   0  0  0  0  0  0  0  0  0  0  0  0
    7.6008  -17.5509   22.3377 C   0  0  0  0  0  0  0  0  0  0  0  0
    7.4008  -16.0288   22.3716 C   0  0  2  0  0  0  0  0  0  0  0  0
    7.9416  -15.5437   21.1068 N   0  0  0  0  0  0  0  0  0  0  0  0
    8.2055  -15.5447   23.5210 C   0  0  0  0  0  0  0  0  0  0  0  0
    9.4345  -15.3766   23.3357 O   0  0  0  0  0  0  0  0  0  0  0  0
    5.8628  -11.7920   26.4481 C   0  0  0  0  0  0  0  0  0  0  0  0
    6.9112  -12.6056   25.7659 C   0  0  0  0  0  0  0  0  0  0  0  0
    7.4857  -13.6870   26.6594 C   0  0  2  0  0  0  0  0  0  0  0  0
    8.3058  -13.0097   27.7314 C   0  0  0  0  0  0  0  0  0  0  0  0
    8.3944  -14.5857   25.8521 C   0  0  2  0  0  0  0  0  0  0  0  0
    7.6766  -15.2656   24.7950 N   0  0  0  0  0  0  0  0  0  0  0  0
    8.9679  -15.6047   26.7496 C   0  0  0  0  0  0  0  0  0  0  0  0
    8.4624  -16.8871   26.7400 O   0  0  0  0  0  0  0  0  0  0  0  0
    9.9117  -15.3397   27.5306 O   0  0  0  0  0  0  0  0  0  0  0  0
  2  3  1  0
  2  1  1  6
  4  2  1  0
  5  4  2  0
  7  6  1  6
  7  8  1  0
  8  4  1  0
  9  7  1  0
  9 16  1  0
 10  9  2  0
 12 11  1  0
 12 13  1  0
 13 14  1  1
 15 13  1  0
 15 16  1  6
 15 17  1  0
 17 18  1  0
 19 17  2  0
M  END
$$$$
