AAI.pdb
     RDKit          3D

 19 18  0  0  1  0  0  0  0  0999 V2000
    6.3524  -20.3264   22.2902 C   0  0  0  0  0  0  0  0  0  0  0  0
    6.3831  -19.1563   23.2488 C   0  0  2  0  0  0  0  0  0  0  0  0
    5.0416  -18.6177   23.3393 N   0  0  0  0  0  0  0  0  0  0  0  0
    7.2877  -18.0968   22.7209 C   0  0  0  0  0  0  0  0  0  0  0  0
    8.5131  -18.2986   22.5210 O   0  0  0  0  0  0  0  0  0  0  0  0
    6.8243  -14.7240   21.2535 C   0  0  0  0  0  0  0  0  0  0  0  0
    7.7102  -15.7602   21.9603 C   0  0  2  0  0  0  0  0  0  0  0  0
    6.7936  -16.7982   22.4184 N   0  0  0  0  0  0  0  0  0  0  0  0
    8.3274  -15.0450   23.1051 C   0  0  0  0  0  0  0  0  0  0  0  0
    9.2887  -14.2785   22.8569 O   0  0  0  0  0  0  0  0  0  0  0  0
    5.5796  -12.1644   26.2845 C   0  0  0  0  0  0  0  0  0  0  0  0
    6.7501  -12.7586   25.5751 C   0  0  0  0  0  0  0  0  0  0  0  0
    7.4838  -13.7851   26.4151 C   0  0  2  0  0  0  0  0  0  0  0  0
    8.2003  -13.0469   27.5206 C   0  0  0  0  0  0  0  0  0  0  0  0
    8.5113  -14.4983   25.5661 C   0  0  2  0  0  0  0  0  0  0  0  0
    7.9023  -15.1743   24.4405 N   0  0  0  0  0  0  0  0  0  0  0  0
    9.1911  -15.5078   26.3977 C   0  0  0  0  0  0  0  0  0  0  0  0
    8.9514  -16.8476   26.1796 O   0  0  0  0  0  0  0  0  0  0  0  0
    9.9897  -15.1835   27.3076 O   0  0  0  0  0  0  0  0  0  0  0  0
  2  3  1  0
  2  1  1  6
  4  2  1  0
  5  4  2  0
  7  6  1  6
  7  8  1  0
  8  4  1  0
  9  7  1  0
  9 16  1  0
 10  9  2  0
 12 11  1  0
 12 13  1  0
 13 14  1  1
 15 13  1  0
 15 16  1  6
 15 17  1  0
 17 18  1  0
 19 17  2  0
M  END
$$$$
