AAI.pdb
     RDKit          3D

 19 18  0  0  1  0  0  0  0  0999 V2000
    8.7035  -12.3823   19.3065 C   0  0  0  0  0  0  0  0  0  0  0  0
    8.3865  -13.8373   19.0393 C   0  0  2  0  0  0  0  0  0  0  0  0
    7.3216  -13.8897   18.0589 N   0  0  0  0  0  0  0  0  0  0  0  0
    7.9126  -14.4877   20.2931 C   0  0  0  0  0  0  0  0  0  0  0  0
    6.7351  -14.3540   20.7151 O   0  0  0  0  0  0  0  0  0  0  0  0
    8.8740  -17.3972   22.1844 C   0  0  0  0  0  0  0  0  0  0  0  0
    8.2780  -15.9837   22.2540 C   0  0  2  0  0  0  0  0  0  0  0  0
    8.7854  -15.2961   21.0719 N   0  0  0  0  0  0  0  0  0  0  0  0
    8.8180  -15.3823   23.4987 C   0  0  0  0  0  0  0  0  0  0  0  0
   10.0456  -15.1275   23.5319 O   0  0  0  0  0  0  0  0  0  0  0  0
    5.6512  -11.9368   26.1121 C   0  0  0  0  0  0  0  0  0  0  0  0
    6.8424  -12.6344   25.5454 C   0  0  0  0  0  0  0  0  0  0  0  0
    7.4554  -13.6257   26.5145 C   0  0  2  0  0  0  0  0  0  0  0  0
    8.0805  -12.8395   27.6421 C   0  0  0  0  0  0  0  0  0  0  0  0
    8.5398  -14.4156   25.8178 C   0  0  2  0  0  0  0  0  0  0  0  0
    8.0418  -15.0833   24.6341 N   0  0  0  0  0  0  0  0  0  0  0  0
    9.0467  -15.4414   26.7470 C   0  0  0  0  0  0  0  0  0  0  0  0
   10.1606  -15.1780   27.5152 O   0  0  0  0  0  0  0  0  0  0  0  0
    8.4910  -16.5588   26.8628 O   0  0  0  0  0  0  0  0  0  0  0  0
  2  3  1  0
  2  1  1  1
  4  2  1  0
  5  4  2  0
  7  6  1  6
  7  8  1  0
  8  4  1  0
  9  7  1  0
  9 16  1  0
 10  9  2  0
 12 11  1  0
 12 13  1  0
 13 14  1  1
 15 13  1  0
 15 16  1  6
 15 17  1  0
 17 18  1  0
 19 17  2  0
M  END
$$$$
