AAI.pdb
     RDKit          3D

 19 18  0  0  1  0  0  0  0  0999 V2000
    8.8056  -12.3927   19.1687 C   0  0  0  0  0  0  0  0  0  0  0  0
    8.4177  -13.8500   19.0478 C   0  0  2  0  0  0  0  0  0  0  0  0
    7.3547  -13.9495   18.0689 N   0  0  0  0  0  0  0  0  0  0  0  0
    7.9081  -14.3455   20.3571 C   0  0  0  0  0  0  0  0  0  0  0  0
    6.8245  -13.9414   20.8521 O   0  0  0  0  0  0  0  0  0  0  0  0
    8.5809  -17.2743   22.4462 C   0  0  0  0  0  0  0  0  0  0  0  0
    8.0882  -15.8225   22.3577 C   0  0  2  0  0  0  0  0  0  0  0  0
    8.6372  -15.3079   21.1082 N   0  0  0  0  0  0  0  0  0  0  0  0
    8.6769  -15.1278   23.5297 C   0  0  0  0  0  0  0  0  0  0  0  0
    9.8863  -14.8025   23.4610 O   0  0  0  0  0  0  0  0  0  0  0  0
    5.3176  -12.3806   27.1043 C   0  0  0  0  0  0  0  0  0  0  0  0
    6.2052  -13.4218   26.5086 C   0  0  0  0  0  0  0  0  0  0  0  0
    7.5849  -12.8916   26.1728 C   0  0  2  0  0  0  0  0  0  0  0  0
    7.4485  -11.9810   24.9758 C   0  0  0  0  0  0  0  0  0  0  0  0
    8.4965  -14.0399   25.8042 C   0  0  2  0  0  0  0  0  0  0  0  0
    7.9657  -14.8151   24.7032 N   0  0  0  0  0  0  0  0  0  0  0  0
    8.6301  -14.9291   26.9722 C   0  0  0  0  0  0  0  0  0  0  0  0
    8.1275  -16.2114   26.9167 O   0  0  0  0  0  0  0  0  0  0  0  0
    9.1928  -14.5524   28.0269 O   0  0  0  0  0  0  0  0  0  0  0  0
  2  3  1  0
  2  1  1  1
  4  2  1  0
  5  4  2  0
  7  6  1  1
  7  8  1  0
  8  4  1  0
  9  7  1  0
  9 16  1  0
 10  9  2  0
 12 11  1  0
 12 13  1  0
 13 14  1  6
 15 13  1  0
 15 16  1  6
 15 17  1  0
 17 18  1  0
 19 17  2  0
M  END
$$$$
