MWR.pdb
     RDKit          3D

 34 35  0  0  1  0  0  0  0  0999 V2000
   11.6030  -14.1972   29.4164 C   0  0  0  0  0  0  0  0  0  0  0  0
   10.3909  -14.5705   28.1266 S   0  0  0  0  0  0  0  0  0  0  0  0
   11.1307  -15.8157   27.0230 C   0  0  0  0  0  0  0  0  0  0  0  0
   11.1367  -17.1185   27.7728 C   0  0  0  0  0  0  0  0  0  0  0  0
    9.7659  -17.7278   27.9042 C   0  0  2  0  0  0  0  0  0  0  0  0
    9.9281  -19.0716   28.5143 N   0  0  0  0  0  0  0  0  0  0  0  0
    9.0978  -17.9870   26.6050 C   0  0  0  0  0  0  0  0  0  0  0  0
    9.3821  -18.9997   25.9017 O   0  0  0  0  0  0  0  0  0  0  0  0
    8.1051  -17.1442   26.0540 N   0  0  0  0  0  0  0  0  0  0  0  0
    7.4611  -17.2379   24.8148 C   0  0  1  0  0  0  0  0  0  0  0  0
    6.3006  -16.3513   24.4972 C   0  0  0  0  0  0  0  0  0  0  0  0
    6.6841  -14.9387   24.2106 C   0  0  0  0  0  0  0  0  0  0  0  0
    7.1708  -14.3524   23.0686 C   0  0  0  0  0  0  0  0  0  0  0  0
    7.3783  -13.0214   23.2476 N   0  0  0  0  0  0  0  0  0  0  0  0
    7.0290  -12.7213   24.5077 C   0  0  0  0  0  0  0  0  0  0  0  0
    7.0305  -11.5258   25.2232 C   0  0  0  0  0  0  0  0  0  0  0  0
    6.6032  -11.5100   26.5329 C   0  0  0  0  0  0  0  0  0  0  0  0
    6.1669  -12.6533   27.1707 C   0  0  0  0  0  0  0  0  0  0  0  0
    6.1726  -13.8452   26.4360 C   0  0  0  0  0  0  0  0  0  0  0  0
    6.5983  -13.8705   25.1281 C   0  0  0  0  0  0  0  0  0  0  0  0
    8.3923  -17.2839   23.6833 C   0  0  0  0  0  0  0  0  0  0  0  0
    7.9166  -17.7450   22.5862 O   0  0  0  0  0  0  0  0  0  0  0  0
    7.1716  -13.2077   18.4954 N   0  0  0  0  0  0  0  0  0  0  0  0
    8.5753  -13.3199   18.6553 C   0  0  0  0  0  0  0  0  0  0  0  0
    9.3446  -13.1171   17.6525 N   0  0  0  0  0  0  0  0  0  0  0  0
    9.1639  -13.6526   19.9031 N   0  0  0  0  0  0  0  0  0  0  0  0
   10.5915  -13.7500   20.0010 C   0  0  0  0  0  0  0  0  0  0  0  0
   10.9211  -15.1071   20.6178 C   0  0  0  0  0  0  0  0  0  0  0  0
   10.1819  -15.3151   21.9048 C   0  0  0  0  0  0  0  0  0  0  0  0
   10.4191  -16.6855   22.4350 C   0  0  2  0  0  0  0  0  0  0  0  0
    9.7459  -16.8606   23.7324 N   0  0  0  0  0  0  0  0  0  0  0  0
   11.8598  -16.8828   22.7232 C   0  0  0  0  0  0  0  0  0  0  0  0
   12.7726  -16.8231   21.8551 O   0  0  0  0  0  0  0  0  0  0  0  0
   12.2872  -17.1565   24.0339 O   0  0  0  0  0  0  0  0  0  0  0  0
  2  3  1  0
  2  1  1  0
  3  4  1  0
  4  5  1  0
  5  7  1  0
  5  6  1  6
  7  8  2  0
  9 10  1  0
  9  7  1  0
 10 21  1  0
 10 11  1  6
 12 11  1  0
 12 13  2  0
 14 13  1  0
 15 14  1  0
 16 15  2  0
 17 16  1  0
 18 17  2  0
 18 19  1  0
 19 20  2  0
 20 15  1  0
 20 12  1  0
 21 31  1  0
 22 21  2  0
 23 24  1  0
 24 25  2  0
 24 26  1  0
 26 27  1  0
 27 28  1  0
 29 28  1  0
 30 29  1  1
 31 30  1  0
 32 30  1  0
 33 32  2  0
 34 32  1  0
M  END
$$$$
