MWR.pdb
     RDKit          3D

 34 35  0  0  1  0  0  0  0  0999 V2000
    3.2706  -22.6761   25.3047 C   0  0  0  0  0  0  0  0  0  0  0  0
    4.8899  -21.9209   25.0220 S   0  0  0  0  0  0  0  0  0  0  0  0
    4.6724  -20.6060   23.7813 C   0  0  0  0  0  0  0  0  0  0  0  0
    6.0235  -19.9869   23.5565 C   0  0  0  0  0  0  0  0  0  0  0  0
    5.9733  -18.7721   22.6680 C   0  0  2  0  0  0  0  0  0  0  0  0
    5.6612  -19.2345   21.2920 N   0  0  0  0  0  0  0  0  0  0  0  0
    7.2738  -18.0697   22.5385 C   0  0  0  0  0  0  0  0  0  0  0  0
    8.1459  -18.4351   21.6978 O   0  0  0  0  0  0  0  0  0  0  0  0
    7.6415  -16.9535   23.3249 N   0  0  0  0  0  0  0  0  0  0  0  0
    8.8744  -16.2943   23.3934 C   0  0  1  0  0  0  0  0  0  0  0  0
    8.9561  -14.8967   23.9165 C   0  0  0  0  0  0  0  0  0  0  0  0
    7.7598  -14.4783   24.7030 C   0  0  0  0  0  0  0  0  0  0  0  0
    6.7364  -15.2156   25.2450 C   0  0  0  0  0  0  0  0  0  0  0  0
    5.8483  -14.4210   25.8980 N   0  0  0  0  0  0  0  0  0  0  0  0
    6.2804  -13.1554   25.7917 C   0  0  0  0  0  0  0  0  0  0  0  0
    5.7739  -11.9471   26.2658 C   0  0  0  0  0  0  0  0  0  0  0  0
    6.4452  -10.7726   26.0051 C   0  0  0  0  0  0  0  0  0  0  0  0
    7.6193  -10.7501   25.2804 C   0  0  0  0  0  0  0  0  0  0  0  0
    8.1131  -11.9737   24.8119 C   0  0  0  0  0  0  0  0  0  0  0  0
    7.4490  -13.1512   25.0668 C   0  0  0  0  0  0  0  0  0  0  0  0
    9.9376  -17.1194   23.9751 C   0  0  0  0  0  0  0  0  0  0  0  0
    9.6305  -17.7535   25.0458 O   0  0  0  0  0  0  0  0  0  0  0  0
   15.2729  -20.6024   19.9182 N   0  0  0  0  0  0  0  0  0  0  0  0
   15.3973  -19.2404   19.5466 C   0  0  0  0  0  0  0  0  0  0  0  0
   16.3925  -18.8676   18.8331 N   0  0  0  0  0  0  0  0  0  0  0  0
   14.4455  -18.2650   19.9424 N   0  0  0  0  0  0  0  0  0  0  0  0
   13.2966  -18.6728   20.6981 C   0  0  0  0  0  0  0  0  0  0  0  0
   13.2270  -17.7936   21.9442 C   0  0  0  0  0  0  0  0  0  0  0  0
   13.2420  -18.6187   23.1952 C   0  0  0  0  0  0  0  0  0  0  0  0
   12.1210  -18.2340   24.0956 C   0  0  2  0  0  0  0  0  0  0  0  0
   11.2441  -17.2516   23.4375 N   0  0  0  0  0  0  0  0  0  0  0  0
   12.6418  -17.5368   25.2957 C   0  0  0  0  0  0  0  0  0  0  0  0
   13.4450  -18.0487   26.1222 O   0  0  0  0  0  0  0  0  0  0  0  0
   12.2446  -16.2176   25.5744 O   0  0  0  0  0  0  0  0  0  0  0  0
  2  3  1  0
  2  1  1  0
  3  4  1  0
  4  5  1  0
  5  7  1  0
  5  6  1  6
  7  8  2  0
  9 10  1  0
  9  7  1  0
 10 21  1  0
 10 11  1  1
 12 11  1  0
 12 13  2  0
 14 13  1  0
 15 14  1  0
 16 15  2  0
 17 16  1  0
 18 17  2  0
 18 19  1  0
 19 20  2  0
 20 15  1  0
 20 12  1  0
 21 31  1  0
 22 21  2  0
 23 24  1  0
 24 25  2  0
 24 26  1  0
 26 27  1  0
 27 28  1  0
 29 28  1  0
 30 29  1  6
 31 30  1  0
 32 30  1  0
 33 32  2  0
 34 32  1  0
M  END
$$$$
