MWR.pdb
     RDKit          3D

 34 35  0  0  1  0  0  0  0  0999 V2000
    8.0924  -11.8435   20.2456 C   0  0  0  0  0  0  0  0  0  0  0  0
    6.5499  -12.7280   19.9130 S   0  0  0  0  0  0  0  0  0  0  0  0
    6.8153  -14.4759   20.3490 C   0  0  0  0  0  0  0  0  0  0  0  0
    8.3015  -14.6904   20.4171 C   0  0  0  0  0  0  0  0  0  0  0  0
    8.6755  -16.0941   20.8143 C   0  0  2  0  0  0  0  0  0  0  0  0
    7.4179  -16.8692   20.9628 N   0  0  0  0  0  0  0  0  0  0  0  0
    9.3292  -16.1873   22.1429 C   0  0  0  0  0  0  0  0  0  0  0  0
   10.5354  -15.8468   22.3158 O   0  0  0  0  0  0  0  0  0  0  0  0
    8.6735  -16.6523   23.3063 N   0  0  0  0  0  0  0  0  0  0  0  0
    9.1706  -16.7653   24.6098 C   0  0  1  0  0  0  0  0  0  0  0  0
    8.2631  -16.5834   25.7833 C   0  0  0  0  0  0  0  0  0  0  0  0
    7.3888  -15.3788   25.6859 C   0  0  0  0  0  0  0  0  0  0  0  0
    6.0666  -15.2523   25.3388 C   0  0  0  0  0  0  0  0  0  0  0  0
    5.6650  -13.9552   25.3916 N   0  0  0  0  0  0  0  0  0  0  0  0
    6.7187  -13.2185   25.7745 C   0  0  0  0  0  0  0  0  0  0  0  0
    6.8788  -11.8521   25.9953 C   0  0  0  0  0  0  0  0  0  0  0  0
    8.1013  -11.3613   26.3988 C   0  0  0  0  0  0  0  0  0  0  0  0
    9.1890  -12.1874   26.5953 C   0  0  0  0  0  0  0  0  0  0  0  0
    9.0094  -13.5573   26.3684 C   0  0  0  0  0  0  0  0  0  0  0  0
    7.7926  -14.0561   25.9646 C   0  0  0  0  0  0  0  0  0  0  0  0
   10.0224  -17.9432   24.8018 C   0  0  0  0  0  0  0  0  0  0  0  0
    9.4455  -19.0790   24.6613 O   0  0  0  0  0  0  0  0  0  0  0  0
   14.9774  -21.2224   20.0991 N   0  0  0  0  0  0  0  0  0  0  0  0
   15.7245  -21.7329   21.1899 C   0  0  0  0  0  0  0  0  0  0  0  0
   16.2464  -22.8989   21.1088 N   0  0  0  0  0  0  0  0  0  0  0  0
   15.9165  -20.9872   22.3820 N   0  0  0  0  0  0  0  0  0  0  0  0
   15.1818  -19.7703   22.5736 C   0  0  0  0  0  0  0  0  0  0  0  0
   14.0923  -20.0458   23.6070 C   0  0  0  0  0  0  0  0  0  0  0  0
   13.2071  -18.8517   23.7976 C   0  0  0  0  0  0  0  0  0  0  0  0
   12.1770  -19.1181   24.8384 C   0  0  2  0  0  0  0  0  0  0  0  0
   11.4037  -17.8983   25.1235 N   0  0  0  0  0  0  0  0  0  0  0  0
   12.8249  -19.4684   26.1249 C   0  0  0  0  0  0  0  0  0  0  0  0
   12.8214  -18.7292   27.1466 O   0  0  0  0  0  0  0  0  0  0  0  0
   13.4996  -20.6934   26.2657 O   0  0  0  0  0  0  0  0  0  0  0  0
  2  3  1  0
  2  1  1  0
  3  4  1  0
  4  5  1  0
  5  7  1  0
  5  6  1  1
  7  8  2  0
  9 10  1  0
  9  7  1  0
 10 21  1  0
 10 11  1  1
 12 11  1  0
 12 13  2  0
 14 13  1  0
 15 14  1  0
 16 15  2  0
 17 16  1  0
 18 17  2  0
 18 19  1  0
 19 20  2  0
 20 15  1  0
 20 12  1  0
 21 31  1  0
 22 21  2  0
 23 24  1  0
 24 25  2  0
 24 26  1  0
 26 27  1  0
 27 28  1  0
 29 28  1  0
 30 29  1  6
 31 30  1  0
 32 30  1  0
 33 32  2  0
 34 32  1  0
M  END
$$$$
