MWR.pdb
     RDKit          3D

 34 35  0  0  1  0  0  0  0  0999 V2000
    6.3200  -11.2384   18.7137 C   0  0  0  0  0  0  0  0  0  0  0  0
    7.7611  -12.2968   18.9876 S   0  0  0  0  0  0  0  0  0  0  0  0
    7.1522  -13.9890   19.2728 C   0  0  0  0  0  0  0  0  0  0  0  0
    7.4282  -14.3178   20.7134 C   0  0  0  0  0  0  0  0  0  0  0  0
    8.1220  -15.6423   20.8918 C   0  0  2  0  0  0  0  0  0  0  0  0
    7.0895  -16.6447   21.2574 N   0  0  0  0  0  0  0  0  0  0  0  0
    9.0828  -15.6686   22.0221 C   0  0  0  0  0  0  0  0  0  0  0  0
   10.1972  -15.0725   21.9613 O   0  0  0  0  0  0  0  0  0  0  0  0
    8.8397  -16.3452   23.2397 N   0  0  0  0  0  0  0  0  0  0  0  0
    9.6200  -16.3721   24.4014 C   0  0  1  0  0  0  0  0  0  0  0  0
    8.9728  -16.4805   25.7442 C   0  0  0  0  0  0  0  0  0  0  0  0
    7.7845  -15.5949   25.9119 C   0  0  0  0  0  0  0  0  0  0  0  0
    6.4413  -15.8660   25.8284 C   0  0  0  0  0  0  0  0  0  0  0  0
    5.6981  -14.7528   26.0631 N   0  0  0  0  0  0  0  0  0  0  0  0
    6.5457  -13.7412   26.3037 C   0  0  0  0  0  0  0  0  0  0  0  0
    6.3415  -12.3961   26.6043 C   0  0  0  0  0  0  0  0  0  0  0  0
    7.4229  -11.5684   26.8132 C   0  0  0  0  0  0  0  0  0  0  0  0
    8.7205  -12.0312   26.7345 C   0  0  0  0  0  0  0  0  0  0  0  0
    8.9063  -13.3854   26.4313 C   0  0  0  0  0  0  0  0  0  0  0  0
    7.8325  -14.2191   26.2204 C   0  0  0  0  0  0  0  0  0  0  0  0
   10.7598  -17.2896   24.3091 C   0  0  0  0  0  0  0  0  0  0  0  0
   10.5239  -18.5081   24.6291 O   0  0  0  0  0  0  0  0  0  0  0  0
   16.8681  -19.0170   18.4677 N   0  0  0  0  0  0  0  0  0  0  0  0
   17.0908  -19.8969   19.5562 C   0  0  0  0  0  0  0  0  0  0  0  0
   17.8713  -20.9007   19.4089 N   0  0  0  0  0  0  0  0  0  0  0  0
   16.4716  -19.7008   20.8180 N   0  0  0  0  0  0  0  0  0  0  0  0
   15.5590  -18.6076   20.9887 C   0  0  0  0  0  0  0  0  0  0  0  0
   15.0843  -18.6237   22.4396 C   0  0  0  0  0  0  0  0  0  0  0  0
   14.0933  -17.5303   22.7013 C   0  0  0  0  0  0  0  0  0  0  0  0
   12.9789  -18.0208   23.5573 C   0  0  2  0  0  0  0  0  0  0  0  0
   12.0663  -16.9174   23.8990 N   0  0  0  0  0  0  0  0  0  0  0  0
   13.5030  -18.4993   24.8589 C   0  0  0  0  0  0  0  0  0  0  0  0
   14.0625  -19.6160   25.0323 O   0  0  0  0  0  0  0  0  0  0  0  0
   13.3934  -17.6922   26.0044 O   0  0  0  0  0  0  0  0  0  0  0  0
  2  3  1  0
  2  1  1  0
  3  4  1  0
  4  5  1  0
  5  7  1  0
  5  6  1  1
  7  8  2  0
  9 10  1  0
  9  7  1  0
 10 21  1  0
 10 11  1  1
 12 11  1  0
 12 13  2  0
 14 13  1  0
 15 14  1  0
 16 15  2  0
 17 16  1  0
 18 17  2  0
 18 19  1  0
 19 20  2  0
 20 15  1  0
 20 12  1  0
 21 31  1  0
 22 21  2  0
 23 24  1  0
 24 25  2  0
 24 26  1  0
 26 27  1  0
 27 28  1  0
 29 28  1  0
 30 29  1  6
 31 30  1  0
 32 30  1  0
 33 32  2  0
 34 32  1  0
M  END
$$$$
