MWR.pdb
     RDKit          3D

 34 35  0  0  1  0  0  0  0  0999 V2000
    8.3080  -12.0684   19.8640 C   0  0  0  0  0  0  0  0  0  0  0  0
    6.8213  -13.0960   19.9409 S   0  0  0  0  0  0  0  0  0  0  0  0
    7.3166  -14.7303   20.5728 C   0  0  0  0  0  0  0  0  0  0  0  0
    8.7555  -14.6206   20.9934 C   0  0  0  0  0  0  0  0  0  0  0  0
    9.3200  -15.9202   21.5033 C   0  0  2  0  0  0  0  0  0  0  0  0
    8.2050  -16.8982   21.5721 N   0  0  0  0  0  0  0  0  0  0  0  0
    9.8360  -15.8459   22.8924 C   0  0  0  0  0  0  0  0  0  0  0  0
   10.8565  -15.1584   23.1867 O   0  0  0  0  0  0  0  0  0  0  0  0
    9.2426  -16.5207   23.9843 N   0  0  0  0  0  0  0  0  0  0  0  0
    9.6315  -16.5291   25.3289 C   0  0  1  0  0  0  0  0  0  0  0  0
    8.6120  -16.3797   26.4115 C   0  0  0  0  0  0  0  0  0  0  0  0
    7.4430  -15.5381   26.0242 C   0  0  0  0  0  0  0  0  0  0  0  0
    6.2336  -15.8780   25.4707 C   0  0  0  0  0  0  0  0  0  0  0  0
    5.4497  -14.7831   25.2884 N   0  0  0  0  0  0  0  0  0  0  0  0
    6.1362  -13.7148   25.7211 C   0  0  0  0  0  0  0  0  0  0  0  0
    5.8245  -12.3580   25.7776 C   0  0  0  0  0  0  0  0  0  0  0  0
    6.7405  -11.4647   26.2886 C   0  0  0  0  0  0  0  0  0  0  0  0
    7.9741  -11.8723   26.7538 C   0  0  0  0  0  0  0  0  0  0  0  0
    8.2698  -13.2393   26.6890 C   0  0  0  0  0  0  0  0  0  0  0  0
    7.3616  -14.1383   26.1796 C   0  0  0  0  0  0  0  0  0  0  0  0
   10.5637  -17.6136   25.6524 C   0  0  0  0  0  0  0  0  0  0  0  0
   10.7637  -17.8249   26.9006 O   0  0  0  0  0  0  0  0  0  0  0  0
   14.8453  -19.3132   20.0776 N   0  0  0  0  0  0  0  0  0  0  0  0
   13.4572  -19.4555   19.8299 C   0  0  0  0  0  0  0  0  0  0  0  0
   12.9352  -18.8872   18.8085 N   0  0  0  0  0  0  0  0  0  0  0  0
   12.6168  -20.2154   20.6845 N   0  0  0  0  0  0  0  0  0  0  0  0
   12.0591  -19.5953   21.8514 C   0  0  0  0  0  0  0  0  0  0  0  0
   13.0925  -19.7019   22.9701 C   0  0  0  0  0  0  0  0  0  0  0  0
   12.5299  -20.4070   24.1669 C   0  0  0  0  0  0  0  0  0  0  0  0
   12.1563  -19.4321   25.2276 C   0  0  2  0  0  0  0  0  0  0  0  0
   11.2346  -18.4161   24.6936 N   0  0  0  0  0  0  0  0  0  0  0  0
   13.3492  -18.6707   25.6690 C   0  0  0  0  0  0  0  0  0  0  0  0
   13.4851  -17.4239   25.5371 O   0  0  0  0  0  0  0  0  0  0  0  0
   14.4258  -19.3361   26.2803 O   0  0  0  0  0  0  0  0  0  0  0  0
  2  3  1  0
  2  1  1  0
  3  4  1  0
  4  5  1  0
  5  7  1  0
  5  6  1  1
  7  8  2  0
  9 10  1  0
  9  7  1  0
 10 21  1  0
 10 11  1  1
 12 11  1  0
 12 13  2  0
 14 13  1  0
 15 14  1  0
 16 15  2  0
 17 16  1  0
 18 17  2  0
 18 19  1  0
 19 20  2  0
 20 15  1  0
 20 12  1  0
 21 31  1  0
 22 21  2  0
 23 24  1  0
 24 25  2  0
 24 26  1  0
 26 27  1  0
 27 28  1  0
 29 28  1  0
 30 29  1  6
 31 30  1  0
 32 30  1  0
 33 32  2  0
 34 32  1  0
M  END
$$$$
