MWR.pdb
     RDKit          3D

 34 35  0  0  1  0  0  0  0  0999 V2000
    7.3315  -19.4912   19.0002 C   0  0  0  0  0  0  0  0  0  0  0  0
    5.8683  -18.4974   18.6216 S   0  0  0  0  0  0  0  0  0  0  0  0
    6.4290  -16.7936   18.3082 C   0  0  0  0  0  0  0  0  0  0  0  0
    7.5376  -16.5101   19.2829 C   0  0  0  0  0  0  0  0  0  0  0  0
    7.1522  -15.5051   20.3360 C   0  0  2  0  0  0  0  0  0  0  0  0
    7.0897  -14.1726   19.6841 N   0  0  0  0  0  0  0  0  0  0  0  0
    8.1620  -15.3462   21.4114 C   0  0  0  0  0  0  0  0  0  0  0  0
    9.1762  -14.6036   21.2667 O   0  0  0  0  0  0  0  0  0  0  0  0
    8.0781  -15.9950   22.6651 N   0  0  0  0  0  0  0  0  0  0  0  0
    8.9716  -15.9465   23.7414 C   0  0  1  0  0  0  0  0  0  0  0  0
    8.4617  -15.9104   25.1459 C   0  0  0  0  0  0  0  0  0  0  0  0
    7.4349  -14.8554   25.3856 C   0  0  0  0  0  0  0  0  0  0  0  0
    6.0665  -14.8915   25.2822 C   0  0  0  0  0  0  0  0  0  0  0  0
    5.5157  -13.6923   25.6064 N   0  0  0  0  0  0  0  0  0  0  0  0
    6.5166  -12.8583   25.9263 C   0  0  0  0  0  0  0  0  0  0  0  0
    6.5350  -11.5262   26.3341 C   0  0  0  0  0  0  0  0  0  0  0  0
    7.7361  -10.9092   26.6074 C   0  0  0  0  0  0  0  0  0  0  0  0
    8.9397  -11.5739   26.4901 C   0  0  0  0  0  0  0  0  0  0  0  0
    8.9017  -12.9118   26.0790 C   0  0  0  0  0  0  0  0  0  0  0  0
    7.7070  -13.5356   25.8033 C   0  0  0  0  0  0  0  0  0  0  0  0
   10.0702  -16.9100   23.6224 C   0  0  0  0  0  0  0  0  0  0  0  0
    9.7632  -18.0487   23.1205 O   0  0  0  0  0  0  0  0  0  0  0  0
   17.8463  -19.2815   19.2555 N   0  0  0  0  0  0  0  0  0  0  0  0
   16.5542  -18.8004   19.5835 C   0  0  0  0  0  0  0  0  0  0  0  0
   15.7318  -18.5071   18.6475 N   0  0  0  0  0  0  0  0  0  0  0  0
   16.1359  -18.6315   20.9291 N   0  0  0  0  0  0  0  0  0  0  0  0
   14.7815  -18.2441   21.1987 C   0  0  0  0  0  0  0  0  0  0  0  0
   14.6379  -18.0865   22.7104 C   0  0  0  0  0  0  0  0  0  0  0  0
   13.6100  -17.0519   23.0556 C   0  0  0  0  0  0  0  0  0  0  0  0
   12.3987  -17.6859   23.6437 C   0  0  2  0  0  0  0  0  0  0  0  0
   11.4101  -16.6615   24.0183 N   0  0  0  0  0  0  0  0  0  0  0  0
   12.7413  -18.3681   24.9145 C   0  0  0  0  0  0  0  0  0  0  0  0
   13.5367  -19.3424   25.0059 O   0  0  0  0  0  0  0  0  0  0  0  0
   12.1686  -17.9381   26.1239 O   0  0  0  0  0  0  0  0  0  0  0  0
  2  3  1  0
  2  1  1  0
  3  4  1  0
  4  5  1  0
  5  7  1  0
  5  6  1  6
  7  8  2  0
  9 10  1  0
  9  7  1  0
 10 21  1  0
 10 11  1  1
 12 11  1  0
 12 13  2  0
 14 13  1  0
 15 14  1  0
 16 15  2  0
 17 16  1  0
 18 17  2  0
 18 19  1  0
 19 20  2  0
 20 15  1  0
 20 12  1  0
 21 31  1  0
 22 21  2  0
 23 24  1  0
 24 25  2  0
 24 26  1  0
 26 27  1  0
 27 28  1  0
 29 28  1  0
 30 29  1  1
 31 30  1  0
 32 30  1  0
 33 32  2  0
 34 32  1  0
M  END
$$$$
