MWR.pdb
     RDKit          3D

 34 35  0  0  1  0  0  0  0  0999 V2000
    7.2957  -11.6030   20.5118 C   0  0  0  0  0  0  0  0  0  0  0  0
    7.7879  -12.4756   19.0057 S   0  0  0  0  0  0  0  0  0  0  0  0
    7.3512  -14.2301   19.2213 C   0  0  0  0  0  0  0  0  0  0  0  0
    7.6054  -14.5718   20.6628 C   0  0  0  0  0  0  0  0  0  0  0  0
    8.5984  -15.6907   20.8358 C   0  0  2  0  0  0  0  0  0  0  0  0
    7.8316  -16.9369   21.0879 N   0  0  0  0  0  0  0  0  0  0  0  0
    9.4683  -15.5414   22.0285 C   0  0  0  0  0  0  0  0  0  0  0  0
   10.4841  -14.7871   22.0202 O   0  0  0  0  0  0  0  0  0  0  0  0
    9.2402  -16.2129   23.2519 N   0  0  0  0  0  0  0  0  0  0  0  0
   10.0055  -16.1892   24.4236 C   0  0  1  0  0  0  0  0  0  0  0  0
    9.7620  -15.1446   25.4644 C   0  0  0  0  0  0  0  0  0  0  0  0
    8.3187  -14.8371   25.6812 C   0  0  0  0  0  0  0  0  0  0  0  0
    7.1998  -15.6180   25.5301 C   0  0  0  0  0  0  0  0  0  0  0  0
    6.0720  -14.9306   25.8496 N   0  0  0  0  0  0  0  0  0  0  0  0
    6.4396  -13.6930   26.2141 C   0  0  0  0  0  0  0  0  0  0  0  0
    5.7113  -12.5836   26.6385 C   0  0  0  0  0  0  0  0  0  0  0  0
    6.3667  -11.4154   26.9607 C   0  0  0  0  0  0  0  0  0  0  0  0
    7.7395  -11.3034   26.8771 C   0  0  0  0  0  0  0  0  0  0  0  0
    8.4547  -12.4283   26.4487 C   0  0  0  0  0  0  0  0  0  0  0  0
    7.8086  -13.5986   26.1242 C   0  0  0  0  0  0  0  0  0  0  0  0
   10.1446  -17.5084   25.0479 C   0  0  0  0  0  0  0  0  0  0  0  0
    9.0635  -18.1859   25.1700 O   0  0  0  0  0  0  0  0  0  0  0  0
   11.4389  -19.5462   19.8582 N   0  0  0  0  0  0  0  0  0  0  0  0
   12.7561  -19.9180   20.2262 C   0  0  0  0  0  0  0  0  0  0  0  0
   13.7359  -19.6178   19.4591 N   0  0  0  0  0  0  0  0  0  0  0  0
   13.0291  -20.6189   21.4296 N   0  0  0  0  0  0  0  0  0  0  0  0
   11.9543  -20.8986   22.3372 C   0  0  0  0  0  0  0  0  0  0  0  0
   12.1642  -20.0390   23.5813 C   0  0  0  0  0  0  0  0  0  0  0  0
   11.1109  -20.3068   24.6132 C   0  0  0  0  0  0  0  0  0  0  0  0
   11.3513  -19.4947   25.8371 C   0  0  2  0  0  0  0  0  0  0  0  0
   11.3681  -18.0596   25.5093 N   0  0  0  0  0  0  0  0  0  0  0  0
   12.6998  -19.7768   26.3843 C   0  0  0  0  0  0  0  0  0  0  0  0
   13.0756  -20.9063   26.8007 O   0  0  0  0  0  0  0  0  0  0  0  0
   13.6581  -18.7518   26.4653 O   0  0  0  0  0  0  0  0  0  0  0  0
  2  3  1  0
  2  1  1  0
  3  4  1  0
  4  5  1  0
  5  7  1  0
  5  6  1  1
  7  8  2  0
  9 10  1  0
  9  7  1  0
 10 21  1  0
 10 11  1  1
 12 11  1  0
 12 13  2  0
 14 13  1  0
 15 14  1  0
 16 15  2  0
 17 16  1  0
 18 17  2  0
 18 19  1  0
 19 20  2  0
 20 15  1  0
 20 12  1  0
 21 31  1  0
 22 21  2  0
 23 24  1  0
 24 25  2  0
 24 26  1  0
 26 27  1  0
 27 28  1  0
 29 28  1  0
 30 29  1  6
 31 30  1  0
 32 30  1  0
 33 32  2  0
 34 32  1  0
M  END
$$$$
