MWR.pdb
     RDKit          3D

 34 35  0  0  1  0  0  0  0  0999 V2000
    7.4452  -12.0221   20.5504 C   0  0  0  0  0  0  0  0  0  0  0  0
    6.7157  -13.6730   20.6705 S   0  0  0  0  0  0  0  0  0  0  0  0
    7.8380  -14.8310   19.8249 C   0  0  0  0  0  0  0  0  0  0  0  0
    9.0641  -14.9607   20.6846 C   0  0  0  0  0  0  0  0  0  0  0  0
    9.0979  -16.2444   21.4712 C   0  0  2  0  0  0  0  0  0  0  0  0
    7.6941  -16.6802   21.6804 N   0  0  0  0  0  0  0  0  0  0  0  0
    9.6490  -16.0943   22.8405 C   0  0  0  0  0  0  0  0  0  0  0  0
   10.6175  -15.3181   23.0861 O   0  0  0  0  0  0  0  0  0  0  0  0
    9.1480  -16.7890   23.9657 N   0  0  0  0  0  0  0  0  0  0  0  0
    9.6002  -16.7595   25.2900 C   0  0  1  0  0  0  0  0  0  0  0  0
    8.7070  -16.2679   26.3829 C   0  0  0  0  0  0  0  0  0  0  0  0
    7.5818  -15.4152   25.9017 C   0  0  0  0  0  0  0  0  0  0  0  0
    6.4639  -15.7296   25.1694 C   0  0  0  0  0  0  0  0  0  0  0  0
    5.6877  -14.6341   24.9597 N   0  0  0  0  0  0  0  0  0  0  0  0
    6.2878  -13.5910   25.5527 C   0  0  0  0  0  0  0  0  0  0  0  0
    5.9423  -12.2455   25.6602 C   0  0  0  0  0  0  0  0  0  0  0  0
    6.7631  -11.3797   26.3492 C   0  0  0  0  0  0  0  0  0  0  0  0
    7.9327  -11.8043   26.9460 C   0  0  0  0  0  0  0  0  0  0  0  0
    8.2637  -13.1595   26.8274 C   0  0  0  0  0  0  0  0  0  0  0  0
    7.4505  -14.0310   26.1406 C   0  0  0  0  0  0  0  0  0  0  0  0
   10.2709  -17.9978   25.6978 C   0  0  0  0  0  0  0  0  0  0  0  0
   10.1043  -19.0050   24.9229 O   0  0  0  0  0  0  0  0  0  0  0  0
   12.6349  -21.4237   22.7985 N   0  0  0  0  0  0  0  0  0  0  0  0
   14.0354  -21.5992   22.9269 C   0  0  0  0  0  0  0  0  0  0  0  0
   14.5806  -22.6739   22.4950 N   0  0  0  0  0  0  0  0  0  0  0  0
   14.8633  -20.6133   23.5239 N   0  0  0  0  0  0  0  0  0  0  0  0
   14.7323  -20.3437   24.9265 C   0  0  0  0  0  0  0  0  0  0  0  0
   13.4351  -19.5645   25.1284 C   0  0  0  0  0  0  0  0  0  0  0  0
   13.2425  -19.1893   26.5665 C   0  0  0  0  0  0  0  0  0  0  0  0
   11.8281  -19.3948   26.9815 C   0  0  2  0  0  0  0  0  0  0  0  0
   11.0678  -18.1397   26.8633 N   0  0  0  0  0  0  0  0  0  0  0  0
   11.7605  -19.7476   28.4198 C   0  0  0  0  0  0  0  0  0  0  0  0
   11.4241  -18.9456   29.3330 O   0  0  0  0  0  0  0  0  0  0  0  0
   12.0827  -21.0482   28.8441 O   0  0  0  0  0  0  0  0  0  0  0  0
  2  3  1  0
  2  1  1  0
  3  4  1  0
  4  5  1  0
  5  7  1  0
  5  6  1  1
  7  8  2  0
  9 10  1  0
  9  7  1  0
 10 21  1  0
 10 11  1  1
 12 11  1  0
 12 13  2  0
 14 13  1  0
 15 14  1  0
 16 15  2  0
 17 16  1  0
 18 17  2  0
 18 19  1  0
 19 20  2  0
 20 15  1  0
 20 12  1  0
 21 31  1  0
 22 21  2  0
 23 24  1  0
 24 25  2  0
 24 26  1  0
 26 27  1  0
 27 28  1  0
 29 28  1  0
 30 29  1  1
 31 30  1  0
 32 30  1  0
 33 32  2  0
 34 32  1  0
M  END
$$$$
