LYV.pdb
     RDKit          3D

 28 28  0  0  1  0  0  0  0  0999 V2000
    7.4135  -12.9602   17.4435 C   0  0  0  0  0  0  0  0  0  0  0  0
    7.7599  -14.3517   17.9231 C   0  0  1  0  0  0  0  0  0  0  0  0
    7.7030  -15.3547   16.8187 C   0  0  0  0  0  0  0  0  0  0  0  0
    9.0546  -14.4114   18.6583 C   0  0  0  0  0  0  0  0  0  0  0  0
    9.2086  -15.6235   19.5302 C   0  0  2  0  0  0  0  0  0  0  0  0
    8.0174  -16.4480   19.4893 N   0  0  0  0  0  0  0  0  0  0  0  0
    9.4604  -15.2340   20.9368 C   0  0  0  0  0  0  0  0  0  0  0  0
   10.5530  -14.6754   21.2042 O   0  0  0  0  0  0  0  0  0  0  0  0
    6.8713  -12.2161   28.8986 O   0  0  0  0  0  0  0  0  0  0  0  0
    7.0262  -12.7176   27.6122 C   0  0  0  0  0  0  0  0  0  0  0  0
    7.7530  -12.0408   26.6339 C   0  0  0  0  0  0  0  0  0  0  0  0
    7.8734  -12.5886   25.3704 C   0  0  0  0  0  0  0  0  0  0  0  0
    7.2957  -13.7916   25.0381 C   0  0  0  0  0  0  0  0  0  0  0  0
    7.4013  -14.3971   23.7219 C   0  0  0  0  0  0  0  0  0  0  0  0
    8.7075  -14.9848   23.3255 C   0  0  2  0  0  0  0  0  0  0  0  0
    8.4939  -15.4873   21.9432 N   0  0  0  0  0  0  0  0  0  0  0  0
    9.1459  -16.1479   24.1168 C   0  0  0  0  0  0  0  0  0  0  0  0
    8.5525  -17.2744   23.9643 O   0  0  0  0  0  0  0  0  0  0  0  0
    6.5823  -14.4333   26.0364 C   0  0  0  0  0  0  0  0  0  0  0  0
    6.4390  -13.9207   27.3074 C   0  0  0  0  0  0  0  0  0  0  0  0
   12.2853  -18.9533   26.4174 C   0  0  0  0  0  0  0  0  0  0  0  0
   12.0026  -17.7063   25.6280 C   0  0  1  0  0  0  0  0  0  0  0  0
   12.1471  -18.0841   24.1481 C   0  0  0  0  0  0  0  0  0  0  0  0
   10.5287  -17.3644   25.8157 C   0  0  2  0  0  0  0  0  0  0  0  0
   10.1998  -16.1567   25.0644 N   0  0  0  0  0  0  0  0  0  0  0  0
   10.1517  -17.3040   27.2263 C   0  0  0  0  0  0  0  0  0  0  0  0
    9.9003  -16.1263   27.9072 O   0  0  0  0  0  0  0  0  0  0  0  0
   10.0419  -18.3645   27.8853 O   0  0  0  0  0  0  0  0  0  0  0  0
  2  1  1  6
  2  4  1  0
  3  2  1  0
  5  4  1  0
  5  6  1  1
  7  8  2  0
  7  5  1  0
  9 10  1  0
 10 11  2  0
 11 12  1  0
 13 12  2  0
 13 14  1  0
 15 14  1  1
 15 16  1  0
 16  7  1  0
 17 18  2  0
 17 15  1  0
 19 13  1  0
 20 10  1  0
 20 19  2  0
 22 21  1  1
 23 22  1  0
 24 25  1  1
 24 22  1  0
 25 17  1  0
 26 24  1  0
 27 26  1  0
 28 26  2  0
M  END
$$$$
