LYV.pdb
     RDKit          3D

 28 28  0  0  1  0  0  0  0  0999 V2000
    6.9963  -12.1547   18.7685 C   0  0  0  0  0  0  0  0  0  0  0  0
    7.2170  -13.5847   19.2076 C   0  0  1  0  0  0  0  0  0  0  0  0
    7.4950  -14.4884   18.0521 C   0  0  0  0  0  0  0  0  0  0  0  0
    8.2497  -13.7163   20.2736 C   0  0  0  0  0  0  0  0  0  0  0  0
    8.4092  -15.1117   20.8031 C   0  0  2  0  0  0  0  0  0  0  0  0
    7.1262  -15.6798   21.1657 N   0  0  0  0  0  0  0  0  0  0  0  0
    9.2826  -15.1264   21.9991 C   0  0  0  0  0  0  0  0  0  0  0  0
   10.5087  -14.9106   21.8328 O   0  0  0  0  0  0  0  0  0  0  0  0
   10.7343  -15.2568   30.8584 O   0  0  0  0  0  0  0  0  0  0  0  0
   10.2533  -15.1272   29.5614 C   0  0  0  0  0  0  0  0  0  0  0  0
   10.3091  -13.9204   28.8659 C   0  0  0  0  0  0  0  0  0  0  0  0
    9.8146  -13.8510   27.5768 C   0  0  0  0  0  0  0  0  0  0  0  0
    9.2627  -14.9417   26.9468 C   0  0  0  0  0  0  0  0  0  0  0  0
    8.7338  -14.9059   25.5942 C   0  0  0  0  0  0  0  0  0  0  0  0
    9.6239  -15.3347   24.4840 C   0  0  2  0  0  0  0  0  0  0  0  0
    8.7442  -15.3770   23.2869 N   0  0  0  0  0  0  0  0  0  0  0  0
   10.1955  -16.6864   24.6155 C   0  0  0  0  0  0  0  0  0  0  0  0
    9.4474  -17.7094   24.4197 O   0  0  0  0  0  0  0  0  0  0  0  0
    9.2253  -16.1220   27.6700 C   0  0  0  0  0  0  0  0  0  0  0  0
    9.7074  -16.2321   28.9561 C   0  0  0  0  0  0  0  0  0  0  0  0
   13.6991  -19.9654   24.2462 C   0  0  0  0  0  0  0  0  0  0  0  0
   13.2669  -18.5290   24.1574 C   0  0  1  0  0  0  0  0  0  0  0  0
   12.8142  -18.2979   22.7098 C   0  0  0  0  0  0  0  0  0  0  0  0
   12.0090  -18.3712   25.0042 C   0  0  2  0  0  0  0  0  0  0  0  0
   11.5403  -16.9899   24.9442 N   0  0  0  0  0  0  0  0  0  0  0  0
   12.1925  -18.8745   26.3637 C   0  0  0  0  0  0  0  0  0  0  0  0
   11.8470  -20.1523   26.7658 O   0  0  0  0  0  0  0  0  0  0  0  0
   12.6894  -18.1286   27.2400 O   0  0  0  0  0  0  0  0  0  0  0  0
  2  1  1  6
  2  4  1  0
  3  2  1  0
  5  4  1  0
  5  6  1  1
  7  8  2  0
  7  5  1  0
  9 10  1  0
 10 11  2  0
 11 12  1  0
 13 12  2  0
 13 14  1  0
 15 14  1  1
 15 16  1  0
 16  7  1  0
 17 18  2  0
 17 15  1  0
 19 13  1  0
 20 10  1  0
 20 19  2  0
 22 21  1  6
 23 22  1  0
 24 25  1  1
 24 22  1  0
 25 17  1  0
 26 24  1  0
 27 26  1  0
 28 26  2  0
M  END
$$$$
