LYV.pdb
     RDKit          3D

 28 28  0  0  1  0  0  0  0  0999 V2000
   10.1752  -20.2664   18.0368 C   0  0  0  0  0  0  0  0  0  0  0  0
    9.8650  -20.2033   19.5154 C   0  0  1  0  0  0  0  0  0  0  0  0
   10.3937  -21.3911   20.2494 C   0  0  0  0  0  0  0  0  0  0  0  0
   10.2950  -18.9251   20.1490 C   0  0  0  0  0  0  0  0  0  0  0  0
   10.0602  -18.8664   21.6304 C   0  0  2  0  0  0  0  0  0  0  0  0
    8.6812  -19.1763   21.9508 N   0  0  0  0  0  0  0  0  0  0  0  0
   10.3732  -17.5198   22.1620 C   0  0  0  0  0  0  0  0  0  0  0  0
   11.5276  -17.0657   21.9663 O   0  0  0  0  0  0  0  0  0  0  0  0
    6.9875  -13.0263   17.8354 O   0  0  0  0  0  0  0  0  0  0  0  0
    7.3741  -13.4066   19.1145 C   0  0  0  0  0  0  0  0  0  0  0  0
    8.6278  -13.0909   19.6360 C   0  0  0  0  0  0  0  0  0  0  0  0
    8.9574  -13.4961   20.9160 C   0  0  0  0  0  0  0  0  0  0  0  0
    8.0838  -14.2080   21.7041 C   0  0  0  0  0  0  0  0  0  0  0  0
    8.3957  -14.6498   23.0525 C   0  0  0  0  0  0  0  0  0  0  0  0
    9.6758  -15.3718   23.2730 C   0  0  2  0  0  0  0  0  0  0  0  0
    9.3953  -16.7741   22.8681 N   0  0  0  0  0  0  0  0  0  0  0  0
   10.1341  -15.4373   24.6718 C   0  0  0  0  0  0  0  0  0  0  0  0
   11.3508  -15.7557   24.9227 O   0  0  0  0  0  0  0  0  0  0  0  0
    6.8489  -14.5022   21.1512 C   0  0  0  0  0  0  0  0  0  0  0  0
    6.4824  -14.1166   19.8800 C   0  0  0  0  0  0  0  0  0  0  0  0
   10.0869  -13.7502   29.1738 C   0  0  0  0  0  0  0  0  0  0  0  0
    9.2116  -14.0719   27.9955 C   0  0  1  0  0  0  0  0  0  0  0  0
    9.1599  -12.8053   27.1312 C   0  0  0  0  0  0  0  0  0  0  0  0
    9.9395  -15.1097   27.1483 C   0  0  2  0  0  0  0  0  0  0  0  0
    9.3432  -15.1704   25.8171 N   0  0  0  0  0  0  0  0  0  0  0  0
   10.0251  -16.4061   27.8172 C   0  0  0  0  0  0  0  0  0  0  0  0
    9.3824  -17.5472   27.3717 O   0  0  0  0  0  0  0  0  0  0  0  0
   10.7131  -16.5231   28.8584 O   0  0  0  0  0  0  0  0  0  0  0  0
  2  1  1  6
  2  4  1  0
  3  2  1  0
  5  4  1  0
  5  6  1  6
  7  8  2  0
  7  5  1  0
  9 10  1  0
 10 11  2  0
 11 12  1  0
 13 12  2  0
 13 14  1  0
 15 14  1  1
 15 16  1  0
 16  7  1  0
 17 18  2  0
 17 15  1  0
 19 13  1  0
 20 10  1  0
 20 19  2  0
 22 21  1  1
 23 22  1  0
 24 25  1  6
 24 22  1  0
 25 17  1  0
 26 24  1  0
 27 26  1  0
 28 26  2  0
M  END
$$$$
