LYV.pdb
     RDKit          3D

 28 28  0  0  1  0  0  0  0  0999 V2000
    8.8746  -12.4595   19.0052 C   0  0  0  0  0  0  0  0  0  0  0  0
    8.2656  -13.8248   19.2322 C   0  0  1  0  0  0  0  0  0  0  0  0
    6.8889  -13.7357   19.8032 C   0  0  0  0  0  0  0  0  0  0  0  0
    8.3071  -14.6922   18.0214 C   0  0  0  0  0  0  0  0  0  0  0  0
    9.6939  -15.0121   17.5443 C   0  0  2  0  0  0  0  0  0  0  0  0
    9.6585  -15.9166   16.4125 N   0  0  0  0  0  0  0  0  0  0  0  0
   10.4914  -15.6414   18.6220 C   0  0  0  0  0  0  0  0  0  0  0  0
   10.3347  -16.8707   18.8263 O   0  0  0  0  0  0  0  0  0  0  0  0
   17.0967  -14.6771   15.7848 O   0  0  0  0  0  0  0  0  0  0  0  0
   16.2307  -14.7121   16.8706 C   0  0  0  0  0  0  0  0  0  0  0  0
   15.6690  -15.9007   17.3344 C   0  0  0  0  0  0  0  0  0  0  0  0
   14.8132  -15.8743   18.4199 C   0  0  0  0  0  0  0  0  0  0  0  0
   14.4912  -14.7048   19.0675 C   0  0  0  0  0  0  0  0  0  0  0  0
   13.5967  -14.6392   20.2103 C   0  0  0  0  0  0  0  0  0  0  0  0
   12.4233  -15.5510   20.2327 C   0  0  2  0  0  0  0  0  0  0  0  0
   11.4003  -14.8737   19.3938 N   0  0  0  0  0  0  0  0  0  0  0  0
   11.7992  -15.7490   21.5527 C   0  0  0  0  0  0  0  0  0  0  0  0
   12.4851  -16.2697   22.5029 O   0  0  0  0  0  0  0  0  0  0  0  0
   15.0689  -13.5456   18.5776 C   0  0  0  0  0  0  0  0  0  0  0  0
   15.9262  -13.5298   17.4989 C   0  0  0  0  0  0  0  0  0  0  0  0
    8.7775  -13.5296   23.0062 C   0  0  0  0  0  0  0  0  0  0  0  0
    8.6058  -14.9645   23.4183 C   0  0  1  0  0  0  0  0  0  0  0  0
    7.6760  -15.6083   22.3817 C   0  0  0  0  0  0  0  0  0  0  0  0
    9.9508  -15.6604   23.2420 C   0  0  2  0  0  0  0  0  0  0  0  0
   10.4685  -15.4073   21.9007 N   0  0  0  0  0  0  0  0  0  0  0  0
    9.8892  -17.0773   23.5942 C   0  0  0  0  0  0  0  0  0  0  0  0
    9.7462  -17.5443   24.8886 O   0  0  0  0  0  0  0  0  0  0  0  0
    9.9681  -17.9449   22.6931 O   0  0  0  0  0  0  0  0  0  0  0  0
  2  1  1  6
  2  4  1  0
  3  2  1  0
  5  4  1  0
  5  6  1  6
  7  8  2  0
  7  5  1  0
  9 10  1  0
 10 11  2  0
 11 12  1  0
 13 12  2  0
 13 14  1  0
 15 14  1  1
 15 16  1  0
 16  7  1  0
 17 18  2  0
 17 15  1  0
 19 13  1  0
 20 10  1  0
 20 19  2  0
 22 21  1  6
 23 22  1  0
 24 25  1  6
 24 22  1  0
 25 17  1  0
 26 24  1  0
 27 26  1  0
 28 26  2  0
M  END
$$$$
