ESD.pdb
     RDKit          3D

 24 23  0  0  1  0  0  0  0  0999 V2000
    7.6014  -13.1644   17.7357 N   0  0  0  0  0  0  0  0  0  0  0  0
    7.4302  -14.2995   18.6344 C   0  0  1  0  0  0  0  0  0  0  0  0
    7.7204  -15.5959   17.9621 C   0  0  0  0  0  0  0  0  0  0  0  0
    8.6855  -15.5428   16.8266 C   0  0  0  0  0  0  0  0  0  0  0  0
    9.3187  -16.8514   16.5463 C   0  0  0  0  0  0  0  0  0  0  0  0
   10.5969  -16.9171   16.5624 O   0  0  0  0  0  0  0  0  0  0  0  0
    8.2674  -14.0422   19.8327 C   0  0  0  0  0  0  0  0  0  0  0  0
    9.3123  -13.3410   19.7581 O   0  0  0  0  0  0  0  0  0  0  0  0
    8.6413  -18.0064   16.2682 O   0  0  0  0  0  0  0  0  0  0  0  0
    6.8047  -14.9795   23.4741 O   0  0  0  0  0  0  0  0  0  0  0  0
    7.8648  -14.0545   23.4738 C   0  0  0  0  0  0  0  0  0  0  0  0
    8.7485  -14.3777   22.2807 C   0  0  2  0  0  0  0  0  0  0  0  0
    7.9282  -14.5707   21.0983 N   0  0  0  0  0  0  0  0  0  0  0  0
    9.4569  -15.6468   22.5561 C   0  0  0  0  0  0  0  0  0  0  0  0
    8.9731  -16.7274   22.1507 O   0  0  0  0  0  0  0  0  0  0  0  0
   10.6877  -15.7117   23.2719 N   0  0  0  0  0  0  0  0  0  0  0  0
   11.3057  -16.9519   23.6644 C   0  0  1  0  0  0  0  0  0  0  0  0
   12.8115  -16.7022   23.6806 C   0  0  0  0  0  0  0  0  0  0  0  0
   13.2736  -16.3796   22.3051 C   0  0  0  0  0  0  0  0  0  0  0  0
   12.8765  -17.0922   21.3422 O   0  0  0  0  0  0  0  0  0  0  0  0
   10.8461  -17.3965   25.0118 C   0  0  0  0  0  0  0  0  0  0  0  0
   10.0781  -16.6671   25.6865 O   0  0  0  0  0  0  0  0  0  0  0  0
   14.1277  -15.3291   22.0052 O   0  0  0  0  0  0  0  0  0  0  0  0
   11.2416  -18.6072   25.5592 O   0  0  0  0  0  0  0  0  0  0  0  0
  2  1  1  6
  3  2  1  0
  3  4  1  0
  5  4  1  0
  5  9  1  0
  6  5  2  0
  7  8  2  0
  7  2  1  0
 10 11  1  0
 12 11  1  1
 12 14  1  0
 12 13  1  0
 13  7  1  0
 14 16  1  0
 15 14  2  0
 16 17  1  0
 17 21  1  0
 17 18  1  1
 19 18  1  0
 20 19  2  0
 21 22  2  0
 21 24  1  0
 23 19  1  0
M  END
$$$$
