ESD.pdb
     RDKit          3D

 24 23  0  0  1  0  0  0  0  0999 V2000
    7.7621  -13.1884   17.2352 N   0  0  0  0  0  0  0  0  0  0  0  0
    7.7344  -14.4310   17.9970 C   0  0  1  0  0  0  0  0  0  0  0  0
    8.2551  -15.5830   17.2104 C   0  0  0  0  0  0  0  0  0  0  0  0
    9.5176  -15.3421   16.4544 C   0  0  0  0  0  0  0  0  0  0  0  0
    9.9381  -16.5097   15.6471 C   0  0  0  0  0  0  0  0  0  0  0  0
   11.1419  -16.9262   15.7730 O   0  0  0  0  0  0  0  0  0  0  0  0
    8.4679  -14.1868   19.2642 C   0  0  0  0  0  0  0  0  0  0  0  0
    9.5855  -13.6038   19.2670 O   0  0  0  0  0  0  0  0  0  0  0  0
    9.1364  -17.1849   14.7687 O   0  0  0  0  0  0  0  0  0  0  0  0
    6.6036  -15.0777   22.7694 O   0  0  0  0  0  0  0  0  0  0  0  0
    7.5568  -14.0459   22.8478 C   0  0  0  0  0  0  0  0  0  0  0  0
    8.6000  -14.3096   21.7749 C   0  0  2  0  0  0  0  0  0  0  0  0
    7.9451  -14.5964   20.5111 N   0  0  0  0  0  0  0  0  0  0  0  0
    9.3786  -15.5051   22.1663 C   0  0  0  0  0  0  0  0  0  0  0  0
    9.0676  -16.6258   21.7047 O   0  0  0  0  0  0  0  0  0  0  0  0
   10.4889  -15.4530   23.0585 N   0  0  0  0  0  0  0  0  0  0  0  0
   11.1703  -16.6281   23.5367 C   0  0  1  0  0  0  0  0  0  0  0  0
   12.6341  -16.2374   23.7228 C   0  0  0  0  0  0  0  0  0  0  0  0
   13.2750  -16.0743   22.3915 C   0  0  0  0  0  0  0  0  0  0  0  0
   12.7952  -16.6914   21.4006 O   0  0  0  0  0  0  0  0  0  0  0  0
   10.6011  -17.1099   24.8284 C   0  0  0  0  0  0  0  0  0  0  0  0
    9.7359  -16.4255   25.4285 O   0  0  0  0  0  0  0  0  0  0  0  0
   14.3848  -15.2751   22.1628 O   0  0  0  0  0  0  0  0  0  0  0  0
   10.9977  -18.3073   25.4035 O   0  0  0  0  0  0  0  0  0  0  0  0
  2  1  1  6
  3  2  1  0
  3  4  1  0
  5  4  1  0
  5  9  1  0
  6  5  2  0
  7  8  2  0
  7  2  1  0
 10 11  1  0
 12 11  1  1
 12 14  1  0
 12 13  1  0
 13  7  1  0
 14 16  1  0
 15 14  2  0
 16 17  1  0
 17 21  1  0
 17 18  1  1
 19 18  1  0
 20 19  2  0
 21 22  2  0
 21 24  1  0
 23 19  1  0
M  END
$$$$
