ESD.pdb
     RDKit          3D

 24 23  0  0  1  0  0  0  0  0999 V2000
    7.6555  -13.0572   17.4350 N   0  0  0  0  0  0  0  0  0  0  0  0
    7.5637  -14.3430   18.1157 C   0  0  1  0  0  0  0  0  0  0  0  0
    7.9752  -15.4731   17.2379 C   0  0  0  0  0  0  0  0  0  0  0  0
    8.9153  -15.1335   16.1313 C   0  0  0  0  0  0  0  0  0  0  0  0
    9.2631  -16.3019   15.2911 C   0  0  0  0  0  0  0  0  0  0  0  0
   10.5014  -16.5916   15.1462 O   0  0  0  0  0  0  0  0  0  0  0  0
    8.3534  -14.2353   19.3680 C   0  0  0  0  0  0  0  0  0  0  0  0
    9.5879  -13.9821   19.3391 O   0  0  0  0  0  0  0  0  0  0  0  0
    8.3590  -17.1037   14.6507 O   0  0  0  0  0  0  0  0  0  0  0  0
    6.5548  -15.0823   22.9322 O   0  0  0  0  0  0  0  0  0  0  0  0
    7.4621  -14.0103   23.0163 C   0  0  0  0  0  0  0  0  0  0  0  0
    8.4605  -14.1711   21.8821 C   0  0  2  0  0  0  0  0  0  0  0  0
    7.7555  -14.4118   20.6358 N   0  0  0  0  0  0  0  0  0  0  0  0
    9.3013  -15.3547   22.1661 C   0  0  0  0  0  0  0  0  0  0  0  0
    9.0192  -16.4555   21.6419 O   0  0  0  0  0  0  0  0  0  0  0  0
   10.4409  -15.3129   23.0209 N   0  0  0  0  0  0  0  0  0  0  0  0
   11.2243  -16.4767   23.3460 C   0  0  1  0  0  0  0  0  0  0  0  0
   12.6489  -15.9875   23.5944 C   0  0  0  0  0  0  0  0  0  0  0  0
   13.5215  -16.4162   22.4699 C   0  0  0  0  0  0  0  0  0  0  0  0
   13.0068  -17.0286   21.4938 O   0  0  0  0  0  0  0  0  0  0  0  0
   10.7037  -17.1727   24.5581 C   0  0  0  0  0  0  0  0  0  0  0  0
   11.1102  -18.3259   24.8441 O   0  0  0  0  0  0  0  0  0  0  0  0
   14.8877  -16.1836   22.4223 O   0  0  0  0  0  0  0  0  0  0  0  0
    9.7705  -16.5845   25.3976 O   0  0  0  0  0  0  0  0  0  0  0  0
  2  1  1  6
  3  2  1  0
  3  4  1  0
  5  4  1  0
  5  9  1  0
  6  5  2  0
  7  8  2  0
  7  2  1  0
 10 11  1  0
 12 11  1  1
 12 14  1  0
 12 13  1  0
 13  7  1  0
 14 16  1  0
 15 14  2  0
 16 17  1  0
 17 21  1  0
 17 18  1  1
 19 18  1  0
 20 19  2  0
 21 22  2  0
 21 24  1  0
 23 19  1  0
M  END
$$$$
