SQP.pdb
     RDKit          3D

 23 23  0  0  1  0  0  0  0  0999 V2000
   15.2737   -6.3892  -18.3328 O   0  0  0  0  0  0  0  0  0  0  0  0
   15.2359   -6.2445  -16.9671 C   0  0  0  0  0  0  0  0  0  0  0  0
   15.4377   -7.5929  -16.3206 C   0  0  2  0  0  0  0  0  0  0  0  0
   14.3523   -7.8067  -15.3878 N   0  0  0  0  0  0  0  0  0  0  0  0
   16.7661   -7.6585  -15.6562 C   0  0  0  0  0  0  0  0  0  0  0  0
   16.8165   -7.2702  -14.4605 O   0  0  0  0  0  0  0  0  0  0  0  0
   20.6836  -11.8461  -17.2258 N   0  0  0  0  0  0  0  0  0  0  0  0
   19.6418  -11.8964  -16.2711 C   0  0  0  0  0  0  0  0  0  0  0  0
   19.1412  -12.9943  -15.9644 O   0  0  0  0  0  0  0  0  0  0  0  0
   19.1611  -10.6462  -15.6501 C   0  0  0  0  0  0  0  0  0  0  0  0
   19.9253   -9.4434  -16.2021 C   0  0  0  0  0  0  0  0  0  0  0  0
   19.2081   -8.2161  -15.6110 C   0  0  2  0  0  0  0  0  0  0  0  0
   17.9144   -8.1298  -16.3240 N   0  0  0  0  0  0  0  0  0  0  0  0
   20.0122   -7.0131  -15.8649 C   0  0  0  0  0  0  0  0  0  0  0  0
   19.8831   -6.4744  -17.0254 O   0  0  0  0  0  0  0  0  0  0  0  0
   20.9056   -6.4022  -14.9507 N   0  0  0  0  0  0  0  0  0  0  0  0
   20.9843   -6.8813  -13.5527 C   0  0  0  0  0  0  0  0  0  0  0  0
   21.3503   -5.5967  -12.8017 C   0  0  0  0  0  0  0  0  0  0  0  0
   22.3818   -5.0441  -13.7442 C   0  0  0  0  0  0  0  0  0  0  0  0
   21.8110   -5.3169  -15.1101 C   0  0  1  0  0  0  0  0  0  0  0  0
   22.9134   -5.6361  -16.0747 C   0  0  0  0  0  0  0  0  0  0  0  0
   23.1765   -6.8471  -16.2748 O   0  0  0  0  0  0  0  0  0  0  0  0
   23.6336   -4.6809  -16.7378 O   0  0  0  0  0  0  0  0  0  0  0  0
  1  2  1  0
  2  3  1  0
  3  5  1  0
  3  4  1  1
  5  6  2  0
  8  7  1  0
  8 10  1  0
  9  8  2  0
 10 11  1  0
 12 11  1  6
 12 14  1  0
 13 12  1  0
 13  5  1  0
 14 15  2  0
 14 16  1  0
 16 20  1  0
 17 16  1  0
 18 19  1  0
 18 17  1  0
 19 20  1  0
 20 21  1  6
 21 22  2  0
 21 23  1  0
M  END
$$$$
