SQP.pdb
     RDKit          3D

 23 23  0  0  1  0  0  0  0  0999 V2000
   26.1100  -37.6972  -15.0022 O   0  0  0  0  0  0  0  0  0  0  0  0
   25.4811  -36.5110  -15.2936 C   0  0  0  0  0  0  0  0  0  0  0  0
   24.2879  -36.3470  -14.3846 C   0  0  2  0  0  0  0  0  0  0  0  0
   23.1347  -36.0599  -15.2103 N   0  0  0  0  0  0  0  0  0  0  0  0
   24.5386  -35.2762  -13.3840 C   0  0  0  0  0  0  0  0  0  0  0  0
   25.7387  -35.0760  -13.0634 O   0  0  0  0  0  0  0  0  0  0  0  0
   20.6230  -30.7024  -11.3729 N   0  0  0  0  0  0  0  0  0  0  0  0
   21.8125  -30.5061  -10.6340 C   0  0  0  0  0  0  0  0  0  0  0  0
   21.9147  -29.5173   -9.8845 O   0  0  0  0  0  0  0  0  0  0  0  0
   22.9179  -31.4765  -10.7610 C   0  0  0  0  0  0  0  0  0  0  0  0
   22.5478  -32.5876  -11.7427 C   0  0  0  0  0  0  0  0  0  0  0  0
   23.7812  -33.5081  -11.7788 C   0  0  2  0  0  0  0  0  0  0  0  0
   23.4919  -34.5202  -12.8188 N   0  0  0  0  0  0  0  0  0  0  0  0
   23.9453  -34.1541  -10.4695 C   0  0  0  0  0  0  0  0  0  0  0  0
   23.0819  -35.0576  -10.1664 O   0  0  0  0  0  0  0  0  0  0  0  0
   24.9622  -33.8711   -9.5245 N   0  0  0  0  0  0  0  0  0  0  0  0
   25.9836  -32.8402   -9.8153 C   0  0  0  0  0  0  0  0  0  0  0  0
   27.2007  -33.3837   -9.0594 C   0  0  0  0  0  0  0  0  0  0  0  0
   26.5293  -33.8157   -7.7866 C   0  0  0  0  0  0  0  0  0  0  0  0
   25.2371  -34.4349   -8.2480 C   0  0  1  0  0  0  0  0  0  0  0  0
   24.1478  -34.1520   -7.2576 C   0  0  0  0  0  0  0  0  0  0  0  0
   23.2602  -33.3291   -7.5907 O   0  0  0  0  0  0  0  0  0  0  0  0
   24.0779  -34.7429   -6.0261 O   0  0  0  0  0  0  0  0  0  0  0  0
  1  2  1  0
  2  3  1  0
  3  5  1  0
  3  4  1  6
  5  6  2  0
  8  7  1  0
  8 10  1  0
  9  8  2  0
 10 11  1  0
 12 11  1  1
 12 14  1  0
 13 12  1  0
 13  5  1  0
 14 15  2  0
 14 16  1  0
 16 20  1  0
 17 16  1  0
 18 19  1  0
 18 17  1  0
 19 20  1  0
 20 21  1  1
 21 22  2  0
 21 23  1  0
M  END
$$$$
