SQP.pdb
     RDKit          3D

 23 23  0  0  1  0  0  0  0  0999 V2000
   28.0009  -17.3778  -17.6469 O   0  0  0  0  0  0  0  0  0  0  0  0
   27.1927  -18.3638  -17.1352 C   0  0  0  0  0  0  0  0  0  0  0  0
   28.0413  -19.3582  -16.3816 C   0  0  2  0  0  0  0  0  0  0  0  0
   28.7841  -20.1349  -17.3506 N   0  0  0  0  0  0  0  0  0  0  0  0
   27.1921  -20.2146  -15.5122 C   0  0  0  0  0  0  0  0  0  0  0  0
   26.7301  -21.2622  -16.0340 O   0  0  0  0  0  0  0  0  0  0  0  0
   26.2522  -19.8103   -9.2270 N   0  0  0  0  0  0  0  0  0  0  0  0
   25.4259  -20.8794   -9.6438 C   0  0  0  0  0  0  0  0  0  0  0  0
   24.7805  -21.5242   -8.7967 O   0  0  0  0  0  0  0  0  0  0  0  0
   25.3392  -21.2171  -11.0785 C   0  0  0  0  0  0  0  0  0  0  0  0
   26.2628  -20.3178  -11.8992 C   0  0  0  0  0  0  0  0  0  0  0  0
   26.0129  -20.7271  -13.3621 C   0  0  2  0  0  0  0  0  0  0  0  0
   26.9141  -19.8778  -14.1722 N   0  0  0  0  0  0  0  0  0  0  0  0
   24.6107  -20.4603  -13.7098 C   0  0  0  0  0  0  0  0  0  0  0  0
   24.2564  -19.2246  -13.7454 O   0  0  0  0  0  0  0  0  0  0  0  0
   23.6278  -21.4363  -14.0070 N   0  0  0  0  0  0  0  0  0  0  0  0
   23.9484  -22.8764  -13.8900 C   0  0  0  0  0  0  0  0  0  0  0  0
   23.0514  -23.4857  -14.9727 C   0  0  0  0  0  0  0  0  0  0  0  0
   21.7937  -22.7029  -14.7219 C   0  0  0  0  0  0  0  0  0  0  0  0
   22.2823  -21.3055  -14.4492 C   0  0  1  0  0  0  0  0  0  0  0  0
   21.4106  -20.6461  -13.4230 C   0  0  0  0  0  0  0  0  0  0  0  0
   20.3376  -20.1288  -13.8193 O   0  0  0  0  0  0  0  0  0  0  0  0
   21.7267  -20.5853  -12.0937 O   0  0  0  0  0  0  0  0  0  0  0  0
  1  2  1  0
  2  3  1  0
  3  5  1  0
  3  4  1  6
  5  6  2  0
  8  7  1  0
  8 10  1  0
  9  8  2  0
 10 11  1  0
 12 11  1  1
 12 14  1  0
 13 12  1  0
 13  5  1  0
 14 15  2  0
 14 16  1  0
 16 20  1  0
 17 16  1  0
 18 19  1  0
 18 17  1  0
 19 20  1  0
 20 21  1  1
 21 22  2  0
 21 23  1  0
M  END
$$$$
