SQP.pdb
     RDKit          3D

 23 23  0  0  1  0  0  0  0  0999 V2000
   22.6901  -14.1395  -18.4882 O   0  0  0  0  0  0  0  0  0  0  0  0
   22.7764  -12.9177  -19.1104 C   0  0  0  0  0  0  0  0  0  0  0  0
   21.6918  -12.0135  -18.5787 C   0  0  2  0  0  0  0  0  0  0  0  0
   20.4309  -12.4553  -19.1346 N   0  0  0  0  0  0  0  0  0  0  0  0
   21.9841  -10.5952  -18.9156 C   0  0  0  0  0  0  0  0  0  0  0  0
   21.5947  -10.1932  -20.0424 O   0  0  0  0  0  0  0  0  0  0  0  0
   20.5932   -6.3632  -15.1593 N   0  0  0  0  0  0  0  0  0  0  0  0
   21.1691   -7.6540  -15.1184 C   0  0  0  0  0  0  0  0  0  0  0  0
   21.3509   -8.2118  -14.0203 O   0  0  0  0  0  0  0  0  0  0  0  0
   21.5476   -8.3235  -16.3787 C   0  0  0  0  0  0  0  0  0  0  0  0
   22.6053   -7.5098  -17.1232 C   0  0  0  0  0  0  0  0  0  0  0  0
   22.9099   -8.3270  -18.3918 C   0  0  2  0  0  0  0  0  0  0  0  0
   22.6619   -9.7388  -18.0247 N   0  0  0  0  0  0  0  0  0  0  0  0
   24.3175   -8.1369  -18.7672 C   0  0  0  0  0  0  0  0  0  0  0  0
   25.1510   -9.0067  -18.3173 O   0  0  0  0  0  0  0  0  0  0  0  0
   24.8286   -7.0906  -19.5742 N   0  0  0  0  0  0  0  0  0  0  0  0
   23.9083   -6.1160  -20.2015 C   0  0  0  0  0  0  0  0  0  0  0  0
   24.6618   -5.7564  -21.4864 C   0  0  0  0  0  0  0  0  0  0  0  0
   26.0517   -5.6264  -20.9305 C   0  0  0  0  0  0  0  0  0  0  0  0
   26.1606   -6.7648  -19.9517 C   0  0  1  0  0  0  0  0  0  0  0  0
   26.9980   -6.3558  -18.7772 C   0  0  0  0  0  0  0  0  0  0  0  0
   28.2334   -6.2300  -18.9613 O   0  0  0  0  0  0  0  0  0  0  0  0
   26.4835   -6.1156  -17.5329 O   0  0  0  0  0  0  0  0  0  0  0  0
  1  2  1  0
  2  3  1  0
  3  5  1  0
  3  4  1  6
  5  6  2  0
  8  7  1  0
  8 10  1  0
  9  8  2  0
 10 11  1  0
 12 11  1  1
 12 14  1  0
 13 12  1  0
 13  5  1  0
 14 15  2  0
 14 16  1  0
 16 20  1  0
 17 16  1  0
 18 19  1  0
 18 17  1  0
 19 20  1  0
 20 21  1  1
 21 22  2  0
 21 23  1  0
M  END
$$$$
