SQP.pdb
     RDKit          3D

 23 23  0  0  1  0  0  0  0  0999 V2000
   29.0864  -17.9968  -18.1137 O   0  0  0  0  0  0  0  0  0  0  0  0
   27.9514  -17.9443  -17.3415 C   0  0  0  0  0  0  0  0  0  0  0  0
   26.7956  -18.5224  -18.1203 C   0  0  2  0  0  0  0  0  0  0  0  0
   26.1265  -17.4336  -18.7991 N   0  0  0  0  0  0  0  0  0  0  0  0
   25.8778  -19.2649  -17.2164 C   0  0  0  0  0  0  0  0  0  0  0  0
   24.8187  -18.6739  -16.8815 O   0  0  0  0  0  0  0  0  0  0  0  0
   25.9872  -25.1880  -15.3596 N   0  0  0  0  0  0  0  0  0  0  0  0
   24.6861  -24.7523  -15.0180 C   0  0  0  0  0  0  0  0  0  0  0  0
   23.9761  -25.4577  -14.2775 O   0  0  0  0  0  0  0  0  0  0  0  0
   24.1864  -23.4665  -15.5439 C   0  0  0  0  0  0  0  0  0  0  0  0
   25.2724  -22.7578  -16.3523 C   0  0  0  0  0  0  0  0  0  0  0  0
   25.2028  -21.2875  -15.9012 C   0  0  2  0  0  0  0  0  0  0  0  0
   26.1714  -20.5636  -16.7540 N   0  0  0  0  0  0  0  0  0  0  0  0
   25.5955  -21.1924  -14.4887 C   0  0  0  0  0  0  0  0  0  0  0  0
   26.8446  -21.3571  -14.2310 O   0  0  0  0  0  0  0  0  0  0  0  0
   24.7263  -20.9361  -13.3997 N   0  0  0  0  0  0  0  0  0  0  0  0
   23.3075  -20.5928  -13.6437 C   0  0  0  0  0  0  0  0  0  0  0  0
   22.9983  -19.6769  -12.4547 C   0  0  0  0  0  0  0  0  0  0  0  0
   23.6816  -20.4498  -11.3623 C   0  0  0  0  0  0  0  0  0  0  0  0
   24.9614  -20.9243  -11.9971 C   0  0  1  0  0  0  0  0  0  0  0  0
   25.3245  -22.2810  -11.4723 C   0  0  0  0  0  0  0  0  0  0  0  0
   25.9527  -22.3340  -10.3867 O   0  0  0  0  0  0  0  0  0  0  0  0
   25.0052  -23.4463  -12.1132 O   0  0  0  0  0  0  0  0  0  0  0  0
  1  2  1  0
  2  3  1  0
  3  5  1  0
  3  4  1  1
  5  6  2  0
  8  7  1  0
  8 10  1  0
  9  8  2  0
 10 11  1  0
 12 11  1  6
 12 14  1  0
 13 12  1  0
 13  5  1  0
 14 15  2  0
 14 16  1  0
 16 20  1  0
 17 16  1  0
 18 19  1  0
 18 17  1  0
 19 20  1  0
 20 21  1  1
 21 22  2  0
 21 23  1  0
M  END
$$$$
