SQP.pdb
     RDKit          3D

 23 23  0  0  1  0  0  0  0  0999 V2000
   20.2765  -18.5522  -17.5462 O   0  0  0  0  0  0  0  0  0  0  0  0
   21.3492  -18.9244  -16.7729 C   0  0  0  0  0  0  0  0  0  0  0  0
   21.7755  -17.7539  -15.9214 C   0  0  2  0  0  0  0  0  0  0  0  0
   21.7018  -16.5601  -16.7358 N   0  0  0  0  0  0  0  0  0  0  0  0
   23.1414  -17.9754  -15.3775 C   0  0  0  0  0  0  0  0  0  0  0  0
   24.0283  -17.1578  -15.7352 O   0  0  0  0  0  0  0  0  0  0  0  0
   24.7524  -21.0753  -10.1430 N   0  0  0  0  0  0  0  0  0  0  0  0
   25.9901  -20.6623  -10.6880 C   0  0  0  0  0  0  0  0  0  0  0  0
   27.0387  -20.8488  -10.0433 O   0  0  0  0  0  0  0  0  0  0  0  0
   26.0228  -20.0151  -12.0145 C   0  0  0  0  0  0  0  0  0  0  0  0
   24.6071  -19.8424  -12.5635 C   0  0  0  0  0  0  0  0  0  0  0  0
   24.7976  -19.1951  -13.9472 C   0  0  2  0  0  0  0  0  0  0  0  0
   23.4359  -19.0434  -14.5062 N   0  0  0  0  0  0  0  0  0  0  0  0
   25.6011  -20.0860  -14.7952 C   0  0  0  0  0  0  0  0  0  0  0  0
   25.0793  -21.2260  -15.0811 O   0  0  0  0  0  0  0  0  0  0  0  0
   26.8855  -19.7992  -15.3197 N   0  0  0  0  0  0  0  0  0  0  0  0
   27.5606  -18.5260  -14.9827 C   0  0  0  0  0  0  0  0  0  0  0  0
   28.3861  -18.2652  -16.2471 C   0  0  0  0  0  0  0  0  0  0  0  0
   28.9045  -19.6535  -16.4953 C   0  0  0  0  0  0  0  0  0  0  0  0
   27.7271  -20.5416  -16.1935 C   0  0  1  0  0  0  0  0  0  0  0  0
   28.1949  -21.8244  -15.5745 C   0  0  0  0  0  0  0  0  0  0  0  0
   27.9378  -22.0101  -14.3598 O   0  0  0  0  0  0  0  0  0  0  0  0
   28.8778  -22.7881  -16.2642 O   0  0  0  0  0  0  0  0  0  0  0  0
  1  2  1  0
  2  3  1  0
  3  5  1  0
  3  4  1  6
  5  6  2  0
  8  7  1  0
  8 10  1  0
  9  8  2  0
 10 11  1  0
 12 11  1  1
 12 14  1  0
 13 12  1  0
 13  5  1  0
 14 15  2  0
 14 16  1  0
 16 20  1  0
 17 16  1  0
 18 19  1  0
 18 17  1  0
 19 20  1  0
 20 21  1  1
 21 22  2  0
 21 23  1  0
M  END
$$$$
