SQP.pdb
     RDKit          3D

 23 23  0  0  1  0  0  0  0  0999 V2000
   29.4736  -21.5701  -15.3442 O   0  0  0  0  0  0  0  0  0  0  0  0
   28.2379  -21.2807  -15.8703 C   0  0  0  0  0  0  0  0  0  0  0  0
   27.4212  -22.5475  -15.9417 C   0  0  2  0  0  0  0  0  0  0  0  0
   28.0016  -23.3952  -16.9607 N   0  0  0  0  0  0  0  0  0  0  0  0
   25.9955  -22.2330  -16.2225 C   0  0  0  0  0  0  0  0  0  0  0  0
   25.7503  -21.6647  -17.3179 O   0  0  0  0  0  0  0  0  0  0  0  0
   24.8388  -25.6241  -15.3295 N   0  0  0  0  0  0  0  0  0  0  0  0
   24.2270  -25.5160  -16.5996 C   0  0  0  0  0  0  0  0  0  0  0  0
   24.5636  -26.2928  -17.5124 O   0  0  0  0  0  0  0  0  0  0  0  0
   23.1967  -24.4832  -16.8269 C   0  0  0  0  0  0  0  0  0  0  0  0
   22.8858  -23.7393  -15.5288 C   0  0  0  0  0  0  0  0  0  0  0  0
   23.5493  -22.3603  -15.6966 C   0  0  2  0  0  0  0  0  0  0  0  0
   24.9659  -22.5514  -15.3140 N   0  0  0  0  0  0  0  0  0  0  0  0
   22.9030  -21.3960  -14.7961 C   0  0  0  0  0  0  0  0  0  0  0  0
   23.1505  -21.5318  -13.5415 O   0  0  0  0  0  0  0  0  0  0  0  0
   22.0421  -20.3412  -15.1874 N   0  0  0  0  0  0  0  0  0  0  0  0
   21.8144  -20.0586  -16.6222 C   0  0  0  0  0  0  0  0  0  0  0  0
   21.5738  -18.5453  -16.6088 C   0  0  0  0  0  0  0  0  0  0  0  0
   20.6843  -18.4465  -15.4019 C   0  0  0  0  0  0  0  0  0  0  0  0
   21.2985  -19.4050  -14.4170 C   0  0  1  0  0  0  0  0  0  0  0  0
   20.2260  -20.0657  -13.6040 C   0  0  0  0  0  0  0  0  0  0  0  0
   19.8099  -21.1846  -13.9924 O   0  0  0  0  0  0  0  0  0  0  0  0
   19.6897  -19.5128  -12.4738 O   0  0  0  0  0  0  0  0  0  0  0  0
  1  2  1  0
  2  3  1  0
  3  5  1  0
  3  4  1  6
  5  6  2  0
  8  7  1  0
  8 10  1  0
  9  8  2  0
 10 11  1  0
 12 11  1  1
 12 14  1  0
 13 12  1  0
 13  5  1  0
 14 15  2  0
 14 16  1  0
 16 20  1  0
 17 16  1  0
 18 19  1  0
 18 17  1  0
 19 20  1  0
 20 21  1  6
 21 22  2  0
 21 23  1  0
M  END
$$$$
