TEC.pdb
     RDKit          3D

 23 22  0  0  1  0  0  0  0  0999 V2000
   -0.6705  -21.7896   25.0535 C   0  0  0  0  0  0  0  0  0  0  0  0
   -1.7791  -22.5697   25.6729 C   0  0  1  0  0  0  0  0  0  0  0  0
   -2.7761  -22.7698   24.7164 O   0  0  0  0  0  0  0  0  0  0  0  0
   -1.3240  -23.9115   26.2015 C   0  0  2  0  0  0  0  0  0  0  0  0
   -0.8353  -24.6554   25.0204 N   0  0  0  0  0  0  0  0  0  0  0  0
   -2.4258  -24.7199   26.7698 C   0  0  0  0  0  0  0  0  0  0  0  0
   -2.5547  -25.9212   26.4174 O   0  0  0  0  0  0  0  0  0  0  0  0
   -3.3641  -24.2152   27.7069 N   0  0  0  0  0  0  0  0  0  0  0  0
   -4.3691  -25.0369   28.3807 C   0  0  1  0  0  0  0  0  0  0  0  0
   -3.7523  -26.2579   28.9251 C   0  0  0  0  0  0  0  0  0  0  0  0
   -2.7643  -26.1317   30.0207 C   0  0  0  0  0  0  0  0  0  0  0  0
   -2.3020  -27.3290   30.6963 C   0  0  0  0  0  0  0  0  0  0  0  0
   -1.6170  -28.2648   30.2813 O   0  0  0  0  0  0  0  0  0  0  0  0
   -5.2761  -24.2579   29.1996 C   0  0  0  0  0  0  0  0  0  0  0  0
   -4.8101  -23.4843   30.0751 O   0  0  0  0  0  0  0  0  0  0  0  0
   -2.6984  -27.4502   32.0560 O   0  0  0  0  0  0  0  0  0  0  0  0
   -6.6975  -24.3131   29.0678 N   0  0  0  0  0  0  0  0  0  0  0  0
   -7.6140  -23.5174   29.8167 C   0  0  1  0  0  0  0  0  0  0  0  0
   -8.1701  -22.3548   29.0177 C   0  0  0  0  0  0  0  0  0  0  0  0
   -9.2916  -21.3691   30.0476 S   0  0  0  0  0  0  0  0  0  0  0  0
   -8.7573  -24.2880   30.3602 C   0  0  0  0  0  0  0  0  0  0  0  0
   -9.2276  -23.9958   31.6304 O   0  0  0  0  0  0  0  0  0  0  0  0
   -9.3274  -25.2052   29.7164 O   0  0  0  0  0  0  0  0  0  0  0  0
  2  3  1  0
  2  1  1  6
  4  2  1  0
  4  5  1  6
  6  8  1  0
  6  4  1  0
  7  6  2  0
  9  8  1  0
  9 14  1  0
  9 10  1  1
 11 10  1  0
 12 11  1  0
 13 12  2  0
 14 17  1  0
 15 14  2  0
 16 12  1  0
 17 18  1  0
 18 19  1  6
 18 21  1  0
 20 19  1  0
 21 22  1  0
 23 21  2  0
M  END
$$$$
