TEC.pdb
     RDKit          3D

 23 22  0  0  1  0  0  0  0  0999 V2000
    8.7002  -12.4785   19.6418 C   0  0  0  0  0  0  0  0  0  0  0  0
    7.9220  -13.5048   18.8919 C   0  0  1  0  0  0  0  0  0  0  0  0
    8.0056  -13.2227   17.5271 O   0  0  0  0  0  0  0  0  0  0  0  0
    8.4215  -14.9108   19.1381 C   0  0  2  0  0  0  0  0  0  0  0  0
    7.4848  -15.7949   18.4115 N   0  0  0  0  0  0  0  0  0  0  0  0
    8.3502  -15.3156   20.5598 C   0  0  0  0  0  0  0  0  0  0  0  0
    7.2253  -15.5045   21.0917 O   0  0  0  0  0  0  0  0  0  0  0  0
    9.4940  -15.5091   21.3769 N   0  0  0  0  0  0  0  0  0  0  0  0
    9.4353  -15.8695   22.7932 C   0  0  1  0  0  0  0  0  0  0  0  0
   10.5663  -16.7429   23.1476 C   0  0  0  0  0  0  0  0  0  0  0  0
   10.7578  -17.1236   24.5657 C   0  0  0  0  0  0  0  0  0  0  0  0
   11.8609  -17.9962   24.9199 C   0  0  0  0  0  0  0  0  0  0  0  0
   12.9689  -17.7310   25.3880 O   0  0  0  0  0  0  0  0  0  0  0  0
    9.0925  -14.7485   23.6454 C   0  0  0  0  0  0  0  0  0  0  0  0
    9.5039  -13.5974   23.3493 O   0  0  0  0  0  0  0  0  0  0  0  0
   11.6359  -19.3814   24.6940 O   0  0  0  0  0  0  0  0  0  0  0  0
    8.2952  -14.8731   24.8242 N   0  0  0  0  0  0  0  0  0  0  0  0
    8.0197  -13.8102   25.7343 C   0  0  1  0  0  0  0  0  0  0  0  0
    6.6621  -13.1761   25.5019 C   0  0  0  0  0  0  0  0  0  0  0  0
    6.3680  -11.8656   26.7209 S   0  0  0  0  0  0  0  0  0  0  0  0
    8.0977  -14.2165   27.1574 C   0  0  0  0  0  0  0  0  0  0  0  0
    8.0532  -13.2432   28.1425 O   0  0  0  0  0  0  0  0  0  0  0  0
    8.2039  -15.4164   27.5177 O   0  0  0  0  0  0  0  0  0  0  0  0
  2  3  1  0
  2  1  1  1
  4  2  1  0
  4  5  1  6
  6  8  1  0
  6  4  1  0
  7  6  2  0
  9  8  1  0
  9 14  1  0
  9 10  1  1
 11 10  1  0
 12 11  1  0
 13 12  2  0
 14 17  1  0
 15 14  2  0
 16 12  1  0
 17 18  1  0
 18 19  1  6
 18 21  1  0
 20 19  1  0
 21 22  1  0
 23 21  2  0
M  END
$$$$
