TEC.pdb
     RDKit          3D

 23 22  0  0  1  0  0  0  0  0999 V2000
    8.2688  -13.7341   17.9846 C   0  0  0  0  0  0  0  0  0  0  0  0
    8.4557  -14.0048   19.4382 C   0  0  1  0  0  0  0  0  0  0  0  0
    7.6216  -13.1527   20.1644 O   0  0  0  0  0  0  0  0  0  0  0  0
    8.1441  -15.4372   19.8097 C   0  0  2  0  0  0  0  0  0  0  0  0
    6.7752  -15.6858   19.3085 N   0  0  0  0  0  0  0  0  0  0  0  0
    8.0946  -15.6642   21.2714 C   0  0  0  0  0  0  0  0  0  0  0  0
    6.9976  -15.5464   21.8770 O   0  0  0  0  0  0  0  0  0  0  0  0
    9.2292  -16.0146   22.0480 N   0  0  0  0  0  0  0  0  0  0  0  0
    9.2072  -16.1731   23.5019 C   0  0  1  0  0  0  0  0  0  0  0  0
   10.2930  -17.0672   23.9368 C   0  0  0  0  0  0  0  0  0  0  0  0
   10.5072  -17.2781   25.3867 C   0  0  0  0  0  0  0  0  0  0  0  0
   10.5135  -18.6306   25.9104 C   0  0  0  0  0  0  0  0  0  0  0  0
   11.4553  -19.3596   26.2250 O   0  0  0  0  0  0  0  0  0  0  0  0
    8.9744  -14.9251   24.2007 C   0  0  0  0  0  0  0  0  0  0  0  0
    9.6505  -13.9093   23.8954 O   0  0  0  0  0  0  0  0  0  0  0  0
    9.2316  -19.2169   26.0931 O   0  0  0  0  0  0  0  0  0  0  0  0
    8.0002  -14.7736   25.2345 N   0  0  0  0  0  0  0  0  0  0  0  0
    7.7872  -13.5770   25.9806 C   0  0  1  0  0  0  0  0  0  0  0  0
    6.3304  -13.1578   26.0134 C   0  0  0  0  0  0  0  0  0  0  0  0
    6.1223  -11.7059   27.0806 S   0  0  0  0  0  0  0  0  0  0  0  0
    8.2717  -13.6592   27.3788 C   0  0  0  0  0  0  0  0  0  0  0  0
    8.3319  -12.5050   28.1431 O   0  0  0  0  0  0  0  0  0  0  0  0
    8.6353  -14.7388   27.9108 O   0  0  0  0  0  0  0  0  0  0  0  0
  2  3  1  0
  2  1  1  6
  4  2  1  0
  4  5  1  6
  6  8  1  0
  6  4  1  0
  7  6  2  0
  9  8  1  0
  9 14  1  0
  9 10  1  1
 11 10  1  0
 12 11  1  0
 13 12  2  0
 14 17  1  0
 15 14  2  0
 16 12  1  0
 17 18  1  0
 18 19  1  1
 18 21  1  0
 20 19  1  0
 21 22  1  0
 23 21  2  0
M  END
$$$$
