TEC.pdb
     RDKit          3D

 23 22  0  0  1  0  0  0  0  0999 V2000
    8.3643  -12.5752   19.9520 C   0  0  0  0  0  0  0  0  0  0  0  0
    7.8133  -13.6045   19.0257 C   0  0  1  0  0  0  0  0  0  0  0  0
    8.1068  -13.2303   17.7131 O   0  0  0  0  0  0  0  0  0  0  0  0
    8.3763  -14.9839   19.2848 C   0  0  2  0  0  0  0  0  0  0  0  0
    7.6701  -15.8810   18.3449 N   0  0  0  0  0  0  0  0  0  0  0  0
    8.0766  -15.4919   20.6421 C   0  0  0  0  0  0  0  0  0  0  0  0
    6.8848  -15.7466   20.9561 O   0  0  0  0  0  0  0  0  0  0  0  0
    9.0692  -15.7153   21.6312 N   0  0  0  0  0  0  0  0  0  0  0  0
    8.7756  -16.0972   23.0121 C   0  0  1  0  0  0  0  0  0  0  0  0
    9.5538  -17.2880   23.3915 C   0  0  0  0  0  0  0  0  0  0  0  0
   11.0224  -17.1656   23.5356 C   0  0  0  0  0  0  0  0  0  0  0  0
   11.7934  -18.3305   23.9257 C   0  0  0  0  0  0  0  0  0  0  0  0
   12.7633  -18.8628   23.3843 O   0  0  0  0  0  0  0  0  0  0  0  0
    8.7098  -14.9605   23.9086 C   0  0  0  0  0  0  0  0  0  0  0  0
    9.5854  -14.0606   23.8324 O   0  0  0  0  0  0  0  0  0  0  0  0
   11.3686  -18.9662   25.1240 O   0  0  0  0  0  0  0  0  0  0  0  0
    7.6871  -14.7938   24.8919 N   0  0  0  0  0  0  0  0  0  0  0  0
    7.6149  -13.7067   25.8123 C   0  0  1  0  0  0  0  0  0  0  0  0
    6.2319  -13.0889   25.8829 C   0  0  0  0  0  0  0  0  0  0  0  0
    6.2095  -11.7458   27.1017 S   0  0  0  0  0  0  0  0  0  0  0  0
    8.0245  -14.0709   27.1892 C   0  0  0  0  0  0  0  0  0  0  0  0
    8.3760  -13.0680   28.0784 O   0  0  0  0  0  0  0  0  0  0  0  0
    8.0691  -15.2606   27.5938 O   0  0  0  0  0  0  0  0  0  0  0  0
  2  3  1  0
  2  1  1  1
  4  2  1  0
  4  5  1  6
  6  8  1  0
  6  4  1  0
  7  6  2  0
  9  8  1  0
  9 14  1  0
  9 10  1  1
 11 10  1  0
 12 11  1  0
 13 12  2  0
 14 17  1  0
 15 14  2  0
 16 12  1  0
 17 18  1  0
 18 19  1  1
 18 21  1  0
 20 19  1  0
 21 22  1  0
 23 21  2  0
M  END
$$$$
