TEC.pdb
     RDKit          3D

 23 22  0  0  1  0  0  0  0  0999 V2000
    7.2345  -12.9466   19.3053 C   0  0  0  0  0  0  0  0  0  0  0  0
    8.4011  -13.7629   18.8648 C   0  0  1  0  0  0  0  0  0  0  0  0
    8.7788  -13.3519   17.5851 O   0  0  0  0  0  0  0  0  0  0  0  0
    9.5864  -13.6363   19.7953 C   0  0  2  0  0  0  0  0  0  0  0  0
   10.7307  -14.2129   19.0569 N   0  0  0  0  0  0  0  0  0  0  0  0
    9.4477  -14.4390   21.0309 C   0  0  0  0  0  0  0  0  0  0  0  0
    8.4740  -14.2253   21.7992 O   0  0  0  0  0  0  0  0  0  0  0  0
   10.3617  -15.4558   21.4105 N   0  0  0  0  0  0  0  0  0  0  0  0
   10.2168  -16.2783   22.6113 C   0  0  1  0  0  0  0  0  0  0  0  0
   10.8693  -17.5842   22.4203 C   0  0  0  0  0  0  0  0  0  0  0  0
   10.5514  -18.3710   21.2068 C   0  0  0  0  0  0  0  0  0  0  0  0
   11.2183  -19.6411   20.9938 C   0  0  0  0  0  0  0  0  0  0  0  0
   11.0131  -20.5187   20.1541 O   0  0  0  0  0  0  0  0  0  0  0  0
   10.4360  -15.5323   23.8343 C   0  0  0  0  0  0  0  0  0  0  0  0
   11.2157  -14.5453   23.8260 O   0  0  0  0  0  0  0  0  0  0  0  0
   12.2806  -19.9275   21.8938 O   0  0  0  0  0  0  0  0  0  0  0  0
    9.8039  -15.8538   25.0744 N   0  0  0  0  0  0  0  0  0  0  0  0
    9.9492  -15.1035   26.2785 C   0  0  1  0  0  0  0  0  0  0  0  0
    8.9068  -14.0112   26.4183 C   0  0  0  0  0  0  0  0  0  0  0  0
    9.1884  -13.0709   27.9436 S   0  0  0  0  0  0  0  0  0  0  0  0
    9.9055  -15.9376   27.5027 C   0  0  0  0  0  0  0  0  0  0  0  0
   10.5037  -15.4702   28.6618 O   0  0  0  0  0  0  0  0  0  0  0  0
    9.3451  -17.0625   27.5400 O   0  0  0  0  0  0  0  0  0  0  0  0
  2  3  1  0
  2  1  1  1
  4  2  1  0
  4  5  1  6
  6  8  1  0
  6  4  1  0
  7  6  2  0
  9  8  1  0
  9 14  1  0
  9 10  1  6
 11 10  1  0
 12 11  1  0
 13 12  2  0
 14 17  1  0
 15 14  2  0
 16 12  1  0
 17 18  1  0
 18 19  1  1
 18 21  1  0
 20 19  1  0
 21 22  1  0
 23 21  2  0
M  END
$$$$
