TEC.pdb
     RDKit          3D

 23 22  0  0  1  0  0  0  0  0999 V2000
    8.8979  -12.6473   19.6723 C   0  0  0  0  0  0  0  0  0  0  0  0
    8.0416  -13.6346   18.9559 C   0  0  1  0  0  0  0  0  0  0  0  0
    8.2530  -13.4989   17.5826 O   0  0  0  0  0  0  0  0  0  0  0  0
    8.3315  -15.0620   19.3626 C   0  0  2  0  0  0  0  0  0  0  0  0
    7.3331  -15.8862   18.6478 N   0  0  0  0  0  0  0  0  0  0  0  0
    8.1160  -15.3138   20.8050 C   0  0  0  0  0  0  0  0  0  0  0  0
    6.9437  -15.3135   21.2628 O   0  0  0  0  0  0  0  0  0  0  0  0
    9.1698  -15.5617   21.7223 N   0  0  0  0  0  0  0  0  0  0  0  0
    8.9658  -15.8754   23.1362 C   0  0  1  0  0  0  0  0  0  0  0  0
    9.8805  -16.9481   23.5608 C   0  0  0  0  0  0  0  0  0  0  0  0
    9.8858  -17.3613   24.9827 C   0  0  0  0  0  0  0  0  0  0  0  0
   10.8583  -18.3398   25.4303 C   0  0  0  0  0  0  0  0  0  0  0  0
   10.7659  -19.2236   26.2833 O   0  0  0  0  0  0  0  0  0  0  0  0
    8.8078  -14.6923   23.9581 C   0  0  0  0  0  0  0  0  0  0  0  0
    9.6668  -13.7757   23.8953 O   0  0  0  0  0  0  0  0  0  0  0  0
   12.1241  -18.2761   24.7866 O   0  0  0  0  0  0  0  0  0  0  0  0
    7.7102  -14.4975   24.8515 N   0  0  0  0  0  0  0  0  0  0  0  0
    7.5684  -13.3856   25.7333 C   0  0  1  0  0  0  0  0  0  0  0  0
    6.1304  -12.9236   25.8679 C   0  0  0  0  0  0  0  0  0  0  0  0
    6.0183  -11.5755   27.0763 S   0  0  0  0  0  0  0  0  0  0  0  0
    8.0968  -13.6405   27.0942 C   0  0  0  0  0  0  0  0  0  0  0  0
    8.3025  -14.9472   27.5066 O   0  0  0  0  0  0  0  0  0  0  0  0
    8.3702  -12.7167   27.9022 O   0  0  0  0  0  0  0  0  0  0  0  0
  2  3  1  0
  2  1  1  1
  4  2  1  0
  4  5  1  6
  6  8  1  0
  6  4  1  0
  7  6  2  0
  9  8  1  0
  9 14  1  0
  9 10  1  1
 11 10  1  0
 12 11  1  0
 13 12  2  0
 14 17  1  0
 15 14  2  0
 16 12  1  0
 17 18  1  0
 18 19  1  1
 18 21  1  0
 20 19  1  0
 21 22  1  0
 23 21  2  0
M  END
$$$$
