TEC.pdb
     RDKit          3D

 23 22  0  0  1  0  0  0  0  0999 V2000
    7.3887  -11.9429   18.4406 C   0  0  0  0  0  0  0  0  0  0  0  0
    8.3302  -12.9073   19.0768 C   0  0  1  0  0  0  0  0  0  0  0  0
    7.6030  -13.7650   19.9041 O   0  0  0  0  0  0  0  0  0  0  0  0
    9.0968  -13.7284   18.0644 C   0  0  2  0  0  0  0  0  0  0  0  0
    8.0693  -14.4449   17.2783 N   0  0  0  0  0  0  0  0  0  0  0  0
    9.9453  -14.7726   18.6810 C   0  0  0  0  0  0  0  0  0  0  0  0
    9.5089  -15.9499   18.7683 O   0  0  0  0  0  0  0  0  0  0  0  0
   11.2467  -14.5246   19.1890 N   0  0  0  0  0  0  0  0  0  0  0  0
   12.0513  -15.5201   19.8967 C   0  0  1  0  0  0  0  0  0  0  0  0
   13.3895  -15.6225   19.2914 C   0  0  0  0  0  0  0  0  0  0  0  0
   14.1388  -14.3790   19.0002 C   0  0  0  0  0  0  0  0  0  0  0  0
   15.2951  -14.4392   18.1268 C   0  0  0  0  0  0  0  0  0  0  0  0
   15.4885  -13.9274   17.0232 O   0  0  0  0  0  0  0  0  0  0  0  0
   11.9136  -15.4346   21.3368 C   0  0  0  0  0  0  0  0  0  0  0  0
   12.5199  -14.5283   21.9638 O   0  0  0  0  0  0  0  0  0  0  0  0
   16.3849  -15.2106   18.6146 O   0  0  0  0  0  0  0  0  0  0  0  0
   11.1109  -16.3336   22.1038 N   0  0  0  0  0  0  0  0  0  0  0  0
   10.9226  -16.2517   23.5152 C   0  0  1  0  0  0  0  0  0  0  0  0
    9.4591  -16.2359   23.9116 C   0  0  0  0  0  0  0  0  0  0  0  0
    8.5786  -14.9396   22.9982 S   0  0  0  0  0  0  0  0  0  0  0  0
   11.5881  -17.3439   24.2638 C   0  0  0  0  0  0  0  0  0  0  0  0
   11.5625  -17.3283   25.6491 O   0  0  0  0  0  0  0  0  0  0  0  0
   12.1821  -18.2951   23.6953 O   0  0  0  0  0  0  0  0  0  0  0  0
  2  3  1  0
  2  1  1  6
  4  2  1  0
  4  5  1  6
  6  8  1  0
  6  4  1  0
  7  6  2  0
  9  8  1  0
  9 14  1  0
  9 10  1  1
 11 10  1  0
 12 11  1  0
 13 12  2  0
 14 17  1  0
 15 14  2  0
 16 12  1  0
 17 18  1  0
 18 19  1  6
 18 21  1  0
 20 19  1  0
 21 22  1  0
 23 21  2  0
M  END
$$$$
