EFK.pdb
     RDKit          3D

 30 30  0  0  1  0  0  0  0  0999 V2000
    9.4776  -15.0031   20.4605 N   0  0  0  0  0  0  0  0  0  0  0  0
    9.2503  -16.0983   21.3993 C   0  0  1  0  0  0  0  0  0  0  0  0
   10.1928  -17.1970   20.9882 C   0  0  0  0  0  0  0  0  0  0  0  0
    9.8420  -17.9052   19.7282 C   0  0  0  0  0  0  0  0  0  0  0  0
   10.7008  -19.0672   19.4584 C   0  0  0  0  0  0  0  0  0  0  0  0
   10.4961  -20.1950   19.9475 O   0  0  0  0  0  0  0  0  0  0  0  0
    9.4984  -15.6075   22.7900 C   0  0  0  0  0  0  0  0  0  0  0  0
   10.5498  -14.9527   23.0315 O   0  0  0  0  0  0  0  0  0  0  0  0
   11.7942  -18.8723   18.6086 O   0  0  0  0  0  0  0  0  0  0  0  0
    8.5467  -15.8884   23.8074 N   0  0  0  0  0  0  0  0  0  0  0  0
    8.7934  -15.5095   25.1999 C   0  0  1  0  0  0  0  0  0  0  0  0
    7.4681  -15.1892   25.7850 C   0  0  0  0  0  0  0  0  0  0  0  0
    7.0599  -13.8088   25.8728 C   0  0  0  0  0  0  0  0  0  0  0  0
    5.8055  -13.3918   26.2938 C   0  0  0  0  0  0  0  0  0  0  0  0
    5.4977  -12.0577   26.3592 C   0  0  0  0  0  0  0  0  0  0  0  0
    6.4060  -11.0738   26.0149 C   0  0  0  0  0  0  0  0  0  0  0  0
    7.6512  -11.4701   25.5965 C   0  0  0  0  0  0  0  0  0  0  0  0
    7.9607  -12.8219   25.5311 C   0  0  0  0  0  0  0  0  0  0  0  0
    9.3966  -16.6219   25.9641 C   0  0  0  0  0  0  0  0  0  0  0  0
    9.4207  -16.5129   27.2172 O   0  0  0  0  0  0  0  0  0  0  0  0
    9.9431  -17.7873   25.4058 N   0  0  0  0  0  0  0  0  0  0  0  0
   10.6386  -18.8106   26.1762 C   0  0  1  0  0  0  0  0  0  0  0  0
   11.2936  -19.8287   25.3348 C   0  0  0  0  0  0  0  0  0  0  0  0
   11.8877  -20.9126   26.1887 C   0  0  0  0  0  0  0  0  0  0  0  0
   12.6064  -21.9558   25.3273 C   0  0  0  0  0  0  0  0  0  0  0  0
   13.1128  -23.0166   26.2815 C   0  0  0  0  0  0  0  0  0  0  0  0
   13.7012  -24.1356   25.5706 N   0  0  0  0  0  0  0  0  0  0  0  0
   11.5578  -18.2131   27.1610 C   0  0  0  0  0  0  0  0  0  0  0  0
   11.6223  -18.4478   28.3742 O   0  0  0  0  0  0  0  0  0  0  0  0
   12.4667  -17.2595   26.6333 O   0  0  0  0  0  0  0  0  0  0  0  0
  2  1  1  6
  3  2  1  0
  3  4  1  0
  4  5  1  0
  5  6  2  0
  5  9  1  0
  7  2  1  0
  7  8  2  0
 10  7  1  0
 11 10  1  0
 11 12  1  1
 13 12  1  0
 13 18  2  0
 14 13  1  0
 15 14  2  0
 15 16  1  0
 16 17  2  0
 17 18  1  0
 19 11  1  0
 20 19  2  0
 21 19  1  0
 22 21  1  0
 22 28  1  0
 22 23  1  6
 24 23  1  0
 25 24  1  0
 26 27  1  0
 26 25  1  0
 28 29  2  0
 28 30  1  0
M  END
$$$$
