EFK.pdb
     RDKit          3D

 30 30  0  0  1  0  0  0  0  0999 V2000
   10.7510  -16.4983   19.5829 N   0  0  0  0  0  0  0  0  0  0  0  0
    9.4044  -16.3268   20.1211 C   0  0  1  0  0  0  0  0  0  0  0  0
    8.7289  -17.6638   19.9776 C   0  0  0  0  0  0  0  0  0  0  0  0
    9.6254  -18.8478   20.0597 C   0  0  0  0  0  0  0  0  0  0  0  0
    8.9291  -20.1195   19.8184 C   0  0  0  0  0  0  0  0  0  0  0  0
    9.4921  -21.2293   19.8868 O   0  0  0  0  0  0  0  0  0  0  0  0
    9.5018  -15.8726   21.5426 C   0  0  0  0  0  0  0  0  0  0  0  0
   10.5352  -16.1574   22.2086 O   0  0  0  0  0  0  0  0  0  0  0  0
    7.5693  -20.0548   19.4982 O   0  0  0  0  0  0  0  0  0  0  0  0
    8.4308  -15.1316   22.1114 N   0  0  0  0  0  0  0  0  0  0  0  0
    8.4832  -14.6702   23.4998 C   0  0  1  0  0  0  0  0  0  0  0  0
    7.3692  -13.7033   23.6594 C   0  0  0  0  0  0  0  0  0  0  0  0
    7.1575  -13.0898   24.9474 C   0  0  0  0  0  0  0  0  0  0  0  0
    5.9535  -13.1179   25.6360 C   0  0  0  0  0  0  0  0  0  0  0  0
    5.8357  -12.5182   26.8629 C   0  0  0  0  0  0  0  0  0  0  0  0
    6.8928  -11.8647   27.4687 C   0  0  0  0  0  0  0  0  0  0  0  0
    8.0906  -11.8283   26.8003 C   0  0  0  0  0  0  0  0  0  0  0  0
    8.2075  -12.4364   25.5577 C   0  0  0  0  0  0  0  0  0  0  0  0
    8.2861  -15.7868   24.4485 C   0  0  0  0  0  0  0  0  0  0  0  0
    7.4156  -16.6458   24.1535 O   0  0  0  0  0  0  0  0  0  0  0  0
    8.9904  -15.9655   25.6486 N   0  0  0  0  0  0  0  0  0  0  0  0
    9.5642  -17.2359   26.0746 C   0  0  1  0  0  0  0  0  0  0  0  0
   10.4290  -17.8558   25.0540 C   0  0  0  0  0  0  0  0  0  0  0  0
   10.9367  -19.1859   25.5338 C   0  0  0  0  0  0  0  0  0  0  0  0
   11.8184  -19.8505   24.4718 C   0  0  0  0  0  0  0  0  0  0  0  0
   12.1948  -21.2091   25.0238 C   0  0  0  0  0  0  0  0  0  0  0  0
   12.9378  -21.9910   24.0540 N   0  0  0  0  0  0  0  0  0  0  0  0
   10.2299  -17.1155   27.3838 C   0  0  0  0  0  0  0  0  0  0  0  0
   10.4741  -18.0188   28.1933 O   0  0  0  0  0  0  0  0  0  0  0  0
   10.6290  -15.8001   27.7362 O   0  0  0  0  0  0  0  0  0  0  0  0
  2  1  1  1
  3  2  1  0
  3  4  1  0
  4  5  1  0
  5  6  2  0
  5  9  1  0
  7  2  1  0
  7  8  2  0
 10  7  1  0
 11 10  1  0
 11 12  1  6
 13 12  1  0
 13 18  2  0
 14 13  1  0
 15 14  2  0
 15 16  1  0
 16 17  2  0
 17 18  1  0
 19 11  1  0
 20 19  2  0
 21 19  1  0
 22 21  1  0
 22 28  1  0
 22 23  1  6
 24 23  1  0
 25 24  1  0
 26 27  1  0
 26 25  1  0
 28 29  2  0
 28 30  1  0
M  END
$$$$
