EFK.pdb
     RDKit          3D

 30 30  0  0  1  0  0  0  0  0999 V2000
    8.5855  -17.7395   20.4444 N   0  0  0  0  0  0  0  0  0  0  0  0
    9.8080  -17.9803   21.2059 C   0  0  1  0  0  0  0  0  0  0  0  0
   10.9110  -18.0998   20.1893 C   0  0  0  0  0  0  0  0  0  0  0  0
   11.0076  -16.9820   19.2129 C   0  0  0  0  0  0  0  0  0  0  0  0
   12.1397  -17.1191   18.2855 C   0  0  0  0  0  0  0  0  0  0  0  0
   12.8176  -16.1515   17.8888 O   0  0  0  0  0  0  0  0  0  0  0  0
   10.0170  -16.8500   22.1626 C   0  0  0  0  0  0  0  0  0  0  0  0
   11.1942  -16.4848   22.4334 O   0  0  0  0  0  0  0  0  0  0  0  0
   12.4516  -18.4078   17.8412 O   0  0  0  0  0  0  0  0  0  0  0  0
    8.8878  -16.2130   22.7446 N   0  0  0  0  0  0  0  0  0  0  0  0
    9.0128  -15.4241   23.9716 C   0  0  1  0  0  0  0  0  0  0  0  0
    7.7415  -14.6727   24.1146 C   0  0  0  0  0  0  0  0  0  0  0  0
    7.5743  -13.7941   25.2460 C   0  0  0  0  0  0  0  0  0  0  0  0
    6.3516  -13.2975   25.6737 C   0  0  0  0  0  0  0  0  0  0  0  0
    6.2752  -12.4737   26.7666 C   0  0  0  0  0  0  0  0  0  0  0  0
    7.3940  -12.1006   27.4883 C   0  0  0  0  0  0  0  0  0  0  0  0
    8.6110  -12.5837   27.0779 C   0  0  0  0  0  0  0  0  0  0  0  0
    8.6859  -13.4179   25.9707 C   0  0  0  0  0  0  0  0  0  0  0  0
    9.1912  -16.2909   25.1559 C   0  0  0  0  0  0  0  0  0  0  0  0
    8.2935  -17.1414   25.3872 O   0  0  0  0  0  0  0  0  0  0  0  0
   10.2788  -16.2417   26.0407 N   0  0  0  0  0  0  0  0  0  0  0  0
   10.6355  -17.3209   26.9533 C   0  0  1  0  0  0  0  0  0  0  0  0
   11.9901  -17.8551   26.7226 C   0  0  0  0  0  0  0  0  0  0  0  0
   12.3160  -18.9154   27.7359 C   0  0  0  0  0  0  0  0  0  0  0  0
   13.2252  -19.9896   27.1308 C   0  0  0  0  0  0  0  0  0  0  0  0
   13.5208  -20.9709   28.2452 C   0  0  0  0  0  0  0  0  0  0  0  0
   14.5063  -21.9553   27.8408 N   0  0  0  0  0  0  0  0  0  0  0  0
   10.4100  -16.9365   28.3580 C   0  0  0  0  0  0  0  0  0  0  0  0
   10.0600  -17.6658   29.2942 O   0  0  0  0  0  0  0  0  0  0  0  0
   10.6256  -15.5641   28.6474 O   0  0  0  0  0  0  0  0  0  0  0  0
  2  1  1  6
  3  2  1  0
  3  4  1  0
  4  5  1  0
  5  6  2  0
  5  9  1  0
  7  2  1  0
  7  8  2  0
 10  7  1  0
 11 10  1  0
 11 12  1  1
 13 12  1  0
 13 18  2  0
 14 13  1  0
 15 14  2  0
 15 16  1  0
 16 17  2  0
 17 18  1  0
 19 11  1  0
 20 19  2  0
 21 19  1  0
 22 21  1  0
 22 28  1  0
 22 23  1  1
 24 23  1  0
 25 24  1  0
 26 27  1  0
 26 25  1  0
 28 29  2  0
 28 30  1  0
M  END
$$$$
