EFK.pdb
     RDKit          3D

 30 30  0  0  1  0  0  0  0  0999 V2000
    8.3428  -17.6752   20.3132 N   0  0  0  0  0  0  0  0  0  0  0  0
    9.7572  -17.3438   20.4619 C   0  0  1  0  0  0  0  0  0  0  0  0
   10.2044  -16.8305   19.1199 C   0  0  0  0  0  0  0  0  0  0  0  0
   11.1942  -17.6802   18.4053 C   0  0  0  0  0  0  0  0  0  0  0  0
   11.5892  -17.1352   17.0986 C   0  0  0  0  0  0  0  0  0  0  0  0
   11.2395  -17.6409   16.0146 O   0  0  0  0  0  0  0  0  0  0  0  0
    9.9086  -16.3322   21.5529 C   0  0  0  0  0  0  0  0  0  0  0  0
   11.0668  -16.0268   21.9504 O   0  0  0  0  0  0  0  0  0  0  0  0
   12.3966  -15.9934   17.0982 O   0  0  0  0  0  0  0  0  0  0  0  0
    8.7476  -15.7378   22.1170 N   0  0  0  0  0  0  0  0  0  0  0  0
    8.8080  -15.0200   23.3916 C   0  0  1  0  0  0  0  0  0  0  0  0
    7.5847  -14.1829   23.4561 C   0  0  0  0  0  0  0  0  0  0  0  0
    7.2997  -13.4571   24.6694 C   0  0  0  0  0  0  0  0  0  0  0  0
    7.9562  -12.2982   25.0574 C   0  0  0  0  0  0  0  0  0  0  0  0
    7.6193  -11.6606   26.2230 C   0  0  0  0  0  0  0  0  0  0  0  0
    6.6240  -12.1309   27.0596 C   0  0  0  0  0  0  0  0  0  0  0  0
    5.9651  -13.2763   26.6898 C   0  0  0  0  0  0  0  0  0  0  0  0
    6.3081  -13.9203   25.5087 C   0  0  0  0  0  0  0  0  0  0  0  0
    8.8092  -15.9532   24.5381 C   0  0  0  0  0  0  0  0  0  0  0  0
    7.9131  -16.8359   24.5628 O   0  0  0  0  0  0  0  0  0  0  0  0
    9.7275  -15.9340   25.5987 N   0  0  0  0  0  0  0  0  0  0  0  0
    9.8705  -17.0101   26.5715 C   0  0  1  0  0  0  0  0  0  0  0  0
   10.4019  -18.2556   25.9884 C   0  0  0  0  0  0  0  0  0  0  0  0
   11.8114  -18.0519   25.5103 C   0  0  0  0  0  0  0  0  0  0  0  0
   12.3980  -19.3574   24.9640 C   0  0  0  0  0  0  0  0  0  0  0  0
   13.8357  -19.0551   24.5979 C   0  0  0  0  0  0  0  0  0  0  0  0
   14.5324  -20.2449   24.1479 N   0  0  0  0  0  0  0  0  0  0  0  0
   10.6297  -16.5699   27.7553 C   0  0  0  0  0  0  0  0  0  0  0  0
   10.9700  -17.2507   28.7309 O   0  0  0  0  0  0  0  0  0  0  0  0
   11.0037  -15.2010   27.7546 O   0  0  0  0  0  0  0  0  0  0  0  0
  2  1  1  6
  3  2  1  0
  3  4  1  0
  4  5  1  0
  5  6  2  0
  5  9  1  0
  7  2  1  0
  7  8  2  0
 10  7  1  0
 11 10  1  0
 11 12  1  1
 13 12  1  0
 13 18  2  0
 14 13  1  0
 15 14  2  0
 15 16  1  0
 16 17  2  0
 17 18  1  0
 19 11  1  0
 20 19  2  0
 21 19  1  0
 22 21  1  0
 22 28  1  0
 22 23  1  6
 24 23  1  0
 25 24  1  0
 26 27  1  0
 26 25  1  0
 28 29  2  0
 28 30  1  0
M  END
$$$$
