EFK.pdb
     RDKit          3D

 30 30  0  0  1  0  0  0  0  0999 V2000
    8.5662  -17.5166   20.2733 N   0  0  0  0  0  0  0  0  0  0  0  0
    9.7938  -17.7898   21.0154 C   0  0  1  0  0  0  0  0  0  0  0  0
   10.9089  -17.7262   20.0068 C   0  0  0  0  0  0  0  0  0  0  0  0
   10.5798  -17.0401   18.7289 C   0  0  0  0  0  0  0  0  0  0  0  0
   11.6317  -17.1753   17.7112 C   0  0  0  0  0  0  0  0  0  0  0  0
   12.6850  -17.8142   17.8995 O   0  0  0  0  0  0  0  0  0  0  0  0
    9.9380  -16.7792   22.1082 C   0  0  0  0  0  0  0  0  0  0  0  0
   11.0775  -16.5781   22.6119 O   0  0  0  0  0  0  0  0  0  0  0  0
   11.4167  -16.5476   16.4802 O   0  0  0  0  0  0  0  0  0  0  0  0
    8.7912  -16.0685   22.5547 N   0  0  0  0  0  0  0  0  0  0  0  0
    8.8336  -15.2484   23.7668 C   0  0  1  0  0  0  0  0  0  0  0  0
    7.5332  -14.5370   23.8336 C   0  0  0  0  0  0  0  0  0  0  0  0
    7.2481  -13.7116   24.9813 C   0  0  0  0  0  0  0  0  0  0  0  0
    6.3416  -14.0462   25.9766 C   0  0  0  0  0  0  0  0  0  0  0  0
    6.1340  -13.2104   27.0430 C   0  0  0  0  0  0  0  0  0  0  0  0
    6.8059  -12.0100   27.1807 C   0  0  0  0  0  0  0  0  0  0  0  0
    7.7062  -11.6647   26.2044 C   0  0  0  0  0  0  0  0  0  0  0  0
    7.9148  -12.5128   25.1252 C   0  0  0  0  0  0  0  0  0  0  0  0
    8.9849  -16.0817   24.9785 C   0  0  0  0  0  0  0  0  0  0  0  0
    8.1285  -16.9837   25.1674 O   0  0  0  0  0  0  0  0  0  0  0  0
   10.0048  -15.9481   25.9326 N   0  0  0  0  0  0  0  0  0  0  0  0
   10.2317  -16.8925   27.0194 C   0  0  1  0  0  0  0  0  0  0  0  0
   11.2112  -17.9422   26.6840 C   0  0  0  0  0  0  0  0  0  0  0  0
   11.2927  -18.9568   27.7891 C   0  0  0  0  0  0  0  0  0  0  0  0
   12.3153  -20.0477   27.4560 C   0  0  0  0  0  0  0  0  0  0  0  0
   11.7210  -21.3499   27.9494 C   0  0  0  0  0  0  0  0  0  0  0  0
   12.6122  -22.4681   27.7064 N   0  0  0  0  0  0  0  0  0  0  0  0
   10.5543  -16.1986   28.2789 C   0  0  0  0  0  0  0  0  0  0  0  0
   10.8459  -15.0058   28.4313 O   0  0  0  0  0  0  0  0  0  0  0  0
   10.5201  -17.0139   29.4399 O   0  0  0  0  0  0  0  0  0  0  0  0
  2  1  1  6
  3  2  1  0
  3  4  1  0
  4  5  1  0
  5  6  2  0
  5  9  1  0
  7  2  1  0
  7  8  2  0
 10  7  1  0
 11 10  1  0
 11 12  1  1
 13 12  1  0
 13 18  2  0
 14 13  1  0
 15 14  2  0
 15 16  1  0
 16 17  2  0
 17 18  1  0
 19 11  1  0
 20 19  2  0
 21 19  1  0
 22 21  1  0
 22 28  1  0
 22 23  1  6
 24 23  1  0
 25 24  1  0
 26 27  1  0
 26 25  1  0
 28 29  2  0
 28 30  1  0
M  END
$$$$
