EFK.pdb
     RDKit          3D

 30 30  0  0  1  0  0  0  0  0999 V2000
    9.2248  -17.9090   21.2733 N   0  0  0  0  0  0  0  0  0  0  0  0
   10.5618  -17.5154   21.7092 C   0  0  1  0  0  0  0  0  0  0  0  0
   11.2987  -17.1060   20.4627 C   0  0  0  0  0  0  0  0  0  0  0  0
   11.4778  -18.1740   19.4432 C   0  0  0  0  0  0  0  0  0  0  0  0
   12.2151  -17.7224   18.2545 C   0  0  0  0  0  0  0  0  0  0  0  0
   11.7625  -16.8878   17.4472 O   0  0  0  0  0  0  0  0  0  0  0  0
   10.4428  -16.4074   22.7065 C   0  0  0  0  0  0  0  0  0  0  0  0
   11.4930  -15.8912   23.1788 O   0  0  0  0  0  0  0  0  0  0  0  0
   13.4839  -18.2704   18.0411 O   0  0  0  0  0  0  0  0  0  0  0  0
    9.1523  -15.9605   23.0997 N   0  0  0  0  0  0  0  0  0  0  0  0
    8.9869  -14.9641   24.1595 C   0  0  1  0  0  0  0  0  0  0  0  0
    7.7182  -14.2524   23.8673 C   0  0  0  0  0  0  0  0  0  0  0  0
    7.2331  -13.2760   24.8114 C   0  0  0  0  0  0  0  0  0  0  0  0
    6.1846  -13.4970   25.6925 C   0  0  0  0  0  0  0  0  0  0  0  0
    5.7889  -12.5192   26.5677 C   0  0  0  0  0  0  0  0  0  0  0  0
    6.4036  -11.2817   26.6177 C   0  0  0  0  0  0  0  0  0  0  0  0
    7.4425  -11.0475   25.7525 C   0  0  0  0  0  0  0  0  0  0  0  0
    7.8415  -12.0394   24.8669 C   0  0  0  0  0  0  0  0  0  0  0  0
    8.8816  -15.6015   25.4893 C   0  0  0  0  0  0  0  0  0  0  0  0
    8.7435  -14.8418   26.4825 O   0  0  0  0  0  0  0  0  0  0  0  0
    8.9228  -16.9827   25.7323 N   0  0  0  0  0  0  0  0  0  0  0  0
    8.8197  -17.5796   27.0581 C   0  0  1  0  0  0  0  0  0  0  0  0
    7.8898  -18.7224   27.1117 C   0  0  0  0  0  0  0  0  0  0  0  0
    8.4671  -19.9036   26.3846 C   0  0  0  0  0  0  0  0  0  0  0  0
    7.4182  -20.5531   25.4764 C   0  0  0  0  0  0  0  0  0  0  0  0
    8.1130  -21.7071   24.7852 C   0  0  0  0  0  0  0  0  0  0  0  0
    7.2474  -22.3437   23.8109 N   0  0  0  0  0  0  0  0  0  0  0  0
   10.1477  -17.9037   27.6087 C   0  0  0  0  0  0  0  0  0  0  0  0
   10.4208  -18.2646   28.7603 O   0  0  0  0  0  0  0  0  0  0  0  0
   11.2245  -17.7803   26.6927 O   0  0  0  0  0  0  0  0  0  0  0  0
  2  1  1  6
  3  2  1  0
  3  4  1  0
  4  5  1  0
  5  6  2  0
  5  9  1  0
  7  2  1  0
  7  8  2  0
 10  7  1  0
 11 10  1  0
 11 12  1  6
 13 12  1  0
 13 18  2  0
 14 13  1  0
 15 14  2  0
 15 16  1  0
 16 17  2  0
 17 18  1  0
 19 11  1  0
 20 19  2  0
 21 19  1  0
 22 21  1  0
 22 28  1  0
 22 23  1  6
 24 23  1  0
 25 24  1  0
 26 27  1  0
 26 25  1  0
 28 29  2  0
 28 30  1  0
M  END
$$$$
