HPW.pdb
     RDKit          3D

 32 35  0  0  1  0  0  0  0  0999 V2000
    9.0611  -18.0003   17.8165 N   0  0  0  0  0  0  0  0  0  0  0  0
    8.1455  -17.2704   18.7140 C   0  0  1  0  0  0  0  0  0  0  0  0
    7.4375  -18.3937   19.4821 C   0  0  0  0  0  0  0  0  0  0  0  0
    6.6507  -19.2529   18.5615 C   0  0  0  0  0  0  0  0  0  0  0  0
    6.4896  -19.0966   17.1872 C   0  0  0  0  0  0  0  0  0  0  0  0
    5.7196  -20.0590   16.7128 N   0  0  0  0  0  0  0  0  0  0  0  0
    5.3639  -20.8539   17.7446 C   0  0  0  0  0  0  0  0  0  0  0  0
    5.9353  -20.3522   18.8535 N   0  0  0  0  0  0  0  0  0  0  0  0
    8.9376  -16.4309   19.6670 C   0  0  0  0  0  0  0  0  0  0  0  0
   10.1936  -16.7135   19.6932 O   0  0  0  0  0  0  0  0  0  0  0  0
    8.4044  -15.4176   20.4795 N   0  0  0  0  0  0  0  0  0  0  0  0
    7.0141  -15.0790   20.5888 C   0  0  0  0  0  0  0  0  0  0  0  0
    7.0601  -13.5479   20.7089 C   0  0  0  0  0  0  0  0  0  0  0  0
    8.5076  -13.1943   20.9291 C   0  0  0  0  0  0  0  0  0  0  0  0
    9.1095  -14.5210   21.3252 C   0  0  1  0  0  0  0  0  0  0  0  0
    8.8918  -14.7210   22.7823 C   0  0  0  0  0  0  0  0  0  0  0  0
    7.7911  -15.2259   23.1185 O   0  0  0  0  0  0  0  0  0  0  0  0
    9.8134  -14.3909   23.7986 N   0  0  0  0  0  0  0  0  0  0  0  0
    9.9864  -15.3115   24.9273 C   0  0  1  0  0  0  0  0  0  0  0  0
    8.7513  -16.0967   25.1685 C   0  0  0  0  0  0  0  0  0  0  0  0
    7.5845  -15.2887   25.5565 C   0  0  0  0  0  0  0  0  0  0  0  0
    6.2445  -15.6923   25.5151 C   0  0  0  0  0  0  0  0  0  0  0  0
    5.4777  -14.6666   25.9022 N   0  0  0  0  0  0  0  0  0  0  0  0
    6.2335  -13.6042   26.1992 C   0  0  0  0  0  0  0  0  0  0  0  0
    5.9076  -12.3336   26.6572 C   0  0  0  0  0  0  0  0  0  0  0  0
    6.8942  -11.4132   26.9143 C   0  0  0  0  0  0  0  0  0  0  0  0
    8.1927  -11.7915   26.7049 C   0  0  0  0  0  0  0  0  0  0  0  0
    8.5453  -13.0382   26.2529 C   0  0  0  0  0  0  0  0  0  0  0  0
    7.5432  -13.9703   25.9916 C   0  0  0  0  0  0  0  0  0  0  0  0
   11.1972  -16.1220   24.8431 C   0  0  0  0  0  0  0  0  0  0  0  0
   11.5400  -17.0312   25.8363 O   0  0  0  0  0  0  0  0  0  0  0  0
   12.0180  -16.0541   23.8768 O   0  0  0  0  0  0  0  0  0  0  0  0
  2  1  1  6
  3  2  1  0
  4  3  1  0
  4  5  2  0
  6  5  1  0
  7  6  1  0
  8  7  2  0
  8  4  1  0
  9 11  1  0
  9  2  1  0
 10  9  2  0
 11 15  1  0
 12 11  1  0
 12 13  1  0
 13 14  1  0
 15 14  1  0
 15 16  1  1
 16 18  1  0
 17 16  2  0
 18 19  1  0
 19 20  1  6
 21 20  1  0
 22 21  2  0
 23 22  1  0
 24 23  1  0
 24 29  2  0
 25 24  1  0
 26 25  2  0
 26 27  1  0
 27 28  2  0
 28 29  1  0
 29 21  1  0
 30 31  1  0
 30 19  1  0
 32 30  2  0
M  END
$$$$
