HPW.pdb
     RDKit          3D

 32 35  0  0  1  0  0  0  0  0999 V2000
    6.4309  -18.7902   18.9356 N   0  0  0  0  0  0  0  0  0  0  0  0
    6.2003  -17.5392   19.6829 C   0  0  1  0  0  0  0  0  0  0  0  0
    5.3521  -17.9950   20.8770 C   0  0  0  0  0  0  0  0  0  0  0  0
    4.0192  -18.4732   20.4304 C   0  0  0  0  0  0  0  0  0  0  0  0
    3.1388  -17.8360   19.5598 C   0  0  0  0  0  0  0  0  0  0  0  0
    2.0525  -18.5704   19.4022 N   0  0  0  0  0  0  0  0  0  0  0  0
    2.1916  -19.6850   20.1514 C   0  0  0  0  0  0  0  0  0  0  0  0
    3.3855  -19.6097   20.7654 N   0  0  0  0  0  0  0  0  0  0  0  0
    7.5068  -16.9964   20.1716 C   0  0  0  0  0  0  0  0  0  0  0  0
    8.4970  -17.8066   20.0255 O   0  0  0  0  0  0  0  0  0  0  0  0
    7.6857  -15.7275   20.7451 N   0  0  0  0  0  0  0  0  0  0  0  0
    6.6775  -14.7125   20.8596 C   0  0  0  0  0  0  0  0  0  0  0  0
    7.4779  -13.4273   20.5986 C   0  0  0  0  0  0  0  0  0  0  0  0
    8.9287  -13.8308   20.6299 C   0  0  0  0  0  0  0  0  0  0  0  0
    8.8753  -15.1838   21.2977 C   0  0  1  0  0  0  0  0  0  0  0  0
    8.8549  -14.9818   22.7706 C   0  0  0  0  0  0  0  0  0  0  0  0
    8.7224  -13.7977   23.1702 O   0  0  0  0  0  0  0  0  0  0  0  0
    8.9721  -16.0036   23.7367 N   0  0  0  0  0  0  0  0  0  0  0  0
   10.1345  -16.0057   24.6311 C   0  0  1  0  0  0  0  0  0  0  0  0
    9.8208  -15.3308   25.9142 C   0  0  0  0  0  0  0  0  0  0  0  0
    8.4278  -14.8727   26.0342 C   0  0  0  0  0  0  0  0  0  0  0  0
    7.2790  -15.6453   25.8253 C   0  0  0  0  0  0  0  0  0  0  0  0
    6.2045  -14.8643   25.9850 N   0  0  0  0  0  0  0  0  0  0  0  0
    6.5752  -13.6160   26.2890 C   0  0  0  0  0  0  0  0  0  0  0  0
    5.8380  -12.4706   26.5626 C   0  0  0  0  0  0  0  0  0  0  0  0
    6.4729  -11.2939   26.8774 C   0  0  0  0  0  0  0  0  0  0  0  0
    7.8411  -11.2941   26.9108 C   0  0  0  0  0  0  0  0  0  0  0  0
    8.5960  -12.4087   26.6449 C   0  0  0  0  0  0  0  0  0  0  0  0
    7.9504  -13.6011   26.3248 C   0  0  0  0  0  0  0  0  0  0  0  0
   10.7522  -17.3187   24.7876 C   0  0  0  0  0  0  0  0  0  0  0  0
   11.9948  -17.4763   25.3888 O   0  0  0  0  0  0  0  0  0  0  0  0
   10.2137  -18.3967   24.3873 O   0  0  0  0  0  0  0  0  0  0  0  0
  2  1  1  6
  3  2  1  0
  4  3  1  0
  4  5  2  0
  6  5  1  0
  7  6  1  0
  8  7  2  0
  8  4  1  0
  9 11  1  0
  9  2  1  0
 10  9  2  0
 11 15  1  0
 12 11  1  0
 12 13  1  0
 13 14  1  0
 15 14  1  0
 15 16  1  1
 16 18  1  0
 17 16  2  0
 18 19  1  0
 19 20  1  1
 21 20  1  0
 22 21  2  0
 23 22  1  0
 24 23  1  0
 24 29  2  0
 25 24  1  0
 26 25  2  0
 26 27  1  0
 27 28  2  0
 28 29  1  0
 29 21  1  0
 30 31  1  0
 30 19  1  0
 32 30  2  0
M  END
$$$$
