HPW.pdb
     RDKit          3D

 32 35  0  0  1  0  0  0  0  0999 V2000
    8.2920  -17.3074   17.2458 N   0  0  0  0  0  0  0  0  0  0  0  0
    9.1168  -16.4556   18.1236 C   0  0  1  0  0  0  0  0  0  0  0  0
    8.2026  -15.2576   18.4101 C   0  0  0  0  0  0  0  0  0  0  0  0
    7.9918  -14.4451   17.1853 C   0  0  0  0  0  0  0  0  0  0  0  0
    8.2542  -13.0883   17.0135 C   0  0  0  0  0  0  0  0  0  0  0  0
    7.9387  -12.7218   15.7845 N   0  0  0  0  0  0  0  0  0  0  0  0
    7.4706  -13.8082   15.1337 C   0  0  0  0  0  0  0  0  0  0  0  0
    7.5100  -14.8401   15.9949 N   0  0  0  0  0  0  0  0  0  0  0  0
    9.4096  -17.1817   19.3993 C   0  0  0  0  0  0  0  0  0  0  0  0
    8.5715  -18.1210   19.6704 O   0  0  0  0  0  0  0  0  0  0  0  0
   10.4859  -16.8997   20.2556 N   0  0  0  0  0  0  0  0  0  0  0  0
   11.3818  -15.7853   20.1326 C   0  0  0  0  0  0  0  0  0  0  0  0
   12.7281  -16.4030   20.5407 C   0  0  0  0  0  0  0  0  0  0  0  0
   12.4035  -17.7550   21.1201 C   0  0  0  0  0  0  0  0  0  0  0  0
   10.9202  -17.6489   21.3808 C   0  0  1  0  0  0  0  0  0  0  0  0
   10.7193  -16.9884   22.6975 C   0  0  0  0  0  0  0  0  0  0  0  0
   11.3025  -15.8878   22.8652 O   0  0  0  0  0  0  0  0  0  0  0  0
    9.9362  -17.4973   23.7554 N   0  0  0  0  0  0  0  0  0  0  0  0
    9.3850  -16.5643   24.7439 C   0  0  1  0  0  0  0  0  0  0  0  0
    8.2209  -15.8293   24.1916 C   0  0  0  0  0  0  0  0  0  0  0  0
    7.4686  -15.0487   25.1863 C   0  0  0  0  0  0  0  0  0  0  0  0
    6.5404  -15.5509   26.1063 C   0  0  0  0  0  0  0  0  0  0  0  0
    6.0378  -14.5280   26.8072 N   0  0  0  0  0  0  0  0  0  0  0  0
    6.5808  -13.3743   26.4047 C   0  0  0  0  0  0  0  0  0  0  0  0
    6.3998  -12.0651   26.8333 C   0  0  0  0  0  0  0  0  0  0  0  0
    7.1125  -11.0409   26.2591 C   0  0  0  0  0  0  0  0  0  0  0  0
    7.9957  -11.3561   25.2622 C   0  0  0  0  0  0  0  0  0  0  0  0
    8.1956  -12.6387   24.8174 C   0  0  0  0  0  0  0  0  0  0  0  0
    7.4712  -13.6762   25.4003 C   0  0  0  0  0  0  0  0  0  0  0  0
    9.1390  -17.1697   26.0488 C   0  0  0  0  0  0  0  0  0  0  0  0
    9.3355  -16.4664   27.2309 O   0  0  0  0  0  0  0  0  0  0  0  0
    8.7405  -18.3658   26.2006 O   0  0  0  0  0  0  0  0  0  0  0  0
  2  1  1  6
  3  2  1  0
  4  3  1  0
  4  5  2  0
  6  5  1  0
  7  6  1  0
  8  7  2  0
  8  4  1  0
  9 11  1  0
  9  2  1  0
 10  9  2  0
 11 15  1  0
 12 11  1  0
 12 13  1  0
 13 14  1  0
 15 14  1  0
 15 16  1  1
 16 18  1  0
 17 16  2  0
 18 19  1  0
 19 20  1  6
 21 20  1  0
 22 21  2  0
 23 22  1  0
 24 23  1  0
 24 29  2  0
 25 24  1  0
 26 25  2  0
 26 27  1  0
 27 28  2  0
 28 29  1  0
 29 21  1  0
 30 31  1  0
 30 19  1  0
 32 30  2  0
M  END
$$$$
