HPW.pdb
     RDKit          3D

 32 35  0  0  1  0  0  0  0  0999 V2000
   10.2606  -17.7002   18.2201 N   0  0  0  0  0  0  0  0  0  0  0  0
    9.0374  -17.0124   18.6754 C   0  0  1  0  0  0  0  0  0  0  0  0
    8.0235  -18.1551   18.8146 C   0  0  0  0  0  0  0  0  0  0  0  0
    7.5817  -18.6387   17.4820 C   0  0  0  0  0  0  0  0  0  0  0  0
    7.0005  -17.8924   16.4601 C   0  0  0  0  0  0  0  0  0  0  0  0
    6.7457  -18.6709   15.4242 N   0  0  0  0  0  0  0  0  0  0  0  0
    7.1456  -19.9223   15.7360 C   0  0  0  0  0  0  0  0  0  0  0  0
    7.6481  -19.8843   16.9826 N   0  0  0  0  0  0  0  0  0  0  0  0
    9.2794  -16.3884   20.0142 C   0  0  0  0  0  0  0  0  0  0  0  0
   10.3397  -16.8162   20.6065 O   0  0  0  0  0  0  0  0  0  0  0  0
    8.4537  -15.4227   20.6116 N   0  0  0  0  0  0  0  0  0  0  0  0
    7.2504  -14.8852   20.0435 C   0  0  0  0  0  0  0  0  0  0  0  0
    7.3174  -13.4115   20.4728 C   0  0  0  0  0  0  0  0  0  0  0  0
    8.4322  -13.3256   21.4821 C   0  0  0  0  0  0  0  0  0  0  0  0
    8.6404  -14.7724   21.8599 C   0  0  1  0  0  0  0  0  0  0  0  0
    7.6551  -15.1305   22.9143 C   0  0  0  0  0  0  0  0  0  0  0  0
    6.4699  -15.3057   22.5349 O   0  0  0  0  0  0  0  0  0  0  0  0
    7.9470  -15.2849   24.2862 N   0  0  0  0  0  0  0  0  0  0  0  0
    6.9495  -15.9139   25.1584 C   0  0  1  0  0  0  0  0  0  0  0  0
    7.5561  -16.3341   26.4452 C   0  0  0  0  0  0  0  0  0  0  0  0
    8.1065  -15.2295   27.2461 C   0  0  0  0  0  0  0  0  0  0  0  0
    7.3772  -14.3363   28.0402 C   0  0  0  0  0  0  0  0  0  0  0  0
    8.2250  -13.4496   28.5740 N   0  0  0  0  0  0  0  0  0  0  0  0
    9.4770  -13.7041   28.1794 C   0  0  0  0  0  0  0  0  0  0  0  0
   10.6860  -13.0868   28.4755 C   0  0  0  0  0  0  0  0  0  0  0  0
   11.8596  -13.5681   27.9486 C   0  0  0  0  0  0  0  0  0  0  0  0
   11.7924  -14.6644   27.1321 C   0  0  0  0  0  0  0  0  0  0  0  0
   10.6140  -15.2949   26.8212 C   0  0  0  0  0  0  0  0  0  0  0  0
    9.4244  -14.8047   27.3557 C   0  0  0  0  0  0  0  0  0  0  0  0
    5.7249  -15.1340   25.3070 C   0  0  0  0  0  0  0  0  0  0  0  0
    4.6047  -15.6455   25.9504 O   0  0  0  0  0  0  0  0  0  0  0  0
    5.5902  -13.9525   24.8616 O   0  0  0  0  0  0  0  0  0  0  0  0
  2  1  1  1
  3  2  1  0
  4  3  1  0
  4  5  2  0
  6  5  1  0
  7  6  1  0
  8  7  2  0
  8  4  1  0
  9 11  1  0
  9  2  1  0
 10  9  2  0
 11 15  1  0
 12 11  1  0
 12 13  1  0
 13 14  1  0
 15 14  1  0
 15 16  1  1
 16 18  1  0
 17 16  2  0
 18 19  1  0
 19 20  1  1
 21 20  1  0
 22 21  2  0
 23 22  1  0
 24 23  1  0
 24 29  2  0
 25 24  1  0
 26 25  2  0
 26 27  1  0
 27 28  2  0
 28 29  1  0
 29 21  1  0
 30 31  1  0
 30 19  1  0
 32 30  2  0
M  END
$$$$
