HPW.pdb
     RDKit          3D

 32 35  0  0  1  0  0  0  0  0999 V2000
   10.5957  -16.7505   17.9191 N   0  0  0  0  0  0  0  0  0  0  0  0
    9.5972  -15.7464   18.3331 C   0  0  1  0  0  0  0  0  0  0  0  0
    8.2856  -16.2991   17.7612 C   0  0  0  0  0  0  0  0  0  0  0  0
    8.2619  -16.1860   16.2808 C   0  0  0  0  0  0  0  0  0  0  0  0
    8.0907  -15.0309   15.5224 C   0  0  0  0  0  0  0  0  0  0  0  0
    8.1287  -15.3282   14.2361 N   0  0  0  0  0  0  0  0  0  0  0  0
    8.3217  -16.6597   14.1225 C   0  0  0  0  0  0  0  0  0  0  0  0
    8.4001  -17.1617   15.3674 N   0  0  0  0  0  0  0  0  0  0  0  0
    9.5162  -15.7033   19.8271 C   0  0  0  0  0  0  0  0  0  0  0  0
   10.2997  -16.5374   20.4175 O   0  0  0  0  0  0  0  0  0  0  0  0
    8.6775  -14.8502   20.5620 N   0  0  0  0  0  0  0  0  0  0  0  0
    7.4567  -14.2649   20.0858 C   0  0  0  0  0  0  0  0  0  0  0  0
    7.4978  -12.8655   20.7186 C   0  0  0  0  0  0  0  0  0  0  0  0
    8.6221  -12.8980   21.7204 C   0  0  0  0  0  0  0  0  0  0  0  0
    8.8648  -14.3787   21.8881 C   0  0  1  0  0  0  0  0  0  0  0  0
    7.8995  -14.9040   22.8895 C   0  0  0  0  0  0  0  0  0  0  0  0
    6.7191  -15.0725   22.4926 O   0  0  0  0  0  0  0  0  0  0  0  0
    8.2051  -15.2213   24.2301 N   0  0  0  0  0  0  0  0  0  0  0  0
    7.1436  -15.7457   25.0958 C   0  0  1  0  0  0  0  0  0  0  0  0
    7.6996  -16.2490   26.3756 C   0  0  0  0  0  0  0  0  0  0  0  0
    8.3214  -15.2138   27.2160 C   0  0  0  0  0  0  0  0  0  0  0  0
    7.6709  -14.4087   28.1588 C   0  0  0  0  0  0  0  0  0  0  0  0
    8.5629  -13.5613   28.6844 N   0  0  0  0  0  0  0  0  0  0  0  0
    9.7699  -13.7588   28.1439 C   0  0  0  0  0  0  0  0  0  0  0  0
   10.9987  -13.1522   28.3728 C   0  0  0  0  0  0  0  0  0  0  0  0
   12.1158  -13.5646   27.6882 C   0  0  0  0  0  0  0  0  0  0  0  0
   11.9730  -14.5824   26.7845 C   0  0  0  0  0  0  0  0  0  0  0  0
   10.7731  -15.2003   26.5366 C   0  0  0  0  0  0  0  0  0  0  0  0
    9.6409  -14.7801   27.2312 C   0  0  0  0  0  0  0  0  0  0  0  0
    6.0147  -14.8349   25.2574 C   0  0  0  0  0  0  0  0  0  0  0  0
    4.8304  -15.2371   25.8625 O   0  0  0  0  0  0  0  0  0  0  0  0
    6.0264  -13.6295   24.8583 O   0  0  0  0  0  0  0  0  0  0  0  0
  2  1  1  1
  3  2  1  0
  4  3  1  0
  4  5  2  0
  6  5  1  0
  7  6  1  0
  8  7  2  0
  8  4  1  0
  9 11  1  0
  9  2  1  0
 10  9  2  0
 11 15  1  0
 12 11  1  0
 12 13  1  0
 13 14  1  0
 15 14  1  0
 15 16  1  1
 16 18  1  0
 17 16  2  0
 18 19  1  0
 19 20  1  1
 21 20  1  0
 22 21  2  0
 23 22  1  0
 24 23  1  0
 24 29  2  0
 25 24  1  0
 26 25  2  0
 26 27  1  0
 27 28  2  0
 28 29  1  0
 29 21  1  0
 30 31  1  0
 30 19  1  0
 32 30  2  0
M  END
$$$$
