HPW.pdb
     RDKit          3D

 32 35  0  0  1  0  0  0  0  0999 V2000
   10.4241  -17.2698   17.0567 N   0  0  0  0  0  0  0  0  0  0  0  0
    9.3143  -17.2883   18.0285 C   0  0  1  0  0  0  0  0  0  0  0  0
    9.1771  -18.7760   18.3764 C   0  0  0  0  0  0  0  0  0  0  0  0
    8.6547  -19.5463   17.2194 C   0  0  0  0  0  0  0  0  0  0  0  0
    7.3571  -19.5399   16.7141 C   0  0  0  0  0  0  0  0  0  0  0  0
    7.2750  -20.3529   15.6766 N   0  0  0  0  0  0  0  0  0  0  0  0
    8.4930  -20.9015   15.4806 C   0  0  0  0  0  0  0  0  0  0  0  0
    9.3141  -20.4029   16.4214 N   0  0  0  0  0  0  0  0  0  0  0  0
    9.7036  -16.5191   19.2521 C   0  0  0  0  0  0  0  0  0  0  0  0
   10.9751  -16.4514   19.4445 O   0  0  0  0  0  0  0  0  0  0  0  0
    8.8017  -15.9109   20.1396 N   0  0  0  0  0  0  0  0  0  0  0  0
    7.3742  -15.8857   19.9937 C   0  0  0  0  0  0  0  0  0  0  0  0
    7.0198  -14.4789   20.4995 C   0  0  0  0  0  0  0  0  0  0  0  0
    8.2727  -13.9428   21.1410 C   0  0  0  0  0  0  0  0  0  0  0  0
    9.1024  -15.1905   21.3257 C   0  0  1  0  0  0  0  0  0  0  0  0
    8.6853  -15.8508   22.5908 C   0  0  0  0  0  0  0  0  0  0  0  0
    8.2796  -17.0364   22.4947 O   0  0  0  0  0  0  0  0  0  0  0  0
    8.7098  -15.2549   23.8697 N   0  0  0  0  0  0  0  0  0  0  0  0
    9.5977  -15.8116   24.8959 C   0  0  1  0  0  0  0  0  0  0  0  0
    9.3341  -15.1960   26.2195 C   0  0  0  0  0  0  0  0  0  0  0  0
    7.9669  -14.6790   26.3868 C   0  0  0  0  0  0  0  0  0  0  0  0
    6.7809  -15.4128   26.2630 C   0  0  0  0  0  0  0  0  0  0  0  0
    5.7458  -14.5844   26.4422 N   0  0  0  0  0  0  0  0  0  0  0  0
    6.1777  -13.3412   26.6790 C   0  0  0  0  0  0  0  0  0  0  0  0
    5.4984  -12.1580   26.9416 C   0  0  0  0  0  0  0  0  0  0  0  0
    6.1918  -10.9965   27.1794 C   0  0  0  0  0  0  0  0  0  0  0  0
    7.5590  -11.0495   27.1482 C   0  0  0  0  0  0  0  0  0  0  0  0
    8.2575  -12.2023   26.8912 C   0  0  0  0  0  0  0  0  0  0  0  0
    7.5525  -13.3794   26.6492 C   0  0  0  0  0  0  0  0  0  0  0  0
    9.6287  -17.2706   24.9163 C   0  0  0  0  0  0  0  0  0  0  0  0
   10.6626  -17.9724   25.5239 O   0  0  0  0  0  0  0  0  0  0  0  0
    8.7330  -17.9963   24.3840 O   0  0  0  0  0  0  0  0  0  0  0  0
  2  1  1  6
  3  2  1  0
  4  3  1  0
  4  5  2  0
  6  5  1  0
  7  6  1  0
  8  7  2  0
  8  4  1  0
  9 11  1  0
  9  2  1  0
 10  9  2  0
 11 15  1  0
 12 11  1  0
 12 13  1  0
 13 14  1  0
 15 14  1  0
 15 16  1  1
 16 18  1  0
 17 16  2  0
 18 19  1  0
 19 20  1  1
 21 20  1  0
 22 21  2  0
 23 22  1  0
 24 23  1  0
 24 29  2  0
 25 24  1  0
 26 25  2  0
 26 27  1  0
 27 28  2  0
 28 29  1  0
 29 21  1  0
 30 31  1  0
 30 19  1  0
 32 30  2  0
M  END
$$$$
