HPW.pdb
     RDKit          3D

 32 35  0  0  1  0  0  0  0  0999 V2000
    5.9422  -15.4310   19.9995 N   0  0  0  0  0  0  0  0  0  0  0  0
    6.8162  -16.4656   20.5846 C   0  0  1  0  0  0  0  0  0  0  0  0
    8.1257  -16.3020   19.8026 C   0  0  0  0  0  0  0  0  0  0  0  0
    8.2683  -14.9161   19.2890 C   0  0  0  0  0  0  0  0  0  0  0  0
    7.3701  -13.8620   19.4353 C   0  0  0  0  0  0  0  0  0  0  0  0
    7.8449  -12.7816   18.8423 N   0  0  0  0  0  0  0  0  0  0  0  0
    9.0423  -13.0953   18.3031 C   0  0  0  0  0  0  0  0  0  0  0  0
    9.2823  -14.3884   18.5827 N   0  0  0  0  0  0  0  0  0  0  0  0
    7.0531  -16.1651   22.0316 C   0  0  0  0  0  0  0  0  0  0  0  0
    7.1494  -14.9085   22.2957 O   0  0  0  0  0  0  0  0  0  0  0  0
    7.1686  -17.1306   23.0443 N   0  0  0  0  0  0  0  0  0  0  0  0
    7.2086  -18.5512   22.8440 C   0  0  0  0  0  0  0  0  0  0  0  0
    6.4017  -19.0722   24.0431 C   0  0  0  0  0  0  0  0  0  0  0  0
    6.2138  -17.8912   24.9590 C   0  0  0  0  0  0  0  0  0  0  0  0
    7.2446  -16.9149   24.4457 C   0  0  1  0  0  0  0  0  0  0  0  0
    8.5549  -17.2431   25.0669 C   0  0  0  0  0  0  0  0  0  0  0  0
    8.5156  -17.8683   26.1565 O   0  0  0  0  0  0  0  0  0  0  0  0
    9.8181  -16.9097   24.5335 N   0  0  0  0  0  0  0  0  0  0  0  0
   10.7465  -16.1178   25.3473 C   0  0  1  0  0  0  0  0  0  0  0  0
   10.4059  -14.6752   25.2923 C   0  0  0  0  0  0  0  0  0  0  0  0
    9.6132  -14.1948   26.4349 C   0  0  0  0  0  0  0  0  0  0  0  0
    9.8688  -14.4486   27.7879 C   0  0  0  0  0  0  0  0  0  0  0  0
    8.9027  -13.8807   28.5187 N   0  0  0  0  0  0  0  0  0  0  0  0
    8.0197  -13.2631   27.7268 C   0  0  0  0  0  0  0  0  0  0  0  0
    6.8752  -12.5283   28.0106 C   0  0  0  0  0  0  0  0  0  0  0  0
    6.1409  -11.9657   26.9953 C   0  0  0  0  0  0  0  0  0  0  0  0
    6.5748  -12.1545   25.7111 C   0  0  0  0  0  0  0  0  0  0  0  0
    7.7001  -12.8753   25.3997 C   0  0  0  0  0  0  0  0  0  0  0  0
    8.4432  -13.4461   26.4308 C   0  0  0  0  0  0  0  0  0  0  0  0
   10.9267  -16.6333   26.7007 C   0  0  0  0  0  0  0  0  0  0  0  0
    9.9666  -17.4276   27.3155 O   0  0  0  0  0  0  0  0  0  0  0  0
   11.9529  -16.3937   27.4091 O   0  0  0  0  0  0  0  0  0  0  0  0
  2  1  1  6
  3  2  1  0
  4  3  1  0
  4  5  2  0
  6  5  1  0
  7  6  1  0
  8  7  2  0
  8  4  1  0
  9 11  1  0
  9  2  1  0
 10  9  2  0
 11 15  1  0
 12 11  1  0
 12 13  1  0
 13 14  1  0
 15 14  1  0
 15 16  1  1
 16 18  1  0
 17 16  2  0
 18 19  1  0
 19 20  1  1
 21 20  1  0
 22 21  2  0
 23 22  1  0
 24 23  1  0
 24 29  2  0
 25 24  1  0
 26 25  2  0
 26 27  1  0
 27 28  2  0
 28 29  1  0
 29 21  1  0
 30 31  1  0
 30 19  1  0
 32 30  2  0
M  END
$$$$
