NRK.pdb
     RDKit          3D

 29 28  0  0  1  0  0  0  0  0999 V2000
   15.3542  -15.3063   19.0679 N   0  0  0  0  0  0  0  0  0  0  0  0
   14.3410  -14.3010   18.7987 C   0  0  0  0  0  0  0  0  0  0  0  0
   14.6794  -13.4232   17.9782 O   0  0  0  0  0  0  0  0  0  0  0  0
   13.0446  -14.3961   19.4906 C   0  0  0  0  0  0  0  0  0  0  0  0
   12.9283  -15.5853   20.4067 C   0  0  2  0  0  0  0  0  0  0  0  0
   12.4084  -16.7138   19.6084 N   0  0  0  0  0  0  0  0  0  0  0  0
   11.8810  -15.2824   21.4338 C   0  0  0  0  0  0  0  0  0  0  0  0
   12.1928  -14.5531   22.3991 O   0  0  0  0  0  0  0  0  0  0  0  0
    8.7081  -11.5846   18.0692 N   0  0  0  0  0  0  0  0  0  0  0  0
    8.4291  -12.9692   18.1935 C   0  0  0  0  0  0  0  0  0  0  0  0
    9.1427  -13.8499   17.5762 N   0  0  0  0  0  0  0  0  0  0  0  0
    7.3439  -13.4257   19.0111 N   0  0  0  0  0  0  0  0  0  0  0  0
    7.5846  -13.9388   20.3451 C   0  0  0  0  0  0  0  0  0  0  0  0
    7.9095  -15.4154   20.3206 C   0  0  0  0  0  0  0  0  0  0  0  0
    8.1516  -15.9082   21.7293 C   0  0  0  0  0  0  0  0  0  0  0  0
    9.5256  -15.5188   22.2289 C   0  0  2  0  0  0  0  0  0  0  0  0
   10.5620  -15.8216   21.2992 N   0  0  0  0  0  0  0  0  0  0  0  0
    9.7145  -16.2534   23.5333 C   0  0  0  0  0  0  0  0  0  0  0  0
   10.4128  -17.2966   23.5826 O   0  0  0  0  0  0  0  0  0  0  0  0
    8.9449  -14.8516   17.7598 N   0  0  0  0  0  0  0  0  0  0  0  0
    9.1199  -15.8007   24.7338 C   0  0  1  0  0  0  0  0  0  0  0  0
    9.1818  -16.6328   25.9493 C   0  0  0  0  0  0  0  0  0  0  0  0
    8.5804  -15.9048   27.1125 C   0  0  0  0  0  0  0  0  0  0  0  0
    9.4593  -14.8123   27.6013 C   0  0  0  0  0  0  0  0  0  0  0  0
    9.9657  -15.1244   28.9997 C   0  0  0  0  0  0  0  0  0  0  0  0
   10.8843  -13.9497   29.3694 N   0  0  0  0  0  0  0  0  0  0  0  0
   11.3542  -14.1941   30.7131 C   0  0  0  0  0  0  0  0  0  0  0  0
    8.5523  -17.9197   25.6250 O   0  0  0  0  0  0  0  0  0  0  0  0
    9.0514  -19.0941   26.1516 O   0  0  0  0  0  0  0  0  0  0  0  0
  2  1  1  0
  3  2  2  0
  4  5  1  0
  4  2  1  0
  5  6  1  6
  7  5  1  0
  7  8  2  0
 10  9  1  0
 11 10  2  0
 12 10  1  0
 13 12  1  0
 14 13  1  0
 15 14  1  0
 16 15  1  6
 16 17  1  0
 17  7  1  0
 18 16  1  0
 19 18  2  0
 20 18  1  0
 21 20  1  0
 21 27  1  0
 21 22  1  6
 23 24  1  0
 23 22  1  0
 24 25  1  0
 25 26  1  0
 27 28  1  0
 29 27  2  0
M  END
$$$$
