NRK.pdb
     RDKit          3D

 29 28  0  0  1  0  0  0  0  0999 V2000
   16.1900  -15.1497   16.8602 N   0  0  0  0  0  0  0  0  0  0  0  0
   14.9808  -15.8787   17.2004 C   0  0  0  0  0  0  0  0  0  0  0  0
   14.4692  -16.5144   16.2557 O   0  0  0  0  0  0  0  0  0  0  0  0
   14.4754  -15.8109   18.5819 C   0  0  0  0  0  0  0  0  0  0  0  0
   14.0163  -17.1364   19.1289 C   0  0  2  0  0  0  0  0  0  0  0  0
   12.9974  -17.6716   18.2034 N   0  0  0  0  0  0  0  0  0  0  0  0
   13.3119  -16.8867   20.4269 C   0  0  0  0  0  0  0  0  0  0  0  0
   13.9986  -16.5672   21.4205 O   0  0  0  0  0  0  0  0  0  0  0  0
    6.8806  -11.8376   20.1638 N   0  0  0  0  0  0  0  0  0  0  0  0
    7.9797  -12.5955   19.6865 C   0  0  0  0  0  0  0  0  0  0  0  0
    9.1556  -12.0728   19.5874 N   0  0  0  0  0  0  0  0  0  0  0  0
    7.8105  -13.9657   19.3013 N   0  0  0  0  0  0  0  0  0  0  0  0
    8.0259  -15.0364   20.2543 C   0  0  0  0  0  0  0  0  0  0  0  0
    9.4853  -15.1581   20.6306 C   0  0  0  0  0  0  0  0  0  0  0  0
    9.7009  -16.4180   21.4382 C   0  0  0  0  0  0  0  0  0  0  0  0
   11.1702  -16.6734   21.6932 C   0  0  2  0  0  0  0  0  0  0  0  0
   11.8888  -17.0149   20.5113 N   0  0  0  0  0  0  0  0  0  0  0  0
   11.2255  -17.7790   22.7186 C   0  0  0  0  0  0  0  0  0  0  0  0
   11.2378  -18.9826   22.3587 O   0  0  0  0  0  0  0  0  0  0  0  0
    9.9362  -12.6853   19.2846 N   0  0  0  0  0  0  0  0  0  0  0  0
   11.2649  -17.5051   24.1053 C   0  0  1  0  0  0  0  0  0  0  0  0
   11.2515  -18.6125   25.0785 C   0  0  0  0  0  0  0  0  0  0  0  0
   12.6146  -19.2231   25.1946 C   0  0  0  0  0  0  0  0  0  0  0  0
   12.6512  -20.3192   26.1957 C   0  0  0  0  0  0  0  0  0  0  0  0
   14.0596  -20.8758   26.3216 C   0  0  0  0  0  0  0  0  0  0  0  0
   13.9634  -21.9861   27.3791 N   0  0  0  0  0  0  0  0  0  0  0  0
   15.2228  -22.6930   27.3579 C   0  0  0  0  0  0  0  0  0  0  0  0
   10.6965  -18.0813   26.3304 O   0  0  0  0  0  0  0  0  0  0  0  0
   10.3913  -18.9304   27.3753 O   0  0  0  0  0  0  0  0  0  0  0  0
  2  1  1  0
  3  2  2  0
  4  5  1  0
  4  2  1  0
  5  6  1  6
  7  5  1  0
  7  8  2  0
 10  9  1  0
 11 10  2  0
 12 10  1  0
 13 12  1  0
 14 13  1  0
 15 14  1  0
 16 15  1  6
 16 17  1  0
 17  7  1  0
 18 16  1  0
 19 18  2  0
 20 18  1  0
 21 20  1  0
 21 27  1  0
 21 22  1  6
 23 24  1  0
 23 22  1  0
 24 25  1  0
 25 26  1  0
 27 28  1  0
 29 27  2  0
M  END
$$$$
