NRK.pdb
     RDKit          3D

 29 28  0  0  1  0  0  0  0  0999 V2000
    7.8726  -12.0648   17.3218 N   0  0  0  0  0  0  0  0  0  0  0  0
    7.7615  -13.5052   17.4715 C   0  0  0  0  0  0  0  0  0  0  0  0
    7.9792  -14.1582   16.4302 O   0  0  0  0  0  0  0  0  0  0  0  0
    7.4137  -14.0574   18.7916 C   0  0  0  0  0  0  0  0  0  0  0  0
    8.5254  -14.8416   19.4366 C   0  0  2  0  0  0  0  0  0  0  0  0
    8.7557  -16.0468   18.6147 N   0  0  0  0  0  0  0  0  0  0  0  0
    8.0412  -15.3295   20.7673 C   0  0  0  0  0  0  0  0  0  0  0  0
    7.7212  -14.4816   21.6274 O   0  0  0  0  0  0  0  0  0  0  0  0
    6.6091  -22.7338   24.9002 N   0  0  0  0  0  0  0  0  0  0  0  0
    6.3472  -21.6288   25.7491 C   0  0  0  0  0  0  0  0  0  0  0  0
    6.6678  -21.6592   26.9989 N   0  0  0  0  0  0  0  0  0  0  0  0
    5.7180  -20.4470   25.2375 N   0  0  0  0  0  0  0  0  0  0  0  0
    5.9414  -20.0198   23.8705 C   0  0  0  0  0  0  0  0  0  0  0  0
    7.2484  -19.2726   23.7300 C   0  0  0  0  0  0  0  0  0  0  0  0
    7.3805  -18.7355   22.3229 C   0  0  0  0  0  0  0  0  0  0  0  0
    7.5899  -17.2370   22.3144 C   0  0  2  0  0  0  0  0  0  0  0  0
    7.9529  -16.7333   21.0319 N   0  0  0  0  0  0  0  0  0  0  0  0
    8.6585  -16.9633   23.3439 C   0  0  0  0  0  0  0  0  0  0  0  0
    9.8696  -17.1607   23.0742 O   0  0  0  0  0  0  0  0  0  0  0  0
    6.4290  -20.8353   27.5825 N   0  0  0  0  0  0  0  0  0  0  0  0
    8.3407  -16.4807   24.6345 C   0  0  2  0  0  0  0  0  0  0  0  0
    9.4164  -16.0843   25.5615 C   0  0  0  0  0  0  0  0  0  0  0  0
    8.9030  -15.1011   26.5685 C   0  0  0  0  0  0  0  0  0  0  0  0
    9.9317  -14.7506   27.5804 C   0  0  0  0  0  0  0  0  0  0  0  0
    9.3553  -13.7984   28.6150 C   0  0  0  0  0  0  0  0  0  0  0  0
   10.5024  -13.5285   29.6007 N   0  0  0  0  0  0  0  0  0  0  0  0
    9.9775  -12.6527   30.6223 C   0  0  0  0  0  0  0  0  0  0  0  0
    9.9789  -17.3188   26.1246 O   0  0  0  0  0  0  0  0  0  0  0  0
    9.1999  -18.4527   26.2394 O   0  0  0  0  0  0  0  0  0  0  0  0
  2  1  1  0
  3  2  2  0
  4  5  1  0
  4  2  1  0
  5  6  1  6
  7  5  1  0
  7  8  2  0
 10  9  1  0
 11 10  2  0
 12 10  1  0
 13 12  1  0
 14 13  1  0
 15 14  1  0
 16 15  1  6
 16 17  1  0
 17  7  1  0
 18 16  1  0
 19 18  2  0
 20 18  1  0
 21 20  1  0
 21 27  1  0
 21 22  1  6
 23 24  1  0
 23 22  1  0
 24 25  1  0
 25 26  1  0
 27 28  1  0
 29 27  2  0
M  END
$$$$
