NRK.pdb
     RDKit          3D

 29 28  0  0  1  0  0  0  0  0999 V2000
   16.8521  -13.6494   17.7734 N   0  0  0  0  0  0  0  0  0  0  0  0
   15.9355  -13.7858   16.6550 C   0  0  0  0  0  0  0  0  0  0  0  0
   15.7918  -12.7542   15.9670 O   0  0  0  0  0  0  0  0  0  0  0  0
   15.2747  -15.0828   16.4322 C   0  0  0  0  0  0  0  0  0  0  0  0
   15.5150  -16.0857   17.5293 C   0  0  2  0  0  0  0  0  0  0  0  0
   14.8781  -17.3540   17.1210 N   0  0  0  0  0  0  0  0  0  0  0  0
   14.7824  -15.6246   18.7516 C   0  0  0  0  0  0  0  0  0  0  0  0
   15.4380  -15.0740   19.6615 O   0  0  0  0  0  0  0  0  0  0  0  0
    7.1518  -11.8085   19.7340 N   0  0  0  0  0  0  0  0  0  0  0  0
    7.7802  -12.8885   19.0640 C   0  0  0  0  0  0  0  0  0  0  0  0
    7.2501  -13.4190   18.0136 N   0  0  0  0  0  0  0  0  0  0  0  0
    9.0243  -13.4189   19.5388 N   0  0  0  0  0  0  0  0  0  0  0  0
    9.0663  -14.2875   20.6985 C   0  0  0  0  0  0  0  0  0  0  0  0
   10.4825  -14.7007   21.0302 C   0  0  0  0  0  0  0  0  0  0  0  0
   11.2064  -15.1027   19.7652 C   0  0  0  0  0  0  0  0  0  0  0  0
   12.6486  -15.4692   20.0395 C   0  0  2  0  0  0  0  0  0  0  0  0
   13.3682  -15.8169   18.8599 N   0  0  0  0  0  0  0  0  0  0  0  0
   12.6045  -16.6126   21.0232 C   0  0  0  0  0  0  0  0  0  0  0  0
   12.2065  -17.7486   20.6634 O   0  0  0  0  0  0  0  0  0  0  0  0
    7.7518  -14.2056   17.5599 N   0  0  0  0  0  0  0  0  0  0  0  0
   13.0044  -16.4501   22.3698 C   0  0  1  0  0  0  0  0  0  0  0  0
   13.0569  -17.6154   23.2714 C   0  0  0  0  0  0  0  0  0  0  0  0
   14.4614  -17.8554   23.7343 C   0  0  0  0  0  0  0  0  0  0  0  0
   14.5576  -19.0296   24.6382 C   0  0  0  0  0  0  0  0  0  0  0  0
   16.0038  -19.2777   25.0333 C   0  0  0  0  0  0  0  0  0  0  0  0
   15.9720  -20.5315   25.9206 N   0  0  0  0  0  0  0  0  0  0  0  0
   17.3422  -20.8383   26.2591 C   0  0  0  0  0  0  0  0  0  0  0  0
   12.0786  -17.3790   24.3412 O   0  0  0  0  0  0  0  0  0  0  0  0
   11.5423  -16.1214   24.5323 O   0  0  0  0  0  0  0  0  0  0  0  0
  2  1  1  0
  3  2  2  0
  4  5  1  0
  4  2  1  0
  5  6  1  6
  7  5  1  0
  7  8  2  0
 10  9  1  0
 11 10  2  0
 12 10  1  0
 13 12  1  0
 14 13  1  0
 15 14  1  0
 16 15  1  6
 16 17  1  0
 17  7  1  0
 18 16  1  0
 19 18  2  0
 20 18  1  0
 21 20  1  0
 21 27  1  0
 21 22  1  1
 23 24  1  0
 23 22  1  0
 24 25  1  0
 25 26  1  0
 27 28  1  0
 29 27  2  0
M  END
$$$$
