NRK.pdb
     RDKit          3D

 29 28  0  0  1  0  0  0  0  0999 V2000
   14.8331  -19.7413   15.7351 N   0  0  0  0  0  0  0  0  0  0  0  0
   14.5925  -19.7537   17.1674 C   0  0  0  0  0  0  0  0  0  0  0  0
   15.2530  -20.6018   17.8019 O   0  0  0  0  0  0  0  0  0  0  0  0
   13.6242  -18.7994   17.7332 C   0  0  0  0  0  0  0  0  0  0  0  0
   13.4564  -18.9136   19.2251 C   0  0  2  0  0  0  0  0  0  0  0  0
   12.5263  -20.0309   19.4848 N   0  0  0  0  0  0  0  0  0  0  0  0
   12.7692  -17.6755   19.7134 C   0  0  0  0  0  0  0  0  0  0  0  0
   13.4026  -16.5989   19.6892 O   0  0  0  0  0  0  0  0  0  0  0  0
    6.6411  -12.4191   19.9830 N   0  0  0  0  0  0  0  0  0  0  0  0
    7.1090  -12.8668   18.7217 C   0  0  0  0  0  0  0  0  0  0  0  0
    6.3068  -12.9833   17.7174 N   0  0  0  0  0  0  0  0  0  0  0  0
    8.4895  -13.2019   18.5311 N   0  0  0  0  0  0  0  0  0  0  0  0
    8.9475  -14.5698   18.6725 C   0  0  0  0  0  0  0  0  0  0  0  0
    8.8887  -15.0278   20.1123 C   0  0  0  0  0  0  0  0  0  0  0  0
    9.3255  -16.4722   20.2067 C   0  0  0  0  0  0  0  0  0  0  0  0
   10.7488  -16.5938   20.7053 C   0  0  2  0  0  0  0  0  0  0  0  0
   11.4219  -17.7401   20.1924 N   0  0  0  0  0  0  0  0  0  0  0  0
   10.6575  -16.6282   22.2111 C   0  0  0  0  0  0  0  0  0  0  0  0
    9.6436  -17.1069   22.7779 O   0  0  0  0  0  0  0  0  0  0  0  0
    6.6970  -13.3301   16.8208 N   0  0  0  0  0  0  0  0  0  0  0  0
   11.6966  -16.1291   23.0301 C   0  0  1  0  0  0  0  0  0  0  0  0
   12.1610  -16.9080   24.1925 C   0  0  0  0  0  0  0  0  0  0  0  0
   12.5100  -18.3053   23.7800 C   0  0  0  0  0  0  0  0  0  0  0  0
   11.7731  -19.3214   24.5733 C   0  0  0  0  0  0  0  0  0  0  0  0
   12.1301  -20.7219   24.1037 C   0  0  0  0  0  0  0  0  0  0  0  0
   11.4075  -21.6705   25.0725 N   0  0  0  0  0  0  0  0  0  0  0  0
   11.7689  -23.0149   24.6877 C   0  0  0  0  0  0  0  0  0  0  0  0
   13.2544  -16.1486   24.8131 O   0  0  0  0  0  0  0  0  0  0  0  0
   14.2885  -15.6561   24.0425 O   0  0  0  0  0  0  0  0  0  0  0  0
  2  1  1  0
  3  2  2  0
  4  5  1  0
  4  2  1  0
  5  6  1  6
  7  5  1  0
  7  8  2  0
 10  9  1  0
 11 10  2  0
 12 10  1  0
 13 12  1  0
 14 13  1  0
 15 14  1  0
 16 15  1  6
 16 17  1  0
 17  7  1  0
 18 16  1  0
 19 18  2  0
 20 18  1  0
 21 20  1  0
 21 27  1  0
 21 22  1  1
 23 24  1  0
 23 22  1  0
 24 25  1  0
 25 26  1  0
 27 28  1  0
 29 27  2  0
M  END
$$$$
