NRK.pdb
     RDKit          3D

 29 28  0  0  1  0  0  0  0  0999 V2000
    9.4743  -13.9410   15.3338 N   0  0  0  0  0  0  0  0  0  0  0  0
    8.0492  -14.0907   15.5703 C   0  0  0  0  0  0  0  0  0  0  0  0
    7.3236  -13.8015   14.5966 O   0  0  0  0  0  0  0  0  0  0  0  0
    7.5933  -14.5545   16.8915 C   0  0  0  0  0  0  0  0  0  0  0  0
    8.7112  -14.8078   17.8678 C   0  0  2  0  0  0  0  0  0  0  0  0
    9.4526  -15.9955   17.3980 N   0  0  0  0  0  0  0  0  0  0  0  0
    8.1045  -15.1873   19.1836 C   0  0  0  0  0  0  0  0  0  0  0  0
    7.4503  -14.3227   19.8045 O   0  0  0  0  0  0  0  0  0  0  0  0
    7.2459  -23.1601   23.3233 N   0  0  0  0  0  0  0  0  0  0  0  0
    6.3032  -22.2734   23.9023 C   0  0  0  0  0  0  0  0  0  0  0  0
    5.3919  -22.7043   24.7083 N   0  0  0  0  0  0  0  0  0  0  0  0
    6.3399  -20.8716   23.6053 N   0  0  0  0  0  0  0  0  0  0  0  0
    7.2352  -20.3512   22.5911 C   0  0  0  0  0  0  0  0  0  0  0  0
    7.0068  -18.8752   22.3549 C   0  0  0  0  0  0  0  0  0  0  0  0
    7.8554  -18.4067   21.1947 C   0  0  0  0  0  0  0  0  0  0  0  0
    7.6411  -16.9375   20.9034 C   0  0  2  0  0  0  0  0  0  0  0  0
    8.2784  -16.5096   19.7030 N   0  0  0  0  0  0  0  0  0  0  0  0
    8.1663  -16.1965   22.1083 C   0  0  0  0  0  0  0  0  0  0  0  0
    9.4027  -16.1019   22.3101 O   0  0  0  0  0  0  0  0  0  0  0  0
    4.6790  -22.0287   25.0425 N   0  0  0  0  0  0  0  0  0  0  0  0
    7.2973  -15.5886   23.0437 C   0  0  2  0  0  0  0  0  0  0  0  0
    7.8434  -14.7337   24.1136 C   0  0  0  0  0  0  0  0  0  0  0  0
    6.8545  -13.6739   24.4922 C   0  0  0  0  0  0  0  0  0  0  0  0
    7.3833  -12.7675   25.5428 C   0  0  0  0  0  0  0  0  0  0  0  0
    6.3257  -11.7559   25.9520 C   0  0  0  0  0  0  0  0  0  0  0  0
    7.0124  -10.8463   26.9823 N   0  0  0  0  0  0  0  0  0  0  0  0
    6.0161   -9.9047   27.4374 C   0  0  0  0  0  0  0  0  0  0  0  0
    8.2568  -15.6218   25.2081 O   0  0  0  0  0  0  0  0  0  0  0  0
    9.4130  -15.3653   25.9173 O   0  0  0  0  0  0  0  0  0  0  0  0
  2  1  1  0
  3  2  2  0
  4  5  1  0
  4  2  1  0
  5  6  1  6
  7  5  1  0
  7  8  2  0
 10  9  1  0
 11 10  2  0
 12 10  1  0
 13 12  1  0
 14 13  1  0
 15 14  1  0
 16 15  1  1
 16 17  1  0
 17  7  1  0
 18 16  1  0
 19 18  2  0
 20 18  1  0
 21 20  1  0
 21 27  1  0
 21 22  1  6
 23 24  1  0
 23 22  1  0
 24 25  1  0
 25 26  1  0
 27 28  1  0
 29 27  2  0
M  END
$$$$
