NRK.pdb
     RDKit          3D

 29 28  0  0  1  0  0  0  0  0999 V2000
   10.0418  -22.3841   19.6383 N   0  0  0  0  0  0  0  0  0  0  0  0
   10.3999  -21.6433   18.4415 C   0  0  0  0  0  0  0  0  0  0  0  0
   10.1459  -22.2279   17.3682 O   0  0  0  0  0  0  0  0  0  0  0  0
   11.0113  -20.3115   18.5867 C   0  0  0  0  0  0  0  0  0  0  0  0
   11.3131  -19.9315   20.0120 C   0  0  2  0  0  0  0  0  0  0  0  0
   10.0368  -19.9380   20.7549 N   0  0  0  0  0  0  0  0  0  0  0  0
   11.7967  -18.5139   20.0245 C   0  0  0  0  0  0  0  0  0  0  0  0
   12.8486  -18.2425   19.4074 O   0  0  0  0  0  0  0  0  0  0  0  0
    7.7805  -13.1378   16.6768 N   0  0  0  0  0  0  0  0  0  0  0  0
    7.7513  -12.7743   18.0469 C   0  0  0  0  0  0  0  0  0  0  0  0
    6.7735  -12.0856   18.5320 N   0  0  0  0  0  0  0  0  0  0  0  0
    8.8111  -13.1647   18.9295 N   0  0  0  0  0  0  0  0  0  0  0  0
    9.9767  -13.8639   18.4259 C   0  0  0  0  0  0  0  0  0  0  0  0
   10.0971  -15.2456   19.0282 C   0  0  0  0  0  0  0  0  0  0  0  0
   10.5021  -15.1357   20.4807 C   0  0  0  0  0  0  0  0  0  0  0  0
   11.5412  -16.1714   20.8508 C   0  0  2  0  0  0  0  0  0  0  0  0
   11.0623  -17.5078   20.7294 N   0  0  0  0  0  0  0  0  0  0  0  0
   11.9550  -15.8538   22.2667 C   0  0  0  0  0  0  0  0  0  0  0  0
   11.0919  -15.5789   23.1371 O   0  0  0  0  0  0  0  0  0  0  0  0
    6.7846  -11.8736   19.5476 N   0  0  0  0  0  0  0  0  0  0  0  0
   13.3129  -15.8536   22.6616 C   0  0  1  0  0  0  0  0  0  0  0  0
   13.6703  -16.0307   24.0809 C   0  0  0  0  0  0  0  0  0  0  0  0
   13.0779  -17.2989   24.6150 C   0  0  0  0  0  0  0  0  0  0  0  0
   13.4983  -17.5647   26.0141 C   0  0  0  0  0  0  0  0  0  0  0  0
   13.0297  -18.9410   26.4563 C   0  0  0  0  0  0  0  0  0  0  0  0
   13.5888  -19.1227   27.8757 N   0  0  0  0  0  0  0  0  0  0  0  0
   12.9898  -20.3235   28.4099 C   0  0  0  0  0  0  0  0  0  0  0  0
   15.1332  -15.9373   24.1734 O   0  0  0  0  0  0  0  0  0  0  0  0
   15.7343  -15.5242   25.3455 O   0  0  0  0  0  0  0  0  0  0  0  0
  2  1  1  0
  3  2  2  0
  4  5  1  0
  4  2  1  0
  5  6  1  1
  7  5  1  0
  7  8  2  0
 10  9  1  0
 11 10  2  0
 12 10  1  0
 13 12  1  0
 14 13  1  0
 15 14  1  0
 16 15  1  1
 16 17  1  0
 17  7  1  0
 18 16  1  0
 19 18  2  0
 20 18  1  0
 21 20  1  0
 21 27  1  0
 21 22  1  1
 23 24  1  0
 23 22  1  0
 24 25  1  0
 25 26  1  0
 27 28  1  0
 29 27  2  0
M  END
$$$$
