NRK.pdb
     RDKit          3D

 29 28  0  0  1  0  0  0  0  0999 V2000
   10.3285  -19.8451   15.4589 N   0  0  0  0  0  0  0  0  0  0  0  0
   11.0441  -18.5812   15.4491 C   0  0  0  0  0  0  0  0  0  0  0  0
   11.7471  -18.3854   14.4363 O   0  0  0  0  0  0  0  0  0  0  0  0
   10.8875  -17.6674   16.5931 C   0  0  0  0  0  0  0  0  0  0  0  0
   10.0041  -18.2059   17.6870 C   0  0  2  0  0  0  0  0  0  0  0  0
    8.6027  -18.0253   17.2576 N   0  0  0  0  0  0  0  0  0  0  0  0
   10.1843  -17.3444   18.8989 C   0  0  0  0  0  0  0  0  0  0  0  0
   11.2482  -17.4485   19.5456 O   0  0  0  0  0  0  0  0  0  0  0  0
    7.1171  -13.7957   24.7210 N   0  0  0  0  0  0  0  0  0  0  0  0
    7.2475  -12.4098   24.4516 C   0  0  0  0  0  0  0  0  0  0  0  0
    7.3034  -11.5478   25.4106 N   0  0  0  0  0  0  0  0  0  0  0  0
    7.3209  -11.9312   23.1026 N   0  0  0  0  0  0  0  0  0  0  0  0
    7.1432  -12.8353   21.9836 C   0  0  0  0  0  0  0  0  0  0  0  0
    8.2758  -13.8329   21.8920 C   0  0  0  0  0  0  0  0  0  0  0  0
    8.1036  -14.6886   20.6575 C   0  0  0  0  0  0  0  0  0  0  0  0
    9.2428  -15.6710   20.4956 C   0  0  2  0  0  0  0  0  0  0  0  0
    9.1556  -16.4307   19.2933 N   0  0  0  0  0  0  0  0  0  0  0  0
    9.2029  -16.5551   21.7178 C   0  0  0  0  0  0  0  0  0  0  0  0
    8.5407  -17.6227   21.7115 O   0  0  0  0  0  0  0  0  0  0  0  0
    7.3126  -10.5411   25.1599 N   0  0  0  0  0  0  0  0  0  0  0  0
    9.9004  -16.2189   22.9010 C   0  0  2  0  0  0  0  0  0  0  0  0
   10.3282  -17.2778   23.8335 C   0  0  0  0  0  0  0  0  0  0  0  0
   11.1575  -18.3003   23.1186 C   0  0  0  0  0  0  0  0  0  0  0  0
   11.6461  -19.3617   24.0349 C   0  0  0  0  0  0  0  0  0  0  0  0
   12.4665  -20.3867   23.2697 C   0  0  0  0  0  0  0  0  0  0  0  0
   12.9537  -21.3877   24.3284 N   0  0  0  0  0  0  0  0  0  0  0  0
   12.9004  -22.6970   23.7208 C   0  0  0  0  0  0  0  0  0  0  0  0
   10.9913  -16.6159   24.9647 O   0  0  0  0  0  0  0  0  0  0  0  0
   11.6303  -15.4049   24.7889 O   0  0  0  0  0  0  0  0  0  0  0  0
  2  1  1  0
  3  2  2  0
  4  5  1  0
  4  2  1  0
  5  6  1  6
  7  5  1  0
  7  8  2  0
 10  9  1  0
 11 10  2  0
 12 10  1  0
 13 12  1  0
 14 13  1  0
 15 14  1  0
 16 15  1  1
 16 17  1  0
 17  7  1  0
 18 16  1  0
 19 18  2  0
 20 18  1  0
 21 20  1  0
 21 27  1  0
 21 22  1  6
 23 24  1  0
 23 22  1  0
 24 25  1  0
 25 26  1  0
 27 28  1  0
 29 27  2  0
M  END
$$$$
