NRK.pdb
     RDKit          3D

 29 28  0  0  1  0  0  0  0  0999 V2000
   16.2483  -17.0769   17.5441 N   0  0  0  0  0  0  0  0  0  0  0  0
   15.5225  -17.7033   18.6352 C   0  0  0  0  0  0  0  0  0  0  0  0
   15.8944  -18.8617   18.9146 O   0  0  0  0  0  0  0  0  0  0  0  0
   14.4463  -16.9480   19.2984 C   0  0  0  0  0  0  0  0  0  0  0  0
   13.7993  -17.6847   20.4410 C   0  0  2  0  0  0  0  0  0  0  0  0
   12.7963  -18.6044   19.8674 N   0  0  0  0  0  0  0  0  0  0  0  0
   13.0351  -16.6926   21.2627 C   0  0  0  0  0  0  0  0  0  0  0  0
   13.6696  -15.7701   21.8171 O   0  0  0  0  0  0  0  0  0  0  0  0
    5.9267  -13.2792   18.4289 N   0  0  0  0  0  0  0  0  0  0  0  0
    7.1093  -13.5195   17.6847 C   0  0  0  0  0  0  0  0  0  0  0  0
    7.1488  -13.3098   16.4118 N   0  0  0  0  0  0  0  0  0  0  0  0
    8.2941  -14.0027   18.3308 N   0  0  0  0  0  0  0  0  0  0  0  0
    8.2457  -14.5067   19.6890 C   0  0  0  0  0  0  0  0  0  0  0  0
    9.6087  -14.9612   20.1603 C   0  0  0  0  0  0  0  0  0  0  0  0
    9.4899  -15.5993   21.5258 C   0  0  0  0  0  0  0  0  0  0  0  0
   10.8478  -15.8649   22.1381 C   0  0  2  0  0  0  0  0  0  0  0  0
   11.6153  -16.8115   21.4000 N   0  0  0  0  0  0  0  0  0  0  0  0
   10.5807  -16.3395   23.5454 C   0  0  0  0  0  0  0  0  0  0  0  0
   10.3624  -17.5546   23.7781 O   0  0  0  0  0  0  0  0  0  0  0  0
    8.0447  -13.4824   15.9179 N   0  0  0  0  0  0  0  0  0  0  0  0
   10.5662  -15.4454   24.6408 C   0  0  2  0  0  0  0  0  0  0  0  0
   10.2871  -15.9451   25.9995 C   0  0  0  0  0  0  0  0  0  0  0  0
   10.5362  -14.8705   27.0133 C   0  0  0  0  0  0  0  0  0  0  0  0
   10.2124  -15.3182   28.3915 C   0  0  0  0  0  0  0  0  0  0  0  0
   10.9358  -14.4563   29.4129 C   0  0  0  0  0  0  0  0  0  0  0  0
   10.5005  -14.9997   30.7824 N   0  0  0  0  0  0  0  0  0  0  0  0
   11.1464  -14.1802   31.7811 C   0  0  0  0  0  0  0  0  0  0  0  0
    8.9227  -16.4890   25.9886 O   0  0  0  0  0  0  0  0  0  0  0  0
    8.0108  -16.0694   25.0410 O   0  0  0  0  0  0  0  0  0  0  0  0
  2  1  1  0
  3  2  2  0
  4  5  1  0
  4  2  1  0
  5  6  1  6
  7  5  1  0
  7  8  2  0
 10  9  1  0
 11 10  2  0
 12 10  1  0
 13 12  1  0
 14 13  1  0
 15 14  1  0
 16 15  1  6
 16 17  1  0
 17  7  1  0
 18 16  1  0
 19 18  2  0
 20 18  1  0
 21 20  1  0
 21 27  1  0
 21 22  1  6
 23 24  1  0
 23 22  1  0
 24 25  1  0
 25 26  1  0
 27 28  1  0
 29 27  2  0
M  END
$$$$
