NRK.pdb
     RDKit          3D

 29 28  0  0  1  0  0  0  0  0999 V2000
    7.4367  -13.1277   14.6730 N   0  0  0  0  0  0  0  0  0  0  0  0
    7.6976  -14.4802   15.1336 C   0  0  0  0  0  0  0  0  0  0  0  0
    6.7579  -15.2831   14.9592 O   0  0  0  0  0  0  0  0  0  0  0  0
    9.0020  -14.7827   15.7464 C   0  0  0  0  0  0  0  0  0  0  0  0
    8.9808  -14.7920   17.2518 C   0  0  2  0  0  0  0  0  0  0  0  0
    8.8765  -13.3903   17.7048 N   0  0  0  0  0  0  0  0  0  0  0  0
   10.3088  -15.2894   17.7341 C   0  0  0  0  0  0  0  0  0  0  0  0
   10.5191  -16.5209   17.7217 O   0  0  0  0  0  0  0  0  0  0  0  0
   18.2886  -14.2162   19.9386 N   0  0  0  0  0  0  0  0  0  0  0  0
   18.0401  -13.9950   18.5604 C   0  0  0  0  0  0  0  0  0  0  0  0
   18.4819  -12.9382   17.9657 N   0  0  0  0  0  0  0  0  0  0  0  0
   17.2893  -14.9436   17.7916 N   0  0  0  0  0  0  0  0  0  0  0  0
   15.9138  -14.6759   17.4210 C   0  0  0  0  0  0  0  0  0  0  0  0
   15.0533  -14.4144   18.6365 C   0  0  0  0  0  0  0  0  0  0  0  0
   13.7038  -13.8883   18.2028 C   0  0  0  0  0  0  0  0  0  0  0  0
   12.5801  -14.7983   18.6483 C   0  0  2  0  0  0  0  0  0  0  0  0
   11.3008  -14.3658   18.1941 N   0  0  0  0  0  0  0  0  0  0  0  0
   12.6530  -14.8376   20.1549 C   0  0  0  0  0  0  0  0  0  0  0  0
   12.4565  -13.7967   20.8304 O   0  0  0  0  0  0  0  0  0  0  0  0
   18.1877  -12.7732   16.9845 N   0  0  0  0  0  0  0  0  0  0  0  0
   12.9416  -16.0325   20.8540 C   0  0  2  0  0  0  0  0  0  0  0  0
   13.0933  -16.0132   22.3203 C   0  0  0  0  0  0  0  0  0  0  0  0
   12.3989  -17.1906   22.9334 C   0  0  0  0  0  0  0  0  0  0  0  0
   12.6788  -17.3084   24.3869 C   0  0  0  0  0  0  0  0  0  0  0  0
   12.1374  -18.6218   24.9266 C   0  0  0  0  0  0  0  0  0  0  0  0
   12.3764  -18.5658   26.4432 N   0  0  0  0  0  0  0  0  0  0  0  0
   11.8529  -19.7942   26.9939 C   0  0  0  0  0  0  0  0  0  0  0  0
   14.5311  -15.9184   22.6051 O   0  0  0  0  0  0  0  0  0  0  0  0
   14.9850  -15.1588   23.6647 O   0  0  0  0  0  0  0  0  0  0  0  0
  2  1  1  0
  3  2  2  0
  4  5  1  0
  4  2  1  0
  5  6  1  1
  7  5  1  0
  7  8  2  0
 10  9  1  0
 11 10  2  0
 12 10  1  0
 13 12  1  0
 14 13  1  0
 15 14  1  0
 16 15  1  1
 16 17  1  0
 17  7  1  0
 18 16  1  0
 19 18  2  0
 20 18  1  0
 21 20  1  0
 21 27  1  0
 21 22  1  6
 23 24  1  0
 23 22  1  0
 24 25  1  0
 25 26  1  0
 27 28  1  0
 29 27  2  0
M  END
$$$$
