NRK.pdb
     RDKit          3D

 29 28  0  0  1  0  0  0  0  0999 V2000
    7.5531  -14.6931   15.4142 N   0  0  0  0  0  0  0  0  0  0  0  0
    8.1219  -14.3842   16.7144 C   0  0  0  0  0  0  0  0  0  0  0  0
    9.2827  -14.8074   16.8921 O   0  0  0  0  0  0  0  0  0  0  0  0
    7.3120  -13.6245   17.6817 C   0  0  0  0  0  0  0  0  0  0  0  0
    8.0176  -13.3468   18.9824 C   0  0  2  0  0  0  0  0  0  0  0  0
    9.3111  -12.7108   18.6610 N   0  0  0  0  0  0  0  0  0  0  0  0
    8.3455  -14.6595   19.6248 C   0  0  0  0  0  0  0  0  0  0  0  0
    7.4059  -15.4385   19.8915 O   0  0  0  0  0  0  0  0  0  0  0  0
   15.4609  -15.1559   20.2507 N   0  0  0  0  0  0  0  0  0  0  0  0
   15.0199  -14.2702   19.2353 C   0  0  0  0  0  0  0  0  0  0  0  0
   15.4453  -13.0527   19.1833 N   0  0  0  0  0  0  0  0  0  0  0  0
   14.0876  -14.7074   18.2382 N   0  0  0  0  0  0  0  0  0  0  0  0
   13.1598  -15.7868   18.5122 C   0  0  0  0  0  0  0  0  0  0  0  0
   12.3499  -15.5179   19.7605 C   0  0  0  0  0  0  0  0  0  0  0  0
   11.4590  -16.7032   20.0559 C   0  0  0  0  0  0  0  0  0  0  0  0
   10.0654  -16.2688   20.4543 C   0  0  2  0  0  0  0  0  0  0  0  0
    9.7046  -14.9984   19.9195 N   0  0  0  0  0  0  0  0  0  0  0  0
   10.0498  -16.2635   21.9631 C   0  0  0  0  0  0  0  0  0  0  0  0
   10.0894  -15.1799   22.5976 O   0  0  0  0  0  0  0  0  0  0  0  0
   15.0389  -12.4258   18.4634 N   0  0  0  0  0  0  0  0  0  0  0  0
    9.9909  -17.4629   22.7098 C   0  0  2  0  0  0  0  0  0  0  0  0
    9.8031  -17.4157   24.1714 C   0  0  0  0  0  0  0  0  0  0  0  0
    8.8360  -18.4730   24.6087 C   0  0  0  0  0  0  0  0  0  0  0  0
    8.6941  -18.5222   26.0860 C   0  0  0  0  0  0  0  0  0  0  0  0
    7.7370  -19.6312   26.4902 C   0  0  0  0  0  0  0  0  0  0  0  0
    7.5723  -19.4898   28.0112 N   0  0  0  0  0  0  0  0  0  0  0  0
    6.6314  -20.5044   28.4253 C   0  0  0  0  0  0  0  0  0  0  0  0
   11.1366  -17.4981   24.7817 O   0  0  0  0  0  0  0  0  0  0  0  0
   11.3589  -16.9913   26.0463 O   0  0  0  0  0  0  0  0  0  0  0  0
  2  1  1  0
  3  2  2  0
  4  5  1  0
  4  2  1  0
  5  6  1  6
  7  5  1  0
  7  8  2  0
 10  9  1  0
 11 10  2  0
 12 10  1  0
 13 12  1  0
 14 13  1  0
 15 14  1  0
 16 15  1  1
 16 17  1  0
 17  7  1  0
 18 16  1  0
 19 18  2  0
 20 18  1  0
 21 20  1  0
 21 27  1  0
 21 22  1  1
 23 24  1  0
 23 22  1  0
 24 25  1  0
 25 26  1  0
 27 28  1  0
 29 27  2  0
M  END
$$$$
