NRK.pdb
     RDKit          3D

 29 28  0  0  1  0  0  0  0  0999 V2000
   12.0922  -18.5636   14.1018 N   0  0  0  0  0  0  0  0  0  0  0  0
   11.3264  -18.7236   15.3255 C   0  0  0  0  0  0  0  0  0  0  0  0
   10.6483  -19.7699   15.3858 O   0  0  0  0  0  0  0  0  0  0  0  0
   11.4095  -17.6764   16.3575 C   0  0  0  0  0  0  0  0  0  0  0  0
   11.7022  -18.2025   17.7375 C   0  0  2  0  0  0  0  0  0  0  0  0
   10.6743  -19.2138   18.0563 N   0  0  0  0  0  0  0  0  0  0  0  0
   11.5054  -17.0843   18.7145 C   0  0  0  0  0  0  0  0  0  0  0  0
   12.2302  -16.0721   18.6086 O   0  0  0  0  0  0  0  0  0  0  0  0
    6.1651  -14.8402   24.9922 N   0  0  0  0  0  0  0  0  0  0  0  0
    6.5584  -13.5422   24.5790 C   0  0  0  0  0  0  0  0  0  0  0  0
    6.2345  -12.4985   25.2657 N   0  0  0  0  0  0  0  0  0  0  0  0
    7.3283  -13.3574   23.3842 N   0  0  0  0  0  0  0  0  0  0  0  0
    7.4440  -14.4192   22.4043 C   0  0  0  0  0  0  0  0  0  0  0  0
    8.8819  -14.8497   22.2211 C   0  0  0  0  0  0  0  0  0  0  0  0
    8.9647  -15.9067   21.1432 C   0  0  0  0  0  0  0  0  0  0  0  0
   10.3991  -16.2243   20.7814 C   0  0  2  0  0  0  0  0  0  0  0  0
   10.5093  -17.1873   19.7371 N   0  0  0  0  0  0  0  0  0  0  0  0
   11.0494  -16.7061   22.0550 C   0  0  0  0  0  0  0  0  0  0  0  0
   11.0177  -17.9227   22.3667 O   0  0  0  0  0  0  0  0  0  0  0  0
    6.5702  -11.5745   24.9341 N   0  0  0  0  0  0  0  0  0  0  0  0
   11.7103  -15.8173   22.9341 C   0  0  1  0  0  0  0  0  0  0  0  0
   12.3024  -16.3204   24.1871 C   0  0  0  0  0  0  0  0  0  0  0  0
   11.3182  -17.1767   24.9236 C   0  0  0  0  0  0  0  0  0  0  0  0
   11.9225  -17.8195   26.1180 C   0  0  0  0  0  0  0  0  0  0  0  0
   10.9267  -18.7614   26.7743 C   0  0  0  0  0  0  0  0  0  0  0  0
   11.6784  -19.3824   27.9616 N   0  0  0  0  0  0  0  0  0  0  0  0
   10.7626  -20.2964   28.6035 C   0  0  0  0  0  0  0  0  0  0  0  0
   13.5648  -16.9829   23.8336 O   0  0  0  0  0  0  0  0  0  0  0  0
   13.5601  -18.2550   23.2975 O   0  0  0  0  0  0  0  0  0  0  0  0
  2  1  1  0
  3  2  2  0
  4  5  1  0
  4  2  1  0
  5  6  1  1
  7  5  1  0
  7  8  2  0
 10  9  1  0
 11 10  2  0
 12 10  1  0
 13 12  1  0
 14 13  1  0
 15 14  1  0
 16 15  1  1
 16 17  1  0
 17  7  1  0
 18 16  1  0
 19 18  2  0
 20 18  1  0
 21 20  1  0
 21 27  1  0
 21 22  1  1
 23 24  1  0
 23 22  1  0
 24 25  1  0
 25 26  1  0
 27 28  1  0
 29 27  2  0
M  END
$$$$
