NRK.pdb
     RDKit          3D

 29 28  0  0  1  0  0  0  0  0999 V2000
   15.2484  -15.3849   17.7512 N   0  0  0  0  0  0  0  0  0  0  0  0
   14.8047  -14.1000   18.2628 C   0  0  0  0  0  0  0  0  0  0  0  0
   15.2848  -13.1086   17.6755 O   0  0  0  0  0  0  0  0  0  0  0  0
   13.8592  -14.0729   19.3913 C   0  0  0  0  0  0  0  0  0  0  0  0
   13.5412  -15.4332   19.9530 C   0  0  2  0  0  0  0  0  0  0  0  0
   12.6634  -16.1211   18.9848 N   0  0  0  0  0  0  0  0  0  0  0  0
   12.7266  -15.2460   21.1960 C   0  0  0  0  0  0  0  0  0  0  0  0
   13.3163  -14.9066   22.2438 O   0  0  0  0  0  0  0  0  0  0  0  0
    8.1380  -12.0280   18.8546 N   0  0  0  0  0  0  0  0  0  0  0  0
    7.8721  -13.3919   18.5730 C   0  0  0  0  0  0  0  0  0  0  0  0
    8.0688  -13.8785   17.3939 N   0  0  0  0  0  0  0  0  0  0  0  0
    7.3767  -14.2662   19.5950 N   0  0  0  0  0  0  0  0  0  0  0  0
    7.3446  -13.8441   20.9813 C   0  0  0  0  0  0  0  0  0  0  0  0
    8.7243  -13.8669   21.5996 C   0  0  0  0  0  0  0  0  0  0  0  0
    9.0449  -15.2640   22.0805 C   0  0  0  0  0  0  0  0  0  0  0  0
   10.5230  -15.4346   22.3553 C   0  0  2  0  0  0  0  0  0  0  0  0
   11.3108  -15.4542   21.1683 N   0  0  0  0  0  0  0  0  0  0  0  0
   10.6529  -16.7217   23.1322 C   0  0  0  0  0  0  0  0  0  0  0  0
   10.7289  -17.8234   22.5332 O   0  0  0  0  0  0  0  0  0  0  0  0
    7.8658  -14.8847   17.2428 N   0  0  0  0  0  0  0  0  0  0  0  0
   10.6934  -16.7356   24.5456 C   0  0  1  0  0  0  0  0  0  0  0  0
   10.8300  -18.0129   25.2690 C   0  0  0  0  0  0  0  0  0  0  0  0
   12.1185  -18.6849   24.9048 C   0  0  0  0  0  0  0  0  0  0  0  0
   12.0398  -19.3652   23.5873 C   0  0  0  0  0  0  0  0  0  0  0  0
   13.3616  -20.0390   23.2584 C   0  0  0  0  0  0  0  0  0  0  0  0
   13.1198  -20.7810   21.9350 N   0  0  0  0  0  0  0  0  0  0  0  0
   14.3786  -21.3791   21.5558 C   0  0  0  0  0  0  0  0  0  0  0  0
   10.6603  -17.7208   26.6984 O   0  0  0  0  0  0  0  0  0  0  0  0
   10.4646  -16.4236   27.1281 O   0  0  0  0  0  0  0  0  0  0  0  0
  2  1  1  0
  3  2  2  0
  4  5  1  0
  4  2  1  0
  5  6  1  6
  7  5  1  0
  7  8  2  0
 10  9  1  0
 11 10  2  0
 12 10  1  0
 13 12  1  0
 14 13  1  0
 15 14  1  0
 16 15  1  6
 16 17  1  0
 17  7  1  0
 18 16  1  0
 19 18  2  0
 20 18  1  0
 21 20  1  0
 21 27  1  0
 21 22  1  1
 23 24  1  0
 23 22  1  0
 24 25  1  0
 25 26  1  0
 27 28  1  0
 29 27  2  0
M  END
$$$$
