VWV.pdb
     RDKit          3D

 29 30  0  0  1  0  0  0  0  0999 V2000
   26.3315  -18.0050  -15.2396 C   0  0  0  0  0  0  0  0  0  0  0  0
   27.7612  -18.4214  -15.1224 C   0  0  1  0  0  0  0  0  0  0  0  0
   28.5834  -17.1295  -15.3528 C   0  0  0  0  0  0  0  0  0  0  0  0
   28.1974  -18.9344  -13.7940 C   0  0  2  0  0  0  0  0  0  0  0  0
   29.6185  -19.3131  -13.9700 N   0  0  0  0  0  0  0  0  0  0  0  0
   27.5084  -20.1113  -13.2741 C   0  0  0  0  0  0  0  0  0  0  0  0
   27.8321  -21.2787  -13.7186 O   0  0  0  0  0  0  0  0  0  0  0  0
   26.4845  -20.1602  -12.3006 N   0  0  0  0  0  0  0  0  0  0  0  0
   25.7921  -21.3089  -11.8090 C   0  0  1  0  0  0  0  0  0  0  0  0
   25.3467  -21.0571  -10.3944 C   0  0  0  0  0  0  0  0  0  0  0  0
   26.3740  -20.5107   -9.5082 C   0  0  0  0  0  0  0  0  0  0  0  0
   26.1998  -19.5374   -8.5582 C   0  0  0  0  0  0  0  0  0  0  0  0
   27.3918  -19.3323   -7.9503 N   0  0  0  0  0  0  0  0  0  0  0  0
   28.3274  -20.1513   -8.4875 C   0  0  0  0  0  0  0  0  0  0  0  0
   29.6654  -20.3648   -8.2626 C   0  0  0  0  0  0  0  0  0  0  0  0
   30.4071  -21.3048   -8.9883 C   0  0  0  0  0  0  0  0  0  0  0  0
   29.7826  -22.0430   -9.9595 C   0  0  0  0  0  0  0  0  0  0  0  0
   28.4449  -21.8291  -10.1834 C   0  0  0  0  0  0  0  0  0  0  0  0
   27.6935  -20.9092   -9.4829 C   0  0  0  0  0  0  0  0  0  0  0  0
   24.5590  -21.6520  -12.5887 C   0  0  0  0  0  0  0  0  0  0  0  0
   23.8850  -20.6729  -13.0456 O   0  0  0  0  0  0  0  0  0  0  0  0
   24.6614  -24.6969  -15.1237 C   0  0  0  0  0  0  0  0  0  0  0  0
   23.2957  -24.5722  -14.4909 C   0  0  2  0  0  0  0  0  0  0  0  0
   22.2099  -24.8076  -15.5205 C   0  0  0  0  0  0  0  0  0  0  0  0
   23.1067  -23.2566  -13.8134 C   0  0  2  0  0  0  0  0  0  0  0  0
   24.1092  -22.9527  -12.8407 N   0  0  0  0  0  0  0  0  0  0  0  0
   21.7266  -23.2231  -13.2380 C   0  0  0  0  0  0  0  0  0  0  0  0
   21.5383  -23.4681  -12.0115 O   0  0  0  0  0  0  0  0  0  0  0  0
   20.6424  -22.9218  -14.0486 O   0  0  0  0  0  0  0  0  0  0  0  0
  2  1  1  1
  2  4  1  0
  3  2  1  0
  4  5  1  6
  6  4  1  0
  6  7  2  0
  8  6  1  0
  9  8  1  0
  9 10  1  1
 11 10  1  0
 11 19  1  0
 12 13  1  0
 12 11  2  0
 13 14  1  0
 14 15  1  0
 14 19  2  0
 15 16  2  0
 16 17  1  0
 18 17  2  0
 19 18  1  0
 20  9  1  0
 21 20  2  0
 23 22  1  6
 23 25  1  0
 24 23  1  0
 25 27  1  0
 25 26  1  1
 26 20  1  0
 27 29  1  0
 28 27  2  0
M  END
$$$$
