VWV.pdb
     RDKit          3D

 29 30  0  0  1  0  0  0  0  0999 V2000
   28.9632  -17.6642  -17.9174 C   0  0  0  0  0  0  0  0  0  0  0  0
   28.5847  -18.6645  -16.8747 C   0  0  1  0  0  0  0  0  0  0  0  0
   29.1174  -18.0858  -15.5408 C   0  0  0  0  0  0  0  0  0  0  0  0
   27.1271  -18.8790  -16.6572 C   0  0  2  0  0  0  0  0  0  0  0  0
   26.5542  -17.5231  -16.4915 N   0  0  0  0  0  0  0  0  0  0  0  0
   26.7339  -19.6496  -15.4817 C   0  0  0  0  0  0  0  0  0  0  0  0
   26.8872  -20.9308  -15.4880 O   0  0  0  0  0  0  0  0  0  0  0  0
   26.1818  -19.1696  -14.2721 N   0  0  0  0  0  0  0  0  0  0  0  0
   25.7042  -19.9292  -13.1605 C   0  0  1  0  0  0  0  0  0  0  0  0
   26.1768  -19.2948  -11.8811 C   0  0  0  0  0  0  0  0  0  0  0  0
   27.0116  -20.1486  -11.0364 C   0  0  0  0  0  0  0  0  0  0  0  0
   27.9688  -21.0331  -11.4622 C   0  0  0  0  0  0  0  0  0  0  0  0
   28.5177  -21.6099  -10.3674 N   0  0  0  0  0  0  0  0  0  0  0  0
   27.9355  -21.1162   -9.2484 C   0  0  0  0  0  0  0  0  0  0  0  0
   28.0948  -21.3351   -7.9019 C   0  0  0  0  0  0  0  0  0  0  0  0
   27.3339  -20.6629   -6.9378 C   0  0  0  0  0  0  0  0  0  0  0  0
   26.3945  -19.7515   -7.3443 C   0  0  0  0  0  0  0  0  0  0  0  0
   26.2361  -19.5332   -8.6907 C   0  0  0  0  0  0  0  0  0  0  0  0
   26.9725  -20.1828   -9.6588 C   0  0  0  0  0  0  0  0  0  0  0  0
   24.2097  -20.0004  -13.0736 C   0  0  0  0  0  0  0  0  0  0  0  0
   23.5878  -18.8892  -13.0600 O   0  0  0  0  0  0  0  0  0  0  0  0
   19.9883  -22.1701  -14.1030 C   0  0  0  0  0  0  0  0  0  0  0  0
   21.4889  -22.2685  -13.9629 C   0  0  2  0  0  0  0  0  0  0  0  0
   21.8883  -23.6496  -13.4861 C   0  0  0  0  0  0  0  0  0  0  0  0
   22.0406  -21.2166  -13.0604 C   0  0  2  0  0  0  0  0  0  0  0  0
   23.4688  -21.1854  -13.0065 N   0  0  0  0  0  0  0  0  0  0  0  0
   21.4238  -21.3918  -11.7092 C   0  0  0  0  0  0  0  0  0  0  0  0
   22.1152  -21.8198  -10.7405 O   0  0  0  0  0  0  0  0  0  0  0  0
   20.0860  -21.0846  -11.5105 O   0  0  0  0  0  0  0  0  0  0  0  0
  2  1  1  6
  2  4  1  0
  3  2  1  0
  4  5  1  1
  6  4  1  0
  6  7  2  0
  8  6  1  0
  9  8  1  0
  9 10  1  1
 11 10  1  0
 11 19  1  0
 12 13  1  0
 12 11  2  0
 13 14  1  0
 14 15  1  0
 14 19  2  0
 15 16  2  0
 16 17  1  0
 18 17  2  0
 19 18  1  0
 20  9  1  0
 21 20  2  0
 23 22  1  1
 23 25  1  0
 24 23  1  0
 25 27  1  0
 25 26  1  1
 26 20  1  0
 27 29  1  0
 28 27  2  0
M  END
$$$$
