VWV.pdb
     RDKit          3D

 29 30  0  0  1  0  0  0  0  0999 V2000
   28.8706  -20.7521  -18.1886 C   0  0  0  0  0  0  0  0  0  0  0  0
   27.9065  -20.8573  -17.0526 C   0  0  1  0  0  0  0  0  0  0  0  0
   26.8143  -21.8442  -17.5335 C   0  0  0  0  0  0  0  0  0  0  0  0
   28.4324  -21.4380  -15.7861 C   0  0  2  0  0  0  0  0  0  0  0  0
   28.9611  -22.7707  -16.1584 N   0  0  0  0  0  0  0  0  0  0  0  0
   27.4781  -21.6506  -14.7024 C   0  0  0  0  0  0  0  0  0  0  0  0
   26.8460  -22.7732  -14.6304 O   0  0  0  0  0  0  0  0  0  0  0  0
   27.1289  -20.7575  -13.6637 N   0  0  0  0  0  0  0  0  0  0  0  0
   26.1565  -20.9430  -12.6338 C   0  0  1  0  0  0  0  0  0  0  0  0
   26.4996  -20.0688  -11.4586 C   0  0  0  0  0  0  0  0  0  0  0  0
   27.6113  -20.5437  -10.6354 C   0  0  0  0  0  0  0  0  0  0  0  0
   28.7675  -21.1291  -11.0832 C   0  0  0  0  0  0  0  0  0  0  0  0
   29.5377  -21.4055  -10.0049 N   0  0  0  0  0  0  0  0  0  0  0  0
   28.9034  -21.0110   -8.8750 C   0  0  0  0  0  0  0  0  0  0  0  0
   29.2088  -21.0439   -7.5363 C   0  0  0  0  0  0  0  0  0  0  0  0
   28.3394  -20.5494   -6.5565 C   0  0  0  0  0  0  0  0  0  0  0  0
   27.1385  -20.0109   -6.9390 C   0  0  0  0  0  0  0  0  0  0  0  0
   26.8342  -19.9783   -8.2776 C   0  0  0  0  0  0  0  0  0  0  0  0
   27.6730  -20.4593   -9.2608 C   0  0  0  0  0  0  0  0  0  0  0  0
   24.7626  -20.5764  -13.0443 C   0  0  0  0  0  0  0  0  0  0  0  0
   24.5976  -19.4027  -13.5101 O   0  0  0  0  0  0  0  0  0  0  0  0
   22.7666  -22.1088  -15.6482 C   0  0  0  0  0  0  0  0  0  0  0  0
   21.8187  -21.9710  -14.4804 C   0  0  2  0  0  0  0  0  0  0  0  0
   20.4580  -21.5028  -14.9533 C   0  0  0  0  0  0  0  0  0  0  0  0
   22.3537  -21.0630  -13.4247 C   0  0  2  0  0  0  0  0  0  0  0  0
   23.6529  -21.4234  -12.9497 N   0  0  0  0  0  0  0  0  0  0  0  0
   21.3458  -20.9856  -12.3223 C   0  0  0  0  0  0  0  0  0  0  0  0
   21.4406  -21.7434  -11.3141 O   0  0  0  0  0  0  0  0  0  0  0  0
   20.2988  -20.0795  -12.3999 O   0  0  0  0  0  0  0  0  0  0  0  0
  2  1  1  6
  2  4  1  0
  3  2  1  0
  4  5  1  6
  6  4  1  0
  6  7  2  0
  8  6  1  0
  9  8  1  0
  9 10  1  1
 11 10  1  0
 11 19  1  0
 12 13  1  0
 12 11  2  0
 13 14  1  0
 14 15  1  0
 14 19  2  0
 15 16  2  0
 16 17  1  0
 18 17  2  0
 19 18  1  0
 20  9  1  0
 21 20  2  0
 23 22  1  6
 23 25  1  0
 24 23  1  0
 25 27  1  0
 25 26  1  1
 26 20  1  0
 27 29  1  0
 28 27  2  0
M  END
$$$$
