VWV.pdb
     RDKit          3D

 29 30  0  0  1  0  0  0  0  0999 V2000
   28.7563  -20.8425  -14.8170 C   0  0  0  0  0  0  0  0  0  0  0  0
   28.2573  -21.3747  -13.5136 C   0  0  1  0  0  0  0  0  0  0  0  0
   29.1509  -20.7157  -12.4341 C   0  0  0  0  0  0  0  0  0  0  0  0
   26.8604  -21.0174  -13.1407 C   0  0  2  0  0  0  0  0  0  0  0  0
   26.7813  -19.5459  -13.2907 N   0  0  0  0  0  0  0  0  0  0  0  0
   26.4330  -21.3263  -11.7798 C   0  0  0  0  0  0  0  0  0  0  0  0
   26.3321  -22.5601  -11.4157 O   0  0  0  0  0  0  0  0  0  0  0  0
   26.0975  -20.4211  -10.7472 N   0  0  0  0  0  0  0  0  0  0  0  0
   25.5763  -20.7190   -9.4509 C   0  0  1  0  0  0  0  0  0  0  0  0
   26.1551  -19.7604   -8.4465 C   0  0  0  0  0  0  0  0  0  0  0  0
   27.4233  -20.1779   -7.8494 C   0  0  0  0  0  0  0  0  0  0  0  0
   28.4140  -20.9032   -8.4598 C   0  0  0  0  0  0  0  0  0  0  0  0
   29.4210  -21.0624   -7.5692 N   0  0  0  0  0  0  0  0  0  0  0  0
   29.1003  -20.4561   -6.4012 C   0  0  0  0  0  0  0  0  0  0  0  0
   29.7292  -20.3033   -5.1898 C   0  0  0  0  0  0  0  0  0  0  0  0
   29.1464  -19.6054   -4.1251 C   0  0  0  0  0  0  0  0  0  0  0  0
   27.9038  -19.0512   -4.2899 C   0  0  0  0  0  0  0  0  0  0  0  0
   27.2759  -19.2043   -5.5014 C   0  0  0  0  0  0  0  0  0  0  0  0
   27.8287  -19.8873   -6.5642 C   0  0  0  0  0  0  0  0  0  0  0  0
   24.0864  -20.5895   -9.3533 C   0  0  0  0  0  0  0  0  0  0  0  0
   23.6105  -19.4126   -9.4554 O   0  0  0  0  0  0  0  0  0  0  0  0
   21.6152  -21.4821  -11.6029 C   0  0  0  0  0  0  0  0  0  0  0  0
   21.0725  -22.0424  -10.3095 C   0  0  2  0  0  0  0  0  0  0  0  0
   19.5817  -21.7949  -10.2077 C   0  0  0  0  0  0  0  0  0  0  0  0
   21.7827  -21.4959   -9.1170 C   0  0  2  0  0  0  0  0  0  0  0  0
   23.2026  -21.6567   -9.1598 N   0  0  0  0  0  0  0  0  0  0  0  0
   21.1773  -22.1073   -7.8936 C   0  0  0  0  0  0  0  0  0  0  0  0
   19.9602  -21.9076   -7.6135 O   0  0  0  0  0  0  0  0  0  0  0  0
   21.9497  -22.8992   -7.0572 O   0  0  0  0  0  0  0  0  0  0  0  0
  2  1  1  6
  2  4  1  0
  3  2  1  0
  4  5  1  1
  6  4  1  0
  6  7  2  0
  8  6  1  0
  9  8  1  0
  9 10  1  1
 11 10  1  0
 11 19  1  0
 12 13  1  0
 12 11  2  0
 13 14  1  0
 14 15  1  0
 14 19  2  0
 15 16  2  0
 16 17  1  0
 18 17  2  0
 19 18  1  0
 20  9  1  0
 21 20  2  0
 23 22  1  6
 23 25  1  0
 24 23  1  0
 25 27  1  0
 25 26  1  6
 26 20  1  0
 27 29  1  0
 28 27  2  0
M  END
$$$$
