VWV.pdb
     RDKit          3D

 29 30  0  0  1  0  0  0  0  0999 V2000
   26.8672  -18.6739  -15.2109 C   0  0  0  0  0  0  0  0  0  0  0  0
   27.6030  -19.9112  -15.6095 C   0  0  1  0  0  0  0  0  0  0  0  0
   28.6841  -19.4386  -16.6124 C   0  0  0  0  0  0  0  0  0  0  0  0
   28.3479  -20.6181  -14.5310 C   0  0  2  0  0  0  0  0  0  0  0  0
   28.8224  -21.8789  -15.1469 N   0  0  0  0  0  0  0  0  0  0  0  0
   27.5985  -20.9890  -13.3347 C   0  0  0  0  0  0  0  0  0  0  0  0
   26.6958  -21.9075  -13.4161 O   0  0  0  0  0  0  0  0  0  0  0  0
   27.7266  -20.4606  -12.0298 N   0  0  0  0  0  0  0  0  0  0  0  0
   26.9013  -20.7163  -10.8921 C   0  0  1  0  0  0  0  0  0  0  0  0
   27.4614  -19.9965   -9.6959 C   0  0  0  0  0  0  0  0  0  0  0  0
   26.8403  -20.3411   -8.4173 C   0  0  0  0  0  0  0  0  0  0  0  0
   25.6473  -20.9928   -8.2380 C   0  0  0  0  0  0  0  0  0  0  0  0
   25.4436  -21.1272   -6.9065 N   0  0  0  0  0  0  0  0  0  0  0  0
   26.4779  -20.5773   -6.2265 C   0  0  0  0  0  0  0  0  0  0  0  0
   26.7895  -20.4332   -4.8966 C   0  0  0  0  0  0  0  0  0  0  0  0
   27.9636  -19.8038   -4.4655 C   0  0  0  0  0  0  0  0  0  0  0  0
   28.8391  -19.3117   -5.3980 C   0  0  0  0  0  0  0  0  0  0  0  0
   28.5268  -19.4566   -6.7273 C   0  0  0  0  0  0  0  0  0  0  0  0
   27.3772  -20.0715   -7.1765 C   0  0  0  0  0  0  0  0  0  0  0  0
   25.4883  -20.2428  -11.0507 C   0  0  0  0  0  0  0  0  0  0  0  0
   25.3260  -18.9952  -11.2484 O   0  0  0  0  0  0  0  0  0  0  0  0
   23.5636  -21.2979  -13.8171 C   0  0  0  0  0  0  0  0  0  0  0  0
   22.5938  -21.3983  -12.6636 C   0  0  2  0  0  0  0  0  0  0  0  0
   21.2196  -20.9179  -13.0819 C   0  0  0  0  0  0  0  0  0  0  0  0
   23.0706  -20.6563  -11.4605 C   0  0  2  0  0  0  0  0  0  0  0  0
   24.3586  -21.0664  -10.9954 N   0  0  0  0  0  0  0  0  0  0  0  0
   22.0214  -20.7648  -10.4001 C   0  0  0  0  0  0  0  0  0  0  0  0
   22.1442  -21.6039   -9.4617 O   0  0  0  0  0  0  0  0  0  0  0  0
   20.9049  -19.9433  -10.4401 O   0  0  0  0  0  0  0  0  0  0  0  0
  2  1  1  1
  2  4  1  0
  3  2  1  0
  4  5  1  6
  6  4  1  0
  6  7  2  0
  8  6  1  0
  9  8  1  0
  9 10  1  1
 11 10  1  0
 11 19  1  0
 12 13  1  0
 12 11  2  0
 13 14  1  0
 14 15  1  0
 14 19  2  0
 15 16  2  0
 16 17  1  0
 18 17  2  0
 19 18  1  0
 20  9  1  0
 21 20  2  0
 23 22  1  6
 23 25  1  0
 24 23  1  0
 25 27  1  0
 25 26  1  1
 26 20  1  0
 27 29  1  0
 28 27  2  0
M  END
$$$$
