MDL.pdb
     RDKit          3D

 25 24  0  0  1  0  0  0  0  0999 V2000
    8.5652  -11.6445   19.2506 C   0  0  0  0  0  0  0  0  0  0  0  0
    7.8168  -13.0796   18.4930 S   0  0  0  0  0  0  0  0  0  0  0  0
    6.6520  -13.9902   19.4651 C   0  0  0  0  0  0  0  0  0  0  0  0
    7.1388  -14.7172   20.6600 C   0  0  0  0  0  0  0  0  0  0  0  0
    7.5876  -16.1310   20.5035 C   0  0  2  0  0  0  0  0  0  0  0  0
    6.5358  -16.9441   19.9968 N   0  0  0  0  0  0  0  0  0  0  0  0
    8.2857  -16.6753   21.6842 C   0  0  0  0  0  0  0  0  0  0  0  0
    7.6005  -17.1184   22.6743 O   0  0  0  0  0  0  0  0  0  0  0  0
    9.6795  -16.7711   21.8694 N   0  0  0  0  0  0  0  0  0  0  0  0
   10.3218  -17.1678   23.0714 C   0  0  1  0  0  0  0  0  0  0  0  0
   11.7307  -17.6548   22.9639 C   0  0  0  0  0  0  0  0  0  0  0  0
   12.2459  -18.0745   24.2804 C   0  0  0  0  0  0  0  0  0  0  0  0
   11.7270  -18.9474   25.0124 O   0  0  0  0  0  0  0  0  0  0  0  0
   10.1229  -16.1405   24.1004 C   0  0  0  0  0  0  0  0  0  0  0  0
   10.9181  -15.1720   24.1800 O   0  0  0  0  0  0  0  0  0  0  0  0
   13.3946  -17.4697   24.7691 O   0  0  0  0  0  0  0  0  0  0  0  0
    6.2436  -12.5670   26.8596 C   0  0  0  0  0  0  0  0  0  0  0  0
    7.5504  -13.3372   27.0671 C   0  0  2  0  0  0  0  0  0  0  0  0
    8.6420  -12.3099   27.1770 C   0  0  0  0  0  0  0  0  0  0  0  0
    7.7682  -14.3320   25.9839 C   0  0  0  0  0  0  0  0  0  0  0  0
    8.9556  -15.2234   26.1497 C   0  0  2  0  0  0  0  0  0  0  0  0
    9.0560  -16.1587   25.0526 N   0  0  0  0  0  0  0  0  0  0  0  0
    9.0712  -15.8630   27.4758 C   0  0  0  0  0  0  0  0  0  0  0  0
    9.6426  -15.3097   28.4451 O   0  0  0  0  0  0  0  0  0  0  0  0
    8.5472  -17.1381   27.7374 O   0  0  0  0  0  0  0  0  0  0  0  0
  2  1  1  0
  2  3  1  0
  4  3  1  0
  4  5  1  0
  5  7  1  0
  5  6  1  1
  7  8  2  0
  9 10  1  0
  9  7  1  0
 10 11  1  6
 12 11  1  0
 13 12  2  0
 14 15  2  0
 14 10  1  0
 16 12  1  0
 18 17  1  6
 18 19  1  0
 20 18  1  0
 21 22  1  0
 21 20  1  1
 22 14  1  0
 23 21  1  0
 24 23  2  0
 25 23  1  0
M  END
$$$$
