MDL.pdb
     RDKit          3D

 25 24  0  0  1  0  0  0  0  0999 V2000
    8.0212  -11.1824   19.2635 C   0  0  0  0  0  0  0  0  0  0  0  0
    7.6838  -12.8982   18.8945 S   0  0  0  0  0  0  0  0  0  0  0  0
    7.5811  -14.0131   20.2646 C   0  0  0  0  0  0  0  0  0  0  0  0
    7.1734  -15.4141   20.0112 C   0  0  0  0  0  0  0  0  0  0  0  0
    7.2035  -16.3839   21.1439 C   0  0  2  0  0  0  0  0  0  0  0  0
    6.3456  -15.9608   22.1971 N   0  0  0  0  0  0  0  0  0  0  0  0
    8.5624  -16.7771   21.5638 C   0  0  0  0  0  0  0  0  0  0  0  0
    8.9768  -17.9680   21.3268 O   0  0  0  0  0  0  0  0  0  0  0  0
    9.5066  -15.9684   22.2276 N   0  0  0  0  0  0  0  0  0  0  0  0
   10.5541  -16.4442   23.0590 C   0  0  1  0  0  0  0  0  0  0  0  0
   11.9549  -16.1699   22.6165 C   0  0  0  0  0  0  0  0  0  0  0  0
   12.2074  -16.7398   21.2800 C   0  0  0  0  0  0  0  0  0  0  0  0
   12.1060  -16.1156   20.1996 O   0  0  0  0  0  0  0  0  0  0  0  0
   10.2857  -16.0733   24.4532 C   0  0  0  0  0  0  0  0  0  0  0  0
   11.2260  -15.6870   25.1903 O   0  0  0  0  0  0  0  0  0  0  0  0
   12.5885  -18.0701   21.1849 O   0  0  0  0  0  0  0  0  0  0  0  0
    6.0710  -13.0598   26.6354 C   0  0  0  0  0  0  0  0  0  0  0  0
    7.4290  -13.6879   26.3110 C   0  0  2  0  0  0  0  0  0  0  0  0
    7.7042  -13.3931   24.8630 C   0  0  0  0  0  0  0  0  0  0  0  0
    7.4464  -15.1370   26.6430 C   0  0  0  0  0  0  0  0  0  0  0  0
    8.7559  -15.8310   26.4543 C   0  0  2  0  0  0  0  0  0  0  0  0
    8.9905  -16.1199   25.0579 N   0  0  0  0  0  0  0  0  0  0  0  0
    8.9742  -16.9949   27.3368 C   0  0  0  0  0  0  0  0  0  0  0  0
    8.8278  -18.1769   26.9447 O   0  0  0  0  0  0  0  0  0  0  0  0
    9.3604  -16.8521   28.6783 O   0  0  0  0  0  0  0  0  0  0  0  0
  2  1  1  0
  2  3  1  0
  4  3  1  0
  4  5  1  0
  5  7  1  0
  5  6  1  1
  7  8  2  0
  9 10  1  0
  9  7  1  0
 10 11  1  6
 12 11  1  0
 13 12  2  0
 14 15  2  0
 14 10  1  0
 16 12  1  0
 18 17  1  6
 18 19  1  0
 20 18  1  0
 21 22  1  0
 21 20  1  6
 22 14  1  0
 23 21  1  0
 24 23  2  0
 25 23  1  0
M  END
$$$$
