MDL.pdb
     RDKit          3D

 25 24  0  0  1  0  0  0  0  0999 V2000
    8.9924  -11.7997   19.4583 C   0  0  0  0  0  0  0  0  0  0  0  0
    7.3408  -12.4711   19.3347 S   0  0  0  0  0  0  0  0  0  0  0  0
    7.0167  -13.9808   20.1988 C   0  0  0  0  0  0  0  0  0  0  0  0
    8.0554  -15.0364   20.1983 C   0  0  0  0  0  0  0  0  0  0  0  0
    7.7762  -16.3150   20.9137 C   0  0  2  0  0  0  0  0  0  0  0  0
    7.0538  -16.0764   22.1159 N   0  0  0  0  0  0  0  0  0  0  0  0
    8.9523  -17.1951   21.0549 C   0  0  0  0  0  0  0  0  0  0  0  0
    9.5338  -17.6456   20.0037 O   0  0  0  0  0  0  0  0  0  0  0  0
    9.5433  -17.6252   22.2598 N   0  0  0  0  0  0  0  0  0  0  0  0
   10.7307  -17.0928   22.8268 C   0  0  1  0  0  0  0  0  0  0  0  0
   11.7376  -16.5157   21.8852 C   0  0  0  0  0  0  0  0  0  0  0  0
   12.8899  -17.4219   21.7243 C   0  0  0  0  0  0  0  0  0  0  0  0
   14.0829  -17.1177   21.9509 O   0  0  0  0  0  0  0  0  0  0  0  0
   10.3901  -16.2111   23.9494 C   0  0  0  0  0  0  0  0  0  0  0  0
   11.2813  -15.5071   24.4851 O   0  0  0  0  0  0  0  0  0  0  0  0
   12.6609  -18.7187   21.2887 O   0  0  0  0  0  0  0  0  0  0  0  0
    5.7650  -12.9191   26.2477 C   0  0  0  0  0  0  0  0  0  0  0  0
    7.1676  -13.4902   26.4721 C   0  0  2  0  0  0  0  0  0  0  0  0
    8.0954  -12.3144   26.5982 C   0  0  0  0  0  0  0  0  0  0  0  0
    7.5434  -14.4388   25.3906 C   0  0  0  0  0  0  0  0  0  0  0  0
    8.7677  -15.2575   25.6410 C   0  0  2  0  0  0  0  0  0  0  0  0
    9.0756  -16.0881   24.4992 N   0  0  0  0  0  0  0  0  0  0  0  0
    8.7689  -15.9971   26.9194 C   0  0  0  0  0  0  0  0  0  0  0  0
    8.2203  -17.1167   27.0526 O   0  0  0  0  0  0  0  0  0  0  0  0
    9.3863  -15.4912   28.0735 O   0  0  0  0  0  0  0  0  0  0  0  0
  2  1  1  0
  2  3  1  0
  4  3  1  0
  4  5  1  0
  5  7  1  0
  5  6  1  1
  7  8  2  0
  9 10  1  0
  9  7  1  0
 10 11  1  6
 12 11  1  0
 13 12  2  0
 14 15  2  0
 14 10  1  0
 16 12  1  0
 18 17  1  6
 18 19  1  0
 20 18  1  0
 21 22  1  0
 21 20  1  6
 22 14  1  0
 23 21  1  0
 24 23  2  0
 25 23  1  0
M  END
$$$$
