MDL.pdb
     RDKit          3D

 25 24  0  0  1  0  0  0  0  0999 V2000
    7.3510  -11.7308   18.1939 C   0  0  0  0  0  0  0  0  0  0  0  0
    7.9216  -13.0427   19.2649 S   0  0  0  0  0  0  0  0  0  0  0  0
    6.6910  -14.0964   19.9763 C   0  0  0  0  0  0  0  0  0  0  0  0
    7.1242  -15.1759   20.8930 C   0  0  0  0  0  0  0  0  0  0  0  0
    8.5776  -15.3156   21.1973 C   0  0  2  0  0  0  0  0  0  0  0  0
    9.2633  -15.9439   20.1207 N   0  0  0  0  0  0  0  0  0  0  0  0
    8.8620  -15.8765   22.5323 C   0  0  0  0  0  0  0  0  0  0  0  0
    7.9829  -15.7731   23.4611 O   0  0  0  0  0  0  0  0  0  0  0  0
   10.0376  -16.5419   22.9340 N   0  0  0  0  0  0  0  0  0  0  0  0
   10.3019  -17.0218   24.2435 C   0  0  1  0  0  0  0  0  0  0  0  0
   11.4215  -17.9993   24.3992 C   0  0  0  0  0  0  0  0  0  0  0  0
   11.3649  -19.0376   23.3535 C   0  0  0  0  0  0  0  0  0  0  0  0
   10.4271  -19.8518   23.1965 O   0  0  0  0  0  0  0  0  0  0  0  0
   10.3602  -15.8940   25.1807 C   0  0  0  0  0  0  0  0  0  0  0  0
   11.4393  -15.2738   25.3474 O   0  0  0  0  0  0  0  0  0  0  0  0
   12.4216  -19.1414   22.4610 O   0  0  0  0  0  0  0  0  0  0  0  0
    6.6989  -11.8595   26.8800 C   0  0  0  0  0  0  0  0  0  0  0  0
    8.0696  -12.5148   26.6910 C   0  0  2  0  0  0  0  0  0  0  0  0
    8.3057  -12.5980   25.2090 C   0  0  0  0  0  0  0  0  0  0  0  0
    8.1403  -13.8277   27.3853 C   0  0  0  0  0  0  0  0  0  0  0  0
    9.3781  -14.6271   27.1386 C   0  0  2  0  0  0  0  0  0  0  0  0
    9.2438  -15.4314   25.9455 N   0  0  0  0  0  0  0  0  0  0  0  0
    9.8675  -15.3889   28.3053 C   0  0  0  0  0  0  0  0  0  0  0  0
    9.6562  -16.6167   28.4475 O   0  0  0  0  0  0  0  0  0  0  0  0
   10.6035  -14.7844   29.3358 O   0  0  0  0  0  0  0  0  0  0  0  0
  2  1  1  0
  2  3  1  0
  4  3  1  0
  4  5  1  0
  5  7  1  0
  5  6  1  6
  7  8  2  0
  9 10  1  0
  9  7  1  0
 10 11  1  6
 12 11  1  0
 13 12  2  0
 14 15  2  0
 14 10  1  0
 16 12  1  0
 18 17  1  6
 18 19  1  0
 20 18  1  0
 21 22  1  0
 21 20  1  1
 22 14  1  0
 23 21  1  0
 24 23  2  0
 25 23  1  0
M  END
$$$$
