MDL.pdb
     RDKit          3D

 25 24  0  0  1  0  0  0  0  0999 V2000
    7.8768  -11.3748   20.9692 C   0  0  0  0  0  0  0  0  0  0  0  0
    6.5910  -12.4654   20.3766 S   0  0  0  0  0  0  0  0  0  0  0  0
    6.9637  -14.1940   20.3160 C   0  0  0  0  0  0  0  0  0  0  0  0
    7.7826  -14.7824   21.4005 C   0  0  0  0  0  0  0  0  0  0  0  0
    8.0972  -16.2394   21.3492 C   0  0  2  0  0  0  0  0  0  0  0  0
    6.9125  -17.0087   21.1795 N   0  0  0  0  0  0  0  0  0  0  0  0
    8.9931  -16.7003   22.4275 C   0  0  0  0  0  0  0  0  0  0  0  0
    8.5236  -17.4374   23.3668 O   0  0  0  0  0  0  0  0  0  0  0  0
   10.3668  -16.4153   22.5615 N   0  0  0  0  0  0  0  0  0  0  0  0
   11.1858  -16.8179   23.6487 C   0  0  1  0  0  0  0  0  0  0  0  0
   12.6518  -16.9461   23.3881 C   0  0  0  0  0  0  0  0  0  0  0  0
   12.9020  -17.6270   22.1041 C   0  0  0  0  0  0  0  0  0  0  0  0
   12.5139  -18.7809   21.8128 O   0  0  0  0  0  0  0  0  0  0  0  0
   10.8588  -16.0195   24.8359 C   0  0  0  0  0  0  0  0  0  0  0  0
   11.6678  -15.1528   25.2497 O   0  0  0  0  0  0  0  0  0  0  0  0
   13.6219  -16.9579   21.1254 O   0  0  0  0  0  0  0  0  0  0  0  0
    8.7473  -12.6099   26.2967 C   0  0  0  0  0  0  0  0  0  0  0  0
    7.8466  -13.8145   26.0112 C   0  0  2  0  0  0  0  0  0  0  0  0
    6.4319  -13.3072   26.0282 C   0  0  0  0  0  0  0  0  0  0  0  0
    8.1007  -14.9185   26.9741 C   0  0  0  0  0  0  0  0  0  0  0  0
    9.4460  -15.5619   26.8847 C   0  0  2  0  0  0  0  0  0  0  0  0
    9.6477  -16.1579   25.5837 N   0  0  0  0  0  0  0  0  0  0  0  0
    9.7748  -16.4707   28.0014 C   0  0  0  0  0  0  0  0  0  0  0  0
    9.9308  -16.0662   29.1780 O   0  0  0  0  0  0  0  0  0  0  0  0
    9.9356  -17.8523   27.8165 O   0  0  0  0  0  0  0  0  0  0  0  0
  2  1  1  0
  2  3  1  0
  4  3  1  0
  4  5  1  0
  5  7  1  0
  5  6  1  1
  7  8  2  0
  9 10  1  0
  9  7  1  0
 10 11  1  6
 12 11  1  0
 13 12  2  0
 14 15  2  0
 14 10  1  0
 16 12  1  0
 18 17  1  1
 18 19  1  0
 20 18  1  0
 21 22  1  0
 21 20  1  1
 22 14  1  0
 23 21  1  0
 24 23  2  0
 25 23  1  0
M  END
$$$$
