MDL.pdb
     RDKit          3D

 25 24  0  0  1  0  0  0  0  0999 V2000
    8.3755  -11.7054   19.9189 C   0  0  0  0  0  0  0  0  0  0  0  0
    7.2616  -12.2467   21.2073 S   0  0  0  0  0  0  0  0  0  0  0  0
    7.1935  -13.9836   21.5379 C   0  0  0  0  0  0  0  0  0  0  0  0
    7.3876  -14.9286   20.4142 C   0  0  0  0  0  0  0  0  0  0  0  0
    7.3034  -16.3923   20.6878 C   0  0  2  0  0  0  0  0  0  0  0  0
    5.9514  -16.8352   20.6679 N   0  0  0  0  0  0  0  0  0  0  0  0
    8.0886  -16.8324   21.8572 C   0  0  0  0  0  0  0  0  0  0  0  0
    7.4796  -17.2663   22.8998 O   0  0  0  0  0  0  0  0  0  0  0  0
    9.4927  -16.8330   21.9777 N   0  0  0  0  0  0  0  0  0  0  0  0
   10.2175  -17.2545   23.1231 C   0  0  1  0  0  0  0  0  0  0  0  0
   11.5254  -17.9390   22.8896 C   0  0  0  0  0  0  0  0  0  0  0  0
   12.1276  -18.3751   24.1631 C   0  0  0  0  0  0  0  0  0  0  0  0
   11.7960  -19.3981   24.8039 O   0  0  0  0  0  0  0  0  0  0  0  0
   10.2835  -16.1588   24.0971 C   0  0  0  0  0  0  0  0  0  0  0  0
   11.1990  -15.3032   24.0157 O   0  0  0  0  0  0  0  0  0  0  0  0
   13.1432  -17.6090   24.7158 O   0  0  0  0  0  0  0  0  0  0  0  0
    7.9151  -12.2634   24.4875 C   0  0  0  0  0  0  0  0  0  0  0  0
    7.9184  -13.5462   25.3231 C   0  0  2  0  0  0  0  0  0  0  0  0
    6.7313  -13.4643   26.2413 C   0  0  0  0  0  0  0  0  0  0  0  0
    9.2138  -13.7262   26.0303 C   0  0  0  0  0  0  0  0  0  0  0  0
    9.6091  -15.1390   26.3126 C   0  0  2  0  0  0  0  0  0  0  0  0
    9.3531  -15.9849   25.1691 N   0  0  0  0  0  0  0  0  0  0  0  0
    9.0818  -15.6900   27.5773 C   0  0  0  0  0  0  0  0  0  0  0  0
    9.2472  -15.1218   28.6827 O   0  0  0  0  0  0  0  0  0  0  0  0
    8.3590  -16.8919   27.6236 O   0  0  0  0  0  0  0  0  0  0  0  0
  2  1  1  0
  2  3  1  0
  4  3  1  0
  4  5  1  0
  5  7  1  0
  5  6  1  1
  7  8  2  0
  9 10  1  0
  9  7  1  0
 10 11  1  6
 12 11  1  0
 13 12  2  0
 14 15  2  0
 14 10  1  0
 16 12  1  0
 18 17  1  1
 18 19  1  0
 20 18  1  0
 21 22  1  0
 21 20  1  6
 22 14  1  0
 23 21  1  0
 24 23  2  0
 25 23  1  0
M  END
$$$$
