WKM.pdb
     RDKit          3D

 32 33  0  0  1  0  0  0  0  0999 V2000
    6.0226  -17.6193   23.5762 N   0  0  0  0  0  0  0  0  0  0  0  0
    7.3144  -17.0258   23.3729 C   0  0  1  0  0  0  0  0  0  0  0  0
    7.9401  -16.5342   24.6550 C   0  0  0  0  0  0  0  0  0  0  0  0
    7.1280  -15.5694   25.3915 C   0  0  0  0  0  0  0  0  0  0  0  0
    6.1587  -15.8502   26.3294 C   0  0  0  0  0  0  0  0  0  0  0  0
    5.6697  -14.6704   26.7481 N   0  0  0  0  0  0  0  0  0  0  0  0
    6.2973  -13.6577   26.1068 C   0  0  0  0  0  0  0  0  0  0  0  0
    6.1725  -12.2845   26.1702 C   0  0  0  0  0  0  0  0  0  0  0  0
    6.9363  -11.4280   25.4056 C   0  0  0  0  0  0  0  0  0  0  0  0
    7.8579  -11.9905   24.5479 C   0  0  0  0  0  0  0  0  0  0  0  0
    8.0068  -13.3580   24.4612 C   0  0  0  0  0  0  0  0  0  0  0  0
    7.2236  -14.1998   25.2439 C   0  0  0  0  0  0  0  0  0  0  0  0
    8.2688  -17.9502   22.7387 C   0  0  0  0  0  0  0  0  0  0  0  0
    7.8182  -18.9208   22.0779 O   0  0  0  0  0  0  0  0  0  0  0  0
    9.6883  -17.8371   22.8112 N   0  0  0  0  0  0  0  0  0  0  0  0
   10.4399  -16.8803   22.0519 C   0  0  1  0  0  0  0  0  0  0  0  0
    9.7250  -15.7722   21.4056 C   0  0  0  0  0  0  0  0  0  0  0  0
    9.6334  -15.8444   19.9369 C   0  0  0  0  0  0  0  0  0  0  0  0
    8.3951  -16.4918   19.4127 C   0  0  0  0  0  0  0  0  0  0  0  0
    8.4857  -16.4836   17.8724 C   0  0  0  0  0  0  0  0  0  0  0  0
    7.2472  -17.0851   17.3731 N   0  0  0  0  0  0  0  0  0  0  0  0
   11.4765  -16.3447   23.0388 C   0  0  0  0  0  0  0  0  0  0  0  0
   12.3603  -15.5499   22.6580 O   0  0  0  0  0  0  0  0  0  0  0  0
    8.8994  -13.5288   28.1921 C   0  0  0  0  0  0  0  0  0  0  0  0
   10.3701  -14.5971   28.2947 S   0  0  0  0  0  0  0  0  0  0  0  0
   10.8827  -15.0016   26.6313 C   0  0  0  0  0  0  0  0  0  0  0  0
   11.9540  -16.0187   26.5724 C   0  0  0  0  0  0  0  0  0  0  0  0
   12.5721  -16.3354   25.2522 C   0  0  2  0  0  0  0  0  0  0  0  0
   11.4461  -16.7418   24.3902 N   0  0  0  0  0  0  0  0  0  0  0  0
   13.6237  -17.3520   25.2162 C   0  0  0  0  0  0  0  0  0  0  0  0
   14.7839  -17.1786   25.6607 O   0  0  0  0  0  0  0  0  0  0  0  0
   13.4004  -18.6262   24.6671 O   0  0  0  0  0  0  0  0  0  0  0  0
  2  1  1  1
  2  3  1  0
  4  5  2  0
  4  3  1  0
  6  5  1  0
  7 12  2  0
  7  6  1  0
  8  7  1  0
  9  8  2  0
  9 10  1  0
 10 11  2  0
 11 12  1  0
 12  4  1  0
 13  2  1  0
 13 14  2  0
 15 13  1  0
 16 15  1  0
 16 17  1  1
 18 17  1  0
 19 18  1  0
 20 19  1  0
 21 20  1  0
 22 29  1  0
 22 16  1  0
 23 22  2  0
 24 25  1  0
 25 26  1  0
 26 27  1  0
 28 29  1  0
 28 27  1  1
 30 32  1  0
 30 28  1  0
 31 30  2  0
M  END
$$$$
