WKM.pdb
     RDKit          3D

 32 33  0  0  1  0  0  0  0  0999 V2000
    6.5352  -18.7333   25.0287 N   0  0  0  0  0  0  0  0  0  0  0  0
    6.6536  -17.3698   24.5937 C   0  0  1  0  0  0  0  0  0  0  0  0
    7.2472  -16.4690   25.6489 C   0  0  0  0  0  0  0  0  0  0  0  0
    6.3822  -15.3651   26.0559 C   0  0  0  0  0  0  0  0  0  0  0  0
    5.0951  -15.4580   26.5381 C   0  0  0  0  0  0  0  0  0  0  0  0
    4.6808  -14.2034   26.7846 N   0  0  0  0  0  0  0  0  0  0  0  0
    5.6621  -13.3248   26.4745 C   0  0  0  0  0  0  0  0  0  0  0  0
    5.7469  -11.9487   26.5406 C   0  0  0  0  0  0  0  0  0  0  0  0
    6.8739  -11.2498   26.1627 C   0  0  0  0  0  0  0  0  0  0  0  0
    7.9502  -11.9784   25.7021 C   0  0  0  0  0  0  0  0  0  0  0  0
    7.8972  -13.3534   25.6239 C   0  0  0  0  0  0  0  0  0  0  0  0
    6.7479  -14.0343   26.0117 C   0  0  0  0  0  0  0  0  0  0  0  0
    7.4743  -17.2322   23.3791 C   0  0  0  0  0  0  0  0  0  0  0  0
    8.5458  -17.8857   23.2993 O   0  0  0  0  0  0  0  0  0  0  0  0
    7.1518  -16.4047   22.2636 N   0  0  0  0  0  0  0  0  0  0  0  0
    8.1355  -15.6795   21.5130 C   0  0  1  0  0  0  0  0  0  0  0  0
    7.7346  -14.4403   20.8346 C   0  0  0  0  0  0  0  0  0  0  0  0
    8.6849  -13.9271   19.8325 C   0  0  0  0  0  0  0  0  0  0  0  0
    8.0754  -13.5315   18.5289 C   0  0  0  0  0  0  0  0  0  0  0  0
    9.2279  -13.1485   17.5770 C   0  0  0  0  0  0  0  0  0  0  0  0
    8.6137  -12.7534   16.3075 N   0  0  0  0  0  0  0  0  0  0  0  0
    9.2501  -15.4009   22.5207 C   0  0  0  0  0  0  0  0  0  0  0  0
    9.1576  -14.4446   23.3172 O   0  0  0  0  0  0  0  0  0  0  0  0
   11.1254  -13.7731   28.0774 C   0  0  0  0  0  0  0  0  0  0  0  0
   11.1519  -15.5045   27.5151 S   0  0  0  0  0  0  0  0  0  0  0  0
   11.9419  -15.5587   25.9131 C   0  0  0  0  0  0  0  0  0  0  0  0
   11.0025  -15.7992   24.7972 C   0  0  0  0  0  0  0  0  0  0  0  0
   11.5263  -15.7811   23.4006 C   0  0  2  0  0  0  0  0  0  0  0  0
   10.3951  -16.2209   22.5620 N   0  0  0  0  0  0  0  0  0  0  0  0
   12.7122  -16.5853   23.1050 C   0  0  0  0  0  0  0  0  0  0  0  0
   13.8203  -16.4385   23.6744 O   0  0  0  0  0  0  0  0  0  0  0  0
   12.6909  -17.6046   22.1377 O   0  0  0  0  0  0  0  0  0  0  0  0
  2  1  1  1
  2  3  1  0
  4  5  2  0
  4  3  1  0
  6  5  1  0
  7 12  2  0
  7  6  1  0
  8  7  1  0
  9  8  2  0
  9 10  1  0
 10 11  2  0
 11 12  1  0
 12  4  1  0
 13  2  1  0
 13 14  2  0
 15 13  1  0
 16 15  1  0
 16 17  1  1
 18 17  1  0
 19 18  1  0
 20 19  1  0
 21 20  1  0
 22 29  1  0
 22 16  1  0
 23 22  2  0
 24 25  1  0
 25 26  1  0
 26 27  1  0
 28 29  1  0
 28 27  1  1
 30 32  1  0
 30 28  1  0
 31 30  2  0
M  END
$$$$
