WKM.pdb
     RDKit          3D

 32 33  0  0  1  0  0  0  0  0999 V2000
    6.2025  -18.1510   24.4953 N   0  0  0  0  0  0  0  0  0  0  0  0
    6.5193  -16.7648   24.2937 C   0  0  1  0  0  0  0  0  0  0  0  0
    7.2725  -16.1626   25.4543 C   0  0  0  0  0  0  0  0  0  0  0  0
    6.6220  -15.0035   26.0594 C   0  0  0  0  0  0  0  0  0  0  0  0
    5.4379  -14.9942   26.7636 C   0  0  0  0  0  0  0  0  0  0  0  0
    5.2168  -13.7217   27.1353 N   0  0  0  0  0  0  0  0  0  0  0  0
    6.2200  -12.9305   26.6899 C   0  0  0  0  0  0  0  0  0  0  0  0
    6.4687  -11.5771   26.7987 C   0  0  0  0  0  0  0  0  0  0  0  0
    7.5824  -10.9750   26.2523 C   0  0  0  0  0  0  0  0  0  0  0  0
    8.4720  -11.7797   25.5723 C   0  0  0  0  0  0  0  0  0  0  0  0
    8.2525  -13.1345   25.4458 C   0  0  0  0  0  0  0  0  0  0  0  0
    7.1208  -13.7170   26.0067 C   0  0  0  0  0  0  0  0  0  0  0  0
    7.3195  -16.5378   23.0789 C   0  0  0  0  0  0  0  0  0  0  0  0
    8.1248  -17.4317   22.7127 O   0  0  0  0  0  0  0  0  0  0  0  0
    7.2586  -15.3679   22.2661 N   0  0  0  0  0  0  0  0  0  0  0  0
    8.1671  -15.1135   21.1859 C   0  0  1  0  0  0  0  0  0  0  0  0
    7.8806  -14.0035   20.2680 C   0  0  0  0  0  0  0  0  0  0  0  0
    8.8216  -13.8471   19.1452 C   0  0  0  0  0  0  0  0  0  0  0  0
    8.4156  -14.5293   17.8814 C   0  0  0  0  0  0  0  0  0  0  0  0
    9.5235  -14.2696   16.8394 C   0  0  0  0  0  0  0  0  0  0  0  0
    9.0974  -14.9207   15.5986 N   0  0  0  0  0  0  0  0  0  0  0  0
    9.5185  -14.9072   21.8691 C   0  0  0  0  0  0  0  0  0  0  0  0
   10.0410  -13.7744   21.9074 O   0  0  0  0  0  0  0  0  0  0  0  0
    8.4573  -14.6051   27.6013 C   0  0  0  0  0  0  0  0  0  0  0  0
    9.9855  -15.4071   27.0216 S   0  0  0  0  0  0  0  0  0  0  0  0
   10.1493  -15.0949   25.2697 C   0  0  0  0  0  0  0  0  0  0  0  0
   11.1607  -15.9464   24.6083 C   0  0  0  0  0  0  0  0  0  0  0  0
   11.4585  -15.7183   23.1644 C   0  0  2  0  0  0  0  0  0  0  0  0
   10.1898  -15.9937   22.4640 N   0  0  0  0  0  0  0  0  0  0  0  0
   12.5434  -16.4917   22.5600 C   0  0  0  0  0  0  0  0  0  0  0  0
   12.3689  -17.4211   21.7358 O   0  0  0  0  0  0  0  0  0  0  0  0
   13.8910  -16.2397   22.8689 O   0  0  0  0  0  0  0  0  0  0  0  0
  2  1  1  1
  2  3  1  0
  4  5  2  0
  4  3  1  0
  6  5  1  0
  7 12  2  0
  7  6  1  0
  8  7  1  0
  9  8  2  0
  9 10  1  0
 10 11  2  0
 11 12  1  0
 12  4  1  0
 13  2  1  0
 13 14  2  0
 15 13  1  0
 16 15  1  0
 16 17  1  1
 18 17  1  0
 19 18  1  0
 20 19  1  0
 21 20  1  0
 22 29  1  0
 22 16  1  0
 23 22  2  0
 24 25  1  0
 25 26  1  0
 26 27  1  0
 28 29  1  0
 28 27  1  1
 30 32  1  0
 30 28  1  0
 31 30  2  0
M  END
$$$$
