WKM.pdb
     RDKit          3D

 32 33  0  0  1  0  0  0  0  0999 V2000
    7.7050  -18.3535   26.3491 N   0  0  0  0  0  0  0  0  0  0  0  0
    7.3701  -17.7131   25.1081 C   0  0  1  0  0  0  0  0  0  0  0  0
    8.1944  -16.4763   24.8475 C   0  0  0  0  0  0  0  0  0  0  0  0
    8.1232  -15.4702   25.9036 C   0  0  0  0  0  0  0  0  0  0  0  0
    8.8717  -15.4309   27.0595 C   0  0  0  0  0  0  0  0  0  0  0  0
    8.4802  -14.3394   27.7391 N   0  0  0  0  0  0  0  0  0  0  0  0
    7.5121  -13.6909   27.0513 C   0  0  0  0  0  0  0  0  0  0  0  0
    6.7887  -12.5426   27.3031 C   0  0  0  0  0  0  0  0  0  0  0  0
    5.8298  -12.0581   26.4387 C   0  0  0  0  0  0  0  0  0  0  0  0
    5.6008  -12.7682   25.2791 C   0  0  0  0  0  0  0  0  0  0  0  0
    6.3061  -13.9185   24.9984 C   0  0  0  0  0  0  0  0  0  0  0  0
    7.2685  -14.3858   25.8875 C   0  0  0  0  0  0  0  0  0  0  0  0
    7.5303  -18.6063   23.9487 C   0  0  0  0  0  0  0  0  0  0  0  0
    8.2662  -19.6193   24.0663 O   0  0  0  0  0  0  0  0  0  0  0  0
    6.9103  -18.4171   22.6787 N   0  0  0  0  0  0  0  0  0  0  0  0
    7.5031  -18.8426   21.4439 C   0  0  1  0  0  0  0  0  0  0  0  0
    6.7538  -18.6474   20.1961 C   0  0  0  0  0  0  0  0  0  0  0  0
    7.3743  -19.2140   18.9858 C   0  0  0  0  0  0  0  0  0  0  0  0
    6.6099  -18.9951   17.7229 C   0  0  0  0  0  0  0  0  0  0  0  0
    7.4627  -19.5520   16.5639 C   0  0  0  0  0  0  0  0  0  0  0  0
    6.6271  -19.5011   15.3621 N   0  0  0  0  0  0  0  0  0  0  0  0
    8.8370  -18.0989   21.3888 C   0  0  0  0  0  0  0  0  0  0  0  0
    9.8609  -18.6684   20.9588 O   0  0  0  0  0  0  0  0  0  0  0  0
    8.0048  -12.2657   20.2578 C   0  0  0  0  0  0  0  0  0  0  0  0
    8.4532  -12.2902   22.0222 S   0  0  0  0  0  0  0  0  0  0  0  0
    8.9997  -13.9405   22.4359 C   0  0  0  0  0  0  0  0  0  0  0  0
    9.7479  -14.6067   21.3488 C   0  0  0  0  0  0  0  0  0  0  0  0
   10.1710  -16.0254   21.5324 C   0  0  2  0  0  0  0  0  0  0  0  0
    8.9259  -16.7613   21.8226 N   0  0  0  0  0  0  0  0  0  0  0  0
   11.1739  -16.3122   22.5582 C   0  0  0  0  0  0  0  0  0  0  0  0
   12.3814  -15.9836   22.4714 O   0  0  0  0  0  0  0  0  0  0  0  0
   10.8447  -16.9930   23.7428 O   0  0  0  0  0  0  0  0  0  0  0  0
  2  1  1  1
  2  3  1  0
  4  5  2  0
  4  3  1  0
  6  5  1  0
  7 12  2  0
  7  6  1  0
  8  7  1  0
  9  8  2  0
  9 10  1  0
 10 11  2  0
 11 12  1  0
 12  4  1  0
 13  2  1  0
 13 14  2  0
 15 13  1  0
 16 15  1  0
 16 17  1  6
 18 17  1  0
 19 18  1  0
 20 19  1  0
 21 20  1  0
 22 29  1  0
 22 16  1  0
 23 22  2  0
 24 25  1  0
 25 26  1  0
 26 27  1  0
 28 29  1  0
 28 27  1  1
 30 32  1  0
 30 28  1  0
 31 30  2  0
M  END
$$$$
