WKM.pdb
     RDKit          3D

 32 33  0  0  1  0  0  0  0  0999 V2000
    6.2241  -17.7599   24.5284 N   0  0  0  0  0  0  0  0  0  0  0  0
    6.7363  -16.4852   24.1097 C   0  0  1  0  0  0  0  0  0  0  0  0
    7.3894  -15.7197   25.2342 C   0  0  0  0  0  0  0  0  0  0  0  0
    6.5257  -14.7295   25.8715 C   0  0  0  0  0  0  0  0  0  0  0  0
    5.3663  -14.9741   26.5743 C   0  0  0  0  0  0  0  0  0  0  0  0
    4.9000  -13.7814   26.9820 N   0  0  0  0  0  0  0  0  0  0  0  0
    5.7253  -12.7954   26.5606 C   0  0  0  0  0  0  0  0  0  0  0  0
    5.7023  -11.4232   26.7085 C   0  0  0  0  0  0  0  0  0  0  0  0
    6.6728  -10.5978   26.1809 C   0  0  0  0  0  0  0  0  0  0  0  0
    7.7008  -11.1914   25.4791 C   0  0  0  0  0  0  0  0  0  0  0  0
    7.7524  -12.5587   25.3136 C   0  0  0  0  0  0  0  0  0  0  0  0
    6.7605  -13.3689   25.8563 C   0  0  0  0  0  0  0  0  0  0  0  0
    7.7201  -16.6003   23.0204 C   0  0  0  0  0  0  0  0  0  0  0  0
    8.6395  -17.4518   23.1271 O   0  0  0  0  0  0  0  0  0  0  0  0
    7.7197  -15.8133   21.8315 N   0  0  0  0  0  0  0  0  0  0  0  0
    8.8970  -15.1868   21.3037 C   0  0  1  0  0  0  0  0  0  0  0  0
    8.7761  -13.8576   20.6911 C   0  0  0  0  0  0  0  0  0  0  0  0
    8.1332  -13.8237   19.3659 C   0  0  0  0  0  0  0  0  0  0  0  0
    8.8453  -14.5865   18.2990 C   0  0  0  0  0  0  0  0  0  0  0  0
    8.0720  -14.3700   16.9814 C   0  0  0  0  0  0  0  0  0  0  0  0
    8.8146  -15.0760   15.9349 N   0  0  0  0  0  0  0  0  0  0  0  0
    9.8651  -15.1450   22.4854 C   0  0  0  0  0  0  0  0  0  0  0  0
    9.9608  -14.1179   23.1880 O   0  0  0  0  0  0  0  0  0  0  0  0
   10.6586  -16.2438   28.2268 C   0  0  0  0  0  0  0  0  0  0  0  0
    9.9301  -15.6629   26.6627 S   0  0  0  0  0  0  0  0  0  0  0  0
   11.2569  -15.1096   25.6010 C   0  0  0  0  0  0  0  0  0  0  0  0
   11.8753  -16.1954   24.8110 C   0  0  0  0  0  0  0  0  0  0  0  0
   12.0115  -16.0223   23.3355 C   0  0  2  0  0  0  0  0  0  0  0  0
   10.6605  -16.2658   22.7955 N   0  0  0  0  0  0  0  0  0  0  0  0
   12.9890  -16.8572   22.6369 C   0  0  0  0  0  0  0  0  0  0  0  0
   12.6853  -17.8085   21.8777 O   0  0  0  0  0  0  0  0  0  0  0  0
   14.3717  -16.6449   22.7715 O   0  0  0  0  0  0  0  0  0  0  0  0
  2  1  1  1
  2  3  1  0
  4  5  2  0
  4  3  1  0
  6  5  1  0
  7 12  2  0
  7  6  1  0
  8  7  1  0
  9  8  2  0
  9 10  1  0
 10 11  2  0
 11 12  1  0
 12  4  1  0
 13  2  1  0
 13 14  2  0
 15 13  1  0
 16 15  1  0
 16 17  1  1
 18 17  1  0
 19 18  1  0
 20 19  1  0
 21 20  1  0
 22 29  1  0
 22 16  1  0
 23 22  2  0
 24 25  1  0
 25 26  1  0
 26 27  1  0
 28 29  1  0
 28 27  1  1
 30 32  1  0
 30 28  1  0
 31 30  2  0
M  END
$$$$
