WKM.pdb
     RDKit          3D

 32 33  0  0  1  0  0  0  0  0999 V2000
    6.3873  -18.6201   24.4416 N   0  0  0  0  0  0  0  0  0  0  0  0
    6.6026  -17.2139   24.2449 C   0  0  1  0  0  0  0  0  0  0  0  0
    7.1936  -16.5378   25.4576 C   0  0  0  0  0  0  0  0  0  0  0  0
    6.3510  -15.4958   26.0380 C   0  0  0  0  0  0  0  0  0  0  0  0
    5.1425  -15.6701   26.6760 C   0  0  0  0  0  0  0  0  0  0  0  0
    4.7200  -14.4498   27.0483 N   0  0  0  0  0  0  0  0  0  0  0  0
    5.6201  -13.5143   26.6671 C   0  0  0  0  0  0  0  0  0  0  0  0
    5.6639  -12.1415   26.8037 C   0  0  0  0  0  0  0  0  0  0  0  0
    6.7060  -11.3752   26.3258 C   0  0  0  0  0  0  0  0  0  0  0  0
    7.7376  -12.0307   25.6874 C   0  0  0  0  0  0  0  0  0  0  0  0
    7.7237  -13.4004   25.5348 C   0  0  0  0  0  0  0  0  0  0  0  0
    6.6602  -14.1501   26.0264 C   0  0  0  0  0  0  0  0  0  0  0  0
    7.4877  -16.9310   23.1029 C   0  0  0  0  0  0  0  0  0  0  0  0
    8.3779  -17.7694   22.8089 O   0  0  0  0  0  0  0  0  0  0  0  0
    7.4208  -15.7645   22.2856 N   0  0  0  0  0  0  0  0  0  0  0  0
    8.3031  -15.5284   21.1797 C   0  0  1  0  0  0  0  0  0  0  0  0
    8.1022  -14.3269   20.3595 C   0  0  0  0  0  0  0  0  0  0  0  0
    8.9342  -14.2379   19.1468 C   0  0  0  0  0  0  0  0  0  0  0  0
    8.4012  -13.3405   18.0800 C   0  0  0  0  0  0  0  0  0  0  0  0
    9.1450  -13.6841   16.7726 C   0  0  0  0  0  0  0  0  0  0  0  0
    8.6926  -12.7232   15.7641 N   0  0  0  0  0  0  0  0  0  0  0  0
    9.6981  -15.5229   21.8036 C   0  0  0  0  0  0  0  0  0  0  0  0
   10.6942  -15.2060   21.1217 O   0  0  0  0  0  0  0  0  0  0  0  0
   10.5169  -14.2992   28.0390 C   0  0  0  0  0  0  0  0  0  0  0  0
   11.8014  -15.5709   27.8216 S   0  0  0  0  0  0  0  0  0  0  0  0
   12.2093  -15.6605   26.0841 C   0  0  0  0  0  0  0  0  0  0  0  0
   11.0271  -15.6426   25.1965 C   0  0  0  0  0  0  0  0  0  0  0  0
   11.2326  -15.7634   23.7239 C   0  0  2  0  0  0  0  0  0  0  0  0
    9.8756  -15.8753   23.1562 N   0  0  0  0  0  0  0  0  0  0  0  0
   12.0713  -16.8594   23.2385 C   0  0  0  0  0  0  0  0  0  0  0  0
   11.6307  -17.8670   22.6350 O   0  0  0  0  0  0  0  0  0  0  0  0
   13.4650  -16.8587   23.4193 O   0  0  0  0  0  0  0  0  0  0  0  0
  2  1  1  1
  2  3  1  0
  4  5  2  0
  4  3  1  0
  6  5  1  0
  7 12  2  0
  7  6  1  0
  8  7  1  0
  9  8  2  0
  9 10  1  0
 10 11  2  0
 11 12  1  0
 12  4  1  0
 13  2  1  0
 13 14  2  0
 15 13  1  0
 16 15  1  0
 16 17  1  1
 18 17  1  0
 19 18  1  0
 20 19  1  0
 21 20  1  0
 22 29  1  0
 22 16  1  0
 23 22  2  0
 24 25  1  0
 25 26  1  0
 26 27  1  0
 28 29  1  0
 28 27  1  1
 30 32  1  0
 30 28  1  0
 31 30  2  0
M  END
$$$$
