WKM.pdb
     RDKit          3D

 32 33  0  0  1  0  0  0  0  0999 V2000
    6.0656  -18.6346   24.5725 N   0  0  0  0  0  0  0  0  0  0  0  0
    6.2839  -17.2201   24.4542 C   0  0  1  0  0  0  0  0  0  0  0  0
    6.9269  -16.6233   25.6820 C   0  0  0  0  0  0  0  0  0  0  0  0
    6.2420  -15.4467   26.2104 C   0  0  0  0  0  0  0  0  0  0  0  0
    4.9989  -15.4108   26.8032 C   0  0  0  0  0  0  0  0  0  0  0  0
    4.7644  -14.1302   27.1371 N   0  0  0  0  0  0  0  0  0  0  0  0
    5.8162  -13.3596   26.7753 C   0  0  0  0  0  0  0  0  0  0  0  0
    6.0747  -12.0085   26.8894 C   0  0  0  0  0  0  0  0  0  0  0  0
    7.2428  -11.4300   26.4396 C   0  0  0  0  0  0  0  0  0  0  0  0
    8.1783  -12.2566   25.8540 C   0  0  0  0  0  0  0  0  0  0  0  0
    7.9503  -13.6098   25.7250 C   0  0  0  0  0  0  0  0  0  0  0  0
    6.7632  -14.1683   26.1874 C   0  0  0  0  0  0  0  0  0  0  0  0
    7.1258  -16.8718   23.2978 C   0  0  0  0  0  0  0  0  0  0  0  0
    8.1170  -17.5996   23.0337 O   0  0  0  0  0  0  0  0  0  0  0  0
    6.9095  -15.7578   22.4346 N   0  0  0  0  0  0  0  0  0  0  0  0
    7.8521  -15.3427   21.4364 C   0  0  1  0  0  0  0  0  0  0  0  0
    7.5182  -14.1953   20.5828 C   0  0  0  0  0  0  0  0  0  0  0  0
    8.5266  -13.8419   19.5684 C   0  0  0  0  0  0  0  0  0  0  0  0
    8.0392  -13.8676   18.1580 C   0  0  0  0  0  0  0  0  0  0  0  0
    9.2196  -13.4562   17.2535 C   0  0  0  0  0  0  0  0  0  0  0  0
    8.7102  -13.4292   15.8806 N   0  0  0  0  0  0  0  0  0  0  0  0
    9.1364  -15.0712   22.2189 C   0  0  0  0  0  0  0  0  0  0  0  0
    9.2329  -14.0602   22.9442 O   0  0  0  0  0  0  0  0  0  0  0  0
   12.5863  -14.1052   28.0252 C   0  0  0  0  0  0  0  0  0  0  0  0
   11.2586  -14.6659   26.9128 S   0  0  0  0  0  0  0  0  0  0  0  0
   11.9721  -14.9734   25.3035 C   0  0  0  0  0  0  0  0  0  0  0  0
   10.9746  -15.3264   24.2710 C   0  0  0  0  0  0  0  0  0  0  0  0
   11.4475  -15.6279   22.8886 C   0  0  2  0  0  0  0  0  0  0  0  0
   10.2263  -15.9597   22.1305 N   0  0  0  0  0  0  0  0  0  0  0  0
   12.4439  -16.6863   22.7229 C   0  0  0  0  0  0  0  0  0  0  0  0
   12.1669  -17.8692   22.4106 O   0  0  0  0  0  0  0  0  0  0  0  0
   13.8160  -16.4440   22.9066 O   0  0  0  0  0  0  0  0  0  0  0  0
  2  1  1  1
  2  3  1  0
  4  5  2  0
  4  3  1  0
  6  5  1  0
  7 12  2  0
  7  6  1  0
  8  7  1  0
  9  8  2  0
  9 10  1  0
 10 11  2  0
 11 12  1  0
 12  4  1  0
 13  2  1  0
 13 14  2  0
 15 13  1  0
 16 15  1  0
 16 17  1  1
 18 17  1  0
 19 18  1  0
 20 19  1  0
 21 20  1  0
 22 29  1  0
 22 16  1  0
 23 22  2  0
 24 25  1  0
 25 26  1  0
 26 27  1  0
 28 29  1  0
 28 27  1  1
 30 32  1  0
 30 28  1  0
 31 30  2  0
M  END
$$$$
