WKM.pdb
     RDKit          3D

 32 33  0  0  1  0  0  0  0  0999 V2000
    7.1933  -17.1767   25.4005 N   0  0  0  0  0  0  0  0  0  0  0  0
    7.1096  -16.6962   24.0497 C   0  0  1  0  0  0  0  0  0  0  0  0
    7.0520  -15.1905   23.9674 C   0  0  0  0  0  0  0  0  0  0  0  0
    6.3325  -14.5532   25.0668 C   0  0  0  0  0  0  0  0  0  0  0  0
    5.5461  -15.1761   26.0111 C   0  0  0  0  0  0  0  0  0  0  0  0
    5.0825  -14.2138   26.8268 N   0  0  0  0  0  0  0  0  0  0  0  0
    5.5497  -13.0078   26.4290 C   0  0  0  0  0  0  0  0  0  0  0  0
    5.3772  -11.7268   26.9131 C   0  0  0  0  0  0  0  0  0  0  0  0
    5.9649  -10.6225   26.3328 C   0  0  0  0  0  0  0  0  0  0  0  0
    6.7545  -10.8316   25.2218 C   0  0  0  0  0  0  0  0  0  0  0  0
    6.9466  -12.0983   24.7138 C   0  0  0  0  0  0  0  0  0  0  0  0
    6.3421  -13.1955   25.3184 C   0  0  0  0  0  0  0  0  0  0  0  0
    8.2393  -17.1438   23.2185 C   0  0  0  0  0  0  0  0  0  0  0  0
    8.7383  -18.2767   23.4404 O   0  0  0  0  0  0  0  0  0  0  0  0
    8.8280  -16.3876   22.1627 N   0  0  0  0  0  0  0  0  0  0  0  0
    9.8809  -16.8904   21.3286 C   0  0  1  0  0  0  0  0  0  0  0  0
    9.9929  -16.3892   19.9528 C   0  0  0  0  0  0  0  0  0  0  0  0
    9.6618  -14.9659   19.7649 C   0  0  0  0  0  0  0  0  0  0  0  0
    9.0752  -14.6244   18.4357 C   0  0  0  0  0  0  0  0  0  0  0  0
    8.9171  -13.0905   18.3806 C   0  0  0  0  0  0  0  0  0  0  0  0
    8.2545  -12.7795   17.1121 N   0  0  0  0  0  0  0  0  0  0  0  0
   11.1587  -16.5925   22.1120 C   0  0  0  0  0  0  0  0  0  0  0  0
   12.2064  -16.2721   21.5142 O   0  0  0  0  0  0  0  0  0  0  0  0
   11.2423  -13.7660   27.4761 C   0  0  0  0  0  0  0  0  0  0  0  0
   12.0267  -15.2713   28.1345 S   0  0  0  0  0  0  0  0  0  0  0  0
   12.4353  -16.3350   26.7579 C   0  0  0  0  0  0  0  0  0  0  0  0
   12.1510  -15.7318   25.4384 C   0  0  0  0  0  0  0  0  0  0  0  0
   12.4628  -16.5156   24.2080 C   0  0  2  0  0  0  0  0  0  0  0  0
   11.1686  -16.6760   23.5185 N   0  0  0  0  0  0  0  0  0  0  0  0
   13.1082  -17.8182   24.3728 C   0  0  0  0  0  0  0  0  0  0  0  0
   12.5746  -18.9106   24.0638 O   0  0  0  0  0  0  0  0  0  0  0  0
   14.4045  -17.9383   24.9020 O   0  0  0  0  0  0  0  0  0  0  0  0
  2  1  1  1
  2  3  1  0
  4  5  2  0
  4  3  1  0
  6  5  1  0
  7 12  2  0
  7  6  1  0
  8  7  1  0
  9  8  2  0
  9 10  1  0
 10 11  2  0
 11 12  1  0
 12  4  1  0
 13  2  1  0
 13 14  2  0
 15 13  1  0
 16 15  1  0
 16 17  1  6
 18 17  1  0
 19 18  1  0
 20 19  1  0
 21 20  1  0
 22 29  1  0
 22 16  1  0
 23 22  2  0
 24 25  1  0
 25 26  1  0
 26 27  1  0
 28 29  1  0
 28 27  1  1
 30 32  1  0
 30 28  1  0
 31 30  2  0
M  END
$$$$
