WKM.pdb
     RDKit          3D

 32 33  0  0  1  0  0  0  0  0999 V2000
    6.5612  -18.1064   25.1288 N   0  0  0  0  0  0  0  0  0  0  0  0
    7.3206  -17.2123   24.3004 C   0  0  1  0  0  0  0  0  0  0  0  0
    7.9659  -16.0956   25.0837 C   0  0  0  0  0  0  0  0  0  0  0  0
    7.0256  -15.1239   25.6354 C   0  0  0  0  0  0  0  0  0  0  0  0
    5.8112  -15.3932   26.2277 C   0  0  0  0  0  0  0  0  0  0  0  0
    5.2836  -14.2106   26.5874 N   0  0  0  0  0  0  0  0  0  0  0  0
    6.1232  -13.2072   26.2423 C   0  0  0  0  0  0  0  0  0  0  0  0
    6.0573  -11.8358   26.3841 C   0  0  0  0  0  0  0  0  0  0  0  0
    7.0548  -10.9899   25.9472 C   0  0  0  0  0  0  0  0  0  0  0  0
    8.1561  -11.5615   25.3456 C   0  0  0  0  0  0  0  0  0  0  0  0
    8.2522  -12.9274   25.1890 C   0  0  0  0  0  0  0  0  0  0  0  0
    7.2315  -13.7585   25.6388 C   0  0  0  0  0  0  0  0  0  0  0  0
    8.3839  -17.9010   23.5503 C   0  0  0  0  0  0  0  0  0  0  0  0
    8.9030  -18.9315   24.0506 O   0  0  0  0  0  0  0  0  0  0  0  0
    8.8857  -17.4913   22.2800 N   0  0  0  0  0  0  0  0  0  0  0  0
   10.2469  -17.6871   21.8727 C   0  0  1  0  0  0  0  0  0  0  0  0
   10.6213  -17.3774   20.4869 C   0  0  0  0  0  0  0  0  0  0  0  0
   11.9635  -17.8245   20.0752 C   0  0  0  0  0  0  0  0  0  0  0  0
   12.2502  -17.7002   18.6158 C   0  0  0  0  0  0  0  0  0  0  0  0
   13.6726  -18.2479   18.3759 C   0  0  0  0  0  0  0  0  0  0  0  0
   13.9066  -18.1972   16.9310 N   0  0  0  0  0  0  0  0  0  0  0  0
   11.0596  -16.8374   22.8489 C   0  0  0  0  0  0  0  0  0  0  0  0
   11.3117  -15.6431   22.5889 O   0  0  0  0  0  0  0  0  0  0  0  0
   10.0292  -13.1079   27.3693 C   0  0  0  0  0  0  0  0  0  0  0  0
   10.7398  -14.5738   28.1823 S   0  0  0  0  0  0  0  0  0  0  0  0
   11.9871  -15.2606   27.1025 C   0  0  0  0  0  0  0  0  0  0  0  0
   11.4306  -16.0030   25.9515 C   0  0  0  0  0  0  0  0  0  0  0  0
   12.3674  -16.5411   24.9229 C   0  0  2  0  0  0  0  0  0  0  0  0
   11.5333  -17.3929   24.0540 N   0  0  0  0  0  0  0  0  0  0  0  0
   13.5354  -17.2900   25.3873 C   0  0  0  0  0  0  0  0  0  0  0  0
   14.4615  -16.7931   26.0721 O   0  0  0  0  0  0  0  0  0  0  0  0
   13.7043  -18.6532   25.0906 O   0  0  0  0  0  0  0  0  0  0  0  0
  2  1  1  1
  2  3  1  0
  4  5  2  0
  4  3  1  0
  6  5  1  0
  7 12  2  0
  7  6  1  0
  8  7  1  0
  9  8  2  0
  9 10  1  0
 10 11  2  0
 11 12  1  0
 12  4  1  0
 13  2  1  0
 13 14  2  0
 15 13  1  0
 16 15  1  0
 16 17  1  6
 18 17  1  0
 19 18  1  0
 20 19  1  0
 21 20  1  0
 22 29  1  0
 22 16  1  0
 23 22  2  0
 24 25  1  0
 25 26  1  0
 26 27  1  0
 28 29  1  0
 28 27  1  1
 30 32  1  0
 30 28  1  0
 31 30  2  0
M  END
$$$$
