WKM.pdb
     RDKit          3D

 32 33  0  0  1  0  0  0  0  0999 V2000
    6.4102  -18.7621   24.7281 N   0  0  0  0  0  0  0  0  0  0  0  0
    6.5984  -17.3552   24.5095 C   0  0  1  0  0  0  0  0  0  0  0  0
    7.2192  -16.6574   25.6948 C   0  0  0  0  0  0  0  0  0  0  0  0
    6.4918  -15.4748   26.1477 C   0  0  0  0  0  0  0  0  0  0  0  0
    5.1703  -15.4142   26.5321 C   0  0  0  0  0  0  0  0  0  0  0  0
    4.9220  -14.1373   26.8700 N   0  0  0  0  0  0  0  0  0  0  0  0
    6.0408  -13.3928   26.7117 C   0  0  0  0  0  0  0  0  0  0  0  0
    6.3166  -12.0558   26.9153 C   0  0  0  0  0  0  0  0  0  0  0  0
    7.5588  -11.5044   26.6821 C   0  0  0  0  0  0  0  0  0  0  0  0
    8.5528  -12.3444   26.2261 C   0  0  0  0  0  0  0  0  0  0  0  0
    8.3095  -13.6842   26.0128 C   0  0  0  0  0  0  0  0  0  0  0  0
    7.0471  -14.2152   26.2560 C   0  0  0  0  0  0  0  0  0  0  0  0
    7.4410  -17.0723   23.3359 C   0  0  0  0  0  0  0  0  0  0  0  0
    8.2266  -17.9662   22.9292 O   0  0  0  0  0  0  0  0  0  0  0  0
    7.4428  -15.8470   22.6066 N   0  0  0  0  0  0  0  0  0  0  0  0
    8.2358  -15.6339   21.4307 C   0  0  1  0  0  0  0  0  0  0  0  0
    7.9282  -14.4847   20.5696 C   0  0  0  0  0  0  0  0  0  0  0  0
    8.6700  -14.4256   19.2980 C   0  0  0  0  0  0  0  0  0  0  0  0
    8.2911  -13.2970   18.3980 C   0  0  0  0  0  0  0  0  0  0  0  0
    8.8490  -13.6169   16.9954 C   0  0  0  0  0  0  0  0  0  0  0  0
    8.2645  -12.6389   16.0751 N   0  0  0  0  0  0  0  0  0  0  0  0
    9.6691  -15.5424   21.9528 C   0  0  0  0  0  0  0  0  0  0  0  0
   10.6245  -15.4214   21.1588 O   0  0  0  0  0  0  0  0  0  0  0  0
   11.0999  -13.2398   27.8917 C   0  0  0  0  0  0  0  0  0  0  0  0
   10.9944  -15.0573   27.8773 S   0  0  0  0  0  0  0  0  0  0  0  0
   11.6236  -15.6400   26.3095 C   0  0  0  0  0  0  0  0  0  0  0  0
   11.2010  -14.8148   25.1579 C   0  0  0  0  0  0  0  0  0  0  0  0
   11.3184  -15.3845   23.7843 C   0  0  2  0  0  0  0  0  0  0  0  0
    9.9284  -15.5935   23.3367 N   0  0  0  0  0  0  0  0  0  0  0  0
   12.0892  -16.6171   23.6192 C   0  0  0  0  0  0  0  0  0  0  0  0
   13.2857  -16.7499   23.9718 O   0  0  0  0  0  0  0  0  0  0  0  0
   11.5272  -17.7673   23.0394 O   0  0  0  0  0  0  0  0  0  0  0  0
  2  1  1  1
  2  3  1  0
  4  5  2  0
  4  3  1  0
  6  5  1  0
  7 12  2  0
  7  6  1  0
  8  7  1  0
  9  8  2  0
  9 10  1  0
 10 11  2  0
 11 12  1  0
 12  4  1  0
 13  2  1  0
 13 14  2  0
 15 13  1  0
 16 15  1  0
 16 17  1  1
 18 17  1  0
 19 18  1  0
 20 19  1  0
 21 20  1  0
 22 29  1  0
 22 16  1  0
 23 22  2  0
 24 25  1  0
 25 26  1  0
 26 27  1  0
 28 29  1  0
 28 27  1  1
 30 32  1  0
 30 28  1  0
 31 30  2  0
M  END
$$$$
