FDS.pdb
     RDKit          3D

 26 26  0  0  1  0  0  0  0  0999 V2000
    6.0319  -16.7003   24.1946 N   0  0  0  0  0  0  0  0  0  0  0  0
    7.2206  -15.9241   24.4299 C   0  0  1  0  0  0  0  0  0  0  0  0
    7.3538  -15.5126   25.8791 C   0  0  0  0  0  0  0  0  0  0  0  0
    6.9956  -14.1152   26.1295 C   0  0  0  0  0  0  0  0  0  0  0  0
    5.8440  -13.7957   26.8008 C   0  0  0  0  0  0  0  0  0  0  0  0
    5.4974  -12.4610   27.0421 C   0  0  0  0  0  0  0  0  0  0  0  0
    6.3298  -11.4744   26.5956 C   0  0  0  0  0  0  0  0  0  0  0  0
    7.4915  -11.7724   25.9191 C   0  0  0  0  0  0  0  0  0  0  0  0
    7.8165  -13.1073   25.6902 C   0  0  0  0  0  0  0  0  0  0  0  0
    8.4039  -16.7404   24.0982 C   0  0  0  0  0  0  0  0  0  0  0  0
    8.3065  -17.9758   23.9971 O   0  0  0  0  0  0  0  0  0  0  0  0
    9.6477  -16.1290   23.8942 N   0  0  0  0  0  0  0  0  0  0  0  0
   10.8377  -16.8170   23.4587 C   0  0  1  0  0  0  0  0  0  0  0  0
   11.4163  -16.2820   22.1960 C   0  0  0  0  0  0  0  0  0  0  0  0
   11.4082  -17.2153   21.0701 C   0  0  0  0  0  0  0  0  0  0  0  0
   12.3542  -17.1236   20.2337 O   0  0  0  0  0  0  0  0  0  0  0  0
   11.7893  -16.8743   24.5793 C   0  0  0  0  0  0  0  0  0  0  0  0
   13.0307  -16.9863   24.4013 O   0  0  0  0  0  0  0  0  0  0  0  0
   10.4642  -18.1905   20.8310 O   0  0  0  0  0  0  0  0  0  0  0  0
   10.4854  -20.1400   27.0923 O   0  0  0  0  0  0  0  0  0  0  0  0
   10.4517  -18.9721   26.3076 C   0  0  0  0  0  0  0  0  0  0  0  0
   11.4558  -17.9507   26.8330 C   0  0  2  0  0  0  0  0  0  0  0  0
   11.3622  -16.8059   25.9513 N   0  0  0  0  0  0  0  0  0  0  0  0
   12.8147  -18.5068   26.7506 C   0  0  0  0  0  0  0  0  0  0  0  0
   13.6040  -18.6957   27.8713 O   0  0  0  0  0  0  0  0  0  0  0  0
   13.2846  -18.8241   25.6336 O   0  0  0  0  0  0  0  0  0  0  0  0
  2  1  1  1
  2 10  1  0
  3  2  1  0
  4  5  2  0
  4  3  1  0
  6  5  1  0
  7  6  2  0
  8  7  1  0
  8  9  2  0
  9  4  1  0
 10 11  2  0
 10 12  1  0
 12 13  1  0
 13 14  1  6
 14 15  1  0
 15 16  2  0
 15 19  1  0
 17 13  1  0
 17 18  2  0
 20 21  1  0
 22 21  1  6
 22 24  1  0
 22 23  1  0
 23 17  1  0
 24 25  1  0
 26 24  2  0
M  END
$$$$
