FDS.pdb
     RDKit          3D

 26 26  0  0  1  0  0  0  0  0999 V2000
    6.1345  -16.2734   25.1154 N   0  0  0  0  0  0  0  0  0  0  0  0
    6.8603  -16.0632   23.8907 C   0  0  1  0  0  0  0  0  0  0  0  0
    7.0468  -14.5939   23.5848 C   0  0  0  0  0  0  0  0  0  0  0  0
    7.1369  -13.7510   24.7787 C   0  0  0  0  0  0  0  0  0  0  0  0
    6.0302  -13.5054   25.5491 C   0  0  0  0  0  0  0  0  0  0  0  0
    6.1117  -12.6999   26.6912 C   0  0  0  0  0  0  0  0  0  0  0  0
    7.3193  -12.1582   27.0290 C   0  0  0  0  0  0  0  0  0  0  0  0
    8.4439  -12.3917   26.2696 C   0  0  0  0  0  0  0  0  0  0  0  0
    8.3395  -13.1962   25.1375 C   0  0  0  0  0  0  0  0  0  0  0  0
    8.2053  -16.6558   24.0187 C   0  0  0  0  0  0  0  0  0  0  0  0
    8.4255  -17.5366   24.8681 O   0  0  0  0  0  0  0  0  0  0  0  0
    9.2459  -16.2299   23.1830 N   0  0  0  0  0  0  0  0  0  0  0  0
   10.5636  -16.8148   23.1516 C   0  0  1  0  0  0  0  0  0  0  0  0
   11.3712  -16.4199   21.9653 C   0  0  0  0  0  0  0  0  0  0  0  0
   10.8352  -16.8637   20.6790 C   0  0  0  0  0  0  0  0  0  0  0  0
   10.4665  -18.0716   20.5899 O   0  0  0  0  0  0  0  0  0  0  0  0
   11.2255  -16.5618   24.4410 C   0  0  0  0  0  0  0  0  0  0  0  0
   12.2280  -15.8072   24.5447 O   0  0  0  0  0  0  0  0  0  0  0  0
   10.6922  -16.0888   19.5484 O   0  0  0  0  0  0  0  0  0  0  0  0
    9.4396  -17.6565   27.9296 O   0  0  0  0  0  0  0  0  0  0  0  0
   10.5113  -16.7464   27.9928 C   0  0  0  0  0  0  0  0  0  0  0  0
   11.5275  -17.0463   26.8951 C   0  0  2  0  0  0  0  0  0  0  0  0
   10.7694  -17.1608   25.6668 N   0  0  0  0  0  0  0  0  0  0  0  0
   12.1870  -18.3316   27.1707 C   0  0  0  0  0  0  0  0  0  0  0  0
   12.9832  -18.5286   28.2851 O   0  0  0  0  0  0  0  0  0  0  0  0
   12.0301  -19.2879   26.3770 O   0  0  0  0  0  0  0  0  0  0  0  0
  2  1  1  1
  2 10  1  0
  3  2  1  0
  4  5  2  0
  4  3  1  0
  6  5  1  0
  7  6  2  0
  8  7  1  0
  8  9  2  0
  9  4  1  0
 10 11  2  0
 10 12  1  0
 12 13  1  0
 13 14  1  6
 14 15  1  0
 15 16  2  0
 15 19  1  0
 17 13  1  0
 17 18  2  0
 20 21  1  0
 22 21  1  1
 22 24  1  0
 22 23  1  0
 23 17  1  0
 24 25  1  0
 26 24  2  0
M  END
$$$$
