FDS.pdb
     RDKit          3D

 26 26  0  0  1  0  0  0  0  0999 V2000
    6.1359  -16.6237   24.6291 N   0  0  0  0  0  0  0  0  0  0  0  0
    7.3833  -15.9095   24.6978 C   0  0  1  0  0  0  0  0  0  0  0  0
    7.5688  -15.2150   26.0283 C   0  0  0  0  0  0  0  0  0  0  0  0
    7.0564  -13.8436   26.0529 C   0  0  0  0  0  0  0  0  0  0  0  0
    7.6283  -12.8671   25.2795 C   0  0  0  0  0  0  0  0  0  0  0  0
    7.1418  -11.5546   25.3001 C   0  0  0  0  0  0  0  0  0  0  0  0
    6.0811  -11.2590   26.1083 C   0  0  0  0  0  0  0  0  0  0  0  0
    5.4913  -12.2242   26.8935 C   0  0  0  0  0  0  0  0  0  0  0  0
    5.9917  -13.5234   26.8571 C   0  0  0  0  0  0  0  0  0  0  0  0
    8.4964  -16.8660   24.5466 C   0  0  0  0  0  0  0  0  0  0  0  0
    8.3919  -18.0255   24.9828 O   0  0  0  0  0  0  0  0  0  0  0  0
    9.6810  -16.4744   23.9094 N   0  0  0  0  0  0  0  0  0  0  0  0
   10.9137  -17.2220   23.9396 C   0  0  1  0  0  0  0  0  0  0  0  0
   11.9712  -16.6787   23.0440 C   0  0  0  0  0  0  0  0  0  0  0  0
   11.6682  -16.7549   21.6153 C   0  0  0  0  0  0  0  0  0  0  0  0
   12.0501  -15.7908   20.8891 O   0  0  0  0  0  0  0  0  0  0  0  0
   11.3360  -17.3837   25.3396 C   0  0  0  0  0  0  0  0  0  0  0  0
   11.7278  -16.4131   26.0394 O   0  0  0  0  0  0  0  0  0  0  0  0
   11.0031  -17.7814   20.9803 O   0  0  0  0  0  0  0  0  0  0  0  0
   10.1994  -20.6638   27.3078 O   0  0  0  0  0  0  0  0  0  0  0  0
   10.5937  -19.5529   28.0767 C   0  0  0  0  0  0  0  0  0  0  0  0
   11.7278  -18.8037   27.3839 C   0  0  2  0  0  0  0  0  0  0  0  0
   11.3283  -18.6621   25.9993 N   0  0  0  0  0  0  0  0  0  0  0  0
   12.9592  -19.6053   27.4459 C   0  0  0  0  0  0  0  0  0  0  0  0
   13.5806  -20.0926   26.3097 O   0  0  0  0  0  0  0  0  0  0  0  0
   13.4725  -19.8622   28.5593 O   0  0  0  0  0  0  0  0  0  0  0  0
  2  1  1  1
  2 10  1  0
  3  2  1  0
  4  5  2  0
  4  3  1  0
  6  5  1  0
  7  6  2  0
  8  7  1  0
  8  9  2  0
  9  4  1  0
 10 11  2  0
 10 12  1  0
 12 13  1  0
 13 14  1  6
 14 15  1  0
 15 16  2  0
 15 19  1  0
 17 13  1  0
 17 18  2  0
 20 21  1  0
 22 21  1  1
 22 24  1  0
 22 23  1  0
 23 17  1  0
 24 25  1  0
 26 24  2  0
M  END
$$$$
