FDS.pdb
     RDKit          3D

 26 26  0  0  1  0  0  0  0  0999 V2000
    6.4749  -17.5854   20.9868 N   0  0  0  0  0  0  0  0  0  0  0  0
    7.8134  -17.0586   20.9444 C   0  0  1  0  0  0  0  0  0  0  0  0
    7.9740  -15.8414   21.8275 C   0  0  0  0  0  0  0  0  0  0  0  0
    7.7974  -14.5725   21.1187 C   0  0  0  0  0  0  0  0  0  0  0  0
    7.9663  -13.3771   21.7677 C   0  0  0  0  0  0  0  0  0  0  0  0
    7.7982  -12.1615   21.0940 C   0  0  0  0  0  0  0  0  0  0  0  0
    7.4608  -12.1843   19.7705 C   0  0  0  0  0  0  0  0  0  0  0  0
    7.2861  -13.3735   19.0988 C   0  0  0  0  0  0  0  0  0  0  0  0
    7.4585  -14.5709   19.7891 C   0  0  0  0  0  0  0  0  0  0  0  0
    8.7517  -18.0835   21.4402 C   0  0  0  0  0  0  0  0  0  0  0  0
    8.3957  -18.8894   22.3175 O   0  0  0  0  0  0  0  0  0  0  0  0
   10.0526  -18.1566   20.9255 N   0  0  0  0  0  0  0  0  0  0  0  0
   11.0318  -19.1430   21.3094 C   0  0  1  0  0  0  0  0  0  0  0  0
   12.0083  -19.4739   20.2358 C   0  0  0  0  0  0  0  0  0  0  0  0
   12.8833  -18.3719   19.8373 C   0  0  0  0  0  0  0  0  0  0  0  0
   12.3776  -17.4601   19.1192 O   0  0  0  0  0  0  0  0  0  0  0  0
   11.6506  -18.7282   22.5781 C   0  0  0  0  0  0  0  0  0  0  0  0
   12.1319  -17.5769   22.7458 O   0  0  0  0  0  0  0  0  0  0  0  0
   14.2130  -18.2303   20.1704 O   0  0  0  0  0  0  0  0  0  0  0  0
   11.4220  -21.2942   25.6187 O   0  0  0  0  0  0  0  0  0  0  0  0
   11.7638  -20.0001   26.0539 C   0  0  0  0  0  0  0  0  0  0  0  0
   12.4275  -19.2184   24.9244 C   0  0  2  0  0  0  0  0  0  0  0  0
   11.7454  -19.6120   23.7092 N   0  0  0  0  0  0  0  0  0  0  0  0
   13.8432  -19.6033   24.8231 C   0  0  0  0  0  0  0  0  0  0  0  0
   14.7682  -19.2773   25.7992 O   0  0  0  0  0  0  0  0  0  0  0  0
   14.2371  -20.2482   23.8241 O   0  0  0  0  0  0  0  0  0  0  0  0
  2  1  1  1
  2 10  1  0
  3  2  1  0
  4  5  2  0
  4  3  1  0
  6  5  1  0
  7  6  2  0
  8  7  1  0
  8  9  2  0
  9  4  1  0
 10 11  2  0
 10 12  1  0
 12 13  1  0
 13 14  1  6
 14 15  1  0
 15 16  2  0
 15 19  1  0
 17 13  1  0
 17 18  2  0
 20 21  1  0
 22 21  1  1
 22 24  1  0
 22 23  1  0
 23 17  1  0
 24 25  1  0
 26 24  2  0
M  END
$$$$
