FDS.pdb
     RDKit          3D

 26 26  0  0  1  0  0  0  0  0999 V2000
    5.9495  -16.4196   25.2222 N   0  0  0  0  0  0  0  0  0  0  0  0
    6.4859  -16.0457   23.9402 C   0  0  1  0  0  0  0  0  0  0  0  0
    6.5152  -14.5455   23.7513 C   0  0  0  0  0  0  0  0  0  0  0  0
    6.9142  -13.8087   24.9520 C   0  0  0  0  0  0  0  0  0  0  0  0
    5.9736  -13.2400   25.7710 C   0  0  0  0  0  0  0  0  0  0  0  0
    6.3506  -12.5344   26.9198 C   0  0  0  0  0  0  0  0  0  0  0  0
    7.6793  -12.4202   27.2150 C   0  0  0  0  0  0  0  0  0  0  0  0
    8.6411  -12.9834   26.4065 C   0  0  0  0  0  0  0  0  0  0  0  0
    8.2432  -13.6810   25.2685 C   0  0  0  0  0  0  0  0  0  0  0  0
    7.8778  -16.5247   23.8409 C   0  0  0  0  0  0  0  0  0  0  0  0
    8.3501  -17.2689   24.7178 O   0  0  0  0  0  0  0  0  0  0  0  0
    8.6788  -16.1441   22.7564 N   0  0  0  0  0  0  0  0  0  0  0  0
    9.9658  -16.7164   22.4473 C   0  0  1  0  0  0  0  0  0  0  0  0
   10.5483  -16.2346   21.1651 C   0  0  0  0  0  0  0  0  0  0  0  0
   11.6246  -17.0652   20.6263 C   0  0  0  0  0  0  0  0  0  0  0  0
   12.0042  -18.0491   21.3267 O   0  0  0  0  0  0  0  0  0  0  0  0
   10.8509  -16.5489   23.6105 C   0  0  0  0  0  0  0  0  0  0  0  0
   11.0320  -15.4313   24.1613 O   0  0  0  0  0  0  0  0  0  0  0  0
   12.2688  -16.8785   19.4224 O   0  0  0  0  0  0  0  0  0  0  0  0
   11.1805  -17.7272   27.8030 O   0  0  0  0  0  0  0  0  0  0  0  0
   10.8089  -17.6881   26.4461 C   0  0  0  0  0  0  0  0  0  0  0  0
   12.0474  -17.6077   25.5589 C   0  0  2  0  0  0  0  0  0  0  0  0
   11.5666  -17.6521   24.1938 N   0  0  0  0  0  0  0  0  0  0  0  0
   12.9050  -18.7776   25.8012 C   0  0  0  0  0  0  0  0  0  0  0  0
   13.7269  -18.8731   26.9102 O   0  0  0  0  0  0  0  0  0  0  0  0
   12.8998  -19.7262   24.9831 O   0  0  0  0  0  0  0  0  0  0  0  0
  2  1  1  1
  2 10  1  0
  3  2  1  0
  4  5  2  0
  4  3  1  0
  6  5  1  0
  7  6  2  0
  8  7  1  0
  8  9  2  0
  9  4  1  0
 10 11  2  0
 10 12  1  0
 12 13  1  0
 13 14  1  6
 14 15  1  0
 15 16  2  0
 15 19  1  0
 17 13  1  0
 17 18  2  0
 20 21  1  0
 22 21  1  1
 22 24  1  0
 22 23  1  0
 23 17  1  0
 24 25  1  0
 26 24  2  0
M  END
$$$$
