FDS.pdb
     RDKit          3D

 26 26  0  0  1  0  0  0  0  0999 V2000
    5.9974  -16.7793   24.5484 N   0  0  0  0  0  0  0  0  0  0  0  0
    7.1735  -15.9512   24.5890 C   0  0  1  0  0  0  0  0  0  0  0  0
    7.2986  -15.2042   25.8980 C   0  0  0  0  0  0  0  0  0  0  0  0
    6.8639  -13.8081   25.8228 C   0  0  0  0  0  0  0  0  0  0  0  0
    7.6594  -12.8562   25.2397 C   0  0  0  0  0  0  0  0  0  0  0  0
    7.2480  -11.5201   25.1659 C   0  0  0  0  0  0  0  0  0  0  0  0
    6.0333  -11.1763   25.6873 C   0  0  0  0  0  0  0  0  0  0  0  0
    5.2181  -12.1160   26.2775 C   0  0  0  0  0  0  0  0  0  0  0  0
    5.6476  -13.4394   26.3399 C   0  0  0  0  0  0  0  0  0  0  0  0
    8.3698  -16.8047   24.4583 C   0  0  0  0  0  0  0  0  0  0  0  0
    8.3737  -17.9567   24.9259 O   0  0  0  0  0  0  0  0  0  0  0  0
    9.5119  -16.3229   23.8054 N   0  0  0  0  0  0  0  0  0  0  0  0
   10.7504  -17.0500   23.6766 C   0  0  1  0  0  0  0  0  0  0  0  0
   11.7107  -16.4411   22.7161 C   0  0  0  0  0  0  0  0  0  0  0  0
   11.3267  -16.5479   21.3090 C   0  0  0  0  0  0  0  0  0  0  0  0
   11.3374  -15.4844   20.6223 O   0  0  0  0  0  0  0  0  0  0  0  0
   11.3069  -17.2801   25.0190 C   0  0  0  0  0  0  0  0  0  0  0  0
   11.6030  -16.3336   25.7946 O   0  0  0  0  0  0  0  0  0  0  0  0
   10.9522  -17.7019   20.6553 O   0  0  0  0  0  0  0  0  0  0  0  0
   10.4592  -20.4290   27.0981 O   0  0  0  0  0  0  0  0  0  0  0  0
   11.1738  -19.3998   27.7391 C   0  0  0  0  0  0  0  0  0  0  0  0
   12.2209  -18.8142   26.7966 C   0  0  2  0  0  0  0  0  0  0  0  0
   11.5485  -18.6023   25.5318 N   0  0  0  0  0  0  0  0  0  0  0  0
   13.3083  -19.7851   26.6024 C   0  0  0  0  0  0  0  0  0  0  0  0
   14.1385  -20.1799   27.6365 O   0  0  0  0  0  0  0  0  0  0  0  0
   13.4992  -20.2783   25.4669 O   0  0  0  0  0  0  0  0  0  0  0  0
  2  1  1  1
  2 10  1  0
  3  2  1  0
  4  5  2  0
  4  3  1  0
  6  5  1  0
  7  6  2  0
  8  7  1  0
  8  9  2  0
  9  4  1  0
 10 11  2  0
 10 12  1  0
 12 13  1  0
 13 14  1  6
 14 15  1  0
 15 16  2  0
 15 19  1  0
 17 13  1  0
 17 18  2  0
 20 21  1  0
 22 21  1  1
 22 24  1  0
 22 23  1  0
 23 17  1  0
 24 25  1  0
 26 24  2  0
M  END
$$$$
