FDS.pdb
     RDKit          3D

 26 26  0  0  1  0  0  0  0  0999 V2000
    5.9755  -16.5453   25.1879 N   0  0  0  0  0  0  0  0  0  0  0  0
    6.6333  -16.1584   23.9679 C   0  0  1  0  0  0  0  0  0  0  0  0
    6.7136  -14.6558   23.8166 C   0  0  0  0  0  0  0  0  0  0  0  0
    6.9057  -13.9462   25.0828 C   0  0  0  0  0  0  0  0  0  0  0  0
    8.1299  -13.4289   25.4183 C   0  0  0  0  0  0  0  0  0  0  0  0
    8.3182  -12.7500   26.6280 C   0  0  0  0  0  0  0  0  0  0  0  0
    7.2562  -12.6094   27.4755 C   0  0  0  0  0  0  0  0  0  0  0  0
    6.0176  -13.1210   27.1587 C   0  0  0  0  0  0  0  0  0  0  0  0
    5.8533  -13.7928   25.9498 C   0  0  0  0  0  0  0  0  0  0  0  0
    8.0172  -16.6695   23.9824 C   0  0  0  0  0  0  0  0  0  0  0  0
    8.3167  -17.6520   24.6829 O   0  0  0  0  0  0  0  0  0  0  0  0
    9.0056  -16.0508   23.2058 N   0  0  0  0  0  0  0  0  0  0  0  0
   10.3500  -16.5463   23.0434 C   0  0  1  0  0  0  0  0  0  0  0  0
   11.0671  -15.9732   21.8717 C   0  0  0  0  0  0  0  0  0  0  0  0
   11.9469  -16.9071   21.1701 C   0  0  0  0  0  0  0  0  0  0  0  0
   11.8288  -16.9814   19.9118 O   0  0  0  0  0  0  0  0  0  0  0  0
   11.0674  -16.3976   24.3192 C   0  0  0  0  0  0  0  0  0  0  0  0
   12.2138  -15.8815   24.3890 O   0  0  0  0  0  0  0  0  0  0  0  0
   12.8975  -17.7187   21.7507 O   0  0  0  0  0  0  0  0  0  0  0  0
    9.2866  -17.0962   28.1089 O   0  0  0  0  0  0  0  0  0  0  0  0
   10.3895  -16.2545   27.8721 C   0  0  0  0  0  0  0  0  0  0  0  0
   11.2860  -16.8465   26.7890 C   0  0  2  0  0  0  0  0  0  0  0  0
   10.5050  -16.8327   25.5697 N   0  0  0  0  0  0  0  0  0  0  0  0
   11.6166  -18.2387   27.1284 C   0  0  0  0  0  0  0  0  0  0  0  0
   12.3659  -18.5684   28.2439 O   0  0  0  0  0  0  0  0  0  0  0  0
   11.2118  -19.1663   26.3902 O   0  0  0  0  0  0  0  0  0  0  0  0
  2  1  1  1
  2 10  1  0
  3  2  1  0
  4  5  2  0
  4  3  1  0
  6  5  1  0
  7  6  2  0
  8  7  1  0
  8  9  2  0
  9  4  1  0
 10 11  2  0
 10 12  1  0
 12 13  1  0
 13 14  1  6
 14 15  1  0
 15 16  2  0
 15 19  1  0
 17 13  1  0
 17 18  2  0
 20 21  1  0
 22 21  1  1
 22 24  1  0
 22 23  1  0
 23 17  1  0
 24 25  1  0
 26 24  2  0
M  END
$$$$
