FDS.pdb
     RDKit          3D

 26 26  0  0  1  0  0  0  0  0999 V2000
    8.4434  -16.1672   15.7761 N   0  0  0  0  0  0  0  0  0  0  0  0
    8.7488  -15.3524   16.9222 C   0  0  1  0  0  0  0  0  0  0  0  0
    7.5002  -14.8681   17.6249 C   0  0  0  0  0  0  0  0  0  0  0  0
    7.7588  -14.2574   18.9302 C   0  0  0  0  0  0  0  0  0  0  0  0
    8.4323  -13.0675   19.0269 C   0  0  0  0  0  0  0  0  0  0  0  0
    8.6821  -12.4801   20.2729 C   0  0  0  0  0  0  0  0  0  0  0  0
    8.2415  -13.1148   21.3993 C   0  0  0  0  0  0  0  0  0  0  0  0
    7.5629  -14.3107   21.3256 C   0  0  0  0  0  0  0  0  0  0  0  0
    7.3256  -14.8769   20.0754 C   0  0  0  0  0  0  0  0  0  0  0  0
    9.5132  -16.1552   17.8957 C   0  0  0  0  0  0  0  0  0  0  0  0
    9.1598  -17.3157   18.1681 O   0  0  0  0  0  0  0  0  0  0  0  0
   10.6445  -15.6154   18.5213 N   0  0  0  0  0  0  0  0  0  0  0  0
   11.5115  -16.3416   19.4158 C   0  0  1  0  0  0  0  0  0  0  0  0
   12.9417  -16.3401   19.0037 C   0  0  0  0  0  0  0  0  0  0  0  0
   13.7948  -17.2767   19.7343 C   0  0  0  0  0  0  0  0  0  0  0  0
   13.2363  -18.0232   20.5907 O   0  0  0  0  0  0  0  0  0  0  0  0
   11.2807  -15.8670   20.7891 C   0  0  0  0  0  0  0  0  0  0  0  0
   11.7429  -14.7734   21.2084 O   0  0  0  0  0  0  0  0  0  0  0  0
   15.1561  -17.4254   19.5788 O   0  0  0  0  0  0  0  0  0  0  0  0
    8.7718  -17.9737   23.2060 O   0  0  0  0  0  0  0  0  0  0  0  0
    9.0513  -16.6568   23.6164 C   0  0  0  0  0  0  0  0  0  0  0  0
   10.4353  -16.2332   23.1343 C   0  0  2  0  0  0  0  0  0  0  0  0
   10.5117  -16.6224   21.7417 N   0  0  0  0  0  0  0  0  0  0  0  0
   11.4656  -16.9609   23.8905 C   0  0  0  0  0  0  0  0  0  0  0  0
   11.7154  -16.7090   25.2279 O   0  0  0  0  0  0  0  0  0  0  0  0
   12.1466  -17.8410   23.3153 O   0  0  0  0  0  0  0  0  0  0  0  0
  2  1  1  6
  2 10  1  0
  3  2  1  0
  4  5  2  0
  4  3  1  0
  6  5  1  0
  7  6  2  0
  8  7  1  0
  8  9  2  0
  9  4  1  0
 10 11  2  0
 10 12  1  0
 12 13  1  0
 13 14  1  6
 14 15  1  0
 15 16  2  0
 15 19  1  0
 17 13  1  0
 17 18  2  0
 20 21  1  0
 22 21  1  1
 22 24  1  0
 22 23  1  0
 23 17  1  0
 24 25  1  0
 26 24  2  0
M  END
$$$$
