FDS.pdb
     RDKit          3D

 26 26  0  0  1  0  0  0  0  0999 V2000
    6.7941  -18.2186   18.9117 N   0  0  0  0  0  0  0  0  0  0  0  0
    7.3861  -16.9814   19.3472 C   0  0  1  0  0  0  0  0  0  0  0  0
    6.3536  -16.0131   19.8797 C   0  0  0  0  0  0  0  0  0  0  0  0
    6.9219  -14.7522   20.3603 C   0  0  0  0  0  0  0  0  0  0  0  0
    6.8781  -14.4251   21.6908 C   0  0  0  0  0  0  0  0  0  0  0  0
    7.4199  -13.2206   22.1547 C   0  0  0  0  0  0  0  0  0  0  0  0
    7.9971  -12.3696   21.2556 C   0  0  0  0  0  0  0  0  0  0  0  0
    8.0521  -12.6779   19.9148 C   0  0  0  0  0  0  0  0  0  0  0  0
    7.5067  -13.8818   19.4755 C   0  0  0  0  0  0  0  0  0  0  0  0
    8.3310  -17.2585   20.4458 C   0  0  0  0  0  0  0  0  0  0  0  0
    7.9606  -17.8953   21.4474 O   0  0  0  0  0  0  0  0  0  0  0  0
    9.6545  -16.8057   20.3687 N   0  0  0  0  0  0  0  0  0  0  0  0
   10.6892  -17.1320   21.3185 C   0  0  1  0  0  0  0  0  0  0  0  0
   12.0652  -17.0813   20.7534 C   0  0  0  0  0  0  0  0  0  0  0  0
   12.2602  -17.8649   19.5341 C   0  0  0  0  0  0  0  0  0  0  0  0
   11.8806  -19.0725   19.5538 O   0  0  0  0  0  0  0  0  0  0  0  0
   10.5032  -16.3087   22.5236 C   0  0  0  0  0  0  0  0  0  0  0  0
   10.9788  -15.1471   22.6235 O   0  0  0  0  0  0  0  0  0  0  0  0
   12.8208  -17.4123   18.3594 O   0  0  0  0  0  0  0  0  0  0  0  0
    7.5792  -16.9996   25.1999 O   0  0  0  0  0  0  0  0  0  0  0  0
    8.3213  -15.8067   25.2842 C   0  0  0  0  0  0  0  0  0  0  0  0
    9.7817  -16.0638   24.9253 C   0  0  2  0  0  0  0  0  0  0  0  0
    9.7657  -16.7782   23.6660 N   0  0  0  0  0  0  0  0  0  0  0  0
   10.3990  -16.9180   25.9510 C   0  0  0  0  0  0  0  0  0  0  0  0
   10.6413  -16.4691   27.2372 O   0  0  0  0  0  0  0  0  0  0  0  0
   10.7208  -18.0937   25.6625 O   0  0  0  0  0  0  0  0  0  0  0  0
  2  1  1  1
  2 10  1  0
  3  2  1  0
  4  5  2  0
  4  3  1  0
  6  5  1  0
  7  6  2  0
  8  7  1  0
  8  9  2  0
  9  4  1  0
 10 11  2  0
 10 12  1  0
 12 13  1  0
 13 14  1  6
 14 15  1  0
 15 16  2  0
 15 19  1  0
 17 13  1  0
 17 18  2  0
 20 21  1  0
 22 21  1  1
 22 24  1  0
 22 23  1  0
 23 17  1  0
 24 25  1  0
 26 24  2  0
M  END
$$$$
