FDS.pdb
     RDKit          3D

 26 26  0  0  1  0  0  0  0  0999 V2000
    5.7664  -15.6474   24.0338 N   0  0  0  0  0  0  0  0  0  0  0  0
    6.8270  -15.2913   23.1287 C   0  0  1  0  0  0  0  0  0  0  0  0
    7.1298  -13.8099   23.1617 C   0  0  0  0  0  0  0  0  0  0  0  0
    7.1524  -13.2437   24.5118 C   0  0  0  0  0  0  0  0  0  0  0  0
    8.3374  -13.0612   25.1761 C   0  0  0  0  0  0  0  0  0  0  0  0
    8.3638  -12.5204   26.4671 C   0  0  0  0  0  0  0  0  0  0  0  0
    7.1825  -12.1749   27.0596 C   0  0  0  0  0  0  0  0  0  0  0  0
    5.9806  -12.3496   26.4108 C   0  0  0  0  0  0  0  0  0  0  0  0
    5.9782  -12.8892   25.1268 C   0  0  0  0  0  0  0  0  0  0  0  0
    8.0596  -15.9970   23.5277 C   0  0  0  0  0  0  0  0  0  0  0  0
    8.0346  -16.8350   24.4457 O   0  0  0  0  0  0  0  0  0  0  0  0
    9.2692  -15.7278   22.8742 N   0  0  0  0  0  0  0  0  0  0  0  0
   10.4743  -16.5046   23.0276 C   0  0  1  0  0  0  0  0  0  0  0  0
   11.5767  -16.0951   22.1152 C   0  0  0  0  0  0  0  0  0  0  0  0
   12.7678  -16.9420   22.1683 C   0  0  0  0  0  0  0  0  0  0  0  0
   12.5882  -18.1874   22.3084 O   0  0  0  0  0  0  0  0  0  0  0  0
   10.8475  -16.5248   24.4506 C   0  0  0  0  0  0  0  0  0  0  0  0
   11.2113  -15.4874   25.0644 O   0  0  0  0  0  0  0  0  0  0  0  0
   14.0741  -16.5120   22.0799 O   0  0  0  0  0  0  0  0  0  0  0  0
    9.1729  -18.8156   27.1069 O   0  0  0  0  0  0  0  0  0  0  0  0
   10.0200  -17.7520   27.4702 C   0  0  0  0  0  0  0  0  0  0  0  0
   11.2775  -17.7562   26.6065 C   0  0  2  0  0  0  0  0  0  0  0  0
   10.8207  -17.7320   25.2326 N   0  0  0  0  0  0  0  0  0  0  0  0
   12.0308  -18.9980   26.8373 C   0  0  0  0  0  0  0  0  0  0  0  0
   12.5797  -19.3102   28.0684 O   0  0  0  0  0  0  0  0  0  0  0  0
   12.1875  -19.8084   25.8951 O   0  0  0  0  0  0  0  0  0  0  0  0
  2  1  1  1
  2 10  1  0
  3  2  1  0
  4  5  2  0
  4  3  1  0
  6  5  1  0
  7  6  2  0
  8  7  1  0
  8  9  2  0
  9  4  1  0
 10 11  2  0
 10 12  1  0
 12 13  1  0
 13 14  1  6
 14 15  1  0
 15 16  2  0
 15 19  1  0
 17 13  1  0
 17 18  2  0
 20 21  1  0
 22 21  1  1
 22 24  1  0
 22 23  1  0
 23 17  1  0
 24 25  1  0
 26 24  2  0
M  END
$$$$
