FDS.pdb
     RDKit          3D

 26 26  0  0  1  0  0  0  0  0999 V2000
    8.6116  -17.3394   20.6456 N   0  0  0  0  0  0  0  0  0  0  0  0
    9.8365  -16.6086   20.8360 C   0  0  1  0  0  0  0  0  0  0  0  0
    9.6293  -15.3545   21.6554 C   0  0  0  0  0  0  0  0  0  0  0  0
    8.7699  -14.3625   21.0064 C   0  0  0  0  0  0  0  0  0  0  0  0
    9.1898  -13.6983   19.8832 C   0  0  0  0  0  0  0  0  0  0  0  0
    8.3715  -12.7489   19.2595 C   0  0  0  0  0  0  0  0  0  0  0  0
    7.1395  -12.4923   19.7905 C   0  0  0  0  0  0  0  0  0  0  0  0
    6.6975  -13.1477   20.9179 C   0  0  0  0  0  0  0  0  0  0  0  0
    7.5283  -14.0883   21.5219 C   0  0  0  0  0  0  0  0  0  0  0  0
   10.7951  -17.4559   21.5708 C   0  0  0  0  0  0  0  0  0  0  0  0
   10.3883  -18.3141   22.3731 O   0  0  0  0  0  0  0  0  0  0  0  0
   12.1727  -17.2996   21.3698 N   0  0  0  0  0  0  0  0  0  0  0  0
   13.1911  -18.0760   22.0326 C   0  0  1  0  0  0  0  0  0  0  0  0
   14.5478  -17.9237   21.4396 C   0  0  0  0  0  0  0  0  0  0  0  0
   14.6582  -18.3319   20.0397 C   0  0  0  0  0  0  0  0  0  0  0  0
   14.2412  -19.4887   19.7381 O   0  0  0  0  0  0  0  0  0  0  0  0
   13.1316  -17.8016   23.4768 C   0  0  0  0  0  0  0  0  0  0  0  0
   13.6543  -16.7763   23.9877 O   0  0  0  0  0  0  0  0  0  0  0  0
   15.1755  -17.5739   19.0116 O   0  0  0  0  0  0  0  0  0  0  0  0
   10.3236  -19.5547   25.7764 O   0  0  0  0  0  0  0  0  0  0  0  0
   10.9767  -18.3902   26.2216 C   0  0  0  0  0  0  0  0  0  0  0  0
   12.4486  -18.4214   25.8216 C   0  0  2  0  0  0  0  0  0  0  0  0
   12.4722  -18.6876   24.3985 N   0  0  0  0  0  0  0  0  0  0  0  0
   13.1278  -19.5205   26.5242 C   0  0  0  0  0  0  0  0  0  0  0  0
   13.6630  -20.6060   25.8536 O   0  0  0  0  0  0  0  0  0  0  0  0
   13.2317  -19.4838   27.7720 O   0  0  0  0  0  0  0  0  0  0  0  0
  2  1  1  1
  2 10  1  0
  3  2  1  0
  4  5  2  0
  4  3  1  0
  6  5  1  0
  7  6  2  0
  8  7  1  0
  8  9  2  0
  9  4  1  0
 10 11  2  0
 10 12  1  0
 12 13  1  0
 13 14  1  6
 14 15  1  0
 15 16  2  0
 15 19  1  0
 17 13  1  0
 17 18  2  0
 20 21  1  0
 22 21  1  1
 22 24  1  0
 22 23  1  0
 23 17  1  0
 24 25  1  0
 26 24  2  0
M  END
$$$$
