HKI.pdb
     RDKit          3D

 28 28  0  0  1  0  0  0  0  0999 V2000
   13.7231  -17.7523   21.1462 N   0  0  0  0  0  0  0  0  0  0  0  0
   12.8616  -18.0158   22.2759 C   0  0  1  0  0  0  0  0  0  0  0  0
   13.7210  -18.3386   23.4726 C   0  0  0  0  0  0  0  0  0  0  0  0
   14.0466  -19.7859   23.4341 C   0  0  0  0  0  0  0  0  0  0  0  0
   15.3177  -20.3263   23.2447 C   0  0  0  0  0  0  0  0  0  0  0  0
   15.2587  -21.6730   23.2672 N   0  0  0  0  0  0  0  0  0  0  0  0
   13.9704  -21.9767   23.4673 C   0  0  0  0  0  0  0  0  0  0  0  0
   13.2497  -20.8567   23.5665 N   0  0  0  0  0  0  0  0  0  0  0  0
   12.0112  -16.8309   22.5084 C   0  0  0  0  0  0  0  0  0  0  0  0
   12.5049  -15.7106   22.7458 O   0  0  0  0  0  0  0  0  0  0  0  0
   10.6070  -16.9615   22.4625 N   0  0  0  0  0  0  0  0  0  0  0  0
    9.6997  -15.8596   22.5340 C   0  0  1  0  0  0  0  0  0  0  0  0
    8.9569  -15.6194   21.2505 C   0  0  0  0  0  0  0  0  0  0  0  0
    8.0903  -14.4060   21.3003 C   0  0  0  0  0  0  0  0  0  0  0  0
    7.4035  -14.1377   19.9987 C   0  0  0  0  0  0  0  0  0  0  0  0
    6.8464  -12.7088   20.0840 C   0  0  0  0  0  0  0  0  0  0  0  0
    6.1362  -12.3338   18.8986 N   0  0  0  0  0  0  0  0  0  0  0  0
    8.8068  -15.9390   23.7276 C   0  0  0  0  0  0  0  0  0  0  0  0
    8.3935  -17.0589   24.0369 O   0  0  0  0  0  0  0  0  0  0  0  0
    7.3662  -10.9036   26.0949 C   0  0  0  0  0  0  0  0  0  0  0  0
    7.9721  -12.2804   26.0233 C   0  0  0  0  0  0  0  0  0  0  0  0
    6.9919  -13.3898   25.8604 C   0  0  2  0  0  0  0  0  0  0  0  0
    6.0460  -13.3825   27.0647 C   0  0  0  0  0  0  0  0  0  0  0  0
    7.5508  -14.7408   25.6017 C   0  0  2  0  0  0  0  0  0  0  0  0
    8.4368  -14.8071   24.4856 N   0  0  0  0  0  0  0  0  0  0  0  0
    6.5931  -15.8723   25.7254 C   0  0  0  0  0  0  0  0  0  0  0  0
    5.7393  -16.2715   24.7062 O   0  0  0  0  0  0  0  0  0  0  0  0
    6.4880  -16.5547   26.7750 O   0  0  0  0  0  0  0  0  0  0  0  0
  2  1  1  6
  2  3  1  0
  2  9  1  0
  3  4  1  0
  4  5  2  0
  6  5  1  0
  7  6  1  0
  8  4  1  0
  8  7  2  0
  9 11  1  0
  9 10  2  0
 11 12  1  0
 12 13  1  6
 14 13  1  0
 15 14  1  0
 15 16  1  0
 17 16  1  0
 18 12  1  0
 18 19  2  0
 20 21  1  0
 21 22  1  0
 22 23  1  1
 22 24  1  0
 24 25  1  6
 25 18  1  0
 26 24  1  0
 27 26  1  0
 28 26  2  0
M  END
$$$$
