HKI.pdb
     RDKit          3D

 28 28  0  0  1  0  0  0  0  0999 V2000
    7.2648  -16.4951   18.9666 N   0  0  0  0  0  0  0  0  0  0  0  0
    7.9496  -15.4752   19.7273 C   0  0  1  0  0  0  0  0  0  0  0  0
    7.5954  -14.1262   19.1531 C   0  0  0  0  0  0  0  0  0  0  0  0
    7.9673  -14.1204   17.7165 C   0  0  0  0  0  0  0  0  0  0  0  0
    7.2846  -13.4464   16.7049 C   0  0  0  0  0  0  0  0  0  0  0  0
    7.8915  -13.6503   15.5184 N   0  0  0  0  0  0  0  0  0  0  0  0
    8.9402  -14.4408   15.7782 C   0  0  0  0  0  0  0  0  0  0  0  0
    8.9861  -14.7205   17.0832 N   0  0  0  0  0  0  0  0  0  0  0  0
    7.5518  -15.5954   21.1445 C   0  0  0  0  0  0  0  0  0  0  0  0
    6.7246  -14.8160   21.6578 O   0  0  0  0  0  0  0  0  0  0  0  0
    8.1163  -16.6131   21.9425 N   0  0  0  0  0  0  0  0  0  0  0  0
    7.7383  -16.8678   23.2970 C   0  0  1  0  0  0  0  0  0  0  0  0
    7.7107  -18.3303   23.6395 C   0  0  0  0  0  0  0  0  0  0  0  0
    6.7674  -19.1083   22.7847 C   0  0  0  0  0  0  0  0  0  0  0  0
    6.6791  -20.5459   23.1893 C   0  0  0  0  0  0  0  0  0  0  0  0
    5.7565  -21.2315   22.1705 C   0  0  0  0  0  0  0  0  0  0  0  0
    6.3482  -22.4102   21.6129 N   0  0  0  0  0  0  0  0  0  0  0  0
    8.5237  -16.0485   24.2667 C   0  0  0  0  0  0  0  0  0  0  0  0
    9.7470  -16.0285   24.1119 O   0  0  0  0  0  0  0  0  0  0  0  0
    6.0853  -11.9226   27.7698 C   0  0  0  0  0  0  0  0  0  0  0  0
    6.6378  -13.2688   27.3818 C   0  0  0  0  0  0  0  0  0  0  0  0
    7.8919  -13.2251   26.5796 C   0  0  2  0  0  0  0  0  0  0  0  0
    7.6148  -12.4515   25.2874 C   0  0  0  0  0  0  0  0  0  0  0  0
    8.5605  -14.5243   26.3163 C   0  0  2  0  0  0  0  0  0  0  0  0
    7.9252  -15.3212   25.3181 N   0  0  0  0  0  0  0  0  0  0  0  0
    9.0357  -15.2630   27.5168 C   0  0  0  0  0  0  0  0  0  0  0  0
    9.8559  -14.7051   28.4879 O   0  0  0  0  0  0  0  0  0  0  0  0
    8.7242  -16.4598   27.7388 O   0  0  0  0  0  0  0  0  0  0  0  0
  2  1  1  6
  2  3  1  0
  2  9  1  0
  3  4  1  0
  4  5  2  0
  6  5  1  0
  7  6  1  0
  8  4  1  0
  8  7  2  0
  9 11  1  0
  9 10  2  0
 11 12  1  0
 12 13  1  1
 14 13  1  0
 15 14  1  0
 15 16  1  0
 17 16  1  0
 18 12  1  0
 18 19  2  0
 20 21  1  0
 21 22  1  0
 22 23  1  6
 22 24  1  0
 24 25  1  1
 25 18  1  0
 26 24  1  0
 27 26  1  0
 28 26  2  0
M  END
$$$$
