HKI.pdb
     RDKit          3D

 28 28  0  0  1  0  0  0  0  0999 V2000
    8.5064  -16.1708   19.9634 N   0  0  0  0  0  0  0  0  0  0  0  0
    8.0128  -15.0323   20.7037 C   0  0  1  0  0  0  0  0  0  0  0  0
    6.8094  -14.4751   19.9854 C   0  0  0  0  0  0  0  0  0  0  0  0
    7.2059  -14.1582   18.5910 C   0  0  0  0  0  0  0  0  0  0  0  0
    7.8639  -13.0005   18.1783 C   0  0  0  0  0  0  0  0  0  0  0  0
    8.0750  -13.0347   16.8471 N   0  0  0  0  0  0  0  0  0  0  0  0
    7.5576  -14.1959   16.4274 C   0  0  0  0  0  0  0  0  0  0  0  0
    7.0414  -14.8638   17.4621 N   0  0  0  0  0  0  0  0  0  0  0  0
    7.6859  -15.4670   22.0769 C   0  0  0  0  0  0  0  0  0  0  0  0
    7.0194  -14.7474   22.8471 O   0  0  0  0  0  0  0  0  0  0  0  0
    8.1343  -16.7240   22.5349 N   0  0  0  0  0  0  0  0  0  0  0  0
    7.9455  -17.2017   23.8686 C   0  0  1  0  0  0  0  0  0  0  0  0
    8.0902  -18.6921   23.9902 C   0  0  0  0  0  0  0  0  0  0  0  0
    7.9640  -19.1742   25.3964 C   0  0  0  0  0  0  0  0  0  0  0  0
    8.0582  -20.6634   25.5030 C   0  0  0  0  0  0  0  0  0  0  0  0
    7.8282  -21.0120   26.9811 C   0  0  0  0  0  0  0  0  0  0  0  0
    6.4712  -20.7949   27.3829 N   0  0  0  0  0  0  0  0  0  0  0  0
    8.7645  -16.4455   24.8613 C   0  0  0  0  0  0  0  0  0  0  0  0
    9.9803  -16.4033   24.6591 O   0  0  0  0  0  0  0  0  0  0  0  0
    6.4131  -12.0518   26.6056 C   0  0  0  0  0  0  0  0  0  0  0  0
    7.5521  -12.9576   26.2180 C   0  0  0  0  0  0  0  0  0  0  0  0
    8.1234  -13.7606   27.3348 C   0  0  2  0  0  0  0  0  0  0  0  0
    8.9646  -12.8344   28.2177 C   0  0  0  0  0  0  0  0  0  0  0  0
    8.8625  -14.9925   26.9600 C   0  0  2  0  0  0  0  0  0  0  0  0
    8.2048  -15.7994   25.9847 N   0  0  0  0  0  0  0  0  0  0  0  0
    9.4942  -15.7355   28.0833 C   0  0  0  0  0  0  0  0  0  0  0  0
   10.6630  -15.3292   28.7126 O   0  0  0  0  0  0  0  0  0  0  0  0
    9.0082  -16.7972   28.5469 O   0  0  0  0  0  0  0  0  0  0  0  0
  2  1  1  6
  2  3  1  0
  2  9  1  0
  3  4  1  0
  4  5  2  0
  6  5  1  0
  7  6  1  0
  8  4  1  0
  8  7  2  0
  9 11  1  0
  9 10  2  0
 11 12  1  0
 12 13  1  6
 14 13  1  0
 15 14  1  0
 15 16  1  0
 17 16  1  0
 18 12  1  0
 18 19  2  0
 20 21  1  0
 21 22  1  0
 22 23  1  6
 22 24  1  0
 24 25  1  1
 25 18  1  0
 26 24  1  0
 27 26  1  0
 28 26  2  0
M  END
$$$$
