HKI.pdb
     RDKit          3D

 28 28  0  0  1  0  0  0  0  0999 V2000
    8.5864  -16.2953   19.4089 N   0  0  0  0  0  0  0  0  0  0  0  0
    7.8544  -15.1973   19.9973 C   0  0  1  0  0  0  0  0  0  0  0  0
    6.6546  -14.8996   19.1332 C   0  0  0  0  0  0  0  0  0  0  0  0
    7.1383  -14.4877   17.7922 C   0  0  0  0  0  0  0  0  0  0  0  0
    8.4740  -14.4097   17.4007 C   0  0  0  0  0  0  0  0  0  0  0  0
    8.5598  -14.0055   16.1173 N   0  0  0  0  0  0  0  0  0  0  0  0
    7.2977  -13.8311   15.7065 C   0  0  0  0  0  0  0  0  0  0  0  0
    6.4528  -14.1172   16.7003 N   0  0  0  0  0  0  0  0  0  0  0  0
    7.4671  -15.5705   21.3728 C   0  0  0  0  0  0  0  0  0  0  0  0
    6.5432  -14.9848   21.9716 O   0  0  0  0  0  0  0  0  0  0  0  0
    8.1536  -16.6128   22.0311 N   0  0  0  0  0  0  0  0  0  0  0  0
    7.9975  -16.9207   23.4180 C   0  0  1  0  0  0  0  0  0  0  0  0
    8.1370  -18.3860   23.7190 C   0  0  0  0  0  0  0  0  0  0  0  0
    7.9287  -18.7040   25.1617 C   0  0  0  0  0  0  0  0  0  0  0  0
    8.0651  -20.1651   25.4525 C   0  0  0  0  0  0  0  0  0  0  0  0
    7.6696  -20.3573   26.9242 C   0  0  0  0  0  0  0  0  0  0  0  0
    7.7157  -21.7322   27.3212 N   0  0  0  0  0  0  0  0  0  0  0  0
    8.8468  -16.0551   24.2884 C   0  0  0  0  0  0  0  0  0  0  0  0
    9.7461  -15.4216   23.7310 O   0  0  0  0  0  0  0  0  0  0  0  0
    6.8077  -11.5565   26.9970 C   0  0  0  0  0  0  0  0  0  0  0  0
    8.0609  -12.3582   26.7632 C   0  0  0  0  0  0  0  0  0  0  0  0
    7.8499  -13.6714   26.0928 C   0  0  2  0  0  0  0  0  0  0  0  0
    6.3733  -14.0539   26.2284 C   0  0  0  0  0  0  0  0  0  0  0  0
    8.7501  -14.7798   26.4996 C   0  0  2  0  0  0  0  0  0  0  0  0
    8.6546  -15.9453   25.6825 N   0  0  0  0  0  0  0  0  0  0  0  0
    8.8473  -15.0313   27.9625 C   0  0  0  0  0  0  0  0  0  0  0  0
    8.6670  -16.2800   28.5414 O   0  0  0  0  0  0  0  0  0  0  0  0
    9.1022  -14.1188   28.7877 O   0  0  0  0  0  0  0  0  0  0  0  0
  2  1  1  6
  2  3  1  0
  2  9  1  0
  3  4  1  0
  4  5  2  0
  6  5  1  0
  7  6  1  0
  8  4  1  0
  8  7  2  0
  9 11  1  0
  9 10  2  0
 11 12  1  0
 12 13  1  6
 14 13  1  0
 15 14  1  0
 15 16  1  0
 17 16  1  0
 18 12  1  0
 18 19  2  0
 20 21  1  0
 21 22  1  0
 22 23  1  1
 22 24  1  0
 24 25  1  6
 25 18  1  0
 26 24  1  0
 27 26  1  0
 28 26  2  0
M  END
$$$$
