HKI.pdb
     RDKit          3D

 28 28  0  0  1  0  0  0  0  0999 V2000
    8.7584  -14.3670   18.6058 N   0  0  0  0  0  0  0  0  0  0  0  0
    9.5514  -14.7963   19.7348 C   0  0  1  0  0  0  0  0  0  0  0  0
   10.5989  -13.7478   20.0148 C   0  0  0  0  0  0  0  0  0  0  0  0
   11.8725  -14.1851   19.3911 C   0  0  0  0  0  0  0  0  0  0  0  0
   12.0368  -14.5562   18.0574 C   0  0  0  0  0  0  0  0  0  0  0  0
   13.3207  -14.8945   17.8235 N   0  0  0  0  0  0  0  0  0  0  0  0
   13.9557  -14.7393   18.9918 C   0  0  0  0  0  0  0  0  0  0  0  0
   13.0966  -14.3180   19.9233 N   0  0  0  0  0  0  0  0  0  0  0  0
    8.6551  -15.0058   20.8898 C   0  0  0  0  0  0  0  0  0  0  0  0
    7.8339  -14.1366   21.2437 O   0  0  0  0  0  0  0  0  0  0  0  0
    8.7238  -16.2145   21.6145 N   0  0  0  0  0  0  0  0  0  0  0  0
    7.9066  -16.5133   22.7483 C   0  0  1  0  0  0  0  0  0  0  0  0
    7.6048  -17.9780   22.8917 C   0  0  0  0  0  0  0  0  0  0  0  0
    6.8829  -18.5395   21.7130 C   0  0  0  0  0  0  0  0  0  0  0  0
    6.7823  -20.0314   21.7593 C   0  0  0  0  0  0  0  0  0  0  0  0
    5.9814  -20.4548   20.5189 C   0  0  0  0  0  0  0  0  0  0  0  0
    5.7936  -21.8728   20.4548 N   0  0  0  0  0  0  0  0  0  0  0  0
    8.4289  -15.8921   24.0011 C   0  0  0  0  0  0  0  0  0  0  0  0
    9.6547  -15.8521   24.1304 O   0  0  0  0  0  0  0  0  0  0  0  0
    5.7798  -11.5805   25.9984 C   0  0  0  0  0  0  0  0  0  0  0  0
    6.7726  -12.6368   25.5902 C   0  0  0  0  0  0  0  0  0  0  0  0
    7.1139  -13.6219   26.6539 C   0  0  2  0  0  0  0  0  0  0  0  0
    7.7110  -12.8645   27.8434 C   0  0  0  0  0  0  0  0  0  0  0  0
    7.9581  -14.7743   26.2492 C   0  0  2  0  0  0  0  0  0  0  0  0
    7.5876  -15.3670   25.0057 N   0  0  0  0  0  0  0  0  0  0  0  0
    8.3109  -15.7304   27.3328 C   0  0  0  0  0  0  0  0  0  0  0  0
    9.2377  -15.4553   28.3290 O   0  0  0  0  0  0  0  0  0  0  0  0
    7.7884  -16.8694   27.4232 O   0  0  0  0  0  0  0  0  0  0  0  0
  2  1  1  6
  2  3  1  0
  2  9  1  0
  3  4  1  0
  4  5  2  0
  6  5  1  0
  7  6  1  0
  8  4  1  0
  8  7  2  0
  9 11  1  0
  9 10  2  0
 11 12  1  0
 12 13  1  1
 14 13  1  0
 15 14  1  0
 15 16  1  0
 17 16  1  0
 18 12  1  0
 18 19  2  0
 20 21  1  0
 21 22  1  0
 22 23  1  1
 22 24  1  0
 24 25  1  6
 25 18  1  0
 26 24  1  0
 27 26  1  0
 28 26  2  0
M  END
$$$$
