HKI.pdb
     RDKit          3D

 28 28  0  0  1  0  0  0  0  0999 V2000
    6.4751  -17.0792   19.4324 N   0  0  0  0  0  0  0  0  0  0  0  0
    7.2350  -16.1679   20.2570 C   0  0  1  0  0  0  0  0  0  0  0  0
    6.7620  -14.7620   19.9841 C   0  0  0  0  0  0  0  0  0  0  0  0
    7.4504  -14.2682   18.7658 C   0  0  0  0  0  0  0  0  0  0  0  0
    8.3861  -14.9812   18.0179 C   0  0  0  0  0  0  0  0  0  0  0  0
    8.8104  -14.2399   16.9747 N   0  0  0  0  0  0  0  0  0  0  0  0
    8.1524  -13.0775   17.0641 C   0  0  0  0  0  0  0  0  0  0  0  0
    7.3445  -13.0933   18.1273 N   0  0  0  0  0  0  0  0  0  0  0  0
    7.0538  -16.5481   21.6726 C   0  0  0  0  0  0  0  0  0  0  0  0
    5.9295  -16.5366   22.2118 O   0  0  0  0  0  0  0  0  0  0  0  0
    8.1739  -16.9344   22.4389 N   0  0  0  0  0  0  0  0  0  0  0  0
    8.1135  -17.2762   23.8253 C   0  0  1  0  0  0  0  0  0  0  0  0
    8.5644  -18.6808   24.1095 C   0  0  0  0  0  0  0  0  0  0  0  0
    8.5886  -18.9983   25.5670 C   0  0  0  0  0  0  0  0  0  0  0  0
    8.9802  -20.4164   25.8387 C   0  0  0  0  0  0  0  0  0  0  0  0
    8.9442  -20.5960   27.3638 C   0  0  0  0  0  0  0  0  0  0  0  0
    9.1963  -21.9501   27.7547 N   0  0  0  0  0  0  0  0  0  0  0  0
    8.7784  -16.2560   24.6886 C   0  0  0  0  0  0  0  0  0  0  0  0
    9.9366  -15.9512   24.3944 O   0  0  0  0  0  0  0  0  0  0  0  0
    6.2624  -11.7676   26.1759 C   0  0  0  0  0  0  0  0  0  0  0  0
    7.2704  -12.8369   25.8464 C   0  0  0  0  0  0  0  0  0  0  0  0
    7.8253  -13.5605   27.0240 C   0  0  2  0  0  0  0  0  0  0  0  0
    8.5236  -12.5449   27.9329 C   0  0  0  0  0  0  0  0  0  0  0  0
    8.6875  -14.7353   26.7391 C   0  0  2  0  0  0  0  0  0  0  0  0
    8.1396  -15.6513   25.7927 N   0  0  0  0  0  0  0  0  0  0  0  0
    9.3485  -15.3546   27.9190 C   0  0  0  0  0  0  0  0  0  0  0  0
   10.4301  -14.7880   28.5795 O   0  0  0  0  0  0  0  0  0  0  0  0
    8.9697  -16.4488   28.4066 O   0  0  0  0  0  0  0  0  0  0  0  0
  2  1  1  6
  2  3  1  0
  2  9  1  0
  3  4  1  0
  4  5  2  0
  6  5  1  0
  7  6  1  0
  8  4  1  0
  8  7  2  0
  9 11  1  0
  9 10  2  0
 11 12  1  0
 12 13  1  6
 14 13  1  0
 15 14  1  0
 15 16  1  0
 17 16  1  0
 18 12  1  0
 18 19  2  0
 20 21  1  0
 21 22  1  0
 22 23  1  6
 22 24  1  0
 24 25  1  1
 25 18  1  0
 26 24  1  0
 27 26  1  0
 28 26  2  0
M  END
$$$$
