YPP.pdb
     RDKit          3D

 27 29  0  0  1  0  0  0  0  0999 V2000
   12.5770  -17.4004   30.8334 O   0  0  0  0  0  0  0  0  0  0  0  0
   11.4508  -16.8379   30.2263 C   0  0  0  0  0  0  0  0  0  0  0  0
   11.1430  -15.5043   30.3479 C   0  0  0  0  0  0  0  0  0  0  0  0
   10.0157  -14.9709   29.7329 C   0  0  0  0  0  0  0  0  0  0  0  0
    9.1627  -15.7497   28.9795 C   0  0  0  0  0  0  0  0  0  0  0  0
    7.9730  -15.2009   28.3279 C   0  0  0  0  0  0  0  0  0  0  0  0
    7.1441  -16.2097   27.5767 C   0  0  2  0  0  0  0  0  0  0  0  0
    7.6640  -17.5290   27.6120 N   0  0  0  0  0  0  0  0  0  0  0  0
    6.8062  -15.8046   26.2201 C   0  0  0  0  0  0  0  0  0  0  0  0
    6.2942  -16.7029   25.4737 O   0  0  0  0  0  0  0  0  0  0  0  0
    9.4779  -17.0877   28.8617 C   0  0  0  0  0  0  0  0  0  0  0  0
   10.6073  -17.6277   29.4765 C   0  0  0  0  0  0  0  0  0  0  0  0
    6.9936  -14.5225   25.6691 N   0  0  0  0  0  0  0  0  0  0  0  0
    7.4845  -13.3710   26.4425 C   0  0  0  0  0  0  0  0  0  0  0  0
    6.5677  -12.2728   25.9821 C   0  0  0  0  0  0  0  0  0  0  0  0
    6.5697  -12.5001   24.4826 C   0  0  0  0  0  0  0  0  0  0  0  0
    6.8028  -13.9917   24.3380 C   0  0  1  0  0  0  0  0  0  0  0  0
    7.9686  -14.2662   23.4608 C   0  0  0  0  0  0  0  0  0  0  0  0
    9.0243  -14.6549   24.0337 O   0  0  0  0  0  0  0  0  0  0  0  0
    7.9635  -14.1223   22.0696 N   0  0  0  0  0  0  0  0  0  0  0  0
    7.3039  -13.0350   21.3531 C   0  0  0  0  0  0  0  0  0  0  0  0
    6.8499  -13.6185   20.0429 C   0  0  0  0  0  0  0  0  0  0  0  0
    7.4496  -14.9934   19.9628 C   0  0  0  0  0  0  0  0  0  0  0  0
    8.5528  -14.9230   21.0120 C   0  0  1  0  0  0  0  0  0  0  0  0
    9.7606  -14.3255   20.4483 C   0  0  0  0  0  0  0  0  0  0  0  0
   10.5549  -14.9810   19.7327 O   0  0  0  0  0  0  0  0  0  0  0  0
   10.0513  -12.9981   20.7018 O   0  0  0  0  0  0  0  0  0  0  0  0
  2  1  1  0
  3  2  2  0
  4  3  1  0
  5 11  1  0
  5  4  2  0
  6  5  1  0
  7  6  1  0
  7  8  1  6
  9 13  1  0
  9  7  1  0
 10  9  2  0
 11 12  2  0
 12  2  1  0
 13 17  1  0
 14 13  1  0
 14 15  1  0
 15 16  1  0
 17 16  1  0
 18 20  1  0
 17 18  1  6
 19 18  2  0
 20 21  1  0
 22 21  1  0
 23 22  1  0
 24 23  1  0
 24 20  1  0
 24 25  1  6
 26 25  2  0
 27 25  1  0
M  END
$$$$
