YPP.pdb
     RDKit          3D

 27 29  0  0  1  0  0  0  0  0999 V2000
   12.4130  -14.9565   29.2065 O   0  0  0  0  0  0  0  0  0  0  0  0
   11.0697  -15.2122   28.9180 C   0  0  0  0  0  0  0  0  0  0  0  0
   10.2830  -14.3136   28.2386 C   0  0  0  0  0  0  0  0  0  0  0  0
    8.9488  -14.5940   27.9649 C   0  0  0  0  0  0  0  0  0  0  0  0
    8.3597  -15.7767   28.3598 C   0  0  0  0  0  0  0  0  0  0  0  0
    6.9568  -16.0835   28.0787 C   0  0  0  0  0  0  0  0  0  0  0  0
    6.7359  -17.0073   26.9097 C   0  0  2  0  0  0  0  0  0  0  0  0
    7.7297  -18.0094   26.7665 N   0  0  0  0  0  0  0  0  0  0  0  0
    6.4858  -16.3194   25.6516 C   0  0  0  0  0  0  0  0  0  0  0  0
    5.8072  -16.9605   24.7829 O   0  0  0  0  0  0  0  0  0  0  0  0
    9.1554  -16.6741   29.0414 C   0  0  0  0  0  0  0  0  0  0  0  0
   10.4941  -16.3979   29.3185 C   0  0  0  0  0  0  0  0  0  0  0  0
    6.9229  -15.0235   25.3166 N   0  0  0  0  0  0  0  0  0  0  0  0
    7.5737  -14.1144   26.2732 C   0  0  0  0  0  0  0  0  0  0  0  0
    6.8886  -12.8097   25.9785 C   0  0  0  0  0  0  0  0  0  0  0  0
    6.9199  -12.7992   24.4622 C   0  0  0  0  0  0  0  0  0  0  0  0
    6.8913  -14.2678   24.0846 C   0  0  1  0  0  0  0  0  0  0  0  0
    8.0295  -14.6116   23.1956 C   0  0  0  0  0  0  0  0  0  0  0  0
    8.8854  -15.4136   23.6624 O   0  0  0  0  0  0  0  0  0  0  0  0
    8.2026  -14.1096   21.9017 N   0  0  0  0  0  0  0  0  0  0  0  0
    7.6986  -12.8196   21.4407 C   0  0  0  0  0  0  0  0  0  0  0  0
    7.3757  -12.9989   19.9824 C   0  0  0  0  0  0  0  0  0  0  0  0
    7.9014  -14.3521   19.5969 C   0  0  0  0  0  0  0  0  0  0  0  0
    8.8702  -14.6549   20.7337 C   0  0  1  0  0  0  0  0  0  0  0  0
   10.1699  -14.0390   20.4789 C   0  0  0  0  0  0  0  0  0  0  0  0
   10.4812  -12.9217   20.9557 O   0  0  0  0  0  0  0  0  0  0  0  0
   11.0964  -14.6949   19.6900 O   0  0  0  0  0  0  0  0  0  0  0  0
  2  1  1  0
  3  2  2  0
  4  3  1  0
  5 11  1  0
  5  4  2  0
  6  5  1  0
  7  6  1  0
  7  8  1  6
  9 13  1  0
  9  7  1  0
 10  9  2  0
 11 12  2  0
 12  2  1  0
 13 17  1  0
 14 13  1  0
 14 15  1  0
 15 16  1  0
 17 16  1  0
 18 20  1  0
 17 18  1  6
 19 18  2  0
 20 21  1  0
 22 21  1  0
 23 22  1  0
 24 23  1  0
 24 20  1  0
 24 25  1  6
 26 25  2  0
 27 25  1  0
M  END
$$$$
