YPP.pdb
     RDKit          3D

 27 29  0  0  1  0  0  0  0  0999 V2000
   10.8180  -15.1556   30.5286 O   0  0  0  0  0  0  0  0  0  0  0  0
   10.3079  -15.0059   29.2361 C   0  0  0  0  0  0  0  0  0  0  0  0
    9.8352  -13.8027   28.7706 C   0  0  0  0  0  0  0  0  0  0  0  0
    9.3329  -13.6821   27.4794 C   0  0  0  0  0  0  0  0  0  0  0  0
    9.2869  -14.7558   26.6152 C   0  0  0  0  0  0  0  0  0  0  0  0
    8.7603  -14.6423   25.2547 C   0  0  0  0  0  0  0  0  0  0  0  0
    7.3749  -15.2027   25.0666 C   0  0  2  0  0  0  0  0  0  0  0  0
    7.0198  -16.2005   26.0103 N   0  0  0  0  0  0  0  0  0  0  0  0
    7.0898  -15.6299   23.7047 C   0  0  0  0  0  0  0  0  0  0  0  0
    6.3949  -16.6918   23.5798 O   0  0  0  0  0  0  0  0  0  0  0  0
    9.7632  -15.9606   27.0893 C   0  0  0  0  0  0  0  0  0  0  0  0
   10.2680  -16.0869   28.3833 C   0  0  0  0  0  0  0  0  0  0  0  0
    7.5098  -14.9790   22.5288 N   0  0  0  0  0  0  0  0  0  0  0  0
    8.1494  -13.6538   22.5196 C   0  0  0  0  0  0  0  0  0  0  0  0
    7.4471  -12.9771   21.3761 C   0  0  0  0  0  0  0  0  0  0  0  0
    7.4775  -14.0711   20.3261 C   0  0  0  0  0  0  0  0  0  0  0  0
    7.4677  -15.3548   21.1336 C   0  0  1  0  0  0  0  0  0  0  0  0
    8.6097  -16.2272   20.7611 C   0  0  0  0  0  0  0  0  0  0  0  0
    9.6522  -16.1199   21.4649 O   0  0  0  0  0  0  0  0  0  0  0  0
    8.5961  -17.1390   19.7006 N   0  0  0  0  0  0  0  0  0  0  0  0
    7.6247  -17.1260   18.6112 C   0  0  0  0  0  0  0  0  0  0  0  0
    7.4369  -18.5629   18.2073 C   0  0  0  0  0  0  0  0  0  0  0  0
    8.4739  -19.3507   18.9557 C   0  0  0  0  0  0  0  0  0  0  0  0
    9.4549  -18.2649   19.3817 C   0  0  1  0  0  0  0  0  0  0  0  0
   10.4003  -17.9760   18.3064 C   0  0  0  0  0  0  0  0  0  0  0  0
   11.4281  -18.6700   18.1205 O   0  0  0  0  0  0  0  0  0  0  0  0
   10.1695  -16.9085   17.4591 O   0  0  0  0  0  0  0  0  0  0  0  0
  2  1  1  0
  3  2  2  0
  4  3  1  0
  5 11  1  0
  5  4  2  0
  6  5  1  0
  7  6  1  0
  7  8  1  1
  9 13  1  0
  9  7  1  0
 10  9  2  0
 11 12  2  0
 12  2  1  0
 13 17  1  0
 14 13  1  0
 14 15  1  0
 15 16  1  0
 17 16  1  0
 18 20  1  0
 17 18  1  6
 19 18  2  0
 20 21  1  0
 22 21  1  0
 23 22  1  0
 24 23  1  0
 24 20  1  0
 24 25  1  6
 26 25  2  0
 27 25  1  0
M  END
$$$$
