YPP.pdb
     RDKit          3D

 27 29  0  0  1  0  0  0  0  0999 V2000
   11.8697  -15.5147   29.3188 O   0  0  0  0  0  0  0  0  0  0  0  0
   10.6819  -15.3661   28.5974 C   0  0  0  0  0  0  0  0  0  0  0  0
    9.9413  -16.4442   28.1766 C   0  0  0  0  0  0  0  0  0  0  0  0
    8.7627  -16.2672   27.4602 C   0  0  0  0  0  0  0  0  0  0  0  0
    8.2879  -15.0122   27.1422 C   0  0  0  0  0  0  0  0  0  0  0  0
    7.0497  -14.8124   26.3884 C   0  0  0  0  0  0  0  0  0  0  0  0
    6.6394  -15.9802   25.5300 C   0  0  2  0  0  0  0  0  0  0  0  0
    7.2458  -17.2095   25.8948 N   0  0  0  0  0  0  0  0  0  0  0  0
    6.7533  -15.7318   24.1003 C   0  0  0  0  0  0  0  0  0  0  0  0
    6.3270  -16.6553   23.3312 O   0  0  0  0  0  0  0  0  0  0  0  0
    9.0365  -13.9344   27.5679 C   0  0  0  0  0  0  0  0  0  0  0  0
   10.2192  -14.1063   28.2868 C   0  0  0  0  0  0  0  0  0  0  0  0
    7.2866  -14.5741   23.5020 N   0  0  0  0  0  0  0  0  0  0  0  0
    7.8999  -13.4757   24.2653 C   0  0  0  0  0  0  0  0  0  0  0  0
    7.3137  -12.2652   23.5947 C   0  0  0  0  0  0  0  0  0  0  0  0
    7.4767  -12.6335   22.1326 C   0  0  0  0  0  0  0  0  0  0  0  0
    7.4023  -14.1483   22.1254 C   0  0  1  0  0  0  0  0  0  0  0  0
    8.5932  -14.7371   21.4627 C   0  0  0  0  0  0  0  0  0  0  0  0
    9.3652  -15.4171   22.1943 O   0  0  0  0  0  0  0  0  0  0  0  0
    8.9004  -14.5849   20.1068 N   0  0  0  0  0  0  0  0  0  0  0  0
    8.4018  -13.5040   19.2621 C   0  0  0  0  0  0  0  0  0  0  0  0
    8.2658  -14.0867   17.8818 C   0  0  0  0  0  0  0  0  0  0  0  0
    8.8913  -15.4513   17.9364 C   0  0  0  0  0  0  0  0  0  0  0  0
    9.7271  -15.3697   19.2081 C   0  0  1  0  0  0  0  0  0  0  0  0
   11.0208  -14.7496   18.9336 C   0  0  0  0  0  0  0  0  0  0  0  0
   11.9264  -15.3500   18.3073 O   0  0  0  0  0  0  0  0  0  0  0  0
   11.2706  -13.4623   19.3709 O   0  0  0  0  0  0  0  0  0  0  0  0
  2  1  1  0
  3  2  2  0
  4  3  1  0
  5 11  1  0
  5  4  2  0
  6  5  1  0
  7  6  1  0
  7  8  1  1
  9 13  1  0
  9  7  1  0
 10  9  2  0
 11 12  2  0
 12  2  1  0
 13 17  1  0
 14 13  1  0
 14 15  1  0
 15 16  1  0
 17 16  1  0
 18 20  1  0
 17 18  1  1
 19 18  2  0
 20 21  1  0
 22 21  1  0
 23 22  1  0
 24 23  1  0
 24 20  1  0
 24 25  1  6
 26 25  2  0
 27 25  1  0
M  END
$$$$
