YPP.pdb
     RDKit          3D

 27 29  0  0  1  0  0  0  0  0999 V2000
   12.6192  -16.1634   30.0654 O   0  0  0  0  0  0  0  0  0  0  0  0
   11.2953  -16.0554   29.6309 C   0  0  0  0  0  0  0  0  0  0  0  0
   10.8090  -14.9131   29.0422 C   0  0  0  0  0  0  0  0  0  0  0  0
    9.4868  -14.8331   28.6190 C   0  0  0  0  0  0  0  0  0  0  0  0
    8.6112  -15.8878   28.7698 C   0  0  0  0  0  0  0  0  0  0  0  0
    7.2176  -15.8161   28.3294 C   0  0  0  0  0  0  0  0  0  0  0  0
    6.8466  -16.7988   27.2498 C   0  0  2  0  0  0  0  0  0  0  0  0
    7.7090  -17.9219   27.1666 N   0  0  0  0  0  0  0  0  0  0  0  0
    6.6339  -16.1907   25.9446 C   0  0  0  0  0  0  0  0  0  0  0  0
    6.0511  -16.9157   25.0723 O   0  0  0  0  0  0  0  0  0  0  0  0
    9.1063  -17.0314   29.3616 C   0  0  0  0  0  0  0  0  0  0  0  0
   10.4315  -17.1169   29.7878 C   0  0  0  0  0  0  0  0  0  0  0  0
    7.0112  -14.8874   25.5681 N   0  0  0  0  0  0  0  0  0  0  0  0
    7.6319  -13.9242   26.4912 C   0  0  0  0  0  0  0  0  0  0  0  0
    6.8882  -12.6590   26.1676 C   0  0  0  0  0  0  0  0  0  0  0  0
    6.9036  -12.6908   24.6514 C   0  0  0  0  0  0  0  0  0  0  0  0
    6.9345  -14.1695   24.3157 C   0  0  1  0  0  0  0  0  0  0  0  0
    8.0774  -14.4896   23.4239 C   0  0  0  0  0  0  0  0  0  0  0  0
    9.0127  -15.1694   23.9304 O   0  0  0  0  0  0  0  0  0  0  0  0
    8.1737  -14.0905   22.0869 N   0  0  0  0  0  0  0  0  0  0  0  0
    7.6372  -12.8412   21.5560 C   0  0  0  0  0  0  0  0  0  0  0  0
    7.2327  -13.1346   20.1370 C   0  0  0  0  0  0  0  0  0  0  0  0
    7.7429  -14.5134   19.8292 C   0  0  0  0  0  0  0  0  0  0  0  0
    8.7766  -14.7250   20.9289 C   0  0  1  0  0  0  0  0  0  0  0  0
   10.0563  -14.1297   20.5526 C   0  0  0  0  0  0  0  0  0  0  0  0
   10.8494  -14.7003   19.7665 O   0  0  0  0  0  0  0  0  0  0  0  0
   10.4190  -12.9003   21.0701 O   0  0  0  0  0  0  0  0  0  0  0  0
  2  1  1  0
  3  2  2  0
  4  3  1  0
  5 11  1  0
  5  4  2  0
  6  5  1  0
  7  6  1  0
  7  8  1  6
  9 13  1  0
  9  7  1  0
 10  9  2  0
 11 12  2  0
 12  2  1  0
 13 17  1  0
 14 13  1  0
 14 15  1  0
 15 16  1  0
 17 16  1  0
 18 20  1  0
 17 18  1  6
 19 18  2  0
 20 21  1  0
 22 21  1  0
 23 22  1  0
 24 23  1  0
 24 20  1  0
 24 25  1  6
 26 25  2  0
 27 25  1  0
M  END
$$$$
