YPP.pdb
     RDKit          3D

 27 29  0  0  1  0  0  0  0  0999 V2000
   11.4889  -14.7133   31.2889 O   0  0  0  0  0  0  0  0  0  0  0  0
   10.8637  -15.2368   30.1538 C   0  0  0  0  0  0  0  0  0  0  0  0
   10.6478  -16.5841   29.9928 C   0  0  0  0  0  0  0  0  0  0  0  0
   10.0231  -17.0779   28.8528 C   0  0  0  0  0  0  0  0  0  0  0  0
    9.5955  -16.2445   27.8406 C   0  0  0  0  0  0  0  0  0  0  0  0
    8.9377  -16.7513   26.6359 C   0  0  0  0  0  0  0  0  0  0  0  0
    7.4325  -16.7085   26.6746 C   0  0  2  0  0  0  0  0  0  0  0  0
    6.8237  -17.9594   26.9517 N   0  0  0  0  0  0  0  0  0  0  0  0
    6.8293  -16.0657   25.5164 C   0  0  0  0  0  0  0  0  0  0  0  0
    5.9959  -16.7660   24.8522 O   0  0  0  0  0  0  0  0  0  0  0  0
    9.8156  -14.8929   28.0090 C   0  0  0  0  0  0  0  0  0  0  0  0
   10.4417  -14.3926   29.1504 C   0  0  0  0  0  0  0  0  0  0  0  0
    7.0838  -14.7538   25.0728 N   0  0  0  0  0  0  0  0  0  0  0  0
    7.6494  -13.7022   25.9327 C   0  0  0  0  0  0  0  0  0  0  0  0
    6.7921  -12.5187   25.5822 C   0  0  0  0  0  0  0  0  0  0  0  0
    6.7634  -12.6167   24.0690 C   0  0  0  0  0  0  0  0  0  0  0  0
    6.9084  -14.1013   23.7948 C   0  0  1  0  0  0  0  0  0  0  0  0
    8.0461  -14.3652   22.8783 C   0  0  0  0  0  0  0  0  0  0  0  0
    9.0036  -15.0391   23.3501 O   0  0  0  0  0  0  0  0  0  0  0  0
    8.1151  -13.9204   21.5541 N   0  0  0  0  0  0  0  0  0  0  0  0
    7.4190  -12.7454   21.0389 C   0  0  0  0  0  0  0  0  0  0  0  0
    7.0924  -13.0545   19.6033 C   0  0  0  0  0  0  0  0  0  0  0  0
    7.7999  -14.3386   19.2765 C   0  0  0  0  0  0  0  0  0  0  0  0
    8.8279  -14.4319   20.3977 C   0  0  1  0  0  0  0  0  0  0  0  0
   10.0184  -13.6519   20.0692 C   0  0  0  0  0  0  0  0  0  0  0  0
   10.1136  -12.4335   20.3505 O   0  0  0  0  0  0  0  0  0  0  0  0
   11.0816  -14.2606   19.4288 O   0  0  0  0  0  0  0  0  0  0  0  0
  2  1  1  0
  3  2  2  0
  4  3  1  0
  5 11  1  0
  5  4  2  0
  6  5  1  0
  7  6  1  0
  7  8  1  6
  9 13  1  0
  9  7  1  0
 10  9  2  0
 11 12  2  0
 12  2  1  0
 13 17  1  0
 14 13  1  0
 14 15  1  0
 15 16  1  0
 17 16  1  0
 18 20  1  0
 17 18  1  6
 19 18  2  0
 20 21  1  0
 22 21  1  0
 23 22  1  0
 24 23  1  0
 24 20  1  0
 24 25  1  6
 26 25  2  0
 27 25  1  0
M  END
$$$$
