YPP.pdb
     RDKit          3D

 27 29  0  0  1  0  0  0  0  0999 V2000
   12.5946  -15.0335   28.8456 O   0  0  0  0  0  0  0  0  0  0  0  0
   11.2195  -15.2615   28.7443 C   0  0  0  0  0  0  0  0  0  0  0  0
   10.3472  -14.2936   28.3082 C   0  0  0  0  0  0  0  0  0  0  0  0
    8.9830  -14.5478   28.2171 C   0  0  0  0  0  0  0  0  0  0  0  0
    8.4485  -15.7726   28.5576 C   0  0  0  0  0  0  0  0  0  0  0  0
    7.0151  -16.0526   28.4670 C   0  0  0  0  0  0  0  0  0  0  0  0
    6.6298  -17.0206   27.3792 C   0  0  2  0  0  0  0  0  0  0  0  0
    7.3837  -18.2222   27.3784 N   0  0  0  0  0  0  0  0  0  0  0  0
    6.5713  -16.4258   26.0520 C   0  0  0  0  0  0  0  0  0  0  0  0
    6.1165  -17.1681   25.1202 O   0  0  0  0  0  0  0  0  0  0  0  0
    9.3301  -16.7396   28.9947 C   0  0  0  0  0  0  0  0  0  0  0  0
   10.6991  -16.4898   29.0878 C   0  0  0  0  0  0  0  0  0  0  0  0
    6.9682  -15.1178   25.7138 N   0  0  0  0  0  0  0  0  0  0  0  0
    7.5279  -14.1636   26.6840 C   0  0  0  0  0  0  0  0  0  0  0  0
    6.8026  -12.8963   26.3283 C   0  0  0  0  0  0  0  0  0  0  0  0
    6.9125  -12.9115   24.8158 C   0  0  0  0  0  0  0  0  0  0  0  0
    6.9679  -14.3864   24.4668 C   0  0  1  0  0  0  0  0  0  0  0  0
    8.1649  -14.6948   23.6445 C   0  0  0  0  0  0  0  0  0  0  0  0
    9.0910  -15.3338   24.2170 O   0  0  0  0  0  0  0  0  0  0  0  0
    8.3204  -14.3267   22.3042 N   0  0  0  0  0  0  0  0  0  0  0  0
    7.8137  -13.0874   21.7228 C   0  0  0  0  0  0  0  0  0  0  0  0
    7.4687  -13.4112   20.2948 C   0  0  0  0  0  0  0  0  0  0  0  0
    7.9843  -14.7988   20.0403 C   0  0  0  0  0  0  0  0  0  0  0  0
    8.9689  -14.9899   21.1878 C   0  0  1  0  0  0  0  0  0  0  0  0
   10.2666  -14.4089   20.8534 C   0  0  0  0  0  0  0  0  0  0  0  0
   11.0691  -14.9776   20.0753 O   0  0  0  0  0  0  0  0  0  0  0  0
   10.6367  -13.1957   21.4030 O   0  0  0  0  0  0  0  0  0  0  0  0
  2  1  1  0
  3  2  2  0
  4  3  1  0
  5 11  1  0
  5  4  2  0
  6  5  1  0
  7  6  1  0
  7  8  1  6
  9 13  1  0
  9  7  1  0
 10  9  2  0
 11 12  2  0
 12  2  1  0
 13 17  1  0
 14 13  1  0
 14 15  1  0
 15 16  1  0
 17 16  1  0
 18 20  1  0
 17 18  1  1
 19 18  2  0
 20 21  1  0
 22 21  1  0
 23 22  1  0
 24 23  1  0
 24 20  1  0
 24 25  1  6
 26 25  2  0
 27 25  1  0
M  END
$$$$
