YPP.pdb
     RDKit          3D

 27 29  0  0  1  0  0  0  0  0999 V2000
   11.4310  -14.1489   30.9034 O   0  0  0  0  0  0  0  0  0  0  0  0
   10.7958  -14.9140   29.9215 C   0  0  0  0  0  0  0  0  0  0  0  0
   10.4295  -16.2210   30.1350 C   0  0  0  0  0  0  0  0  0  0  0  0
    9.7984  -16.9593   29.1399 C   0  0  0  0  0  0  0  0  0  0  0  0
    9.5139  -16.4177   27.9039 C   0  0  0  0  0  0  0  0  0  0  0  0
    8.8510  -17.1840   26.8483 C   0  0  0  0  0  0  0  0  0  0  0  0
    7.3475  -17.0934   26.8534 C   0  0  2  0  0  0  0  0  0  0  0  0
    6.6929  -18.3287   27.0938 N   0  0  0  0  0  0  0  0  0  0  0  0
    6.7923  -16.4115   25.6935 C   0  0  0  0  0  0  0  0  0  0  0  0
    6.0086  -17.0968   24.9572 O   0  0  0  0  0  0  0  0  0  0  0  0
    9.8844  -15.1050   27.6966 C   0  0  0  0  0  0  0  0  0  0  0  0
   10.5176  -14.3601   28.6912 C   0  0  0  0  0  0  0  0  0  0  0  0
    7.0431  -15.0771   25.3204 N   0  0  0  0  0  0  0  0  0  0  0  0
    7.5946  -14.0681   26.2384 C   0  0  0  0  0  0  0  0  0  0  0  0
    6.7336  -12.8728   25.9412 C   0  0  0  0  0  0  0  0  0  0  0  0
    6.7191  -12.8930   24.4248 C   0  0  0  0  0  0  0  0  0  0  0  0
    6.8753  -14.3607   24.0760 C   0  0  1  0  0  0  0  0  0  0  0  0
    8.0228  -14.5709   23.1578 C   0  0  0  0  0  0  0  0  0  0  0  0
    9.0095  -15.2036   23.6265 O   0  0  0  0  0  0  0  0  0  0  0  0
    8.0710  -14.1189   21.8351 N   0  0  0  0  0  0  0  0  0  0  0  0
    7.3431  -12.9586   21.3306 C   0  0  0  0  0  0  0  0  0  0  0  0
    7.0129  -13.2691   19.8961 C   0  0  0  0  0  0  0  0  0  0  0  0
    7.7483  -14.5345   19.5581 C   0  0  0  0  0  0  0  0  0  0  0  0
    8.7869  -14.6081   20.6710 C   0  0  1  0  0  0  0  0  0  0  0  0
    9.9559  -13.7985   20.3371 C   0  0  0  0  0  0  0  0  0  0  0  0
   10.8828  -14.2355   19.6142 O   0  0  0  0  0  0  0  0  0  0  0  0
   10.0589  -12.5092   20.8250 O   0  0  0  0  0  0  0  0  0  0  0  0
  2  1  1  0
  3  2  2  0
  4  3  1  0
  5 11  1  0
  5  4  2  0
  6  5  1  0
  7  6  1  0
  7  8  1  6
  9 13  1  0
  9  7  1  0
 10  9  2  0
 11 12  2  0
 12  2  1  0
 13 17  1  0
 14 13  1  0
 14 15  1  0
 15 16  1  0
 17 16  1  0
 18 20  1  0
 17 18  1  6
 19 18  2  0
 20 21  1  0
 22 21  1  0
 23 22  1  0
 24 23  1  0
 24 20  1  0
 24 25  1  6
 26 25  2  0
 27 25  1  0
M  END
$$$$
