YVP.pdb
     RDKit          3D

 27 28  0  0  1  0  0  0  0  0999 V2000
   18.1082  -23.4074  -11.0974 O   0  0  0  0  0  0  0  0  0  0  0  0
   19.2199  -23.0415  -11.8453 C   0  0  0  0  0  0  0  0  0  0  0  0
   19.1575  -23.0622  -13.2234 C   0  0  0  0  0  0  0  0  0  0  0  0
   20.2593  -22.6994  -13.9811 C   0  0  0  0  0  0  0  0  0  0  0  0
   21.4508  -22.3071  -13.4066 C   0  0  0  0  0  0  0  0  0  0  0  0
   22.6164  -21.9229  -14.2020 C   0  0  0  0  0  0  0  0  0  0  0  0
   22.9755  -20.4587  -14.0862 C   0  0  2  0  0  0  0  0  0  0  0  0
   21.9033  -19.6109  -14.5389 N   0  0  0  0  0  0  0  0  0  0  0  0
   24.2065  -20.2680  -14.9252 C   0  0  0  0  0  0  0  0  0  0  0  0
   24.1323  -19.9403  -16.1396 O   0  0  0  0  0  0  0  0  0  0  0  0
   21.5103  -22.2874  -12.0205 C   0  0  0  0  0  0  0  0  0  0  0  0
   20.4104  -22.6495  -11.2691 C   0  0  0  0  0  0  0  0  0  0  0  0
   27.6784  -20.8404  -12.9944 C   0  0  0  0  0  0  0  0  0  0  0  0
   27.7522  -19.8162  -14.1024 C   0  0  2  0  0  0  0  0  0  0  0  0
   27.2655  -18.4993  -13.4739 C   0  0  0  0  0  0  0  0  0  0  0  0
   26.7172  -20.1483  -15.1986 C   0  0  2  0  0  0  0  0  0  0  0  0
   25.5058  -20.4481  -14.3891 N   0  0  0  0  0  0  0  0  0  0  0  0
   27.1534  -21.3152  -15.9377 C   0  0  0  0  0  0  0  0  0  0  0  0
   27.2881  -22.4000  -15.2712 O   0  0  0  0  0  0  0  0  0  0  0  0
   27.4308  -21.3104  -17.3333 N   0  0  0  0  0  0  0  0  0  0  0  0
   27.2543  -20.1296  -18.1578 C   0  0  0  0  0  0  0  0  0  0  0  0
   28.2372  -20.3168  -19.2756 C   0  0  0  0  0  0  0  0  0  0  0  0
   27.9420  -21.7881  -19.6103 C   0  0  0  0  0  0  0  0  0  0  0  0
   27.8883  -22.3843  -18.1780 C   0  0  1  0  0  0  0  0  0  0  0  0
   29.2533  -22.8367  -17.8323 C   0  0  0  0  0  0  0  0  0  0  0  0
   29.9916  -22.1517  -17.1051 O   0  0  0  0  0  0  0  0  0  0  0  0
   29.7137  -24.0359  -18.3239 O   0  0  0  0  0  0  0  0  0  0  0  0
  1  2  1  0
  2  3  2  0
  3  4  1  0
  5  4  2  0
  5  6  1  0
  6  7  1  0
  7  8  1  6
  7  9  1  0
  9 10  2  0
 11  5  1  0
 12  2  1  0
 12 11  2  0
 14 16  1  0
 14 13  1  1
 15 14  1  0
 16 18  1  0
 17  9  1  0
 16 17  1  1
 18 20  1  0
 19 18  2  0
 20 24  1  0
 20 21  1  0
 21 22  1  0
 23 22  1  0
 24 23  1  0
 24 25  1  1
 26 25  2  0
 27 25  1  0
M  END
$$$$
