YVP.pdb
     RDKit          3D

 27 28  0  0  1  0  0  0  0  0999 V2000
   16.1605  -21.5181  -18.0781 O   0  0  0  0  0  0  0  0  0  0  0  0
   17.3101  -21.0666  -17.4426 C   0  0  0  0  0  0  0  0  0  0  0  0
   17.3694  -19.7721  -16.9691 C   0  0  0  0  0  0  0  0  0  0  0  0
   18.5102  -19.3092  -16.3334 C   0  0  0  0  0  0  0  0  0  0  0  0
   19.6222  -20.1042  -16.1457 C   0  0  0  0  0  0  0  0  0  0  0  0
   20.8284  -19.6204  -15.4749 C   0  0  0  0  0  0  0  0  0  0  0  0
   21.1002  -20.2971  -14.1504 C   0  0  2  0  0  0  0  0  0  0  0  0
   20.1650  -19.8795  -13.1382 N   0  0  0  0  0  0  0  0  0  0  0  0
   22.5055  -19.9221  -13.7759 C   0  0  0  0  0  0  0  0  0  0  0  0
   22.7813  -18.7867  -13.3042 O   0  0  0  0  0  0  0  0  0  0  0  0
   19.5593  -21.4055  -16.6230 C   0  0  0  0  0  0  0  0  0  0  0  0
   18.4209  -21.8629  -17.2558 C   0  0  0  0  0  0  0  0  0  0  0  0
   25.1714  -22.8159  -12.9782 C   0  0  0  0  0  0  0  0  0  0  0  0
   25.3735  -21.3908  -12.5198 C   0  0  2  0  0  0  0  0  0  0  0  0
   24.3302  -21.1664  -11.4121 C   0  0  0  0  0  0  0  0  0  0  0  0
   24.9826  -20.4124  -13.6482 C   0  0  2  0  0  0  0  0  0  0  0  0
   23.5835  -20.8277  -13.9363 N   0  0  0  0  0  0  0  0  0  0  0  0
   25.8391  -20.6307  -14.7958 C   0  0  0  0  0  0  0  0  0  0  0  0
   25.6787  -21.7306  -15.4312 O   0  0  0  0  0  0  0  0  0  0  0  0
   26.8234  -19.7028  -15.2370 N   0  0  0  0  0  0  0  0  0  0  0  0
   27.0651  -18.4432  -14.5586 C   0  0  0  0  0  0  0  0  0  0  0  0
   28.5024  -18.1377  -14.8609 C   0  0  0  0  0  0  0  0  0  0  0  0
   28.5010  -18.4449  -16.3674 C   0  0  0  0  0  0  0  0  0  0  0  0
   27.7118  -19.7818  -16.3685 C   0  0  1  0  0  0  0  0  0  0  0  0
   28.6951  -20.8796  -16.2431 C   0  0  0  0  0  0  0  0  0  0  0  0
   28.8628  -21.4709  -15.1637 O   0  0  0  0  0  0  0  0  0  0  0  0
   29.4366  -21.2525  -17.3399 O   0  0  0  0  0  0  0  0  0  0  0  0
  1  2  1  0
  2  3  2  0
  3  4  1  0
  5  4  2  0
  5  6  1  0
  6  7  1  0
  7  8  1  1
  7  9  1  0
  9 10  2  0
 11  5  1  0
 12  2  1  0
 12 11  2  0
 14 16  1  0
 14 13  1  6
 15 14  1  0
 16 18  1  0
 17  9  1  0
 16 17  1  6
 18 20  1  0
 19 18  2  0
 20 24  1  0
 20 21  1  0
 21 22  1  0
 23 22  1  0
 24 23  1  0
 24 25  1  1
 26 25  2  0
 27 25  1  0
M  END
$$$$
