YVP.pdb
     RDKit          3D

 27 28  0  0  1  0  0  0  0  0999 V2000
   20.0015  -18.7429  -14.8946 O   0  0  0  0  0  0  0  0  0  0  0  0
   20.9219  -19.1663  -13.9443 C   0  0  0  0  0  0  0  0  0  0  0  0
   22.0669  -18.4295  -13.7217 C   0  0  0  0  0  0  0  0  0  0  0  0
   22.9930  -18.8408  -12.7766 C   0  0  0  0  0  0  0  0  0  0  0  0
   22.8198  -19.9853  -12.0257 C   0  0  0  0  0  0  0  0  0  0  0  0
   23.7940  -20.4232  -11.0268 C   0  0  0  0  0  0  0  0  0  0  0  0
   25.0986  -20.9048  -11.6204 C   0  0  2  0  0  0  0  0  0  0  0  0
   24.9008  -22.0310  -12.4956 N   0  0  0  0  0  0  0  0  0  0  0  0
   25.9715  -21.2726  -10.4549 C   0  0  0  0  0  0  0  0  0  0  0  0
   25.7337  -22.2881   -9.7478 O   0  0  0  0  0  0  0  0  0  0  0  0
   21.6672  -20.7239  -12.2521 C   0  0  0  0  0  0  0  0  0  0  0  0
   20.7470  -20.3109  -13.1945 C   0  0  0  0  0  0  0  0  0  0  0  0
   29.4728  -19.2245  -10.0288 C   0  0  0  0  0  0  0  0  0  0  0  0
   29.3551  -20.6108   -9.4403 C   0  0  2  0  0  0  0  0  0  0  0  0
   29.5009  -21.5735  -10.6310 C   0  0  0  0  0  0  0  0  0  0  0  0
   27.9240  -20.8391   -8.9081 C   0  0  2  0  0  0  0  0  0  0  0  0
   27.1010  -20.4946  -10.0984 N   0  0  0  0  0  0  0  0  0  0  0  0
   27.6646  -19.9279   -7.8123 C   0  0  0  0  0  0  0  0  0  0  0  0
   27.1389  -18.8004   -8.1150 O   0  0  0  0  0  0  0  0  0  0  0  0
   27.9591  -20.2218   -6.4517 N   0  0  0  0  0  0  0  0  0  0  0  0
   28.4368  -21.5229   -6.0222 C   0  0  0  0  0  0  0  0  0  0  0  0
   29.2311  -21.2278   -4.7842 C   0  0  0  0  0  0  0  0  0  0  0  0
   28.2442  -20.2769   -4.0873 C   0  0  0  0  0  0  0  0  0  0  0  0
   27.8413  -19.3797   -5.2885 C   0  0  1  0  0  0  0  0  0  0  0  0
   28.7747  -18.2328   -5.3207 C   0  0  0  0  0  0  0  0  0  0  0  0
   29.7010  -18.1822   -6.1468 O   0  0  0  0  0  0  0  0  0  0  0  0
   28.6149  -17.2047   -4.4212 O   0  0  0  0  0  0  0  0  0  0  0  0
  1  2  1  0
  2  3  2  0
  3  4  1  0
  5  4  2  0
  5  6  1  0
  6  7  1  0
  7  8  1  6
  7  9  1  0
  9 10  2  0
 11  5  1  0
 12  2  1  0
 12 11  2  0
 14 16  1  0
 14 13  1  6
 15 14  1  0
 16 18  1  0
 17  9  1  0
 16 17  1  6
 18 20  1  0
 19 18  2  0
 20 24  1  0
 20 21  1  0
 21 22  1  0
 23 22  1  0
 24 23  1  0
 24 25  1  6
 26 25  2  0
 27 25  1  0
M  END
$$$$
