YVP.pdb
     RDKit          3D

 27 28  0  0  1  0  0  0  0  0999 V2000
   22.3638  -18.1729  -15.6689 O   0  0  0  0  0  0  0  0  0  0  0  0
   23.0259  -18.6364  -14.5393 C   0  0  0  0  0  0  0  0  0  0  0  0
   22.3441  -19.3863  -13.6032 C   0  0  0  0  0  0  0  0  0  0  0  0
   22.9928  -19.8548  -12.4721 C   0  0  0  0  0  0  0  0  0  0  0  0
   24.3270  -19.5998  -12.2300 C   0  0  0  0  0  0  0  0  0  0  0  0
   25.0162  -20.0925  -11.0379 C   0  0  0  0  0  0  0  0  0  0  0  0
   25.9980  -21.2071  -11.3205 C   0  0  2  0  0  0  0  0  0  0  0  0
   25.3338  -22.3924  -11.7972 N   0  0  0  0  0  0  0  0  0  0  0  0
   26.7084  -21.4700  -10.0236 C   0  0  0  0  0  0  0  0  0  0  0  0
   26.1026  -21.9393   -9.0234 O   0  0  0  0  0  0  0  0  0  0  0  0
   25.0097  -18.8453  -13.1733 C   0  0  0  0  0  0  0  0  0  0  0  0
   24.3599  -18.3804  -14.2989 C   0  0  0  0  0  0  0  0  0  0  0  0
   31.1390  -21.7111   -7.7921 C   0  0  0  0  0  0  0  0  0  0  0  0
   30.2581  -21.4740   -8.9962 C   0  0  2  0  0  0  0  0  0  0  0  0
   30.5763  -20.0421   -9.4592 C   0  0  0  0  0  0  0  0  0  0  0  0
   28.7754  -21.4407   -8.5677 C   0  0  2  0  0  0  0  0  0  0  0  0
   28.0911  -21.2023   -9.8668 N   0  0  0  0  0  0  0  0  0  0  0  0
   28.5608  -20.3373   -7.6541 C   0  0  0  0  0  0  0  0  0  0  0  0
   28.4750  -19.1701   -8.1733 O   0  0  0  0  0  0  0  0  0  0  0  0
   28.4437  -20.4881   -6.2441 N   0  0  0  0  0  0  0  0  0  0  0  0
   28.4721  -21.7856   -5.5951 C   0  0  0  0  0  0  0  0  0  0  0  0
   28.9984  -21.4930   -4.2211 C   0  0  0  0  0  0  0  0  0  0  0  0
   28.1388  -20.2613   -3.8925 C   0  0  0  0  0  0  0  0  0  0  0  0
   28.2642  -19.4815   -5.2290 C   0  0  1  0  0  0  0  0  0  0  0  0
   29.4305  -18.5797   -5.1108 C   0  0  0  0  0  0  0  0  0  0  0  0
   29.3233  -17.4565   -4.5913 O   0  0  0  0  0  0  0  0  0  0  0  0
   30.6548  -18.9911   -5.5839 O   0  0  0  0  0  0  0  0  0  0  0  0
  1  2  1  0
  2  3  2  0
  3  4  1  0
  5  4  2  0
  5  6  1  0
  6  7  1  0
  7  8  1  1
  7  9  1  0
  9 10  2  0
 11  5  1  0
 12  2  1  0
 12 11  2  0
 14 16  1  0
 14 13  1  1
 15 14  1  0
 16 18  1  0
 17  9  1  0
 16 17  1  6
 18 20  1  0
 19 18  2  0
 20 24  1  0
 20 21  1  0
 21 22  1  0
 23 22  1  0
 24 23  1  0
 24 25  1  1
 26 25  2  0
 27 25  1  0
M  END
$$$$
