YVP.pdb
     RDKit          3D

 27 28  0  0  1  0  0  0  0  0999 V2000
   23.0259  -21.0646   -6.0492 O   0  0  0  0  0  0  0  0  0  0  0  0
   23.4974  -20.8419   -7.3366 C   0  0  0  0  0  0  0  0  0  0  0  0
   22.6799  -21.0910   -8.4197 C   0  0  0  0  0  0  0  0  0  0  0  0
   23.1380  -20.8730   -9.7091 C   0  0  0  0  0  0  0  0  0  0  0  0
   24.4096  -20.4050   -9.9692 C   0  0  0  0  0  0  0  0  0  0  0  0
   24.8975  -20.1729  -11.3282 C   0  0  0  0  0  0  0  0  0  0  0  0
   25.2197  -21.4425  -12.0835 C   0  0  2  0  0  0  0  0  0  0  0  0
   26.3946  -22.0893  -11.5593 N   0  0  0  0  0  0  0  0  0  0  0  0
   25.4215  -21.0318  -13.5140 C   0  0  0  0  0  0  0  0  0  0  0  0
   26.4788  -20.4606  -13.8930 O   0  0  0  0  0  0  0  0  0  0  0  0
   25.2291  -20.1555   -8.8777 C   0  0  0  0  0  0  0  0  0  0  0  0
   24.7691  -20.3740   -7.5947 C   0  0  0  0  0  0  0  0  0  0  0  0
   26.2003  -22.6248  -17.0736 C   0  0  0  0  0  0  0  0  0  0  0  0
   24.8103  -22.4011  -16.5261 C   0  0  2  0  0  0  0  0  0  0  0  0
   23.8830  -22.4031  -17.7534 C   0  0  0  0  0  0  0  0  0  0  0  0
   24.6974  -20.9791  -15.9359 C   0  0  2  0  0  0  0  0  0  0  0  0
   24.4325  -21.2681  -14.5010 N   0  0  0  0  0  0  0  0  0  0  0  0
   23.5784  -20.2901  -16.5452 C   0  0  0  0  0  0  0  0  0  0  0  0
   22.4419  -20.8769  -16.4869 O   0  0  0  0  0  0  0  0  0  0  0  0
   23.6823  -19.0247  -17.1875 N   0  0  0  0  0  0  0  0  0  0  0  0
   24.9411  -18.3126  -17.3051 C   0  0  0  0  0  0  0  0  0  0  0  0
   24.7725  -17.4784  -18.5405 C   0  0  0  0  0  0  0  0  0  0  0  0
   23.3651  -16.9241  -18.2651 C   0  0  0  0  0  0  0  0  0  0  0  0
   22.6525  -18.2208  -17.7952 C   0  0  1  0  0  0  0  0  0  0  0  0
   22.0618  -18.8625  -18.9897 C   0  0  0  0  0  0  0  0  0  0  0  0
   22.6683  -19.7551  -19.6048 O   0  0  0  0  0  0  0  0  0  0  0  0
   20.8200  -18.4646  -19.4274 O   0  0  0  0  0  0  0  0  0  0  0  0
  1  2  1  0
  2  3  2  0
  3  4  1  0
  5  4  2  0
  5  6  1  0
  6  7  1  0
  7  8  1  1
  7  9  1  0
  9 10  2  0
 11  5  1  0
 12  2  1  0
 12 11  2  0
 14 16  1  0
 14 13  1  6
 15 14  1  0
 16 18  1  0
 17  9  1  0
 16 17  1  1
 18 20  1  0
 19 18  2  0
 20 24  1  0
 20 21  1  0
 21 22  1  0
 23 22  1  0
 24 23  1  0
 24 25  1  6
 26 25  2  0
 27 25  1  0
M  END
$$$$
