YVP.pdb
     RDKit          3D

 27 28  0  0  1  0  0  0  0  0999 V2000
   18.7356  -23.2365   -9.4888 O   0  0  0  0  0  0  0  0  0  0  0  0
   19.8548  -22.4738   -9.7967 C   0  0  0  0  0  0  0  0  0  0  0  0
   20.5119  -22.6710  -10.9937 C   0  0  0  0  0  0  0  0  0  0  0  0
   21.6295  -21.9168  -11.3130 C   0  0  0  0  0  0  0  0  0  0  0  0
   22.1314  -20.9498  -10.4663 C   0  0  0  0  0  0  0  0  0  0  0  0
   23.3104  -20.1509  -10.7989 C   0  0  0  0  0  0  0  0  0  0  0  0
   24.6037  -20.9336  -10.7671 C   0  0  2  0  0  0  0  0  0  0  0  0
   25.0806  -21.1179   -9.4210 N   0  0  0  0  0  0  0  0  0  0  0  0
   25.5847  -20.1431  -11.5847 C   0  0  0  0  0  0  0  0  0  0  0  0
   26.2875  -19.2318  -11.0715 O   0  0  0  0  0  0  0  0  0  0  0  0
   21.4683  -20.7541   -9.2633 C   0  0  0  0  0  0  0  0  0  0  0  0
   20.3552  -21.5075   -8.9489 C   0  0  0  0  0  0  0  0  0  0  0  0
   28.9956  -20.1370  -14.7985 C   0  0  0  0  0  0  0  0  0  0  0  0
   27.8487  -20.7169  -14.0045 C   0  0  2  0  0  0  0  0  0  0  0  0
   27.1792  -21.7375  -14.9404 C   0  0  0  0  0  0  0  0  0  0  0  0
   26.7778  -19.6333  -13.7548 C   0  0  2  0  0  0  0  0  0  0  0  0
   25.7638  -20.3865  -12.9692 N   0  0  0  0  0  0  0  0  0  0  0  0
   26.2334  -19.1906  -15.0221 C   0  0  0  0  0  0  0  0  0  0  0  0
   25.6978  -20.0878  -15.7619 O   0  0  0  0  0  0  0  0  0  0  0  0
   26.2655  -17.8402  -15.4691 N   0  0  0  0  0  0  0  0  0  0  0  0
   26.8928  -16.7808  -14.7012 C   0  0  0  0  0  0  0  0  0  0  0  0
   27.3060  -15.7772  -15.7368 C   0  0  0  0  0  0  0  0  0  0  0  0
   26.0112  -15.7405  -16.5650 C   0  0  0  0  0  0  0  0  0  0  0  0
   25.7143  -17.2608  -16.6676 C   0  0  1  0  0  0  0  0  0  0  0  0
   26.3714  -17.7612  -17.8946 C   0  0  0  0  0  0  0  0  0  0  0  0
   27.4908  -18.2977  -17.8500 O   0  0  0  0  0  0  0  0  0  0  0  0
   25.7327  -17.6306  -19.1058 O   0  0  0  0  0  0  0  0  0  0  0  0
  1  2  1  0
  2  3  2  0
  3  4  1  0
  5  4  2  0
  5  6  1  0
  6  7  1  0
  7  8  1  1
  7  9  1  0
  9 10  2  0
 11  5  1  0
 12  2  1  0
 12 11  2  0
 14 16  1  0
 14 13  1  6
 15 14  1  0
 16 18  1  0
 17  9  1  0
 16 17  1  1
 18 20  1  0
 19 18  2  0
 20 24  1  0
 20 21  1  0
 21 22  1  0
 23 22  1  0
 24 23  1  0
 24 25  1  6
 26 25  2  0
 27 25  1  0
M  END
$$$$
