YVP.pdb
     RDKit          3D

 27 28  0  0  1  0  0  0  0  0999 V2000
   19.3295  -19.1781  -14.3648 O   0  0  0  0  0  0  0  0  0  0  0  0
   20.3416  -19.6106  -13.5176 C   0  0  0  0  0  0  0  0  0  0  0  0
   21.2479  -18.7020  -13.0111 C   0  0  0  0  0  0  0  0  0  0  0  0
   22.2623  -19.1202  -12.1649 C   0  0  0  0  0  0  0  0  0  0  0  0
   22.4138  -20.4405  -11.7938 C   0  0  0  0  0  0  0  0  0  0  0  0
   23.4824  -20.8868  -10.9007 C   0  0  0  0  0  0  0  0  0  0  0  0
   24.8525  -20.8772  -11.5400 C   0  0  2  0  0  0  0  0  0  0  0  0
   24.9241  -21.7824  -12.6575 N   0  0  0  0  0  0  0  0  0  0  0  0
   25.8154  -21.2762  -10.4586 C   0  0  0  0  0  0  0  0  0  0  0  0
   25.8402  -22.4486   -9.9976 O   0  0  0  0  0  0  0  0  0  0  0  0
   21.5006  -21.3517  -12.3049 C   0  0  0  0  0  0  0  0  0  0  0  0
   20.4915  -20.9310  -13.1476 C   0  0  0  0  0  0  0  0  0  0  0  0
   30.1971  -21.0231   -8.7084 C   0  0  0  0  0  0  0  0  0  0  0  0
   29.0517  -20.6634   -9.6253 C   0  0  2  0  0  0  0  0  0  0  0  0
   29.2248  -19.1650   -9.9263 C   0  0  0  0  0  0  0  0  0  0  0  0
   27.7125  -20.7715   -8.8651 C   0  0  2  0  0  0  0  0  0  0  0  0
   26.7385  -20.3524   -9.9084 N   0  0  0  0  0  0  0  0  0  0  0  0
   27.7135  -19.8468   -7.7500 C   0  0  0  0  0  0  0  0  0  0  0  0
   27.5000  -18.6148   -8.0253 O   0  0  0  0  0  0  0  0  0  0  0  0
   27.9346  -20.2356   -6.3993 N   0  0  0  0  0  0  0  0  0  0  0  0
   28.1559  -21.6166   -6.0132 C   0  0  0  0  0  0  0  0  0  0  0  0
   28.9794  -21.5168   -4.7632 C   0  0  0  0  0  0  0  0  0  0  0  0
   28.1814  -20.4213   -4.0373 C   0  0  0  0  0  0  0  0  0  0  0  0
   27.9653  -19.4253   -5.2083 C   0  0  1  0  0  0  0  0  0  0  0  0
   29.0973  -18.4734   -5.1980 C   0  0  0  0  0  0  0  0  0  0  0  0
   30.0304  -18.5770   -6.0114 O   0  0  0  0  0  0  0  0  0  0  0  0
   29.1177  -17.4560   -4.2726 O   0  0  0  0  0  0  0  0  0  0  0  0
  1  2  1  0
  2  3  2  0
  3  4  1  0
  5  4  2  0
  5  6  1  0
  6  7  1  0
  7  8  1  6
  7  9  1  0
  9 10  2  0
 11  5  1  0
 12  2  1  0
 12 11  2  0
 14 16  1  0
 14 13  1  1
 15 14  1  0
 16 18  1  0
 17  9  1  0
 16 17  1  6
 18 20  1  0
 19 18  2  0
 20 24  1  0
 20 21  1  0
 21 22  1  0
 23 22  1  0
 24 23  1  0
 24 25  1  6
 26 25  2  0
 27 25  1  0
M  END
$$$$
