YVP.pdb
     RDKit          3D

 27 28  0  0  1  0  0  0  0  0999 V2000
   19.0541  -19.5385  -11.9178 O   0  0  0  0  0  0  0  0  0  0  0  0
   20.2879  -19.8714  -11.3737 C   0  0  0  0  0  0  0  0  0  0  0  0
   20.9549  -20.9935  -11.8204 C   0  0  0  0  0  0  0  0  0  0  0  0
   22.1864  -21.3367  -11.2860 C   0  0  0  0  0  0  0  0  0  0  0  0
   22.7953  -20.5881  -10.2998 C   0  0  0  0  0  0  0  0  0  0  0  0
   24.0951  -20.9460   -9.7329 C   0  0  0  0  0  0  0  0  0  0  0  0
   25.2599  -20.2415  -10.3910 C   0  0  2  0  0  0  0  0  0  0  0  0
   25.5131  -20.7537  -11.7127 N   0  0  0  0  0  0  0  0  0  0  0  0
   26.4401  -20.4648   -9.4894 C   0  0  0  0  0  0  0  0  0  0  0  0
   27.0266  -21.5787   -9.4349 O   0  0  0  0  0  0  0  0  0  0  0  0
   22.1218  -19.4603   -9.8528 C   0  0  0  0  0  0  0  0  0  0  0  0
   20.8951  -19.1218  -10.3877 C   0  0  0  0  0  0  0  0  0  0  0  0
   30.1750  -18.3242   -7.1789 C   0  0  0  0  0  0  0  0  0  0  0  0
   28.8605  -18.2843   -7.9222 C   0  0  2  0  0  0  0  0  0  0  0  0
   27.9738  -17.3075   -7.1312 C   0  0  0  0  0  0  0  0  0  0  0  0
   28.1516  -19.6516   -7.8154 C   0  0  2  0  0  0  0  0  0  0  0  0
   26.9466  -19.4335   -8.6600 N   0  0  0  0  0  0  0  0  0  0  0  0
   27.7848  -19.8996   -6.4362 C   0  0  0  0  0  0  0  0  0  0  0  0
   26.6700  -19.4091   -6.0412 O   0  0  0  0  0  0  0  0  0  0  0  0
   28.5855  -20.6440   -5.5256 N   0  0  0  0  0  0  0  0  0  0  0  0
   29.8010  -21.3233   -5.9336 C   0  0  0  0  0  0  0  0  0  0  0  0
   30.6316  -21.3630   -4.6850 C   0  0  0  0  0  0  0  0  0  0  0  0
   29.5502  -21.8198   -3.6922 C   0  0  0  0  0  0  0  0  0  0  0  0
   28.3821  -20.8914   -4.1208 C   0  0  1  0  0  0  0  0  0  0  0  0
   28.4715  -19.6589   -3.3082 C   0  0  0  0  0  0  0  0  0  0  0  0
   29.0428  -18.6445   -3.7415 O   0  0  0  0  0  0  0  0  0  0  0  0
   27.9130  -19.6347   -2.0515 O   0  0  0  0  0  0  0  0  0  0  0  0
  1  2  1  0
  2  3  2  0
  3  4  1  0
  5  4  2  0
  5  6  1  0
  6  7  1  0
  7  8  1  6
  7  9  1  0
  9 10  2  0
 11  5  1  0
 12  2  1  0
 12 11  2  0
 14 16  1  0
 14 13  1  1
 15 14  1  0
 16 18  1  0
 17  9  1  0
 16 17  1  6
 18 20  1  0
 19 18  2  0
 20 24  1  0
 20 21  1  0
 21 22  1  0
 23 22  1  0
 24 23  1  0
 24 25  1  1
 26 25  2  0
 27 25  1  0
M  END
$$$$
