YVP.pdb
     RDKit          3D

 27 28  0  0  1  0  0  0  0  0999 V2000
   16.5444  -18.0072  -17.2165 O   0  0  0  0  0  0  0  0  0  0  0  0
   17.7027  -18.6010  -16.7318 C   0  0  0  0  0  0  0  0  0  0  0  0
   17.7097  -19.9474  -16.4307 C   0  0  0  0  0  0  0  0  0  0  0  0
   18.8586  -20.5520  -15.9465 C   0  0  0  0  0  0  0  0  0  0  0  0
   20.0302  -19.8516  -15.7453 C   0  0  0  0  0  0  0  0  0  0  0  0
   21.2454  -20.4852  -15.2350 C   0  0  0  0  0  0  0  0  0  0  0  0
   22.3344  -20.6355  -16.2730 C   0  0  2  0  0  0  0  0  0  0  0  0
   22.0152  -21.6591  -17.2342 N   0  0  0  0  0  0  0  0  0  0  0  0
   23.5842  -20.9779  -15.5136 C   0  0  0  0  0  0  0  0  0  0  0  0
   23.8214  -22.1547  -15.1308 O   0  0  0  0  0  0  0  0  0  0  0  0
   20.0197  -18.4977  -16.0491 C   0  0  0  0  0  0  0  0  0  0  0  0
   18.8731  -17.8991  -16.5312 C   0  0  0  0  0  0  0  0  0  0  0  0
   26.7222  -18.0516  -13.9648 C   0  0  0  0  0  0  0  0  0  0  0  0
   26.7664  -19.3048  -14.8073 C   0  0  2  0  0  0  0  0  0  0  0  0
   26.2907  -18.8738  -16.2051 C   0  0  0  0  0  0  0  0  0  0  0  0
   25.7067  -20.3121  -14.3118 C   0  0  2  0  0  0  0  0  0  0  0  0
   24.5518  -19.9934  -15.1936 N   0  0  0  0  0  0  0  0  0  0  0  0
   25.3941  -20.0413  -12.9235 C   0  0  0  0  0  0  0  0  0  0  0  0
   24.6944  -18.9959  -12.6857 O   0  0  0  0  0  0  0  0  0  0  0  0
   25.8176  -20.8630  -11.8418 N   0  0  0  0  0  0  0  0  0  0  0  0
   26.6144  -22.0595  -12.0389 C   0  0  0  0  0  0  0  0  0  0  0  0
   27.3749  -22.2051  -10.7540 C   0  0  0  0  0  0  0  0  0  0  0  0
   26.2243  -21.9564   -9.7650 C   0  0  0  0  0  0  0  0  0  0  0  0
   25.5588  -20.7223  -10.4314 C   0  0  1  0  0  0  0  0  0  0  0  0
   26.1866  -19.5129   -9.8566 C   0  0  0  0  0  0  0  0  0  0  0  0
   27.0817  -18.9034  -10.4652 O   0  0  0  0  0  0  0  0  0  0  0  0
   25.7729  -19.0546   -8.6275 O   0  0  0  0  0  0  0  0  0  0  0  0
  1  2  1  0
  2  3  2  0
  3  4  1  0
  5  4  2  0
  5  6  1  0
  6  7  1  0
  7  8  1  6
  7  9  1  0
  9 10  2  0
 11  5  1  0
 12  2  1  0
 12 11  2  0
 14 16  1  0
 14 13  1  1
 15 14  1  0
 16 18  1  0
 17  9  1  0
 16 17  1  6
 18 20  1  0
 19 18  2  0
 20 24  1  0
 20 21  1  0
 21 22  1  0
 23 22  1  0
 24 23  1  0
 24 25  1  1
 26 25  2  0
 27 25  1  0
M  END
$$$$
