QNY.pdb
     RDKit          3D

 30 30  0  0  1  0  0  0  0  0999 V2000
    9.1142  -13.8293   15.4824 N   0  0  0  0  0  0  0  0  0  0  0  0
    8.0015  -14.6263   15.8259 C   0  0  0  0  0  0  0  0  0  0  0  0
    7.5650  -15.4388   14.9741 O   0  0  0  0  0  0  0  0  0  0  0  0
    7.3449  -14.5323   17.1378 C   0  0  0  0  0  0  0  0  0  0  0  0
    7.9021  -13.3670   17.9150 C   0  0  0  0  0  0  0  0  0  0  0  0
    9.2243  -13.7421   18.5824 C   0  0  2  0  0  0  0  0  0  0  0  0
   10.1143  -14.3166   17.6044 N   0  0  0  0  0  0  0  0  0  0  0  0
    8.8982  -14.7404   19.6554 C   0  0  0  0  0  0  0  0  0  0  0  0
    7.8534  -14.6254   20.3437 O   0  0  0  0  0  0  0  0  0  0  0  0
   10.8650  -18.8152   18.5960 N   0  0  0  0  0  0  0  0  0  0  0  0
   10.0626  -18.6647   19.7532 C   0  0  0  0  0  0  0  0  0  0  0  0
    8.9171  -19.1756   19.7477 O   0  0  0  0  0  0  0  0  0  0  0  0
   10.5290  -17.9418   20.9303 C   0  0  0  0  0  0  0  0  0  0  0  0
    9.6813  -16.6907   21.0806 C   0  0  2  0  0  0  0  0  0  0  0  0
    9.7373  -15.8414   19.9368 N   0  0  0  0  0  0  0  0  0  0  0  0
   10.1294  -16.0130   22.3243 C   0  0  0  0  0  0  0  0  0  0  0  0
   10.8399  -14.9674   22.2994 O   0  0  0  0  0  0  0  0  0  0  0  0
    6.2934  -10.9412   27.8855 O   0  0  0  0  0  0  0  0  0  0  0  0
    6.7881  -11.9165   26.9988 C   0  0  0  0  0  0  0  0  0  0  0  0
    8.0088  -12.5252   27.1770 C   0  0  0  0  0  0  0  0  0  0  0  0
    8.4538  -13.4766   26.2821 C   0  0  0  0  0  0  0  0  0  0  0  0
    7.7088  -13.8539   25.1854 C   0  0  0  0  0  0  0  0  0  0  0  0
    8.2170  -14.8665   24.2540 C   0  0  0  0  0  0  0  0  0  0  0  0
    9.4588  -15.5973   24.7394 C   0  0  2  0  0  0  0  0  0  0  0  0
    9.7978  -16.4818   23.6248 N   0  0  0  0  0  0  0  0  0  0  0  0
    9.1085  -16.3715   25.9485 C   0  0  0  0  0  0  0  0  0  0  0  0
    9.5627  -15.8934   27.1769 O   0  0  0  0  0  0  0  0  0  0  0  0
    6.4818  -13.2368   25.0115 C   0  0  0  0  0  0  0  0  0  0  0  0
    6.0305  -12.2745   25.9182 C   0  0  0  0  0  0  0  0  0  0  0  0
    8.4429  -17.4116   25.9497 O   0  0  0  0  0  0  0  0  0  0  0  0
  2  1  1  0
  2  3  2  0
  4  5  1  0
  4  2  1  0
  6  5  1  0
  6  7  1  6
  8 15  1  0
  8  6  1  0
  9  8  2  0
 10 11  1  0
 11 13  1  0
 12 11  2  0
 14 13  1  6
 14 16  1  0
 14 15  1  0
 16 17  2  0
 19 18  1  0
 19 20  2  0
 21 20  1  0
 22 21  2  0
 23 22  1  0
 24 23  1  6
 24 26  1  0
 25 24  1  0
 25 16  1  0
 26 27  1  0
 28 29  2  0
 28 22  1  0
 29 19  1  0
 30 26  2  0
M  END
$$$$
