QNY.pdb
     RDKit          3D

 30 30  0  0  1  0  0  0  0  0999 V2000
    9.0648  -12.5848   15.7666 N   0  0  0  0  0  0  0  0  0  0  0  0
    7.9307  -13.4236   15.7265 C   0  0  0  0  0  0  0  0  0  0  0  0
    7.3829  -13.6320   14.6163 O   0  0  0  0  0  0  0  0  0  0  0  0
    7.3773  -14.0520   16.9347 C   0  0  0  0  0  0  0  0  0  0  0  0
    8.1430  -13.6004   18.1522 C   0  0  0  0  0  0  0  0  0  0  0  0
    8.8551  -14.7792   18.8136 C   0  0  2  0  0  0  0  0  0  0  0  0
    8.3911  -16.0137   18.2310 N   0  0  0  0  0  0  0  0  0  0  0  0
    8.5182  -14.7218   20.2756 C   0  0  0  0  0  0  0  0  0  0  0  0
    8.8855  -13.7497   20.9818 O   0  0  0  0  0  0  0  0  0  0  0  0
    6.1578  -15.8234   24.6683 N   0  0  0  0  0  0  0  0  0  0  0  0
    6.4005  -17.0750   24.0517 C   0  0  0  0  0  0  0  0  0  0  0  0
    6.2321  -18.1126   24.7358 O   0  0  0  0  0  0  0  0  0  0  0  0
    6.8344  -17.1834   22.6639 C   0  0  0  0  0  0  0  0  0  0  0  0
    7.6310  -15.9366   22.3214 C   0  0  2  0  0  0  0  0  0  0  0  0
    7.7814  -15.7423   20.9170 N   0  0  0  0  0  0  0  0  0  0  0  0
    8.9316  -16.0475   23.0306 C   0  0  0  0  0  0  0  0  0  0  0  0
    9.9181  -15.3116   22.7410 O   0  0  0  0  0  0  0  0  0  0  0  0
   11.0026  -14.3632   31.2022 O   0  0  0  0  0  0  0  0  0  0  0  0
   10.5666  -14.6290   29.8901 C   0  0  0  0  0  0  0  0  0  0  0  0
    9.7497  -13.7678   29.1948 C   0  0  0  0  0  0  0  0  0  0  0  0
    9.3470  -14.0691   27.9099 C   0  0  0  0  0  0  0  0  0  0  0  0
    9.7368  -15.2287   27.2745 C   0  0  0  0  0  0  0  0  0  0  0  0
    9.2851  -15.5162   25.9091 C   0  0  0  0  0  0  0  0  0  0  0  0
    9.9950  -16.6869   25.2478 C   0  0  2  0  0  0  0  0  0  0  0  0
    9.1656  -16.9790   24.0788 N   0  0  0  0  0  0  0  0  0  0  0  0
   10.0085  -17.8245   26.1910 C   0  0  0  0  0  0  0  0  0  0  0  0
    8.8154  -18.5199   26.3830 O   0  0  0  0  0  0  0  0  0  0  0  0
   10.5580  -16.0913   27.9802 C   0  0  0  0  0  0  0  0  0  0  0  0
   10.9670  -15.7856   29.2807 C   0  0  0  0  0  0  0  0  0  0  0  0
   11.0000  -18.2036   26.8220 O   0  0  0  0  0  0  0  0  0  0  0  0
  2  1  1  0
  2  3  2  0
  4  5  1  0
  4  2  1  0
  6  5  1  0
  6  7  1  6
  8 15  1  0
  8  6  1  0
  9  8  2  0
 10 11  1  0
 11 13  1  0
 12 11  2  0
 14 13  1  6
 14 16  1  0
 14 15  1  0
 16 17  2  0
 19 18  1  0
 19 20  2  0
 21 20  1  0
 22 21  2  0
 23 22  1  0
 24 23  1  1
 24 26  1  0
 25 24  1  0
 25 16  1  0
 26 27  1  0
 28 29  2  0
 28 22  1  0
 29 19  1  0
 30 26  2  0
M  END
$$$$
