QNY.pdb
     RDKit          3D

 30 30  0  0  1  0  0  0  0  0999 V2000
    6.7398  -12.7424   17.8747 N   0  0  0  0  0  0  0  0  0  0  0  0
    7.6036  -13.7667   17.4318 C   0  0  0  0  0  0  0  0  0  0  0  0
    7.5155  -14.1455   16.2381 O   0  0  0  0  0  0  0  0  0  0  0  0
    8.5918  -14.3971   18.3188 C   0  0  0  0  0  0  0  0  0  0  0  0
    8.3143  -14.0248   19.7531 C   0  0  0  0  0  0  0  0  0  0  0  0
    9.5414  -14.2788   20.6270 C   0  0  2  0  0  0  0  0  0  0  0  0
   10.5870  -14.8734   19.8321 N   0  0  0  0  0  0  0  0  0  0  0  0
    9.1076  -15.2132   21.7192 C   0  0  0  0  0  0  0  0  0  0  0  0
    8.0736  -14.9776   22.3930 O   0  0  0  0  0  0  0  0  0  0  0  0
   10.5463  -19.5107   20.5624 N   0  0  0  0  0  0  0  0  0  0  0  0
    9.7194  -19.2482   21.6817 C   0  0  0  0  0  0  0  0  0  0  0  0
    8.5047  -19.5505   21.6020 O   0  0  0  0  0  0  0  0  0  0  0  0
   10.2384  -18.6448   22.9033 C   0  0  0  0  0  0  0  0  0  0  0  0
    9.5544  -17.3020   23.0921 C   0  0  2  0  0  0  0  0  0  0  0  0
    9.8297  -16.3854   22.0355 N   0  0  0  0  0  0  0  0  0  0  0  0
    9.9705  -16.7896   24.4229 C   0  0  0  0  0  0  0  0  0  0  0  0
   11.1227  -16.3104   24.6266 O   0  0  0  0  0  0  0  0  0  0  0  0
    6.3471  -10.9015   25.4880 O   0  0  0  0  0  0  0  0  0  0  0  0
    6.7993  -12.1395   25.9831 C   0  0  0  0  0  0  0  0  0  0  0  0
    6.0844  -13.3040   25.8238 C   0  0  0  0  0  0  0  0  0  0  0  0
    6.5666  -14.4954   26.3259 C   0  0  0  0  0  0  0  0  0  0  0  0
    7.7661  -14.5725   27.0006 C   0  0  0  0  0  0  0  0  0  0  0  0
    8.2441  -15.8568   27.5232 C   0  0  0  0  0  0  0  0  0  0  0  0
    9.5335  -16.3514   26.8871 C   0  0  2  0  0  0  0  0  0  0  0  0
    9.1151  -16.7974   25.5584 N   0  0  0  0  0  0  0  0  0  0  0  0
   10.0538  -17.4779   27.6897 C   0  0  0  0  0  0  0  0  0  0  0  0
   10.6757  -17.1765   28.9007 O   0  0  0  0  0  0  0  0  0  0  0  0
    8.4800  -13.3968   27.1581 C   0  0  0  0  0  0  0  0  0  0  0  0
    7.9927  -12.1907   26.6486 C   0  0  0  0  0  0  0  0  0  0  0  0
    9.9782  -18.6670   27.3654 O   0  0  0  0  0  0  0  0  0  0  0  0
  2  1  1  0
  2  3  2  0
  4  5  1  0
  4  2  1  0
  6  5  1  0
  6  7  1  6
  8 15  1  0
  8  6  1  0
  9  8  2  0
 10 11  1  0
 11 13  1  0
 12 11  2  0
 14 13  1  6
 14 16  1  0
 14 15  1  0
 16 17  2  0
 19 18  1  0
 19 20  2  0
 21 20  1  0
 22 21  2  0
 23 22  1  0
 24 23  1  1
 24 26  1  0
 25 24  1  0
 25 16  1  0
 26 27  1  0
 28 29  2  0
 28 22  1  0
 29 19  1  0
 30 26  2  0
M  END
$$$$
