QNY.pdb
     RDKit          3D

 30 30  0  0  1  0  0  0  0  0999 V2000
    8.1283  -12.5478   18.9260 N   0  0  0  0  0  0  0  0  0  0  0  0
    7.6258  -13.7347   18.3514 C   0  0  0  0  0  0  0  0  0  0  0  0
    7.4287  -13.7594   17.1117 O   0  0  0  0  0  0  0  0  0  0  0  0
    7.3281  -14.9296   19.1542 C   0  0  0  0  0  0  0  0  0  0  0  0
    7.4044  -14.6002   20.6233 C   0  0  0  0  0  0  0  0  0  0  0  0
    8.8514  -14.6328   21.1125 C   0  0  2  0  0  0  0  0  0  0  0  0
    9.6793  -15.2894   20.1315 N   0  0  0  0  0  0  0  0  0  0  0  0
    8.8529  -15.3958   22.4056 C   0  0  0  0  0  0  0  0  0  0  0  0
    7.9978  -15.1554   23.2942 O   0  0  0  0  0  0  0  0  0  0  0  0
   11.1015  -19.8288   21.7965 N   0  0  0  0  0  0  0  0  0  0  0  0
   10.3841  -19.3129   22.9032 C   0  0  0  0  0  0  0  0  0  0  0  0
    9.2357  -19.7656   23.1252 O   0  0  0  0  0  0  0  0  0  0  0  0
   10.9399  -18.2849   23.7752 C   0  0  0  0  0  0  0  0  0  0  0  0
    9.9246  -17.1606   23.8835 C   0  0  2  0  0  0  0  0  0  0  0  0
    9.8007  -16.4066   22.6799 N   0  0  0  0  0  0  0  0  0  0  0  0
   10.3258  -16.3281   25.0466 C   0  0  0  0  0  0  0  0  0  0  0  0
   11.3207  -15.5490   25.0022 O   0  0  0  0  0  0  0  0  0  0  0  0
    6.1263  -11.2504   24.9425 O   0  0  0  0  0  0  0  0  0  0  0  0
    6.8104  -12.1905   25.7363 C   0  0  0  0  0  0  0  0  0  0  0  0
    7.9138  -11.8587   26.4879 C   0  0  0  0  0  0  0  0  0  0  0  0
    8.5532  -12.8135   27.2519 C   0  0  0  0  0  0  0  0  0  0  0  0
    8.1241  -14.1227   27.2954 C   0  0  0  0  0  0  0  0  0  0  0  0
    8.8321  -15.1103   28.1167 C   0  0  0  0  0  0  0  0  0  0  0  0
   10.1047  -15.6529   27.4860 C   0  0  2  0  0  0  0  0  0  0  0  0
    9.6300  -16.3419   26.2862 N   0  0  0  0  0  0  0  0  0  0  0  0
   10.7340  -16.5984   28.4315 C   0  0  0  0  0  0  0  0  0  0  0  0
   11.4019  -16.0640   29.5325 O   0  0  0  0  0  0  0  0  0  0  0  0
    7.0137  -14.4500   26.5361 C   0  0  0  0  0  0  0  0  0  0  0  0
    6.3654  -13.4831   25.7637 C   0  0  0  0  0  0  0  0  0  0  0  0
   10.7115  -17.8278   28.3169 O   0  0  0  0  0  0  0  0  0  0  0  0
  2  1  1  0
  2  3  2  0
  4  5  1  0
  4  2  1  0
  6  5  1  0
  6  7  1  6
  8 15  1  0
  8  6  1  0
  9  8  2  0
 10 11  1  0
 11 13  1  0
 12 11  2  0
 14 13  1  6
 14 16  1  0
 14 15  1  0
 16 17  2  0
 19 18  1  0
 19 20  2  0
 21 20  1  0
 22 21  2  0
 23 22  1  0
 24 23  1  1
 24 26  1  0
 25 24  1  0
 25 16  1  0
 26 27  1  0
 28 29  2  0
 28 22  1  0
 29 19  1  0
 30 26  2  0
M  END
$$$$
