QNY.pdb
     RDKit          3D

 30 30  0  0  1  0  0  0  0  0999 V2000
    6.3045  -12.6362   16.9397 N   0  0  0  0  0  0  0  0  0  0  0  0
    7.5186  -13.1323   16.4188 C   0  0  0  0  0  0  0  0  0  0  0  0
    7.6380  -13.2258   15.1725 O   0  0  0  0  0  0  0  0  0  0  0  0
    8.6348  -13.5398   17.2842 C   0  0  0  0  0  0  0  0  0  0  0  0
    8.2328  -13.4360   18.7335 C   0  0  0  0  0  0  0  0  0  0  0  0
    9.4104  -13.7683   19.6485 C   0  0  2  0  0  0  0  0  0  0  0  0
   10.5121  -14.2612   18.8598 N   0  0  0  0  0  0  0  0  0  0  0  0
    8.9296  -14.8202   20.6059 C   0  0  0  0  0  0  0  0  0  0  0  0
    7.8325  -15.4039   20.4210 O   0  0  0  0  0  0  0  0  0  0  0  0
   13.7987  -15.9577   22.2729 N   0  0  0  0  0  0  0  0  0  0  0  0
   13.3225  -15.2706   21.1298 C   0  0  0  0  0  0  0  0  0  0  0  0
   14.0890  -15.1650   20.1427 O   0  0  0  0  0  0  0  0  0  0  0  0
   11.9850  -14.6928   21.0750 C   0  0  0  0  0  0  0  0  0  0  0  0
   11.0301  -15.6503   21.7663 C   0  0  2  0  0  0  0  0  0  0  0  0
    9.6779  -15.1995   21.7425 N   0  0  0  0  0  0  0  0  0  0  0  0
   11.5460  -15.8535   23.1445 C   0  0  0  0  0  0  0  0  0  0  0  0
   12.7071  -15.4880   23.4865 O   0  0  0  0  0  0  0  0  0  0  0  0
    5.6093  -11.6612   27.5343 O   0  0  0  0  0  0  0  0  0  0  0  0
    6.4652  -12.4778   26.7709 C   0  0  0  0  0  0  0  0  0  0  0  0
    7.4273  -13.2774   27.3433 C   0  0  0  0  0  0  0  0  0  0  0  0
    8.2445  -14.0622   26.5556 C   0  0  0  0  0  0  0  0  0  0  0  0
    8.1375  -14.0799   25.1814 C   0  0  0  0  0  0  0  0  0  0  0  0
    9.0268  -14.9246   24.3773 C   0  0  0  0  0  0  0  0  0  0  0  0
   10.0418  -15.7153   25.1874 C   0  0  2  0  0  0  0  0  0  0  0  0
   10.7828  -16.4672   24.1750 N   0  0  0  0  0  0  0  0  0  0  0  0
    9.3140  -16.6218   26.1000 C   0  0  0  0  0  0  0  0  0  0  0  0
    9.3359  -16.3230   27.4617 O   0  0  0  0  0  0  0  0  0  0  0  0
    7.1680  -13.2723   24.6119 C   0  0  0  0  0  0  0  0  0  0  0  0
    6.3396  -12.4787   25.4094 C   0  0  0  0  0  0  0  0  0  0  0  0
    8.6883  -17.6251   25.7440 O   0  0  0  0  0  0  0  0  0  0  0  0
  2  1  1  0
  2  3  2  0
  4  5  1  0
  4  2  1  0
  6  5  1  0
  6  7  1  6
  8 15  1  0
  8  6  1  0
  9  8  2  0
 10 11  1  0
 11 13  1  0
 12 11  2  0
 14 13  1  1
 14 16  1  0
 14 15  1  0
 16 17  2  0
 19 18  1  0
 19 20  2  0
 21 20  1  0
 22 21  2  0
 23 22  1  0
 24 23  1  6
 24 26  1  0
 25 24  1  0
 25 16  1  0
 26 27  1  0
 28 29  2  0
 28 22  1  0
 29 19  1  0
 30 26  2  0
M  END
$$$$
