QNY.pdb
     RDKit          3D

 30 30  0  0  1  0  0  0  0  0999 V2000
   15.0789  -16.4191   15.0431 N   0  0  0  0  0  0  0  0  0  0  0  0
   14.4215  -16.8015   13.8544 C   0  0  0  0  0  0  0  0  0  0  0  0
   15.1192  -17.0415   12.8386 O   0  0  0  0  0  0  0  0  0  0  0  0
   12.9589  -16.9237   13.7718 C   0  0  0  0  0  0  0  0  0  0  0  0
   12.3334  -16.5810   15.0998 C   0  0  0  0  0  0  0  0  0  0  0  0
   10.8269  -16.8337   15.0716 C   0  0  2  0  0  0  0  0  0  0  0  0
   10.2041  -15.9416   14.1255 N   0  0  0  0  0  0  0  0  0  0  0  0
   10.3195  -16.5738   16.4605 C   0  0  0  0  0  0  0  0  0  0  0  0
   10.6336  -15.5226   17.0729 O   0  0  0  0  0  0  0  0  0  0  0  0
    7.2742  -19.0624   21.1455 N   0  0  0  0  0  0  0  0  0  0  0  0
    7.3882  -18.0954   20.1171 C   0  0  0  0  0  0  0  0  0  0  0  0
    6.9949  -16.9289   20.3575 O   0  0  0  0  0  0  0  0  0  0  0  0
    7.9422  -18.4190   18.8078 C   0  0  0  0  0  0  0  0  0  0  0  0
    8.9968  -17.3787   18.4731 C   0  0  2  0  0  0  0  0  0  0  0  0
    9.4757  -17.4845   17.1344 N   0  0  0  0  0  0  0  0  0  0  0  0
   10.0762  -17.5182   19.4842 C   0  0  0  0  0  0  0  0  0  0  0  0
   10.9394  -18.4399   19.4206 O   0  0  0  0  0  0  0  0  0  0  0  0
   15.4450  -13.9839   17.7359 O   0  0  0  0  0  0  0  0  0  0  0  0
   14.5640  -14.3601   18.7676 C   0  0  0  0  0  0  0  0  0  0  0  0
   14.9902  -15.0127   19.9011 C   0  0  0  0  0  0  0  0  0  0  0  0
   14.0907  -15.3622   20.8875 C   0  0  0  0  0  0  0  0  0  0  0  0
   12.7455  -15.0798   20.7837 C   0  0  0  0  0  0  0  0  0  0  0  0
   11.8192  -15.4706   21.8516 C   0  0  0  0  0  0  0  0  0  0  0  0
   11.1909  -16.8426   21.6651 C   0  0  2  0  0  0  0  0  0  0  0  0
   10.2214  -16.6360   20.5895 N   0  0  0  0  0  0  0  0  0  0  0  0
   10.5189  -17.2289   22.9233 C   0  0  0  0  0  0  0  0  0  0  0  0
   11.3247  -17.5448   24.0164 O   0  0  0  0  0  0  0  0  0  0  0  0
   12.3233  -14.4237   19.6401 C   0  0  0  0  0  0  0  0  0  0  0  0
   13.2340  -14.0685   18.6421 C   0  0  0  0  0  0  0  0  0  0  0  0
    9.2953  -17.2927   23.0767 O   0  0  0  0  0  0  0  0  0  0  0  0
  2  1  1  0
  2  3  2  0
  4  5  1  0
  4  2  1  0
  6  5  1  0
  6  7  1  6
  8 15  1  0
  8  6  1  0
  9  8  2  0
 10 11  1  0
 11 13  1  0
 12 11  2  0
 14 13  1  1
 14 16  1  0
 14 15  1  0
 16 17  2  0
 19 18  1  0
 19 20  2  0
 21 20  1  0
 22 21  2  0
 23 22  1  0
 24 23  1  1
 24 26  1  0
 25 24  1  0
 25 16  1  0
 26 27  1  0
 28 29  2  0
 28 22  1  0
 29 19  1  0
 30 26  2  0
M  END
$$$$
