QNY.pdb
     RDKit          3D

 30 30  0  0  1  0  0  0  0  0999 V2000
    8.1551  -12.8709   16.6505 N   0  0  0  0  0  0  0  0  0  0  0  0
    7.8754  -14.1935   16.2455 C   0  0  0  0  0  0  0  0  0  0  0  0
    6.8703  -14.3946   15.5206 O   0  0  0  0  0  0  0  0  0  0  0  0
    8.7170  -15.3305   16.6454 C   0  0  0  0  0  0  0  0  0  0  0  0
    9.8714  -14.8510   17.4880 C   0  0  0  0  0  0  0  0  0  0  0  0
   10.6811  -16.0316   18.0216 C   0  0  2  0  0  0  0  0  0  0  0  0
   10.7044  -17.0862   17.0386 N   0  0  0  0  0  0  0  0  0  0  0  0
    9.9986  -16.4908   19.2775 C   0  0  0  0  0  0  0  0  0  0  0  0
    8.8347  -16.1061   19.5535 O   0  0  0  0  0  0  0  0  0  0  0  0
    9.6933  -20.9626   21.1807 N   0  0  0  0  0  0  0  0  0  0  0  0
   10.8121  -20.0944   21.1661 C   0  0  0  0  0  0  0  0  0  0  0  0
   11.7392  -20.3398   20.3579 O   0  0  0  0  0  0  0  0  0  0  0  0
   10.9095  -18.9420   22.0540 C   0  0  0  0  0  0  0  0  0  0  0  0
   10.1016  -17.8094   21.4451 C   0  0  2  0  0  0  0  0  0  0  0  0
   10.6226  -17.3656   20.1945 N   0  0  0  0  0  0  0  0  0  0  0  0
   10.0420  -16.7274   22.4614 C   0  0  0  0  0  0  0  0  0  0  0  0
   11.0718  -16.0878   22.8208 O   0  0  0  0  0  0  0  0  0  0  0  0
    5.9274  -10.9824   28.0072 O   0  0  0  0  0  0  0  0  0  0  0  0
    6.2901  -11.9184   27.0201 C   0  0  0  0  0  0  0  0  0  0  0  0
    7.3777  -11.7395   26.1969 C   0  0  0  0  0  0  0  0  0  0  0  0
    7.6962  -12.6840   25.2428 C   0  0  0  0  0  0  0  0  0  0  0  0
    6.9508  -13.8308   25.0718 C   0  0  0  0  0  0  0  0  0  0  0  0
    7.3185  -14.8103   24.0440 C   0  0  0  0  0  0  0  0  0  0  0  0
    8.7667  -15.2695   24.1055 C   0  0  2  0  0  0  0  0  0  0  0  0
    8.8362  -16.3309   23.1015 N   0  0  0  0  0  0  0  0  0  0  0  0
    9.0376  -15.7962   25.4595 C   0  0  0  0  0  0  0  0  0  0  0  0
    8.7859  -17.1480   25.6901 O   0  0  0  0  0  0  0  0  0  0  0  0
    5.8573  -14.0042   25.9029 C   0  0  0  0  0  0  0  0  0  0  0  0
    5.5355  -13.0487   26.8700 C   0  0  0  0  0  0  0  0  0  0  0  0
    9.4704  -15.1256   26.4018 O   0  0  0  0  0  0  0  0  0  0  0  0
  2  1  1  0
  2  3  2  0
  4  5  1  0
  4  2  1  0
  6  5  1  0
  6  7  1  6
  8 15  1  0
  8  6  1  0
  9  8  2  0
 10 11  1  0
 11 13  1  0
 12 11  2  0
 14 13  1  1
 14 16  1  0
 14 15  1  0
 16 17  2  0
 19 18  1  0
 19 20  2  0
 21 20  1  0
 22 21  2  0
 23 22  1  0
 24 23  1  1
 24 26  1  0
 25 24  1  0
 25 16  1  0
 26 27  1  0
 28 29  2  0
 28 22  1  0
 29 19  1  0
 30 26  2  0
M  END
$$$$
