NEA.pdb
     RDKit          3D

 23 22  0  0  1  0  0  0  0  0999 V2000
   18.6480  -14.9225  -18.8507 N   0  0  0  0  0  0  0  0  0  0  0  0
   19.5909  -13.8647  -18.9738 C   0  0  0  0  0  0  0  0  0  0  0  0
   20.7230  -14.0702  -19.4645 O   0  0  0  0  0  0  0  0  0  0  0  0
   19.1919  -12.5155  -18.5036 C   0  0  0  0  0  0  0  0  0  0  0  0
   20.3260  -11.8901  -17.7538 C   0  0  2  0  0  0  0  0  0  0  0  0
   20.7739  -12.6458  -16.6320 N   0  0  0  0  0  0  0  0  0  0  0  0
   19.9341  -10.4913  -17.3768 C   0  0  0  0  0  0  0  0  0  0  0  0
   19.5952   -9.6427  -18.2654 O   0  0  0  0  0  0  0  0  0  0  0  0
   19.9428  -10.1120  -16.0068 N   0  0  0  0  0  0  0  0  0  0  0  0
   19.5365   -8.8107  -15.5505 C   0  0  1  0  0  0  0  0  0  0  0  0
   18.4090   -8.8684  -14.5420 C   0  0  0  0  0  0  0  0  0  0  0  0
   17.2178   -9.5292  -15.1900 C   0  0  0  0  0  0  0  0  0  0  0  0
   16.0453   -9.5650  -14.3048 C   0  0  0  0  0  0  0  0  0  0  0  0
   16.1966   -9.1019  -13.1359 O   0  0  0  0  0  0  0  0  0  0  0  0
   20.6757   -7.9867  -15.0836 C   0  0  0  0  0  0  0  0  0  0  0  0
   21.5337   -8.5146  -14.3403 O   0  0  0  0  0  0  0  0  0  0  0  0
   14.8016  -10.0657  -14.6624 O   0  0  0  0  0  0  0  0  0  0  0  0
   21.9746   -4.5055  -15.8247 C   0  0  0  0  0  0  0  0  0  0  0  0
   21.8786   -5.7722  -15.0430 C   0  0  2  0  0  0  0  0  0  0  0  0
   20.8059   -6.6458  -15.4552 N   0  0  0  0  0  0  0  0  0  0  0  0
   21.6215   -5.4027  -13.6126 C   0  0  0  0  0  0  0  0  0  0  0  0
   20.4895   -5.5714  -13.0847 O   0  0  0  0  0  0  0  0  0  0  0  0
   22.6137   -4.8577  -12.7983 O   0  0  0  0  0  0  0  0  0  0  0  0
  2  1  1  0
  2  3  2  0
  4  2  1  0
  5  4  1  0
  5  6  1  1
  7  9  1  0
  7  5  1  0
  8  7  2  0
 10 15  1  0
 10  9  1  0
 10 11  1  1
 12 11  1  0
 13 12  1  0
 13 14  2  0
 15 16  2  0
 17 13  1  0
 19 18  1  6
 20 19  1  0
 20 15  1  0
 21 23  1  0
 21 19  1  0
 22 21  2  0
M  END
$$$$
