NEA.pdb
     RDKit          3D

 23 22  0  0  1  0  0  0  0  0999 V2000
   20.8077  -15.0779  -16.9966 N   0  0  0  0  0  0  0  0  0  0  0  0
   19.8985  -14.5873  -17.9742 C   0  0  0  0  0  0  0  0  0  0  0  0
   19.2901  -15.3730  -18.7340 O   0  0  0  0  0  0  0  0  0  0  0  0
   19.6951  -13.1207  -18.0649 C   0  0  0  0  0  0  0  0  0  0  0  0
   20.5156  -12.4350  -17.0179 C   0  0  2  0  0  0  0  0  0  0  0  0
   20.2768  -12.8965  -15.6913 N   0  0  0  0  0  0  0  0  0  0  0  0
   20.3141  -10.9536  -17.1492 C   0  0  0  0  0  0  0  0  0  0  0  0
   20.5811  -10.3491  -18.2391 O   0  0  0  0  0  0  0  0  0  0  0  0
   19.8180  -10.2182  -16.0384 N   0  0  0  0  0  0  0  0  0  0  0  0
   19.6725   -8.7880  -16.0464 C   0  0  1  0  0  0  0  0  0  0  0  0
   18.2871   -8.3372  -15.6348 C   0  0  0  0  0  0  0  0  0  0  0  0
   17.3511   -8.5345  -16.8011 C   0  0  0  0  0  0  0  0  0  0  0  0
   17.3505   -7.3880  -17.7204 C   0  0  0  0  0  0  0  0  0  0  0  0
   17.3121   -6.2354  -17.1974 O   0  0  0  0  0  0  0  0  0  0  0  0
   20.7432   -8.0997  -15.2884 C   0  0  0  0  0  0  0  0  0  0  0  0
   20.9908   -8.4780  -14.1210 O   0  0  0  0  0  0  0  0  0  0  0  0
   17.3891   -7.4860  -19.1040 O   0  0  0  0  0  0  0  0  0  0  0  0
   23.2128   -5.3100  -16.0348 C   0  0  0  0  0  0  0  0  0  0  0  0
   22.5174   -6.3129  -15.1772 C   0  0  2  0  0  0  0  0  0  0  0  0
   21.4723   -7.0475  -15.8493 N   0  0  0  0  0  0  0  0  0  0  0  0
   21.8757   -5.5711  -14.0430 C   0  0  0  0  0  0  0  0  0  0  0  0
   22.5619   -5.0925  -13.1004 O   0  0  0  0  0  0  0  0  0  0  0  0
   20.4972   -5.3733  -13.9729 O   0  0  0  0  0  0  0  0  0  0  0  0
  2  1  1  0
  2  3  2  0
  4  2  1  0
  5  4  1  0
  5  6  1  1
  7  9  1  0
  7  5  1  0
  8  7  2  0
 10 15  1  0
 10  9  1  0
 10 11  1  1
 12 11  1  0
 13 12  1  0
 13 14  2  0
 15 16  2  0
 17 13  1  0
 19 18  1  6
 20 19  1  0
 20 15  1  0
 21 23  1  0
 21 19  1  0
 22 21  2  0
M  END
$$$$
