NEA.pdb
     RDKit          3D

 23 22  0  0  1  0  0  0  0  0999 V2000
   19.7358  -27.0479   -3.2213 N   0  0  0  0  0  0  0  0  0  0  0  0
   20.0544  -27.0702   -1.8353 C   0  0  0  0  0  0  0  0  0  0  0  0
   20.1590  -26.0066   -1.1854 O   0  0  0  0  0  0  0  0  0  0  0  0
   20.2585  -28.3887   -1.1869 C   0  0  0  0  0  0  0  0  0  0  0  0
   20.0634  -29.4783   -2.1940 C   0  0  2  0  0  0  0  0  0  0  0  0
   18.7342  -29.5800   -2.6968 N   0  0  0  0  0  0  0  0  0  0  0  0
   20.5464  -30.7688   -1.5993 C   0  0  0  0  0  0  0  0  0  0  0  0
   19.7789  -31.4869   -0.8782 O   0  0  0  0  0  0  0  0  0  0  0  0
   21.8807  -31.1922   -1.8469 N   0  0  0  0  0  0  0  0  0  0  0  0
   22.4625  -32.3531   -1.2301 C   0  0  1  0  0  0  0  0  0  0  0  0
   23.9219  -32.5378   -1.5876 C   0  0  0  0  0  0  0  0  0  0  0  0
   24.0325  -32.7110   -3.0819 C   0  0  0  0  0  0  0  0  0  0  0  0
   25.4277  -32.7257   -3.5436 C   0  0  0  0  0  0  0  0  0  0  0  0
   25.6162  -32.8258   -4.7917 O   0  0  0  0  0  0  0  0  0  0  0  0
   22.2239  -32.4048    0.2312 C   0  0  0  0  0  0  0  0  0  0  0  0
   22.3220  -31.3468    0.8934 O   0  0  0  0  0  0  0  0  0  0  0  0
   26.5350  -32.6378   -2.7119 O   0  0  0  0  0  0  0  0  0  0  0  0
   20.3160  -34.4198    2.5827 C   0  0  0  0  0  0  0  0  0  0  0  0
   21.6054  -33.7329    2.2821 C   0  0  2  0  0  0  0  0  0  0  0  0
   21.8951  -33.6013    0.8741 N   0  0  0  0  0  0  0  0  0  0  0  0
   22.7064  -34.5538    2.8841 C   0  0  0  0  0  0  0  0  0  0  0  0
   23.5713  -35.1207    2.1635 O   0  0  0  0  0  0  0  0  0  0  0  0
   22.8300  -34.7312    4.2617 O   0  0  0  0  0  0  0  0  0  0  0  0
  2  1  1  0
  2  3  2  0
  4  2  1  0
  5  4  1  0
  5  6  1  1
  7  9  1  0
  7  5  1  0
  8  7  2  0
 10 15  1  0
 10  9  1  0
 10 11  1  1
 12 11  1  0
 13 12  1  0
 13 14  2  0
 15 16  2  0
 17 13  1  0
 19 18  1  6
 20 19  1  0
 20 15  1  0
 21 23  1  0
 21 19  1  0
 22 21  2  0
M  END
$$$$
