NEA.pdb
     RDKit          3D

 23 22  0  0  1  0  0  0  0  0999 V2000
   13.4719  -11.7586  -16.1561 N   0  0  0  0  0  0  0  0  0  0  0  0
   12.9482  -11.3747  -14.8906 C   0  0  0  0  0  0  0  0  0  0  0  0
   11.7526  -11.5980  -14.5982 O   0  0  0  0  0  0  0  0  0  0  0  0
   13.8599  -10.7034  -13.9322 C   0  0  0  0  0  0  0  0  0  0  0  0
   15.2267  -10.5954  -14.5320 C   0  0  2  0  0  0  0  0  0  0  0  0
   16.0130  -11.7776  -14.4144 N   0  0  0  0  0  0  0  0  0  0  0  0
   15.9117   -9.3965  -13.9439 C   0  0  0  0  0  0  0  0  0  0  0  0
   16.1250   -9.3118  -12.6902 O   0  0  0  0  0  0  0  0  0  0  0  0
   16.3267   -8.3421  -14.8024 N   0  0  0  0  0  0  0  0  0  0  0  0
   17.1401   -7.2431  -14.3583 C   0  0  1  0  0  0  0  0  0  0  0  0
   18.6195   -7.4860  -14.5681 C   0  0  0  0  0  0  0  0  0  0  0  0
   18.8241   -8.0342  -15.9584 C   0  0  0  0  0  0  0  0  0  0  0  0
   20.2449   -8.2178  -16.2860 C   0  0  0  0  0  0  0  0  0  0  0  0
   21.0838   -7.8987  -15.3926 O   0  0  0  0  0  0  0  0  0  0  0  0
   16.6936   -5.9420  -14.9084 C   0  0  0  0  0  0  0  0  0  0  0  0
   16.2158   -5.9113  -16.0652 O   0  0  0  0  0  0  0  0  0  0  0  0
   20.7191   -8.7112  -17.4931 O   0  0  0  0  0  0  0  0  0  0  0  0
   15.6680   -2.6279  -13.6627 C   0  0  0  0  0  0  0  0  0  0  0  0
   16.4366   -3.4487  -14.6427 C   0  0  2  0  0  0  0  0  0  0  0  0
   16.7963   -4.7627  -14.1655 N   0  0  0  0  0  0  0  0  0  0  0  0
   17.7144   -2.7217  -14.9382 C   0  0  0  0  0  0  0  0  0  0  0  0
   18.8343   -3.2137  -14.6348 O   0  0  0  0  0  0  0  0  0  0  0  0
   17.7299   -1.4734  -15.5594 O   0  0  0  0  0  0  0  0  0  0  0  0
  2  1  1  0
  2  3  2  0
  4  2  1  0
  5  4  1  0
  5  6  1  1
  7  9  1  0
  7  5  1  0
  8  7  2  0
 10 15  1  0
 10  9  1  0
 10 11  1  6
 12 11  1  0
 13 12  1  0
 13 14  2  0
 15 16  2  0
 17 13  1  0
 19 18  1  1
 20 19  1  0
 20 15  1  0
 21 23  1  0
 21 19  1  0
 22 21  2  0
M  END
$$$$
