NEA.pdb
     RDKit          3D

 23 22  0  0  1  0  0  0  0  0999 V2000
   28.0512  -21.2254  -17.0098 N   0  0  0  0  0  0  0  0  0  0  0  0
   27.7780  -21.5717  -15.6575 C   0  0  0  0  0  0  0  0  0  0  0  0
   28.5784  -22.2754  -15.0027 O   0  0  0  0  0  0  0  0  0  0  0  0
   26.5192  -21.0747  -15.0502 C   0  0  0  0  0  0  0  0  0  0  0  0
   25.8083  -20.1883  -16.0241 C   0  0  2  0  0  0  0  0  0  0  0  0
   26.5846  -19.0877  -16.4890 N   0  0  0  0  0  0  0  0  0  0  0  0
   24.5110  -19.7497  -15.4101 C   0  0  0  0  0  0  0  0  0  0  0  0
   24.4592  -18.7351  -14.6404 O   0  0  0  0  0  0  0  0  0  0  0  0
   23.3251  -20.4802  -15.6944 N   0  0  0  0  0  0  0  0  0  0  0  0
   22.0321  -20.1030  -15.1919 C   0  0  1  0  0  0  0  0  0  0  0  0
   20.9903  -19.9846  -16.2839 C   0  0  0  0  0  0  0  0  0  0  0  0
   21.2734  -18.7384  -17.0853 C   0  0  0  0  0  0  0  0  0  0  0  0
   20.3413  -18.5697  -18.2088 C   0  0  0  0  0  0  0  0  0  0  0  0
   20.5156  -17.5577  -18.9497 O   0  0  0  0  0  0  0  0  0  0  0  0
   21.5834  -20.9576  -14.0680 C   0  0  0  0  0  0  0  0  0  0  0  0
   21.7784  -22.1923  -14.1375 O   0  0  0  0  0  0  0  0  0  0  0  0
   19.2984  -19.4355  -18.5057 O   0  0  0  0  0  0  0  0  0  0  0  0
   20.1734  -20.3277  -10.6070 C   0  0  0  0  0  0  0  0  0  0  0  0
   20.5260  -21.1656  -11.7895 C   0  0  2  0  0  0  0  0  0  0  0  0
   20.9535  -20.4137  -12.9452 N   0  0  0  0  0  0  0  0  0  0  0  0
   19.2964  -21.9258  -12.1881 C   0  0  0  0  0  0  0  0  0  0  0  0
   18.7799  -22.7850  -11.4243 O   0  0  0  0  0  0  0  0  0  0  0  0
   18.6653  -21.7231  -13.4150 O   0  0  0  0  0  0  0  0  0  0  0  0
  2  1  1  0
  2  3  2  0
  4  2  1  0
  5  4  1  0
  5  6  1  1
  7  9  1  0
  7  5  1  0
  8  7  2  0
 10 15  1  0
 10  9  1  0
 10 11  1  6
 12 11  1  0
 13 12  1  0
 13 14  2  0
 15 16  2  0
 17 13  1  0
 19 18  1  1
 20 19  1  0
 20 15  1  0
 21 23  1  0
 21 19  1  0
 22 21  2  0
M  END
$$$$
