NEA.pdb
     RDKit          3D

 23 22  0  0  1  0  0  0  0  0999 V2000
   27.5623  -12.6180  -15.2182 N   0  0  0  0  0  0  0  0  0  0  0  0
   27.4648  -12.0758  -16.5296 C   0  0  0  0  0  0  0  0  0  0  0  0
   28.1278  -12.5599  -17.4733 O   0  0  0  0  0  0  0  0  0  0  0  0
   26.5565  -10.9225  -16.7425 C   0  0  0  0  0  0  0  0  0  0  0  0
   25.3457  -11.3708  -17.4991 C   0  0  2  0  0  0  0  0  0  0  0  0
   25.6120  -11.7929  -18.8336 N   0  0  0  0  0  0  0  0  0  0  0  0
   24.3174  -10.2791  -17.4429 C   0  0  0  0  0  0  0  0  0  0  0  0
   24.2936   -9.3543  -18.3197 O   0  0  0  0  0  0  0  0  0  0  0  0
   23.3580  -10.2809  -16.3939 N   0  0  0  0  0  0  0  0  0  0  0  0
   22.2868   -9.3259  -16.3090 C   0  0  1  0  0  0  0  0  0  0  0  0
   20.9916   -9.9392  -15.8209 C   0  0  0  0  0  0  0  0  0  0  0  0
   19.8996   -8.9041  -15.9272 C   0  0  0  0  0  0  0  0  0  0  0  0
   18.5990   -9.4111  -15.4678 C   0  0  0  0  0  0  0  0  0  0  0  0
   17.6296   -8.5966  -15.4834 O   0  0  0  0  0  0  0  0  0  0  0  0
   22.6625   -8.1107  -15.5494 C   0  0  0  0  0  0  0  0  0  0  0  0
   23.2682   -8.2457  -14.4621 O   0  0  0  0  0  0  0  0  0  0  0  0
   18.3685  -10.7058  -15.0250 O   0  0  0  0  0  0  0  0  0  0  0  0
   22.3719   -4.3688  -16.1496 C   0  0  0  0  0  0  0  0  0  0  0  0
   22.7961   -5.5973  -15.4175 C   0  0  2  0  0  0  0  0  0  0  0  0
   22.3550   -6.8319  -16.0217 N   0  0  0  0  0  0  0  0  0  0  0  0
   22.1930   -5.5374  -14.0459 C   0  0  0  0  0  0  0  0  0  0  0  0
   21.1120   -6.1275  -13.7782 O   0  0  0  0  0  0  0  0  0  0  0  0
   22.7923   -4.8315  -13.0033 O   0  0  0  0  0  0  0  0  0  0  0  0
  2  1  1  0
  2  3  2  0
  4  2  1  0
  5  4  1  0
  5  6  1  6
  7  9  1  0
  7  5  1  0
  8  7  2  0
 10 15  1  0
 10  9  1  0
 10 11  1  1
 12 11  1  0
 13 12  1  0
 13 14  2  0
 15 16  2  0
 17 13  1  0
 19 18  1  6
 20 19  1  0
 20 15  1  0
 21 23  1  0
 21 19  1  0
 22 21  2  0
M  END
$$$$
