NEA.pdb
     RDKit          3D

 23 22  0  0  1  0  0  0  0  0999 V2000
   18.9193  -11.8736  -14.9672 N   0  0  0  0  0  0  0  0  0  0  0  0
   19.4298  -11.6673  -16.2787 C   0  0  0  0  0  0  0  0  0  0  0  0
   19.7889  -12.6350  -16.9853 O   0  0  0  0  0  0  0  0  0  0  0  0
   19.5235  -10.2745  -16.7804 C   0  0  0  0  0  0  0  0  0  0  0  0
   20.8030  -10.0987  -17.5363 C   0  0  2  0  0  0  0  0  0  0  0  0
   21.9681  -10.4870  -16.8140 N   0  0  0  0  0  0  0  0  0  0  0  0
   20.8802   -8.6798  -18.0191 C   0  0  0  0  0  0  0  0  0  0  0  0
   19.9718   -8.1910  -18.7678 O   0  0  0  0  0  0  0  0  0  0  0  0
   21.9851   -7.8730  -17.6328 N   0  0  0  0  0  0  0  0  0  0  0  0
   22.1277   -6.4977  -18.0263 C   0  0  1  0  0  0  0  0  0  0  0  0
   21.6529   -5.5311  -16.9624 C   0  0  0  0  0  0  0  0  0  0  0  0
   22.1734   -5.9949  -15.6247 C   0  0  0  0  0  0  0  0  0  0  0  0
   21.9066   -5.0265  -14.5521 C   0  0  0  0  0  0  0  0  0  0  0  0
   22.3883   -5.2897  -13.4110 O   0  0  0  0  0  0  0  0  0  0  0  0
   23.4896   -6.1808  -18.5158 C   0  0  0  0  0  0  0  0  0  0  0  0
   24.4733   -6.6501  -17.8999 O   0  0  0  0  0  0  0  0  0  0  0  0
   21.1721   -3.8595  -14.7073 O   0  0  0  0  0  0  0  0  0  0  0  0
   24.9098   -4.3841  -21.5414 C   0  0  0  0  0  0  0  0  0  0  0  0
   24.9777   -5.0597  -20.2134 C   0  0  2  0  0  0  0  0  0  0  0  0
   23.6910   -5.3760  -19.6405 N   0  0  0  0  0  0  0  0  0  0  0  0
   25.6649   -4.1241  -19.2643 C   0  0  0  0  0  0  0  0  0  0  0  0
   25.0267   -3.5206  -18.3604 O   0  0  0  0  0  0  0  0  0  0  0  0
   27.0353   -3.8750  -19.3316 O   0  0  0  0  0  0  0  0  0  0  0  0
  2  1  1  0
  2  3  2  0
  4  2  1  0
  5  4  1  0
  5  6  1  1
  7  9  1  0
  7  5  1  0
  8  7  2  0
 10 15  1  0
 10  9  1  0
 10 11  1  1
 12 11  1  0
 13 12  1  0
 13 14  2  0
 15 16  2  0
 17 13  1  0
 19 18  1  6
 20 19  1  0
 20 15  1  0
 21 23  1  0
 21 19  1  0
 22 21  2  0
M  END
$$$$
