KKA.pdb
     RDKit          3D

 24 23  0  0  1  0  0  0  0  0999 V2000
   40.6784  -10.1135   -8.1278 N   0  0  0  0  0  0  0  0  0  0  0  0
   41.7048  -10.5489   -9.0479 C   0  0  1  0  0  0  0  0  0  0  0  0
   42.7821   -9.4780   -9.1880 C   0  0  0  0  0  0  0  0  0  0  0  0
   42.1309   -8.3067   -9.8303 C   0  0  0  0  0  0  0  0  0  0  0  0
   42.9870   -7.1419  -10.1646 C   0  0  0  0  0  0  0  0  0  0  0  0
   42.2689   -5.9866  -10.7557 C   0  0  0  0  0  0  0  0  0  0  0  0
   43.1484   -4.8931  -11.0126 N   0  0  0  0  0  0  0  0  0  0  0  0
   42.3003  -11.8242   -8.5422 C   0  0  0  0  0  0  0  0  0  0  0  0
   42.4588  -12.0290   -7.2925 O   0  0  0  0  0  0  0  0  0  0  0  0
   42.7136  -12.8579   -9.4237 N   0  0  0  0  0  0  0  0  0  0  0  0
   43.4054  -14.0682   -8.9612 C   0  0  1  0  0  0  0  0  0  0  0  0
   43.0004  -15.2563   -9.7651 C   0  0  0  0  0  0  0  0  0  0  0  0
   43.7403  -16.5151   -9.4982 C   0  0  0  0  0  0  0  0  0  0  0  0
   43.1440  -17.7133  -10.2148 C   0  0  0  0  0  0  0  0  0  0  0  0
   43.8563  -18.9712   -9.7822 C   0  0  0  0  0  0  0  0  0  0  0  0
   43.3239  -20.1276  -10.4404 N   0  0  0  0  0  0  0  0  0  0  0  0
   44.8741  -13.8771   -9.0376 C   0  0  0  0  0  0  0  0  0  0  0  0
   45.4465  -13.4483  -10.0706 O   0  0  0  0  0  0  0  0  0  0  0  0
   47.5537  -12.7992   -7.2108 C   0  0  0  0  0  0  0  0  0  0  0  0
   47.0998  -14.0461   -7.9806 C   0  0  2  0  0  0  0  0  0  0  0  0
   45.6675  -14.1972   -7.8796 N   0  0  0  0  0  0  0  0  0  0  0  0
   47.8186  -15.1888   -7.4177 C   0  0  0  0  0  0  0  0  0  0  0  0
   47.2139  -16.0906   -6.7992 O   0  0  0  0  0  0  0  0  0  0  0  0
   49.1860  -15.2827   -7.5662 O   0  0  0  0  0  0  0  0  0  0  0  0
  2  1  1  1
  3  2  1  0
  4  3  1  0
  5  4  1  0
  5  6  1  0
  7  6  1  0
  8  2  1  0
  8  9  2  0
 10  8  1  0
 11 12  1  6
 11 10  1  0
 13 12  1  0
 13 14  1  0
 14 15  1  0
 15 16  1  0
 17 11  1  0
 18 17  2  0
 20 19  1  1
 20 21  1  0
 21 17  1  0
 22 20  1  0
 22 24  1  0
 23 22  2  0
M  END
$$$$
