KKA.pdb
     RDKit          3D

 24 23  0  0  1  0  0  0  0  0999 V2000
   23.2952  -19.3139  -14.7289 N   0  0  0  0  0  0  0  0  0  0  0  0
   22.3369  -19.4607  -15.8012 C   0  0  1  0  0  0  0  0  0  0  0  0
   22.1576  -18.1374  -16.5387 C   0  0  0  0  0  0  0  0  0  0  0  0
   20.9745  -17.4738  -15.9320 C   0  0  0  0  0  0  0  0  0  0  0  0
   20.5634  -16.1603  -16.4864 C   0  0  0  0  0  0  0  0  0  0  0  0
   19.2779  -15.6356  -15.9650 C   0  0  0  0  0  0  0  0  0  0  0  0
   18.9389  -14.3832  -16.5583 N   0  0  0  0  0  0  0  0  0  0  0  0
   22.8188  -20.5198  -16.7407 C   0  0  0  0  0  0  0  0  0  0  0  0
   23.2083  -20.2285  -17.9206 O   0  0  0  0  0  0  0  0  0  0  0  0
   22.8644  -21.8885  -16.3650 N   0  0  0  0  0  0  0  0  0  0  0  0
   23.5071  -22.9190  -17.1910 C   0  0  1  0  0  0  0  0  0  0  0  0
   24.5776  -23.6239  -16.4300 C   0  0  0  0  0  0  0  0  0  0  0  0
   25.3274  -24.6723  -17.1662 C   0  0  0  0  0  0  0  0  0  0  0  0
   26.4859  -25.2407  -16.3666 C   0  0  0  0  0  0  0  0  0  0  0  0
   27.3212  -26.1367  -17.2477 C   0  0  0  0  0  0  0  0  0  0  0  0
   28.3611  -26.7826  -16.5025 N   0  0  0  0  0  0  0  0  0  0  0  0
   22.4964  -23.8925  -17.6703 C   0  0  0  0  0  0  0  0  0  0  0  0
   21.7458  -24.5272  -16.8878 O   0  0  0  0  0  0  0  0  0  0  0  0
   21.0254  -24.7420  -21.0216 C   0  0  0  0  0  0  0  0  0  0  0  0
   21.3441  -25.0130  -19.5456 C   0  0  2  0  0  0  0  0  0  0  0  0
   22.3765  -24.1133  -19.0880 N   0  0  0  0  0  0  0  0  0  0  0  0
   21.7443  -26.4157  -19.4388 C   0  0  0  0  0  0  0  0  0  0  0  0
   22.9481  -26.7484  -19.4800 O   0  0  0  0  0  0  0  0  0  0  0  0
   20.7858  -27.3953  -19.2897 O   0  0  0  0  0  0  0  0  0  0  0  0
  2  1  1  1
  3  2  1  0
  4  3  1  0
  5  4  1  0
  5  6  1  0
  7  6  1  0
  8  2  1  0
  8  9  2  0
 10  8  1  0
 11 12  1  1
 11 10  1  0
 13 12  1  0
 13 14  1  0
 14 15  1  0
 15 16  1  0
 17 11  1  0
 18 17  2  0
 20 19  1  6
 20 21  1  0
 21 17  1  0
 22 20  1  0
 22 24  1  0
 23 22  2  0
M  END
$$$$
