KKA.pdb
     RDKit          3D

 24 23  0  0  1  0  0  0  0  0999 V2000
   19.8643  -22.2451  -13.5656 N   0  0  0  0  0  0  0  0  0  0  0  0
   20.4104  -21.2338  -12.6889 C   0  0  1  0  0  0  0  0  0  0  0  0
   20.7170  -21.8282  -11.3178 C   0  0  0  0  0  0  0  0  0  0  0  0
   19.4149  -22.2556  -10.7432 C   0  0  0  0  0  0  0  0  0  0  0  0
   18.8380  -23.5351  -11.2244 C   0  0  0  0  0  0  0  0  0  0  0  0
   17.5383  -23.9048  -10.6129 C   0  0  0  0  0  0  0  0  0  0  0  0
   17.5737  -25.2144  -10.0480 N   0  0  0  0  0  0  0  0  0  0  0  0
   21.6540  -20.6774  -13.3057 C   0  0  0  0  0  0  0  0  0  0  0  0
   22.3705  -19.8201  -12.6890 O   0  0  0  0  0  0  0  0  0  0  0  0
   22.0910  -21.0752  -14.5970 N   0  0  0  0  0  0  0  0  0  0  0  0
   23.3262  -20.5689  -15.2095 C   0  0  1  0  0  0  0  0  0  0  0  0
   24.3462  -21.6494  -15.3285 C   0  0  0  0  0  0  0  0  0  0  0  0
   25.6427  -21.2663  -15.9414 C   0  0  0  0  0  0  0  0  0  0  0  0
   26.6093  -22.4314  -16.0542 C   0  0  0  0  0  0  0  0  0  0  0  0
   27.8673  -21.9828  -16.7563 C   0  0  0  0  0  0  0  0  0  0  0  0
   28.8376  -23.0358  -16.8168 N   0  0  0  0  0  0  0  0  0  0  0  0
   23.0349  -19.9931  -16.5447 C   0  0  0  0  0  0  0  0  0  0  0  0
   22.2619  -20.5477  -17.3653 O   0  0  0  0  0  0  0  0  0  0  0  0
   23.7050  -16.6716  -18.1860 C   0  0  0  0  0  0  0  0  0  0  0  0
   23.2994  -18.1510  -18.1684 C   0  0  2  0  0  0  0  0  0  0  0  0
   23.6656  -18.7505  -16.9071 N   0  0  0  0  0  0  0  0  0  0  0  0
   23.9620  -18.7959  -19.3016 C   0  0  0  0  0  0  0  0  0  0  0  0
   24.8770  -19.6285  -19.1258 O   0  0  0  0  0  0  0  0  0  0  0  0
   23.5787  -18.4874  -20.5895 O   0  0  0  0  0  0  0  0  0  0  0  0
  2  1  1  6
  3  2  1  0
  4  3  1  0
  5  4  1  0
  5  6  1  0
  7  6  1  0
  8  2  1  0
  8  9  2  0
 10  8  1  0
 11 12  1  6
 11 10  1  0
 13 12  1  0
 13 14  1  0
 14 15  1  0
 15 16  1  0
 17 11  1  0
 18 17  2  0
 20 19  1  1
 20 21  1  0
 21 17  1  0
 22 20  1  0
 22 24  1  0
 23 22  2  0
M  END
$$$$
