KKA.pdb
     RDKit          3D

 24 23  0  0  1  0  0  0  0  0999 V2000
   26.0753  -21.7050  -15.9414 N   0  0  0  0  0  0  0  0  0  0  0  0
   25.2293  -20.5617  -15.6833 C   0  0  1  0  0  0  0  0  0  0  0  0
   25.3439  -19.5487  -16.8182 C   0  0  0  0  0  0  0  0  0  0  0  0
   26.7411  -19.0433  -16.7923 C   0  0  0  0  0  0  0  0  0  0  0  0
   27.1653  -18.1386  -17.8892 C   0  0  0  0  0  0  0  0  0  0  0  0
   28.5402  -17.5980  -17.7581 C   0  0  0  0  0  0  0  0  0  0  0  0
   28.8737  -16.7337  -18.8432 N   0  0  0  0  0  0  0  0  0  0  0  0
   23.8152  -21.0271  -15.5410 C   0  0  0  0  0  0  0  0  0  0  0  0
   23.3328  -21.9203  -16.3145 O   0  0  0  0  0  0  0  0  0  0  0  0
   22.9508  -20.4997  -14.5454 N   0  0  0  0  0  0  0  0  0  0  0  0
   21.5328  -20.8697  -14.4460 C   0  0  1  0  0  0  0  0  0  0  0  0
   21.1732  -21.2400  -13.0476 C   0  0  0  0  0  0  0  0  0  0  0  0
   19.7861  -21.7213  -12.8300 C   0  0  0  0  0  0  0  0  0  0  0  0
   19.4970  -22.0511  -11.3766 C   0  0  0  0  0  0  0  0  0  0  0  0
   18.0972  -22.5994  -11.2480 C   0  0  0  0  0  0  0  0  0  0  0  0
   17.7910  -22.9410   -9.8902 N   0  0  0  0  0  0  0  0  0  0  0  0
   20.6794  -19.7504  -14.9129 C   0  0  0  0  0  0  0  0  0  0  0  0
   20.8014  -18.5795  -14.4738 O   0  0  0  0  0  0  0  0  0  0  0  0
   18.5863  -19.0872  -17.8818 C   0  0  0  0  0  0  0  0  0  0  0  0
   18.8806  -18.9169  -16.3858 C   0  0  2  0  0  0  0  0  0  0  0  0
   19.6751  -20.0236  -15.9077 N   0  0  0  0  0  0  0  0  0  0  0  0
   17.5931  -18.8214  -15.6987 C   0  0  0  0  0  0  0  0  0  0  0  0
   17.0358  -19.8360  -15.2281 O   0  0  0  0  0  0  0  0  0  0  0  0
   16.9751  -17.5966  -15.5621 O   0  0  0  0  0  0  0  0  0  0  0  0
  2  1  1  6
  3  2  1  0
  4  3  1  0
  5  4  1  0
  5  6  1  0
  7  6  1  0
  8  2  1  0
  8  9  2  0
 10  8  1  0
 11 12  1  1
 11 10  1  0
 13 12  1  0
 13 14  1  0
 14 15  1  0
 15 16  1  0
 17 11  1  0
 18 17  2  0
 20 19  1  6
 20 21  1  0
 21 17  1  0
 22 20  1  0
 22 24  1  0
 23 22  2  0
M  END
$$$$
