KKA.pdb
     RDKit          3D

 24 23  0  0  1  0  0  0  0  0999 V2000
   19.0527  -14.4532  -15.6902 N   0  0  0  0  0  0  0  0  0  0  0  0
   19.9839  -14.2298  -16.7730 C   0  0  1  0  0  0  0  0  0  0  0  0
   19.6157  -15.0912  -17.9770 C   0  0  0  0  0  0  0  0  0  0  0  0
   19.2327  -16.4231  -17.4408 C   0  0  0  0  0  0  0  0  0  0  0  0
   18.9157  -17.4927  -18.4191 C   0  0  0  0  0  0  0  0  0  0  0  0
   18.5379  -18.7962  -17.8207 C   0  0  0  0  0  0  0  0  0  0  0  0
   18.3359  -19.7965  -18.8177 N   0  0  0  0  0  0  0  0  0  0  0  0
   19.9599  -12.7807  -17.1420 C   0  0  0  0  0  0  0  0  0  0  0  0
   20.6477  -12.3371  -18.1211 O   0  0  0  0  0  0  0  0  0  0  0  0
   19.1759  -11.8390  -16.4243 N   0  0  0  0  0  0  0  0  0  0  0  0
   19.1457  -10.4093  -16.7596 C   0  0  1  0  0  0  0  0  0  0  0  0
   17.7437   -9.9193  -16.8876 C   0  0  0  0  0  0  0  0  0  0  0  0
   17.0918  -10.1257  -18.2050 C   0  0  0  0  0  0  0  0  0  0  0  0
   15.6594  -10.6140  -18.0845 C   0  0  0  0  0  0  0  0  0  0  0  0
   15.0789  -10.8324  -19.4601 C   0  0  0  0  0  0  0  0  0  0  0  0
   13.7395  -11.3374  -19.3894 N   0  0  0  0  0  0  0  0  0  0  0  0
   19.8671   -9.6275  -15.7264 C   0  0  0  0  0  0  0  0  0  0  0  0
   19.6977   -9.8166  -14.4958 O   0  0  0  0  0  0  0  0  0  0  0  0
   22.5457   -6.9555  -15.7807 C   0  0  0  0  0  0  0  0  0  0  0  0
   21.4642   -7.8366  -15.1421 C   0  0  2  0  0  0  0  0  0  0  0  0
   20.7954   -8.6151  -16.1576 N   0  0  0  0  0  0  0  0  0  0  0  0
   20.5457   -6.9484  -14.4303 C   0  0  0  0  0  0  0  0  0  0  0  0
   19.4272   -6.6601  -14.9070 O   0  0  0  0  0  0  0  0  0  0  0  0
   20.9098   -6.4148  -13.2123 O   0  0  0  0  0  0  0  0  0  0  0  0
  2  1  1  1
  3  2  1  0
  4  3  1  0
  5  4  1  0
  5  6  1  0
  7  6  1  0
  8  2  1  0
  8  9  2  0
 10  8  1  0
 11 12  1  1
 11 10  1  0
 13 12  1  0
 13 14  1  0
 14 15  1  0
 15 16  1  0
 17 11  1  0
 18 17  2  0
 20 19  1  6
 20 21  1  0
 21 17  1  0
 22 20  1  0
 22 24  1  0
 23 22  2  0
M  END
$$$$
