KKA.pdb
     RDKit          3D

 24 23  0  0  1  0  0  0  0  0999 V2000
   14.3953  -13.3470  -12.6524 N   0  0  0  0  0  0  0  0  0  0  0  0
   13.7601  -12.0814  -12.3616 C   0  0  1  0  0  0  0  0  0  0  0  0
   12.7934  -12.2286  -11.1907 C   0  0  0  0  0  0  0  0  0  0  0  0
   11.4364  -12.3698  -11.7797 C   0  0  0  0  0  0  0  0  0  0  0  0
   10.4756  -13.2627  -11.0862 C   0  0  0  0  0  0  0  0  0  0  0  0
    9.1392  -13.3585  -11.7223 C   0  0  0  0  0  0  0  0  0  0  0  0
    8.3496  -14.3939  -11.1394 N   0  0  0  0  0  0  0  0  0  0  0  0
   14.8155  -11.0711  -12.0425 C   0  0  0  0  0  0  0  0  0  0  0  0
   15.7933  -11.3576  -11.2741 O   0  0  0  0  0  0  0  0  0  0  0  0
   14.7776   -9.7557  -12.5763 N   0  0  0  0  0  0  0  0  0  0  0  0
   15.7866   -8.7377  -12.2555 C   0  0  1  0  0  0  0  0  0  0  0  0
   16.2429   -8.0303  -13.4856 C   0  0  0  0  0  0  0  0  0  0  0  0
   17.0363   -8.8323  -14.4503 C   0  0  0  0  0  0  0  0  0  0  0  0
   18.4869   -8.9923  -14.0323 C   0  0  0  0  0  0  0  0  0  0  0  0
   19.2403   -9.7579  -15.0920 C   0  0  0  0  0  0  0  0  0  0  0  0
   20.6101   -9.9569  -14.7204 N   0  0  0  0  0  0  0  0  0  0  0  0
   15.2373   -7.7641  -11.2811 C   0  0  0  0  0  0  0  0  0  0  0  0
   14.2274   -7.0585  -11.5277 O   0  0  0  0  0  0  0  0  0  0  0  0
   15.9541   -6.8828   -7.6820 C   0  0  0  0  0  0  0  0  0  0  0  0
   15.3704   -6.6490   -9.0814 C   0  0  2  0  0  0  0  0  0  0  0  0
   15.8916   -7.6280  -10.0058 N   0  0  0  0  0  0  0  0  0  0  0  0
   15.7127   -5.2815   -9.4712 C   0  0  0  0  0  0  0  0  0  0  0  0
   16.4943   -5.0572  -10.4199 O   0  0  0  0  0  0  0  0  0  0  0  0
   15.1695   -4.2147   -8.7874 O   0  0  0  0  0  0  0  0  0  0  0  0
  2  1  1  1
  3  2  1  0
  4  3  1  0
  5  4  1  0
  5  6  1  0
  7  6  1  0
  8  2  1  0
  8  9  2  0
 10  8  1  0
 11 12  1  6
 11 10  1  0
 13 12  1  0
 13 14  1  0
 14 15  1  0
 15 16  1  0
 17 11  1  0
 18 17  2  0
 20 19  1  1
 20 21  1  0
 21 17  1  0
 22 20  1  0
 22 24  1  0
 23 22  2  0
M  END
$$$$
