KKA.pdb
     RDKit          3D

 24 23  0  0  1  0  0  0  0  0999 V2000
   18.0001  -12.6552  -15.6808 N   0  0  0  0  0  0  0  0  0  0  0  0
   17.8533  -11.2612  -16.0341 C   0  0  1  0  0  0  0  0  0  0  0  0
   16.7054  -10.6323  -15.2505 C   0  0  0  0  0  0  0  0  0  0  0  0
   15.5783  -11.5993  -15.3052 C   0  0  0  0  0  0  0  0  0  0  0  0
   14.2735  -11.1664  -14.7471 C   0  0  0  0  0  0  0  0  0  0  0  0
   13.1535  -12.1134  -14.9675 C   0  0  0  0  0  0  0  0  0  0  0  0
   11.9122  -11.5791  -14.5101 N   0  0  0  0  0  0  0  0  0  0  0  0
   19.1355  -10.5491  -15.7418 C   0  0  0  0  0  0  0  0  0  0  0  0
   19.8346  -10.8423  -14.7151 O   0  0  0  0  0  0  0  0  0  0  0  0
   19.6300   -9.5213  -16.5878 N   0  0  0  0  0  0  0  0  0  0  0  0
   20.8628   -8.7771  -16.2982 C   0  0  1  0  0  0  0  0  0  0  0  0
   21.6524   -8.5455  -17.5411 C   0  0  0  0  0  0  0  0  0  0  0  0
   22.3286   -9.7322  -18.1222 C   0  0  0  0  0  0  0  0  0  0  0  0
   23.1208   -9.4053  -19.3753 C   0  0  0  0  0  0  0  0  0  0  0  0
   23.5845  -10.6823  -20.0318 C   0  0  0  0  0  0  0  0  0  0  0  0
   24.3962  -10.4152  -21.1823 N   0  0  0  0  0  0  0  0  0  0  0  0
   20.5375   -7.4828  -15.6517 C   0  0  0  0  0  0  0  0  0  0  0  0
   19.5648   -6.7736  -16.0118 O   0  0  0  0  0  0  0  0  0  0  0  0
   21.7367   -5.5926  -12.6300 C   0  0  0  0  0  0  0  0  0  0  0  0
   21.1192   -5.7140  -14.0291 C   0  0  2  0  0  0  0  0  0  0  0  0
   21.3728   -7.0280  -14.5708 N   0  0  0  0  0  0  0  0  0  0  0  0
   21.6994   -4.6537  -14.8527 C   0  0  0  0  0  0  0  0  0  0  0  0
   22.5010   -4.9178  -15.7741 O   0  0  0  0  0  0  0  0  0  0  0  0
   21.3632   -3.3376  -14.6173 O   0  0  0  0  0  0  0  0  0  0  0  0
  2  1  1  1
  3  2  1  0
  4  3  1  0
  5  4  1  0
  5  6  1  0
  7  6  1  0
  8  2  1  0
  8  9  2  0
 10  8  1  0
 11 12  1  6
 11 10  1  0
 13 12  1  0
 13 14  1  0
 14 15  1  0
 15 16  1  0
 17 11  1  0
 18 17  2  0
 20 19  1  1
 20 21  1  0
 21 17  1  0
 22 20  1  0
 22 24  1  0
 23 22  2  0
M  END
$$$$
