KKA.pdb
     RDKit          3D

 24 23  0  0  1  0  0  0  0  0999 V2000
   16.8696  -12.8216  -15.8634 N   0  0  0  0  0  0  0  0  0  0  0  0
   18.2989  -12.9747  -16.0156 C   0  0  1  0  0  0  0  0  0  0  0  0
   18.6114  -13.9616  -17.1362 C   0  0  0  0  0  0  0  0  0  0  0  0
   17.9163  -15.2281  -16.7882 C   0  0  0  0  0  0  0  0  0  0  0  0
   17.9137  -16.3117  -17.8017 C   0  0  0  0  0  0  0  0  0  0  0  0
   17.2269  -17.5580  -17.3836 C   0  0  0  0  0  0  0  0  0  0  0  0
   17.2901  -18.5612  -18.3960 N   0  0  0  0  0  0  0  0  0  0  0  0
   18.9006  -11.6387  -16.3150 C   0  0  0  0  0  0  0  0  0  0  0  0
   20.1326  -11.5243  -16.6275 O   0  0  0  0  0  0  0  0  0  0  0  0
   18.1333  -10.4447  -16.2653 N   0  0  0  0  0  0  0  0  0  0  0  0
   18.7119   -9.1168  -16.5088 C   0  0  1  0  0  0  0  0  0  0  0  0
   17.6652   -8.1488  -16.9438 C   0  0  0  0  0  0  0  0  0  0  0  0
   17.0879   -8.3659  -18.2939 C   0  0  0  0  0  0  0  0  0  0  0  0
   16.0433   -7.3279  -18.6629 C   0  0  0  0  0  0  0  0  0  0  0  0
   15.4641   -7.6486  -20.0188 C   0  0  0  0  0  0  0  0  0  0  0  0
   14.5583   -6.6279  -20.4564 N   0  0  0  0  0  0  0  0  0  0  0  0
   19.3873   -8.6222  -15.2847 C   0  0  0  0  0  0  0  0  0  0  0  0
   18.7693   -8.4087  -14.2119 O   0  0  0  0  0  0  0  0  0  0  0  0
   22.8506   -8.7523  -14.0553 C   0  0  0  0  0  0  0  0  0  0  0  0
   21.4805   -8.0635  -14.0989 C   0  0  2  0  0  0  0  0  0  0  0  0
   20.8056   -8.3799  -15.3354 N   0  0  0  0  0  0  0  0  0  0  0  0
   21.7120   -6.6275  -13.9458 C   0  0  0  0  0  0  0  0  0  0  0  0
   21.5019   -5.8356  -14.8892 O   0  0  0  0  0  0  0  0  0  0  0  0
   22.1694   -6.1285  -12.7448 O   0  0  0  0  0  0  0  0  0  0  0  0
  2  1  1  6
  3  2  1  0
  4  3  1  0
  5  4  1  0
  5  6  1  0
  7  6  1  0
  8  2  1  0
  8  9  2  0
 10  8  1  0
 11 12  1  1
 11 10  1  0
 13 12  1  0
 13 14  1  0
 14 15  1  0
 15 16  1  0
 17 11  1  0
 18 17  2  0
 20 19  1  6
 20 21  1  0
 21 17  1  0
 22 20  1  0
 22 24  1  0
 23 22  2  0
M  END
$$$$
