HAM.pdb
     RDKit          3D

 24 24  0  0  1  0  0  0  0  0999 V2000
    7.9399  -19.5459   18.2315 N   0  0  0  0  0  0  0  0  0  0  0  0
    8.6970  -18.3939   18.7564 C   0  0  1  0  0  0  0  0  0  0  0  0
    8.1058  -17.1934   18.0507 C   0  0  0  0  0  0  0  0  0  0  0  0
    8.5887  -17.0209   16.6758 C   0  0  0  0  0  0  0  0  0  0  0  0
    9.4954  -17.8949   16.0797 C   0  0  0  0  0  0  0  0  0  0  0  0
    9.7573  -17.5056   14.8423 N   0  0  0  0  0  0  0  0  0  0  0  0
    9.0375  -16.3903   14.6161 C   0  0  0  0  0  0  0  0  0  0  0  0
    8.3315  -16.1054   15.7369 N   0  0  0  0  0  0  0  0  0  0  0  0
    8.3431  -18.3001   20.2024 C   0  0  0  0  0  0  0  0  0  0  0  0
    7.1634  -18.1687   20.6211 O   0  0  0  0  0  0  0  0  0  0  0  0
    9.7679  -19.5231   23.3479 C   0  0  0  0  0  0  0  0  0  0  0  0
    8.9850  -18.4271   22.6478 C   0  0  2  0  0  0  0  0  0  0  0  0
    9.3412  -18.3542   21.2381 N   0  0  0  0  0  0  0  0  0  0  0  0
    9.3005  -17.1107   23.2495 C   0  0  0  0  0  0  0  0  0  0  0  0
   10.2538  -16.4522   22.7698 O   0  0  0  0  0  0  0  0  0  0  0  0
    6.3928  -11.0744   27.3993 C   0  0  0  0  0  0  0  0  0  0  0  0
    6.1689  -12.5967   26.4302 S   0  0  0  0  0  0  0  0  0  0  0  0
    7.8068  -13.3391   26.0666 C   0  0  0  0  0  0  0  0  0  0  0  0
    7.6184  -14.6149   25.2727 C   0  0  0  0  0  0  0  0  0  0  0  0
    8.9037  -15.2890   24.9025 C   0  0  2  0  0  0  0  0  0  0  0  0
    8.5705  -16.5753   24.3369 N   0  0  0  0  0  0  0  0  0  0  0  0
    9.8416  -15.4599   26.0243 C   0  0  0  0  0  0  0  0  0  0  0  0
   10.7541  -14.4978   26.4259 O   0  0  0  0  0  0  0  0  0  0  0  0
    9.8338  -16.5283   26.6684 O   0  0  0  0  0  0  0  0  0  0  0  0
  2  1  1  6
  3  2  1  0
  4  3  1  0
  4  5  2  0
  6  5  1  0
  7  6  1  0
  8  7  2  0
  8  4  1  0
  9  2  1  0
 10  9  2  0
 12 11  1  1
 12 13  1  0
 12 14  1  0
 13  9  1  0
 14 21  1  0
 15 14  2  0
 17 16  1  0
 18 17  1  0
 19 18  1  0
 20 19  1  1
 20 22  1  0
 21 20  1  0
 22 24  2  0
 22 23  1  0
M  END
$$$$
