HAM.pdb
     RDKit          3D

 24 24  0  0  1  0  0  0  0  0999 V2000
    7.0769  -16.8537   19.5988 N   0  0  0  0  0  0  0  0  0  0  0  0
    7.6520  -16.1114   20.7364 C   0  0  1  0  0  0  0  0  0  0  0  0
    6.9876  -14.7533   20.6828 C   0  0  0  0  0  0  0  0  0  0  0  0
    7.6690  -13.7980   19.8017 C   0  0  0  0  0  0  0  0  0  0  0  0
    8.8451  -14.1062   19.1211 C   0  0  0  0  0  0  0  0  0  0  0  0
    9.2405  -13.0683   18.4016 N   0  0  0  0  0  0  0  0  0  0  0  0
    8.3434  -12.0837   18.5985 C   0  0  0  0  0  0  0  0  0  0  0  0
    7.3933  -12.5384   19.4508 N   0  0  0  0  0  0  0  0  0  0  0  0
    7.1723  -16.8122   21.9627 C   0  0  0  0  0  0  0  0  0  0  0  0
    5.9664  -17.1116   22.1641 O   0  0  0  0  0  0  0  0  0  0  0  0
    8.2416  -19.2056   24.4177 C   0  0  0  0  0  0  0  0  0  0  0  0
    7.5917  -17.8461   24.2349 C   0  0  2  0  0  0  0  0  0  0  0  0
    8.0684  -17.2020   23.0196 N   0  0  0  0  0  0  0  0  0  0  0  0
    7.9392  -16.9579   25.3685 C   0  0  0  0  0  0  0  0  0  0  0  0
    7.5293  -17.2678   26.5124 O   0  0  0  0  0  0  0  0  0  0  0  0
    6.6756  -10.9316   27.1726 C   0  0  0  0  0  0  0  0  0  0  0  0
    6.0327  -12.2003   26.0397 S   0  0  0  0  0  0  0  0  0  0  0  0
    7.4060  -13.2866   25.4920 C   0  0  0  0  0  0  0  0  0  0  0  0
    7.9116  -14.0944   26.6690 C   0  0  0  0  0  0  0  0  0  0  0  0
    9.0825  -14.9688   26.3406 C   0  0  2  0  0  0  0  0  0  0  0  0
    8.7104  -15.7827   25.2071 N   0  0  0  0  0  0  0  0  0  0  0  0
    9.5273  -15.8260   27.4517 C   0  0  0  0  0  0  0  0  0  0  0  0
   10.2938  -15.3805   28.5163 O   0  0  0  0  0  0  0  0  0  0  0  0
    9.2072  -17.0318   27.4575 O   0  0  0  0  0  0  0  0  0  0  0  0
  2  1  1  6
  3  2  1  0
  4  3  1  0
  4  5  2  0
  6  5  1  0
  7  6  1  0
  8  7  2  0
  8  4  1  0
  9  2  1  0
 10  9  2  0
 12 11  1  1
 12 13  1  0
 12 14  1  0
 13  9  1  0
 14 21  1  0
 15 14  2  0
 17 16  1  0
 18 17  1  0
 19 18  1  0
 20 19  1  1
 20 22  1  0
 21 20  1  0
 22 24  2  0
 22 23  1  0
M  END
$$$$
