HAM.pdb
     RDKit          3D

 24 24  0  0  1  0  0  0  0  0999 V2000
    6.5170  -17.6165   21.0455 N   0  0  0  0  0  0  0  0  0  0  0  0
    7.6999  -16.7353   21.0584 C   0  0  1  0  0  0  0  0  0  0  0  0
    7.1872  -15.4137   21.5870 C   0  0  0  0  0  0  0  0  0  0  0  0
    7.4791  -14.2745   20.7092 C   0  0  0  0  0  0  0  0  0  0  0  0
    8.1589  -14.4087   19.5004 C   0  0  0  0  0  0  0  0  0  0  0  0
    8.2845  -13.2286   18.9149 N   0  0  0  0  0  0  0  0  0  0  0  0
    7.6985  -12.3217   19.7194 C   0  0  0  0  0  0  0  0  0  0  0  0
    7.2128  -12.9686   20.8064 N   0  0  0  0  0  0  0  0  0  0  0  0
    8.6250  -17.3122   22.0763 C   0  0  0  0  0  0  0  0  0  0  0  0
    8.2862  -18.2072   22.8940 O   0  0  0  0  0  0  0  0  0  0  0  0
   12.3527  -17.2535   22.7356 C   0  0  0  0  0  0  0  0  0  0  0  0
   10.9112  -17.4890   23.1487 C   0  0  2  0  0  0  0  0  0  0  0  0
    9.9925  -16.8798   22.1978 N   0  0  0  0  0  0  0  0  0  0  0  0
   10.6513  -16.8702   24.4694 C   0  0  0  0  0  0  0  0  0  0  0  0
   11.4422  -17.1231   25.4091 O   0  0  0  0  0  0  0  0  0  0  0  0
    6.7368  -11.3346   25.7782 C   0  0  0  0  0  0  0  0  0  0  0  0
    6.3354  -12.7139   26.8931 S   0  0  0  0  0  0  0  0  0  0  0  0
    7.8290  -13.7470   27.1534 C   0  0  0  0  0  0  0  0  0  0  0  0
    8.1560  -14.4936   25.8770 C   0  0  0  0  0  0  0  0  0  0  0  0
    9.3407  -15.4020   25.9975 C   0  0  2  0  0  0  0  0  0  0  0  0
    9.5518  -16.0116   24.7054 N   0  0  0  0  0  0  0  0  0  0  0  0
    9.2015  -16.4433   27.0288 C   0  0  0  0  0  0  0  0  0  0  0  0
    9.6938  -16.3283   28.3187 O   0  0  0  0  0  0  0  0  0  0  0  0
    8.6079  -17.5041   26.7481 O   0  0  0  0  0  0  0  0  0  0  0  0
  2  1  1  1
  3  2  1  0
  4  3  1  0
  4  5  2  0
  6  5  1  0
  7  6  1  0
  8  7  2  0
  8  4  1  0
  9  2  1  0
 10  9  2  0
 12 11  1  6
 12 13  1  0
 12 14  1  0
 13  9  1  0
 14 21  1  0
 15 14  2  0
 17 16  1  0
 18 17  1  0
 19 18  1  0
 20 19  1  6
 20 22  1  0
 21 20  1  0
 22 24  2  0
 22 23  1  0
M  END
$$$$
