HAM.pdb
     RDKit          3D

 24 24  0  0  1  0  0  0  0  0999 V2000
    9.6242  -17.7755   18.0650 N   0  0  0  0  0  0  0  0  0  0  0  0
    9.1125  -16.6679   18.8939 C   0  0  1  0  0  0  0  0  0  0  0  0
    7.8500  -16.2165   18.1931 C   0  0  0  0  0  0  0  0  0  0  0  0
    8.0541  -15.0843   17.2821 C   0  0  0  0  0  0  0  0  0  0  0  0
    9.3164  -14.5787   16.9785 C   0  0  0  0  0  0  0  0  0  0  0  0
    9.2101  -13.5638   16.1359 N   0  0  0  0  0  0  0  0  0  0  0  0
    7.8988  -13.3946   15.8813 C   0  0  0  0  0  0  0  0  0  0  0  0
    7.2061  -14.3240   16.5831 N   0  0  0  0  0  0  0  0  0  0  0  0
    8.7232  -17.2818   20.1965 C   0  0  0  0  0  0  0  0  0  0  0  0
    8.0001  -18.3076   20.2918 O   0  0  0  0  0  0  0  0  0  0  0  0
    9.5979  -18.7407   22.7926 C   0  0  0  0  0  0  0  0  0  0  0  0
    8.8790  -17.4058   22.7200 C   0  0  2  0  0  0  0  0  0  0  0  0
    9.1539  -16.7362   21.4570 N   0  0  0  0  0  0  0  0  0  0  0  0
    9.3513  -16.5123   23.8032 C   0  0  0  0  0  0  0  0  0  0  0  0
   10.4889  -15.9962   23.6929 O   0  0  0  0  0  0  0  0  0  0  0  0
    6.0540  -11.5862   25.7043 C   0  0  0  0  0  0  0  0  0  0  0  0
    6.5648  -12.1921   27.3409 S   0  0  0  0  0  0  0  0  0  0  0  0
    8.0602  -13.2408   27.1678 C   0  0  0  0  0  0  0  0  0  0  0  0
    7.8013  -14.3252   26.1428 C   0  0  0  0  0  0  0  0  0  0  0  0
    8.9796  -15.2170   25.8990 C   0  0  2  0  0  0  0  0  0  0  0  0
    8.5710  -16.2237   24.9476 N   0  0  0  0  0  0  0  0  0  0  0  0
    9.5139  -15.8578   27.1119 C   0  0  0  0  0  0  0  0  0  0  0  0
   10.2566  -15.1958   28.0760 O   0  0  0  0  0  0  0  0  0  0  0  0
    9.2983  -17.0713   27.3059 O   0  0  0  0  0  0  0  0  0  0  0  0
  2  1  1  6
  3  2  1  0
  4  3  1  0
  4  5  2  0
  6  5  1  0
  7  6  1  0
  8  7  2  0
  8  4  1  0
  9  2  1  0
 10  9  2  0
 12 11  1  6
 12 13  1  0
 12 14  1  0
 13  9  1  0
 14 21  1  0
 15 14  2  0
 17 16  1  0
 18 17  1  0
 19 18  1  0
 20 19  1  1
 20 22  1  0
 21 20  1  0
 22 24  2  0
 22 23  1  0
M  END
$$$$
