HAM.pdb
     RDKit          3D

 24 24  0  0  1  0  0  0  0  0999 V2000
    7.6093  -16.9033   20.7870 N   0  0  0  0  0  0  0  0  0  0  0  0
    8.6118  -16.1789   21.5908 C   0  0  1  0  0  0  0  0  0  0  0  0
    8.1043  -14.7546   21.6429 C   0  0  0  0  0  0  0  0  0  0  0  0
    8.2471  -14.0311   20.3743 C   0  0  0  0  0  0  0  0  0  0  0  0
    7.1595  -13.6986   19.5692 C   0  0  0  0  0  0  0  0  0  0  0  0
    7.5719  -13.0518   18.4909 N   0  0  0  0  0  0  0  0  0  0  0  0
    8.9123  -12.9542   18.5745 C   0  0  0  0  0  0  0  0  0  0  0  0
    9.3112  -13.5526   19.7228 N   0  0  0  0  0  0  0  0  0  0  0  0
    8.5216  -16.7519   22.9650 C   0  0  0  0  0  0  0  0  0  0  0  0
    7.4365  -17.0898   23.5063 O   0  0  0  0  0  0  0  0  0  0  0  0
   10.4957  -18.9757   24.9200 C   0  0  0  0  0  0  0  0  0  0  0  0
    9.6325  -17.7309   25.0181 C   0  0  2  0  0  0  0  0  0  0  0  0
    9.6872  -16.9627   23.7828 N   0  0  0  0  0  0  0  0  0  0  0  0
   10.1256  -16.8524   26.1043 C   0  0  0  0  0  0  0  0  0  0  0  0
   10.1998  -17.3262   27.2630 O   0  0  0  0  0  0  0  0  0  0  0  0
    5.7859  -11.0524   27.3624 C   0  0  0  0  0  0  0  0  0  0  0  0
    6.4694  -12.4559   26.4298 S   0  0  0  0  0  0  0  0  0  0  0  0
    8.0978  -12.9250   27.1329 C   0  0  0  0  0  0  0  0  0  0  0  0
    8.7553  -13.9568   26.2404 C   0  0  0  0  0  0  0  0  0  0  0  0
   10.0722  -14.4485   26.7575 C   0  0  2  0  0  0  0  0  0  0  0  0
   10.5120  -15.5096   25.8821 N   0  0  0  0  0  0  0  0  0  0  0  0
   10.0348  -14.9268   28.1492 C   0  0  0  0  0  0  0  0  0  0  0  0
   10.5627  -14.2294   29.2236 O   0  0  0  0  0  0  0  0  0  0  0  0
    9.5003  -16.0253   28.4023 O   0  0  0  0  0  0  0  0  0  0  0  0
  2  1  1  6
  3  2  1  0
  4  3  1  0
  4  5  2  0
  6  5  1  0
  7  6  1  0
  8  7  2  0
  8  4  1  0
  9  2  1  0
 10  9  2  0
 12 11  1  6
 12 13  1  0
 12 14  1  0
 13  9  1  0
 14 21  1  0
 15 14  2  0
 17 16  1  0
 18 17  1  0
 19 18  1  0
 20 19  1  6
 20 22  1  0
 21 20  1  0
 22 24  2  0
 22 23  1  0
M  END
$$$$
