HAM.pdb
     RDKit          3D

 24 24  0  0  1  0  0  0  0  0999 V2000
    7.6982  -16.9723   18.0009 N   0  0  0  0  0  0  0  0  0  0  0  0
    8.7527  -16.2085   18.6941 C   0  0  1  0  0  0  0  0  0  0  0  0
    8.3709  -14.7586   18.4922 C   0  0  0  0  0  0  0  0  0  0  0  0
    8.4385  -14.3204   17.0934 C   0  0  0  0  0  0  0  0  0  0  0  0
    7.3460  -13.7788   16.4192 C   0  0  0  0  0  0  0  0  0  0  0  0
    7.6840  -13.4709   15.1773 N   0  0  0  0  0  0  0  0  0  0  0  0
    8.9804  -13.8016   15.0249 C   0  0  0  0  0  0  0  0  0  0  0  0
    9.4281  -14.3167   16.1955 N   0  0  0  0  0  0  0  0  0  0  0  0
    8.6003  -16.5288   20.1430 C   0  0  0  0  0  0  0  0  0  0  0  0
    7.5626  -16.2681   20.8060 O   0  0  0  0  0  0  0  0  0  0  0  0
   10.4385  -18.7103   22.6283 C   0  0  0  0  0  0  0  0  0  0  0  0
    9.4382  -17.6283   22.2635 C   0  0  2  0  0  0  0  0  0  0  0  0
    9.6455  -17.1690   20.8977 N   0  0  0  0  0  0  0  0  0  0  0  0
    9.6085  -16.4555   23.1524 C   0  0  0  0  0  0  0  0  0  0  0  0
   10.5196  -15.6362   22.8856 O   0  0  0  0  0  0  0  0  0  0  0  0
    6.3791  -11.2057   27.9360 C   0  0  0  0  0  0  0  0  0  0  0  0
    6.2331  -12.5858   26.7610 S   0  0  0  0  0  0  0  0  0  0  0  0
    7.8742  -13.3736   26.5327 C   0  0  0  0  0  0  0  0  0  0  0  0
    7.7867  -14.4157   25.4374 C   0  0  0  0  0  0  0  0  0  0  0  0
    9.0667  -15.1597   25.2105 C   0  0  2  0  0  0  0  0  0  0  0  0
    8.7867  -16.2295   24.2817 N   0  0  0  0  0  0  0  0  0  0  0  0
    9.6754  -15.7032   26.4358 C   0  0  0  0  0  0  0  0  0  0  0  0
    9.7623  -17.0553   26.7249 O   0  0  0  0  0  0  0  0  0  0  0  0
   10.1490  -14.9178   27.2816 O   0  0  0  0  0  0  0  0  0  0  0  0
  2  1  1  6
  3  2  1  0
  4  3  1  0
  4  5  2  0
  6  5  1  0
  7  6  1  0
  8  7  2  0
  8  4  1  0
  9  2  1  0
 10  9  2  0
 12 11  1  1
 12 13  1  0
 12 14  1  0
 13  9  1  0
 14 21  1  0
 15 14  2  0
 17 16  1  0
 18 17  1  0
 19 18  1  0
 20 19  1  1
 20 22  1  0
 21 20  1  0
 22 24  2  0
 22 23  1  0
M  END
$$$$
