HAM.pdb
     RDKit          3D

 24 24  0  0  1  0  0  0  0  0999 V2000
    8.4930  -17.0018   19.9603 N   0  0  0  0  0  0  0  0  0  0  0  0
    8.7775  -15.8520   20.8394 C   0  0  1  0  0  0  0  0  0  0  0  0
    7.6608  -14.8704   20.5596 C   0  0  0  0  0  0  0  0  0  0  0  0
    7.7613  -14.2216   19.2472 C   0  0  0  0  0  0  0  0  0  0  0  0
    8.4447  -13.0237   19.0485 C   0  0  0  0  0  0  0  0  0  0  0  0
    8.3775  -12.6665   17.7760 N   0  0  0  0  0  0  0  0  0  0  0  0
    7.6611  -13.6101   17.1359 C   0  0  0  0  0  0  0  0  0  0  0  0
    7.2921  -14.5497   18.0397 N   0  0  0  0  0  0  0  0  0  0  0  0
    8.6111  -16.3556   22.2336 C   0  0  0  0  0  0  0  0  0  0  0  0
    7.5076  -16.7306   22.7089 O   0  0  0  0  0  0  0  0  0  0  0  0
   10.4549  -18.2437   24.6452 C   0  0  0  0  0  0  0  0  0  0  0  0
    9.5702  -17.0214   24.4796 C   0  0  2  0  0  0  0  0  0  0  0  0
    9.7181  -16.4502   23.1487 N   0  0  0  0  0  0  0  0  0  0  0  0
    9.9589  -15.9745   25.4530 C   0  0  0  0  0  0  0  0  0  0  0  0
   10.9664  -15.2725   25.1986 O   0  0  0  0  0  0  0  0  0  0  0  0
    6.4030  -10.9469   25.4885 C   0  0  0  0  0  0  0  0  0  0  0  0
    6.8646  -11.8648   26.9888 S   0  0  0  0  0  0  0  0  0  0  0  0
    8.2534  -13.0020   26.6095 C   0  0  0  0  0  0  0  0  0  0  0  0
    8.6106  -13.7949   27.8493 C   0  0  0  0  0  0  0  0  0  0  0  0
    9.7071  -14.7916   27.6315 C   0  0  2  0  0  0  0  0  0  0  0  0
    9.2398  -15.7413   26.6489 N   0  0  0  0  0  0  0  0  0  0  0  0
   10.1335  -15.4974   28.8509 C   0  0  0  0  0  0  0  0  0  0  0  0
   10.9375  -14.9373   29.8305 O   0  0  0  0  0  0  0  0  0  0  0  0
    9.7612  -16.6736   29.0365 O   0  0  0  0  0  0  0  0  0  0  0  0
  2  1  1  6
  3  2  1  0
  4  3  1  0
  4  5  2  0
  6  5  1  0
  7  6  1  0
  8  7  2  0
  8  4  1  0
  9  2  1  0
 10  9  2  0
 12 11  1  6
 12 13  1  0
 12 14  1  0
 13  9  1  0
 14 21  1  0
 15 14  2  0
 17 16  1  0
 18 17  1  0
 19 18  1  0
 20 19  1  1
 20 22  1  0
 21 20  1  0
 22 24  2  0
 22 23  1  0
M  END
$$$$
