HAM.pdb
     RDKit          3D

 24 24  0  0  1  0  0  0  0  0999 V2000
    6.7107  -17.1390   18.9810 N   0  0  0  0  0  0  0  0  0  0  0  0
    7.8915  -16.4893   19.5808 C   0  0  1  0  0  0  0  0  0  0  0  0
    7.6017  -15.0073   19.4880 C   0  0  0  0  0  0  0  0  0  0  0  0
    7.8108  -14.4486   18.1473 C   0  0  0  0  0  0  0  0  0  0  0  0
    8.2752  -15.2102   17.0769 C   0  0  0  0  0  0  0  0  0  0  0  0
    8.3706  -14.4595   15.9912 N   0  0  0  0  0  0  0  0  0  0  0  0
    7.9765  -13.2176   16.3311 C   0  0  0  0  0  0  0  0  0  0  0  0
    7.6388  -13.2230   17.6432 N   0  0  0  0  0  0  0  0  0  0  0  0
    7.8779  -16.8731   21.0222 C   0  0  0  0  0  0  0  0  0  0  0  0
    6.9151  -16.6308   21.7959 O   0  0  0  0  0  0  0  0  0  0  0  0
    9.9930  -19.0153   23.3304 C   0  0  0  0  0  0  0  0  0  0  0  0
    8.9647  -17.9354   23.0465 C   0  0  2  0  0  0  0  0  0  0  0  0
    8.9821  -17.5588   21.6404 N   0  0  0  0  0  0  0  0  0  0  0  0
    9.2736  -16.7177   23.8316 C   0  0  0  0  0  0  0  0  0  0  0  0
   10.1770  -15.9553   23.4131 O   0  0  0  0  0  0  0  0  0  0  0  0
    6.5248  -10.6585   27.7283 C   0  0  0  0  0  0  0  0  0  0  0  0
    6.2807  -12.2022   26.7989 S   0  0  0  0  0  0  0  0  0  0  0  0
    7.8353  -13.1763   26.8078 C   0  0  0  0  0  0  0  0  0  0  0  0
    7.6870  -14.3734   25.8921 C   0  0  0  0  0  0  0  0  0  0  0  0
    8.9289  -15.2030   25.7798 C   0  0  2  0  0  0  0  0  0  0  0  0
    8.5912  -16.3879   25.0263 N   0  0  0  0  0  0  0  0  0  0  0  0
    9.5226  -15.5808   27.0729 C   0  0  0  0  0  0  0  0  0  0  0  0
    9.6357  -16.8863   27.5227 O   0  0  0  0  0  0  0  0  0  0  0  0
    9.9577  -14.6882   27.8281 O   0  0  0  0  0  0  0  0  0  0  0  0
  2  1  1  6
  3  2  1  0
  4  3  1  0
  4  5  2  0
  6  5  1  0
  7  6  1  0
  8  7  2  0
  8  4  1  0
  9  2  1  0
 10  9  2  0
 12 11  1  6
 12 13  1  0
 12 14  1  0
 13  9  1  0
 14 21  1  0
 15 14  2  0
 17 16  1  0
 18 17  1  0
 19 18  1  0
 20 19  1  1
 20 22  1  0
 21 20  1  0
 22 24  2  0
 22 23  1  0
M  END
$$$$
