HAM.pdb
     RDKit          3D

 24 24  0  0  1  0  0  0  0  0999 V2000
    8.8019  -16.9710   19.6078 N   0  0  0  0  0  0  0  0  0  0  0  0
    8.9277  -15.8699   20.5813 C   0  0  1  0  0  0  0  0  0  0  0  0
    7.7022  -15.0132   20.3510 C   0  0  0  0  0  0  0  0  0  0  0  0
    7.7308  -14.2714   19.0852 C   0  0  0  0  0  0  0  0  0  0  0  0
    8.4391  -13.0824   18.9238 C   0  0  0  0  0  0  0  0  0  0  0  0
    8.2934  -12.6294   17.6890 N   0  0  0  0  0  0  0  0  0  0  0  0
    7.5009  -13.5012   17.0370 C   0  0  0  0  0  0  0  0  0  0  0  0
    7.1653  -14.4946   17.8952 N   0  0  0  0  0  0  0  0  0  0  0  0
    8.8036  -16.5013   21.9270 C   0  0  0  0  0  0  0  0  0  0  0  0
    7.8014  -17.1711   22.2896 O   0  0  0  0  0  0  0  0  0  0  0  0
   10.5096  -18.3460   24.2310 C   0  0  0  0  0  0  0  0  0  0  0  0
    9.7330  -17.0418   24.2186 C   0  0  2  0  0  0  0  0  0  0  0  0
    9.8373  -16.3879   22.9222 N   0  0  0  0  0  0  0  0  0  0  0  0
   10.2866  -16.1087   25.2274 C   0  0  0  0  0  0  0  0  0  0  0  0
   11.4462  -15.6649   25.0518 O   0  0  0  0  0  0  0  0  0  0  0  0
    6.3527  -11.0593   25.5184 C   0  0  0  0  0  0  0  0  0  0  0  0
    7.0236  -11.9481   26.9559 S   0  0  0  0  0  0  0  0  0  0  0  0
    8.3861  -13.0510   26.4142 C   0  0  0  0  0  0  0  0  0  0  0  0
    8.9565  -13.7768   27.6148 C   0  0  0  0  0  0  0  0  0  0  0  0
   10.0802  -14.7078   27.2775 C   0  0  2  0  0  0  0  0  0  0  0  0
    9.5593  -15.7047   26.3718 N   0  0  0  0  0  0  0  0  0  0  0  0
   10.6955  -15.3605   28.4449 C   0  0  0  0  0  0  0  0  0  0  0  0
   11.5910  -14.7379   29.2993 O   0  0  0  0  0  0  0  0  0  0  0  0
   10.4091  -16.5473   28.7013 O   0  0  0  0  0  0  0  0  0  0  0  0
  2  1  1  6
  3  2  1  0
  4  3  1  0
  4  5  2  0
  6  5  1  0
  7  6  1  0
  8  7  2  0
  8  4  1  0
  9  2  1  0
 10  9  2  0
 12 11  1  6
 12 13  1  0
 12 14  1  0
 13  9  1  0
 14 21  1  0
 15 14  2  0
 17 16  1  0
 18 17  1  0
 19 18  1  0
 20 19  1  1
 20 22  1  0
 21 20  1  0
 22 24  2  0
 22 23  1  0
M  END
$$$$
