WGV.pdb
     RDKit          3D

 26 27  0  0  1  0  0  0  0  0999 V2000
   17.6648  -14.1370    8.3309 N   0  0  0  0  0  0  0  0  0  0  0  0
   17.7540  -15.2906    7.4447 C   0  0  1  0  0  0  0  0  0  0  0  0
   19.0405  -15.2530    6.6303 C   0  0  0  0  0  0  0  0  0  0  0  0
   18.9421  -14.2731    5.5354 C   0  0  0  0  0  0  0  0  0  0  0  0
   19.1274  -12.8976    5.6275 C   0  0  0  0  0  0  0  0  0  0  0  0
   18.9507  -12.3472    4.4048 N   0  0  0  0  0  0  0  0  0  0  0  0
   18.6564  -13.3264    3.5236 C   0  0  0  0  0  0  0  0  0  0  0  0
   18.3874  -13.3302    2.1744 C   0  0  0  0  0  0  0  0  0  0  0  0
   18.1093  -14.4939    1.4861 C   0  0  0  0  0  0  0  0  0  0  0  0
   18.1063  -15.6768    2.1914 C   0  0  0  0  0  0  0  0  0  0  0  0
   18.3760  -15.6790    3.5483 C   0  0  0  0  0  0  0  0  0  0  0  0
   18.6505  -14.5153    4.2186 C   0  0  0  0  0  0  0  0  0  0  0  0
   17.7437  -16.5242    8.2473 C   0  0  0  0  0  0  0  0  0  0  0  0
   18.4234  -16.5998    9.2869 O   0  0  0  0  0  0  0  0  0  0  0  0
   16.9632  -17.6237    7.8397 N   0  0  0  0  0  0  0  0  0  0  0  0
   17.0523  -18.9270    8.4521 C   0  0  0  0  0  0  0  0  0  0  0  0
   18.0107  -19.8089    7.7212 C   0  0  0  0  0  0  0  0  0  0  0  0
   18.4779  -19.4117    6.6176 O   0  0  0  0  0  0  0  0  0  0  0  0
   21.3328  -20.8002    8.4534 C   0  0  0  0  0  0  0  0  0  0  0  0
   20.5841  -22.0777    8.2981 C   0  0  1  0  0  0  0  0  0  0  0  0
   20.2727  -22.7467    9.6113 C   0  0  0  0  0  0  0  0  0  0  0  0
   19.3148  -21.9522    7.4948 C   0  0  2  0  0  0  0  0  0  0  0  0
   18.4195  -21.0603    8.2008 N   0  0  0  0  0  0  0  0  0  0  0  0
   18.6979  -23.2369    7.1609 C   0  0  0  0  0  0  0  0  0  0  0  0
   17.7906  -23.7379    7.8719 O   0  0  0  0  0  0  0  0  0  0  0  0
   19.0709  -23.9857    6.0409 O   0  0  0  0  0  0  0  0  0  0  0  0
  2  1  1  1
  3  2  1  0
  4  3  1  0
  5  4  2  0
  6  7  1  0
  6  5  1  0
  7 12  2  0
  8  7  1  0
  8  9  2  0
  9 10  1  0
 10 11  2  0
 12  4  1  0
 12 11  1  0
 13  2  1  0
 13 15  1  0
 14 13  2  0
 16 15  1  0
 17 16  1  0
 18 17  2  0
 20 19  1  1
 20 21  1  0
 22 20  1  0
 22 23  1  1
 23 17  1  0
 24 26  1  0
 24 22  1  0
 25 24  2  0
M  END
$$$$
