WGV.pdb
     RDKit          3D

 26 27  0  0  1  0  0  0  0  0999 V2000
   27.3378  -21.6994  -10.5491 N   0  0  0  0  0  0  0  0  0  0  0  0
   26.3853  -20.8501   -9.8453 C   0  0  1  0  0  0  0  0  0  0  0  0
   27.0780  -19.6298   -9.2533 C   0  0  0  0  0  0  0  0  0  0  0  0
   28.0533  -20.0259   -8.2234 C   0  0  0  0  0  0  0  0  0  0  0  0
   29.1890  -20.8079   -8.4064 C   0  0  0  0  0  0  0  0  0  0  0  0
   29.8233  -20.9467   -7.2201 N   0  0  0  0  0  0  0  0  0  0  0  0
   29.1313  -20.2772   -6.2741 C   0  0  0  0  0  0  0  0  0  0  0  0
   29.3209  -20.0885   -4.9246 C   0  0  0  0  0  0  0  0  0  0  0  0
   28.4475  -19.3423   -4.1593 C   0  0  0  0  0  0  0  0  0  0  0  0
   27.3588  -18.7782   -4.7864 C   0  0  0  0  0  0  0  0  0  0  0  0
   27.1631  -18.9648   -6.1432 C   0  0  0  0  0  0  0  0  0  0  0  0
   28.0391  -19.7084   -6.8904 C   0  0  0  0  0  0  0  0  0  0  0  0
   25.3521  -20.3909  -10.7876 C   0  0  0  0  0  0  0  0  0  0  0  0
   25.6775  -19.9278  -11.8957 O   0  0  0  0  0  0  0  0  0  0  0  0
   23.9906  -20.4749  -10.4363 N   0  0  0  0  0  0  0  0  0  0  0  0
   22.9444  -19.7915  -11.1575 C   0  0  0  0  0  0  0  0  0  0  0  0
   22.3780  -20.6497  -12.2407 C   0  0  0  0  0  0  0  0  0  0  0  0
   23.1150  -20.9542  -13.2196 O   0  0  0  0  0  0  0  0  0  0  0  0
   20.7145  -24.0071  -11.8223 C   0  0  0  0  0  0  0  0  0  0  0  0
   19.8019  -23.1334  -12.6100 C   0  0  1  0  0  0  0  0  0  0  0  0
   18.6242  -22.6346  -11.8144 C   0  0  0  0  0  0  0  0  0  0  0  0
   20.4871  -21.9614  -13.2652 C   0  0  2  0  0  0  0  0  0  0  0  0
   21.0642  -21.1362  -12.2251 N   0  0  0  0  0  0  0  0  0  0  0  0
   19.6265  -21.2107  -14.1807 C   0  0  0  0  0  0  0  0  0  0  0  0
   19.0683  -20.1396  -13.8327 O   0  0  0  0  0  0  0  0  0  0  0  0
   19.3699  -21.6283  -15.4899 O   0  0  0  0  0  0  0  0  0  0  0  0
  2  1  1  6
  3  2  1  0
  4  3  1  0
  5  4  2  0
  6  7  1  0
  6  5  1  0
  7 12  2  0
  8  7  1  0
  8  9  2  0
  9 10  1  0
 10 11  2  0
 12  4  1  0
 12 11  1  0
 13  2  1  0
 13 15  1  0
 14 13  2  0
 16 15  1  0
 17 16  1  0
 18 17  2  0
 20 19  1  1
 20 21  1  0
 22 20  1  0
 22 23  1  1
 23 17  1  0
 24 26  1  0
 24 22  1  0
 25 24  2  0
M  END
$$$$
