WGV.pdb
     RDKit          3D

 26 27  0  0  1  0  0  0  0  0999 V2000
   23.9771  -19.2959  -17.0882 N   0  0  0  0  0  0  0  0  0  0  0  0
   25.2179  -18.5736  -16.8378 C   0  0  1  0  0  0  0  0  0  0  0  0
   25.1102  -17.1282  -17.3056 C   0  0  0  0  0  0  0  0  0  0  0  0
   25.0841  -17.0513  -18.7760 C   0  0  0  0  0  0  0  0  0  0  0  0
   23.9942  -16.7225  -19.5752 C   0  0  0  0  0  0  0  0  0  0  0  0
   24.3724  -16.7625  -20.8730 N   0  0  0  0  0  0  0  0  0  0  0  0
   25.6757  -17.1076  -20.9375 C   0  0  0  0  0  0  0  0  0  0  0  0
   26.5510  -17.2921  -21.9827 C   0  0  0  0  0  0  0  0  0  0  0  0
   27.8679  -17.6531  -21.7806 C   0  0  0  0  0  0  0  0  0  0  0  0
   28.2980  -17.8289  -20.4842 C   0  0  0  0  0  0  0  0  0  0  0  0
   27.4222  -17.6448  -19.4292 C   0  0  0  0  0  0  0  0  0  0  0  0
   26.1170  -17.2863  -19.6453 C   0  0  0  0  0  0  0  0  0  0  0  0
   25.5021  -18.5784  -15.3937 C   0  0  0  0  0  0  0  0  0  0  0  0
   24.6195  -18.2477  -14.5813 O   0  0  0  0  0  0  0  0  0  0  0  0
   26.7760  -18.9581  -14.9275 N   0  0  0  0  0  0  0  0  0  0  0  0
   27.1506  -18.9243  -13.5346 C   0  0  0  0  0  0  0  0  0  0  0  0
   26.3794  -19.9248  -12.7378 C   0  0  0  0  0  0  0  0  0  0  0  0
   26.2618  -21.0978  -13.1897 O   0  0  0  0  0  0  0  0  0  0  0  0
   24.6201  -21.1286   -8.2771 C   0  0  0  0  0  0  0  0  0  0  0  0
   25.4029  -20.3132   -9.2462 C   0  0  1  0  0  0  0  0  0  0  0  0
   26.8922  -20.4284   -9.0522 C   0  0  0  0  0  0  0  0  0  0  0  0
   25.0705  -20.5887  -10.6905 C   0  0  2  0  0  0  0  0  0  0  0  0
   25.7773  -19.6259  -11.5085 N   0  0  0  0  0  0  0  0  0  0  0  0
   23.6339  -20.6310  -10.9679 C   0  0  0  0  0  0  0  0  0  0  0  0
   22.9968  -19.6023  -11.3081 O   0  0  0  0  0  0  0  0  0  0  0  0
   22.8808  -21.8051  -10.8752 O   0  0  0  0  0  0  0  0  0  0  0  0
  2  1  1  1
  3  2  1  0
  4  3  1  0
  5  4  2  0
  6  7  1  0
  6  5  1  0
  7 12  2  0
  8  7  1  0
  8  9  2  0
  9 10  1  0
 10 11  2  0
 12  4  1  0
 12 11  1  0
 13  2  1  0
 13 15  1  0
 14 13  2  0
 16 15  1  0
 17 16  1  0
 18 17  2  0
 20 19  1  1
 20 21  1  0
 22 20  1  0
 22 23  1  6
 23 17  1  0
 24 26  1  0
 24 22  1  0
 25 24  2  0
M  END
$$$$
