WGV.pdb
     RDKit          3D

 26 27  0  0  1  0  0  0  0  0999 V2000
   28.0146  -22.3541  -10.4029 N   0  0  0  0  0  0  0  0  0  0  0  0
   27.1903  -21.1835  -10.1303 C   0  0  1  0  0  0  0  0  0  0  0  0
   27.9488  -20.1685   -9.2854 C   0  0  0  0  0  0  0  0  0  0  0  0
   27.3615  -20.0600   -7.9392 C   0  0  0  0  0  0  0  0  0  0  0  0
   26.0137  -20.1490   -7.6072 C   0  0  0  0  0  0  0  0  0  0  0  0
   25.8792  -19.9972   -6.2701 N   0  0  0  0  0  0  0  0  0  0  0  0
   27.1008  -19.8126   -5.7265 C   0  0  0  0  0  0  0  0  0  0  0  0
   27.5381  -19.6118   -4.4377 C   0  0  0  0  0  0  0  0  0  0  0  0
   28.8745  -19.4461   -4.1348 C   0  0  0  0  0  0  0  0  0  0  0  0
   29.7815  -19.4863   -5.1704 C   0  0  0  0  0  0  0  0  0  0  0  0
   29.3475  -19.6878   -6.4685 C   0  0  0  0  0  0  0  0  0  0  0  0
   28.0168  -19.8509   -6.7541 C   0  0  0  0  0  0  0  0  0  0  0  0
   26.8130  -20.5457  -11.4019 C   0  0  0  0  0  0  0  0  0  0  0  0
   27.6865  -20.2536  -12.2386 O   0  0  0  0  0  0  0  0  0  0  0  0
   25.4600  -20.2641  -11.6748 N   0  0  0  0  0  0  0  0  0  0  0  0
   24.4983  -21.2778  -12.0342 C   0  0  0  0  0  0  0  0  0  0  0  0
   23.6106  -20.8187  -13.1440 C   0  0  0  0  0  0  0  0  0  0  0  0
   24.0660  -19.9894  -13.9800 O   0  0  0  0  0  0  0  0  0  0  0  0
   22.4179  -22.5319  -15.9678 C   0  0  0  0  0  0  0  0  0  0  0  0
   21.1897  -22.0444  -15.2817 C   0  0  1  0  0  0  0  0  0  0  0  0
   20.4780  -23.1198  -14.5033 C   0  0  0  0  0  0  0  0  0  0  0  0
   21.4184  -20.8549  -14.3844 C   0  0  2  0  0  0  0  0  0  0  0  0
   22.2920  -21.2642  -13.3051 N   0  0  0  0  0  0  0  0  0  0  0  0
   20.1841  -20.2240  -13.9143 C   0  0  0  0  0  0  0  0  0  0  0  0
   19.7562  -20.4007  -12.7458 O   0  0  0  0  0  0  0  0  0  0  0  0
   19.4059  -19.3908  -14.7234 O   0  0  0  0  0  0  0  0  0  0  0  0
  2  1  1  6
  3  2  1  0
  4  3  1  0
  5  4  2  0
  6  7  1  0
  6  5  1  0
  7 12  2  0
  8  7  1  0
  8  9  2  0
  9 10  1  0
 10 11  2  0
 12  4  1  0
 12 11  1  0
 13  2  1  0
 13 15  1  0
 14 13  2  0
 16 15  1  0
 17 16  1  0
 18 17  2  0
 20 19  1  1
 20 21  1  0
 22 20  1  0
 22 23  1  1
 23 17  1  0
 24 26  1  0
 24 22  1  0
 25 24  2  0
M  END
$$$$
