WGV.pdb
     RDKit          3D

 26 27  0  0  1  0  0  0  0  0999 V2000
   26.5234  -20.9567  -12.1839 N   0  0  0  0  0  0  0  0  0  0  0  0
   25.3873  -21.3514  -11.3608 C   0  0  1  0  0  0  0  0  0  0  0  0
   25.6042  -20.9536   -9.9068 C   0  0  0  0  0  0  0  0  0  0  0  0
   27.0247  -21.0687   -9.5357 C   0  0  0  0  0  0  0  0  0  0  0  0
   28.0248  -21.7165  -10.2534 C   0  0  0  0  0  0  0  0  0  0  0  0
   29.1932  -21.6005   -9.5824 N   0  0  0  0  0  0  0  0  0  0  0  0
   28.9789  -20.8963   -8.4509 C   0  0  0  0  0  0  0  0  0  0  0  0
   29.7989  -20.4925   -7.4228 C   0  0  0  0  0  0  0  0  0  0  0  0
   29.3253  -19.7624   -6.3514 C   0  0  0  0  0  0  0  0  0  0  0  0
   27.9868  -19.4390   -6.3311 C   0  0  0  0  0  0  0  0  0  0  0  0
   27.1574  -19.8424   -7.3622 C   0  0  0  0  0  0  0  0  0  0  0  0
   27.6420  -20.5672   -8.4199 C   0  0  0  0  0  0  0  0  0  0  0  0
   24.1724  -20.6821  -11.8531 C   0  0  0  0  0  0  0  0  0  0  0  0
   23.2880  -20.3243  -11.0544 O   0  0  0  0  0  0  0  0  0  0  0  0
   24.0082  -20.4448  -13.2319 N   0  0  0  0  0  0  0  0  0  0  0  0
   23.5801  -21.4600  -14.1634 C   0  0  0  0  0  0  0  0  0  0  0  0
   22.3076  -22.1047  -13.7210 C   0  0  0  0  0  0  0  0  0  0  0  0
   22.2630  -23.3640  -13.6406 O   0  0  0  0  0  0  0  0  0  0  0  0
   18.3135  -22.2176  -11.0912 C   0  0  0  0  0  0  0  0  0  0  0  0
   19.6228  -21.7034  -11.5793 C   0  0  1  0  0  0  0  0  0  0  0  0
   20.7927  -22.1910  -10.7655 C   0  0  0  0  0  0  0  0  0  0  0  0
   19.8863  -21.9797  -13.0376 C   0  0  2  0  0  0  0  0  0  0  0  0
   21.1558  -21.3794  -13.3890 N   0  0  0  0  0  0  0  0  0  0  0  0
   18.7946  -21.5706  -13.9226 C   0  0  0  0  0  0  0  0  0  0  0  0
   18.6568  -20.3773  -14.2926 O   0  0  0  0  0  0  0  0  0  0  0  0
   17.8417  -22.4689  -14.4119 O   0  0  0  0  0  0  0  0  0  0  0  0
  2  1  1  6
  3  2  1  0
  4  3  1  0
  5  4  2  0
  6  7  1  0
  6  5  1  0
  7 12  2  0
  8  7  1  0
  8  9  2  0
  9 10  1  0
 10 11  2  0
 12  4  1  0
 12 11  1  0
 13  2  1  0
 13 15  1  0
 14 13  2  0
 16 15  1  0
 17 16  1  0
 18 17  2  0
 20 19  1  1
 20 21  1  0
 22 20  1  0
 22 23  1  6
 23 17  1  0
 24 26  1  0
 24 22  1  0
 25 24  2  0
M  END
$$$$
