WGV.pdb
     RDKit          3D

 26 27  0  0  1  0  0  0  0  0999 V2000
   26.1593  -22.2493  -12.0157 N   0  0  0  0  0  0  0  0  0  0  0  0
   25.7841  -21.1901  -11.0876 C   0  0  1  0  0  0  0  0  0  0  0  0
   26.8721  -20.1275  -11.0058 C   0  0  0  0  0  0  0  0  0  0  0  0
   27.9202  -20.5196  -10.0484 C   0  0  0  0  0  0  0  0  0  0  0  0
   29.0544  -21.2786  -10.3173 C   0  0  0  0  0  0  0  0  0  0  0  0
   29.7683  -21.4217   -9.1776 N   0  0  0  0  0  0  0  0  0  0  0  0
   29.1293  -20.7773   -8.1784 C   0  0  0  0  0  0  0  0  0  0  0  0
   29.4047  -20.6030   -6.8418 C   0  0  0  0  0  0  0  0  0  0  0  0
   28.5713  -19.8829   -6.0098 C   0  0  0  0  0  0  0  0  0  0  0  0
   27.4340  -19.3302   -6.5555 C   0  0  0  0  0  0  0  0  0  0  0  0
   27.1519  -19.5022   -7.8989 C   0  0  0  0  0  0  0  0  0  0  0  0
   27.9890  -20.2201   -8.7130 C   0  0  0  0  0  0  0  0  0  0  0  0
   24.5411  -20.5528  -11.5513 C   0  0  0  0  0  0  0  0  0  0  0  0
   24.4957  -20.0110  -12.6705 O   0  0  0  0  0  0  0  0  0  0  0  0
   23.3984  -20.5549  -10.7276 N   0  0  0  0  0  0  0  0  0  0  0  0
   22.3127  -19.6169  -10.8793 C   0  0  0  0  0  0  0  0  0  0  0  0
   21.2333  -20.1681  -11.7520 C   0  0  0  0  0  0  0  0  0  0  0  0
   20.0392  -20.1137  -11.3454 O   0  0  0  0  0  0  0  0  0  0  0  0
   20.0635  -21.8552  -16.2948 C   0  0  0  0  0  0  0  0  0  0  0  0
   21.0146  -21.3225  -15.2807 C   0  0  1  0  0  0  0  0  0  0  0  0
   21.5806  -19.9757  -15.6474 C   0  0  0  0  0  0  0  0  0  0  0  0
   20.4508  -21.2575  -13.8842 C   0  0  2  0  0  0  0  0  0  0  0  0
   21.4800  -20.7449  -13.0048 N   0  0  0  0  0  0  0  0  0  0  0  0
   19.8775  -22.5215  -13.4195 C   0  0  0  0  0  0  0  0  0  0  0  0
   20.6016  -23.5063  -13.1261 O   0  0  0  0  0  0  0  0  0  0  0  0
   18.5014  -22.7178  -13.2712 O   0  0  0  0  0  0  0  0  0  0  0  0
  2  1  1  6
  3  2  1  0
  4  3  1  0
  5  4  2  0
  6  7  1  0
  6  5  1  0
  7 12  2  0
  8  7  1  0
  8  9  2  0
  9 10  1  0
 10 11  2  0
 12  4  1  0
 12 11  1  0
 13  2  1  0
 13 15  1  0
 14 13  2  0
 16 15  1  0
 17 16  1  0
 18 17  2  0
 20 19  1  6
 20 21  1  0
 22 20  1  0
 22 23  1  1
 23 17  1  0
 24 26  1  0
 24 22  1  0
 25 24  2  0
M  END
$$$$
