WGV.pdb
     RDKit          3D

 26 27  0  0  1  0  0  0  0  0999 V2000
   24.7500  -20.0136   -9.3102 N   0  0  0  0  0  0  0  0  0  0  0  0
   26.1458  -20.2475   -9.6585 C   0  0  1  0  0  0  0  0  0  0  0  0
   26.7641  -21.3021   -8.7503 C   0  0  0  0  0  0  0  0  0  0  0  0
   26.6714  -20.8994   -7.3367 C   0  0  0  0  0  0  0  0  0  0  0  0
   25.5671  -21.0332   -6.5017 C   0  0  0  0  0  0  0  0  0  0  0  0
   25.8784  -20.5454   -5.2793 N   0  0  0  0  0  0  0  0  0  0  0  0
   27.1523  -20.0997   -5.2985 C   0  0  0  0  0  0  0  0  0  0  0  0
   27.9621  -19.5199   -4.3495 C   0  0  0  0  0  0  0  0  0  0  0  0
   29.2615  -19.1447   -4.6253 C   0  0  0  0  0  0  0  0  0  0  0  0
   29.7421  -19.3668   -5.8966 C   0  0  0  0  0  0  0  0  0  0  0  0
   28.9322  -19.9496   -6.8551 C   0  0  0  0  0  0  0  0  0  0  0  0
   27.6436  -20.3170   -6.5665 C   0  0  0  0  0  0  0  0  0  0  0  0
   26.2285  -20.7208  -11.0497 C   0  0  0  0  0  0  0  0  0  0  0  0
   25.1913  -20.9957  -11.6797 O   0  0  0  0  0  0  0  0  0  0  0  0
   27.4842  -20.8638  -11.6719 N   0  0  0  0  0  0  0  0  0  0  0  0
   27.9381  -20.0094  -12.7422 C   0  0  0  0  0  0  0  0  0  0  0  0
   27.1127  -20.1920  -13.9735 C   0  0  0  0  0  0  0  0  0  0  0  0
   27.4152  -19.5347  -15.0081 O   0  0  0  0  0  0  0  0  0  0  0  0
   26.4436  -23.5056  -15.5885 C   0  0  0  0  0  0  0  0  0  0  0  0
   25.1371  -22.8141  -15.4108 C   0  0  1  0  0  0  0  0  0  0  0  0
   24.3154  -23.3787  -14.2818 C   0  0  0  0  0  0  0  0  0  0  0  0
   25.2506  -21.3207  -15.2401 C   0  0  2  0  0  0  0  0  0  0  0  0
   26.0148  -21.0601  -14.0386 N   0  0  0  0  0  0  0  0  0  0  0  0
   23.9634  -20.6243  -15.2626 C   0  0  0  0  0  0  0  0  0  0  0  0
   23.4187  -20.2099  -14.2083 O   0  0  0  0  0  0  0  0  0  0  0  0
   23.2599  -20.3749  -16.4446 O   0  0  0  0  0  0  0  0  0  0  0  0
  2  1  1  1
  3  2  1  0
  4  3  1  0
  5  4  2  0
  6  7  1  0
  6  5  1  0
  7 12  2  0
  8  7  1  0
  8  9  2  0
  9 10  1  0
 10 11  2  0
 12  4  1  0
 12 11  1  0
 13  2  1  0
 13 15  1  0
 14 13  2  0
 16 15  1  0
 17 16  1  0
 18 17  2  0
 20 19  1  1
 20 21  1  0
 22 20  1  0
 22 23  1  1
 23 17  1  0
 24 26  1  0
 24 22  1  0
 25 24  2  0
M  END
$$$$
