WGV.pdb
     RDKit          3D

 26 27  0  0  1  0  0  0  0  0999 V2000
   26.9591  -22.0454  -10.4119 N   0  0  0  0  0  0  0  0  0  0  0  0
   26.4226  -20.7414  -10.0436 C   0  0  1  0  0  0  0  0  0  0  0  0
   27.5427  -19.7299   -9.8393 C   0  0  0  0  0  0  0  0  0  0  0  0
   28.4837  -20.1885   -8.8034 C   0  0  0  0  0  0  0  0  0  0  0  0
   29.5947  -21.0049   -8.9877 C   0  0  0  0  0  0  0  0  0  0  0  0
   30.2010  -21.1986   -7.7944 N   0  0  0  0  0  0  0  0  0  0  0  0
   29.5148  -20.5313   -6.8426 C   0  0  0  0  0  0  0  0  0  0  0  0
   29.6850  -20.3865   -5.4852 C   0  0  0  0  0  0  0  0  0  0  0  0
   28.8236  -19.6311   -4.7152 C   0  0  0  0  0  0  0  0  0  0  0  0
   27.7675  -19.0119   -5.3459 C   0  0  0  0  0  0  0  0  0  0  0  0
   27.5914  -19.1540   -6.7107 C   0  0  0  0  0  0  0  0  0  0  0  0
   28.4551  -19.9075   -7.4625 C   0  0  0  0  0  0  0  0  0  0  0  0
   25.5426  -20.2548  -11.1183 C   0  0  0  0  0  0  0  0  0  0  0  0
   24.8149  -19.2631  -10.9301 O   0  0  0  0  0  0  0  0  0  0  0  0
   25.5221  -20.9119  -12.3641 N   0  0  0  0  0  0  0  0  0  0  0  0
   25.2178  -20.2431  -13.6058 C   0  0  0  0  0  0  0  0  0  0  0  0
   23.7838  -20.4199  -13.9836 C   0  0  0  0  0  0  0  0  0  0  0  0
   23.3649  -19.8743  -15.0424 O   0  0  0  0  0  0  0  0  0  0  0  0
   21.9331  -23.7417  -14.0980 C   0  0  0  0  0  0  0  0  0  0  0  0
   21.1085  -22.7758  -13.3209 C   0  0  1  0  0  0  0  0  0  0  0  0
   21.1031  -23.0560  -11.8410 C   0  0  0  0  0  0  0  0  0  0  0  0
   21.4762  -21.3317  -13.5486 C   0  0  2  0  0  0  0  0  0  0  0  0
   22.8758  -21.1644  -13.2191 N   0  0  0  0  0  0  0  0  0  0  0  0
   20.6061  -20.3838  -12.8508 C   0  0  0  0  0  0  0  0  0  0  0  0
   20.9628  -19.8226  -11.7842 O   0  0  0  0  0  0  0  0  0  0  0  0
   19.3337  -20.0414  -13.3176 O   0  0  0  0  0  0  0  0  0  0  0  0
  2  1  1  6
  3  2  1  0
  4  3  1  0
  5  4  2  0
  6  7  1  0
  6  5  1  0
  7 12  2  0
  8  7  1  0
  8  9  2  0
  9 10  1  0
 10 11  2  0
 12  4  1  0
 12 11  1  0
 13  2  1  0
 13 15  1  0
 14 13  2  0
 16 15  1  0
 17 16  1  0
 18 17  2  0
 20 19  1  6
 20 21  1  0
 22 20  1  0
 22 23  1  1
 23 17  1  0
 24 26  1  0
 24 22  1  0
 25 24  2  0
M  END
$$$$
