AQA.pdb
     RDKit          3D

 20 19  0  0  1  0  0  0  0  0999 V2000
   21.2973   -8.2636  -13.7159 C   0  0  0  0  0  0  0  0  0  0  0  0
   20.3909   -9.4012  -14.1471 C   0  0  2  0  0  0  0  0  0  0  0  0
   20.4312   -9.6493  -15.5528 N   0  0  0  0  0  0  0  0  0  0  0  0
   19.0294   -9.0965  -13.6471 C   0  0  0  0  0  0  0  0  0  0  0  0
   18.3441   -8.2889  -14.3513 O   0  0  0  0  0  0  0  0  0  0  0  0
   15.2908  -12.8453  -10.2744 N   0  0  0  0  0  0  0  0  0  0  0  0
   14.5021  -11.6594  -10.3453 C   0  0  0  0  0  0  0  0  0  0  0  0
   13.3235  -11.7121   -9.9178 O   0  0  0  0  0  0  0  0  0  0  0  0
   15.1126  -10.4366  -10.9157 C   0  0  0  0  0  0  0  0  0  0  0  0
   16.5276  -10.5976  -11.3225 C   0  0  0  0  0  0  0  0  0  0  0  0
   17.1275   -9.3906  -12.0303 C   0  0  2  0  0  0  0  0  0  0  0  0
   18.4900   -9.6562  -12.4550 N   0  0  0  0  0  0  0  0  0  0  0  0
   17.1434   -8.3073  -11.0195 C   0  0  0  0  0  0  0  0  0  0  0  0
   17.8408   -8.4679   -9.9932 O   0  0  0  0  0  0  0  0  0  0  0  0
   15.8908   -4.8282  -10.6157 C   0  0  0  0  0  0  0  0  0  0  0  0
   16.4911   -6.1118  -10.0996 C   0  0  2  0  0  0  0  0  0  0  0  0
   16.4134   -7.1021  -11.1516 N   0  0  0  0  0  0  0  0  0  0  0  0
   15.8023   -6.5962   -8.8770 C   0  0  0  0  0  0  0  0  0  0  0  0
   16.0979   -6.1151   -7.6238 O   0  0  0  0  0  0  0  0  0  0  0  0
   14.9149   -7.4803   -8.9929 O   0  0  0  0  0  0  0  0  0  0  0  0
  2  1  1  6
  2  3  1  0
  4  5  2  0
  4  2  1  0
  6  7  1  0
  7  9  1  0
  7  8  2  0
  9 10  1  0
 11 10  1  1
 11 12  1  0
 12  4  1  0
 13 11  1  0
 14 13  2  0
 16 15  1  6
 16 18  1  0
 16 17  1  0
 17 13  1  0
 18 19  1  0
 20 18  2  0
M  END
$$$$
