AQA.pdb
     RDKit          3D

 20 19  0  0  1  0  0  0  0  0999 V2000
   19.5581  -12.6294  -16.0098 C   0  0  0  0  0  0  0  0  0  0  0  0
   19.4039  -11.1769  -16.4196 C   0  0  2  0  0  0  0  0  0  0  0  0
   19.6166  -10.9615  -17.8152 N   0  0  0  0  0  0  0  0  0  0  0  0
   20.3083  -10.3760  -15.5610 C   0  0  0  0  0  0  0  0  0  0  0  0
   20.2076  -10.5724  -14.3084 O   0  0  0  0  0  0  0  0  0  0  0  0
   26.1456   -9.6635  -16.4795 N   0  0  0  0  0  0  0  0  0  0  0  0
   25.5305  -10.5585  -15.5553 C   0  0  0  0  0  0  0  0  0  0  0  0
   26.1892  -11.5583  -15.1799 O   0  0  0  0  0  0  0  0  0  0  0  0
   24.1560  -10.2615  -15.0908 C   0  0  0  0  0  0  0  0  0  0  0  0
   23.6079   -8.9814  -15.5952 C   0  0  0  0  0  0  0  0  0  0  0  0
   22.1599   -8.7130  -15.2091 C   0  0  2  0  0  0  0  0  0  0  0  0
   21.2448   -9.4353  -16.0742 N   0  0  0  0  0  0  0  0  0  0  0  0
   21.9607   -7.2584  -15.4090 C   0  0  0  0  0  0  0  0  0  0  0  0
   21.7794   -6.8422  -16.5749 O   0  0  0  0  0  0  0  0  0  0  0  0
   21.2318   -4.2596  -13.3697 C   0  0  0  0  0  0  0  0  0  0  0  0
   21.6742   -4.9284  -14.6469 C   0  0  2  0  0  0  0  0  0  0  0  0
   21.9644   -6.3152  -14.3539 N   0  0  0  0  0  0  0  0  0  0  0  0
   22.8604   -4.2629  -15.2417 C   0  0  0  0  0  0  0  0  0  0  0  0
   22.7536   -3.2762  -16.1927 O   0  0  0  0  0  0  0  0  0  0  0  0
   24.0062   -4.6156  -14.8605 O   0  0  0  0  0  0  0  0  0  0  0  0
  2  1  1  6
  2  3  1  0
  4  5  2  0
  4  2  1  0
  6  7  1  0
  7  9  1  0
  7  8  2  0
  9 10  1  0
 11 10  1  6
 11 12  1  0
 12  4  1  0
 13 11  1  0
 14 13  2  0
 16 15  1  1
 16 18  1  0
 16 17  1  0
 17 13  1  0
 18 19  1  0
 20 18  2  0
M  END
$$$$
