AQA.pdb
     RDKit          3D

 20 19  0  0  1  0  0  0  0  0999 V2000
   24.2712  -12.9373  -16.9072 C   0  0  0  0  0  0  0  0  0  0  0  0
   23.9730  -11.9081  -15.8332 C   0  0  2  0  0  0  0  0  0  0  0  0
   22.9655  -12.3315  -14.9140 N   0  0  0  0  0  0  0  0  0  0  0  0
   23.6408  -10.6366  -16.5181 C   0  0  0  0  0  0  0  0  0  0  0  0
   24.5351  -10.1698  -17.2928 O   0  0  0  0  0  0  0  0  0  0  0  0
   18.2084   -8.8505  -18.8743 N   0  0  0  0  0  0  0  0  0  0  0  0
   19.0031   -7.6924  -19.1208 C   0  0  0  0  0  0  0  0  0  0  0  0
   18.5126   -6.7854  -19.8358 O   0  0  0  0  0  0  0  0  0  0  0  0
   20.3563   -7.6226  -18.5230 C   0  0  0  0  0  0  0  0  0  0  0  0
   20.7161   -8.7975  -17.6961 C   0  0  0  0  0  0  0  0  0  0  0  0
   22.0969   -8.7281  -17.0587 C   0  0  2  0  0  0  0  0  0  0  0  0
   22.4052   -9.9526  -16.3425 N   0  0  0  0  0  0  0  0  0  0  0  0
   22.0288   -7.6101  -16.0888 C   0  0  0  0  0  0  0  0  0  0  0  0
   21.6648   -7.8648  -14.9191 O   0  0  0  0  0  0  0  0  0  0  0  0
   23.0364   -4.0314  -15.9163 C   0  0  0  0  0  0  0  0  0  0  0  0
   22.4098   -5.2839  -15.3570 C   0  0  2  0  0  0  0  0  0  0  0  0
   22.3526   -6.2711  -16.4132 N   0  0  0  0  0  0  0  0  0  0  0  0
   21.0541   -5.0304  -14.8077 C   0  0  0  0  0  0  0  0  0  0  0  0
   20.8479   -4.6160  -13.5134 O   0  0  0  0  0  0  0  0  0  0  0  0
   20.0570   -5.2014  -15.5554 O   0  0  0  0  0  0  0  0  0  0  0  0
  2  1  1  6
  2  3  1  0
  4  5  2  0
  4  2  1  0
  6  7  1  0
  7  9  1  0
  7  8  2  0
  9 10  1  0
 11 10  1  1
 11 12  1  0
 12  4  1  0
 13 11  1  0
 14 13  2  0
 16 15  1  6
 16 18  1  0
 16 17  1  0
 17 13  1  0
 18 19  1  0
 20 18  2  0
M  END
$$$$
