AQA.pdb
     RDKit          3D

 20 19  0  0  1  0  0  0  0  0999 V2000
   16.5575   -8.8798  -18.6246 C   0  0  0  0  0  0  0  0  0  0  0  0
   17.9196   -9.3560  -18.1560 C   0  0  2  0  0  0  0  0  0  0  0  0
   18.0465  -10.7784  -18.1526 N   0  0  0  0  0  0  0  0  0  0  0  0
   18.1703   -8.7446  -16.8295 C   0  0  0  0  0  0  0  0  0  0  0  0
   17.6162   -9.3164  -15.8377 O   0  0  0  0  0  0  0  0  0  0  0  0
   22.1529   -9.6955  -13.4389 N   0  0  0  0  0  0  0  0  0  0  0  0
   22.4726   -9.2184  -14.7441 C   0  0  0  0  0  0  0  0  0  0  0  0
   23.5667   -9.5721  -15.2464 O   0  0  0  0  0  0  0  0  0  0  0  0
   21.5020   -8.3369  -15.4326 C   0  0  0  0  0  0  0  0  0  0  0  0
   20.3103   -7.9959  -14.6221 C   0  0  0  0  0  0  0  0  0  0  0  0
   19.3058   -7.0879  -15.3182 C   0  0  2  0  0  0  0  0  0  0  0  0
   18.9772   -7.5875  -16.6410 N   0  0  0  0  0  0  0  0  0  0  0  0
   19.9858   -5.7787  -15.4559 C   0  0  0  0  0  0  0  0  0  0  0  0
   20.7170   -5.5955  -16.4546 O   0  0  0  0  0  0  0  0  0  0  0  0
   19.7797   -2.3748  -14.0720 C   0  0  0  0  0  0  0  0  0  0  0  0
   20.5439   -3.4769  -14.7616 C   0  0  2  0  0  0  0  0  0  0  0  0
   19.8533   -4.7251  -14.5202 N   0  0  0  0  0  0  0  0  0  0  0  0
   21.9489   -3.5596  -14.2893 C   0  0  0  0  0  0  0  0  0  0  0  0
   22.9329   -2.7172  -14.7493 O   0  0  0  0  0  0  0  0  0  0  0  0
   22.2496   -4.4338  -13.4361 O   0  0  0  0  0  0  0  0  0  0  0  0
  2  1  1  1
  2  3  1  0
  4  5  2  0
  4  2  1  0
  6  7  1  0
  7  9  1  0
  7  8  2  0
  9 10  1  0
 11 10  1  6
 11 12  1  0
 12  4  1  0
 13 11  1  0
 14 13  2  0
 16 15  1  1
 16 18  1  0
 16 17  1  0
 17 13  1  0
 18 19  1  0
 20 18  2  0
M  END
$$$$
