AQA.pdb
     RDKit          3D

 20 19  0  0  1  0  0  0  0  0999 V2000
   27.5094  -19.1347  -15.6833 C   0  0  0  0  0  0  0  0  0  0  0  0
   27.5727  -20.1586  -14.5656 C   0  0  2  0  0  0  0  0  0  0  0  0
   28.4994  -21.2141  -14.8229 N   0  0  0  0  0  0  0  0  0  0  0  0
   26.1914  -20.6399  -14.3271 C   0  0  0  0  0  0  0  0  0  0  0  0
   25.8989  -21.7695  -14.8331 O   0  0  0  0  0  0  0  0  0  0  0  0
   23.0745  -20.7667   -9.5316 N   0  0  0  0  0  0  0  0  0  0  0  0
   21.8921  -20.7733  -10.3286 C   0  0  0  0  0  0  0  0  0  0  0  0
   20.8549  -21.2789   -9.8355 O   0  0  0  0  0  0  0  0  0  0  0  0
   21.9511  -20.1864  -11.6871 C   0  0  0  0  0  0  0  0  0  0  0  0
   23.2943  -19.7031  -12.0818 C   0  0  0  0  0  0  0  0  0  0  0  0
   23.9393  -20.4777  -13.2228 C   0  0  2  0  0  0  0  0  0  0  0  0
   25.2254  -19.9077  -13.5815 N   0  0  0  0  0  0  0  0  0  0  0  0
   23.0142  -20.3332  -14.3711 C   0  0  0  0  0  0  0  0  0  0  0  0
   22.8881  -19.2010  -14.8887 O   0  0  0  0  0  0  0  0  0  0  0  0
   21.4553  -22.4118  -16.9287 C   0  0  0  0  0  0  0  0  0  0  0  0
   21.4363  -21.1687  -16.0753 C   0  0  2  0  0  0  0  0  0  0  0  0
   22.2662  -21.4051  -14.9139 N   0  0  0  0  0  0  0  0  0  0  0  0
   20.0591  -20.7971  -15.6639 C   0  0  0  0  0  0  0  0  0  0  0  0
   19.1131  -20.3615  -16.5610 O   0  0  0  0  0  0  0  0  0  0  0  0
   19.7468  -20.8845  -14.4484 O   0  0  0  0  0  0  0  0  0  0  0  0
  2  1  1  6
  2  3  1  0
  4  5  2  0
  4  2  1  0
  6  7  1  0
  7  9  1  0
  7  8  2  0
  9 10  1  0
 11 10  1  1
 11 12  1  0
 12  4  1  0
 13 11  1  0
 14 13  2  0
 16 15  1  6
 16 18  1  0
 16 17  1  0
 17 13  1  0
 18 19  1  0
 20 18  2  0
M  END
$$$$
