TRY.pdb
     RDKit          3D

 31 31  0  0  1  0  0  0  0  0999 V2000
   22.5970  -14.9119  -15.0568 C   0  0  0  0  0  0  0  0  0  0  0  0
   22.7418  -13.4881  -15.5504 C   0  0  1  0  0  0  0  0  0  0  0  0
   22.8806  -12.6895  -14.3984 O   0  0  0  0  0  0  0  0  0  0  0  0
   24.0341  -13.4062  -16.3488 C   0  0  2  0  0  0  0  0  0  0  0  0
   25.0987  -13.7868  -15.4548 N   0  0  0  0  0  0  0  0  0  0  0  0
   24.2464  -12.0438  -16.8925 C   0  0  0  0  0  0  0  0  0  0  0  0
   25.2303  -11.3867  -16.4747 O   0  0  0  0  0  0  0  0  0  0  0  0
   21.1278   -6.8340  -21.1761 N   0  0  0  0  0  0  0  0  0  0  0  0
   22.1249   -6.5627  -22.1421 C   0  0  0  0  0  0  0  0  0  0  0  0
   22.3493   -5.4123  -22.6500 N   0  0  0  0  0  0  0  0  0  0  0  0
   22.9625   -7.6422  -22.6049 N   0  0  0  0  0  0  0  0  0  0  0  0
   22.8057   -8.9641  -22.0422 C   0  0  0  0  0  0  0  0  0  0  0  0
   23.1962   -8.9343  -20.6006 C   0  0  0  0  0  0  0  0  0  0  0  0
   23.0949  -10.2551  -19.9162 C   0  0  0  0  0  0  0  0  0  0  0  0
   23.5321  -10.2463  -18.4703 C   0  0  2  0  0  0  0  0  0  0  0  0
   23.3309  -11.5500  -17.8549 N   0  0  0  0  0  0  0  0  0  0  0  0
   22.8568   -9.2172  -17.6620 C   0  0  0  0  0  0  0  0  0  0  0  0
   21.6336   -9.3461  -17.4179 O   0  0  0  0  0  0  0  0  0  0  0  0
   23.1182   -5.3595  -23.3711 O   0  0  0  0  0  0  0  0  0  0  0  0
   21.5241   -1.3570  -13.6603 C   0  0  0  0  0  0  0  0  0  0  0  0
   22.1016   -2.4856  -14.2640 C   0  0  0  0  0  0  0  0  0  0  0  0
   22.6610   -2.4148  -15.5264 C   0  0  0  0  0  0  0  0  0  0  0  0
   23.2285   -3.5230  -16.1205 C   0  0  0  0  0  0  0  0  0  0  0  0
   23.2467   -4.7328  -15.4567 C   0  0  0  0  0  0  0  0  0  0  0  0
   23.8339   -5.9441  -16.0494 C   0  0  1  0  0  0  0  0  0  0  0  0
   22.8280   -6.9976  -16.4341 N   0  0  0  0  0  0  0  0  0  0  0  0
   23.5114   -8.0724  -17.1338 C   0  0  0  0  0  0  0  0  0  0  0  0
   21.7844   -6.4573  -17.3274 O   0  0  0  0  0  0  0  0  0  0  0  0
   20.6128   -6.3059  -16.9019 C   0  0  0  0  0  0  0  0  0  0  0  0
   22.6867   -4.7876  -14.2019 C   0  0  0  0  0  0  0  0  0  0  0  0
   22.1144   -3.6830  -13.5953 O   0  0  0  0  0  0  0  0  0  0  0  0
  2  1  1  1
  2  4  1  0
  3  2  1  0
  4  5  1  1
  6  7  2  0
  6  4  1  0
  9  8  1  0
 10  9  2  0
 11  9  1  0
 12 11  1  0
 12 13  1  0
 13 14  1  0
 15 14  1  6
 15 16  1  0
 16  6  1  0
 17 26  1  0
 17 15  1  0
 18 17  2  0
 20 19  1  0
 21 20  2  0
 22 21  1  0
 23 29  1  0
 23 22  2  0
 25 24  1  1
 24 23  1  0
 25 26  1  0
 27 25  1  0
 28 27  2  0
 29 30  2  0
 30 20  1  0
 31 27  1  0
M  END
$$$$
