TRY.pdb
     RDKit          3D

 31 31  0  0  1  0  0  0  0  0999 V2000
   28.9964  -21.4679  -16.1224 C   0  0  0  0  0  0  0  0  0  0  0  0
   28.1960  -21.2688  -14.8530 C   0  0  1  0  0  0  0  0  0  0  0  0
   29.1351  -20.9902  -13.8409 O   0  0  0  0  0  0  0  0  0  0  0  0
   27.3218  -20.0391  -15.0473 C   0  0  2  0  0  0  0  0  0  0  0  0
   28.1979  -18.9663  -15.4460 N   0  0  0  0  0  0  0  0  0  0  0  0
   26.5835  -19.7011  -13.8074 C   0  0  0  0  0  0  0  0  0  0  0  0
   26.9845  -18.7260  -13.1271 O   0  0  0  0  0  0  0  0  0  0  0  0
   18.5540  -20.2111  -11.7070 N   0  0  0  0  0  0  0  0  0  0  0  0
   19.3524  -20.6780  -12.7772 C   0  0  0  0  0  0  0  0  0  0  0  0
   18.9794  -20.7150  -13.9984 N   0  0  0  0  0  0  0  0  0  0  0  0
   20.6864  -21.1518  -12.4997 N   0  0  0  0  0  0  0  0  0  0  0  0
   21.1523  -21.2250  -11.1336 C   0  0  0  0  0  0  0  0  0  0  0  0
   22.5278  -20.6482  -11.0517 C   0  0  0  0  0  0  0  0  0  0  0  0
   23.3310  -20.8130  -12.2972 C   0  0  0  0  0  0  0  0  0  0  0  0
   24.7171  -20.2162  -12.2319 C   0  0  2  0  0  0  0  0  0  0  0  0
   25.4637  -20.4929  -13.4505 N   0  0  0  0  0  0  0  0  0  0  0  0
   25.4962  -20.6741  -11.0693 C   0  0  0  0  0  0  0  0  0  0  0  0
   26.0152  -21.8151  -11.1003 O   0  0  0  0  0  0  0  0  0  0  0  0
   19.6764  -21.1012  -14.6906 O   0  0  0  0  0  0  0  0  0  0  0  0
   29.8257  -20.2702   -3.2761 C   0  0  0  0  0  0  0  0  0  0  0  0
   29.2130  -20.0152   -4.5135 C   0  0  0  0  0  0  0  0  0  0  0  0
   28.1018  -19.1978   -4.6073 C   0  0  0  0  0  0  0  0  0  0  0  0
   27.4989  -18.9466   -5.8224 C   0  0  0  0  0  0  0  0  0  0  0  0
   28.0011  -19.5137   -6.9760 C   0  0  0  0  0  0  0  0  0  0  0  0
   27.3908  -19.2821   -8.2941 C   0  0  1  0  0  0  0  0  0  0  0  0
   26.4331  -20.3590   -8.7329 N   0  0  0  0  0  0  0  0  0  0  0  0
   25.7002  -19.8950   -9.8989 C   0  0  0  0  0  0  0  0  0  0  0  0
   25.4563  -20.6865   -7.6758 O   0  0  0  0  0  0  0  0  0  0  0  0
   24.3101  -20.1745   -7.7019 C   0  0  0  0  0  0  0  0  0  0  0  0
   29.1067  -20.3242   -6.8670 C   0  0  0  0  0  0  0  0  0  0  0  0
   29.7204  -20.5838   -5.6539 O   0  0  0  0  0  0  0  0  0  0  0  0
  2  1  1  6
  2  4  1  0
  3  2  1  0
  4  5  1  1
  6  7  2  0
  6  4  1  0
  9  8  1  0
 10  9  2  0
 11  9  1  0
 12 11  1  0
 12 13  1  0
 13 14  1  0
 15 14  1  6
 15 16  1  0
 16  6  1  0
 17 26  1  0
 17 15  1  0
 18 17  2  0
 20 19  1  0
 21 20  2  0
 22 21  1  0
 23 29  1  0
 23 22  2  0
 25 24  1  6
 24 23  1  0
 25 26  1  0
 27 25  1  0
 28 27  2  0
 29 30  2  0
 30 20  1  0
 31 27  1  0
M  END
$$$$
