TRY.pdb
     RDKit          3D

 31 31  0  0  1  0  0  0  0  0999 V2000
   35.5841  -10.9087  -14.2420 C   0  0  0  0  0  0  0  0  0  0  0  0
   36.0791   -9.4788  -14.2899 C   0  0  1  0  0  0  0  0  0  0  0  0
   37.0865   -9.3831  -13.3101 O   0  0  0  0  0  0  0  0  0  0  0  0
   36.7147   -9.2565  -15.6540 C   0  0  2  0  0  0  0  0  0  0  0  0
   37.3259   -7.9517  -15.6190 N   0  0  0  0  0  0  0  0  0  0  0  0
   35.7098   -9.3534  -16.7391 C   0  0  0  0  0  0  0  0  0  0  0  0
   35.0325   -8.3327  -17.0112 O   0  0  0  0  0  0  0  0  0  0  0  0
   34.7934  -15.1276  -23.5317 N   0  0  0  0  0  0  0  0  0  0  0  0
   33.6138  -14.3470  -23.5268 C   0  0  0  0  0  0  0  0  0  0  0  0
   32.6684  -14.4553  -24.3791 N   0  0  0  0  0  0  0  0  0  0  0  0
   33.4386  -13.3507  -22.4983 N   0  0  0  0  0  0  0  0  0  0  0  0
   34.4141  -13.2343  -21.4383 C   0  0  0  0  0  0  0  0  0  0  0  0
   34.0151  -12.1234  -20.5228 C   0  0  0  0  0  0  0  0  0  0  0  0
   34.9818  -11.8714  -19.4159 C   0  0  0  0  0  0  0  0  0  0  0  0
   34.6003  -10.7337  -18.4983 C   0  0  2  0  0  0  0  0  0  0  0  0
   35.5623  -10.5900  -17.4153 N   0  0  0  0  0  0  0  0  0  0  0  0
   33.2473  -10.8677  -17.9328 C   0  0  0  0  0  0  0  0  0  0  0  0
   33.0097  -11.8194  -17.1519 O   0  0  0  0  0  0  0  0  0  0  0  0
   31.8596  -13.7860  -24.2704 O   0  0  0  0  0  0  0  0  0  0  0  0
   31.3417   -3.9657  -19.5051 C   0  0  0  0  0  0  0  0  0  0  0  0
   31.1174   -5.1929  -18.8607 C   0  0  0  0  0  0  0  0  0  0  0  0
   29.9440   -5.8984  -19.0527 C   0  0  0  0  0  0  0  0  0  0  0  0
   29.7224   -7.1041  -18.4201 C   0  0  0  0  0  0  0  0  0  0  0  0
   30.6792   -7.6306  -17.5763 C   0  0  0  0  0  0  0  0  0  0  0  0
   30.4881   -8.9087  -16.8739 C   0  0  1  0  0  0  0  0  0  0  0  0
   30.8335  -10.1251  -17.6928 N   0  0  0  0  0  0  0  0  0  0  0  0
   32.1797   -9.9753  -18.2193 C   0  0  0  0  0  0  0  0  0  0  0  0
   29.9105  -10.2981  -18.8316 O   0  0  0  0  0  0  0  0  0  0  0  0
   30.3510  -10.2551  -20.0067 C   0  0  0  0  0  0  0  0  0  0  0  0
   31.8411   -6.9176  -17.3953 C   0  0  0  0  0  0  0  0  0  0  0  0
   32.0752   -5.7071  -18.0242 O   0  0  0  0  0  0  0  0  0  0  0  0
  2  1  1  6
  2  4  1  0
  3  2  1  0
  4  5  1  1
  6  7  2  0
  6  4  1  0
  9  8  1  0
 10  9  2  0
 11  9  1  0
 12 11  1  0
 12 13  1  0
 13 14  1  0
 15 14  1  1
 15 16  1  0
 16  6  1  0
 17 26  1  0
 17 15  1  0
 18 17  2  0
 20 19  1  0
 21 20  2  0
 22 21  1  0
 23 29  1  0
 23 22  2  0
 25 24  1  1
 24 23  1  0
 25 26  1  0
 27 25  1  0
 28 27  2  0
 29 30  2  0
 30 20  1  0
 31 27  1  0
M  END
$$$$
