TRY.pdb
     RDKit          3D

 31 31  0  0  1  0  0  0  0  0999 V2000
   23.5986   -8.8755  -21.5999 C   0  0  0  0  0  0  0  0  0  0  0  0
   22.2953   -9.3274  -22.2237 C   0  0  1  0  0  0  0  0  0  0  0  0
   22.4964   -9.2863  -23.6172 O   0  0  0  0  0  0  0  0  0  0  0  0
   22.0661  -10.7747  -21.8151 C   0  0  2  0  0  0  0  0  0  0  0  0
   20.8965  -11.2260  -22.5262 N   0  0  0  0  0  0  0  0  0  0  0  0
   21.8884  -10.8992  -20.3489 C   0  0  0  0  0  0  0  0  0  0  0  0
   20.8731  -10.3762  -19.8294 O   0  0  0  0  0  0  0  0  0  0  0  0
   21.3283  -15.7135  -14.5589 N   0  0  0  0  0  0  0  0  0  0  0  0
   22.3365  -15.9808  -15.5143 C   0  0  0  0  0  0  0  0  0  0  0  0
   22.5723  -17.1309  -16.0180 N   0  0  0  0  0  0  0  0  0  0  0  0
   23.1728  -14.8975  -15.9704 N   0  0  0  0  0  0  0  0  0  0  0  0
   22.9870  -13.5704  -15.4290 C   0  0  0  0  0  0  0  0  0  0  0  0
   23.9229  -12.6262  -16.1100 C   0  0  0  0  0  0  0  0  0  0  0  0
   23.8129  -12.6284  -17.5971 C   0  0  0  0  0  0  0  0  0  0  0  0
   22.8128  -11.6418  -18.1524 C   0  0  2  0  0  0  0  0  0  0  0  0
   22.8706  -11.6007  -19.6063 N   0  0  0  0  0  0  0  0  0  0  0  0
   22.9791  -10.2790  -17.6200 C   0  0  0  0  0  0  0  0  0  0  0  0
   23.9773   -9.6084  -17.9752 O   0  0  0  0  0  0  0  0  0  0  0  0
   23.3221  -17.1736  -16.7595 O   0  0  0  0  0  0  0  0  0  0  0  0
   21.2804   -2.0345  -15.2054 C   0  0  0  0  0  0  0  0  0  0  0  0
   21.2938   -3.3618  -15.6636 C   0  0  0  0  0  0  0  0  0  0  0  0
   20.2392   -4.2183  -15.4074 C   0  0  0  0  0  0  0  0  0  0  0  0
   20.2513   -5.5225  -15.8569 C   0  0  0  0  0  0  0  0  0  0  0  0
   21.3284   -5.9977  -16.5771 C   0  0  0  0  0  0  0  0  0  0  0  0
   21.3919   -7.3811  -17.0726 C   0  0  1  0  0  0  0  0  0  0  0  0
   22.2112   -8.3108  -16.2158 N   0  0  0  0  0  0  0  0  0  0  0  0
   22.0683   -9.6671  -16.7176 C   0  0  0  0  0  0  0  0  0  0  0  0
   21.7668   -8.2916  -14.8083 O   0  0  0  0  0  0  0  0  0  0  0  0
   20.9437   -9.1473  -14.3998 C   0  0  0  0  0  0  0  0  0  0  0  0
   22.3697   -5.1341  -16.8241 C   0  0  0  0  0  0  0  0  0  0  0  0
   22.3693   -3.8237  -16.3786 O   0  0  0  0  0  0  0  0  0  0  0  0
  2  1  1  1
  2  4  1  0
  3  2  1  0
  4  5  1  6
  6  7  2  0
  6  4  1  0
  9  8  1  0
 10  9  2  0
 11  9  1  0
 12 11  1  0
 12 13  1  0
 13 14  1  0
 15 14  1  1
 15 16  1  0
 16  6  1  0
 17 26  1  0
 17 15  1  0
 18 17  2  0
 20 19  1  0
 21 20  2  0
 22 21  1  0
 23 29  1  0
 23 22  2  0
 25 24  1  6
 24 23  1  0
 25 26  1  0
 27 25  1  0
 28 27  2  0
 29 30  2  0
 30 20  1  0
 31 27  1  0
M  END
$$$$
