TRY.pdb
     RDKit          3D

 31 31  0  0  1  0  0  0  0  0999 V2000
   25.0116  -13.1397  -18.5497 C   0  0  0  0  0  0  0  0  0  0  0  0
   25.9576  -13.3437  -19.7138 C   0  0  1  0  0  0  0  0  0  0  0  0
   26.5115  -12.0787  -19.9911 O   0  0  0  0  0  0  0  0  0  0  0  0
   27.0747  -14.2635  -19.2443 C   0  0  2  0  0  0  0  0  0  0  0  0
   28.0277  -14.3422  -20.3226 N   0  0  0  0  0  0  0  0  0  0  0  0
   26.5540  -15.6038  -18.8847 C   0  0  0  0  0  0  0  0  0  0  0  0
   25.7846  -16.1763  -19.6938 O   0  0  0  0  0  0  0  0  0  0  0  0
   26.5931  -22.4226  -15.7994 N   0  0  0  0  0  0  0  0  0  0  0  0
   27.9440  -22.0867  -16.0510 C   0  0  0  0  0  0  0  0  0  0  0  0
   28.7339  -22.7632  -16.7928 N   0  0  0  0  0  0  0  0  0  0  0  0
   28.4955  -20.9018  -15.4404 N   0  0  0  0  0  0  0  0  0  0  0  0
   27.6477  -20.0437  -14.6444 C   0  0  0  0  0  0  0  0  0  0  0  0
   26.7017  -19.3165  -15.5431 C   0  0  0  0  0  0  0  0  0  0  0  0
   27.2819  -18.0985  -16.1781 C   0  0  0  0  0  0  0  0  0  0  0  0
   26.3871  -17.4390  -17.2009 C   0  0  2  0  0  0  0  0  0  0  0  0
   26.9486  -16.1726  -17.6482 N   0  0  0  0  0  0  0  0  0  0  0  0
   25.0129  -17.2190  -16.7198 C   0  0  0  0  0  0  0  0  0  0  0  0
   24.8354  -16.5153  -15.6973 O   0  0  0  0  0  0  0  0  0  0  0  0
   29.7345  -22.4305  -16.8389 O   0  0  0  0  0  0  0  0  0  0  0  0
   16.2199  -16.0479  -16.8252 C   0  0  0  0  0  0  0  0  0  0  0  0
   17.5916  -16.2224  -17.0696 C   0  0  0  0  0  0  0  0  0  0  0  0
   18.4005  -16.8880  -16.1673 C   0  0  0  0  0  0  0  0  0  0  0  0
   19.7483  -17.0599  -16.4062 C   0  0  0  0  0  0  0  0  0  0  0  0
   20.3163  -16.5645  -17.5623 C   0  0  0  0  0  0  0  0  0  0  0  0
   21.7486  -16.7162  -17.8601 C   0  0  1  0  0  0  0  0  0  0  0  0
   22.5035  -17.5606  -16.8668 N   0  0  0  0  0  0  0  0  0  0  0  0
   23.8598  -17.7606  -17.3486 C   0  0  0  0  0  0  0  0  0  0  0  0
   21.8784  -18.8859  -16.6886 O   0  0  0  0  0  0  0  0  0  0  0  0
   21.1584  -19.1087  -15.6842 C   0  0  0  0  0  0  0  0  0  0  0  0
   19.4991  -15.9050  -18.4502 C   0  0  0  0  0  0  0  0  0  0  0  0
   18.1458  -15.7261  -18.2219 O   0  0  0  0  0  0  0  0  0  0  0  0
  2  1  1  1
  2  4  1  0
  3  2  1  0
  4  5  1  6
  6  7  2  0
  6  4  1  0
  9  8  1  0
 10  9  2  0
 11  9  1  0
 12 11  1  0
 12 13  1  0
 13 14  1  0
 15 14  1  1
 15 16  1  0
 16  6  1  0
 17 26  1  0
 17 15  1  0
 18 17  2  0
 20 19  1  0
 21 20  2  0
 22 21  1  0
 23 29  1  0
 23 22  2  0
 25 24  1  1
 24 23  1  0
 25 26  1  0
 27 25  1  0
 28 27  2  0
 29 30  2  0
 30 20  1  0
 31 27  1  0
M  END
$$$$
