TRY.pdb
     RDKit          3D

 31 31  0  0  1  0  0  0  0  0999 V2000
   15.4909   -6.3467   -6.6482 C   0  0  0  0  0  0  0  0  0  0  0  0
   14.7712   -5.0338   -6.8717 C   0  0  1  0  0  0  0  0  0  0  0  0
   14.9151   -4.3031   -5.6762 O   0  0  0  0  0  0  0  0  0  0  0  0
   15.5023   -4.2899   -7.9791 C   0  0  2  0  0  0  0  0  0  0  0  0
   14.9172   -2.9747   -8.0514 N   0  0  0  0  0  0  0  0  0  0  0  0
   15.3895   -5.0033   -9.2733 C   0  0  0  0  0  0  0  0  0  0  0  0
   14.3049   -4.9252   -9.8994 O   0  0  0  0  0  0  0  0  0  0  0  0
   21.8505   -7.9343  -14.1972 N   0  0  0  0  0  0  0  0  0  0  0  0
   21.0274   -8.9795  -13.7168 C   0  0  0  0  0  0  0  0  0  0  0  0
   21.3686  -10.2098  -13.6723 N   0  0  0  0  0  0  0  0  0  0  0  0
   19.7043   -8.6634  -13.2365 N   0  0  0  0  0  0  0  0  0  0  0  0
   19.0811   -7.4166  -13.6183 C   0  0  0  0  0  0  0  0  0  0  0  0
   17.7436   -7.3141  -12.9612 C   0  0  0  0  0  0  0  0  0  0  0  0
   17.7685   -6.6319  -11.6356 C   0  0  0  0  0  0  0  0  0  0  0  0
   16.4214   -6.5264  -10.9603 C   0  0  2  0  0  0  0  0  0  0  0  0
   16.5082   -5.7371   -9.7403 N   0  0  0  0  0  0  0  0  0  0  0  0
   15.8184   -7.8340  -10.6520 C   0  0  0  0  0  0  0  0  0  0  0  0
   16.3828   -8.5783   -9.8156 O   0  0  0  0  0  0  0  0  0  0  0  0
   20.6331  -10.8890  -13.3381 O   0  0  0  0  0  0  0  0  0  0  0  0
    9.6614  -14.2971  -10.4010 C   0  0  0  0  0  0  0  0  0  0  0  0
   10.3848  -13.0950  -10.4595 C   0  0  0  0  0  0  0  0  0  0  0  0
   10.8891  -12.5065   -9.3146 C   0  0  0  0  0  0  0  0  0  0  0  0
   11.5998  -11.3254   -9.3708 C   0  0  0  0  0  0  0  0  0  0  0  0
   11.8207  -10.7062  -10.5842 C   0  0  0  0  0  0  0  0  0  0  0  0
   12.5665   -9.4434  -10.6963 C   0  0  1  0  0  0  0  0  0  0  0  0
   14.0383   -9.6134  -10.9690 N   0  0  0  0  0  0  0  0  0  0  0  0
   14.6217   -8.3124  -11.2498 C   0  0  0  0  0  0  0  0  0  0  0  0
   14.2816  -10.4878  -12.1331 O   0  0  0  0  0  0  0  0  0  0  0  0
   14.5366  -11.7050  -11.9595 C   0  0  0  0  0  0  0  0  0  0  0  0
   11.3132  -11.3035  -11.7142 C   0  0  0  0  0  0  0  0  0  0  0  0
   10.5987  -12.4881  -11.6708 O   0  0  0  0  0  0  0  0  0  0  0  0
  2  1  1  1
  2  4  1  0
  3  2  1  0
  4  5  1  6
  6  7  2  0
  6  4  1  0
  9  8  1  0
 10  9  2  0
 11  9  1  0
 12 11  1  0
 12 13  1  0
 13 14  1  0
 15 14  1  1
 15 16  1  0
 16  6  1  0
 17 26  1  0
 17 15  1  0
 18 17  2  0
 20 19  1  0
 21 20  2  0
 22 21  1  0
 23 29  1  0
 23 22  2  0
 25 24  1  1
 24 23  1  0
 25 26  1  0
 27 25  1  0
 28 27  2  0
 29 30  2  0
 30 20  1  0
 31 27  1  0
M  END
$$$$
