TRY.pdb
     RDKit          3D

 31 31  0  0  1  0  0  0  0  0999 V2000
   26.0383  -22.8923  -17.0132 C   0  0  0  0  0  0  0  0  0  0  0  0
   27.1499  -22.1288  -16.3252 C   0  0  1  0  0  0  0  0  0  0  0  0
   28.3477  -22.7755  -16.6873 O   0  0  0  0  0  0  0  0  0  0  0  0
   27.1705  -20.7224  -16.9047 C   0  0  2  0  0  0  0  0  0  0  0  0
   28.3806  -20.0974  -16.4333 N   0  0  0  0  0  0  0  0  0  0  0  0
   25.9709  -19.9536  -16.4963 C   0  0  0  0  0  0  0  0  0  0  0  0
   26.0071  -19.3363  -15.4045 O   0  0  0  0  0  0  0  0  0  0  0  0
   22.7549  -16.7296  -21.6967 N   0  0  0  0  0  0  0  0  0  0  0  0
   22.6121  -15.6247  -20.8251 C   0  0  0  0  0  0  0  0  0  0  0  0
   23.0305  -14.4440  -21.0758 N   0  0  0  0  0  0  0  0  0  0  0  0
   21.9515  -15.8150  -19.5569 N   0  0  0  0  0  0  0  0  0  0  0  0
   21.3022  -17.0734  -19.2677 C   0  0  0  0  0  0  0  0  0  0  0  0
   21.8955  -17.6594  -18.0283 C   0  0  0  0  0  0  0  0  0  0  0  0
   23.1054  -18.4964  -18.2710 C   0  0  0  0  0  0  0  0  0  0  0  0
   23.6668  -19.1586  -17.0349 C   0  0  2  0  0  0  0  0  0  0  0  0
   24.8441  -19.9525  -17.3556 N   0  0  0  0  0  0  0  0  0  0  0  0
   22.6884  -20.0027  -16.3287 C   0  0  0  0  0  0  0  0  0  0  0  0
   22.4289  -21.1406  -16.7870 O   0  0  0  0  0  0  0  0  0  0  0  0
   22.8717  -13.7204  -20.3240 O   0  0  0  0  0  0  0  0  0  0  0  0
   26.4700  -23.0806  -11.8645 C   0  0  0  0  0  0  0  0  0  0  0  0
   25.2482  -22.4431  -12.1337 C   0  0  0  0  0  0  0  0  0  0  0  0
   24.1911  -23.1314  -12.6999 C   0  0  0  0  0  0  0  0  0  0  0  0
   22.9903  -22.5061  -12.9649 C   0  0  0  0  0  0  0  0  0  0  0  0
   22.8238  -21.1692  -12.6658 C   0  0  0  0  0  0  0  0  0  0  0  0
   21.5659  -20.4559  -12.9347 C   0  0  2  0  0  0  0  0  0  0  0  0
   21.1367  -20.4765  -14.3786 N   0  0  0  0  0  0  0  0  0  0  0  0
   22.0106  -19.6047  -15.1454 C   0  0  0  0  0  0  0  0  0  0  0  0
   19.7498  -19.9989  -14.5440 O   0  0  0  0  0  0  0  0  0  0  0  0
   19.5296  -18.8978  -15.1058 C   0  0  0  0  0  0  0  0  0  0  0  0
   23.8839  -20.4981  -12.1029 C   0  0  0  0  0  0  0  0  0  0  0  0
   25.0934  -21.1141  -11.8322 O   0  0  0  0  0  0  0  0  0  0  0  0
  2  1  1  6
  2  4  1  0
  3  2  1  0
  4  5  1  1
  6  7  2  0
  6  4  1  0
  9  8  1  0
 10  9  2  0
 11  9  1  0
 12 11  1  0
 12 13  1  0
 13 14  1  0
 15 14  1  6
 15 16  1  0
 16  6  1  0
 17 26  1  0
 17 15  1  0
 18 17  2  0
 20 19  1  0
 21 20  2  0
 22 21  1  0
 23 29  1  0
 23 22  2  0
 25 24  1  6
 24 23  1  0
 25 26  1  0
 27 25  1  0
 28 27  2  0
 29 30  2  0
 30 20  1  0
 31 27  1  0
M  END
$$$$
