MPS.pdb
     RDKit          3D

 22 22  0  0  1  0  0  0  0  0999 V2000
    6.2481  -10.8928   26.3775 C   0  0  0  0  0  0  0  0  0  0  0  0
    7.0588  -12.2812   27.2289 S   0  0  0  0  0  0  0  0  0  0  0  0
    6.2695  -13.8449   26.7047 C   0  0  0  0  0  0  0  0  0  0  0  0
    7.1855  -14.4751   25.7004 C   0  0  0  0  0  0  0  0  0  0  0  0
    6.6359  -15.7347   25.0741 C   0  0  2  0  0  0  0  0  0  0  0  0
    6.4513  -16.7427   26.0589 N   0  0  0  0  0  0  0  0  0  0  0  0
    7.5135  -16.1448   23.9608 C   0  0  0  0  0  0  0  0  0  0  0  0
    8.0538  -17.2966   24.1097 O   0  0  0  0  0  0  0  0  0  0  0  0
    7.8006  -15.4148   22.7969 N   0  0  0  0  0  0  0  0  0  0  0  0
    7.3631  -14.0840   22.4576 C   0  0  0  0  0  0  0  0  0  0  0  0
    7.3352  -14.1573   20.9176 C   0  0  0  0  0  0  0  0  0  0  0  0
    8.6803  -14.7957   20.6799 C   0  0  0  0  0  0  0  0  0  0  0  0
    8.6113  -15.9383   21.7016 C   0  0  1  0  0  0  0  0  0  0  0  0
    9.9879  -16.2626   22.1183 C   0  0  0  0  0  0  0  0  0  0  0  0
   10.5674  -15.4268   22.8575 O   0  0  0  0  0  0  0  0  0  0  0  0
   11.3783  -19.8477   22.0122 O   0  0  0  0  0  0  0  0  0  0  0  0
   12.2647  -19.0458   22.7506 C   0  0  0  0  0  0  0  0  0  0  0  0
   12.0915  -17.6380   22.2265 C   0  0  2  0  0  0  0  0  0  0  0  0
   10.7113  -17.4272   21.7616 N   0  0  0  0  0  0  0  0  0  0  0  0
   12.9875  -17.4771   21.0620 C   0  0  0  0  0  0  0  0  0  0  0  0
   12.5390  -17.2810   19.9024 O   0  0  0  0  0  0  0  0  0  0  0  0
   14.3689  -17.5340   21.1858 O   0  0  0  0  0  0  0  0  0  0  0  0
  2  1  1  0
  3  2  1  0
  4  3  1  0
  4  5  1  0
  5  6  1  1
  7  9  1  0
  7  5  1  0
  8  7  2  0
  9 13  1  0
 10  9  1  0
 10 11  1  0
 11 12  1  0
 13 12  1  0
 13 14  1  1
 14 19  1  0
 14 15  2  0
 17 16  1  0
 18 17  1  6
 18 20  1  0
 19 18  1  0
 20 22  1  0
 21 20  2  0
M  END
$$$$
