MPS.pdb
     RDKit          3D

 22 22  0  0  1  0  0  0  0  0999 V2000
    8.8027  -13.5050   28.9014 C   0  0  0  0  0  0  0  0  0  0  0  0
    8.0608  -12.9586   27.3326 S   0  0  0  0  0  0  0  0  0  0  0  0
    6.7203  -14.1137   26.8727 C   0  0  0  0  0  0  0  0  0  0  0  0
    7.3700  -15.4287   26.5670 C   0  0  0  0  0  0  0  0  0  0  0  0
    6.6314  -16.2540   25.5401 C   0  0  2  0  0  0  0  0  0  0  0  0
    6.1763  -17.4728   26.1121 N   0  0  0  0  0  0  0  0  0  0  0  0
    7.4928  -16.4379   24.3560 C   0  0  0  0  0  0  0  0  0  0  0  0
    8.0163  -17.6030   24.2586 O   0  0  0  0  0  0  0  0  0  0  0  0
    7.7813  -15.4880   23.3639 N   0  0  0  0  0  0  0  0  0  0  0  0
    7.3559  -14.1120   23.3071 C   0  0  0  0  0  0  0  0  0  0  0  0
    7.3190  -13.8684   21.7850 C   0  0  0  0  0  0  0  0  0  0  0  0
    8.6560  -14.4569   21.4118 C   0  0  0  0  0  0  0  0  0  0  0  0
    8.5805  -15.7837   22.1787 C   0  0  1  0  0  0  0  0  0  0  0  0
    9.9560  -16.1989   22.5101 C   0  0  0  0  0  0  0  0  0  0  0  0
   10.5303  -15.5693   23.4345 O   0  0  0  0  0  0  0  0  0  0  0  0
   11.4058  -19.7666   22.6453 O   0  0  0  0  0  0  0  0  0  0  0  0
   12.3835  -19.0034   21.9853 C   0  0  0  0  0  0  0  0  0  0  0  0
   12.0616  -17.5574   22.2889 C   0  0  2  0  0  0  0  0  0  0  0  0
   10.6834  -17.2399   21.8825 N   0  0  0  0  0  0  0  0  0  0  0  0
   12.9725  -16.7147   21.4859 C   0  0  0  0  0  0  0  0  0  0  0  0
   12.5586  -16.0307   20.5138 O   0  0  0  0  0  0  0  0  0  0  0  0
   14.3306  -16.6336   21.7611 O   0  0  0  0  0  0  0  0  0  0  0  0
  2  1  1  0
  3  2  1  0
  4  3  1  0
  4  5  1  0
  5  6  1  1
  7  9  1  0
  7  5  1  0
  8  7  2  0
  9 13  1  0
 10  9  1  0
 10 11  1  0
 11 12  1  0
 13 12  1  0
 13 14  1  1
 14 19  1  0
 14 15  2  0
 17 16  1  0
 18 17  1  6
 18 20  1  0
 19 18  1  0
 20 22  1  0
 21 20  2  0
M  END
$$$$
