MPS.pdb
     RDKit          3D

 22 22  0  0  1  0  0  0  0  0999 V2000
    7.5889  -11.1941   26.3805 C   0  0  0  0  0  0  0  0  0  0  0  0
    7.4441  -12.4705   27.6688 S   0  0  0  0  0  0  0  0  0  0  0  0
    6.4819  -13.8778   27.0082 C   0  0  0  0  0  0  0  0  0  0  0  0
    7.3509  -14.5562   25.9935 C   0  0  0  0  0  0  0  0  0  0  0  0
    6.6840  -15.7149   25.2909 C   0  0  2  0  0  0  0  0  0  0  0  0
    6.4257  -16.7718   26.2054 N   0  0  0  0  0  0  0  0  0  0  0  0
    7.5061  -16.1176   24.1335 C   0  0  0  0  0  0  0  0  0  0  0  0
    8.0346  -17.2797   24.2388 O   0  0  0  0  0  0  0  0  0  0  0  0
    7.7539  -15.3711   22.9711 N   0  0  0  0  0  0  0  0  0  0  0  0
    7.2333  -14.0718   22.6272 C   0  0  0  0  0  0  0  0  0  0  0  0
    7.2217  -14.1475   21.0872 C   0  0  0  0  0  0  0  0  0  0  0  0
    8.6072  -14.6971   20.8601 C   0  0  0  0  0  0  0  0  0  0  0  0
    8.6050  -15.8413   21.8824 C   0  0  1  0  0  0  0  0  0  0  0  0
    9.9967  -16.0751   22.3096 C   0  0  0  0  0  0  0  0  0  0  0  0
   10.4946  -15.2350   23.1015 O   0  0  0  0  0  0  0  0  0  0  0  0
   11.4909  -19.4991   22.4150 O   0  0  0  0  0  0  0  0  0  0  0  0
   12.4342  -18.6407   23.0042 C   0  0  0  0  0  0  0  0  0  0  0  0
   12.2041  -17.2791   22.3879 C   0  0  2  0  0  0  0  0  0  0  0  0
   10.8179  -17.1577   21.9091 N   0  0  0  0  0  0  0  0  0  0  0  0
   13.0966  -17.1582   21.2159 C   0  0  0  0  0  0  0  0  0  0  0  0
   12.6451  -16.9876   20.0534 O   0  0  0  0  0  0  0  0  0  0  0  0
   14.4778  -17.2266   21.3354 O   0  0  0  0  0  0  0  0  0  0  0  0
  2  1  1  0
  3  2  1  0
  4  3  1  0
  4  5  1  0
  5  6  1  1
  7  9  1  0
  7  5  1  0
  8  7  2  0
  9 13  1  0
 10  9  1  0
 10 11  1  0
 11 12  1  0
 13 12  1  0
 13 14  1  1
 14 19  1  0
 14 15  2  0
 17 16  1  0
 18 17  1  6
 18 20  1  0
 19 18  1  0
 20 22  1  0
 21 20  2  0
M  END
$$$$
