MPS.pdb
     RDKit          3D

 22 22  0  0  1  0  0  0  0  0999 V2000
    6.7171  -11.6873   26.9727 C   0  0  0  0  0  0  0  0  0  0  0  0
    7.6974  -13.2110   27.1371 S   0  0  0  0  0  0  0  0  0  0  0  0
    7.4181  -14.2612   25.6668 C   0  0  0  0  0  0  0  0  0  0  0  0
    6.9781  -15.6016   26.1713 C   0  0  0  0  0  0  0  0  0  0  0  0
    6.4394  -16.5154   25.0961 C   0  0  2  0  0  0  0  0  0  0  0  0
    6.0846  -17.7775   25.6448 N   0  0  0  0  0  0  0  0  0  0  0  0
    7.4197  -16.5995   23.9962 C   0  0  0  0  0  0  0  0  0  0  0  0
    8.2272  -17.5903   24.0819 O   0  0  0  0  0  0  0  0  0  0  0  0
    7.5446  -15.7251   22.9055 N   0  0  0  0  0  0  0  0  0  0  0  0
    6.8851  -14.4588   22.7077 C   0  0  0  0  0  0  0  0  0  0  0  0
    6.8172  -14.3893   21.1687 C   0  0  0  0  0  0  0  0  0  0  0  0
    8.2393  -14.7711   20.8449 C   0  0  0  0  0  0  0  0  0  0  0  0
    8.3919  -16.0011   21.7493 C   0  0  1  0  0  0  0  0  0  0  0  0
    9.8164  -16.1314   22.1071 C   0  0  0  0  0  0  0  0  0  0  0  0
   10.2641  -15.3174   22.9543 O   0  0  0  0  0  0  0  0  0  0  0  0
   14.0400  -15.5910   21.6932 O   0  0  0  0  0  0  0  0  0  0  0  0
   12.6452  -15.5714   21.5259 C   0  0  0  0  0  0  0  0  0  0  0  0
   12.1683  -16.9761   21.8193 C   0  0  2  0  0  0  0  0  0  0  0  0
   10.7201  -17.0885   21.5837 N   0  0  0  0  0  0  0  0  0  0  0  0
   12.4130  -17.2452   23.2519 C   0  0  0  0  0  0  0  0  0  0  0  0
   11.4802  -17.2360   24.0969 O   0  0  0  0  0  0  0  0  0  0  0  0
   13.6826  -17.5215   23.7401 O   0  0  0  0  0  0  0  0  0  0  0  0
  2  1  1  0
  3  2  1  0
  4  3  1  0
  4  5  1  0
  5  6  1  1
  7  9  1  0
  7  5  1  0
  8  7  2  0
  9 13  1  0
 10  9  1  0
 10 11  1  0
 11 12  1  0
 13 12  1  0
 13 14  1  1
 14 19  1  0
 14 15  2  0
 17 16  1  0
 18 17  1  1
 18 20  1  0
 19 18  1  0
 20 22  1  0
 21 20  2  0
M  END
$$$$
