MPS.pdb
     RDKit          3D

 22 22  0  0  1  0  0  0  0  0999 V2000
    6.3530  -10.7861   27.7131 C   0  0  0  0  0  0  0  0  0  0  0  0
    7.4221  -11.9957   26.8741 S   0  0  0  0  0  0  0  0  0  0  0  0
    6.4101  -13.4275   26.3559 C   0  0  0  0  0  0  0  0  0  0  0  0
    7.2767  -14.2706   25.4711 C   0  0  0  0  0  0  0  0  0  0  0  0
    6.5642  -15.4557   24.8636 C   0  0  2  0  0  0  0  0  0  0  0  0
    6.1382  -16.3559   25.8775 N   0  0  0  0  0  0  0  0  0  0  0  0
    7.4354  -16.0751   23.8462 C   0  0  0  0  0  0  0  0  0  0  0  0
    7.8590  -17.2443   24.1534 O   0  0  0  0  0  0  0  0  0  0  0  0
    7.8288  -15.5206   22.6183 N   0  0  0  0  0  0  0  0  0  0  0  0
    7.3950  -14.2784   22.0299 C   0  0  0  0  0  0  0  0  0  0  0  0
    7.5387  -14.5885   20.5262 C   0  0  0  0  0  0  0  0  0  0  0  0
    8.9188  -15.1956   20.5338 C   0  0  0  0  0  0  0  0  0  0  0  0
    8.7691  -16.1697   21.7098 C   0  0  1  0  0  0  0  0  0  0  0  0
   10.1000  -16.3648   22.3138 C   0  0  0  0  0  0  0  0  0  0  0  0
   10.5557  -15.4143   22.9990 O   0  0  0  0  0  0  0  0  0  0  0  0
   11.4223  -19.7038   23.1405 O   0  0  0  0  0  0  0  0  0  0  0  0
   12.4986  -18.8680   23.4824 C   0  0  0  0  0  0  0  0  0  0  0  0
   12.2670  -17.5658   22.7491 C   0  0  2  0  0  0  0  0  0  0  0  0
   10.9059  -17.5234   22.1915 N   0  0  0  0  0  0  0  0  0  0  0  0
   13.2178  -17.5098   21.6188 C   0  0  0  0  0  0  0  0  0  0  0  0
   12.8276  -17.5326   20.4224 O   0  0  0  0  0  0  0  0  0  0  0  0
   14.5893  -17.4294   21.8171 O   0  0  0  0  0  0  0  0  0  0  0  0
  2  1  1  0
  3  2  1  0
  4  3  1  0
  4  5  1  0
  5  6  1  1
  7  9  1  0
  7  5  1  0
  8  7  2  0
  9 13  1  0
 10  9  1  0
 10 11  1  0
 11 12  1  0
 13 12  1  0
 13 14  1  1
 14 19  1  0
 14 15  2  0
 17 16  1  0
 18 17  1  6
 18 20  1  0
 19 18  1  0
 20 22  1  0
 21 20  2  0
M  END
$$$$
