MPS.pdb
     RDKit          3D

 22 22  0  0  1  0  0  0  0  0999 V2000
    5.8160  -11.5440   26.7712 C   0  0  0  0  0  0  0  0  0  0  0  0
    7.0061  -12.8748   27.1212 S   0  0  0  0  0  0  0  0  0  0  0  0
    7.0520  -14.0228   25.6989 C   0  0  0  0  0  0  0  0  0  0  0  0
    6.6970  -15.3790   26.2276 C   0  0  0  0  0  0  0  0  0  0  0  0
    6.4590  -16.4134   25.1531 C   0  0  2  0  0  0  0  0  0  0  0  0
    6.1722  -17.6790   25.7329 N   0  0  0  0  0  0  0  0  0  0  0  0
    7.6118  -16.4289   24.2320 C   0  0  0  0  0  0  0  0  0  0  0  0
    8.4743  -17.3432   24.4792 O   0  0  0  0  0  0  0  0  0  0  0  0
    7.8420  -15.5648   23.1501 N   0  0  0  0  0  0  0  0  0  0  0  0
    7.1447  -14.3447   22.8295 C   0  0  0  0  0  0  0  0  0  0  0  0
    7.2970  -14.3025   21.2956 C   0  0  0  0  0  0  0  0  0  0  0  0
    8.7711  -14.6007   21.1890 C   0  0  0  0  0  0  0  0  0  0  0  0
    8.8629  -15.8053   22.1349 C   0  0  1  0  0  0  0  0  0  0  0  0
   10.2255  -15.8421   22.6970 C   0  0  0  0  0  0  0  0  0  0  0  0
   10.4989  -14.9853   23.5756 O   0  0  0  0  0  0  0  0  0  0  0  0
   12.2776  -18.9742   22.9724 O   0  0  0  0  0  0  0  0  0  0  0  0
   12.9327  -17.9418   23.6644 C   0  0  0  0  0  0  0  0  0  0  0  0
   12.5915  -16.6639   22.9313 C   0  0  2  0  0  0  0  0  0  0  0  0
   11.2484  -16.7536   22.3369 N   0  0  0  0  0  0  0  0  0  0  0  0
   13.5617  -16.5047   21.8276 C   0  0  0  0  0  0  0  0  0  0  0  0
   13.2103  -16.5722   20.6209 O   0  0  0  0  0  0  0  0  0  0  0  0
   14.9098  -16.2728   22.0636 O   0  0  0  0  0  0  0  0  0  0  0  0
  2  1  1  0
  3  2  1  0
  4  3  1  0
  4  5  1  0
  5  6  1  1
  7  9  1  0
  7  5  1  0
  8  7  2  0
  9 13  1  0
 10  9  1  0
 10 11  1  0
 11 12  1  0
 13 12  1  0
 13 14  1  1
 14 19  1  0
 14 15  2  0
 17 16  1  0
 18 17  1  6
 18 20  1  0
 19 18  1  0
 20 22  1  0
 21 20  2  0
M  END
$$$$
