MPS.pdb
     RDKit          3D

 22 22  0  0  1  0  0  0  0  0999 V2000
    7.4413  -11.1941   26.1013 C   0  0  0  0  0  0  0  0  0  0  0  0
    6.9390  -12.3383   27.4236 S   0  0  0  0  0  0  0  0  0  0  0  0
    6.0492  -13.7528   26.6820 C   0  0  0  0  0  0  0  0  0  0  0  0
    7.0248  -14.4553   25.7879 C   0  0  0  0  0  0  0  0  0  0  0  0
    6.4362  -15.6265   25.0375 C   0  0  2  0  0  0  0  0  0  0  0  0
    6.0540  -16.6564   25.9393 N   0  0  0  0  0  0  0  0  0  0  0  0
    7.3905  -16.0670   24.0017 C   0  0  0  0  0  0  0  0  0  0  0  0
    7.9175  -17.2138   24.2212 O   0  0  0  0  0  0  0  0  0  0  0  0
    7.7608  -15.3699   22.8411 N   0  0  0  0  0  0  0  0  0  0  0  0
    7.2712  -14.0944   22.3819 C   0  0  0  0  0  0  0  0  0  0  0  0
    7.4331  -14.2390   20.8553 C   0  0  0  0  0  0  0  0  0  0  0  0
    8.8399  -14.7795   20.8100 C   0  0  0  0  0  0  0  0  0  0  0  0
    8.7327  -15.8767   21.8771 C   0  0  1  0  0  0  0  0  0  0  0  0
   10.0696  -16.0724   22.4674 C   0  0  0  0  0  0  0  0  0  0  0  0
   10.4419  -15.2256   23.3189 O   0  0  0  0  0  0  0  0  0  0  0  0
   11.9536  -19.4428   22.2474 O   0  0  0  0  0  0  0  0  0  0  0  0
   12.6154  -18.6270   23.1804 C   0  0  0  0  0  0  0  0  0  0  0  0
   12.2941  -17.2012   22.7923 C   0  0  2  0  0  0  0  0  0  0  0  0
   10.9666  -17.1253   22.1618 N   0  0  0  0  0  0  0  0  0  0  0  0
   13.2926  -16.7707   21.7911 C   0  0  0  0  0  0  0  0  0  0  0  0
   12.9754  -16.5404   20.5950 O   0  0  0  0  0  0  0  0  0  0  0  0
   14.6308  -16.5981   22.1168 O   0  0  0  0  0  0  0  0  0  0  0  0
  2  1  1  0
  3  2  1  0
  4  3  1  0
  4  5  1  0
  5  6  1  1
  7  9  1  0
  7  5  1  0
  8  7  2  0
  9 13  1  0
 10  9  1  0
 10 11  1  0
 11 12  1  0
 13 12  1  0
 13 14  1  1
 14 19  1  0
 14 15  2  0
 17 16  1  0
 18 17  1  6
 18 20  1  0
 19 18  1  0
 20 22  1  0
 21 20  2  0
M  END
$$$$
