MPS.pdb
     RDKit          3D

 22 22  0  0  1  0  0  0  0  0999 V2000
    7.3907  -11.8047   26.1121 C   0  0  0  0  0  0  0  0  0  0  0  0
    6.7103  -12.9058   27.3906 S   0  0  0  0  0  0  0  0  0  0  0  0
    7.0772  -14.6396   26.9410 C   0  0  0  0  0  0  0  0  0  0  0  0
    6.2247  -14.9670   25.7533 C   0  0  0  0  0  0  0  0  0  0  0  0
    6.3333  -16.4026   25.2970 C   0  0  2  0  0  0  0  0  0  0  0  0
    6.5198  -17.2675   26.4092 N   0  0  0  0  0  0  0  0  0  0  0  0
    7.3950  -16.5077   24.2773 C   0  0  0  0  0  0  0  0  0  0  0  0
    8.1498  -17.5349   24.4035 O   0  0  0  0  0  0  0  0  0  0  0  0
    7.6449  -15.6175   23.2214 N   0  0  0  0  0  0  0  0  0  0  0  0
    6.9188  -14.4186   22.8852 C   0  0  0  0  0  0  0  0  0  0  0  0
    7.1439  -14.3448   21.3616 C   0  0  0  0  0  0  0  0  0  0  0  0
    8.6316  -14.5866   21.3234 C   0  0  0  0  0  0  0  0  0  0  0  0
    8.7225  -15.8029   22.2543 C   0  0  1  0  0  0  0  0  0  0  0  0
   10.0565  -15.7991   22.8823 C   0  0  0  0  0  0  0  0  0  0  0  0
   10.2659  -14.9251   23.7615 O   0  0  0  0  0  0  0  0  0  0  0  0
   12.0894  -18.8319   23.3936 O   0  0  0  0  0  0  0  0  0  0  0  0
   12.8100  -17.7799   23.9834 C   0  0  0  0  0  0  0  0  0  0  0  0
   12.4399  -16.5338   23.2107 C   0  0  2  0  0  0  0  0  0  0  0  0
   11.1174  -16.6895   22.5846 N   0  0  0  0  0  0  0  0  0  0  0  0
   13.4322  -16.3629   22.1287 C   0  0  0  0  0  0  0  0  0  0  0  0
   13.0956  -16.3519   20.9160 O   0  0  0  0  0  0  0  0  0  0  0  0
   14.7859  -16.2060   22.3928 O   0  0  0  0  0  0  0  0  0  0  0  0
  2  1  1  0
  3  2  1  0
  4  3  1  0
  4  5  1  0
  5  6  1  1
  7  9  1  0
  7  5  1  0
  8  7  2  0
  9 13  1  0
 10  9  1  0
 10 11  1  0
 11 12  1  0
 13 12  1  0
 13 14  1  1
 14 19  1  0
 14 15  2  0
 17 16  1  0
 18 17  1  6
 18 20  1  0
 19 18  1  0
 20 22  1  0
 21 20  2  0
M  END
$$$$
