GHQ.pdb
     RDKit          3D

 24 24  0  0  1  0  0  0  0  0999 V2000
    9.1687  -18.4720   18.3853 N   0  0  0  0  0  0  0  0  0  0  0  0
    9.1358  -19.0338   19.7036 C   0  0  0  0  0  0  0  0  0  0  0  0
    9.4132  -17.9566   20.6866 C   0  0  0  0  0  0  0  0  0  0  0  0
   10.5671  -17.7916   21.1258 O   0  0  0  0  0  0  0  0  0  0  0  0
    8.3789  -17.0821   21.1576 N   0  0  0  0  0  0  0  0  0  0  0  0
    8.6276  -16.1230   22.2000 C   0  0  1  0  0  0  0  0  0  0  0  0
    7.7004  -14.9309   22.1142 C   0  0  0  0  0  0  0  0  0  0  0  0
    7.8948  -14.1176   20.9213 C   0  0  0  0  0  0  0  0  0  0  0  0
    8.8742  -14.2940   19.9741 C   0  0  0  0  0  0  0  0  0  0  0  0
    8.7094  -13.3404   19.0389 N   0  0  0  0  0  0  0  0  0  0  0  0
    7.6599  -12.5728   19.3685 C   0  0  0  0  0  0  0  0  0  0  0  0
    7.1652  -13.0677   20.5388 N   0  0  0  0  0  0  0  0  0  0  0  0
    8.5890  -16.7478   23.5455 C   0  0  0  0  0  0  0  0  0  0  0  0
    7.7714  -17.6636   23.7654 O   0  0  0  0  0  0  0  0  0  0  0  0
   12.3512  -20.3760   24.5026 N   0  0  0  0  0  0  0  0  0  0  0  0
   12.1386  -20.2827   25.8848 C   0  0  0  0  0  0  0  0  0  0  0  0
   12.6192  -21.0799   26.7313 O   0  0  0  0  0  0  0  0  0  0  0  0
   11.2776  -19.1506   26.3767 C   0  0  0  0  0  0  0  0  0  0  0  0
   10.8146  -18.2969   25.2353 C   0  0  0  0  0  0  0  0  0  0  0  0
    9.8829  -17.2497   25.6768 C   0  0  2  0  0  0  0  0  0  0  0  0
    9.4314  -16.3689   24.6154 N   0  0  0  0  0  0  0  0  0  0  0  0
   10.5276  -16.3897   26.6882 C   0  0  0  0  0  0  0  0  0  0  0  0
   10.7031  -16.9187   27.9875 O   0  0  0  0  0  0  0  0  0  0  0  0
   10.9468  -15.2348   26.5477 O   0  0  0  0  0  0  0  0  0  0  0  0
  1  2  1  0
  3  2  1  0
  3  5  1  0
  4  3  2  0
  6  5  1  0
  6  7  1  1
  8 12  1  0
  8  7  1  0
  9  8  2  0
 10  9  1  0
 10 11  1  0
 11 12  2  0
 13  6  1  0
 13 21  1  0
 14 13  2  0
 16 18  1  0
 16 15  1  0
 17 16  2  0
 19 18  1  0
 20 21  1  0
 20 19  1  6
 22 20  1  0
 23 22  1  0
 24 22  2  0
M  END
$$$$
