GHQ.pdb
     RDKit          3D

 24 24  0  0  1  0  0  0  0  0999 V2000
    4.3387  -19.8727   21.2535 N   0  0  0  0  0  0  0  0  0  0  0  0
    4.1093  -18.5591   21.7793 C   0  0  0  0  0  0  0  0  0  0  0  0
    5.4212  -17.9195   22.0502 C   0  0  0  0  0  0  0  0  0  0  0  0
    6.4582  -18.6087   22.0871 O   0  0  0  0  0  0  0  0  0  0  0  0
    5.5388  -16.5082   22.2753 N   0  0  0  0  0  0  0  0  0  0  0  0
    6.7885  -15.9152   22.6693 C   0  0  1  0  0  0  0  0  0  0  0  0
    6.8790  -14.4570   22.2776 C   0  0  0  0  0  0  0  0  0  0  0  0
    7.4782  -14.2344   20.9686 C   0  0  0  0  0  0  0  0  0  0  0  0
    8.0012  -15.2014   20.1445 C   0  0  0  0  0  0  0  0  0  0  0  0
    8.4528  -14.5872   19.0355 N   0  0  0  0  0  0  0  0  0  0  0  0
    8.2303  -13.2684   19.1372 C   0  0  0  0  0  0  0  0  0  0  0  0
    7.6251  -13.0652   20.3421 N   0  0  0  0  0  0  0  0  0  0  0  0
    7.0596  -16.1090   24.1154 C   0  0  0  0  0  0  0  0  0  0  0  0
    6.1698  -15.8259   24.9423 O   0  0  0  0  0  0  0  0  0  0  0  0
    7.9606  -21.0792   26.7440 N   0  0  0  0  0  0  0  0  0  0  0  0
    8.2638  -20.3076   27.8739 C   0  0  0  0  0  0  0  0  0  0  0  0
    8.3372  -20.7632   29.0445 O   0  0  0  0  0  0  0  0  0  0  0  0
    8.5160  -18.8393   27.6608 C   0  0  0  0  0  0  0  0  0  0  0  0
    8.3072  -18.4646   26.2250 C   0  0  0  0  0  0  0  0  0  0  0  0
    8.5005  -17.0251   26.0004 C   0  0  2  0  0  0  0  0  0  0  0  0
    8.2805  -16.6019   24.6298 N   0  0  0  0  0  0  0  0  0  0  0  0
    9.8839  -16.6392   26.3404 C   0  0  0  0  0  0  0  0  0  0  0  0
   10.2545  -16.6507   27.7047 O   0  0  0  0  0  0  0  0  0  0  0  0
   10.7884  -16.2972   25.5698 O   0  0  0  0  0  0  0  0  0  0  0  0
  1  2  1  0
  3  2  1  0
  3  5  1  0
  4  3  2  0
  6  5  1  0
  6  7  1  1
  8 12  1  0
  8  7  1  0
  9  8  2  0
 10  9  1  0
 10 11  1  0
 11 12  2  0
 13  6  1  0
 13 21  1  0
 14 13  2  0
 16 18  1  0
 16 15  1  0
 17 16  2  0
 19 18  1  0
 20 21  1  0
 20 19  1  6
 22 20  1  0
 23 22  1  0
 24 22  2  0
M  END
$$$$
