GHQ.pdb
     RDKit          3D

 24 24  0  0  1  0  0  0  0  0999 V2000
   11.4818  -16.7395   15.0291 N   0  0  0  0  0  0  0  0  0  0  0  0
   11.0285  -17.7434   15.9463 C   0  0  0  0  0  0  0  0  0  0  0  0
   10.9317  -17.1418   17.2999 C   0  0  0  0  0  0  0  0  0  0  0  0
   11.9558  -16.7293   17.8767 O   0  0  0  0  0  0  0  0  0  0  0  0
    9.6755  -17.0164   17.9803 N   0  0  0  0  0  0  0  0  0  0  0  0
    9.5907  -16.4349   19.2929 C   0  0  1  0  0  0  0  0  0  0  0  0
    8.2153  -15.8767   19.5840 C   0  0  0  0  0  0  0  0  0  0  0  0
    7.7920  -14.8377   18.6548 C   0  0  0  0  0  0  0  0  0  0  0  0
    7.7077  -13.4941   18.9291 C   0  0  0  0  0  0  0  0  0  0  0  0
    7.2791  -12.8789   17.8115 N   0  0  0  0  0  0  0  0  0  0  0  0
    7.0921  -13.7918   16.8467 C   0  0  0  0  0  0  0  0  0  0  0  0
    7.4146  -15.0023   17.3854 N   0  0  0  0  0  0  0  0  0  0  0  0
   10.0278  -17.3843   20.3464 C   0  0  0  0  0  0  0  0  0  0  0  0
    9.7629  -18.5964   20.2180 O   0  0  0  0  0  0  0  0  0  0  0  0
   12.7731  -21.6977   22.5505 N   0  0  0  0  0  0  0  0  0  0  0  0
   13.5854  -20.7019   21.9914 C   0  0  0  0  0  0  0  0  0  0  0  0
   14.3693  -20.8864   21.0246 O   0  0  0  0  0  0  0  0  0  0  0  0
   13.5061  -19.3257   22.5952 C   0  0  0  0  0  0  0  0  0  0  0  0
   12.7481  -18.3927   21.7004 C   0  0  0  0  0  0  0  0  0  0  0  0
   11.5223  -17.8946   22.3400 C   0  0  2  0  0  0  0  0  0  0  0  0
   10.7372  -17.0019   21.5076 N   0  0  0  0  0  0  0  0  0  0  0  0
   11.8582  -17.1392   23.5627 C   0  0  0  0  0  0  0  0  0  0  0  0
   11.6877  -15.7360   23.5377 O   0  0  0  0  0  0  0  0  0  0  0  0
   12.2813  -17.5818   24.6370 O   0  0  0  0  0  0  0  0  0  0  0  0
  1  2  1  0
  3  2  1  0
  3  5  1  0
  4  3  2  0
  6  5  1  0
  6  7  1  1
  8 12  1  0
  8  7  1  0
  9  8  2  0
 10  9  1  0
 10 11  1  0
 11 12  2  0
 13  6  1  0
 13 21  1  0
 14 13  2  0
 16 18  1  0
 16 15  1  0
 17 16  2  0
 19 18  1  0
 20 21  1  0
 20 19  1  6
 22 20  1  0
 23 22  1  0
 24 22  2  0
M  END
$$$$
