GHQ.pdb
     RDKit          3D

 24 24  0  0  1  0  0  0  0  0999 V2000
    9.5408  -24.4937   17.5678 N   0  0  0  0  0  0  0  0  0  0  0  0
   10.1644  -23.9135   16.4149 C   0  0  0  0  0  0  0  0  0  0  0  0
   11.4350  -23.2707   16.8344 C   0  0  0  0  0  0  0  0  0  0  0  0
   12.5051  -23.9063   16.7832 O   0  0  0  0  0  0  0  0  0  0  0  0
   11.4744  -21.9169   17.3058 N   0  0  0  0  0  0  0  0  0  0  0  0
   12.7199  -21.2712   17.6224 C   0  0  1  0  0  0  0  0  0  0  0  0
   12.8259  -19.8959   17.0015 C   0  0  0  0  0  0  0  0  0  0  0  0
   13.0183  -19.9142   15.5577 C   0  0  0  0  0  0  0  0  0  0  0  0
   14.1924  -20.1972   14.9027 C   0  0  0  0  0  0  0  0  0  0  0  0
   13.9507  -20.1084   13.5817 N   0  0  0  0  0  0  0  0  0  0  0  0
   12.6649  -19.7794   13.3875 C   0  0  0  0  0  0  0  0  0  0  0  0
   12.0997  -19.6625   14.6229 N   0  0  0  0  0  0  0  0  0  0  0  0
   12.9633  -21.2288   19.0857 C   0  0  0  0  0  0  0  0  0  0  0  0
   12.1114  -20.6989   19.8268 O   0  0  0  0  0  0  0  0  0  0  0  0
   16.1167  -25.3881   22.4316 N   0  0  0  0  0  0  0  0  0  0  0  0
   15.6933  -24.5339   23.4588 C   0  0  0  0  0  0  0  0  0  0  0  0
   15.8715  -24.7563   24.6843 O   0  0  0  0  0  0  0  0  0  0  0  0
   14.9800  -23.2710   23.0574 C   0  0  0  0  0  0  0  0  0  0  0  0
   14.8595  -23.1764   21.5667 C   0  0  0  0  0  0  0  0  0  0  0  0
   14.3103  -21.8812   21.1421 C   0  0  2  0  0  0  0  0  0  0  0  0
   14.1162  -21.7580   19.7091 N   0  0  0  0  0  0  0  0  0  0  0  0
   15.2216  -20.7892   21.5362 C   0  0  0  0  0  0  0  0  0  0  0  0
   15.8287  -20.0339   20.5067 O   0  0  0  0  0  0  0  0  0  0  0  0
   15.5346  -20.4361   22.6792 O   0  0  0  0  0  0  0  0  0  0  0  0
  1  2  1  0
  3  2  1  0
  3  5  1  0
  4  3  2  0
  6  5  1  0
  6  7  1  1
  8 12  1  0
  8  7  1  0
  9  8  2  0
 10  9  1  0
 10 11  1  0
 11 12  2  0
 13  6  1  0
 13 21  1  0
 14 13  2  0
 16 18  1  0
 16 15  1  0
 17 16  2  0
 19 18  1  0
 20 21  1  0
 20 19  1  6
 22 20  1  0
 23 22  1  0
 24 22  2  0
M  END
$$$$
