GHQ.pdb
     RDKit          3D

 24 24  0  0  1  0  0  0  0  0999 V2000
   10.8933  -16.3477   14.9451 N   0  0  0  0  0  0  0  0  0  0  0  0
   10.5908  -17.0161   16.1765 C   0  0  0  0  0  0  0  0  0  0  0  0
   11.0054  -16.1450   17.3047 C   0  0  0  0  0  0  0  0  0  0  0  0
   12.0374  -15.4531   17.2153 O   0  0  0  0  0  0  0  0  0  0  0  0
   10.2444  -16.0706   18.5179 N   0  0  0  0  0  0  0  0  0  0  0  0
   10.6495  -15.2191   19.6038 C   0  0  1  0  0  0  0  0  0  0  0  0
    9.4712  -14.7200   20.4104 C   0  0  0  0  0  0  0  0  0  0  0  0
    8.4743  -14.0102   19.6201 C   0  0  0  0  0  0  0  0  0  0  0  0
    8.4777  -12.6665   19.3337 C   0  0  0  0  0  0  0  0  0  0  0  0
    7.3906  -12.4098   18.5830 N   0  0  0  0  0  0  0  0  0  0  0  0
    6.7065  -13.5473   18.3899 C   0  0  0  0  0  0  0  0  0  0  0  0
    7.3916  -14.5312   19.0395 N   0  0  0  0  0  0  0  0  0  0  0  0
   11.6642  -15.8718   20.4680 C   0  0  0  0  0  0  0  0  0  0  0  0
   11.4956  -17.0593   20.8101 O   0  0  0  0  0  0  0  0  0  0  0  0
   15.5125  -13.6024   19.3280 N   0  0  0  0  0  0  0  0  0  0  0  0
   16.1506  -14.8426   19.1918 C   0  0  0  0  0  0  0  0  0  0  0  0
   16.8215  -15.1878   18.1849 O   0  0  0  0  0  0  0  0  0  0  0  0
   16.0176  -15.8171   20.3309 C   0  0  0  0  0  0  0  0  0  0  0  0
   15.2284  -15.2191   21.4558 C   0  0  0  0  0  0  0  0  0  0  0  0
   13.9283  -15.8826   21.6267 C   0  0  2  0  0  0  0  0  0  0  0  0
   12.8309  -15.2276   20.9390 N   0  0  0  0  0  0  0  0  0  0  0  0
   13.5622  -15.9223   23.0559 C   0  0  0  0  0  0  0  0  0  0  0  0
   14.4402  -16.5868   23.9426 O   0  0  0  0  0  0  0  0  0  0  0  0
   12.5613  -15.4384   23.5975 O   0  0  0  0  0  0  0  0  0  0  0  0
  1  2  1  0
  3  2  1  0
  3  5  1  0
  4  3  2  0
  6  5  1  0
  6  7  1  1
  8 12  1  0
  8  7  1  0
  9  8  2  0
 10  9  1  0
 10 11  1  0
 11 12  2  0
 13  6  1  0
 13 21  1  0
 14 13  2  0
 16 18  1  0
 16 15  1  0
 17 16  2  0
 19 18  1  0
 20 21  1  0
 20 19  1  1
 22 20  1  0
 23 22  1  0
 24 22  2  0
M  END
$$$$
