GHQ.pdb
     RDKit          3D

 24 24  0  0  1  0  0  0  0  0999 V2000
   13.2161  -23.9137   17.9717 N   0  0  0  0  0  0  0  0  0  0  0  0
   12.2760  -24.3967   18.9398 C   0  0  0  0  0  0  0  0  0  0  0  0
   11.9788  -23.3045   19.9002 C   0  0  0  0  0  0  0  0  0  0  0  0
   12.5863  -22.2199   19.8227 O   0  0  0  0  0  0  0  0  0  0  0  0
   10.9973  -23.4574   20.9345 N   0  0  0  0  0  0  0  0  0  0  0  0
   10.7035  -22.3885   21.8507 C   0  0  1  0  0  0  0  0  0  0  0  0
    9.2260  -22.0688   21.9028 C   0  0  0  0  0  0  0  0  0  0  0  0
    8.6983  -21.5165   20.6624 C   0  0  0  0  0  0  0  0  0  0  0  0
    9.0569  -20.3177   20.0950 C   0  0  0  0  0  0  0  0  0  0  0  0
    8.3443  -20.1768   18.9620 N   0  0  0  0  0  0  0  0  0  0  0  0
    7.5517  -21.2468   18.8008 C   0  0  0  0  0  0  0  0  0  0  0  0
    7.7828  -22.0689   19.8639 N   0  0  0  0  0  0  0  0  0  0  0  0
   11.2515  -22.6553   23.2038 C   0  0  0  0  0  0  0  0  0  0  0  0
   11.0685  -23.7749   23.7221 O   0  0  0  0  0  0  0  0  0  0  0  0
   16.0913  -19.8022   25.7535 N   0  0  0  0  0  0  0  0  0  0  0  0
   16.2055  -20.9359   24.9376 C   0  0  0  0  0  0  0  0  0  0  0  0
   17.2628  -21.2831   24.3504 O   0  0  0  0  0  0  0  0  0  0  0  0
   14.9765  -21.7861   24.7597 C   0  0  0  0  0  0  0  0  0  0  0  0
   13.8145  -21.2084   25.5093 C   0  0  0  0  0  0  0  0  0  0  0  0
   12.5748  -21.9573   25.2606 C   0  0  2  0  0  0  0  0  0  0  0  0
   11.9805  -21.7094   23.9601 N   0  0  0  0  0  0  0  0  0  0  0  0
   11.5534  -21.5962   26.2630 C   0  0  0  0  0  0  0  0  0  0  0  0
   11.7175  -22.0892   27.5778 O   0  0  0  0  0  0  0  0  0  0  0  0
   10.5440  -20.9002   26.1023 O   0  0  0  0  0  0  0  0  0  0  0  0
  1  2  1  0
  3  2  1  0
  3  5  1  0
  4  3  2  0
  6  5  1  0
  6  7  1  1
  8 12  1  0
  8  7  1  0
  9  8  2  0
 10  9  1  0
 10 11  1  0
 11 12  2  0
 13  6  1  0
 13 21  1  0
 14 13  2  0
 16 18  1  0
 16 15  1  0
 17 16  2  0
 19 18  1  0
 20 21  1  0
 20 19  1  1
 22 20  1  0
 23 22  1  0
 24 22  2  0
M  END
$$$$
