GHQ.pdb
     RDKit          3D

 24 24  0  0  1  0  0  0  0  0999 V2000
   10.9411  -18.1843   18.6517 N   0  0  0  0  0  0  0  0  0  0  0  0
   10.1691  -18.5264   19.8099 C   0  0  0  0  0  0  0  0  0  0  0  0
   10.0161  -17.3151   20.6542 C   0  0  0  0  0  0  0  0  0  0  0  0
   11.0226  -16.7152   21.0771 O   0  0  0  0  0  0  0  0  0  0  0  0
    8.7247  -16.8013   21.0072 N   0  0  0  0  0  0  0  0  0  0  0  0
    8.5819  -15.7026   21.9242 C   0  0  1  0  0  0  0  0  0  0  0  0
    7.4130  -14.8100   21.5708 C   0  0  0  0  0  0  0  0  0  0  0  0
    7.4957  -14.2310   20.2366 C   0  0  0  0  0  0  0  0  0  0  0  0
    7.9760  -12.9817   19.9265 C   0  0  0  0  0  0  0  0  0  0  0  0
    7.8815  -12.8312   18.5925 N   0  0  0  0  0  0  0  0  0  0  0  0
    7.3582  -13.9440   18.0568 C   0  0  0  0  0  0  0  0  0  0  0  0
    7.1242  -14.8031   19.0896 N   0  0  0  0  0  0  0  0  0  0  0  0
    8.5084  -16.1650   23.3324 C   0  0  0  0  0  0  0  0  0  0  0  0
    7.9531  -17.2530   23.5850 O   0  0  0  0  0  0  0  0  0  0  0  0
   10.1987  -13.3021   29.3396 N   0  0  0  0  0  0  0  0  0  0  0  0
   10.3773  -14.6654   29.0684 C   0  0  0  0  0  0  0  0  0  0  0  0
   11.3296  -15.3576   29.5123 O   0  0  0  0  0  0  0  0  0  0  0  0
    9.3568  -15.3343   28.1875 C   0  0  0  0  0  0  0  0  0  0  0  0
    9.4900  -14.8705   26.7688 C   0  0  0  0  0  0  0  0  0  0  0  0
    8.9393  -15.8471   25.8187 C   0  0  2  0  0  0  0  0  0  0  0  0
    9.0344  -15.4433   24.4280 N   0  0  0  0  0  0  0  0  0  0  0  0
    7.5063  -16.0698   26.0925 C   0  0  0  0  0  0  0  0  0  0  0  0
    6.5734  -15.2250   25.4485 O   0  0  0  0  0  0  0  0  0  0  0  0
    6.9973  -16.9208   26.8313 O   0  0  0  0  0  0  0  0  0  0  0  0
  1  2  1  0
  3  2  1  0
  3  5  1  0
  4  3  2  0
  6  5  1  0
  6  7  1  6
  8 12  1  0
  8  7  1  0
  9  8  2  0
 10  9  1  0
 10 11  1  0
 11 12  2  0
 13  6  1  0
 13 21  1  0
 14 13  2  0
 16 18  1  0
 16 15  1  0
 17 16  2  0
 19 18  1  0
 20 21  1  0
 20 19  1  1
 22 20  1  0
 23 22  1  0
 24 22  2  0
M  END
$$$$
