GHQ.pdb
     RDKit          3D

 24 24  0  0  1  0  0  0  0  0999 V2000
    6.2559  -19.7948   14.9536 N   0  0  0  0  0  0  0  0  0  0  0  0
    6.1392  -19.8563   16.3809 C   0  0  0  0  0  0  0  0  0  0  0  0
    7.2293  -19.0478   16.9824 C   0  0  0  0  0  0  0  0  0  0  0  0
    8.4097  -19.4397   16.9155 O   0  0  0  0  0  0  0  0  0  0  0  0
    6.9656  -17.8069   17.6511 N   0  0  0  0  0  0  0  0  0  0  0  0
    8.0285  -17.0249   18.2228 C   0  0  1  0  0  0  0  0  0  0  0  0
    7.6970  -15.5495   18.2615 C   0  0  0  0  0  0  0  0  0  0  0  0
    7.7017  -14.9099   16.9527 C   0  0  0  0  0  0  0  0  0  0  0  0
    8.6421  -14.0208   16.4915 C   0  0  0  0  0  0  0  0  0  0  0  0
    8.2858  -13.6658   15.2432 N   0  0  0  0  0  0  0  0  0  0  0  0
    7.1541  -14.3025   14.9072 C   0  0  0  0  0  0  0  0  0  0  0  0
    6.8042  -15.0706   15.9782 N   0  0  0  0  0  0  0  0  0  0  0  0
    8.4268  -17.5292   19.5605 C   0  0  0  0  0  0  0  0  0  0  0  0
    7.6913  -17.2950   20.5403 O   0  0  0  0  0  0  0  0  0  0  0  0
    8.9772  -22.8354   21.6553 N   0  0  0  0  0  0  0  0  0  0  0  0
    9.2976  -22.4973   20.3335 C   0  0  0  0  0  0  0  0  0  0  0  0
    9.3437  -23.3200   19.3826 O   0  0  0  0  0  0  0  0  0  0  0  0
    9.6046  -21.0526   20.0447 C   0  0  0  0  0  0  0  0  0  0  0  0
    9.4815  -20.2220   21.2859 C   0  0  0  0  0  0  0  0  0  0  0  0
    9.9766  -18.8535   21.0812 C   0  0  2  0  0  0  0  0  0  0  0  0
    9.6049  -18.2709   19.8051 N   0  0  0  0  0  0  0  0  0  0  0  0
   11.4513  -18.8333   21.1367 C   0  0  0  0  0  0  0  0  0  0  0  0
   12.1475  -18.3838   19.9912 O   0  0  0  0  0  0  0  0  0  0  0  0
   12.1809  -19.1666   22.0778 O   0  0  0  0  0  0  0  0  0  0  0  0
  1  2  1  0
  3  2  1  0
  3  5  1  0
  4  3  2  0
  6  5  1  0
  6  7  1  1
  8 12  1  0
  8  7  1  0
  9  8  2  0
 10  9  1  0
 10 11  1  0
 11 12  2  0
 13  6  1  0
 13 21  1  0
 14 13  2  0
 16 18  1  0
 16 15  1  0
 17 16  2  0
 19 18  1  0
 20 21  1  0
 20 19  1  6
 22 20  1  0
 23 22  1  0
 24 22  2  0
M  END
$$$$
