GHQ.pdb
     RDKit          3D

 24 24  0  0  1  0  0  0  0  0999 V2000
   13.7158  -14.5212   18.4557 N   0  0  0  0  0  0  0  0  0  0  0  0
   13.3425  -15.6325   19.2804 C   0  0  0  0  0  0  0  0  0  0  0  0
   12.3842  -15.1594   20.3107 C   0  0  0  0  0  0  0  0  0  0  0  0
   12.6437  -14.1482   20.9901 O   0  0  0  0  0  0  0  0  0  0  0  0
   11.1456  -15.8393   20.5559 N   0  0  0  0  0  0  0  0  0  0  0  0
   10.2063  -15.3540   21.5310 C   0  0  1  0  0  0  0  0  0  0  0  0
    8.7765  -15.4528   21.0473 C   0  0  0  0  0  0  0  0  0  0  0  0
    8.4551  -14.5312   19.9659 C   0  0  0  0  0  0  0  0  0  0  0  0
    8.4763  -14.8223   18.6234 C   0  0  0  0  0  0  0  0  0  0  0  0
    8.1180  -13.7065   17.9615 N   0  0  0  0  0  0  0  0  0  0  0  0
    7.8732  -12.7267   18.8442 C   0  0  0  0  0  0  0  0  0  0  0  0
    8.0867  -13.2539   20.0835 N   0  0  0  0  0  0  0  0  0  0  0  0
   10.3839  -16.0178   22.8463 C   0  0  0  0  0  0  0  0  0  0  0  0
   10.8992  -17.1529   22.8879 O   0  0  0  0  0  0  0  0  0  0  0  0
    9.4412  -13.5140   28.6174 N   0  0  0  0  0  0  0  0  0  0  0  0
   10.1212  -14.6945   28.9463 C   0  0  0  0  0  0  0  0  0  0  0  0
   10.4686  -15.0107   30.1136 O   0  0  0  0  0  0  0  0  0  0  0  0
   10.4519  -15.6378   27.8214 C   0  0  0  0  0  0  0  0  0  0  0  0
   10.0585  -15.0515   26.4996 C   0  0  0  0  0  0  0  0  0  0  0  0
   10.3249  -15.9759   25.3886 C   0  0  2  0  0  0  0  0  0  0  0  0
   10.0017  -15.4409   24.0788 N   0  0  0  0  0  0  0  0  0  0  0  0
    9.5240  -17.2053   25.5476 C   0  0  0  0  0  0  0  0  0  0  0  0
   10.0248  -18.2115   26.4053 O   0  0  0  0  0  0  0  0  0  0  0  0
    8.4424  -17.4815   25.0157 O   0  0  0  0  0  0  0  0  0  0  0  0
  1  2  1  0
  3  2  1  0
  3  5  1  0
  4  3  2  0
  6  5  1  0
  6  7  1  6
  8 12  1  0
  8  7  1  0
  9  8  2  0
 10  9  1  0
 10 11  1  0
 11 12  2  0
 13  6  1  0
 13 21  1  0
 14 13  2  0
 16 18  1  0
 16 15  1  0
 17 16  2  0
 19 18  1  0
 20 21  1  0
 20 19  1  1
 22 20  1  0
 23 22  1  0
 24 22  2  0
M  END
$$$$
