GHQ.pdb
     RDKit          3D

 24 24  0  0  1  0  0  0  0  0999 V2000
    7.8612  -18.7827   19.4416 N   0  0  0  0  0  0  0  0  0  0  0  0
    7.2650  -18.6960   20.7421 C   0  0  0  0  0  0  0  0  0  0  0  0
    7.8243  -17.5134   21.4438 C   0  0  0  0  0  0  0  0  0  0  0  0
    9.0047  -17.5216   21.8415 O   0  0  0  0  0  0  0  0  0  0  0  0
    7.0377  -16.3388   21.6845 N   0  0  0  0  0  0  0  0  0  0  0  0
    7.5534  -15.2378   22.4526 C   0  0  1  0  0  0  0  0  0  0  0  0
    7.0893  -13.9005   21.9195 C   0  0  0  0  0  0  0  0  0  0  0  0
    7.5079  -13.6344   20.5498 C   0  0  0  0  0  0  0  0  0  0  0  0
    8.4630  -12.7275   20.1588 C   0  0  0  0  0  0  0  0  0  0  0  0
    8.5520  -12.7863   18.8172 N   0  0  0  0  0  0  0  0  0  0  0  0
    7.6849  -13.6994   18.3550 C   0  0  0  0  0  0  0  0  0  0  0  0
    7.0446  -14.2168   19.4421 N   0  0  0  0  0  0  0  0  0  0  0  0
    7.2502  -15.3833   23.8981 C   0  0  0  0  0  0  0  0  0  0  0  0
    6.0721  -15.2530   24.2865 O   0  0  0  0  0  0  0  0  0  0  0  0
    7.0757  -20.4801   25.0939 N   0  0  0  0  0  0  0  0  0  0  0  0
    7.1378  -20.1983   26.4653 C   0  0  0  0  0  0  0  0  0  0  0  0
    6.9193  -21.0419   27.3729 O   0  0  0  0  0  0  0  0  0  0  0  0
    7.4896  -18.7911   26.8665 C   0  0  0  0  0  0  0  0  0  0  0  0
    7.5947  -17.9034   25.6638 C   0  0  0  0  0  0  0  0  0  0  0  0
    8.0320  -16.5464   26.0204 C   0  0  2  0  0  0  0  0  0  0  0  0
    8.2235  -15.6648   24.8837 N   0  0  0  0  0  0  0  0  0  0  0  0
    9.3245  -16.5996   26.7310 C   0  0  0  0  0  0  0  0  0  0  0  0
    9.3010  -16.8393   28.1241 O   0  0  0  0  0  0  0  0  0  0  0  0
   10.4581  -16.4583   26.2576 O   0  0  0  0  0  0  0  0  0  0  0  0
  1  2  1  0
  3  2  1  0
  3  5  1  0
  4  3  2  0
  6  5  1  0
  6  7  1  6
  8 12  1  0
  8  7  1  0
  9  8  2  0
 10  9  1  0
 10 11  1  0
 11 12  2  0
 13  6  1  0
 13 21  1  0
 14 13  2  0
 16 18  1  0
 16 15  1  0
 17 16  2  0
 19 18  1  0
 20 21  1  0
 20 19  1  6
 22 20  1  0
 23 22  1  0
 24 22  2  0
M  END
$$$$
