GHQ.pdb
     RDKit          3D

 24 24  0  0  1  0  0  0  0  0999 V2000
    4.9696  -19.3092   22.5101 N   0  0  0  0  0  0  0  0  0  0  0  0
    4.9199  -17.9410   22.9345 C   0  0  0  0  0  0  0  0  0  0  0  0
    6.1220  -17.2392   22.4190 C   0  0  0  0  0  0  0  0  0  0  0  0
    7.0205  -17.8789   21.8399 O   0  0  0  0  0  0  0  0  0  0  0  0
    6.2886  -15.8226   22.5672 N   0  0  0  0  0  0  0  0  0  0  0  0
    7.5223  -15.1736   22.2135 C   0  0  1  0  0  0  0  0  0  0  0  0
    7.2976  -13.7987   21.6242 C   0  0  0  0  0  0  0  0  0  0  0  0
    7.5186  -13.7305   20.1860 C   0  0  0  0  0  0  0  0  0  0  0  0
    8.3180  -12.8232   19.5337 C   0  0  0  0  0  0  0  0  0  0  0  0
    8.2516  -13.0977   18.2178 N   0  0  0  0  0  0  0  0  0  0  0  0
    7.4376  -14.1461   18.0241 C   0  0  0  0  0  0  0  0  0  0  0  0
    6.9908  -14.5274   19.2547 N   0  0  0  0  0  0  0  0  0  0  0  0
    8.4695  -15.1290   23.3551 C   0  0  0  0  0  0  0  0  0  0  0  0
    8.0612  -14.7372   24.4667 O   0  0  0  0  0  0  0  0  0  0  0  0
   10.1068  -15.9923   28.2521 N   0  0  0  0  0  0  0  0  0  0  0  0
   10.6583  -17.1638   27.7157 C   0  0  0  0  0  0  0  0  0  0  0  0
   10.6371  -18.2840   28.2884 O   0  0  0  0  0  0  0  0  0  0  0  0
   11.3161  -17.0629   26.3660 C   0  0  0  0  0  0  0  0  0  0  0  0
   10.3004  -16.8046   25.2948 C   0  0  0  0  0  0  0  0  0  0  0  0
   10.7135  -15.7154   24.3989 C   0  0  2  0  0  0  0  0  0  0  0  0
    9.8286  -15.5075   23.2676 N   0  0  0  0  0  0  0  0  0  0  0  0
   12.0495  -15.9974   23.8387 C   0  0  0  0  0  0  0  0  0  0  0  0
   13.1582  -15.9296   24.7132 O   0  0  0  0  0  0  0  0  0  0  0  0
   12.3375  -16.2935   22.6732 O   0  0  0  0  0  0  0  0  0  0  0  0
  1  2  1  0
  3  2  1  0
  3  5  1  0
  4  3  2  0
  6  5  1  0
  6  7  1  1
  8 12  1  0
  8  7  1  0
  9  8  2  0
 10  9  1  0
 10 11  1  0
 11 12  2  0
 13  6  1  0
 13 21  1  0
 14 13  2  0
 16 18  1  0
 16 15  1  0
 17 16  2  0
 19 18  1  0
 20 21  1  0
 20 19  1  6
 22 20  1  0
 23 22  1  0
 24 22  2  0
M  END
$$$$
