ELM.pdb
     RDKit          3D

 26 25  0  0  1  0  0  0  0  0999 V2000
    8.1504  -19.7482   21.5209 N   0  0  0  0  0  0  0  0  0  0  0  0
    9.3006  -19.3336   20.7830 C   0  0  1  0  0  0  0  0  0  0  0  0
    9.3787  -19.9178   19.4118 C   0  0  0  0  0  0  0  0  0  0  0  0
    8.1399  -19.7879   18.6037 C   0  0  0  0  0  0  0  0  0  0  0  0
    8.1100  -20.4090   17.2889 C   0  0  0  0  0  0  0  0  0  0  0  0
    8.9001  -20.1000   16.3691 O   0  0  0  0  0  0  0  0  0  0  0  0
    9.5151  -17.8585   20.7545 C   0  0  0  0  0  0  0  0  0  0  0  0
   10.6921  -17.4179   20.5157 O   0  0  0  0  0  0  0  0  0  0  0  0
    7.1452  -21.4150   17.0198 O   0  0  0  0  0  0  0  0  0  0  0  0
    8.8949  -12.7872   19.5738 C   0  0  0  0  0  0  0  0  0  0  0  0
    8.1146  -13.1326   20.8474 C   0  0  1  0  0  0  0  0  0  0  0  0
    6.8629  -12.2300   20.8935 C   0  0  0  0  0  0  0  0  0  0  0  0
    7.7176  -14.5756   20.8673 C   0  0  0  0  0  0  0  0  0  0  0  0
    8.8969  -15.4489   21.1152 C   0  0  2  0  0  0  0  0  0  0  0  0
    8.5352  -16.8717   20.9665 N   0  0  0  0  0  0  0  0  0  0  0  0
    9.4444  -15.2786   22.4937 C   0  0  0  0  0  0  0  0  0  0  0  0
   10.6104  -14.8851   22.7408 O   0  0  0  0  0  0  0  0  0  0  0  0
    6.6490  -11.1422   26.1655 C   0  0  0  0  0  0  0  0  0  0  0  0
    6.7800  -12.5025   27.3610 S   0  0  0  0  0  0  0  0  0  0  0  0
    8.1454  -13.6083   26.8214 C   0  0  0  0  0  0  0  0  0  0  0  0
    7.8162  -14.2304   25.4989 C   0  0  0  0  0  0  0  0  0  0  0  0
    8.9663  -15.0461   24.9819 C   0  0  2  0  0  0  0  0  0  0  0  0
    8.6469  -15.5623   23.6451 N   0  0  0  0  0  0  0  0  0  0  0  0
    9.3375  -16.1049   25.8942 C   0  0  0  0  0  0  0  0  0  0  0  0
    9.3527  -17.4302   25.5759 O   0  0  0  0  0  0  0  0  0  0  0  0
    9.6754  -15.8000   27.0902 O   0  0  0  0  0  0  0  0  0  0  0  0
  2  1  1  6
  3  2  1  0
  4  3  1  0
  5  6  2  0
  5  4  1  0
  7  2  1  0
  7  8  2  0
  9  5  1  0
 11 10  1  6
 12 11  1  0
 14 13  1  1
 13 11  1  0
 14 15  1  0
 15  7  1  0
 16 14  1  0
 17 16  2  0
 19 18  1  0
 19 20  1  0
 20 21  1  0
 22 21  1  1
 22 24  1  0
 22 23  1  0
 23 16  1  0
 24 25  1  0
 26 24  2  0
M  END
$$$$
