ELM.pdb
     RDKit          3D

 26 25  0  0  1  0  0  0  0  0999 V2000
    8.1061  -18.6222   20.5804 N   0  0  0  0  0  0  0  0  0  0  0  0
    9.3583  -17.9388   20.6474 C   0  0  1  0  0  0  0  0  0  0  0  0
    9.8922  -17.5290   19.3153 C   0  0  0  0  0  0  0  0  0  0  0  0
   11.0627  -18.3104   18.8418 C   0  0  0  0  0  0  0  0  0  0  0  0
   12.1810  -17.5860   18.2590 C   0  0  0  0  0  0  0  0  0  0  0  0
   12.0983  -16.9515   17.1836 O   0  0  0  0  0  0  0  0  0  0  0  0
    9.3897  -16.8043   21.6141 C   0  0  0  0  0  0  0  0  0  0  0  0
   10.5100  -16.2322   21.8468 O   0  0  0  0  0  0  0  0  0  0  0  0
   13.4326  -17.5886   18.9289 O   0  0  0  0  0  0  0  0  0  0  0  0
    7.3210  -12.6590   24.3195 C   0  0  0  0  0  0  0  0  0  0  0  0
    7.2957  -13.9720   25.1106 C   0  0  1  0  0  0  0  0  0  0  0  0
    6.0695  -13.9349   26.0478 C   0  0  0  0  0  0  0  0  0  0  0  0
    7.2183  -15.1554   24.1975 C   0  0  0  0  0  0  0  0  0  0  0  0
    8.4685  -15.2974   23.4027 C   0  0  2  0  0  0  0  0  0  0  0  0
    8.2894  -16.2797   22.3162 N   0  0  0  0  0  0  0  0  0  0  0  0
    9.6146  -15.7699   24.2349 C   0  0  0  0  0  0  0  0  0  0  0  0
   10.7998  -15.3886   24.0759 O   0  0  0  0  0  0  0  0  0  0  0  0
   10.5788  -12.6337   28.3405 C   0  0  0  0  0  0  0  0  0  0  0  0
   10.8022  -14.0267   29.4835 S   0  0  0  0  0  0  0  0  0  0  0  0
   11.0369  -15.5526   28.4862 C   0  0  0  0  0  0  0  0  0  0  0  0
   10.0896  -15.5638   27.3256 C   0  0  0  0  0  0  0  0  0  0  0  0
   10.2962  -16.7795   26.4686 C   0  0  2  0  0  0  0  0  0  0  0  0
    9.4205  -16.7115   25.2921 N   0  0  0  0  0  0  0  0  0  0  0  0
   10.1093  -18.0072   27.2096 C   0  0  0  0  0  0  0  0  0  0  0  0
   11.0820  -18.6286   27.9347 O   0  0  0  0  0  0  0  0  0  0  0  0
    8.9599  -18.5692   27.1947 O   0  0  0  0  0  0  0  0  0  0  0  0
  2  1  1  6
  3  2  1  0
  4  3  1  0
  5  6  2  0
  5  4  1  0
  7  2  1  0
  7  8  2  0
  9  5  1  0
 11 10  1  6
 12 11  1  0
 14 13  1  1
 13 11  1  0
 14 15  1  0
 15  7  1  0
 16 14  1  0
 17 16  2  0
 19 18  1  0
 19 20  1  0
 20 21  1  0
 22 21  1  1
 22 24  1  0
 22 23  1  0
 23 16  1  0
 24 25  1  0
 26 24  2  0
M  END
$$$$
