ELM.pdb
     RDKit          3D

 26 25  0  0  1  0  0  0  0  0999 V2000
    7.9490  -18.7076   20.9853 N   0  0  0  0  0  0  0  0  0  0  0  0
    9.1547  -17.9513   20.8682 C   0  0  1  0  0  0  0  0  0  0  0  0
    9.4809  -17.5520   19.4675 C   0  0  0  0  0  0  0  0  0  0  0  0
    8.4600  -17.9246   18.4557 C   0  0  0  0  0  0  0  0  0  0  0  0
    8.6730  -17.5052   17.0795 C   0  0  0  0  0  0  0  0  0  0  0  0
    9.4171  -18.1219   16.2846 O   0  0  0  0  0  0  0  0  0  0  0  0
    9.2445  -16.7881   21.7962 C   0  0  0  0  0  0  0  0  0  0  0  0
   10.3222  -16.0989   21.8078 O   0  0  0  0  0  0  0  0  0  0  0  0
    8.0133  -16.3435   16.5994 O   0  0  0  0  0  0  0  0  0  0  0  0
    7.4493  -12.4787   24.3750 C   0  0  0  0  0  0  0  0  0  0  0  0
    7.4300  -13.7306   25.2597 C   0  0  1  0  0  0  0  0  0  0  0  0
    6.2609  -13.5855   26.2574 C   0  0  0  0  0  0  0  0  0  0  0  0
    7.2653  -14.9726   24.4408 C   0  0  0  0  0  0  0  0  0  0  0  0
    8.4701  -15.2219   23.6034 C   0  0  2  0  0  0  0  0  0  0  0  0
    8.2436  -16.3538   22.6842 N   0  0  0  0  0  0  0  0  0  0  0  0
    9.6686  -15.5604   24.4269 C   0  0  0  0  0  0  0  0  0  0  0  0
   10.7320  -14.8936   24.4235 O   0  0  0  0  0  0  0  0  0  0  0  0
   10.3705  -12.9078   28.5076 C   0  0  0  0  0  0  0  0  0  0  0  0
   11.3475  -14.1175   29.4450 S   0  0  0  0  0  0  0  0  0  0  0  0
   11.3769  -15.6895   28.4932 C   0  0  0  0  0  0  0  0  0  0  0  0
   10.4955  -15.5811   27.2866 C   0  0  0  0  0  0  0  0  0  0  0  0
   10.5774  -16.8201   26.4420 C   0  0  2  0  0  0  0  0  0  0  0  0
    9.6724  -16.6974   25.2925 N   0  0  0  0  0  0  0  0  0  0  0  0
   10.3179  -18.0196   27.2069 C   0  0  0  0  0  0  0  0  0  0  0  0
   11.1967  -18.5832   28.0834 O   0  0  0  0  0  0  0  0  0  0  0  0
    9.1929  -18.6122   27.0643 O   0  0  0  0  0  0  0  0  0  0  0  0
  2  1  1  6
  3  2  1  0
  4  3  1  0
  5  6  2  0
  5  4  1  0
  7  2  1  0
  7  8  2  0
  9  5  1  0
 11 10  1  6
 12 11  1  0
 14 13  1  1
 13 11  1  0
 14 15  1  0
 15  7  1  0
 16 14  1  0
 17 16  2  0
 19 18  1  0
 19 20  1  0
 20 21  1  0
 22 21  1  1
 22 24  1  0
 22 23  1  0
 23 16  1  0
 24 25  1  0
 26 24  2  0
M  END
$$$$
