ELM.pdb
     RDKit          3D

 26 25  0  0  1  0  0  0  0  0999 V2000
    7.5616  -18.8402   20.1596 N   0  0  0  0  0  0  0  0  0  0  0  0
    8.9854  -18.8421   20.0489 C   0  0  1  0  0  0  0  0  0  0  0  0
    9.4831  -19.2253   18.6949 C   0  0  0  0  0  0  0  0  0  0  0  0
    8.6193  -20.1812   17.9570 C   0  0  0  0  0  0  0  0  0  0  0  0
    9.0338  -20.5936   16.6253 C   0  0  0  0  0  0  0  0  0  0  0  0
    8.3527  -20.3738   15.5989 O   0  0  0  0  0  0  0  0  0  0  0  0
    9.6423  -17.5943   20.5326 C   0  0  0  0  0  0  0  0  0  0  0  0
   10.9191  -17.5668   20.6069 O   0  0  0  0  0  0  0  0  0  0  0  0
   10.2667  -21.2788   16.4648 O   0  0  0  0  0  0  0  0  0  0  0  0
    7.3823  -12.3774   20.1328 C   0  0  0  0  0  0  0  0  0  0  0  0
    7.9556  -13.5102   20.9921 C   0  0  1  0  0  0  0  0  0  0  0  0
    6.8954  -14.6301   21.0651 C   0  0  0  0  0  0  0  0  0  0  0  0
    9.2320  -14.0377   20.4153 C   0  0  0  0  0  0  0  0  0  0  0  0
    9.7483  -15.1786   21.2193 C   0  0  2  0  0  0  0  0  0  0  0  0
    8.9914  -16.4109   20.9258 N   0  0  0  0  0  0  0  0  0  0  0  0
    9.6307  -14.9324   22.6872 C   0  0  0  0  0  0  0  0  0  0  0  0
   10.2168  -14.0007   23.2904 O   0  0  0  0  0  0  0  0  0  0  0  0
    7.3688  -11.7435   27.6668 C   0  0  0  0  0  0  0  0  0  0  0  0
    6.2569  -12.9750   26.9294 S   0  0  0  0  0  0  0  0  0  0  0  0
    7.2081  -14.5278   26.6806 C   0  0  0  0  0  0  0  0  0  0  0  0
    7.3868  -14.7971   25.2178 C   0  0  0  0  0  0  0  0  0  0  0  0
    8.6597  -15.5500   24.9564 C   0  0  2  0  0  0  0  0  0  0  0  0
    8.8188  -15.7692   23.5134 N   0  0  0  0  0  0  0  0  0  0  0  0
    8.7233  -16.7885   25.7002 C   0  0  0  0  0  0  0  0  0  0  0  0
    8.9013  -18.0185   25.1405 O   0  0  0  0  0  0  0  0  0  0  0  0
    8.6027  -16.7515   26.9736 O   0  0  0  0  0  0  0  0  0  0  0  0
  2  1  1  6
  3  2  1  0
  4  3  1  0
  5  6  2  0
  5  4  1  0
  7  2  1  0
  7  8  2  0
  9  5  1  0
 11 10  1  6
 12 11  1  0
 14 13  1  6
 13 11  1  0
 14 15  1  0
 15  7  1  0
 16 14  1  0
 17 16  2  0
 19 18  1  0
 19 20  1  0
 20 21  1  0
 22 21  1  6
 22 24  1  0
 22 23  1  0
 23 16  1  0
 24 25  1  0
 26 24  2  0
M  END
$$$$
