FEA.pdb
     RDKit          3D

 26 26  0  0  1  0  0  0  0  0999 V2000
    5.5832  -16.3690   24.8377 N   0  0  0  0  0  0  0  0  0  0  0  0
    6.7131  -16.0513   24.0269 C   0  0  1  0  0  0  0  0  0  0  0  0
    6.7765  -14.5935   23.6958 C   0  0  0  0  0  0  0  0  0  0  0  0
    6.8253  -13.6929   24.8418 C   0  0  0  0  0  0  0  0  0  0  0  0
    8.0023  -13.1118   25.2385 C   0  0  0  0  0  0  0  0  0  0  0  0
    8.0448  -12.2673   26.3302 C   0  0  0  0  0  0  0  0  0  0  0  0
    6.8757  -12.0015   27.0383 C   0  0  0  0  0  0  0  0  0  0  0  0
    5.6726  -12.5792   26.6547 C   0  0  0  0  0  0  0  0  0  0  0  0
    5.6797  -13.4198   25.5526 C   0  0  0  0  0  0  0  0  0  0  0  0
    7.9899  -16.4007   24.7032 C   0  0  0  0  0  0  0  0  0  0  0  0
    7.9986  -16.6551   25.9293 O   0  0  0  0  0  0  0  0  0  0  0  0
    9.2147  -16.4600   24.0138 N   0  0  0  0  0  0  0  0  0  0  0  0
   10.3667  -17.0245   24.6208 C   0  0  1  0  0  0  0  0  0  0  0  0
   11.4466  -17.1573   23.5726 C   0  0  0  0  0  0  0  0  0  0  0  0
   12.5889  -18.0032   24.1366 C   0  0  0  0  0  0  0  0  0  0  0  0
   13.6242  -18.1623   23.0992 C   0  0  0  0  0  0  0  0  0  0  0  0
   14.8282  -18.3154   23.4458 O   0  0  0  0  0  0  0  0  0  0  0  0
   10.9413  -16.2300   25.7291 C   0  0  0  0  0  0  0  0  0  0  0  0
   11.6910  -15.2537   25.5282 O   0  0  0  0  0  0  0  0  0  0  0  0
   13.3549  -18.1565   21.7270 O   0  0  0  0  0  0  0  0  0  0  0  0
   10.1957  -14.8948   28.6695 C   0  0  0  0  0  0  0  0  0  0  0  0
   11.2729  -15.8526   28.1444 C   0  0  2  0  0  0  0  0  0  0  0  0
   10.6342  -16.5811   27.0647 N   0  0  0  0  0  0  0  0  0  0  0  0
   11.7276  -16.7672   29.1951 C   0  0  0  0  0  0  0  0  0  0  0  0
   12.4291  -16.3139   30.3082 O   0  0  0  0  0  0  0  0  0  0  0  0
   11.4682  -17.9972   29.0759 O   0  0  0  0  0  0  0  0  0  0  0  0
  2  1  1  1
  3  2  1  0
  4  9  2  0
  4  3  1  0
  5  4  1  0
  6  7  1  0
  6  5  2  0
  7  8  2  0
  8  9  1  0
 10 12  1  0
 10  2  1  0
 11 10  2  0
 13 12  1  0
 13 14  1  6
 14 15  1  0
 15 16  1  0
 16 17  2  0
 18 13  1  0
 19 18  2  0
 20 16  1  0
 22 21  1  1
 22 24  1  0
 22 23  1  0
 23 18  1  0
 24 25  1  0
 26 24  2  0
M  END
$$$$
