FEA.pdb
     RDKit          3D

 26 26  0  0  1  0  0  0  0  0999 V2000
    5.8491  -16.6585   25.0703 N   0  0  0  0  0  0  0  0  0  0  0  0
    6.8674  -16.4011   24.1051 C   0  0  1  0  0  0  0  0  0  0  0  0
    6.8310  -14.9893   23.6108 C   0  0  0  0  0  0  0  0  0  0  0  0
    6.8986  -13.9625   24.6441 C   0  0  0  0  0  0  0  0  0  0  0  0
    5.7894  -13.6121   25.3704 C   0  0  0  0  0  0  0  0  0  0  0  0
    5.8566  -12.6325   26.3412 C   0  0  0  0  0  0  0  0  0  0  0  0
    7.0680  -11.9913   26.5868 C   0  0  0  0  0  0  0  0  0  0  0  0
    8.2039  -12.3298   25.8632 C   0  0  0  0  0  0  0  0  0  0  0  0
    8.0873  -13.3191   24.8994 C   0  0  0  0  0  0  0  0  0  0  0  0
    8.2251  -16.6325   24.6642 C   0  0  0  0  0  0  0  0  0  0  0  0
    8.3545  -17.0840   25.8250 O   0  0  0  0  0  0  0  0  0  0  0  0
    9.3960  -16.3617   23.9331 N   0  0  0  0  0  0  0  0  0  0  0  0
   10.6611  -16.8179   24.3868 C   0  0  1  0  0  0  0  0  0  0  0  0
   11.6807  -16.5674   23.3004 C   0  0  0  0  0  0  0  0  0  0  0  0
   11.2685  -17.3330   22.0424 C   0  0  0  0  0  0  0  0  0  0  0  0
   12.4722  -17.6214   21.2416 C   0  0  0  0  0  0  0  0  0  0  0  0
   13.2568  -16.6788   20.9434 O   0  0  0  0  0  0  0  0  0  0  0  0
   11.1642  -16.1508   25.6081 C   0  0  0  0  0  0  0  0  0  0  0  0
   12.1285  -15.3602   25.5846 O   0  0  0  0  0  0  0  0  0  0  0  0
   12.8108  -18.8980   20.7821 O   0  0  0  0  0  0  0  0  0  0  0  0
   10.0089  -14.6447   28.3363 C   0  0  0  0  0  0  0  0  0  0  0  0
   11.0332  -15.7473   28.0384 C   0  0  2  0  0  0  0  0  0  0  0  0
   10.5354  -16.4111   26.8484 N   0  0  0  0  0  0  0  0  0  0  0  0
   11.1400  -16.6884   29.1563 C   0  0  0  0  0  0  0  0  0  0  0  0
   11.6491  -16.3031   30.3927 O   0  0  0  0  0  0  0  0  0  0  0  0
   10.7549  -17.8781   28.9803 O   0  0  0  0  0  0  0  0  0  0  0  0
  2  1  1  1
  3  2  1  0
  4  9  2  0
  4  3  1  0
  5  4  1  0
  6  7  1  0
  6  5  2  0
  7  8  2  0
  8  9  1  0
 10 12  1  0
 10  2  1  0
 11 10  2  0
 13 12  1  0
 13 14  1  6
 14 15  1  0
 15 16  1  0
 16 17  2  0
 18 13  1  0
 19 18  2  0
 20 16  1  0
 22 21  1  1
 22 24  1  0
 22 23  1  0
 23 18  1  0
 24 25  1  0
 26 24  2  0
M  END
$$$$
