FEA.pdb
     RDKit          3D

 26 26  0  0  1  0  0  0  0  0999 V2000
    6.0071  -16.7427   22.4609 N   0  0  0  0  0  0  0  0  0  0  0  0
    6.7542  -15.7889   23.2138 C   0  0  1  0  0  0  0  0  0  0  0  0
    5.9415  -15.1755   24.3102 C   0  0  0  0  0  0  0  0  0  0  0  0
    6.5864  -14.0846   25.0318 C   0  0  0  0  0  0  0  0  0  0  0  0
    6.7104  -12.8388   24.4723 C   0  0  0  0  0  0  0  0  0  0  0  0
    7.3304  -11.8117   25.1561 C   0  0  0  0  0  0  0  0  0  0  0  0
    7.8366  -12.0440   26.4323 C   0  0  0  0  0  0  0  0  0  0  0  0
    7.7225  -13.2978   27.0183 C   0  0  0  0  0  0  0  0  0  0  0  0
    7.0922  -14.2969   26.2934 C   0  0  0  0  0  0  0  0  0  0  0  0
    7.9489  -16.4046   23.8487 C   0  0  0  0  0  0  0  0  0  0  0  0
    7.8302  -17.4600   24.5120 O   0  0  0  0  0  0  0  0  0  0  0  0
    9.2340  -15.8437   23.7358 N   0  0  0  0  0  0  0  0  0  0  0  0
   10.3715  -16.5162   24.2536 C   0  0  1  0  0  0  0  0  0  0  0  0
   11.4871  -16.4260   23.2389 C   0  0  0  0  0  0  0  0  0  0  0  0
   12.7046  -17.1866   23.7661 C   0  0  0  0  0  0  0  0  0  0  0  0
   13.7478  -17.2011   22.7246 C   0  0  0  0  0  0  0  0  0  0  0  0
   14.7893  -17.8916   22.9024 O   0  0  0  0  0  0  0  0  0  0  0  0
   10.8999  -15.9643   25.5210 C   0  0  0  0  0  0  0  0  0  0  0  0
   11.7218  -15.0266   25.5462 O   0  0  0  0  0  0  0  0  0  0  0  0
   13.6574  -16.4868   21.5258 O   0  0  0  0  0  0  0  0  0  0  0  0
   10.0969  -15.0457   28.5750 C   0  0  0  0  0  0  0  0  0  0  0  0
   11.0848  -16.0569   27.9793 C   0  0  2  0  0  0  0  0  0  0  0  0
   10.4625  -16.5112   26.7502 N   0  0  0  0  0  0  0  0  0  0  0  0
   11.3136  -17.1777   28.8949 C   0  0  0  0  0  0  0  0  0  0  0  0
   11.9988  -17.0155   30.0952 O   0  0  0  0  0  0  0  0  0  0  0  0
   10.8708  -18.3162   28.5750 O   0  0  0  0  0  0  0  0  0  0  0  0
  2  1  1  1
  3  2  1  0
  4  9  2  0
  4  3  1  0
  5  4  1  0
  6  7  1  0
  6  5  2  0
  7  8  2  0
  8  9  1  0
 10 12  1  0
 10  2  1  0
 11 10  2  0
 13 12  1  0
 13 14  1  6
 14 15  1  0
 15 16  1  0
 16 17  2  0
 18 13  1  0
 19 18  2  0
 20 16  1  0
 22 21  1  1
 22 24  1  0
 22 23  1  0
 23 18  1  0
 24 25  1  0
 26 24  2  0
M  END
$$$$
