FEA.pdb
     RDKit          3D

 26 26  0  0  1  0  0  0  0  0999 V2000
    7.3231  -17.0956   18.4787 N   0  0  0  0  0  0  0  0  0  0  0  0
    7.8176  -16.1990   19.4719 C   0  0  1  0  0  0  0  0  0  0  0  0
    6.7931  -15.1866   19.8770 C   0  0  0  0  0  0  0  0  0  0  0  0
    7.2000  -14.2755   20.9406 C   0  0  0  0  0  0  0  0  0  0  0  0
    6.9454  -14.5623   22.2572 C   0  0  0  0  0  0  0  0  0  0  0  0
    7.3243  -13.6918   23.2597 C   0  0  0  0  0  0  0  0  0  0  0  0
    7.9747  -12.5056   22.9295 C   0  0  0  0  0  0  0  0  0  0  0  0
    8.2425  -12.1946   21.6029 C   0  0  0  0  0  0  0  0  0  0  0  0
    7.8433  -13.0994   20.6318 C   0  0  0  0  0  0  0  0  0  0  0  0
    8.2304  -16.9192   20.7051 C   0  0  0  0  0  0  0  0  0  0  0  0
    7.4855  -17.7989   21.1942 O   0  0  0  0  0  0  0  0  0  0  0  0
    9.4454  -16.6516   21.3615 N   0  0  0  0  0  0  0  0  0  0  0  0
    9.9099  -17.4913   22.4073 C   0  0  1  0  0  0  0  0  0  0  0  0
   11.4132  -17.6007   22.3047 C   0  0  0  0  0  0  0  0  0  0  0  0
   12.0258  -16.2059   22.4391 C   0  0  0  0  0  0  0  0  0  0  0  0
   13.4833  -16.3019   22.2392 C   0  0  0  0  0  0  0  0  0  0  0  0
   13.9893  -17.4074   21.9000 O   0  0  0  0  0  0  0  0  0  0  0  0
    9.6079  -17.0115   23.7741 C   0  0  0  0  0  0  0  0  0  0  0  0
    9.8144  -15.8329   24.1258 O   0  0  0  0  0  0  0  0  0  0  0  0
   14.3613  -15.2258   22.4022 O   0  0  0  0  0  0  0  0  0  0  0  0
    7.3573  -18.0012   26.3597 C   0  0  0  0  0  0  0  0  0  0  0  0
    8.7440  -17.4239   26.0479 C   0  0  2  0  0  0  0  0  0  0  0  0
    9.0646  -17.9124   24.7201 N   0  0  0  0  0  0  0  0  0  0  0  0
    9.7383  -17.8746   27.0251 C   0  0  0  0  0  0  0  0  0  0  0  0
    9.7154  -17.4412   28.3473 O   0  0  0  0  0  0  0  0  0  0  0  0
   10.6343  -18.6792   26.6448 O   0  0  0  0  0  0  0  0  0  0  0  0
  2  1  1  6
  3  2  1  0
  4  9  2  0
  4  3  1  0
  5  4  1  0
  6  7  1  0
  6  5  2  0
  7  8  2  0
  8  9  1  0
 10 12  1  0
 10  2  1  0
 11 10  2  0
 13 12  1  0
 13 14  1  1
 14 15  1  0
 15 16  1  0
 16 17  2  0
 18 13  1  0
 19 18  2  0
 20 16  1  0
 22 21  1  1
 22 24  1  0
 22 23  1  0
 23 18  1  0
 24 25  1  0
 26 24  2  0
M  END
$$$$
