FEA.pdb
     RDKit          3D

 26 26  0  0  1  0  0  0  0  0999 V2000
    5.9378  -16.2312   25.2388 N   0  0  0  0  0  0  0  0  0  0  0  0
    7.2037  -15.6691   24.8977 C   0  0  1  0  0  0  0  0  0  0  0  0
    7.6254  -14.6049   25.8612 C   0  0  0  0  0  0  0  0  0  0  0  0
    6.9116  -13.3384   25.7466 C   0  0  0  0  0  0  0  0  0  0  0  0
    5.8884  -13.0201   26.6023 C   0  0  0  0  0  0  0  0  0  0  0  0
    5.2095  -11.8236   26.4834 C   0  0  0  0  0  0  0  0  0  0  0  0
    5.5690  -10.9270   25.4805 C   0  0  0  0  0  0  0  0  0  0  0  0
    6.6017  -11.2286   24.6026 C   0  0  0  0  0  0  0  0  0  0  0  0
    7.2538  -12.4413   24.7614 C   0  0  0  0  0  0  0  0  0  0  0  0
    8.2765  -16.6980   24.8875 C   0  0  0  0  0  0  0  0  0  0  0  0
    8.2561  -17.6307   25.7227 O   0  0  0  0  0  0  0  0  0  0  0  0
    9.3360  -16.6710   23.9625 N   0  0  0  0  0  0  0  0  0  0  0  0
   10.5420  -17.3756   24.2140 C   0  0  1  0  0  0  0  0  0  0  0  0
   11.4779  -17.1591   23.0479 C   0  0  0  0  0  0  0  0  0  0  0  0
   12.7067  -18.0529   23.2210 C   0  0  0  0  0  0  0  0  0  0  0  0
   13.5601  -17.9303   22.0252 C   0  0  0  0  0  0  0  0  0  0  0  0
   13.8777  -18.9695   21.3832 O   0  0  0  0  0  0  0  0  0  0  0  0
   11.2698  -16.9531   25.4312 C   0  0  0  0  0  0  0  0  0  0  0  0
   12.1094  -16.0309   25.4173 O   0  0  0  0  0  0  0  0  0  0  0  0
   14.0502  -16.7124   21.5434 O   0  0  0  0  0  0  0  0  0  0  0  0
   10.7857  -16.1890   28.5387 C   0  0  0  0  0  0  0  0  0  0  0  0
   11.7249  -17.1840   27.8449 C   0  0  2  0  0  0  0  0  0  0  0  0
   11.0098  -17.6101   26.6568 N   0  0  0  0  0  0  0  0  0  0  0  0
   12.0234  -18.3258   28.7132 C   0  0  0  0  0  0  0  0  0  0  0  0
   12.8023  -18.1916   29.8586 O   0  0  0  0  0  0  0  0  0  0  0  0
   11.5542  -19.4564   28.4033 O   0  0  0  0  0  0  0  0  0  0  0  0
  2  1  1  1
  3  2  1  0
  4  9  2  0
  4  3  1  0
  5  4  1  0
  6  7  1  0
  6  5  2  0
  7  8  2  0
  8  9  1  0
 10 12  1  0
 10  2  1  0
 11 10  2  0
 13 12  1  0
 13 14  1  6
 14 15  1  0
 15 16  1  0
 16 17  2  0
 18 13  1  0
 19 18  2  0
 20 16  1  0
 22 21  1  1
 22 24  1  0
 22 23  1  0
 23 18  1  0
 24 25  1  0
 26 24  2  0
M  END
$$$$
