FEA.pdb
     RDKit          3D

 26 26  0  0  1  0  0  0  0  0999 V2000
    7.1029  -17.6381   21.4819 N   0  0  0  0  0  0  0  0  0  0  0  0
    8.2854  -16.8581   21.6495 C   0  0  1  0  0  0  0  0  0  0  0  0
    7.9993  -15.5284   22.2732 C   0  0  0  0  0  0  0  0  0  0  0  0
    7.7736  -14.4335   21.3367 C   0  0  0  0  0  0  0  0  0  0  0  0
    8.6619  -13.3940   21.2324 C   0  0  0  0  0  0  0  0  0  0  0  0
    8.4387  -12.3550   20.3508 C   0  0  0  0  0  0  0  0  0  0  0  0
    7.2954  -12.3627   19.5559 C   0  0  0  0  0  0  0  0  0  0  0  0
    6.3821  -13.4049   19.6451 C   0  0  0  0  0  0  0  0  0  0  0  0
    6.6492  -14.4254   20.5442 C   0  0  0  0  0  0  0  0  0  0  0  0
    9.2766  -17.5436   22.5197 C   0  0  0  0  0  0  0  0  0  0  0  0
    8.8938  -18.1487   23.5470 O   0  0  0  0  0  0  0  0  0  0  0  0
   10.6543  -17.5434   22.2356 N   0  0  0  0  0  0  0  0  0  0  0  0
   11.5713  -18.2338   23.0704 C   0  0  1  0  0  0  0  0  0  0  0  0
   12.9716  -17.9706   22.5678 C   0  0  0  0  0  0  0  0  0  0  0  0
   13.9523  -18.8599   23.3332 C   0  0  0  0  0  0  0  0  0  0  0  0
   15.3022  -18.6803   22.7686 C   0  0  0  0  0  0  0  0  0  0  0  0
   15.8626  -17.5525   22.8529 O   0  0  0  0  0  0  0  0  0  0  0  0
   11.5448  -17.8311   24.4941 C   0  0  0  0  0  0  0  0  0  0  0  0
   11.6962  -16.6463   24.8528 O   0  0  0  0  0  0  0  0  0  0  0  0
   16.0195  -19.6991   22.1337 O   0  0  0  0  0  0  0  0  0  0  0  0
   10.0195  -18.8469   27.4553 C   0  0  0  0  0  0  0  0  0  0  0  0
   11.3778  -18.4205   26.8838 C   0  0  2  0  0  0  0  0  0  0  0  0
   11.3396  -18.8161   25.4886 N   0  0  0  0  0  0  0  0  0  0  0  0
   12.4802  -19.0835   27.5853 C   0  0  0  0  0  0  0  0  0  0  0  0
   13.3183  -19.9897   26.9426 O   0  0  0  0  0  0  0  0  0  0  0  0
   12.6648  -18.8156   28.8054 O   0  0  0  0  0  0  0  0  0  0  0  0
  2  1  1  1
  3  2  1  0
  4  9  2  0
  4  3  1  0
  5  4  1  0
  6  7  1  0
  6  5  2  0
  7  8  2  0
  8  9  1  0
 10 12  1  0
 10  2  1  0
 11 10  2  0
 13 12  1  0
 13 14  1  6
 14 15  1  0
 15 16  1  0
 16 17  2  0
 18 13  1  0
 19 18  2  0
 20 16  1  0
 22 21  1  1
 22 24  1  0
 22 23  1  0
 23 18  1  0
 24 25  1  0
 26 24  2  0
M  END
$$$$
