PDY.pdb
     RDKit          3D

 28 29  0  0  1  0  0  0  0  0999 V2000
    9.1595  -13.4307   19.1982 N   0  0  0  0  0  0  0  0  0  0  0  0
    8.4444  -14.0803   18.1447 C   0  0  0  0  0  0  0  0  0  0  0  0
    7.0822  -13.3735   18.2293 C   0  0  0  0  0  0  0  0  0  0  0  0
    6.9075  -13.3311   19.7453 C   0  0  0  0  0  0  0  0  0  0  0  0
    8.2999  -13.4512   20.3195 C   0  0  1  0  0  0  0  0  0  0  0  0
    8.3908  -14.6883   21.1627 C   0  0  0  0  0  0  0  0  0  0  0  0
    7.3517  -14.9643   21.8177 O   0  0  0  0  0  0  0  0  0  0  0  0
    9.5498  -15.4813   21.2181 N   0  0  0  0  0  0  0  0  0  0  0  0
    9.8958  -16.5744   22.0441 C   0  0  1  0  0  0  0  0  0  0  0  0
   11.0645  -17.4321   21.6056 C   0  0  0  0  0  0  0  0  0  0  0  0
   11.1659  -18.6478   22.4197 C   0  0  0  0  0  0  0  0  0  0  0  0
   10.1480  -19.2018   22.8693 O   0  0  0  0  0  0  0  0  0  0  0  0
    9.9067  -16.2096   23.4630 C   0  0  0  0  0  0  0  0  0  0  0  0
   10.7516  -15.3834   23.9430 O   0  0  0  0  0  0  0  0  0  0  0  0
   12.4074  -19.1772   22.6862 O   0  0  0  0  0  0  0  0  0  0  0  0
    6.9597  -10.5083   27.0427 O   0  0  0  0  0  0  0  0  0  0  0  0
    7.1297  -11.8647   26.8675 C   0  0  0  0  0  0  0  0  0  0  0  0
    8.3688  -12.4118   27.0013 C   0  0  0  0  0  0  0  0  0  0  0  0
    8.5421  -13.7690   26.8268 C   0  0  0  0  0  0  0  0  0  0  0  0
    7.5071  -14.6259   26.5170 C   0  0  0  0  0  0  0  0  0  0  0  0
    7.7044  -16.0624   26.3313 C   0  0  0  0  0  0  0  0  0  0  0  0
    9.0808  -16.4493   25.8346 C   0  0  2  0  0  0  0  0  0  0  0  0
    8.9844  -16.7412   24.4208 N   0  0  0  0  0  0  0  0  0  0  0  0
    9.6793  -17.5627   26.5990 C   0  0  0  0  0  0  0  0  0  0  0  0
    9.8462  -17.3756   27.8343 O   0  0  0  0  0  0  0  0  0  0  0  0
    6.2564  -14.0606   26.3836 C   0  0  0  0  0  0  0  0  0  0  0  0
    6.0561  -12.6965   26.5545 C   0  0  0  0  0  0  0  0  0  0  0  0
   10.0361  -18.7409   25.9968 O   0  0  0  0  0  0  0  0  0  0  0  0
  1  5  1  0
  2  3  1  0
  2  1  1  0
  3  4  1  0
  4  5  1  0
  5  6  1  6
  6  7  2  0
  8  9  1  0
  8  6  1  0
  9 13  1  0
 10 11  1  0
  9 10  1  6
 11 12  2  0
 13 14  2  0
 15 11  1  0
 16 17  1  0
 17 27  2  0
 18 17  1  0
 18 19  2  0
 19 20  1  0
 20 26  2  0
 20 21  1  0
 22 21  1  1
 22 24  1  0
 23 22  1  0
 23 13  1  0
 24 25  2  0
 24 28  1  0
 27 26  1  0
M  END
$$$$
