PDY.pdb
     RDKit          3D

 28 29  0  0  1  0  0  0  0  0999 V2000
    9.0380  -14.2169   18.9219 N   0  0  0  0  0  0  0  0  0  0  0  0
    7.7966  -14.4000   18.2373 C   0  0  0  0  0  0  0  0  0  0  0  0
    7.1246  -13.0374   18.4694 C   0  0  0  0  0  0  0  0  0  0  0  0
    7.4920  -12.8149   19.9344 C   0  0  0  0  0  0  0  0  0  0  0  0
    8.7074  -13.6768   20.1851 C   0  0  1  0  0  0  0  0  0  0  0  0
    8.3938  -14.6920   21.2438 C   0  0  0  0  0  0  0  0  0  0  0  0
    7.5594  -14.3188   22.1094 O   0  0  0  0  0  0  0  0  0  0  0  0
    8.9873  -15.9657   21.2684 N   0  0  0  0  0  0  0  0  0  0  0  0
    8.9210  -17.0095   22.2187 C   0  0  1  0  0  0  0  0  0  0  0  0
    9.4583  -18.3625   21.8010 C   0  0  0  0  0  0  0  0  0  0  0  0
    8.9097  -18.7747   20.5049 C   0  0  0  0  0  0  0  0  0  0  0  0
    7.6918  -18.9789   20.3630 O   0  0  0  0  0  0  0  0  0  0  0  0
    9.3473  -16.5693   23.5496 C   0  0  0  0  0  0  0  0  0  0  0  0
   10.4729  -16.0027   23.7468 O   0  0  0  0  0  0  0  0  0  0  0  0
    9.7597  -18.9358   19.4353 O   0  0  0  0  0  0  0  0  0  0  0  0
    6.4595  -10.6038   25.8727 O   0  0  0  0  0  0  0  0  0  0  0  0
    6.8299  -11.9066   26.1276 C   0  0  0  0  0  0  0  0  0  0  0  0
    5.9077  -12.9024   26.0240 C   0  0  0  0  0  0  0  0  0  0  0  0
    6.2754  -14.2072   26.2781 C   0  0  0  0  0  0  0  0  0  0  0  0
    7.5552  -14.5714   26.6401 C   0  0  0  0  0  0  0  0  0  0  0  0
    7.9315  -15.9579   26.9100 C   0  0  0  0  0  0  0  0  0  0  0  0
    9.0662  -16.4796   26.0549 C   0  0  2  0  0  0  0  0  0  0  0  0
    8.5501  -16.7349   24.7276 N   0  0  0  0  0  0  0  0  0  0  0  0
    9.7313  -17.6635   26.6367 C   0  0  0  0  0  0  0  0  0  0  0  0
    9.6077  -18.7483   26.0071 O   0  0  0  0  0  0  0  0  0  0  0  0
    8.4809  -13.5544   26.7421 C   0  0  0  0  0  0  0  0  0  0  0  0
    8.1353  -12.2324   26.4912 C   0  0  0  0  0  0  0  0  0  0  0  0
   10.4471  -17.5878   27.8029 O   0  0  0  0  0  0  0  0  0  0  0  0
  1  5  1  0
  2  3  1  0
  2  1  1  0
  3  4  1  0
  4  5  1  0
  5  6  1  1
  6  7  2  0
  8  9  1  0
  8  6  1  0
  9 13  1  0
 10 11  1  0
  9 10  1  6
 11 12  2  0
 13 14  2  0
 15 11  1  0
 16 17  1  0
 17 27  2  0
 18 17  1  0
 18 19  2  0
 19 20  1  0
 20 26  2  0
 20 21  1  0
 22 21  1  1
 22 24  1  0
 23 22  1  0
 23 13  1  0
 24 25  2  0
 24 28  1  0
 27 26  1  0
M  END
$$$$
