PDY.pdb
     RDKit          3D

 28 29  0  0  1  0  0  0  0  0999 V2000
    9.1646  -14.3836   17.8349 N   0  0  0  0  0  0  0  0  0  0  0  0
    7.8835  -14.7310   17.3048 C   0  0  0  0  0  0  0  0  0  0  0  0
    7.0744  -13.4646   17.6268 C   0  0  0  0  0  0  0  0  0  0  0  0
    7.5851  -13.1842   19.0379 C   0  0  0  0  0  0  0  0  0  0  0  0
    8.9229  -13.8800   19.1328 C   0  0  1  0  0  0  0  0  0  0  0  0
    8.8737  -14.9182   20.2143 C   0  0  0  0  0  0  0  0  0  0  0  0
    7.8715  -14.8502   20.9731 O   0  0  0  0  0  0  0  0  0  0  0  0
    9.8723  -15.8949   20.3698 N   0  0  0  0  0  0  0  0  0  0  0  0
   10.1202  -16.8210   21.4079 C   0  0  1  0  0  0  0  0  0  0  0  0
   11.0851  -17.9507   21.1133 C   0  0  0  0  0  0  0  0  0  0  0  0
   11.0749  -18.9509   22.1859 C   0  0  0  0  0  0  0  0  0  0  0  0
   11.8250  -18.8387   23.1707 O   0  0  0  0  0  0  0  0  0  0  0  0
   10.3340  -16.1581   22.6968 C   0  0  0  0  0  0  0  0  0  0  0  0
   10.9862  -15.0666   22.7967 O   0  0  0  0  0  0  0  0  0  0  0  0
   10.2212  -20.0259   22.0949 O   0  0  0  0  0  0  0  0  0  0  0  0
    5.8765  -11.3381   28.0462 O   0  0  0  0  0  0  0  0  0  0  0  0
    6.4734  -12.1986   27.1503 C   0  0  0  0  0  0  0  0  0  0  0  0
    5.8390  -13.3496   26.7958 C   0  0  0  0  0  0  0  0  0  0  0  0
    6.4336  -14.2126   25.8992 C   0  0  0  0  0  0  0  0  0  0  0  0
    7.6646  -13.9716   25.3262 C   0  0  0  0  0  0  0  0  0  0  0  0
    8.2857  -14.8962   24.3794 C   0  0  0  0  0  0  0  0  0  0  0  0
    9.3303  -15.8090   24.9848 C   0  0  2  0  0  0  0  0  0  0  0  0
    9.8375  -16.6701   23.9386 N   0  0  0  0  0  0  0  0  0  0  0  0
    8.8284  -16.5713   26.1465 C   0  0  0  0  0  0  0  0  0  0  0  0
    8.7808  -15.9590   27.2472 O   0  0  0  0  0  0  0  0  0  0  0  0
    8.2981  -12.8029   25.6928 C   0  0  0  0  0  0  0  0  0  0  0  0
    7.7199  -11.9175   26.5938 C   0  0  0  0  0  0  0  0  0  0  0  0
    8.4342  -17.8790   26.0348 O   0  0  0  0  0  0  0  0  0  0  0  0
  1  5  1  0
  2  3  1  0
  2  1  1  0
  3  4  1  0
  4  5  1  0
  5  6  1  1
  6  7  2  0
  8  9  1  0
  8  6  1  0
  9 13  1  0
 10 11  1  0
  9 10  1  6
 11 12  2  0
 13 14  2  0
 15 11  1  0
 16 17  1  0
 17 27  2  0
 18 17  1  0
 18 19  2  0
 19 20  1  0
 20 26  2  0
 20 21  1  0
 22 21  1  6
 22 24  1  0
 23 22  1  0
 23 13  1  0
 24 25  2  0
 24 28  1  0
 27 26  1  0
M  END
$$$$
