PDY.pdb
     RDKit          3D

 28 29  0  0  1  0  0  0  0  0999 V2000
    9.2322  -14.5254   17.9011 N   0  0  0  0  0  0  0  0  0  0  0  0
    7.8878  -14.7154   17.4542 C   0  0  0  0  0  0  0  0  0  0  0  0
    7.2525  -13.3703   17.8405 C   0  0  0  0  0  0  0  0  0  0  0  0
    7.8826  -13.1733   19.2170 C   0  0  0  0  0  0  0  0  0  0  0  0
    9.1349  -14.0188   19.2166 C   0  0  1  0  0  0  0  0  0  0  0  0
    9.0370  -15.0622   20.2897 C   0  0  0  0  0  0  0  0  0  0  0  0
    8.0673  -14.9239   21.0806 O   0  0  0  0  0  0  0  0  0  0  0  0
    9.9592  -16.1165   20.4046 N   0  0  0  0  0  0  0  0  0  0  0  0
   10.2203  -17.0189   21.4602 C   0  0  1  0  0  0  0  0  0  0  0  0
   11.4789  -17.8556   21.3617 C   0  0  0  0  0  0  0  0  0  0  0  0
   11.5288  -18.5926   20.0947 C   0  0  0  0  0  0  0  0  0  0  0  0
   10.4882  -18.8546   19.4672 O   0  0  0  0  0  0  0  0  0  0  0  0
    9.9958  -16.4090   22.7733 C   0  0  0  0  0  0  0  0  0  0  0  0
   10.8524  -15.6351   23.3156 O   0  0  0  0  0  0  0  0  0  0  0  0
   12.7469  -18.9969   19.5992 O   0  0  0  0  0  0  0  0  0  0  0  0
    6.3325  -11.2086   28.6042 O   0  0  0  0  0  0  0  0  0  0  0  0
    6.6665  -12.0488   27.5640 C   0  0  0  0  0  0  0  0  0  0  0  0
    7.8728  -11.9130   26.9483 C   0  0  0  0  0  0  0  0  0  0  0  0
    8.2101  -12.7525   25.9072 C   0  0  0  0  0  0  0  0  0  0  0  0
    7.3755  -13.7467   25.4417 C   0  0  0  0  0  0  0  0  0  0  0  0
    7.7434  -14.6279   24.3349 C   0  0  0  0  0  0  0  0  0  0  0  0
    8.5194  -15.8613   24.7442 C   0  0  2  0  0  0  0  0  0  0  0  0
    8.8132  -16.6256   23.5513 N   0  0  0  0  0  0  0  0  0  0  0  0
    7.8262  -16.6661   25.7709 C   0  0  0  0  0  0  0  0  0  0  0  0
    7.9090  -16.2580   26.9606 O   0  0  0  0  0  0  0  0  0  0  0  0
    6.1560  -13.8747   26.0727 C   0  0  0  0  0  0  0  0  0  0  0  0
    5.7931  -13.0416   27.1235 C   0  0  0  0  0  0  0  0  0  0  0  0
    7.1278  -17.8001   25.4479 O   0  0  0  0  0  0  0  0  0  0  0  0
  1  5  1  0
  2  3  1  0
  2  1  1  0
  3  4  1  0
  4  5  1  0
  5  6  1  1
  6  7  2  0
  8  9  1  0
  8  6  1  0
  9 13  1  0
 10 11  1  0
  9 10  1  1
 11 12  2  0
 13 14  2  0
 15 11  1  0
 16 17  1  0
 17 27  2  0
 18 17  1  0
 18 19  2  0
 19 20  1  0
 20 26  2  0
 20 21  1  0
 22 21  1  6
 22 24  1  0
 23 22  1  0
 23 13  1  0
 24 25  2  0
 24 28  1  0
 27 26  1  0
M  END
$$$$
