PDY.pdb
     RDKit          3D

 28 29  0  0  1  0  0  0  0  0999 V2000
    9.0552  -14.0738   19.1847 N   0  0  0  0  0  0  0  0  0  0  0  0
    7.8832  -14.4802   18.4745 C   0  0  0  0  0  0  0  0  0  0  0  0
    6.9368  -13.3042   18.7636 C   0  0  0  0  0  0  0  0  0  0  0  0
    7.2437  -13.0839   20.2428 C   0  0  0  0  0  0  0  0  0  0  0  0
    8.6133  -13.6808   20.4681 C   0  0  1  0  0  0  0  0  0  0  0  0
    8.5184  -14.7919   21.4713 C   0  0  0  0  0  0  0  0  0  0  0  0
    7.5490  -14.7073   22.2700 O   0  0  0  0  0  0  0  0  0  0  0  0
    9.4429  -15.8494   21.5169 N   0  0  0  0  0  0  0  0  0  0  0  0
    9.6172  -16.8990   22.4469 C   0  0  1  0  0  0  0  0  0  0  0  0
   10.5625  -18.0176   22.0608 C   0  0  0  0  0  0  0  0  0  0  0  0
   10.3500  -18.4366   20.6715 C   0  0  0  0  0  0  0  0  0  0  0  0
   11.2583  -18.3372   19.8287 O   0  0  0  0  0  0  0  0  0  0  0  0
    9.7904  -16.3998   23.8134 C   0  0  0  0  0  0  0  0  0  0  0  0
   10.7164  -15.5788   24.1218 O   0  0  0  0  0  0  0  0  0  0  0  0
    9.1264  -18.9457   20.3021 O   0  0  0  0  0  0  0  0  0  0  0  0
    6.3795  -10.8299   25.7170 O   0  0  0  0  0  0  0  0  0  0  0  0
    6.7986  -12.1026   26.0393 C   0  0  0  0  0  0  0  0  0  0  0  0
    6.1179  -13.1788   25.5583 C   0  0  0  0  0  0  0  0  0  0  0  0
    6.5351  -14.4537   25.8787 C   0  0  0  0  0  0  0  0  0  0  0  0
    7.6294  -14.7086   26.6783 C   0  0  0  0  0  0  0  0  0  0  0  0
    8.0595  -16.0650   27.0133 C   0  0  0  0  0  0  0  0  0  0  0  0
    9.3027  -16.5287   26.2852 C   0  0  2  0  0  0  0  0  0  0  0  0
    8.9484  -16.7847   24.9060 N   0  0  0  0  0  0  0  0  0  0  0  0
    9.9471  -17.6935   26.9256 C   0  0  0  0  0  0  0  0  0  0  0  0
    9.9448  -18.7715   26.2723 O   0  0  0  0  0  0  0  0  0  0  0  0
    8.3111  -13.6110   27.1600 C   0  0  0  0  0  0  0  0  0  0  0  0
    7.9108  -12.3169   26.8515 C   0  0  0  0  0  0  0  0  0  0  0  0
   10.5191  -17.6083   28.1680 O   0  0  0  0  0  0  0  0  0  0  0  0
  1  5  1  0
  2  3  1  0
  2  1  1  0
  3  4  1  0
  4  5  1  0
  5  6  1  1
  6  7  2  0
  8  9  1  0
  8  6  1  0
  9 13  1  0
 10 11  1  0
  9 10  1  6
 11 12  2  0
 13 14  2  0
 15 11  1  0
 16 17  1  0
 17 27  2  0
 18 17  1  0
 18 19  2  0
 19 20  1  0
 20 26  2  0
 20 21  1  0
 22 21  1  1
 22 24  1  0
 23 22  1  0
 23 13  1  0
 24 25  2  0
 24 28  1  0
 27 26  1  0
M  END
$$$$
