PDY.pdb
     RDKit          3D

 28 29  0  0  1  0  0  0  0  0999 V2000
    8.9933  -14.2103   17.7440 N   0  0  0  0  0  0  0  0  0  0  0  0
    7.6680  -14.5102   17.3007 C   0  0  0  0  0  0  0  0  0  0  0  0
    6.9314  -13.2108   17.6628 C   0  0  0  0  0  0  0  0  0  0  0  0
    7.5429  -12.9418   19.0355 C   0  0  0  0  0  0  0  0  0  0  0  0
    8.8559  -13.6892   19.0502 C   0  0  1  0  0  0  0  0  0  0  0  0
    8.8365  -14.7177   20.1419 C   0  0  0  0  0  0  0  0  0  0  0  0
    8.1480  -14.4115   21.1504 O   0  0  0  0  0  0  0  0  0  0  0  0
    9.5350  -15.9335   20.0467 N   0  0  0  0  0  0  0  0  0  0  0  0
    9.7136  -16.9839   20.9750 C   0  0  1  0  0  0  0  0  0  0  0  0
   10.3294  -18.2678   20.4591 C   0  0  0  0  0  0  0  0  0  0  0  0
    9.7549  -18.6496   19.1648 C   0  0  0  0  0  0  0  0  0  0  0  0
   10.4502  -18.6548   18.1344 O   0  0  0  0  0  0  0  0  0  0  0  0
   10.2713  -16.5078   22.2435 C   0  0  0  0  0  0  0  0  0  0  0  0
   11.4242  -15.9673   22.3156 O   0  0  0  0  0  0  0  0  0  0  0  0
    8.4279  -19.0058   19.0968 O   0  0  0  0  0  0  0  0  0  0  0  0
   10.8218  -14.6401   30.9442 O   0  0  0  0  0  0  0  0  0  0  0  0
   10.3985  -14.9075   29.6602 C   0  0  0  0  0  0  0  0  0  0  0  0
   10.1431  -16.1917   29.2881 C   0  0  0  0  0  0  0  0  0  0  0  0
    9.7190  -16.4625   28.0039 C   0  0  0  0  0  0  0  0  0  0  0  0
    9.5337  -15.4834   27.0506 C   0  0  0  0  0  0  0  0  0  0  0  0
    9.0868  -15.7839   25.6915 C   0  0  0  0  0  0  0  0  0  0  0  0
   10.1888  -16.2146   24.7477 C   0  0  2  0  0  0  0  0  0  0  0  0
    9.5815  -16.6069   23.4945 N   0  0  0  0  0  0  0  0  0  0  0  0
   11.0507  -17.2741   25.3107 C   0  0  0  0  0  0  0  0  0  0  0  0
   12.1454  -16.9046   25.8145 O   0  0  0  0  0  0  0  0  0  0  0  0
    9.7956  -14.1864   27.4387 C   0  0  0  0  0  0  0  0  0  0  0  0
   10.2237  -13.8879   28.7262 C   0  0  0  0  0  0  0  0  0  0  0  0
   10.6803  -18.5933   25.2871 O   0  0  0  0  0  0  0  0  0  0  0  0
  1  5  1  0
  2  3  1  0
  2  1  1  0
  3  4  1  0
  4  5  1  0
  5  6  1  1
  6  7  2  0
  8  9  1  0
  8  6  1  0
  9 13  1  0
 10 11  1  0
  9 10  1  6
 11 12  2  0
 13 14  2  0
 15 11  1  0
 16 17  1  0
 17 27  2  0
 18 17  1  0
 18 19  2  0
 19 20  1  0
 20 26  2  0
 20 21  1  0
 22 21  1  1
 22 24  1  0
 23 22  1  0
 23 13  1  0
 24 25  2  0
 24 28  1  0
 27 26  1  0
M  END
$$$$
