PDY.pdb
     RDKit          3D

 28 29  0  0  1  0  0  0  0  0999 V2000
    9.2460  -13.8639   18.0958 N   0  0  0  0  0  0  0  0  0  0  0  0
    8.1465  -14.2529   17.2693 C   0  0  0  0  0  0  0  0  0  0  0  0
    7.2016  -13.0538   17.4467 C   0  0  0  0  0  0  0  0  0  0  0  0
    7.3557  -12.8239   18.9480 C   0  0  0  0  0  0  0  0  0  0  0  0
    8.6802  -13.4474   19.3219 C   0  0  1  0  0  0  0  0  0  0  0  0
    8.4552  -14.5452   20.3190 C   0  0  0  0  0  0  0  0  0  0  0  0
    7.6474  -14.2677   21.2438 O   0  0  0  0  0  0  0  0  0  0  0  0
    9.0984  -15.7915   20.2283 N   0  0  0  0  0  0  0  0  0  0  0  0
    9.1183  -16.8990   21.1058 C   0  0  1  0  0  0  0  0  0  0  0  0
    9.4524  -18.2504   20.5092 C   0  0  0  0  0  0  0  0  0  0  0  0
    9.3356  -19.3161   21.5099 C   0  0  0  0  0  0  0  0  0  0  0  0
    8.3858  -19.3378   22.3116 O   0  0  0  0  0  0  0  0  0  0  0  0
    9.8171  -16.5963   22.3575 C   0  0  0  0  0  0  0  0  0  0  0  0
   11.0857  -16.4759   22.4124 O   0  0  0  0  0  0  0  0  0  0  0  0
   10.2935  -20.3025   21.5569 O   0  0  0  0  0  0  0  0  0  0  0  0
   11.0293  -14.4310   30.9214 O   0  0  0  0  0  0  0  0  0  0  0  0
   10.5100  -14.6657   29.6665 C   0  0  0  0  0  0  0  0  0  0  0  0
   10.1794  -15.9343   29.3001 C   0  0  0  0  0  0  0  0  0  0  0  0
    9.6592  -16.1724   28.0451 C   0  0  0  0  0  0  0  0  0  0  0  0
    9.4489  -15.1751   27.1162 C   0  0  0  0  0  0  0  0  0  0  0  0
    8.8997  -15.4410   25.7878 C   0  0  0  0  0  0  0  0  0  0  0  0
    9.8600  -16.1186   24.8341 C   0  0  2  0  0  0  0  0  0  0  0  0
    9.1474  -16.4128   23.6099 N   0  0  0  0  0  0  0  0  0  0  0  0
   10.5008  -17.3169   25.4135 C   0  0  0  0  0  0  0  0  0  0  0  0
    9.8570  -18.3975   25.3330 O   0  0  0  0  0  0  0  0  0  0  0  0
    9.7876  -13.8941   27.4983 C   0  0  0  0  0  0  0  0  0  0  0  0
   10.3131  -13.6286   28.7566 C   0  0  0  0  0  0  0  0  0  0  0  0
   11.7335  -17.2584   26.0094 O   0  0  0  0  0  0  0  0  0  0  0  0
  1  5  1  0
  2  3  1  0
  2  1  1  0
  3  4  1  0
  4  5  1  0
  5  6  1  1
  6  7  2  0
  8  9  1  0
  8  6  1  0
  9 13  1  0
 10 11  1  0
  9 10  1  6
 11 12  2  0
 13 14  2  0
 15 11  1  0
 16 17  1  0
 17 27  2  0
 18 17  1  0
 18 19  2  0
 19 20  1  0
 20 26  2  0
 20 21  1  0
 22 21  1  1
 22 24  1  0
 23 22  1  0
 23 13  1  0
 24 25  2  0
 24 28  1  0
 27 26  1  0
M  END
$$$$
