VAG.pdb
     RDKit          3D

 17 16  0  0  1  0  0  0  0  0999 V2000
    5.5232  -18.8020   21.2149 C   0  0  0  0  0  0  0  0  0  0  0  0
    6.2388  -17.9548   22.2088 C   0  0  1  0  0  0  0  0  0  0  0  0
    7.5181  -18.6938   22.6012 C   0  0  0  0  0  0  0  0  0  0  0  0
    6.6564  -16.6006   21.7300 C   0  0  2  0  0  0  0  0  0  0  0  0
    7.5279  -16.8566   20.5631 N   0  0  0  0  0  0  0  0  0  0  0  0
    7.3856  -15.7851   22.7197 C   0  0  0  0  0  0  0  0  0  0  0  0
    8.6657  -15.8064   22.7227 O   0  0  0  0  0  0  0  0  0  0  0  0
    6.8120  -13.1222   25.3506 C   0  0  0  0  0  0  0  0  0  0  0  0
    7.5802  -14.2437   24.7052 C   0  0  2  0  0  0  0  0  0  0  0  0
    6.8052  -14.9486   23.7044 N   0  0  0  0  0  0  0  0  0  0  0  0
    8.1718  -15.1646   25.7080 C   0  0  0  0  0  0  0  0  0  0  0  0
    8.9946  -14.7033   26.5381 O   0  0  0  0  0  0  0  0  0  0  0  0
    7.8535  -16.5363   25.7736 N   0  0  0  0  0  0  0  0  0  0  0  0
    8.3160  -17.4322   26.8098 C   0  0  0  0  0  0  0  0  0  0  0  0
    9.7017  -17.1761   27.2097 C   0  0  0  0  0  0  0  0  0  0  0  0
   10.0540  -16.5246   28.3808 O   0  0  0  0  0  0  0  0  0  0  0  0
   10.6343  -17.5609   26.4631 O   0  0  0  0  0  0  0  0  0  0  0  0
  2  3  1  6
  2  1  1  0
  4  2  1  0
  4  5  1  6
  6  4  1  0
  6 10  1  0
  7  6  2  0
  9  8  1  1
  9 10  1  0
  9 11  1  0
 11 12  2  0
 13 11  1  0
 13 14  1  0
 14 15  1  0
 15 16  1  0
 17 15  2  0
M  END
$$$$
