VAG.pdb
     RDKit          3D

 17 16  0  0  1  0  0  0  0  0999 V2000
    8.6932  -12.6746   18.3500 C   0  0  0  0  0  0  0  0  0  0  0  0
    8.8752  -13.1727   19.7415 C   0  0  1  0  0  0  0  0  0  0  0  0
    7.8462  -12.4604   20.6193 C   0  0  0  0  0  0  0  0  0  0  0  0
    8.6654  -14.6401   19.9409 C   0  0  2  0  0  0  0  0  0  0  0  0
    7.3472  -14.9265   19.3352 N   0  0  0  0  0  0  0  0  0  0  0  0
    8.6688  -15.0868   21.3469 C   0  0  0  0  0  0  0  0  0  0  0  0
    7.5567  -15.1745   21.9753 O   0  0  0  0  0  0  0  0  0  0  0  0
    8.9578  -17.3561   23.3982 C   0  0  0  0  0  0  0  0  0  0  0  0
    9.7288  -16.0640   23.4151 C   0  0  2  0  0  0  0  0  0  0  0  0
    9.8086  -15.4435   22.1082 N   0  0  0  0  0  0  0  0  0  0  0  0
   11.0641  -16.2188   24.0451 C   0  0  0  0  0  0  0  0  0  0  0  0
   11.1310  -16.6951   25.2060 O   0  0  0  0  0  0  0  0  0  0  0  0
   12.2644  -15.8559   23.4011 N   0  0  0  0  0  0  0  0  0  0  0  0
   13.5810  -16.0281   23.9729 C   0  0  0  0  0  0  0  0  0  0  0  0
   14.6583  -15.7192   23.0297 C   0  0  0  0  0  0  0  0  0  0  0  0
   16.0009  -15.7186   23.3724 O   0  0  0  0  0  0  0  0  0  0  0  0
   14.3682  -15.4372   21.8416 O   0  0  0  0  0  0  0  0  0  0  0  0
  2  3  1  1
  2  1  1  0
  4  2  1  0
  4  5  1  1
  6  4  1  0
  6 10  1  0
  7  6  2  0
  9  8  1  6
  9 10  1  0
  9 11  1  0
 11 12  2  0
 13 11  1  0
 13 14  1  0
 14 15  1  0
 15 16  1  0
 17 15  2  0
M  END
$$$$
