VAG.pdb
     RDKit          3D

 17 16  0  0  1  0  0  0  0  0999 V2000
    9.6988  -12.5001   19.5485 C   0  0  0  0  0  0  0  0  0  0  0  0
    8.3773  -13.0734   19.9262 C   0  0  1  0  0  0  0  0  0  0  0  0
    7.3195  -12.3916   19.0585 C   0  0  0  0  0  0  0  0  0  0  0  0
    8.2212  -14.5457   19.7138 C   0  0  2  0  0  0  0  0  0  0  0  0
    6.8782  -14.8705   20.2406 N   0  0  0  0  0  0  0  0  0  0  0  0
    9.2304  -15.3850   20.3871 C   0  0  0  0  0  0  0  0  0  0  0  0
    9.1618  -15.5449   21.6555 O   0  0  0  0  0  0  0  0  0  0  0  0
   11.9499  -17.8827   19.5973 C   0  0  0  0  0  0  0  0  0  0  0  0
   11.2520  -16.8882   20.4852 C   0  0  2  0  0  0  0  0  0  0  0  0
   10.3078  -16.0601   19.7628 N   0  0  0  0  0  0  0  0  0  0  0  0
   12.2107  -16.0820   21.2818 C   0  0  0  0  0  0  0  0  0  0  0  0
   12.7948  -15.1182   20.7261 O   0  0  0  0  0  0  0  0  0  0  0  0
   12.4979  -16.3468   22.6362 N   0  0  0  0  0  0  0  0  0  0  0  0
   13.4098  -15.5682   23.4439 C   0  0  0  0  0  0  0  0  0  0  0  0
   14.7190  -16.2058   23.6029 C   0  0  0  0  0  0  0  0  0  0  0  0
   15.7949  -15.9680   22.7628 O   0  0  0  0  0  0  0  0  0  0  0  0
   14.8942  -17.0148   24.5464 O   0  0  0  0  0  0  0  0  0  0  0  0
  2  3  1  6
  2  1  1  0
  4  2  1  0
  4  5  1  1
  6  4  1  0
  6 10  1  0
  7  6  2  0
  9  8  1  6
  9 10  1  0
  9 11  1  0
 11 12  2  0
 13 11  1  0
 13 14  1  0
 14 15  1  0
 15 16  1  0
 17 15  2  0
M  END
$$$$
