VAG.pdb
     RDKit          3D

 17 16  0  0  1  0  0  0  0  0999 V2000
    4.1439  -22.1063   22.9422 C   0  0  0  0  0  0  0  0  0  0  0  0
    4.9737  -21.2152   23.7996 C   0  0  1  0  0  0  0  0  0  0  0  0
    5.9959  -22.0960   24.5180 C   0  0  0  0  0  0  0  0  0  0  0  0
    5.7500  -20.1577   23.0810 C   0  0  2  0  0  0  0  0  0  0  0  0
    6.5038  -20.8786   22.0328 N   0  0  0  0  0  0  0  0  0  0  0  0
    6.6878  -19.3902   23.9223 C   0  0  0  0  0  0  0  0  0  0  0  0
    7.8830  -19.8223   24.0765 O   0  0  0  0  0  0  0  0  0  0  0  0
    7.0415  -16.0474   25.6439 C   0  0  0  0  0  0  0  0  0  0  0  0
    7.3588  -17.5065   25.4576 C   0  0  2  0  0  0  0  0  0  0  0  0
    6.4025  -18.1819   24.6041 N   0  0  0  0  0  0  0  0  0  0  0  0
    7.5471  -18.2066   26.7531 C   0  0  0  0  0  0  0  0  0  0  0  0
    6.5298  -18.5685   27.3958 O   0  0  0  0  0  0  0  0  0  0  0  0
    8.8168  -18.4858   27.2982 N   0  0  0  0  0  0  0  0  0  0  0  0
    9.0328  -19.1567   28.5605 C   0  0  0  0  0  0  0  0  0  0  0  0
   10.4507  -19.2779   28.9077 C   0  0  0  0  0  0  0  0  0  0  0  0
   10.9037  -19.6470   30.1641 O   0  0  0  0  0  0  0  0  0  0  0  0
   11.3171  -19.0382   28.0318 O   0  0  0  0  0  0  0  0  0  0  0  0
  2  3  1  6
  2  1  1  0
  4  2  1  0
  4  5  1  6
  6  4  1  0
  6 10  1  0
  7  6  2  0
  9  8  1  1
  9 10  1  0
  9 11  1  0
 11 12  2  0
 13 11  1  0
 13 14  1  0
 14 15  1  0
 15 16  1  0
 17 15  2  0
M  END
$$$$
