VAG.pdb
     RDKit          3D

 17 16  0  0  1  0  0  0  0  0999 V2000
    9.7805  -12.6159   19.9470 C   0  0  0  0  0  0  0  0  0  0  0  0
    8.3584  -13.0531   20.0112 C   0  0  1  0  0  0  0  0  0  0  0  0
    7.7091  -12.6908   18.6756 C   0  0  0  0  0  0  0  0  0  0  0  0
    8.1357  -14.5185   20.2118 C   0  0  2  0  0  0  0  0  0  0  0  0
    6.6668  -14.6812   20.2638 N   0  0  0  0  0  0  0  0  0  0  0  0
    8.7370  -15.0804   21.4362 C   0  0  0  0  0  0  0  0  0  0  0  0
    8.2632  -14.7397   22.5758 O   0  0  0  0  0  0  0  0  0  0  0  0
   10.2316  -17.7742   23.1351 C   0  0  0  0  0  0  0  0  0  0  0  0
   10.4919  -16.3496   22.7266 C   0  0  2  0  0  0  0  0  0  0  0  0
    9.8211  -15.9900   21.4938 N   0  0  0  0  0  0  0  0  0  0  0  0
   11.9424  -16.0360   22.6882 C   0  0  0  0  0  0  0  0  0  0  0  0
   12.6232  -16.2049   23.7308 O   0  0  0  0  0  0  0  0  0  0  0  0
   12.5946  -15.5562   21.5343 N   0  0  0  0  0  0  0  0  0  0  0  0
   14.0174  -15.3172   21.4415 C   0  0  0  0  0  0  0  0  0  0  0  0
   14.4195  -14.7570   20.1491 C   0  0  0  0  0  0  0  0  0  0  0  0
   15.6316  -14.1215   19.9324 O   0  0  0  0  0  0  0  0  0  0  0  0
   13.6358  -14.8485   19.1730 O   0  0  0  0  0  0  0  0  0  0  0  0
  2  3  1  6
  2  1  1  0
  4  2  1  0
  4  5  1  1
  6  4  1  0
  6 10  1  0
  7  6  2  0
  9  8  1  6
  9 10  1  0
  9 11  1  0
 11 12  2  0
 13 11  1  0
 13 14  1  0
 14 15  1  0
 15 16  1  0
 17 15  2  0
M  END
$$$$
