VAG.pdb
     RDKit          3D

 17 16  0  0  1  0  0  0  0  0999 V2000
    1.9394   -7.3920   42.3651 C   0  0  0  0  0  0  0  0  0  0  0  0
    3.2944   -7.6521   42.9255 C   0  0  1  0  0  0  0  0  0  0  0  0
    4.0391   -6.3175   42.9565 C   0  0  0  0  0  0  0  0  0  0  0  0
    3.3300   -8.1946   44.3189 C   0  0  2  0  0  0  0  0  0  0  0  0
    2.6969   -7.1518   45.1545 N   0  0  0  0  0  0  0  0  0  0  0  0
    4.6778   -8.4920   44.8398 C   0  0  0  0  0  0  0  0  0  0  0  0
    5.2490   -7.6439   45.6102 O   0  0  0  0  0  0  0  0  0  0  0  0
    7.0850  -11.2580   45.4510 C   0  0  0  0  0  0  0  0  0  0  0  0
    6.7993   -9.8397   45.0375 C   0  0  2  0  0  0  0  0  0  0  0  0
    5.4393   -9.6561   44.5728 N   0  0  0  0  0  0  0  0  0  0  0  0
    7.7982   -9.3298   44.0648 C   0  0  0  0  0  0  0  0  0  0  0  0
    9.0188   -9.4315   44.3455 O   0  0  0  0  0  0  0  0  0  0  0  0
    7.4416   -8.7350   42.8376 N   0  0  0  0  0  0  0  0  0  0  0  0
    8.3902   -8.2684   41.8513 C   0  0  0  0  0  0  0  0  0  0  0  0
    8.7982   -6.8778   42.0643 C   0  0  0  0  0  0  0  0  0  0  0  0
    9.6368   -6.1847   41.2062 O   0  0  0  0  0  0  0  0  0  0  0  0
    8.3748   -6.2644   43.0741 O   0  0  0  0  0  0  0  0  0  0  0  0
  2  3  1  1
  2  1  1  0
  4  2  1  0
  4  5  1  1
  6  4  1  0
  6 10  1  0
  7  6  2  0
  9  8  1  6
  9 10  1  0
  9 11  1  0
 11 12  2  0
 13 11  1  0
 13 14  1  0
 14 15  1  0
 15 16  1  0
 17 15  2  0
M  END
$$$$
