VAG.pdb
     RDKit          3D

 17 16  0  0  1  0  0  0  0  0999 V2000
   -4.9173  -26.8803   27.4470 C   0  0  0  0  0  0  0  0  0  0  0  0
   -3.4714  -27.0103   27.7787 C   0  0  1  0  0  0  0  0  0  0  0  0
   -2.8785  -28.0548   26.8331 C   0  0  0  0  0  0  0  0  0  0  0  0
   -2.6513  -25.7701   27.6149 C   0  0  2  0  0  0  0  0  0  0  0  0
   -1.3016  -26.1345   28.0968 N   0  0  0  0  0  0  0  0  0  0  0  0
   -3.1398  -24.5946   28.3605 C   0  0  0  0  0  0  0  0  0  0  0  0
   -3.0970  -24.6067   29.6400 O   0  0  0  0  0  0  0  0  0  0  0  0
   -4.2423  -21.0187   27.8871 C   0  0  0  0  0  0  0  0  0  0  0  0
   -4.2650  -22.3501   28.5880 C   0  0  2  0  0  0  0  0  0  0  0  0
   -3.6705  -23.4084   27.7971 N   0  0  0  0  0  0  0  0  0  0  0  0
   -5.6240  -22.7047   29.0689 C   0  0  0  0  0  0  0  0  0  0  0  0
   -6.4149  -23.2730   28.2748 O   0  0  0  0  0  0  0  0  0  0  0  0
   -6.0709  -22.4336   30.3781 N   0  0  0  0  0  0  0  0  0  0  0  0
   -7.3732  -22.8005   30.8876 C   0  0  0  0  0  0  0  0  0  0  0  0
   -8.4356  -21.8939   30.4459 C   0  0  0  0  0  0  0  0  0  0  0  0
   -9.7853  -22.1972   30.5267 O   0  0  0  0  0  0  0  0  0  0  0  0
   -8.1252  -20.7769   29.9652 O   0  0  0  0  0  0  0  0  0  0  0  0
  2  3  1  6
  2  1  1  0
  4  2  1  0
  4  5  1  1
  6  4  1  0
  6 10  1  0
  7  6  2  0
  9  8  1  6
  9 10  1  0
  9 11  1  0
 11 12  2  0
 13 11  1  0
 13 14  1  0
 14 15  1  0
 15 16  1  0
 17 15  2  0
M  END
$$$$
