VAG.pdb
     RDKit          3D

 17 16  0  0  1  0  0  0  0  0999 V2000
    4.5506  -23.1182   25.2947 C   0  0  0  0  0  0  0  0  0  0  0  0
    3.9455  -24.1112   24.3645 C   0  0  1  0  0  0  0  0  0  0  0  0
    3.8250  -25.4327   25.1233 C   0  0  0  0  0  0  0  0  0  0  0  0
    2.5768  -23.7812   23.8595 C   0  0  2  0  0  0  0  0  0  0  0  0
    2.1033  -25.0149   23.1959 N   0  0  0  0  0  0  0  0  0  0  0  0
    2.5161  -22.6557   22.9077 C   0  0  0  0  0  0  0  0  0  0  0  0
    3.0877  -22.7722   21.7681 O   0  0  0  0  0  0  0  0  0  0  0  0
    0.8283  -19.3227   22.3549 C   0  0  0  0  0  0  0  0  0  0  0  0
    1.9603  -20.3015   22.1973 C   0  0  2  0  0  0  0  0  0  0  0  0
    1.8708  -21.4133   23.1221 N   0  0  0  0  0  0  0  0  0  0  0  0
    3.2858  -19.6350   22.2478 C   0  0  0  0  0  0  0  0  0  0  0  0
    3.6538  -18.9503   21.2606 O   0  0  0  0  0  0  0  0  0  0  0  0
    4.1540  -19.7340   23.3539 N   0  0  0  0  0  0  0  0  0  0  0  0
    5.4202  -19.0445   23.4610 C   0  0  0  0  0  0  0  0  0  0  0  0
    6.5682  -19.9124   23.1879 C   0  0  0  0  0  0  0  0  0  0  0  0
    7.8569  -19.6370   23.6163 O   0  0  0  0  0  0  0  0  0  0  0  0
    6.3939  -20.9677   22.5311 O   0  0  0  0  0  0  0  0  0  0  0  0
  2  3  1  1
  2  1  1  0
  4  2  1  0
  4  5  1  6
  6  4  1  0
  6 10  1  0
  7  6  2  0
  9  8  1  1
  9 10  1  0
  9 11  1  0
 11 12  2  0
 13 11  1  0
 13 14  1  0
 14 15  1  0
 15 16  1  0
 17 15  2  0
M  END
$$$$
