LWI.pdb
     RDKit          3D

 31 32  0  0  1  0  0  0  0  0999 V2000
   26.8867  -17.8826  -16.8868 C   0  0  0  0  0  0  0  0  0  0  0  0
   27.8172  -18.8558  -16.2339 C   0  0  1  0  0  0  0  0  0  0  0  0
   29.0365  -18.1199  -15.7302 C   0  0  0  0  0  0  0  0  0  0  0  0
   27.1619  -19.6827  -15.1693 C   0  0  0  0  0  0  0  0  0  0  0  0
   28.1192  -20.5780  -14.4270 C   0  0  2  0  0  0  0  0  0  0  0  0
   28.5141  -21.7285  -15.1768 N   0  0  0  0  0  0  0  0  0  0  0  0
   27.4196  -21.0298  -13.1959 C   0  0  0  0  0  0  0  0  0  0  0  0
   26.6024  -21.9941  -13.2634 O   0  0  0  0  0  0  0  0  0  0  0  0
   27.6423  -20.4077  -11.9385 N   0  0  0  0  0  0  0  0  0  0  0  0
   26.8437  -20.8123  -10.7541 C   0  0  1  0  0  0  0  0  0  0  0  0
   27.4837  -20.1261   -9.5912 C   0  0  0  0  0  0  0  0  0  0  0  0
   26.8404  -20.3446   -8.2851 C   0  0  0  0  0  0  0  0  0  0  0  0
   25.6079  -20.8937   -8.0273 C   0  0  0  0  0  0  0  0  0  0  0  0
   25.3880  -20.8912   -6.7093 N   0  0  0  0  0  0  0  0  0  0  0  0
   26.4544  -20.3483   -6.0731 C   0  0  0  0  0  0  0  0  0  0  0  0
   26.7270  -20.1169   -4.7367 C   0  0  0  0  0  0  0  0  0  0  0  0
   27.9088  -19.5413   -4.3607 C   0  0  0  0  0  0  0  0  0  0  0  0
   28.8272  -19.1941   -5.3378 C   0  0  0  0  0  0  0  0  0  0  0  0
   28.5655  -19.4192   -6.6584 C   0  0  0  0  0  0  0  0  0  0  0  0
   27.3677  -20.0047   -7.0658 C   0  0  0  0  0  0  0  0  0  0  0  0
   25.4593  -20.3526  -10.9906 C   0  0  0  0  0  0  0  0  0  0  0  0
   25.2349  -19.0969  -11.1530 O   0  0  0  0  0  0  0  0  0  0  0  0
   23.3086  -20.8335  -15.2203 C   0  0  0  0  0  0  0  0  0  0  0  0
   23.5821  -20.4402  -13.8105 C   0  0  0  0  0  0  0  0  0  0  0  0
   22.6834  -20.9777  -12.7705 C   0  0  2  0  0  0  0  0  0  0  0  0
   21.2074  -20.9122  -13.1000 C   0  0  0  0  0  0  0  0  0  0  0  0
   22.9865  -20.6360  -11.3349 C   0  0  2  0  0  0  0  0  0  0  0  0
   24.3170  -21.1941  -11.0628 N   0  0  0  0  0  0  0  0  0  0  0  0
   21.9765  -21.0260  -10.3602 C   0  0  0  0  0  0  0  0  0  0  0  0
   21.9750  -22.1781   -9.8483 O   0  0  0  0  0  0  0  0  0  0  0  0
   20.9696  -20.1636   -9.9423 O   0  0  0  0  0  0  0  0  0  0  0  0
  2  1  1  1
  2  3  1  0
  4  2  1  0
  5  4  1  0
  5  6  1  6
  7  8  2  0
  7  5  1  0
  9  7  1  0
 10 21  1  0
 10  9  1  0
 10 11  1  1
 12 11  1  0
 13 12  2  0
 14 13  1  0
 15 14  1  0
 15 20  2  0
 16 15  1  0
 17 16  2  0
 17 18  1  0
 18 19  2  0
 19 20  1  0
 20 12  1  0
 21 28  1  0
 22 21  2  0
 23 24  1  0
 24 25  1  0
 25 26  1  6
 25 27  1  0
 27 28  1  1
 27 29  1  0
 29 30  2  0
 29 31  1  0
M  END
$$$$
