LWI.pdb
     RDKit          3D

 31 32  0  0  1  0  0  0  0  0999 V2000
   26.8713  -17.2855  -17.3117 C   0  0  0  0  0  0  0  0  0  0  0  0
   27.2258  -18.4866  -16.4927 C   0  0  1  0  0  0  0  0  0  0  0  0
   28.6054  -18.9652  -16.8794 C   0  0  0  0  0  0  0  0  0  0  0  0
   27.0854  -18.2630  -15.0173 C   0  0  0  0  0  0  0  0  0  0  0  0
   27.7203  -19.3430  -14.1810 C   0  0  2  0  0  0  0  0  0  0  0  0
   27.5779  -20.6494  -14.7419 N   0  0  0  0  0  0  0  0  0  0  0  0
   27.0433  -19.3171  -12.8581 C   0  0  0  0  0  0  0  0  0  0  0  0
   26.9401  -18.2207  -12.2338 O   0  0  0  0  0  0  0  0  0  0  0  0
   26.5057  -20.4930  -12.2702 N   0  0  0  0  0  0  0  0  0  0  0  0
   25.6815  -20.4017  -11.0386 C   0  0  1  0  0  0  0  0  0  0  0  0
   24.5614  -21.3704  -11.2384 C   0  0  0  0  0  0  0  0  0  0  0  0
   23.4181  -20.8748  -12.0223 C   0  0  0  0  0  0  0  0  0  0  0  0
   23.1796  -21.0296  -13.3663 C   0  0  0  0  0  0  0  0  0  0  0  0
   22.0417  -20.4081  -13.6894 N   0  0  0  0  0  0  0  0  0  0  0  0
   21.5081  -19.8357  -12.5829 C   0  0  0  0  0  0  0  0  0  0  0  0
   20.3610  -19.0905  -12.3770 C   0  0  0  0  0  0  0  0  0  0  0  0
   20.0529  -18.6240  -11.1291 C   0  0  0  0  0  0  0  0  0  0  0  0
   20.9067  -18.9093  -10.0763 C   0  0  0  0  0  0  0  0  0  0  0  0
   22.0404  -19.6440  -10.2715 C   0  0  0  0  0  0  0  0  0  0  0  0
   22.3752  -20.1301  -11.5345 C   0  0  0  0  0  0  0  0  0  0  0  0
   26.5559  -20.7731   -9.9067 C   0  0  0  0  0  0  0  0  0  0  0  0
   27.3072  -21.8116  -10.0095 O   0  0  0  0  0  0  0  0  0  0  0  0
   29.7824  -19.1210   -5.0299 C   0  0  0  0  0  0  0  0  0  0  0  0
   28.9126  -20.1405   -5.6787 C   0  0  0  0  0  0  0  0  0  0  0  0
   28.1434  -19.7185   -6.8656 C   0  0  2  0  0  0  0  0  0  0  0  0
   27.5775  -18.3161   -6.7995 C   0  0  0  0  0  0  0  0  0  0  0  0
   27.1919  -20.7140   -7.4765 C   0  0  2  0  0  0  0  0  0  0  0  0
   26.6517  -20.0661   -8.6782 N   0  0  0  0  0  0  0  0  0  0  0  0
   26.1684  -21.2460   -6.5868 C   0  0  0  0  0  0  0  0  0  0  0  0
   24.9522  -20.9532   -6.7433 O   0  0  0  0  0  0  0  0  0  0  0  0
   26.4673  -22.0961   -5.5283 O   0  0  0  0  0  0  0  0  0  0  0  0
  2  1  1  6
  2  3  1  0
  4  2  1  0
  5  4  1  0
  5  6  1  6
  7  8  2  0
  7  5  1  0
  9  7  1  0
 10 21  1  0
 10  9  1  0
 10 11  1  6
 12 11  1  0
 13 12  2  0
 14 13  1  0
 15 14  1  0
 15 20  2  0
 16 15  1  0
 17 16  2  0
 17 18  1  0
 18 19  2  0
 19 20  1  0
 20 12  1  0
 21 28  1  0
 22 21  2  0
 23 24  1  0
 24 25  1  0
 25 26  1  1
 25 27  1  0
 27 28  1  6
 27 29  1  0
 29 30  2  0
 29 31  1  0
M  END
$$$$
