LWI.pdb
     RDKit          3D

 31 32  0  0  1  0  0  0  0  0999 V2000
   31.1906  -20.0695  -12.1129 C   0  0  0  0  0  0  0  0  0  0  0  0
   29.8783  -20.1950  -12.8207 C   0  0  1  0  0  0  0  0  0  0  0  0
   30.1248  -20.4997  -14.2795 C   0  0  0  0  0  0  0  0  0  0  0  0
   28.9462  -21.1761  -12.1761 C   0  0  0  0  0  0  0  0  0  0  0  0
   27.6052  -21.2692  -12.8557 C   0  0  2  0  0  0  0  0  0  0  0  0
   27.2567  -20.0896  -13.5827 N   0  0  0  0  0  0  0  0  0  0  0  0
   26.5950  -21.4849  -11.7869 C   0  0  0  0  0  0  0  0  0  0  0  0
   26.5976  -22.5725  -11.1393 O   0  0  0  0  0  0  0  0  0  0  0  0
   25.6212  -20.5010  -11.4691 N   0  0  0  0  0  0  0  0  0  0  0  0
   24.5954  -20.7746  -10.4311 C   0  0  1  0  0  0  0  0  0  0  0  0
   24.7603  -19.6910   -9.4154 C   0  0  0  0  0  0  0  0  0  0  0  0
   25.9922  -19.7489   -8.6114 C   0  0  0  0  0  0  0  0  0  0  0  0
   27.2764  -19.4593   -9.0040 C   0  0  0  0  0  0  0  0  0  0  0  0
   28.1096  -19.6604   -7.9790 N   0  0  0  0  0  0  0  0  0  0  0  0
   27.4067  -20.0817   -6.8996 C   0  0  0  0  0  0  0  0  0  0  0  0
   27.7846  -20.4225   -5.6132 C   0  0  0  0  0  0  0  0  0  0  0  0
   26.8493  -20.8240   -4.7002 C   0  0  0  0  0  0  0  0  0  0  0  0
   25.5196  -20.8838   -5.0835 C   0  0  0  0  0  0  0  0  0  0  0  0
   25.1389  -20.5491   -6.3509 C   0  0  0  0  0  0  0  0  0  0  0  0
   26.0744  -20.1369   -7.2988 C   0  0  0  0  0  0  0  0  0  0  0  0
   23.2798  -20.7257  -11.1023 C   0  0  0  0  0  0  0  0  0  0  0  0
   23.0699  -19.8353  -12.0060 O   0  0  0  0  0  0  0  0  0  0  0  0
   20.8574  -25.0350  -13.0001 C   0  0  0  0  0  0  0  0  0  0  0  0
   21.2853  -23.6320  -12.7441 C   0  0  0  0  0  0  0  0  0  0  0  0
   20.4286  -22.8117  -11.8657 C   0  0  2  0  0  0  0  0  0  0  0  0
   18.9471  -22.8771  -12.1697 C   0  0  0  0  0  0  0  0  0  0  0  0
   20.9024  -21.4245  -11.5186 C   0  0  2  0  0  0  0  0  0  0  0  0
   22.1918  -21.6002  -10.8387 N   0  0  0  0  0  0  0  0  0  0  0  0
   19.9589  -20.5949  -10.7812 C   0  0  0  0  0  0  0  0  0  0  0  0
   20.0251  -20.4899   -9.5266 O   0  0  0  0  0  0  0  0  0  0  0  0
   18.9448  -19.8798  -11.4078 O   0  0  0  0  0  0  0  0  0  0  0  0
  2  1  1  1
  2  3  1  0
  4  2  1  0
  5  4  1  0
  5  6  1  1
  7  8  2  0
  7  5  1  0
  9  7  1  0
 10 21  1  0
 10  9  1  0
 10 11  1  1
 12 11  1  0
 13 12  2  0
 14 13  1  0
 15 14  1  0
 15 20  2  0
 16 15  1  0
 17 16  2  0
 17 18  1  0
 18 19  2  0
 19 20  1  0
 20 12  1  0
 21 28  1  0
 22 21  2  0
 23 24  1  0
 24 25  1  0
 25 26  1  6
 25 27  1  0
 27 28  1  1
 27 29  1  0
 29 30  2  0
 29 31  1  0
M  END
$$$$
