LWI.pdb
     RDKit          3D

 31 32  0  0  1  0  0  0  0  0999 V2000
   27.6818  -16.9293  -17.6795 C   0  0  0  0  0  0  0  0  0  0  0  0
   27.9138  -18.1760  -16.8852 C   0  0  1  0  0  0  0  0  0  0  0  0
   29.3861  -18.5131  -16.9035 C   0  0  0  0  0  0  0  0  0  0  0  0
   27.3546  -18.1090  -15.4961 C   0  0  0  0  0  0  0  0  0  0  0  0
   27.7396  -19.2828  -14.6342 C   0  0  2  0  0  0  0  0  0  0  0  0
   27.4852  -20.5456  -15.2526 N   0  0  0  0  0  0  0  0  0  0  0  0
   26.9284  -19.1894  -13.3923 C   0  0  0  0  0  0  0  0  0  0  0  0
   26.6915  -18.0526  -12.8884 O   0  0  0  0  0  0  0  0  0  0  0  0
   26.4083  -20.3448  -12.7504 N   0  0  0  0  0  0  0  0  0  0  0  0
   25.4358  -20.2056  -11.6371 C   0  0  1  0  0  0  0  0  0  0  0  0
   24.2985  -21.1089  -11.9889 C   0  0  0  0  0  0  0  0  0  0  0  0
   23.0717  -20.4422  -12.4555 C   0  0  0  0  0  0  0  0  0  0  0  0
   22.7931  -19.9592  -13.7110 C   0  0  0  0  0  0  0  0  0  0  0  0
   21.5776  -19.4043  -13.7132 N   0  0  0  0  0  0  0  0  0  0  0  0
   21.0311  -19.5055  -12.4771 C   0  0  0  0  0  0  0  0  0  0  0  0
   19.8156  -19.0989  -11.9567 C   0  0  0  0  0  0  0  0  0  0  0  0
   19.5114  -19.3324  -10.6442 C   0  0  0  0  0  0  0  0  0  0  0  0
   20.4385  -19.9815   -9.8456 C   0  0  0  0  0  0  0  0  0  0  0  0
   21.6400  -20.3858  -10.3518 C   0  0  0  0  0  0  0  0  0  0  0  0
   21.9723  -20.1588  -11.6866 C   0  0  0  0  0  0  0  0  0  0  0  0
   26.1312  -20.6257  -10.4027 C   0  0  0  0  0  0  0  0  0  0  0  0
   26.9080  -21.6499  -10.4385 O   0  0  0  0  0  0  0  0  0  0  0  0
   29.4752  -19.1739   -5.8121 C   0  0  0  0  0  0  0  0  0  0  0  0
   28.5154  -20.1559   -6.3880 C   0  0  0  0  0  0  0  0  0  0  0  0
   27.4764  -19.6346   -7.2974 C   0  0  2  0  0  0  0  0  0  0  0  0
   26.7933  -18.3661   -6.8330 C   0  0  0  0  0  0  0  0  0  0  0  0
   26.5280  -20.6248   -7.9216 C   0  0  2  0  0  0  0  0  0  0  0  0
   26.0232  -19.9817   -9.1411 N   0  0  0  0  0  0  0  0  0  0  0  0
   25.4782  -21.1372   -7.0513 C   0  0  0  0  0  0  0  0  0  0  0  0
   25.7543  -21.8301   -6.0349 O   0  0  0  0  0  0  0  0  0  0  0  0
   24.1295  -20.8957   -7.2859 O   0  0  0  0  0  0  0  0  0  0  0  0
  2  1  1  1
  2  3  1  0
  4  2  1  0
  5  4  1  0
  5  6  1  6
  7  8  2  0
  7  5  1  0
  9  7  1  0
 10 21  1  0
 10  9  1  0
 10 11  1  6
 12 11  1  0
 13 12  2  0
 14 13  1  0
 15 14  1  0
 15 20  2  0
 16 15  1  0
 17 16  2  0
 17 18  1  0
 18 19  2  0
 19 20  1  0
 20 12  1  0
 21 28  1  0
 22 21  2  0
 23 24  1  0
 24 25  1  0
 25 26  1  1
 25 27  1  0
 27 28  1  6
 27 29  1  0
 29 30  2  0
 29 31  1  0
M  END
$$$$
