LWI.pdb
     RDKit          3D

 31 32  0  0  1  0  0  0  0  0999 V2000
   28.3300  -18.1485  -18.7130 C   0  0  0  0  0  0  0  0  0  0  0  0
   28.3995  -19.2746  -17.7300 C   0  0  1  0  0  0  0  0  0  0  0  0
   29.5331  -20.1985  -18.1083 C   0  0  0  0  0  0  0  0  0  0  0  0
   28.4799  -18.8162  -16.3052 C   0  0  0  0  0  0  0  0  0  0  0  0
   28.5908  -19.9453  -15.3144 C   0  0  2  0  0  0  0  0  0  0  0  0
   28.3732  -21.2318  -15.8966 N   0  0  0  0  0  0  0  0  0  0  0  0
   27.5526  -19.7111  -14.2768 C   0  0  0  0  0  0  0  0  0  0  0  0
   27.3875  -18.5443  -13.8147 O   0  0  0  0  0  0  0  0  0  0  0  0
   26.7356  -20.7641  -13.7856 N   0  0  0  0  0  0  0  0  0  0  0  0
   25.6059  -20.4665  -12.8692 C   0  0  1  0  0  0  0  0  0  0  0  0
   24.4621  -21.2869  -13.3705 C   0  0  0  0  0  0  0  0  0  0  0  0
   23.1403  -20.6404  -13.3222 C   0  0  0  0  0  0  0  0  0  0  0  0
   22.1483  -20.8057  -12.3863 C   0  0  0  0  0  0  0  0  0  0  0  0
   21.0948  -20.0542  -12.7191 N   0  0  0  0  0  0  0  0  0  0  0  0
   21.3609  -19.3836  -13.8664 C   0  0  0  0  0  0  0  0  0  0  0  0
   20.6201  -18.4914  -14.6206 C   0  0  0  0  0  0  0  0  0  0  0  0
   21.1417  -17.9502  -15.7628 C   0  0  0  0  0  0  0  0  0  0  0  0
   22.4218  -18.3092  -16.1517 C   0  0  0  0  0  0  0  0  0  0  0  0
   23.1591  -19.1888  -15.4128 C   0  0  0  0  0  0  0  0  0  0  0  0
   22.6484  -19.7534  -14.2449 C   0  0  0  0  0  0  0  0  0  0  0  0
   26.0358  -20.8640  -11.5124 C   0  0  0  0  0  0  0  0  0  0  0  0
   26.8087  -21.8822  -11.3729 O   0  0  0  0  0  0  0  0  0  0  0  0
   28.4782  -18.5867   -7.5635 C   0  0  0  0  0  0  0  0  0  0  0  0
   27.8092  -19.5885   -8.4386 C   0  0  0  0  0  0  0  0  0  0  0  0
   26.4389  -19.9986   -8.0744 C   0  0  2  0  0  0  0  0  0  0  0  0
   26.2440  -20.3690   -6.6197 C   0  0  0  0  0  0  0  0  0  0  0  0
   25.7029  -20.9093   -9.0223 C   0  0  2  0  0  0  0  0  0  0  0  0
   25.6682  -20.2038  -10.3095 N   0  0  0  0  0  0  0  0  0  0  0  0
   24.3976  -21.3752   -8.5736 C   0  0  0  0  0  0  0  0  0  0  0  0
   24.2903  -22.2043   -7.6299 O   0  0  0  0  0  0  0  0  0  0  0  0
   23.2102  -20.9395   -9.1504 O   0  0  0  0  0  0  0  0  0  0  0  0
  2  1  1  6
  2  3  1  0
  4  2  1  0
  5  4  1  0
  5  6  1  6
  7  8  2  0
  7  5  1  0
  9  7  1  0
 10 21  1  0
 10  9  1  0
 10 11  1  6
 12 11  1  0
 13 12  2  0
 14 13  1  0
 15 14  1  0
 15 20  2  0
 16 15  1  0
 17 16  2  0
 17 18  1  0
 18 19  2  0
 19 20  1  0
 20 12  1  0
 21 28  1  0
 22 21  2  0
 23 24  1  0
 24 25  1  0
 25 26  1  1
 25 27  1  0
 27 28  1  6
 27 29  1  0
 29 30  2  0
 29 31  1  0
M  END
$$$$
