LWI.pdb
     RDKit          3D

 31 32  0  0  1  0  0  0  0  0999 V2000
   27.2265  -18.0824  -17.0613 C   0  0  0  0  0  0  0  0  0  0  0  0
   28.0023  -19.1537  -16.3616 C   0  0  1  0  0  0  0  0  0  0  0  0
   29.2379  -18.5490  -15.7376 C   0  0  0  0  0  0  0  0  0  0  0  0
   27.1838  -19.9358  -15.3793 C   0  0  0  0  0  0  0  0  0  0  0  0
   27.9971  -20.8816  -14.5350 C   0  0  2  0  0  0  0  0  0  0  0  0
   28.2861  -22.1181  -15.1901 N   0  0  0  0  0  0  0  0  0  0  0  0
   27.1976  -21.1655  -13.3146 C   0  0  0  0  0  0  0  0  0  0  0  0
   26.1885  -21.9254  -13.3952 O   0  0  0  0  0  0  0  0  0  0  0  0
   27.5343  -20.6058  -12.0533 N   0  0  0  0  0  0  0  0  0  0  0  0
   26.6913  -20.8861  -10.8637 C   0  0  1  0  0  0  0  0  0  0  0  0
   27.4248  -20.2869   -9.7079 C   0  0  0  0  0  0  0  0  0  0  0  0
   26.8142  -20.4946   -8.3845 C   0  0  0  0  0  0  0  0  0  0  0  0
   25.5630  -20.9816   -8.0940 C   0  0  0  0  0  0  0  0  0  0  0  0
   25.3873  -20.9915   -6.7695 N   0  0  0  0  0  0  0  0  0  0  0  0
   26.5020  -20.5183   -6.1610 C   0  0  0  0  0  0  0  0  0  0  0  0
   26.8307  -20.3265   -4.8311 C   0  0  0  0  0  0  0  0  0  0  0  0
   28.0538  -19.8220   -4.4859 C   0  0  0  0  0  0  0  0  0  0  0  0
   28.9568  -19.5066   -5.4879 C   0  0  0  0  0  0  0  0  0  0  0  0
   28.6398  -19.6930   -6.8024 C   0  0  0  0  0  0  0  0  0  0  0  0
   27.3992  -20.2060   -7.1784 C   0  0  0  0  0  0  0  0  0  0  0  0
   25.3836  -20.2398  -11.1006 C   0  0  0  0  0  0  0  0  0  0  0  0
   25.3452  -18.9829  -11.3693 O   0  0  0  0  0  0  0  0  0  0  0  0
   21.4223  -22.1966  -14.3294 C   0  0  0  0  0  0  0  0  0  0  0  0
   21.9353  -21.8861  -12.9666 C   0  0  0  0  0  0  0  0  0  0  0  0
   22.4871  -20.5358  -12.7416 C   0  0  2  0  0  0  0  0  0  0  0  0
   23.4775  -20.0643  -13.7848 C   0  0  0  0  0  0  0  0  0  0  0  0
   22.8832  -20.1638  -11.3366 C   0  0  2  0  0  0  0  0  0  0  0  0
   24.1251  -20.8977  -11.0630 N   0  0  0  0  0  0  0  0  0  0  0  0
   21.8587  -20.3444  -10.3169 C   0  0  0  0  0  0  0  0  0  0  0  0
   20.7932  -19.6708  -10.3367 O   0  0  0  0  0  0  0  0  0  0  0  0
   21.9926  -21.2571   -9.2770 O   0  0  0  0  0  0  0  0  0  0  0  0
  2  1  1  1
  2  3  1  0
  4  2  1  0
  5  4  1  0
  5  6  1  6
  7  8  2  0
  7  5  1  0
  9  7  1  0
 10 21  1  0
 10  9  1  0
 10 11  1  1
 12 11  1  0
 13 12  2  0
 14 13  1  0
 15 14  1  0
 15 20  2  0
 16 15  1  0
 17 16  2  0
 17 18  1  0
 18 19  2  0
 19 20  1  0
 20 12  1  0
 21 28  1  0
 22 21  2  0
 23 24  1  0
 24 25  1  0
 25 26  1  6
 25 27  1  0
 27 28  1  1
 27 29  1  0
 29 30  2  0
 29 31  1  0
M  END
$$$$
