RCR.pdb
     RDKit          3D

 29 28  0  0  1  0  0  0  0  0999 V2000
   27.8029  -14.0762  -21.1627 N   0  0  0  0  0  0  0  0  0  0  0  0
   28.6765  -14.6076  -22.1467 C   0  0  0  0  0  0  0  0  0  0  0  0
   28.6810  -14.1279  -23.3328 N   0  0  0  0  0  0  0  0  0  0  0  0
   29.5726  -15.6834  -21.8571 N   0  0  0  0  0  0  0  0  0  0  0  0
   29.0932  -17.0263  -21.6134 C   0  0  0  0  0  0  0  0  0  0  0  0
   29.1577  -17.3189  -20.1490 C   0  0  0  0  0  0  0  0  0  0  0  0
   29.5587  -18.7116  -19.8337 C   0  0  0  0  0  0  0  0  0  0  0  0
   28.5045  -19.6215  -19.3243 C   0  0  2  0  0  0  0  0  0  0  0  0
   27.2410  -19.5679  -19.9800 N   0  0  0  0  0  0  0  0  0  0  0  0
   28.3794  -19.4189  -17.8419 C   0  0  0  0  0  0  0  0  0  0  0  0
   29.3901  -19.6053  -17.1421 O   0  0  0  0  0  0  0  0  0  0  0  0
   29.3811  -14.4047  -24.0604 N   0  0  0  0  0  0  0  0  0  0  0  0
   27.1730  -19.0292  -17.2189 C   0  0  1  0  0  0  0  0  0  0  0  0
   26.9836  -18.9286  -15.7916 C   0  0  0  0  0  0  0  0  0  0  0  0
   27.0829  -17.4950  -15.3340 S   0  0  0  0  0  0  0  0  0  0  0  0
   25.7581  -16.4770  -16.0040 C   0  0  0  0  0  0  0  0  0  0  0  0
   25.6490  -19.4648  -15.4165 O   0  0  0  0  0  0  0  0  0  0  0  0
   24.7718  -19.7361  -16.2992 N   0  0  0  0  0  0  0  0  0  0  0  0
   22.9757  -22.1211   -7.7896 C   0  0  0  0  0  0  0  0  0  0  0  0
   24.0291  -21.4885   -8.4897 N   0  0  0  0  0  0  0  0  0  0  0  0
   25.2163  -21.5186   -7.9939 N   0  0  0  0  0  0  0  0  0  0  0  0
   23.7476  -20.8382   -9.7195 C   0  0  0  0  0  0  0  0  0  0  0  0
   22.4084  -20.8937  -10.2390 C   0  0  0  0  0  0  0  0  0  0  0  0
   22.4224  -20.7527  -11.7776 C   0  0  0  0  0  0  0  0  0  0  0  0
   23.7926  -20.3384  -12.2387 C   0  0  1  0  0  0  0  0  0  0  0  0
   23.9292  -20.2149  -13.7141 N   0  0  0  0  0  0  0  0  0  0  0  0
   25.2574  -19.7099  -14.0831 C   0  0  0  0  0  0  0  0  0  0  0  0
   22.9500  -19.2703  -14.2483 O   0  0  0  0  0  0  0  0  0  0  0  0
   23.1928  -18.0438  -14.2586 O   0  0  0  0  0  0  0  0  0  0  0  0
  1  2  1  0
  2  4  1  0
  2  3  2  0
  4  5  1  0
  6  5  1  0
  7  6  1  0
  8  7  1  0
  8  9  1  6
 10  8  1  0
 10 12  1  0
 11 10  2  0
 13 16  1  0
 13 12  1  0
 13 14  1  1
 15 14  1  0
 16 17  2  0
 18 19  1  0
 19 21  1  0
 20 19  2  0
 21 22  1  0
 23 24  1  0
 23 22  1  0
 25 24  1  6
 25 27  1  0
 26 25  1  0
 26 16  1  0
 27 28  2  0
 27 29  1  0
M  END
$$$$
