RCR.pdb
     RDKit          3D

 29 28  0  0  1  0  0  0  0  0999 V2000
   26.6844  -20.7030  -20.9717 N   0  0  0  0  0  0  0  0  0  0  0  0
   26.7711  -21.9855  -21.5731 C   0  0  0  0  0  0  0  0  0  0  0  0
   26.5298  -22.1310  -22.8211 N   0  0  0  0  0  0  0  0  0  0  0  0
   27.1259  -23.1483  -20.8205 N   0  0  0  0  0  0  0  0  0  0  0  0
   27.5237  -23.0623  -19.4324 C   0  0  0  0  0  0  0  0  0  0  0  0
   27.8438  -24.4300  -18.9215 C   0  0  0  0  0  0  0  0  0  0  0  0
   28.0819  -24.4824  -17.4585 C   0  0  0  0  0  0  0  0  0  0  0  0
   29.1060  -23.5637  -16.9053 C   0  0  2  0  0  0  0  0  0  0  0  0
   30.2133  -24.1649  -16.2407 N   0  0  0  0  0  0  0  0  0  0  0  0
   28.4147  -22.5476  -16.0428 C   0  0  0  0  0  0  0  0  0  0  0  0
   28.3034  -22.7941  -14.8292 O   0  0  0  0  0  0  0  0  0  0  0  0
   26.5961  -23.0523  -23.3141 N   0  0  0  0  0  0  0  0  0  0  0  0
   27.8926  -21.3370  -16.5502 C   0  0  2  0  0  0  0  0  0  0  0  0
   27.2918  -20.3022  -15.7432 C   0  0  0  0  0  0  0  0  0  0  0  0
   28.0621  -19.0110  -15.8607 S   0  0  0  0  0  0  0  0  0  0  0  0
   27.3334  -17.6954  -14.8713 C   0  0  0  0  0  0  0  0  0  0  0  0
   25.8889  -20.0697  -16.1758 O   0  0  0  0  0  0  0  0  0  0  0  0
   25.6123  -19.7239  -17.3700 N   0  0  0  0  0  0  0  0  0  0  0  0
   18.0433  -21.5053  -12.2652 C   0  0  0  0  0  0  0  0  0  0  0  0
   17.8769  -21.8515  -13.6262 N   0  0  0  0  0  0  0  0  0  0  0  0
   16.7666  -22.3798  -14.0060 N   0  0  0  0  0  0  0  0  0  0  0  0
   18.9392  -21.6066  -14.5352 C   0  0  0  0  0  0  0  0  0  0  0  0
   20.1283  -20.9612  -14.0497 C   0  0  0  0  0  0  0  0  0  0  0  0
   21.2227  -20.9596  -15.1404 C   0  0  0  0  0  0  0  0  0  0  0  0
   22.4349  -20.2204  -14.6445 C   0  0  2  0  0  0  0  0  0  0  0  0
   23.4077  -19.8587  -15.7092 N   0  0  0  0  0  0  0  0  0  0  0  0
   24.7780  -20.2108  -15.3171 C   0  0  0  0  0  0  0  0  0  0  0  0
   23.3919  -18.4186  -15.9586 O   0  0  0  0  0  0  0  0  0  0  0  0
   22.5590  -17.9210  -16.7474 O   0  0  0  0  0  0  0  0  0  0  0  0
  1  2  1  0
  2  4  1  0
  2  3  2  0
  4  5  1  0
  6  5  1  0
  7  6  1  0
  8  7  1  0
  8  9  1  1
 10  8  1  0
 10 12  1  0
 11 10  2  0
 13 16  1  0
 13 12  1  0
 13 14  1  6
 15 14  1  0
 16 17  2  0
 18 19  1  0
 19 21  1  0
 20 19  2  0
 21 22  1  0
 23 24  1  0
 23 22  1  0
 25 24  1  6
 25 27  1  0
 26 25  1  0
 26 16  1  0
 27 28  2  0
 27 29  1  0
M  END
$$$$
