RCR.pdb
     RDKit          3D

 29 28  0  0  1  0  0  0  0  0999 V2000
   25.9055  -10.8270  -17.2475 N   0  0  0  0  0  0  0  0  0  0  0  0
   27.2711  -10.7227  -16.8757 C   0  0  0  0  0  0  0  0  0  0  0  0
   27.9109   -9.6315  -17.0680 N   0  0  0  0  0  0  0  0  0  0  0  0
   27.9758  -11.8151  -16.2806 N   0  0  0  0  0  0  0  0  0  0  0  0
   27.4216  -13.1511  -16.2524 C   0  0  0  0  0  0  0  0  0  0  0  0
   27.2675  -13.6548  -17.6512 C   0  0  0  0  0  0  0  0  0  0  0  0
   26.7337  -15.0361  -17.7349 C   0  0  0  0  0  0  0  0  0  0  0  0
   26.9673  -15.9245  -16.5709 C   0  0  2  0  0  0  0  0  0  0  0  0
   28.2897  -16.4271  -16.4043 N   0  0  0  0  0  0  0  0  0  0  0  0
   25.9458  -17.0246  -16.6020 C   0  0  0  0  0  0  0  0  0  0  0  0
   24.8565  -16.7913  -17.1544 O   0  0  0  0  0  0  0  0  0  0  0  0
   28.8933   -9.4777  -16.7402 N   0  0  0  0  0  0  0  0  0  0  0  0
   26.1716  -18.2987  -16.0354 C   0  0  1  0  0  0  0  0  0  0  0  0
   25.2395  -19.3990  -16.0965 C   0  0  0  0  0  0  0  0  0  0  0  0
   25.8471  -20.6534  -15.5205 S   0  0  0  0  0  0  0  0  0  0  0  0
   27.3923  -21.0922  -16.3333 C   0  0  0  0  0  0  0  0  0  0  0  0
   24.0073  -19.0647  -15.3353 O   0  0  0  0  0  0  0  0  0  0  0  0
   24.0663  -18.5427  -14.1750 N   0  0  0  0  0  0  0  0  0  0  0  0
   18.0835  -13.4104  -16.5414 C   0  0  0  0  0  0  0  0  0  0  0  0
   17.5312  -14.0462  -15.4053 N   0  0  0  0  0  0  0  0  0  0  0  0
   16.5339  -13.4979  -14.8047 N   0  0  0  0  0  0  0  0  0  0  0  0
   18.0924  -15.2713  -14.9593 C   0  0  0  0  0  0  0  0  0  0  0  0
   19.3281  -15.7174  -15.5426 C   0  0  0  0  0  0  0  0  0  0  0  0
   19.7303  -17.0923  -14.9638 C   0  0  0  0  0  0  0  0  0  0  0  0
   21.0311  -17.5401  -15.5715 C   0  0  1  0  0  0  0  0  0  0  0  0
   21.4904  -18.8782  -15.1142 N   0  0  0  0  0  0  0  0  0  0  0  0
   22.7046  -19.2941  -15.8269 C   0  0  0  0  0  0  0  0  0  0  0  0
   20.4724  -19.8936  -15.3771 O   0  0  0  0  0  0  0  0  0  0  0  0
   20.6275  -20.7224  -16.3005 O   0  0  0  0  0  0  0  0  0  0  0  0
  1  2  1  0
  2  4  1  0
  2  3  2  0
  4  5  1  0
  6  5  1  0
  7  6  1  0
  8  7  1  0
  8  9  1  6
 10  8  1  0
 10 12  1  0
 11 10  2  0
 13 16  1  0
 13 12  1  0
 13 14  1  6
 15 14  1  0
 16 17  2  0
 18 19  1  0
 19 21  1  0
 20 19  2  0
 21 22  1  0
 23 24  1  0
 23 22  1  0
 25 24  1  1
 25 27  1  0
 26 25  1  0
 26 16  1  0
 27 28  2  0
 27 29  1  0
M  END
$$$$
