RCR.pdb
     RDKit          3D

 29 28  0  0  1  0  0  0  0  0999 V2000
   30.3180  -25.5843  -15.7691 N   0  0  0  0  0  0  0  0  0  0  0  0
   29.3696  -25.4786  -16.8194 C   0  0  0  0  0  0  0  0  0  0  0  0
   28.5311  -26.4220  -17.0295 N   0  0  0  0  0  0  0  0  0  0  0  0
   29.3135  -24.3321  -17.6718 N   0  0  0  0  0  0  0  0  0  0  0  0
   30.1715  -23.1866  -17.4611 C   0  0  0  0  0  0  0  0  0  0  0  0
   29.4798  -22.2046  -16.5715 C   0  0  0  0  0  0  0  0  0  0  0  0
   28.2630  -21.6060  -17.1721 C   0  0  0  0  0  0  0  0  0  0  0  0
   27.5873  -20.5313  -16.4057 C   0  0  2  0  0  0  0  0  0  0  0  0
   28.4124  -19.4784  -15.9160 N   0  0  0  0  0  0  0  0  0  0  0  0
   26.7763  -21.1665  -15.3134 C   0  0  0  0  0  0  0  0  0  0  0  0
   25.9640  -22.0523  -15.6321 O   0  0  0  0  0  0  0  0  0  0  0  0
   27.8221  -26.3978  -17.7995 N   0  0  0  0  0  0  0  0  0  0  0  0
   26.8989  -20.8016  -13.9542 C   0  0  1  0  0  0  0  0  0  0  0  0
   26.0929  -21.3413  -12.8855 C   0  0  0  0  0  0  0  0  0  0  0  0
   26.5780  -20.8519  -11.5439 S   0  0  0  0  0  0  0  0  0  0  0  0
   25.4756  -21.3385  -10.2065 C   0  0  0  0  0  0  0  0  0  0  0  0
   24.6740  -20.9360  -13.0639 O   0  0  0  0  0  0  0  0  0  0  0  0
   24.3535  -19.7224  -13.2803 N   0  0  0  0  0  0  0  0  0  0  0  0
   17.0740  -25.2814  -12.8377 C   0  0  0  0  0  0  0  0  0  0  0  0
   16.6692  -23.9895  -13.2464 N   0  0  0  0  0  0  0  0  0  0  0  0
   15.4181  -23.6894  -13.2230 N   0  0  0  0  0  0  0  0  0  0  0  0
   17.6543  -23.0600  -13.6709 C   0  0  0  0  0  0  0  0  0  0  0  0
   19.0251  -23.2916  -13.3055 C   0  0  0  0  0  0  0  0  0  0  0  0
   19.9467  -22.2602  -13.9941 C   0  0  0  0  0  0  0  0  0  0  0  0
   21.3857  -22.5960  -13.7141 C   0  0  2  0  0  0  0  0  0  0  0  0
   22.1984  -21.4478  -13.2328 N   0  0  0  0  0  0  0  0  0  0  0  0
   23.5945  -21.8432  -13.0090 C   0  0  0  0  0  0  0  0  0  0  0  0
   21.6868  -20.9486  -11.9578 O   0  0  0  0  0  0  0  0  0  0  0  0
   22.1539  -21.3720  -10.8780 O   0  0  0  0  0  0  0  0  0  0  0  0
  1  2  1  0
  2  4  1  0
  2  3  2  0
  4  5  1  0
  6  5  1  0
  7  6  1  0
  8  7  1  0
  8  9  1  1
 10  8  1  0
 10 12  1  0
 11 10  2  0
 13 16  1  0
 13 12  1  0
 13 14  1  6
 15 14  1  0
 16 17  2  0
 18 19  1  0
 19 21  1  0
 20 19  2  0
 21 22  1  0
 23 24  1  0
 23 22  1  0
 25 24  1  6
 25 27  1  0
 26 25  1  0
 26 16  1  0
 27 28  2  0
 27 29  1  0
M  END
$$$$
