RCR.pdb
     RDKit          3D

 29 28  0  0  1  0  0  0  0  0999 V2000
   18.1856  -24.7241  -19.6480 N   0  0  0  0  0  0  0  0  0  0  0  0
   19.4029  -25.4185  -19.4249 C   0  0  0  0  0  0  0  0  0  0  0  0
   19.6872  -26.4601  -20.1114 N   0  0  0  0  0  0  0  0  0  0  0  0
   20.3459  -24.9892  -18.4396 N   0  0  0  0  0  0  0  0  0  0  0  0
   20.3554  -23.6323  -17.9381 C   0  0  0  0  0  0  0  0  0  0  0  0
   21.0499  -22.7446  -18.9199 C   0  0  0  0  0  0  0  0  0  0  0  0
   21.0723  -21.3155  -18.5236 C   0  0  0  0  0  0  0  0  0  0  0  0
   22.1982  -20.8667  -17.6694 C   0  0  2  0  0  0  0  0  0  0  0  0
   23.3677  -21.6798  -17.6723 N   0  0  0  0  0  0  0  0  0  0  0  0
   21.6761  -20.6349  -16.2808 C   0  0  0  0  0  0  0  0  0  0  0  0
   22.4186  -20.9204  -15.3251 O   0  0  0  0  0  0  0  0  0  0  0  0
   20.5710  -27.0069  -19.9841 N   0  0  0  0  0  0  0  0  0  0  0  0
   20.3901  -20.1113  -16.0210 C   0  0  2  0  0  0  0  0  0  0  0  0
   19.8909  -19.7793  -14.7081 C   0  0  0  0  0  0  0  0  0  0  0  0
   19.7992  -18.2848  -14.5279 S   0  0  0  0  0  0  0  0  0  0  0  0
   18.5134  -17.5564  -15.5559 C   0  0  0  0  0  0  0  0  0  0  0  0
   18.5430  -20.3740  -14.5111 O   0  0  0  0  0  0  0  0  0  0  0  0
   17.7318  -20.5138  -15.4830 N   0  0  0  0  0  0  0  0  0  0  0  0
   15.1112  -25.7471  -10.9092 C   0  0  0  0  0  0  0  0  0  0  0  0
   16.3837  -26.1556  -10.4468 N   0  0  0  0  0  0  0  0  0  0  0  0
   16.6962  -27.4030  -10.4957 N   0  0  0  0  0  0  0  0  0  0  0  0
   17.2806  -25.1784   -9.9416 C   0  0  0  0  0  0  0  0  0  0  0  0
   16.9318  -23.7897  -10.0690 C   0  0  0  0  0  0  0  0  0  0  0  0
   17.1224  -23.3193  -11.5283 C   0  0  0  0  0  0  0  0  0  0  0  0
   16.5660  -21.9318  -11.6930 C   0  0  2  0  0  0  0  0  0  0  0  0
   16.7199  -21.3704  -13.0611 N   0  0  0  0  0  0  0  0  0  0  0  0
   18.0665  -20.8203  -13.2601 C   0  0  0  0  0  0  0  0  0  0  0  0
   15.7755  -20.2769  -13.2822 O   0  0  0  0  0  0  0  0  0  0  0  0
   16.1186  -19.0920  -13.0780 O   0  0  0  0  0  0  0  0  0  0  0  0
  1  2  1  0
  2  4  1  0
  2  3  2  0
  4  5  1  0
  6  5  1  0
  7  6  1  0
  8  7  1  0
  8  9  1  1
 10  8  1  0
 10 12  1  0
 11 10  2  0
 13 16  1  0
 13 12  1  0
 13 14  1  6
 15 14  1  0
 16 17  2  0
 18 19  1  0
 19 21  1  0
 20 19  2  0
 21 22  1  0
 23 24  1  0
 23 22  1  0
 25 24  1  6
 25 27  1  0
 26 25  1  0
 26 16  1  0
 27 28  2  0
 27 29  1  0
M  END
$$$$
