RCR.pdb
     RDKit          3D

 29 28  0  0  1  0  0  0  0  0999 V2000
   27.7853  -15.2176  -18.7453 N   0  0  0  0  0  0  0  0  0  0  0  0
   26.8216  -16.0644  -18.1385 C   0  0  0  0  0  0  0  0  0  0  0  0
   25.6267  -16.1125  -18.5935 N   0  0  0  0  0  0  0  0  0  0  0  0
   27.1418  -16.8847  -17.0121 N   0  0  0  0  0  0  0  0  0  0  0  0
   26.2065  -17.8573  -16.4906 C   0  0  0  0  0  0  0  0  0  0  0  0
   26.8295  -18.5779  -15.3387 C   0  0  0  0  0  0  0  0  0  0  0  0
   27.9119  -19.5126  -15.7317 C   0  0  0  0  0  0  0  0  0  0  0  0
   28.4464  -20.4111  -14.6802 C   0  0  2  0  0  0  0  0  0  0  0  0
   29.4757  -21.3144  -15.0723 N   0  0  0  0  0  0  0  0  0  0  0  0
   27.2925  -21.1189  -14.0305 C   0  0  0  0  0  0  0  0  0  0  0  0
   26.8270  -22.1195  -14.6033 O   0  0  0  0  0  0  0  0  0  0  0  0
   24.8847  -16.7319  -18.1910 N   0  0  0  0  0  0  0  0  0  0  0  0
   26.7225  -20.6976  -12.8086 C   0  0  2  0  0  0  0  0  0  0  0  0
   25.7222  -21.4347  -12.0743 C   0  0  0  0  0  0  0  0  0  0  0  0
   25.8761  -21.2206  -10.5894 S   0  0  0  0  0  0  0  0  0  0  0  0
   25.6392  -19.4973  -10.1257 C   0  0  0  0  0  0  0  0  0  0  0  0
   24.3629  -20.9980  -12.4877 O   0  0  0  0  0  0  0  0  0  0  0  0
   24.0871  -19.7671  -12.6636 N   0  0  0  0  0  0  0  0  0  0  0  0
   17.3063  -25.4856  -15.5037 C   0  0  0  0  0  0  0  0  0  0  0  0
   16.7918  -24.1756  -15.3657 N   0  0  0  0  0  0  0  0  0  0  0  0
   15.5692  -23.9459  -15.6951 N   0  0  0  0  0  0  0  0  0  0  0  0
   17.6382  -23.1507  -14.8678 C   0  0  0  0  0  0  0  0  0  0  0  0
   18.9797  -23.4912  -14.4794 C   0  0  0  0  0  0  0  0  0  0  0  0
   19.7099  -22.2488  -13.9224 C   0  0  0  0  0  0  0  0  0  0  0  0
   21.1343  -22.6006  -13.5919 C   0  0  1  0  0  0  0  0  0  0  0  0
   21.9484  -21.4566  -13.1030 N   0  0  0  0  0  0  0  0  0  0  0  0
   23.2949  -21.8925  -12.7128 C   0  0  0  0  0  0  0  0  0  0  0  0
   21.3364  -20.8523  -11.9212 O   0  0  0  0  0  0  0  0  0  0  0  0
   21.6743  -21.2194  -10.7746 O   0  0  0  0  0  0  0  0  0  0  0  0
  1  2  1  0
  2  4  1  0
  2  3  2  0
  4  5  1  0
  6  5  1  0
  7  6  1  0
  8  7  1  0
  8  9  1  6
 10  8  1  0
 10 12  1  0
 11 10  2  0
 13 16  1  0
 13 12  1  0
 13 14  1  1
 15 14  1  0
 16 17  2  0
 18 19  1  0
 19 21  1  0
 20 19  2  0
 21 22  1  0
 23 24  1  0
 23 22  1  0
 25 24  1  6
 25 27  1  0
 26 25  1  0
 26 16  1  0
 27 28  2  0
 27 29  1  0
M  END
$$$$
