RCR.pdb
     RDKit          3D

 29 28  0  0  1  0  0  0  0  0999 V2000
   24.6675  -15.1265  -16.4811 N   0  0  0  0  0  0  0  0  0  0  0  0
   26.0030  -14.9833  -16.0231 C   0  0  0  0  0  0  0  0  0  0  0  0
   26.3904  -13.8835  -15.4964 N   0  0  0  0  0  0  0  0  0  0  0  0
   26.9545  -16.0452  -16.1299 N   0  0  0  0  0  0  0  0  0  0  0  0
   26.5697  -17.3678  -16.5718 C   0  0  0  0  0  0  0  0  0  0  0  0
   27.4355  -18.3865  -15.9032 C   0  0  0  0  0  0  0  0  0  0  0  0
   26.6840  -19.3598  -15.0740 C   0  0  0  0  0  0  0  0  0  0  0  0
   27.4607  -20.4531  -14.4412 C   0  0  2  0  0  0  0  0  0  0  0  0
   28.2169  -21.2885  -15.3126 N   0  0  0  0  0  0  0  0  0  0  0  0
   26.5352  -21.2451  -13.5634 C   0  0  0  0  0  0  0  0  0  0  0  0
   25.8755  -22.1588  -14.0885 O   0  0  0  0  0  0  0  0  0  0  0  0
   27.3698  -13.7209  -15.1637 N   0  0  0  0  0  0  0  0  0  0  0  0
   26.3870  -20.9957  -12.1808 C   0  0  2  0  0  0  0  0  0  0  0  0
   25.2675  -21.4379  -11.3844 C   0  0  0  0  0  0  0  0  0  0  0  0
   25.4888  -21.1298   -9.9247 S   0  0  0  0  0  0  0  0  0  0  0  0
   27.1120  -20.4122   -9.6227 C   0  0  0  0  0  0  0  0  0  0  0  0
   24.0228  -20.7638  -11.8378 O   0  0  0  0  0  0  0  0  0  0  0  0
   24.0322  -19.5550  -12.2390 N   0  0  0  0  0  0  0  0  0  0  0  0
   19.1600  -22.8082  -18.3040 C   0  0  0  0  0  0  0  0  0  0  0  0
   18.3905  -21.7343  -17.7994 N   0  0  0  0  0  0  0  0  0  0  0  0
   17.4105  -21.2834  -18.5010 N   0  0  0  0  0  0  0  0  0  0  0  0
   18.7208  -21.1839  -16.5335 C   0  0  0  0  0  0  0  0  0  0  0  0
   19.8718  -21.6924  -15.8386 C   0  0  0  0  0  0  0  0  0  0  0  0
   20.0804  -20.9277  -14.5124 C   0  0  0  0  0  0  0  0  0  0  0  0
   21.3231  -21.4257  -13.8272 C   0  0  1  0  0  0  0  0  0  0  0  0
   21.5774  -20.8083  -12.4989 N   0  0  0  0  0  0  0  0  0  0  0  0
   22.7612  -21.3955  -11.8591 C   0  0  0  0  0  0  0  0  0  0  0  0
   20.4492  -21.0340  -11.5975 O   0  0  0  0  0  0  0  0  0  0  0  0
   19.3747  -20.4153  -11.7598 O   0  0  0  0  0  0  0  0  0  0  0  0
  1  2  1  0
  2  4  1  0
  2  3  2  0
  4  5  1  0
  6  5  1  0
  7  6  1  0
  8  7  1  0
  8  9  1  6
 10  8  1  0
 10 12  1  0
 11 10  2  0
 13 16  1  0
 13 12  1  0
 13 14  1  6
 15 14  1  0
 16 17  2  0
 18 19  1  0
 19 21  1  0
 20 19  2  0
 21 22  1  0
 23 24  1  0
 23 22  1  0
 25 24  1  6
 25 27  1  0
 26 25  1  0
 26 16  1  0
 27 28  2  0
 27 29  1  0
M  END
$$$$
