WSY.pdb
     RDKit          3D

 33 35  0  0  1  0  0  0  0  0999 V2000
   26.0436  -18.8453  -11.8096 N   0  0  0  0  0  0  0  0  0  0  0  0
   26.8422  -19.9932  -12.0411 C   0  0  1  0  0  0  0  0  0  0  0  0
   26.5890  -21.1696  -11.1424 C   0  0  0  0  0  0  0  0  0  0  0  0
   26.4734  -20.8303   -9.7083 C   0  0  0  0  0  0  0  0  0  0  0  0
   25.3407  -20.3997   -9.0281 C   0  0  0  0  0  0  0  0  0  0  0  0
   25.6552  -20.2224   -7.7530 N   0  0  0  0  0  0  0  0  0  0  0  0
   26.9570  -20.5139   -7.5333 C   0  0  0  0  0  0  0  0  0  0  0  0
   27.6956  -20.4610   -6.3599 C   0  0  0  0  0  0  0  0  0  0  0  0
   29.0231  -20.8169   -6.4578 C   0  0  0  0  0  0  0  0  0  0  0  0
   29.5672  -21.2012   -7.6663 C   0  0  0  0  0  0  0  0  0  0  0  0
   28.8142  -21.2458   -8.8166 C   0  0  0  0  0  0  0  0  0  0  0  0
   27.4744  -20.8945   -8.7527 C   0  0  0  0  0  0  0  0  0  0  0  0
   26.7010  -20.5006  -13.4535 C   0  0  0  0  0  0  0  0  0  0  0  0
   25.5960  -20.4145  -14.0454 O   0  0  0  0  0  0  0  0  0  0  0  0
   29.5622  -22.7567  -15.0539 O   0  0  0  0  0  0  0  0  0  0  0  0
   29.1661  -21.7797  -15.9729 C   0  0  0  0  0  0  0  0  0  0  0  0
   27.7742  -21.2697  -15.5945 C   0  0  2  0  0  0  0  0  0  0  0  0
   27.7919  -21.0830  -14.1526 N   0  0  0  0  0  0  0  0  0  0  0  0
   26.7818  -22.3168  -15.9477 C   0  0  0  0  0  0  0  0  0  0  0  0
   26.6904  -23.3560  -15.2484 O   0  0  0  0  0  0  0  0  0  0  0  0
   21.0060  -18.1970  -15.8532 O   0  0  0  0  0  0  0  0  0  0  0  0
   21.7255  -19.3839  -15.8851 C   0  0  0  0  0  0  0  0  0  0  0  0
   21.2419  -20.4473  -16.6155 C   0  0  0  0  0  0  0  0  0  0  0  0
   21.9742  -21.6288  -16.6375 C   0  0  0  0  0  0  0  0  0  0  0  0
   23.1638  -21.7621  -15.9517 C   0  0  0  0  0  0  0  0  0  0  0  0
   23.8783  -23.0531  -16.0101 C   0  0  0  0  0  0  0  0  0  0  0  0
   24.7710  -23.0943  -17.2100 C   0  0  2  0  0  0  0  0  0  0  0  0
   25.9121  -22.1996  -17.0611 N   0  0  0  0  0  0  0  0  0  0  0  0
   24.0995  -22.7722  -18.4810 C   0  0  0  0  0  0  0  0  0  0  0  0
   24.3836  -21.6806  -19.0715 O   0  0  0  0  0  0  0  0  0  0  0  0
   23.6182  -20.6797  -15.2316 C   0  0  0  0  0  0  0  0  0  0  0  0
   22.9111  -19.4952  -15.1928 C   0  0  0  0  0  0  0  0  0  0  0  0
   23.1636  -23.5577  -19.1213 O   0  0  0  0  0  0  0  0  0  0  0  0
  2  1  1  1
  2 13  1  0
  2  3  1  0
  4  5  2  0
  4  3  1  0
  6  5  1  0
  7 12  2  0
  7  6  1  0
  8  7  1  0
  9 10  1  0
  9  8  2  0
 10 11  2  0
 11 12  1  0
 12  4  1  0
 13 14  2  0
 16 15  1  0
 17 16  1  1
 18 17  1  0
 18 13  1  0
 19 20  2  0
 19 17  1  0
 21 22  1  0
 22 23  2  0
 23 24  1  0
 25 26  1  0
 25 24  2  0
 27 26  1  1
 27 28  1  0
 28 19  1  0
 29 27  1  0
 29 33  1  0
 30 29  2  0
 31 25  1  0
 32 31  2  0
 32 22  1  0
M  END
$$$$
