WSY.pdb
     RDKit          3D

 33 35  0  0  1  0  0  0  0  0999 V2000
   26.3942  -22.7816  -12.8902 N   0  0  0  0  0  0  0  0  0  0  0  0
   25.7461  -21.8842  -12.0051 C   0  0  1  0  0  0  0  0  0  0  0  0
   26.4115  -20.5525  -11.8061 C   0  0  0  0  0  0  0  0  0  0  0  0
   27.6301  -20.5961  -10.9704 C   0  0  0  0  0  0  0  0  0  0  0  0
   28.9361  -20.8227  -11.3878 C   0  0  0  0  0  0  0  0  0  0  0  0
   29.7340  -20.7623  -10.3314 N   0  0  0  0  0  0  0  0  0  0  0  0
   29.0269  -20.5040   -9.2083 C   0  0  0  0  0  0  0  0  0  0  0  0
   29.4582  -20.3647   -7.8969 C   0  0  0  0  0  0  0  0  0  0  0  0
   28.4832  -20.1072   -6.9579 C   0  0  0  0  0  0  0  0  0  0  0  0
   27.1571  -19.9982   -7.3237 C   0  0  0  0  0  0  0  0  0  0  0  0
   26.7539  -20.1403   -8.6312 C   0  0  0  0  0  0  0  0  0  0  0  0
   27.7101  -20.3993   -9.6014 C   0  0  0  0  0  0  0  0  0  0  0  0
   24.3321  -21.5912  -12.4372 C   0  0  0  0  0  0  0  0  0  0  0  0
   24.0309  -21.6075  -13.6570 O   0  0  0  0  0  0  0  0  0  0  0  0
   21.5504  -19.8533   -9.9430 O   0  0  0  0  0  0  0  0  0  0  0  0
   21.1228  -21.0201  -10.5847 C   0  0  0  0  0  0  0  0  0  0  0  0
   21.9103  -21.1954  -11.8846 C   0  0  2  0  0  0  0  0  0  0  0  0
   23.3088  -21.2921  -11.4984 N   0  0  0  0  0  0  0  0  0  0  0  0
   21.7080  -19.9837  -12.7194 C   0  0  0  0  0  0  0  0  0  0  0  0
   22.5811  -19.0811  -12.7372 O   0  0  0  0  0  0  0  0  0  0  0  0
   20.8838  -14.3644  -19.0447 O   0  0  0  0  0  0  0  0  0  0  0  0
   21.0518  -15.4095  -18.1464 C   0  0  0  0  0  0  0  0  0  0  0  0
   21.5858  -15.1518  -16.9027 C   0  0  0  0  0  0  0  0  0  0  0  0
   21.7475  -16.2089  -16.0146 C   0  0  0  0  0  0  0  0  0  0  0  0
   21.3895  -17.4997  -16.3447 C   0  0  0  0  0  0  0  0  0  0  0  0
   21.6049  -18.5736  -15.3543 C   0  0  0  0  0  0  0  0  0  0  0  0
   20.4476  -18.6424  -14.4087 C   0  0  2  0  0  0  0  0  0  0  0  0
   20.5513  -19.7900  -13.5159 N   0  0  0  0  0  0  0  0  0  0  0  0
   19.1281  -18.6885  -15.0620 C   0  0  0  0  0  0  0  0  0  0  0  0
   18.6775  -19.8079  -15.4678 O   0  0  0  0  0  0  0  0  0  0  0  0
   20.8590  -17.7221  -17.5959 C   0  0  0  0  0  0  0  0  0  0  0  0
   20.6875  -16.6909  -18.4968 C   0  0  0  0  0  0  0  0  0  0  0  0
   18.3003  -17.6081  -15.2867 O   0  0  0  0  0  0  0  0  0  0  0  0
  2  1  1  6
  2 13  1  0
  2  3  1  0
  4  5  2  0
  4  3  1  0
  6  5  1  0
  7 12  2  0
  7  6  1  0
  8  7  1  0
  9 10  1  0
  9  8  2  0
 10 11  2  0
 11 12  1  0
 12  4  1  0
 13 14  2  0
 16 15  1  0
 17 16  1  1
 18 17  1  0
 18 13  1  0
 19 20  2  0
 19 17  1  0
 21 22  1  0
 22 23  2  0
 23 24  1  0
 25 26  1  0
 25 24  2  0
 27 26  1  6
 27 28  1  0
 28 19  1  0
 29 27  1  0
 29 33  1  0
 30 29  2  0
 31 25  1  0
 32 31  2  0
 32 22  1  0
M  END
$$$$
