WSY.pdb
     RDKit          3D

 33 35  0  0  1  0  0  0  0  0999 V2000
   21.6814  -18.0235  -17.7186 N   0  0  0  0  0  0  0  0  0  0  0  0
   20.9153  -17.5473  -16.6254 C   0  0  1  0  0  0  0  0  0  0  0  0
   19.7984  -16.6007  -16.9606 C   0  0  0  0  0  0  0  0  0  0  0  0
   20.2373  -15.3289  -17.5728 C   0  0  0  0  0  0  0  0  0  0  0  0
   20.8460  -15.1492  -18.8091 C   0  0  0  0  0  0  0  0  0  0  0  0
   21.0614  -13.8542  -18.9900 N   0  0  0  0  0  0  0  0  0  0  0  0
   20.6251  -13.1406  -17.9277 C   0  0  0  0  0  0  0  0  0  0  0  0
   20.6585  -11.7724  -17.6997 C   0  0  0  0  0  0  0  0  0  0  0  0
   20.1357  -11.3406  -16.5003 C   0  0  0  0  0  0  0  0  0  0  0  0
   19.6131  -12.2369  -15.5905 C   0  0  0  0  0  0  0  0  0  0  0  0
   19.5911  -13.5896  -15.8394 C   0  0  0  0  0  0  0  0  0  0  0  0
   20.1088  -14.0575  -17.0375 C   0  0  0  0  0  0  0  0  0  0  0  0
   20.2943  -18.6747  -15.8407 C   0  0  0  0  0  0  0  0  0  0  0  0
   20.0004  -19.7533  -16.4144 O   0  0  0  0  0  0  0  0  0  0  0  0
   19.7963  -18.5225  -11.6046 O   0  0  0  0  0  0  0  0  0  0  0  0
   20.1992  -19.6456  -12.3344 C   0  0  0  0  0  0  0  0  0  0  0  0
   19.4685  -19.6593  -13.6784 C   0  0  2  0  0  0  0  0  0  0  0  0
   20.0249  -18.5600  -14.4507 N   0  0  0  0  0  0  0  0  0  0  0  0
   18.0259  -19.4101  -13.4275 C   0  0  0  0  0  0  0  0  0  0  0  0
   17.6319  -18.2569  -13.1240 O   0  0  0  0  0  0  0  0  0  0  0  0
   14.2623  -25.6525  -16.0839 O   0  0  0  0  0  0  0  0  0  0  0  0
   14.4268  -24.3215  -15.7252 C   0  0  0  0  0  0  0  0  0  0  0  0
   13.4994  -23.7252  -14.8989 C   0  0  0  0  0  0  0  0  0  0  0  0
   13.6784  -22.3918  -14.5488 C   0  0  0  0  0  0  0  0  0  0  0  0
   14.7529  -21.6562  -15.0044 C   0  0  0  0  0  0  0  0  0  0  0  0
   14.8683  -20.2402  -14.6019 C   0  0  0  0  0  0  0  0  0  0  0  0
   15.6356  -20.1289  -13.3224 C   0  0  2  0  0  0  0  0  0  0  0  0
   17.0481  -20.4329  -13.5153 N   0  0  0  0  0  0  0  0  0  0  0  0
   15.1291  -20.9796  -12.2316 C   0  0  0  0  0  0  0  0  0  0  0  0
   15.8580  -21.9291  -11.7982 O   0  0  0  0  0  0  0  0  0  0  0  0
   15.6608  -22.2831  -15.8288 C   0  0  0  0  0  0  0  0  0  0  0  0
   15.5072  -23.6056  -16.1918 C   0  0  0  0  0  0  0  0  0  0  0  0
   13.9056  -20.8494  -11.6079 O   0  0  0  0  0  0  0  0  0  0  0  0
  2  1  1  6
  2 13  1  0
  2  3  1  0
  4  5  2  0
  4  3  1  0
  6  5  1  0
  7 12  2  0
  7  6  1  0
  8  7  1  0
  9 10  1  0
  9  8  2  0
 10 11  2  0
 11 12  1  0
 12  4  1  0
 13 14  2  0
 16 15  1  0
 17 16  1  1
 18 17  1  0
 18 13  1  0
 19 20  2  0
 19 17  1  0
 21 22  1  0
 22 23  2  0
 23 24  1  0
 25 26  1  0
 25 24  2  0
 27 26  1  6
 27 28  1  0
 28 19  1  0
 29 27  1  0
 29 33  1  0
 30 29  2  0
 31 25  1  0
 32 31  2  0
 32 22  1  0
M  END
$$$$
