WSY.pdb
     RDKit          3D

 33 35  0  0  1  0  0  0  0  0999 V2000
   28.2101  -21.4378  -14.1647 N   0  0  0  0  0  0  0  0  0  0  0  0
   27.0917  -21.6758  -13.3273 C   0  0  1  0  0  0  0  0  0  0  0  0
   26.9101  -20.7266  -12.1776 C   0  0  0  0  0  0  0  0  0  0  0  0
   27.9094  -20.8743  -11.0985 C   0  0  0  0  0  0  0  0  0  0  0  0
   29.2621  -21.1643  -11.2301 C   0  0  0  0  0  0  0  0  0  0  0  0
   29.8082  -21.1907  -10.0229 N   0  0  0  0  0  0  0  0  0  0  0  0
   28.8841  -20.9310   -9.0708 C   0  0  0  0  0  0  0  0  0  0  0  0
   29.0207  -20.8657   -7.6916 C   0  0  0  0  0  0  0  0  0  0  0  0
   27.8765  -20.5840   -6.9776 C   0  0  0  0  0  0  0  0  0  0  0  0
   26.6717  -20.3816   -7.6193 C   0  0  0  0  0  0  0  0  0  0  0  0
   26.5614  -20.4514   -8.9887 C   0  0  0  0  0  0  0  0  0  0  0  0
   27.6942  -20.7324   -9.7372 C   0  0  0  0  0  0  0  0  0  0  0  0
   25.7973  -21.6587  -14.0997 C   0  0  0  0  0  0  0  0  0  0  0  0
   25.5368  -20.7005  -14.8696 O   0  0  0  0  0  0  0  0  0  0  0  0
   23.0821  -24.8290  -13.7882 O   0  0  0  0  0  0  0  0  0  0  0  0
   23.2462  -24.1556  -15.0030 C   0  0  0  0  0  0  0  0  0  0  0  0
   23.5900  -22.6914  -14.7227 C   0  0  2  0  0  0  0  0  0  0  0  0
   24.8441  -22.7058  -13.9869 N   0  0  0  0  0  0  0  0  0  0  0  0
   22.5195  -22.1162  -13.8688 C   0  0  0  0  0  0  0  0  0  0  0  0
   22.7502  -21.8594  -12.6613 O   0  0  0  0  0  0  0  0  0  0  0  0
   21.5605  -16.5046  -17.5294 O   0  0  0  0  0  0  0  0  0  0  0  0
   21.3289  -17.3193  -16.4294 C   0  0  0  0  0  0  0  0  0  0  0  0
   22.3978  -17.8981  -15.7807 C   0  0  0  0  0  0  0  0  0  0  0  0
   22.1493  -18.7111  -14.6808 C   0  0  0  0  0  0  0  0  0  0  0  0
   20.8691  -18.9510  -14.2259 C   0  0  0  0  0  0  0  0  0  0  0  0
   20.6824  -19.8380  -13.0602 C   0  0  0  0  0  0  0  0  0  0  0  0
   20.2271  -21.1905  -13.5092 C   0  0  2  0  0  0  0  0  0  0  0  0
   21.2194  -21.8359  -14.3598 N   0  0  0  0  0  0  0  0  0  0  0  0
   18.9393  -21.1941  -14.2245 C   0  0  0  0  0  0  0  0  0  0  0  0
   18.9081  -21.5696  -15.4406 O   0  0  0  0  0  0  0  0  0  0  0  0
   19.8238  -18.3570  -14.8975 C   0  0  0  0  0  0  0  0  0  0  0  0
   20.0424  -17.5454  -15.9921 C   0  0  0  0  0  0  0  0  0  0  0  0
   17.7210  -20.8215  -13.6955 O   0  0  0  0  0  0  0  0  0  0  0  0
  2  1  1  6
  2 13  1  0
  2  3  1  0
  4  5  2  0
  4  3  1  0
  6  5  1  0
  7 12  2  0
  7  6  1  0
  8  7  1  0
  9 10  1  0
  9  8  2  0
 10 11  2  0
 11 12  1  0
 12  4  1  0
 13 14  2  0
 16 15  1  0
 17 16  1  1
 18 17  1  0
 18 13  1  0
 19 20  2  0
 19 17  1  0
 21 22  1  0
 22 23  2  0
 23 24  1  0
 25 26  1  0
 25 24  2  0
 27 26  1  6
 27 28  1  0
 28 19  1  0
 29 27  1  0
 29 33  1  0
 30 29  2  0
 31 25  1  0
 32 31  2  0
 32 22  1  0
M  END
$$$$
