WSY.pdb
     RDKit          3D

 33 35  0  0  1  0  0  0  0  0999 V2000
   25.3826  -22.0494   -8.9376 N   0  0  0  0  0  0  0  0  0  0  0  0
   25.2604  -21.0081   -9.8913 C   0  0  1  0  0  0  0  0  0  0  0  0
   26.5240  -20.5993  -10.5926 C   0  0  0  0  0  0  0  0  0  0  0  0
   27.7239  -20.5798   -9.7296 C   0  0  0  0  0  0  0  0  0  0  0  0
   28.9525  -21.1821   -9.9727 C   0  0  0  0  0  0  0  0  0  0  0  0
   29.7643  -20.9100   -8.9613 N   0  0  0  0  0  0  0  0  0  0  0  0
   29.1410  -20.1463   -8.0359 C   0  0  0  0  0  0  0  0  0  0  0  0
   29.6133  -19.6429   -6.8323 C   0  0  0  0  0  0  0  0  0  0  0  0
   28.7242  -18.8933   -6.0934 C   0  0  0  0  0  0  0  0  0  0  0  0
   27.4396  -18.6683   -6.5445 C   0  0  0  0  0  0  0  0  0  0  0  0
   26.9944  -19.1782   -7.7420 C   0  0  0  0  0  0  0  0  0  0  0  0
   27.8642  -19.9366   -8.5106 C   0  0  0  0  0  0  0  0  0  0  0  0
   24.2670  -21.3497  -10.9724 C   0  0  0  0  0  0  0  0  0  0  0  0
   24.4528  -22.3553  -11.7025 O   0  0  0  0  0  0  0  0  0  0  0  0
   20.9048  -18.9916  -11.4563 O   0  0  0  0  0  0  0  0  0  0  0  0
   20.7506  -20.3802  -11.5187 C   0  0  0  0  0  0  0  0  0  0  0  0
   22.0327  -21.0031  -12.0745 C   0  0  2  0  0  0  0  0  0  0  0  0
   23.1070  -20.5618  -11.1996 N   0  0  0  0  0  0  0  0  0  0  0  0
   22.2552  -20.4696  -13.4427 C   0  0  0  0  0  0  0  0  0  0  0  0
   22.8763  -19.3897  -13.6017 O   0  0  0  0  0  0  0  0  0  0  0  0
   23.3070  -26.7788  -16.0660 O   0  0  0  0  0  0  0  0  0  0  0  0
   23.3143  -25.3939  -16.1631 C   0  0  0  0  0  0  0  0  0  0  0  0
   22.5746  -24.7824  -17.1516 C   0  0  0  0  0  0  0  0  0  0  0  0
   22.5922  -23.3948  -17.2354 C   0  0  0  0  0  0  0  0  0  0  0  0
   23.3261  -22.6208  -16.3604 C   0  0  0  0  0  0  0  0  0  0  0  0
   23.3076  -21.1530  -16.5210 C   0  0  0  0  0  0  0  0  0  0  0  0
   22.0557  -20.5857  -15.9303 C   0  0  2  0  0  0  0  0  0  0  0  0
   21.7906  -21.1338  -14.6058 N   0  0  0  0  0  0  0  0  0  0  0  0
   20.8503  -20.7784  -16.7550 C   0  0  0  0  0  0  0  0  0  0  0  0
   20.8444  -20.3458  -17.9523 O   0  0  0  0  0  0  0  0  0  0  0  0
   24.0542  -23.2644  -15.3846 C   0  0  0  0  0  0  0  0  0  0  0  0
   24.0543  -24.6404  -15.2788 C   0  0  0  0  0  0  0  0  0  0  0  0
   19.6875  -21.4016  -16.3520 O   0  0  0  0  0  0  0  0  0  0  0  0
  2  1  1  1
  2 13  1  0
  2  3  1  0
  4  5  2  0
  4  3  1  0
  6  5  1  0
  7 12  2  0
  7  6  1  0
  8  7  1  0
  9 10  1  0
  9  8  2  0
 10 11  2  0
 11 12  1  0
 12  4  1  0
 13 14  2  0
 16 15  1  0
 17 16  1  1
 18 17  1  0
 18 13  1  0
 19 20  2  0
 19 17  1  0
 21 22  1  0
 22 23  2  0
 23 24  1  0
 25 26  1  0
 25 24  2  0
 27 26  1  6
 27 28  1  0
 28 19  1  0
 29 27  1  0
 29 33  1  0
 30 29  2  0
 31 25  1  0
 32 31  2  0
 32 22  1  0
M  END
$$$$
