WSY.pdb
     RDKit          3D

 33 35  0  0  1  0  0  0  0  0999 V2000
   18.4798   -7.0975  -13.4260 N   0  0  0  0  0  0  0  0  0  0  0  0
   19.4628   -7.1485  -14.4458 C   0  0  1  0  0  0  0  0  0  0  0  0
   20.8610   -7.4730  -14.0036 C   0  0  0  0  0  0  0  0  0  0  0  0
   21.8523   -6.4123  -14.2818 C   0  0  0  0  0  0  0  0  0  0  0  0
   21.8330   -5.0963  -13.8357 C   0  0  0  0  0  0  0  0  0  0  0  0
   22.9129   -4.4791  -14.2928 N   0  0  0  0  0  0  0  0  0  0  0  0
   23.6701   -5.3192  -15.0338 C   0  0  0  0  0  0  0  0  0  0  0  0
   24.8670   -5.0887  -15.6967 C   0  0  0  0  0  0  0  0  0  0  0  0
   25.3998   -6.1577  -16.3836 C   0  0  0  0  0  0  0  0  0  0  0  0
   24.7613   -7.3810  -16.3981 C   0  0  0  0  0  0  0  0  0  0  0  0
   23.5749   -7.5851  -15.7326 C   0  0  0  0  0  0  0  0  0  0  0  0
   23.0118   -6.5300  -15.0309 C   0  0  0  0  0  0  0  0  0  0  0  0
   19.1126   -8.1521  -15.5146 C   0  0  0  0  0  0  0  0  0  0  0  0
   18.5085   -9.2109  -15.2096 O   0  0  0  0  0  0  0  0  0  0  0  0
   20.4550   -7.5585  -19.3759 O   0  0  0  0  0  0  0  0  0  0  0  0
   19.2143   -8.1895  -19.2394 C   0  0  0  0  0  0  0  0  0  0  0  0
   19.1748   -8.9352  -17.9041 C   0  0  2  0  0  0  0  0  0  0  0  0
   19.4463   -7.9404  -16.8790 N   0  0  0  0  0  0  0  0  0  0  0  0
   20.2556   -9.9539  -17.9066 C   0  0  0  0  0  0  0  0  0  0  0  0
   21.3031   -9.7589  -17.2418 O   0  0  0  0  0  0  0  0  0  0  0  0
   16.3228  -15.7140  -16.2997 O   0  0  0  0  0  0  0  0  0  0  0  0
   17.4861  -14.9789  -16.4832 C   0  0  0  0  0  0  0  0  0  0  0  0
   18.5831  -15.5830  -17.0574 C   0  0  0  0  0  0  0  0  0  0  0  0
   19.7405  -14.8334  -17.2345 C   0  0  0  0  0  0  0  0  0  0  0  0
   19.8174  -13.5100  -16.8525 C   0  0  0  0  0  0  0  0  0  0  0  0
   21.0856  -12.7822  -17.0587 C   0  0  0  0  0  0  0  0  0  0  0  0
   21.1413  -12.2267  -18.4466 C   0  0  2  0  0  0  0  0  0  0  0  0
   20.1622  -11.1641  -18.6392 N   0  0  0  0  0  0  0  0  0  0  0  0
   20.9479  -13.2258  -19.5117 C   0  0  0  0  0  0  0  0  0  0  0  0
   19.9517  -13.1092  -20.2959 O   0  0  0  0  0  0  0  0  0  0  0  0
   18.7027  -12.9374  -16.2815 C   0  0  0  0  0  0  0  0  0  0  0  0
   17.5411  -13.6586  -16.0943 C   0  0  0  0  0  0  0  0  0  0  0  0
   21.7624  -14.3116  -19.7577 O   0  0  0  0  0  0  0  0  0  0  0  0
  2  1  1  1
  2 13  1  0
  2  3  1  0
  4  5  2  0
  4  3  1  0
  6  5  1  0
  7 12  2  0
  7  6  1  0
  8  7  1  0
  9 10  1  0
  9  8  2  0
 10 11  2  0
 11 12  1  0
 12  4  1  0
 13 14  2  0
 16 15  1  0
 17 16  1  6
 18 17  1  0
 18 13  1  0
 19 20  2  0
 19 17  1  0
 21 22  1  0
 22 23  2  0
 23 24  1  0
 25 26  1  0
 25 24  2  0
 27 26  1  1
 27 28  1  0
 28 19  1  0
 29 27  1  0
 29 33  1  0
 30 29  2  0
 31 25  1  0
 32 31  2  0
 32 22  1  0
M  END
$$$$
