HYI.pdb
     RDKit          3D

 31 32  0  0  1  0  0  0  0  0999 V2000
   10.0156  -18.4264   19.3039 N   0  0  0  0  0  0  0  0  0  0  0  0
   10.6703  -17.6762   20.3550 C   0  0  1  0  0  0  0  0  0  0  0  0
   11.1563  -16.3859   19.7476 C   0  0  0  0  0  0  0  0  0  0  0  0
   12.4104  -16.6636   19.0014 C   0  0  0  0  0  0  0  0  0  0  0  0
   12.6726  -16.5474   17.6479 C   0  0  0  0  0  0  0  0  0  0  0  0
   13.9362  -16.8975   17.3731 N   0  0  0  0  0  0  0  0  0  0  0  0
   14.5022  -17.2438   18.5517 C   0  0  0  0  0  0  0  0  0  0  0  0
   13.5935  -17.1047   19.5228 N   0  0  0  0  0  0  0  0  0  0  0  0
    9.7541  -17.4380   21.5016 C   0  0  0  0  0  0  0  0  0  0  0  0
    8.5848  -17.0966   21.2570 O   0  0  0  0  0  0  0  0  0  0  0  0
   13.8753  -20.5567   26.9057 O   0  0  0  0  0  0  0  0  0  0  0  0
   12.7063  -20.0939   26.3559 C   0  0  0  0  0  0  0  0  0  0  0  0
   12.3511  -20.4483   25.0721 C   0  0  0  0  0  0  0  0  0  0  0  0
   11.1532  -19.9368   24.5931 C   0  0  0  0  0  0  0  0  0  0  0  0
   10.3513  -19.1255   25.3300 C   0  0  0  0  0  0  0  0  0  0  0  0
    9.0796  -18.5908   24.8001 C   0  0  0  0  0  0  0  0  0  0  0  0
    9.2486  -17.3473   23.9641 C   0  0  2  0  0  0  0  0  0  0  0  0
   10.1484  -17.5808   22.8469 N   0  0  0  0  0  0  0  0  0  0  0  0
    9.6429  -16.1511   24.7386 C   0  0  0  0  0  0  0  0  0  0  0  0
   10.8201  -15.7184   24.6863 O   0  0  0  0  0  0  0  0  0  0  0  0
   10.7440  -18.7863   26.6310 C   0  0  0  0  0  0  0  0  0  0  0  0
   11.9138  -19.2640   27.1481 C   0  0  0  0  0  0  0  0  0  0  0  0
    6.3214  -11.9682   25.2944 C   0  0  0  0  0  0  0  0  0  0  0  0
    7.5370  -12.8585   25.1959 C   0  0  0  0  0  0  0  0  0  0  0  0
    8.0003  -13.3705   26.5157 C   0  0  2  0  0  0  0  0  0  0  0  0
    8.2664  -12.2387   27.4533 C   0  0  0  0  0  0  0  0  0  0  0  0
    9.1523  -14.3246   26.4315 C   0  0  2  0  0  0  0  0  0  0  0  0
    8.7371  -15.4356   25.5686 N   0  0  0  0  0  0  0  0  0  0  0  0
    9.4895  -14.9047   27.7556 C   0  0  0  0  0  0  0  0  0  0  0  0
    8.9219  -15.9560   28.1917 O   0  0  0  0  0  0  0  0  0  0  0  0
   10.4382  -14.3521   28.6094 O   0  0  0  0  0  0  0  0  0  0  0  0
  2  1  1  6
  2  3  1  0
  3  4  1  0
  4  8  1  0
  4  5  2  0
  5  6  1  0
  7  6  1  0
  8  7  2  0
  9  2  1  0
  9 10  2  0
 11 12  1  0
 12 13  2  0
 13 14  1  0
 15 16  1  0
 15 14  2  0
 17 18  1  0
 17 16  1  1
 18  9  1  0
 19 17  1  0
 20 19  2  0
 21 15  1  0
 22 21  2  0
 22 12  1  0
 23 24  1  0
 25 24  1  0
 25 27  1  0
 25 26  1  1
 27 28  1  6
 28 19  1  0
 29 27  1  0
 29 31  1  0
 30 29  2  0
M  END
$$$$
