HYI.pdb
     RDKit          3D

 31 32  0  0  1  0  0  0  0  0999 V2000
    7.2934  -16.9253   19.3994 N   0  0  0  0  0  0  0  0  0  0  0  0
    7.7147  -15.8499   20.2725 C   0  0  1  0  0  0  0  0  0  0  0  0
    6.9611  -14.6136   19.8553 C   0  0  0  0  0  0  0  0  0  0  0  0
    7.5560  -14.1076   18.5916 C   0  0  0  0  0  0  0  0  0  0  0  0
    8.4011  -13.0316   18.3864 C   0  0  0  0  0  0  0  0  0  0  0  0
    8.7127  -12.9080   17.0893 N   0  0  0  0  0  0  0  0  0  0  0  0
    8.0687  -13.9072   16.4441 C   0  0  0  0  0  0  0  0  0  0  0  0
    7.3790  -14.6228   17.3389 N   0  0  0  0  0  0  0  0  0  0  0  0
    7.4773  -16.1875   21.7009 C   0  0  0  0  0  0  0  0  0  0  0  0
    6.4212  -15.7992   22.2278 O   0  0  0  0  0  0  0  0  0  0  0  0
    7.8353  -19.6810   29.7114 O   0  0  0  0  0  0  0  0  0  0  0  0
    8.0849  -19.3917   28.3934 C   0  0  0  0  0  0  0  0  0  0  0  0
    9.3633  -19.0904   27.9755 C   0  0  0  0  0  0  0  0  0  0  0  0
    9.5282  -18.8101   26.6263 C   0  0  0  0  0  0  0  0  0  0  0  0
    8.4996  -18.8244   25.7397 C   0  0  0  0  0  0  0  0  0  0  0  0
    8.6970  -18.5217   24.3068 C   0  0  0  0  0  0  0  0  0  0  0  0
    8.2095  -17.1525   23.9056 C   0  0  2  0  0  0  0  0  0  0  0  0
    8.3903  -16.9241   22.4817 N   0  0  0  0  0  0  0  0  0  0  0  0
    8.7815  -16.0512   24.7094 C   0  0  0  0  0  0  0  0  0  0  0  0
    9.9133  -15.5833   24.4339 O   0  0  0  0  0  0  0  0  0  0  0  0
    7.2138  -19.1349   26.2000 C   0  0  0  0  0  0  0  0  0  0  0  0
    6.9996  -19.4181   27.5184 C   0  0  0  0  0  0  0  0  0  0  0  0
    5.7540  -11.9426   25.7753 C   0  0  0  0  0  0  0  0  0  0  0  0
    6.9671  -12.8120   25.5460 C   0  0  0  0  0  0  0  0  0  0  0  0
    7.5381  -13.3696   26.8036 C   0  0  2  0  0  0  0  0  0  0  0  0
    7.9219  -12.2696   27.7383 C   0  0  0  0  0  0  0  0  0  0  0  0
    8.6507  -14.3496   26.5884 C   0  0  2  0  0  0  0  0  0  0  0  0
    8.1031  -15.4692   25.8150 N   0  0  0  0  0  0  0  0  0  0  0  0
    9.1518  -14.9092   27.8687 C   0  0  0  0  0  0  0  0  0  0  0  0
    9.9459  -14.2591   28.6199 O   0  0  0  0  0  0  0  0  0  0  0  0
    8.7972  -16.1690   28.3394 O   0  0  0  0  0  0  0  0  0  0  0  0
  2  1  1  6
  2  3  1  0
  3  4  1  0
  4  8  1  0
  4  5  2  0
  5  6  1  0
  7  6  1  0
  8  7  2  0
  9  2  1  0
  9 10  2  0
 11 12  1  0
 12 13  2  0
 13 14  1  0
 15 16  1  0
 15 14  2  0
 17 18  1  0
 17 16  1  1
 18  9  1  0
 19 17  1  0
 20 19  2  0
 21 15  1  0
 22 21  2  0
 22 12  1  0
 23 24  1  0
 25 24  1  0
 25 27  1  0
 25 26  1  1
 27 28  1  6
 28 19  1  0
 29 27  1  0
 29 31  1  0
 30 29  2  0
M  END
$$$$
