HYI.pdb
     RDKit          3D

 31 32  0  0  1  0  0  0  0  0999 V2000
    6.2786  -18.7737   19.5917 N   0  0  0  0  0  0  0  0  0  0  0  0
    7.1037  -17.7393   20.1795 C   0  0  1  0  0  0  0  0  0  0  0  0
    6.7094  -16.4342   19.5383 C   0  0  0  0  0  0  0  0  0  0  0  0
    7.4184  -16.3189   18.2380 C   0  0  0  0  0  0  0  0  0  0  0  0
    8.6921  -15.8504   17.9692 C   0  0  0  0  0  0  0  0  0  0  0  0
    8.9577  -15.9107   16.6575 N   0  0  0  0  0  0  0  0  0  0  0  0
    7.8531  -16.4207   16.0665 C   0  0  0  0  0  0  0  0  0  0  0  0
    6.9350  -16.6643   17.0079 N   0  0  0  0  0  0  0  0  0  0  0  0
    6.9501  -17.6988   21.6578 C   0  0  0  0  0  0  0  0  0  0  0  0
    5.8469  -17.3682   22.1241 O   0  0  0  0  0  0  0  0  0  0  0  0
    8.1090  -18.9189   30.2553 O   0  0  0  0  0  0  0  0  0  0  0  0
    8.1843  -18.9858   28.8867 C   0  0  0  0  0  0  0  0  0  0  0  0
    9.4041  -18.9013   28.2504 C   0  0  0  0  0  0  0  0  0  0  0  0
    9.3909  -18.9778   26.8647 C   0  0  0  0  0  0  0  0  0  0  0  0
    8.2486  -19.1282   26.1459 C   0  0  0  0  0  0  0  0  0  0  0  0
    8.2568  -19.2066   24.6702 C   0  0  0  0  0  0  0  0  0  0  0  0
    7.8549  -17.9199   23.9945 C   0  0  2  0  0  0  0  0  0  0  0  0
    7.9928  -18.0165   22.5510 N   0  0  0  0  0  0  0  0  0  0  0  0
    8.5391  -16.7221   24.5268 C   0  0  0  0  0  0  0  0  0  0  0  0
    9.7269  -16.4725   24.2065 O   0  0  0  0  0  0  0  0  0  0  0  0
    7.0270  -19.2106   26.8262 C   0  0  0  0  0  0  0  0  0  0  0  0
    6.9869  -19.1406   28.1891 C   0  0  0  0  0  0  0  0  0  0  0  0
    5.7302  -12.1669   25.5839 C   0  0  0  0  0  0  0  0  0  0  0  0
    6.8606  -13.0923   25.2021 C   0  0  0  0  0  0  0  0  0  0  0  0
    7.5943  -13.6414   26.3763 C   0  0  2  0  0  0  0  0  0  0  0  0
    8.1617  -12.5352   27.2044 C   0  0  0  0  0  0  0  0  0  0  0  0
    8.6196  -14.6766   26.0276 C   0  0  2  0  0  0  0  0  0  0  0  0
    7.9108  -15.8029   25.4109 N   0  0  0  0  0  0  0  0  0  0  0  0
    9.3078  -15.2031   27.2328 C   0  0  0  0  0  0  0  0  0  0  0  0
    8.7327  -16.0013   28.0389 O   0  0  0  0  0  0  0  0  0  0  0  0
   10.6155  -14.8698   27.5692 O   0  0  0  0  0  0  0  0  0  0  0  0
  2  1  1  6
  2  3  1  0
  3  4  1  0
  4  8  1  0
  4  5  2  0
  5  6  1  0
  7  6  1  0
  8  7  2  0
  9  2  1  0
  9 10  2  0
 11 12  1  0
 12 13  2  0
 13 14  1  0
 15 16  1  0
 15 14  2  0
 17 18  1  0
 17 16  1  1
 18  9  1  0
 19 17  1  0
 20 19  2  0
 21 15  1  0
 22 21  2  0
 22 12  1  0
 23 24  1  0
 25 24  1  0
 25 27  1  0
 25 26  1  6
 27 28  1  1
 28 19  1  0
 29 27  1  0
 29 31  1  0
 30 29  2  0
M  END
$$$$
