HYI.pdb
     RDKit          3D

 31 32  0  0  1  0  0  0  0  0999 V2000
    6.5472  -17.0450   19.1498 N   0  0  0  0  0  0  0  0  0  0  0  0
    7.3938  -16.2006   19.9663 C   0  0  1  0  0  0  0  0  0  0  0  0
    7.0148  -14.7718   19.6751 C   0  0  0  0  0  0  0  0  0  0  0  0
    7.5950  -14.3926   18.3612 C   0  0  0  0  0  0  0  0  0  0  0  0
    8.3666  -15.1423   17.4912 C   0  0  0  0  0  0  0  0  0  0  0  0
    8.6928  -14.4296   16.4047 N   0  0  0  0  0  0  0  0  0  0  0  0
    8.1323  -13.2091   16.5653 C   0  0  0  0  0  0  0  0  0  0  0  0
    7.4777  -13.1862   17.7312 N   0  0  0  0  0  0  0  0  0  0  0  0
    7.2535  -16.5275   21.4100 C   0  0  0  0  0  0  0  0  0  0  0  0
    6.1152  -16.5091   21.9077 O   0  0  0  0  0  0  0  0  0  0  0  0
    8.3135  -19.6718   29.4668 O   0  0  0  0  0  0  0  0  0  0  0  0
    8.4636  -19.3698   28.1366 C   0  0  0  0  0  0  0  0  0  0  0  0
    9.6912  -18.9825   27.6437 C   0  0  0  0  0  0  0  0  0  0  0  0
    9.7558  -18.6954   26.2874 C   0  0  0  0  0  0  0  0  0  0  0  0
    8.6797  -18.7830   25.4636 C   0  0  0  0  0  0  0  0  0  0  0  0
    8.7702  -18.4716   24.0218 C   0  0  0  0  0  0  0  0  0  0  0  0
    8.2115  -17.1188   23.6595 C   0  0  2  0  0  0  0  0  0  0  0  0
    8.3466  -16.8559   22.2365 N   0  0  0  0  0  0  0  0  0  0  0  0
    8.7531  -16.0077   24.4711 C   0  0  0  0  0  0  0  0  0  0  0  0
    9.8828  -15.5242   24.2151 O   0  0  0  0  0  0  0  0  0  0  0  0
    7.4479  -19.1799   25.9993 C   0  0  0  0  0  0  0  0  0  0  0  0
    7.3326  -19.4734   27.3277 C   0  0  0  0  0  0  0  0  0  0  0  0
    5.4766  -12.1104   26.2386 C   0  0  0  0  0  0  0  0  0  0  0  0
    6.6976  -12.8592   25.7605 C   0  0  0  0  0  0  0  0  0  0  0  0
    7.4523  -13.5192   26.8621 C   0  0  2  0  0  0  0  0  0  0  0  0
    7.8621  -12.5170   27.8911 C   0  0  0  0  0  0  0  0  0  0  0  0
    8.6005  -14.3621   26.3976 C   0  0  2  0  0  0  0  0  0  0  0  0
    8.0463  -15.4333   25.5628 N   0  0  0  0  0  0  0  0  0  0  0  0
    9.3039  -15.0136   27.5308 C   0  0  0  0  0  0  0  0  0  0  0  0
   10.3859  -14.5449   28.0076 O   0  0  0  0  0  0  0  0  0  0  0  0
    8.8414  -16.1698   28.1503 O   0  0  0  0  0  0  0  0  0  0  0  0
  2  1  1  6
  2  3  1  0
  3  4  1  0
  4  8  1  0
  4  5  2  0
  5  6  1  0
  7  6  1  0
  8  7  2  0
  9  2  1  0
  9 10  2  0
 11 12  1  0
 12 13  2  0
 13 14  1  0
 15 16  1  0
 15 14  2  0
 17 18  1  0
 17 16  1  1
 18  9  1  0
 19 17  1  0
 20 19  2  0
 21 15  1  0
 22 21  2  0
 22 12  1  0
 23 24  1  0
 25 24  1  0
 25 27  1  0
 25 26  1  1
 27 28  1  6
 28 19  1  0
 29 27  1  0
 29 31  1  0
 30 29  2  0
M  END
$$$$
