HYI.pdb
     RDKit          3D

 31 32  0  0  1  0  0  0  0  0999 V2000
   10.3225  -18.5399   20.1630 N   0  0  0  0  0  0  0  0  0  0  0  0
   11.2574  -17.4536   20.3682 C   0  0  1  0  0  0  0  0  0  0  0  0
   11.5151  -16.8251   19.0233 C   0  0  0  0  0  0  0  0  0  0  0  0
   11.9733  -17.8870   18.0911 C   0  0  0  0  0  0  0  0  0  0  0  0
   13.1974  -18.5280   18.0214 C   0  0  0  0  0  0  0  0  0  0  0  0
   13.2097  -19.4306   17.0315 N   0  0  0  0  0  0  0  0  0  0  0  0
   11.9888  -19.3794   16.4518 C   0  0  0  0  0  0  0  0  0  0  0  0
   11.2511  -18.4596   17.0828 N   0  0  0  0  0  0  0  0  0  0  0  0
   10.7339  -16.4667   21.3495 C   0  0  0  0  0  0  0  0  0  0  0  0
   11.4567  -15.5035   21.6552 O   0  0  0  0  0  0  0  0  0  0  0  0
    5.6442  -11.8989   26.8352 O   0  0  0  0  0  0  0  0  0  0  0  0
    6.1269  -12.7119   25.8406 C   0  0  0  0  0  0  0  0  0  0  0  0
    6.7532  -12.1695   24.7390 C   0  0  0  0  0  0  0  0  0  0  0  0
    7.2116  -13.0622   23.7802 C   0  0  0  0  0  0  0  0  0  0  0  0
    7.0640  -14.4073   23.8954 C   0  0  0  0  0  0  0  0  0  0  0  0
    7.5588  -15.3404   22.8619 C   0  0  0  0  0  0  0  0  0  0  0  0
    9.0154  -15.6977   23.0177 C   0  0  2  0  0  0  0  0  0  0  0  0
    9.4617  -16.5725   21.9463 N   0  0  0  0  0  0  0  0  0  0  0  0
    9.3610  -16.2462   24.3466 C   0  0  0  0  0  0  0  0  0  0  0  0
    9.5281  -17.4806   24.5020 O   0  0  0  0  0  0  0  0  0  0  0  0
    6.4224  -14.9230   25.0286 C   0  0  0  0  0  0  0  0  0  0  0  0
    5.9537  -14.0862   26.0003 C   0  0  0  0  0  0  0  0  0  0  0  0
   11.2098  -13.7099   29.7522 C   0  0  0  0  0  0  0  0  0  0  0  0
   11.2364  -14.8746   28.7914 C   0  0  0  0  0  0  0  0  0  0  0  0
   10.4567  -14.6286   27.5464 C   0  0  2  0  0  0  0  0  0  0  0  0
    9.1198  -14.0468   27.8710 C   0  0  0  0  0  0  0  0  0  0  0  0
   10.3565  -15.8189   26.6421 C   0  0  2  0  0  0  0  0  0  0  0  0
    9.5215  -15.4311   25.5004 N   0  0  0  0  0  0  0  0  0  0  0  0
    9.6827  -16.9635   27.3050 C   0  0  0  0  0  0  0  0  0  0  0  0
   10.2576  -17.6483   28.2094 O   0  0  0  0  0  0  0  0  0  0  0  0
    8.3895  -17.3697   26.9934 O   0  0  0  0  0  0  0  0  0  0  0  0
  2  1  1  6
  2  3  1  0
  3  4  1  0
  4  8  1  0
  4  5  2  0
  5  6  1  0
  7  6  1  0
  8  7  2  0
  9  2  1  0
  9 10  2  0
 11 12  1  0
 12 13  2  0
 13 14  1  0
 15 16  1  0
 15 14  2  0
 17 18  1  0
 17 16  1  1
 18  9  1  0
 19 17  1  0
 20 19  2  0
 21 15  1  0
 22 21  2  0
 22 12  1  0
 23 24  1  0
 25 24  1  0
 25 27  1  0
 25 26  1  1
 27 28  1  6
 28 19  1  0
 29 27  1  0
 29 31  1  0
 30 29  2  0
M  END
$$$$
