HYI.pdb
     RDKit          3D

 31 32  0  0  1  0  0  0  0  0999 V2000
    6.3675  -16.6227   19.0945 N   0  0  0  0  0  0  0  0  0  0  0  0
    7.3557  -15.9589   19.9185 C   0  0  1  0  0  0  0  0  0  0  0  0
    7.2726  -14.4850   19.6169 C   0  0  0  0  0  0  0  0  0  0  0  0
    7.8392  -14.2521   18.2635 C   0  0  0  0  0  0  0  0  0  0  0  0
    7.4211  -13.3815   17.2729 C   0  0  0  0  0  0  0  0  0  0  0  0
    8.2054  -13.4749   16.1909 N   0  0  0  0  0  0  0  0  0  0  0  0
    9.1400  -14.4104   16.4754 C   0  0  0  0  0  0  0  0  0  0  0  0
    8.9224  -14.8742   17.7107 N   0  0  0  0  0  0  0  0  0  0  0  0
    7.1360  -16.2421   21.3616 C   0  0  0  0  0  0  0  0  0  0  0  0
    5.9838  -16.1298   21.8126 O   0  0  0  0  0  0  0  0  0  0  0  0
    8.2061  -19.2824   29.5216 O   0  0  0  0  0  0  0  0  0  0  0  0
    8.2751  -19.0393   28.1728 C   0  0  0  0  0  0  0  0  0  0  0  0
    9.4943  -18.8399   27.5616 C   0  0  0  0  0  0  0  0  0  0  0  0
    9.4745  -18.6004   26.1947 C   0  0  0  0  0  0  0  0  0  0  0  0
    8.3264  -18.5589   25.4705 C   0  0  0  0  0  0  0  0  0  0  0  0
    8.3277  -18.3012   24.0153 C   0  0  0  0  0  0  0  0  0  0  0  0
    7.9528  -16.8867   23.6518 C   0  0  2  0  0  0  0  0  0  0  0  0
    8.1692  -16.6302   22.2377 N   0  0  0  0  0  0  0  0  0  0  0  0
    8.5977  -15.8580   24.4956 C   0  0  0  0  0  0  0  0  0  0  0  0
    9.7927  -15.5289   24.2965 O   0  0  0  0  0  0  0  0  0  0  0  0
    7.1056  -18.7661   26.1250 C   0  0  0  0  0  0  0  0  0  0  0  0
    7.0720  -19.0056   27.4688 C   0  0  0  0  0  0  0  0  0  0  0  0
    5.3320  -12.4143   27.6644 C   0  0  0  0  0  0  0  0  0  0  0  0
    6.2837  -13.5268   27.2944 C   0  0  0  0  0  0  0  0  0  0  0  0
    7.4651  -13.0572   26.5183 C   0  0  2  0  0  0  0  0  0  0  0  0
    7.0335  -12.4385   25.2290 C   0  0  0  0  0  0  0  0  0  0  0  0
    8.5235  -14.0997   26.3247 C   0  0  2  0  0  0  0  0  0  0  0  0
    7.9224  -15.1951   25.5566 N   0  0  0  0  0  0  0  0  0  0  0  0
    8.9797  -14.6728   27.6158 C   0  0  0  0  0  0  0  0  0  0  0  0
    9.6566  -13.9922   28.4502 O   0  0  0  0  0  0  0  0  0  0  0  0
    8.7064  -15.9790   28.0077 O   0  0  0  0  0  0  0  0  0  0  0  0
  2  1  1  6
  2  3  1  0
  3  4  1  0
  4  8  1  0
  4  5  2  0
  5  6  1  0
  7  6  1  0
  8  7  2  0
  9  2  1  0
  9 10  2  0
 11 12  1  0
 12 13  2  0
 13 14  1  0
 15 16  1  0
 15 14  2  0
 17 18  1  0
 17 16  1  1
 18  9  1  0
 19 17  1  0
 20 19  2  0
 21 15  1  0
 22 21  2  0
 22 12  1  0
 23 24  1  0
 25 24  1  0
 25 27  1  0
 25 26  1  6
 27 28  1  6
 28 19  1  0
 29 27  1  0
 29 31  1  0
 30 29  2  0
M  END
$$$$
