HYI.pdb
     RDKit          3D

 31 32  0  0  1  0  0  0  0  0999 V2000
    8.6453  -18.7311   20.6143 N   0  0  0  0  0  0  0  0  0  0  0  0
   10.0365  -18.3298   20.6096 C   0  0  1  0  0  0  0  0  0  0  0  0
   10.5122  -18.3815   19.1809 C   0  0  0  0  0  0  0  0  0  0  0  0
   10.3242  -19.7657   18.6753 C   0  0  0  0  0  0  0  0  0  0  0  0
    9.7479  -20.8587   19.2976 C   0  0  0  0  0  0  0  0  0  0  0  0
    9.7732  -21.9334   18.4982 N   0  0  0  0  0  0  0  0  0  0  0  0
   10.3686  -21.5413   17.3487 C   0  0  0  0  0  0  0  0  0  0  0  0
   10.6973  -20.2493   17.4534 N   0  0  0  0  0  0  0  0  0  0  0  0
   10.2122  -16.9780   21.2032 C   0  0  0  0  0  0  0  0  0  0  0  0
   11.3659  -16.5295   21.3095 O   0  0  0  0  0  0  0  0  0  0  0  0
    7.0033  -12.8810   16.7752 O   0  0  0  0  0  0  0  0  0  0  0  0
    7.3017  -13.1278   18.0916 C   0  0  0  0  0  0  0  0  0  0  0  0
    8.1754  -12.3087   18.7741 C   0  0  0  0  0  0  0  0  0  0  0  0
    8.4220  -12.6290   20.1018 C   0  0  0  0  0  0  0  0  0  0  0  0
    7.8458  -13.6902   20.7230 C   0  0  0  0  0  0  0  0  0  0  0  0
    8.1231  -14.0143   22.1379 C   0  0  0  0  0  0  0  0  0  0  0  0
    9.3182  -14.9137   22.3288 C   0  0  2  0  0  0  0  0  0  0  0  0
    9.1358  -16.1852   21.6490 N   0  0  0  0  0  0  0  0  0  0  0  0
    9.7075  -15.1042   23.7425 C   0  0  0  0  0  0  0  0  0  0  0  0
   10.7131  -14.5165   24.2106 O   0  0  0  0  0  0  0  0  0  0  0  0
    6.9629  -14.5010   19.9983 C   0  0  0  0  0  0  0  0  0  0  0  0
    6.6874  -14.2276   18.6894 C   0  0  0  0  0  0  0  0  0  0  0  0
    7.1346  -12.5104   27.5656 C   0  0  0  0  0  0  0  0  0  0  0  0
    7.9961  -13.7482   27.4912 C   0  0  0  0  0  0  0  0  0  0  0  0
    7.9699  -14.4044   26.1543 C   0  0  2  0  0  0  0  0  0  0  0  0
    6.5626  -14.6494   25.7177 C   0  0  0  0  0  0  0  0  0  0  0  0
    8.8189  -15.6352   26.0601 C   0  0  2  0  0  0  0  0  0  0  0  0
    8.9860  -15.9426   24.6357 N   0  0  0  0  0  0  0  0  0  0  0  0
    8.1621  -16.8107   26.6847 C   0  0  0  0  0  0  0  0  0  0  0  0
    7.3424  -17.5411   26.0427 O   0  0  0  0  0  0  0  0  0  0  0  0
    8.3888  -17.1993   28.0008 O   0  0  0  0  0  0  0  0  0  0  0  0
  2  1  1  6
  2  3  1  0
  3  4  1  0
  4  8  1  0
  4  5  2  0
  5  6  1  0
  7  6  1  0
  8  7  2  0
  9  2  1  0
  9 10  2  0
 11 12  1  0
 12 13  2  0
 13 14  1  0
 15 16  1  0
 15 14  2  0
 17 18  1  0
 17 16  1  1
 18  9  1  0
 19 17  1  0
 20 19  2  0
 21 15  1  0
 22 21  2  0
 22 12  1  0
 23 24  1  0
 25 24  1  0
 25 27  1  0
 25 26  1  1
 27 28  1  6
 28 19  1  0
 29 27  1  0
 29 31  1  0
 30 29  2  0
M  END
$$$$
