RRF.pdb
     RDKit          3D

 34 34  0  0  1  0  0  0  0  0999 V2000
   32.2838  -26.3449  -15.7107 N   0  0  0  0  0  0  0  0  0  0  0  0
   33.3342  -25.5644  -16.2855 C   0  0  0  0  0  0  0  0  0  0  0  0
   34.5137  -26.0677  -16.2566 N   0  0  0  0  0  0  0  0  0  0  0  0
   33.0290  -24.3045  -16.8437 N   0  0  0  0  0  0  0  0  0  0  0  0
   31.6522  -24.0502  -17.3011 C   0  0  0  0  0  0  0  0  0  0  0  0
   30.7575  -24.1756  -16.1201 C   0  0  0  0  0  0  0  0  0  0  0  0
   29.7394  -23.0953  -16.0445 C   0  0  0  0  0  0  0  0  0  0  0  0
   28.8451  -22.9529  -17.2349 C   0  0  2  0  0  0  0  0  0  0  0  0
   29.3413  -22.1262  -18.2821 N   0  0  0  0  0  0  0  0  0  0  0  0
   27.5209  -22.4631  -16.7452 C   0  0  0  0  0  0  0  0  0  0  0  0
   27.2739  -21.2429  -16.8181 O   0  0  0  0  0  0  0  0  0  0  0  0
   35.3516  -25.5813  -16.5999 N   0  0  0  0  0  0  0  0  0  0  0  0
   21.8642  -25.7936  -15.9858 C   0  0  0  0  0  0  0  0  0  0  0  0
   22.4284  -26.5602  -17.0438 N   0  0  0  0  0  0  0  0  0  0  0  0
   22.3547  -27.8490  -17.0569 N   0  0  0  0  0  0  0  0  0  0  0  0
   23.1003  -25.9621  -18.1441 C   0  0  0  0  0  0  0  0  0  0  0  0
   23.0601  -24.5488  -18.3557 C   0  0  0  0  0  0  0  0  0  0  0  0
   24.2615  -23.8391  -17.7667 C   0  0  0  0  0  0  0  0  0  0  0  0
   24.1027  -23.5882  -16.2948 C   0  0  2  0  0  0  0  0  0  0  0  0
   25.2818  -22.8548  -15.7553 N   0  0  0  0  0  0  0  0  0  0  0  0
   26.5564  -23.3415  -16.2083 C   0  0  0  0  0  0  0  0  0  0  0  0
   25.2353  -22.8088  -14.2460 O   0  0  0  0  0  0  0  0  0  0  0  0
   25.7787  -23.6926  -13.5348 N   0  0  0  0  0  0  0  0  0  0  0  0
   22.7438  -28.3405  -17.8920 C   0  0  2  0  0  0  0  0  0  0  0  0
   24.5675  -21.7528  -13.5681 C   0  0  0  0  0  0  0  0  0  0  0  0
   24.8775  -21.4112  -12.1993 C   0  0  0  0  0  0  0  0  0  0  0  0
   26.3123  -20.9688  -12.0397 C   0  0  0  0  0  0  0  0  0  0  0  0
   26.6298  -20.6091  -10.6391 C   0  0  0  0  0  0  0  0  0  0  0  0
   26.9655  -21.6194   -9.7619 C   0  0  0  0  0  0  0  0  0  0  0  0
   27.2810  -21.3765   -8.4402 C   0  0  0  0  0  0  0  0  0  0  0  0
   27.2444  -20.0415   -8.0251 C   0  0  0  0  0  0  0  0  0  0  0  0
   26.9087  -19.0332   -8.9025 C   0  0  0  0  0  0  0  0  0  0  0  0
   26.5956  -19.2989  -10.2245 O   0  0  0  0  0  0  0  0  0  0  0  0
   23.9210  -20.3936  -11.6932 O   0  0  0  0  0  0  0  0  0  0  0  0
  2  1  1  0
  2  3  2  0
  4  2  1  0
  5  4  1  0
  6  5  1  0
  7  8  1  0
  7  6  1  0
  8  9  1  6
 10 20  1  0
 10  8  1  0
 11 10  2  0
 13 12  1  0
 14 13  2  0
 15 13  1  0
 16 15  1  0
 17 18  1  0
 17 16  1  0
 19 18  1  6
 19 21  1  0
 19 20  1  0
 21 22  2  0
 23 24  1  0
 23 21  1  0
 24 25  1  1
 25 26  1  0
 26 31  2  0
 27 26  1  0
 27 28  2  0
 28 29  1  0
 29 30  2  0
 31 30  1  0
 32 24  1  0
 33 32  1  0
 34 32  2  0
M  END
$$$$
