RRF.pdb
     RDKit          3D

 34 34  0  0  1  0  0  0  0  0999 V2000
   20.2554  -27.4716  -12.9117 N   0  0  0  0  0  0  0  0  0  0  0  0
   20.0402  -26.2984  -12.1244 C   0  0  0  0  0  0  0  0  0  0  0  0
   19.3791  -26.4439  -11.0348 N   0  0  0  0  0  0  0  0  0  0  0  0
   20.5536  -25.0634  -12.5751 N   0  0  0  0  0  0  0  0  0  0  0  0
   21.1156  -24.9867  -13.9343 C   0  0  0  0  0  0  0  0  0  0  0  0
   22.4438  -25.6547  -13.9083 C   0  0  0  0  0  0  0  0  0  0  0  0
   23.5464  -24.7414  -13.5092 C   0  0  0  0  0  0  0  0  0  0  0  0
   24.0199  -23.7873  -14.5594 C   0  0  2  0  0  0  0  0  0  0  0  0
   24.4844  -24.3816  -15.7665 N   0  0  0  0  0  0  0  0  0  0  0  0
   25.0757  -22.9285  -13.9421 C   0  0  0  0  0  0  0  0  0  0  0  0
   26.2500  -23.3478  -13.9274 O   0  0  0  0  0  0  0  0  0  0  0  0
   19.1484  -25.6706  -10.3981 N   0  0  0  0  0  0  0  0  0  0  0  0
   27.2285  -14.8976  -15.1516 C   0  0  0  0  0  0  0  0  0  0  0  0
   26.7311  -16.1270  -15.6679 N   0  0  0  0  0  0  0  0  0  0  0  0
   26.2769  -16.2183  -16.8729 N   0  0  0  0  0  0  0  0  0  0  0  0
   26.7050  -17.3218  -14.8986 C   0  0  0  0  0  0  0  0  0  0  0  0
   27.2186  -17.3540  -13.5648 C   0  0  0  0  0  0  0  0  0  0  0  0
   27.0733  -18.7165  -12.9195 C   0  0  0  0  0  0  0  0  0  0  0  0
   25.8791  -19.4629  -13.4405 C   0  0  2  0  0  0  0  0  0  0  0  0
   25.8127  -20.8288  -12.8493 N   0  0  0  0  0  0  0  0  0  0  0  0
   24.7752  -21.6691  -13.3822 C   0  0  0  0  0  0  0  0  0  0  0  0
   25.7156  -20.7529  -11.3437 O   0  0  0  0  0  0  0  0  0  0  0  0
   24.6322  -20.4988  -10.7572 N   0  0  0  0  0  0  0  0  0  0  0  0
   25.9337  -17.1544  -17.1835 C   0  0  2  0  0  0  0  0  0  0  0  0
   26.8587  -20.9683  -10.5266 C   0  0  0  0  0  0  0  0  0  0  0  0
   26.7837  -20.9196   -9.0849 C   0  0  0  0  0  0  0  0  0  0  0  0
   27.9522  -20.1755   -8.4845 C   0  0  0  0  0  0  0  0  0  0  0  0
   27.8881  -20.1417   -7.0057 C   0  0  0  0  0  0  0  0  0  0  0  0
   28.2598  -21.2713   -6.3065 C   0  0  0  0  0  0  0  0  0  0  0  0
   28.2364  -21.3283   -4.9276 C   0  0  0  0  0  0  0  0  0  0  0  0
   27.8130  -20.1734   -4.2624 C   0  0  0  0  0  0  0  0  0  0  0  0
   27.4417  -19.0456   -4.9621 C   0  0  0  0  0  0  0  0  0  0  0  0
   27.4727  -19.0097   -6.3455 O   0  0  0  0  0  0  0  0  0  0  0  0
   25.4805  -20.3502   -8.6560 O   0  0  0  0  0  0  0  0  0  0  0  0
  2  1  1  0
  2  3  2  0
  4  2  1  0
  5  4  1  0
  6  5  1  0
  7  8  1  0
  7  6  1  0
  8  9  1  6
 10 20  1  0
 10  8  1  0
 11 10  2  0
 13 12  1  0
 14 13  2  0
 15 13  1  0
 16 15  1  0
 17 18  1  0
 17 16  1  0
 19 18  1  6
 19 21  1  0
 19 20  1  0
 21 22  2  0
 23 24  1  0
 23 21  1  0
 24 25  1  1
 25 26  1  0
 26 31  2  0
 27 26  1  0
 27 28  2  0
 28 29  1  0
 29 30  2  0
 31 30  1  0
 32 24  1  0
 33 32  1  0
 34 32  2  0
M  END
$$$$
