RRF.pdb
     RDKit          3D

 34 34  0  0  1  0  0  0  0  0999 V2000
   28.9522  -18.0374  -20.4196 N   0  0  0  0  0  0  0  0  0  0  0  0
   29.1882  -16.7400  -19.8684 C   0  0  0  0  0  0  0  0  0  0  0  0
   29.5971  -15.8317  -20.6766 N   0  0  0  0  0  0  0  0  0  0  0  0
   28.9657  -16.5265  -18.4912 N   0  0  0  0  0  0  0  0  0  0  0  0
   28.4445  -17.6398  -17.6797 C   0  0  0  0  0  0  0  0  0  0  0  0
   27.1540  -17.1974  -17.0884 C   0  0  0  0  0  0  0  0  0  0  0  0
   26.4649  -18.2715  -16.3263 C   0  0  0  0  0  0  0  0  0  0  0  0
   25.9946  -19.4446  -17.1263 C   0  0  2  0  0  0  0  0  0  0  0  0
   25.1315  -19.1399  -18.2164 N   0  0  0  0  0  0  0  0  0  0  0  0
   25.3472  -20.4026  -16.1796 C   0  0  0  0  0  0  0  0  0  0  0  0
   24.1511  -20.2223  -15.8763 O   0  0  0  0  0  0  0  0  0  0  0  0
   29.9134  -14.9005  -20.3778 N   0  0  0  0  0  0  0  0  0  0  0  0
   29.6410  -26.5084  -16.3335 C   0  0  0  0  0  0  0  0  0  0  0  0
   28.3837  -26.0776  -16.8424 N   0  0  0  0  0  0  0  0  0  0  0  0
   28.2563  -25.6528  -18.0548 N   0  0  0  0  0  0  0  0  0  0  0  0
   27.1991  -26.0895  -16.0573 C   0  0  0  0  0  0  0  0  0  0  0  0
   25.9596  -25.6070  -16.5814 C   0  0  0  0  0  0  0  0  0  0  0  0
   25.7598  -24.1268  -16.3301 C   0  0  0  0  0  0  0  0  0  0  0  0
   25.6785  -23.8095  -14.8647 C   0  0  2  0  0  0  0  0  0  0  0  0
   25.4404  -22.3541  -14.6534 N   0  0  0  0  0  0  0  0  0  0  0  0
   26.0523  -21.4929  -15.6284 C   0  0  0  0  0  0  0  0  0  0  0  0
   25.8428  -21.9464  -13.2556 O   0  0  0  0  0  0  0  0  0  0  0  0
   26.9134  -21.3284  -13.0233 N   0  0  0  0  0  0  0  0  0  0  0  0
   27.2916  -25.4194  -18.3795 C   0  0  2  0  0  0  0  0  0  0  0  0
   25.0160  -22.2504  -12.1400 C   0  0  0  0  0  0  0  0  0  0  0  0
   25.1452  -21.5495  -10.8836 C   0  0  0  0  0  0  0  0  0  0  0  0
   26.4916  -20.8800  -10.7474 C   0  0  0  0  0  0  0  0  0  0  0  0
   26.6590  -20.2335   -9.4260 C   0  0  0  0  0  0  0  0  0  0  0  0
   27.1488  -20.9907   -8.3821 C   0  0  0  0  0  0  0  0  0  0  0  0
   27.3419  -20.4704   -7.1183 C   0  0  0  0  0  0  0  0  0  0  0  0
   27.0141  -19.1224   -6.9417 C   0  0  0  0  0  0  0  0  0  0  0  0
   26.5247  -18.3671   -7.9854 C   0  0  0  0  0  0  0  0  0  0  0  0
   26.3386  -18.9089   -9.2455 O   0  0  0  0  0  0  0  0  0  0  0  0
   24.0251  -20.5888  -10.7124 O   0  0  0  0  0  0  0  0  0  0  0  0
  2  1  1  0
  2  3  2  0
  4  2  1  0
  5  4  1  0
  6  5  1  0
  7  8  1  0
  7  6  1  0
  8  9  1  6
 10 20  1  0
 10  8  1  0
 11 10  2  0
 13 12  1  0
 14 13  2  0
 15 13  1  0
 16 15  1  0
 17 18  1  0
 17 16  1  0
 19 18  1  6
 19 21  1  0
 19 20  1  0
 21 22  2  0
 23 24  1  0
 23 21  1  0
 24 25  1  1
 25 26  1  0
 26 31  2  0
 27 26  1  0
 27 28  2  0
 28 29  1  0
 29 30  2  0
 31 30  1  0
 32 24  1  0
 33 32  1  0
 34 32  2  0
M  END
$$$$
