RRF.pdb
     RDKit          3D

 34 34  0  0  1  0  0  0  0  0999 V2000
   27.0498  -22.5811  -22.8777 N   0  0  0  0  0  0  0  0  0  0  0  0
   27.5141  -23.5456  -21.9306 C   0  0  0  0  0  0  0  0  0  0  0  0
   27.6071  -24.7590  -22.3361 N   0  0  0  0  0  0  0  0  0  0  0  0
   27.8395  -23.1251  -20.6232 N   0  0  0  0  0  0  0  0  0  0  0  0
   27.8250  -21.6835  -20.3216 C   0  0  0  0  0  0  0  0  0  0  0  0
   28.9444  -21.4111  -19.3817 C   0  0  0  0  0  0  0  0  0  0  0  0
   28.4989  -20.7705  -18.1167 C   0  0  0  0  0  0  0  0  0  0  0  0
   28.2968  -21.6881  -16.9529 C   0  0  2  0  0  0  0  0  0  0  0  0
   27.9074  -23.0181  -17.2781 N   0  0  0  0  0  0  0  0  0  0  0  0
   27.3025  -21.0446  -16.0416 C   0  0  0  0  0  0  0  0  0  0  0  0
   27.5765  -19.9297  -15.5545 O   0  0  0  0  0  0  0  0  0  0  0  0
   27.9306  -25.5361  -21.7461 N   0  0  0  0  0  0  0  0  0  0  0  0
   20.7539  -23.0614  -13.3836 C   0  0  0  0  0  0  0  0  0  0  0  0
   20.5316  -21.7554  -12.8636 N   0  0  0  0  0  0  0  0  0  0  0  0
   20.3578  -21.5527  -11.6005 N   0  0  0  0  0  0  0  0  0  0  0  0
   20.4896  -20.6019  -13.6926 C   0  0  0  0  0  0  0  0  0  0  0  0
   21.3342  -20.4846  -14.8401 C   0  0  0  0  0  0  0  0  0  0  0  0
   22.7923  -20.3047  -14.4719 C   0  0  0  0  0  0  0  0  0  0  0  0
   23.6952  -21.1672  -15.3059 C   0  0  2  0  0  0  0  0  0  0  0  0
   25.1137  -21.0131  -14.8777 N   0  0  0  0  0  0  0  0  0  0  0  0
   26.0757  -21.6644  -15.7245 C   0  0  0  0  0  0  0  0  0  0  0  0
   25.2867  -21.4494  -13.4418 O   0  0  0  0  0  0  0  0  0  0  0  0
   25.8430  -22.5356  -13.1371 N   0  0  0  0  0  0  0  0  0  0  0  0
   20.2057  -20.5666  -11.2923 C   0  0  2  0  0  0  0  0  0  0  0  0
   24.8211  -20.6383  -12.3713 C   0  0  0  0  0  0  0  0  0  0  0  0
   25.3876  -20.7290  -11.0456 C   0  0  0  0  0  0  0  0  0  0  0  0
   26.6971  -19.9847  -10.9400 C   0  0  0  0  0  0  0  0  0  0  0  0
   27.2555  -20.0355   -9.5698 C   0  0  0  0  0  0  0  0  0  0  0  0
   26.8698  -19.0660   -8.6674 C   0  0  0  0  0  0  0  0  0  0  0  0
   27.3354  -19.0379   -7.3683 C   0  0  0  0  0  0  0  0  0  0  0  0
   28.2281  -20.0507   -7.0034 C   0  0  0  0  0  0  0  0  0  0  0  0
   28.6127  -21.0186   -7.9059 C   0  0  0  0  0  0  0  0  0  0  0  0
   28.1335  -21.0282   -9.2045 O   0  0  0  0  0  0  0  0  0  0  0  0
   24.4028  -20.2708  -10.0323 O   0  0  0  0  0  0  0  0  0  0  0  0
  2  1  1  0
  2  3  2  0
  4  2  1  0
  5  4  1  0
  6  5  1  0
  7  8  1  0
  7  6  1  0
  8  9  1  6
 10 20  1  0
 10  8  1  0
 11 10  2  0
 13 12  1  0
 14 13  2  0
 15 13  1  0
 16 15  1  0
 17 18  1  0
 17 16  1  0
 19 18  1  6
 19 21  1  0
 19 20  1  0
 21 22  2  0
 23 24  1  0
 23 21  1  0
 24 25  1  1
 25 26  1  0
 26 31  2  0
 27 26  1  0
 27 28  2  0
 28 29  1  0
 29 30  2  0
 31 30  1  0
 32 24  1  0
 33 32  1  0
 34 32  2  0
M  END
$$$$
