RRF.pdb
     RDKit          3D

 34 34  0  0  1  0  0  0  0  0999 V2000
   19.7905  -22.0945  -15.0343 N   0  0  0  0  0  0  0  0  0  0  0  0
   19.1772  -20.8819  -15.4773 C   0  0  0  0  0  0  0  0  0  0  0  0
   18.2788  -20.9846  -16.3872 N   0  0  0  0  0  0  0  0  0  0  0  0
   19.5821  -19.6569  -14.9051 N   0  0  0  0  0  0  0  0  0  0  0  0
   20.9940  -19.4904  -14.5205 C   0  0  0  0  0  0  0  0  0  0  0  0
   21.1703  -20.1136  -13.1820 C   0  0  0  0  0  0  0  0  0  0  0  0
   22.5729  -20.0556  -12.6937 C   0  0  0  0  0  0  0  0  0  0  0  0
   23.5534  -20.9282  -13.4110 C   0  0  2  0  0  0  0  0  0  0  0  0
   23.0066  -22.0852  -14.0344 N   0  0  0  0  0  0  0  0  0  0  0  0
   24.6227  -21.2982  -12.4348 C   0  0  0  0  0  0  0  0  0  0  0  0
   24.3326  -22.0696  -11.4989 O   0  0  0  0  0  0  0  0  0  0  0  0
   17.7696  -20.1834  -16.7812 N   0  0  0  0  0  0  0  0  0  0  0  0
   32.6259  -22.9533  -10.4164 C   0  0  0  0  0  0  0  0  0  0  0  0
   32.1639  -22.8455  -11.7581 N   0  0  0  0  0  0  0  0  0  0  0  0
   32.5180  -23.6946  -12.6639 N   0  0  0  0  0  0  0  0  0  0  0  0
   31.2899  -21.8082  -12.1823 C   0  0  0  0  0  0  0  0  0  0  0  0
   30.7296  -20.8843  -11.2462 C   0  0  0  0  0  0  0  0  0  0  0  0
   29.2970  -21.2194  -10.8862 C   0  0  0  0  0  0  0  0  0  0  0  0
   28.3361  -20.8258  -11.9708 C   0  0  2  0  0  0  0  0  0  0  0  0
   26.9319  -21.0988  -11.5548 N   0  0  0  0  0  0  0  0  0  0  0  0
   25.9371  -20.7989  -12.5484 C   0  0  0  0  0  0  0  0  0  0  0  0
   26.6155  -20.3959  -10.2556 O   0  0  0  0  0  0  0  0  0  0  0  0
   26.3612  -19.1649  -10.2080 N   0  0  0  0  0  0  0  0  0  0  0  0
   32.1796  -23.5230  -13.6368 C   0  0  2  0  0  0  0  0  0  0  0  0
   26.5938  -21.1091   -9.0262 C   0  0  0  0  0  0  0  0  0  0  0  0
   26.4398  -20.4350   -7.7579 C   0  0  0  0  0  0  0  0  0  0  0  0
   26.8062  -21.3279   -6.5968 C   0  0  0  0  0  0  0  0  0  0  0  0
   27.7161  -20.6533   -5.6434 C   0  0  0  0  0  0  0  0  0  0  0  0
   27.1629  -19.9583   -4.5879 C   0  0  0  0  0  0  0  0  0  0  0  0
   27.9339  -19.3038   -3.6485 C   0  0  0  0  0  0  0  0  0  0  0  0
   29.3202  -19.3783   -3.8175 C   0  0  0  0  0  0  0  0  0  0  0  0
   29.8715  -20.0729   -4.8724 C   0  0  0  0  0  0  0  0  0  0  0  0
   29.0797  -20.7225   -5.8037 O   0  0  0  0  0  0  0  0  0  0  0  0
   27.2133  -19.1668   -7.7516 O   0  0  0  0  0  0  0  0  0  0  0  0
  2  1  1  0
  2  3  2  0
  4  2  1  0
  5  4  1  0
  6  5  1  0
  7  8  1  0
  7  6  1  0
  8  9  1  1
 10 20  1  0
 10  8  1  0
 11 10  2  0
 13 12  1  0
 14 13  2  0
 15 13  1  0
 16 15  1  0
 17 18  1  0
 17 16  1  0
 19 18  1  6
 19 21  1  0
 19 20  1  0
 21 22  2  0
 23 24  1  0
 23 21  1  0
 24 25  1  6
 25 26  1  0
 26 31  2  0
 27 26  1  0
 27 28  2  0
 28 29  1  0
 29 30  2  0
 31 30  1  0
 32 24  1  0
 33 32  1  0
 34 32  2  0
M  END
$$$$
