RRF.pdb
     RDKit          3D

 34 34  0  0  1  0  0  0  0  0999 V2000
   22.9406  -26.8264  -17.9582 N   0  0  0  0  0  0  0  0  0  0  0  0
   21.9571  -27.5058  -17.1746 C   0  0  0  0  0  0  0  0  0  0  0  0
   21.3694  -28.5064  -17.7213 N   0  0  0  0  0  0  0  0  0  0  0  0
   21.6857  -27.0517  -15.8662 N   0  0  0  0  0  0  0  0  0  0  0  0
   22.4303  -25.8885  -15.3543 C   0  0  0  0  0  0  0  0  0  0  0  0
   23.7005  -26.3922  -14.7682 C   0  0  0  0  0  0  0  0  0  0  0  0
   24.5557  -25.3094  -14.2156 C   0  0  0  0  0  0  0  0  0  0  0  0
   25.0404  -24.2910  -15.1980 C   0  0  2  0  0  0  0  0  0  0  0  0
   25.9432  -24.7717  -16.1880 N   0  0  0  0  0  0  0  0  0  0  0  0
   25.6451  -23.1683  -14.4188 C   0  0  0  0  0  0  0  0  0  0  0  0
   26.8757  -23.1793  -14.2173 O   0  0  0  0  0  0  0  0  0  0  0  0
   20.6137  -29.0404  -17.2736 N   0  0  0  0  0  0  0  0  0  0  0  0
   23.4583  -14.8281  -14.2648 C   0  0  0  0  0  0  0  0  0  0  0  0
   23.1641  -16.1411  -14.7280 N   0  0  0  0  0  0  0  0  0  0  0  0
   22.1810  -16.3681  -15.5333 N   0  0  0  0  0  0  0  0  0  0  0  0
   23.9275  -17.2752  -14.3397 C   0  0  0  0  0  0  0  0  0  0  0  0
   24.9380  -17.1772  -13.3330 C   0  0  0  0  0  0  0  0  0  0  0  0
   25.5722  -18.5153  -13.0147 C   0  0  0  0  0  0  0  0  0  0  0  0
   24.8301  -19.6563  -13.6488 C   0  0  2  0  0  0  0  0  0  0  0  0
   25.4758  -20.9560  -13.3126 N   0  0  0  0  0  0  0  0  0  0  0  0
   24.8624  -22.1096  -13.9124 C   0  0  0  0  0  0  0  0  0  0  0  0
   25.5805  -21.1268  -11.8153 O   0  0  0  0  0  0  0  0  0  0  0  0
   24.7284  -21.7770  -11.1570 N   0  0  0  0  0  0  0  0  0  0  0  0
   22.0344  -17.3552  -15.8408 C   0  0  2  0  0  0  0  0  0  0  0  0
   26.6584  -20.5519  -11.0886 C   0  0  0  0  0  0  0  0  0  0  0  0
   26.7691  -20.6899   -9.6550 C   0  0  0  0  0  0  0  0  0  0  0  0
   27.9356  -19.9070   -9.1017 C   0  0  0  0  0  0  0  0  0  0  0  0
   28.0277  -20.0154   -7.6280 C   0  0  0  0  0  0  0  0  0  0  0  0
   28.7326  -21.0723   -7.0903 C   0  0  0  0  0  0  0  0  0  0  0  0
   28.8749  -21.2499   -5.7289 C   0  0  0  0  0  0  0  0  0  0  0  0
   28.2638  -20.2967   -4.9081 C   0  0  0  0  0  0  0  0  0  0  0  0
   27.5598  -19.2413   -5.4465 C   0  0  0  0  0  0  0  0  0  0  0  0
   27.4293  -19.0820   -6.8154 O   0  0  0  0  0  0  0  0  0  0  0  0
   25.4880  -20.3178   -9.0014 O   0  0  0  0  0  0  0  0  0  0  0  0
  2  1  1  0
  2  3  2  0
  4  2  1  0
  5  4  1  0
  6  5  1  0
  7  8  1  0
  7  6  1  0
  8  9  1  6
 10 20  1  0
 10  8  1  0
 11 10  2  0
 13 12  1  0
 14 13  2  0
 15 13  1  0
 16 15  1  0
 17 18  1  0
 17 16  1  0
 19 18  1  6
 19 21  1  0
 19 20  1  0
 21 22  2  0
 23 24  1  0
 23 21  1  0
 24 25  1  1
 25 26  1  0
 26 31  2  0
 27 26  1  0
 27 28  2  0
 28 29  1  0
 29 30  2  0
 31 30  1  0
 32 24  1  0
 33 32  1  0
 34 32  2  0
M  END
$$$$
