SFY.pdb
     RDKit          3D

 30 31  0  0  1  0  0  0  0  0999 V2000
   10.3604  -18.7287   19.7042 O   0  0  0  0  0  0  0  0  0  0  0  0
    9.2158  -18.2209   19.0933 C   0  0  0  0  0  0  0  0  0  0  0  0
    9.3036  -16.7178   18.9673 C   0  0  2  0  0  0  0  0  0  0  0  0
   10.4237  -16.2876   18.1929 N   0  0  0  0  0  0  0  0  0  0  0  0
    9.3218  -16.0444   20.2755 C   0  0  0  0  0  0  0  0  0  0  0  0
   10.4440  -15.7242   20.7439 O   0  0  0  0  0  0  0  0  0  0  0  0
    8.1679  -15.7412   21.0254 N   0  0  0  0  0  0  0  0  0  0  0  0
    8.2920  -15.0647   22.2958 C   0  0  1  0  0  0  0  0  0  0  0  0
    6.9082  -14.6524   22.7931 C   0  0  0  0  0  0  0  0  0  0  0  0
    6.9259  -13.9688   24.0821 C   0  0  0  0  0  0  0  0  0  0  0  0
    6.5337  -14.6106   25.2370 C   0  0  0  0  0  0  0  0  0  0  0  0
    6.5555  -13.9368   26.4652 C   0  0  0  0  0  0  0  0  0  0  0  0
    6.9690  -12.6276   26.5285 C   0  0  0  0  0  0  0  0  0  0  0  0
    7.3587  -11.9888   25.3834 C   0  0  0  0  0  0  0  0  0  0  0  0
    7.3319  -12.6626   24.1861 C   0  0  0  0  0  0  0  0  0  0  0  0
    8.9586  -15.9012   23.2907 C   0  0  0  0  0  0  0  0  0  0  0  0
    8.7582  -17.1639   23.2589 O   0  0  0  0  0  0  0  0  0  0  0  0
   10.0728  -15.2647   31.4341 O   0  0  0  0  0  0  0  0  0  0  0  0
   10.4605  -15.3998   30.1003 C   0  0  0  0  0  0  0  0  0  0  0  0
   10.3052  -14.3157   29.2514 C   0  0  0  0  0  0  0  0  0  0  0  0
   10.6876  -14.4423   27.9272 C   0  0  0  0  0  0  0  0  0  0  0  0
   11.2164  -15.6046   27.4211 C   0  0  0  0  0  0  0  0  0  0  0  0
   11.6016  -15.6594   25.9929 C   0  0  0  0  0  0  0  0  0  0  0  0
   10.5761  -16.4079   25.1480 C   0  0  2  0  0  0  0  0  0  0  0  0
    9.8324  -15.4517   24.3165 N   0  0  0  0  0  0  0  0  0  0  0  0
    9.6271  -17.1509   25.9680 C   0  0  0  0  0  0  0  0  0  0  0  0
    8.4556  -16.8150   26.2570 O   0  0  0  0  0  0  0  0  0  0  0  0
   11.3673  -16.6758   28.2694 C   0  0  0  0  0  0  0  0  0  0  0  0
   10.9885  -16.5662   29.6027 C   0  0  0  0  0  0  0  0  0  0  0  0
   10.0581  -18.3808   26.4999 O   0  0  0  0  0  0  0  0  0  0  0  0
  1  2  1  0
  2  3  1  0
  3  5  1  0
  3  4  1  1
  5  6  2  0
  7  5  1  0
  7  8  1  0
  8  9  1  1
  9 10  1  0
 10 15  2  0
 11 12  2  0
 11 10  1  0
 12 13  1  0
 13 14  2  0
 15 14  1  0
 16  8  1  0
 16 17  2  0
 18 19  1  0
 19 29  2  0
 19 20  1  0
 20 21  2  0
 21 22  1  0
 22 23  1  0
 24 23  1  1
 24 26  1  0
 24 25  1  0
 25 16  1  0
 26 30  1  0
 27 26  2  0
 28 22  2  0
 29 28  1  0
M  END
$$$$
