SFY.pdb
     RDKit          3D

 30 31  0  0  1  0  0  0  0  0999 V2000
    9.0633  -19.1969   20.7876 O   0  0  0  0  0  0  0  0  0  0  0  0
    9.2608  -18.6527   19.5203 C   0  0  0  0  0  0  0  0  0  0  0  0
    8.4606  -17.3813   19.3579 C   0  0  2  0  0  0  0  0  0  0  0  0
    8.7001  -16.7272   18.1113 N   0  0  0  0  0  0  0  0  0  0  0  0
    8.6816  -16.4336   20.4616 C   0  0  0  0  0  0  0  0  0  0  0  0
    9.7007  -15.6998   20.3966 O   0  0  0  0  0  0  0  0  0  0  0  0
    7.8272  -16.3020   21.5745 N   0  0  0  0  0  0  0  0  0  0  0  0
    8.1556  -15.3698   22.6281 C   0  0  1  0  0  0  0  0  0  0  0  0
    6.9283  -15.1377   23.5067 C   0  0  0  0  0  0  0  0  0  0  0  0
    7.1386  -14.1533   24.5630 C   0  0  0  0  0  0  0  0  0  0  0  0
    6.9237  -14.4688   25.8872 C   0  0  0  0  0  0  0  0  0  0  0  0
    7.1290  -13.5093   26.8873 C   0  0  0  0  0  0  0  0  0  0  0  0
    7.5472  -12.2428   26.5552 C   0  0  0  0  0  0  0  0  0  0  0  0
    7.7610  -11.9276   25.2414 C   0  0  0  0  0  0  0  0  0  0  0  0
    7.5555  -12.8792   24.2715 C   0  0  0  0  0  0  0  0  0  0  0  0
    9.2756  -15.8424   23.4382 C   0  0  0  0  0  0  0  0  0  0  0  0
    9.3641  -17.0940   23.6857 O   0  0  0  0  0  0  0  0  0  0  0  0
    9.8862  -14.5462   30.7356 O   0  0  0  0  0  0  0  0  0  0  0  0
   10.1266  -15.1153   29.4843 C   0  0  0  0  0  0  0  0  0  0  0  0
   11.0420  -14.5042   28.6425 C   0  0  0  0  0  0  0  0  0  0  0  0
   11.2855  -15.0630   27.3998 C   0  0  0  0  0  0  0  0  0  0  0  0
   10.6529  -16.2032   26.9682 C   0  0  0  0  0  0  0  0  0  0  0  0
   10.9694  -16.7387   25.6249 C   0  0  0  0  0  0  0  0  0  0  0  0
   11.4582  -15.6526   24.6723 C   0  0  2  0  0  0  0  0  0  0  0  0
   10.3079  -15.0401   23.9937 N   0  0  0  0  0  0  0  0  0  0  0  0
   12.3704  -16.1775   23.6638 C   0  0  0  0  0  0  0  0  0  0  0  0
   13.6190  -16.0790   23.6518 O   0  0  0  0  0  0  0  0  0  0  0  0
    9.7461  -16.8038   27.8088 C   0  0  0  0  0  0  0  0  0  0  0  0
    9.4892  -16.2560   29.0607 C   0  0  0  0  0  0  0  0  0  0  0  0
   11.8028  -16.8731   22.5795 O   0  0  0  0  0  0  0  0  0  0  0  0
  1  2  1  0
  2  3  1  0
  3  5  1  0
  3  4  1  6
  5  6  2  0
  7  5  1  0
  7  8  1  0
  8  9  1  1
  9 10  1  0
 10 15  2  0
 11 12  2  0
 11 10  1  0
 12 13  1  0
 13 14  2  0
 15 14  1  0
 16  8  1  0
 16 17  2  0
 18 19  1  0
 19 29  2  0
 19 20  1  0
 20 21  2  0
 21 22  1  0
 22 23  1  0
 24 23  1  1
 24 26  1  0
 24 25  1  0
 25 16  1  0
 26 30  1  0
 27 26  2  0
 28 22  2  0
 29 28  1  0
M  END
$$$$
