SFY.pdb
     RDKit          3D

 30 31  0  0  1  0  0  0  0  0999 V2000
   11.0900  -18.7250   20.3085 O   0  0  0  0  0  0  0  0  0  0  0  0
    9.8490  -18.3657   19.7868 C   0  0  0  0  0  0  0  0  0  0  0  0
    9.7939  -16.8789   19.5238 C   0  0  2  0  0  0  0  0  0  0  0  0
   10.8934  -16.4096   18.7426 N   0  0  0  0  0  0  0  0  0  0  0  0
    9.6998  -16.0921   20.7638 C   0  0  0  0  0  0  0  0  0  0  0  0
   10.7464  -15.5238   21.1673 O   0  0  0  0  0  0  0  0  0  0  0  0
    8.5184  -15.9404   21.5167 N   0  0  0  0  0  0  0  0  0  0  0  0
    8.5143  -15.0939   22.6873 C   0  0  1  0  0  0  0  0  0  0  0  0
    7.0747  -14.7604   23.0725 C   0  0  0  0  0  0  0  0  0  0  0  0
    6.9654  -13.8359   24.1961 C   0  0  0  0  0  0  0  0  0  0  0  0
    6.4099  -14.2296   25.3943 C   0  0  0  0  0  0  0  0  0  0  0  0
    6.3116  -13.3267   26.4612 C   0  0  0  0  0  0  0  0  0  0  0  0
    6.7695  -12.0384   26.3212 C   0  0  0  0  0  0  0  0  0  0  0  0
    7.3212  -11.6456   25.1327 C   0  0  0  0  0  0  0  0  0  0  0  0
    7.4107  -12.5423   24.0953 C   0  0  0  0  0  0  0  0  0  0  0  0
    9.2060  -15.7216   23.8105 C   0  0  0  0  0  0  0  0  0  0  0  0
    8.9551  -16.9478   24.0732 O   0  0  0  0  0  0  0  0  0  0  0  0
   11.7830  -17.1076   32.0538 O   0  0  0  0  0  0  0  0  0  0  0  0
   11.5825  -16.5465   30.7919 C   0  0  0  0  0  0  0  0  0  0  0  0
   10.4964  -15.7066   30.6045 C   0  0  0  0  0  0  0  0  0  0  0  0
   10.2912  -15.1464   29.3556 C   0  0  0  0  0  0  0  0  0  0  0  0
   11.1251  -15.3917   28.2922 C   0  0  0  0  0  0  0  0  0  0  0  0
   10.8375  -14.7530   26.9881 C   0  0  0  0  0  0  0  0  0  0  0  0
   10.6386  -15.7777   25.8762 C   0  0  2  0  0  0  0  0  0  0  0  0
   10.1563  -15.1009   24.6646 N   0  0  0  0  0  0  0  0  0  0  0  0
    9.6794  -16.8108   26.2474 C   0  0  0  0  0  0  0  0  0  0  0  0
    9.9274  -18.0087   26.5163 O   0  0  0  0  0  0  0  0  0  0  0  0
   12.2005  -16.2259   28.4858 C   0  0  0  0  0  0  0  0  0  0  0  0
   12.4218  -16.7974   29.7339 C   0  0  0  0  0  0  0  0  0  0  0  0
    8.3237  -16.4380   26.3159 O   0  0  0  0  0  0  0  0  0  0  0  0
  1  2  1  0
  2  3  1  0
  3  5  1  0
  3  4  1  1
  5  6  2  0
  7  5  1  0
  7  8  1  0
  8  9  1  1
  9 10  1  0
 10 15  2  0
 11 12  2  0
 11 10  1  0
 12 13  1  0
 13 14  2  0
 15 14  1  0
 16  8  1  0
 16 17  2  0
 18 19  1  0
 19 29  2  0
 19 20  1  0
 20 21  2  0
 21 22  1  0
 22 23  1  0
 24 23  1  1
 24 26  1  0
 24 25  1  0
 25 16  1  0
 26 30  1  0
 27 26  2  0
 28 22  2  0
 29 28  1  0
M  END
$$$$
