SFY.pdb
     RDKit          3D

 30 31  0  0  1  0  0  0  0  0999 V2000
   10.4205  -18.6150   20.6703 O   0  0  0  0  0  0  0  0  0  0  0  0
    9.4007  -18.0648   19.8966 C   0  0  0  0  0  0  0  0  0  0  0  0
    9.6089  -16.5784   19.7231 C   0  0  2  0  0  0  0  0  0  0  0  0
   10.8419  -16.2598   19.0769 N   0  0  0  0  0  0  0  0  0  0  0  0
    9.5165  -15.8458   20.9959 C   0  0  0  0  0  0  0  0  0  0  0  0
   10.5944  -15.4842   21.5330 O   0  0  0  0  0  0  0  0  0  0  0  0
    8.3040  -15.5295   21.6404 N   0  0  0  0  0  0  0  0  0  0  0  0
    8.3153  -14.7302   22.8437 C   0  0  1  0  0  0  0  0  0  0  0  0
    6.9016  -14.2360   23.1429 C   0  0  0  0  0  0  0  0  0  0  0  0
    6.8260  -13.3210   24.2771 C   0  0  0  0  0  0  0  0  0  0  0  0
    6.2371  -13.7009   25.4638 C   0  0  0  0  0  0  0  0  0  0  0  0
    6.1720  -12.8075   26.5411 C   0  0  0  0  0  0  0  0  0  0  0  0
    6.6961  -11.5424   26.4231 C   0  0  0  0  0  0  0  0  0  0  0  0
    7.2810  -11.1634   25.2460 C   0  0  0  0  0  0  0  0  0  0  0  0
    7.3374  -12.0506   24.1981 C   0  0  0  0  0  0  0  0  0  0  0  0
    8.8421  -15.4767   23.9835 C   0  0  0  0  0  0  0  0  0  0  0  0
    8.5125  -16.7056   24.1128 O   0  0  0  0  0  0  0  0  0  0  0  0
   12.4176  -17.8797   31.7415 O   0  0  0  0  0  0  0  0  0  0  0  0
   12.0829  -17.1887   30.5762 C   0  0  0  0  0  0  0  0  0  0  0  0
   11.1200  -16.1948   30.6479 C   0  0  0  0  0  0  0  0  0  0  0  0
   10.7829  -15.5052   29.4962 C   0  0  0  0  0  0  0  0  0  0  0  0
   11.3677  -15.7691   28.2817 C   0  0  0  0  0  0  0  0  0  0  0  0
   10.9524  -14.9860   27.0962 C   0  0  0  0  0  0  0  0  0  0  0  0
   10.1274  -15.8156   26.1180 C   0  0  2  0  0  0  0  0  0  0  0  0
    9.7077  -14.9721   24.9904 N   0  0  0  0  0  0  0  0  0  0  0  0
    8.9396  -16.3820   26.7450 C   0  0  0  0  0  0  0  0  0  0  0  0
    7.8277  -15.8252   26.8951 O   0  0  0  0  0  0  0  0  0  0  0  0
   12.3221  -16.7565   28.2185 C   0  0  0  0  0  0  0  0  0  0  0  0
   12.6730  -17.4594   29.3657 C   0  0  0  0  0  0  0  0  0  0  0  0
    9.0358  -17.6961   27.2405 O   0  0  0  0  0  0  0  0  0  0  0  0
  1  2  1  0
  2  3  1  0
  3  5  1  0
  3  4  1  1
  5  6  2  0
  7  5  1  0
  7  8  1  0
  8  9  1  1
  9 10  1  0
 10 15  2  0
 11 12  2  0
 11 10  1  0
 12 13  1  0
 13 14  2  0
 15 14  1  0
 16  8  1  0
 16 17  2  0
 18 19  1  0
 19 29  2  0
 19 20  1  0
 20 21  2  0
 21 22  1  0
 22 23  1  0
 24 23  1  1
 24 26  1  0
 24 25  1  0
 25 16  1  0
 26 30  1  0
 27 26  2  0
 28 22  2  0
 29 28  1  0
M  END
$$$$
