SFY.pdb
     RDKit          3D

 30 31  0  0  1  0  0  0  0  0999 V2000
    9.9158  -18.9086   21.1506 O   0  0  0  0  0  0  0  0  0  0  0  0
    9.0717  -18.0474   20.4527 C   0  0  0  0  0  0  0  0  0  0  0  0
    9.6412  -16.6481   20.4308 C   0  0  2  0  0  0  0  0  0  0  0  0
   10.9566  -16.5900   19.8778 N   0  0  0  0  0  0  0  0  0  0  0  0
    9.6384  -16.0194   21.7613 C   0  0  0  0  0  0  0  0  0  0  0  0
   10.7454  -15.9007   22.3456 O   0  0  0  0  0  0  0  0  0  0  0  0
    8.4802  -15.5482   22.4111 N   0  0  0  0  0  0  0  0  0  0  0  0
    8.5966  -14.8297   23.6590 C   0  0  1  0  0  0  0  0  0  0  0  0
    7.2527  -14.1959   24.0117 C   0  0  0  0  0  0  0  0  0  0  0  0
    7.2939  -13.3539   25.2027 C   0  0  0  0  0  0  0  0  0  0  0  0
    6.5329  -13.6489   26.3132 C   0  0  0  0  0  0  0  0  0  0  0  0
    6.5843  -12.8271   27.4468 C   0  0  0  0  0  0  0  0  0  0  0  0
    7.3957  -11.7178   27.4607 C   0  0  0  0  0  0  0  0  0  0  0  0
    8.1518  -11.4233   26.3594 C   0  0  0  0  0  0  0  0  0  0  0  0
    8.0909  -12.2386   25.2549 C   0  0  0  0  0  0  0  0  0  0  0  0
    9.0460  -15.6993   24.7434 C   0  0  0  0  0  0  0  0  0  0  0  0
    8.6161  -16.9033   24.7777 O   0  0  0  0  0  0  0  0  0  0  0  0
   14.0139  -18.6525   21.9928 O   0  0  0  0  0  0  0  0  0  0  0  0
   13.4852  -18.1335   23.1754 C   0  0  0  0  0  0  0  0  0  0  0  0
   13.6517  -16.7836   23.4400 C   0  0  0  0  0  0  0  0  0  0  0  0
   13.1299  -16.2617   24.6110 C   0  0  0  0  0  0  0  0  0  0  0  0
   12.4516  -17.0329   25.5231 C   0  0  0  0  0  0  0  0  0  0  0  0
   11.9231  -16.3987   26.7518 C   0  0  0  0  0  0  0  0  0  0  0  0
   10.3990  -16.3445   26.7622 C   0  0  2  0  0  0  0  0  0  0  0  0
    9.9362  -15.3433   25.7914 N   0  0  0  0  0  0  0  0  0  0  0  0
    9.8714  -15.9996   28.0766 C   0  0  0  0  0  0  0  0  0  0  0  0
    9.9752  -16.6687   29.1303 O   0  0  0  0  0  0  0  0  0  0  0  0
   12.2904  -18.3712   25.2536 C   0  0  0  0  0  0  0  0  0  0  0  0
   12.8081  -18.9122   24.0820 C   0  0  0  0  0  0  0  0  0  0  0  0
    9.1665  -14.7865   28.1910 O   0  0  0  0  0  0  0  0  0  0  0  0
  1  2  1  0
  2  3  1  0
  3  5  1  0
  3  4  1  1
  5  6  2  0
  7  5  1  0
  7  8  1  0
  8  9  1  1
  9 10  1  0
 10 15  2  0
 11 12  2  0
 11 10  1  0
 12 13  1  0
 13 14  2  0
 15 14  1  0
 16  8  1  0
 16 17  2  0
 18 19  1  0
 19 29  2  0
 19 20  1  0
 20 21  2  0
 21 22  1  0
 22 23  1  0
 24 23  1  1
 24 26  1  0
 24 25  1  0
 25 16  1  0
 26 30  1  0
 27 26  2  0
 28 22  2  0
 29 28  1  0
M  END
$$$$
