SFY.pdb
     RDKit          3D

 30 31  0  0  1  0  0  0  0  0999 V2000
   10.6334  -18.7438   19.9223 O   0  0  0  0  0  0  0  0  0  0  0  0
    9.3323  -18.2508   19.8487 C   0  0  0  0  0  0  0  0  0  0  0  0
    9.3426  -16.7574   19.6194 C   0  0  2  0  0  0  0  0  0  0  0  0
   10.4381  -16.3248   18.8120 N   0  0  0  0  0  0  0  0  0  0  0  0
    9.3279  -15.9957   20.8783 C   0  0  0  0  0  0  0  0  0  0  0  0
   10.4287  -15.5593   21.3014 O   0  0  0  0  0  0  0  0  0  0  0  0
    8.1652  -15.7299   21.6287 N   0  0  0  0  0  0  0  0  0  0  0  0
    8.2492  -14.9271   22.8267 C   0  0  1  0  0  0  0  0  0  0  0  0
    6.8484  -14.4882   23.2478 C   0  0  0  0  0  0  0  0  0  0  0  0
    6.8287  -13.6489   24.4413 C   0  0  0  0  0  0  0  0  0  0  0  0
    6.1984  -14.0619   25.5952 C   0  0  0  0  0  0  0  0  0  0  0  0
    6.1883  -13.2411   26.7305 C   0  0  0  0  0  0  0  0  0  0  0  0
    6.8083  -12.0147   26.7028 C   0  0  0  0  0  0  0  0  0  0  0  0
    7.4345  -11.6029   25.5585 C   0  0  0  0  0  0  0  0  0  0  0  0
    7.4360  -12.4189   24.4528 C   0  0  0  0  0  0  0  0  0  0  0  0
    8.9021  -15.6487   23.9162 C   0  0  0  0  0  0  0  0  0  0  0  0
    8.6177  -16.8839   24.0864 O   0  0  0  0  0  0  0  0  0  0  0  0
   12.6087  -17.5950   31.7293 O   0  0  0  0  0  0  0  0  0  0  0  0
   12.2664  -16.9816   30.5234 C   0  0  0  0  0  0  0  0  0  0  0  0
   11.3715  -15.9240   30.5479 C   0  0  0  0  0  0  0  0  0  0  0  0
   11.0273  -15.3108   29.3557 C   0  0  0  0  0  0  0  0  0  0  0  0
   11.5403  -15.7115   28.1463 C   0  0  0  0  0  0  0  0  0  0  0  0
   11.1226  -15.0029   26.9156 C   0  0  0  0  0  0  0  0  0  0  0  0
   10.3135  -15.8975   25.9823 C   0  0  2  0  0  0  0  0  0  0  0  0
    9.8477  -15.1128   24.8307 N   0  0  0  0  0  0  0  0  0  0  0  0
    9.1559  -16.4811   26.6489 C   0  0  0  0  0  0  0  0  0  0  0  0
    9.0026  -17.6782   26.9839 O   0  0  0  0  0  0  0  0  0  0  0  0
   12.4276  -16.7614   28.1300 C   0  0  0  0  0  0  0  0  0  0  0  0
   12.7845  -17.3891   29.3183 C   0  0  0  0  0  0  0  0  0  0  0  0
    8.0860  -15.6196   26.9565 O   0  0  0  0  0  0  0  0  0  0  0  0
  1  2  1  0
  2  3  1  0
  3  5  1  0
  3  4  1  1
  5  6  2  0
  7  5  1  0
  7  8  1  0
  8  9  1  1
  9 10  1  0
 10 15  2  0
 11 12  2  0
 11 10  1  0
 12 13  1  0
 13 14  2  0
 15 14  1  0
 16  8  1  0
 16 17  2  0
 18 19  1  0
 19 29  2  0
 19 20  1  0
 20 21  2  0
 21 22  1  0
 22 23  1  0
 24 23  1  1
 24 26  1  0
 24 25  1  0
 25 16  1  0
 26 30  1  0
 27 26  2  0
 28 22  2  0
 29 28  1  0
M  END
$$$$
