SFY.pdb
     RDKit          3D

 30 31  0  0  1  0  0  0  0  0999 V2000
   10.1468  -18.7142   21.0125 O   0  0  0  0  0  0  0  0  0  0  0  0
    9.2396  -18.0251   20.2105 C   0  0  0  0  0  0  0  0  0  0  0  0
    9.6355  -16.5721   20.0888 C   0  0  2  0  0  0  0  0  0  0  0  0
   10.9038  -16.3907   19.4581 N   0  0  0  0  0  0  0  0  0  0  0  0
    9.6268  -15.8769   21.3857 C   0  0  0  0  0  0  0  0  0  0  0  0
   10.7248  -15.7661   21.9883 O   0  0  0  0  0  0  0  0  0  0  0  0
    8.4724  -15.3343   21.9847 N   0  0  0  0  0  0  0  0  0  0  0  0
    8.5613  -14.7104   23.2846 C   0  0  1  0  0  0  0  0  0  0  0  0
    7.2867  -13.9149   23.5585 C   0  0  0  0  0  0  0  0  0  0  0  0
    7.2643  -13.2723   24.8683 C   0  0  0  0  0  0  0  0  0  0  0  0
    7.9853  -12.1236   25.1133 C   0  0  0  0  0  0  0  0  0  0  0  0
    7.9529  -11.5222   26.3783 C   0  0  0  0  0  0  0  0  0  0  0  0
    7.2003  -12.0739   27.3873 C   0  0  0  0  0  0  0  0  0  0  0  0
    6.4840  -13.2141   27.1462 C   0  0  0  0  0  0  0  0  0  0  0  0
    6.5256  -13.7927   25.9005 C   0  0  0  0  0  0  0  0  0  0  0  0
    8.7809  -15.6937   24.3422 C   0  0  0  0  0  0  0  0  0  0  0  0
    8.1630  -16.8114   24.2739 O   0  0  0  0  0  0  0  0  0  0  0  0
   15.8335  -15.5968   24.1360 O   0  0  0  0  0  0  0  0  0  0  0  0
   14.5750  -16.1072   24.4574 C   0  0  0  0  0  0  0  0  0  0  0  0
   14.3604  -16.5831   25.7410 C   0  0  0  0  0  0  0  0  0  0  0  0
   13.1148  -17.0908   26.0670 C   0  0  0  0  0  0  0  0  0  0  0  0
   12.0806  -17.1411   25.1646 C   0  0  0  0  0  0  0  0  0  0  0  0
   10.7775  -17.6985   25.5917 C   0  0  0  0  0  0  0  0  0  0  0  0
    9.9344  -16.6774   26.3484 C   0  0  2  0  0  0  0  0  0  0  0  0
    9.6330  -15.5401   25.4683 N   0  0  0  0  0  0  0  0  0  0  0  0
   10.6130  -16.1800   27.5388 C   0  0  0  0  0  0  0  0  0  0  0  0
   11.0550  -16.8589   28.4940 O   0  0  0  0  0  0  0  0  0  0  0  0
   12.3011  -16.6671   23.8931 C   0  0  0  0  0  0  0  0  0  0  0  0
   13.5464  -16.1536   23.5483 C   0  0  0  0  0  0  0  0  0  0  0  0
   10.7999  -14.7885   27.6411 O   0  0  0  0  0  0  0  0  0  0  0  0
  1  2  1  0
  2  3  1  0
  3  5  1  0
  3  4  1  1
  5  6  2  0
  7  5  1  0
  7  8  1  0
  8  9  1  1
  9 10  1  0
 10 15  2  0
 11 12  2  0
 11 10  1  0
 12 13  1  0
 13 14  2  0
 15 14  1  0
 16  8  1  0
 16 17  2  0
 18 19  1  0
 19 29  2  0
 19 20  1  0
 20 21  2  0
 21 22  1  0
 22 23  1  0
 24 23  1  6
 24 26  1  0
 24 25  1  0
 25 16  1  0
 26 30  1  0
 27 26  2  0
 28 22  2  0
 29 28  1  0
M  END
$$$$
