HYV.pdb
     RDKit          3D

 30 31  0  0  1  0  0  0  0  0999 V2000
    8.6690  -18.2916   19.4898 N   0  0  0  0  0  0  0  0  0  0  0  0
    9.7806  -17.3740   19.5889 C   0  0  1  0  0  0  0  0  0  0  0  0
    9.9017  -16.4859   18.3550 C   0  0  0  0  0  0  0  0  0  0  0  0
    9.6938  -17.3046   17.1296 C   0  0  0  0  0  0  0  0  0  0  0  0
    9.3720  -18.6534   17.1088 C   0  0  0  0  0  0  0  0  0  0  0  0
    9.2670  -19.0381   15.8169 N   0  0  0  0  0  0  0  0  0  0  0  0
    9.5179  -17.9535   15.0558 C   0  0  0  0  0  0  0  0  0  0  0  0
    9.7800  -16.8882   15.8480 N   0  0  0  0  0  0  0  0  0  0  0  0
    9.7044  -16.5523   20.8141 C   0  0  0  0  0  0  0  0  0  0  0  0
    9.7032  -15.2963   20.7407 O   0  0  0  0  0  0  0  0  0  0  0  0
    7.9423  -12.0731   18.7033 O   0  0  0  0  0  0  0  0  0  0  0  0
    7.9959  -12.9298   19.8134 C   0  0  0  0  0  0  0  0  0  0  0  0
    8.8147  -12.6928   20.8908 C   0  0  0  0  0  0  0  0  0  0  0  0
    8.8912  -13.5124   21.9944 C   0  0  0  0  0  0  0  0  0  0  0  0
    8.1111  -14.6409   22.0433 C   0  0  0  0  0  0  0  0  0  0  0  0
    8.1229  -15.5883   23.1883 C   0  0  0  0  0  0  0  0  0  0  0  0
    9.4805  -16.2964   23.2837 C   0  0  2  0  0  0  0  0  0  0  0  0
    9.6302  -17.1135   22.1092 N   0  0  0  0  0  0  0  0  0  0  0  0
    9.4753  -17.0772   24.5322 C   0  0  0  0  0  0  0  0  0  0  0  0
    8.4605  -17.7677   24.8332 O   0  0  0  0  0  0  0  0  0  0  0  0
    7.2798  -14.9028   20.9748 C   0  0  0  0  0  0  0  0  0  0  0  0
    7.2145  -14.0708   19.8751 C   0  0  0  0  0  0  0  0  0  0  0  0
   12.7046  -19.0174   24.6706 C   0  0  0  0  0  0  0  0  0  0  0  0
   12.3190  -18.7116   26.1029 C   0  0  2  0  0  0  0  0  0  0  0  0
   12.7035  -19.8670   26.9598 C   0  0  0  0  0  0  0  0  0  0  0  0
   10.8796  -18.3082   26.2353 C   0  0  2  0  0  0  0  0  0  0  0  0
   10.5464  -17.1271   25.4644 N   0  0  0  0  0  0  0  0  0  0  0  0
   10.5124  -18.0171   27.6464 C   0  0  0  0  0  0  0  0  0  0  0  0
   10.5709  -16.8369   28.0652 O   0  0  0  0  0  0  0  0  0  0  0  0
   10.1014  -18.9956   28.5415 O   0  0  0  0  0  0  0  0  0  0  0  0
  2  1  1  6
  2  3  1  0
  3  4  1  0
  4  5  2  0
  5  6  1  0
  7  6  1  0
  8  4  1  0
  8  7  2  0
  9  2  1  0
  9 18  1  0
 10  9  2  0
 12 22  2  0
 12 11  1  0
 13 12  1  0
 14 13  2  0
 15 14  1  0
 15 21  2  0
 17 16  1  6
 16 15  1  0
 17 18  1  0
 19 17  1  0
 20 19  2  0
 21 22  1  0
 24 23  1  6
 24 26  1  0
 25 24  1  0
 26 27  1  6
 26 28  1  0
 27 19  1  0
 28 30  1  0
 29 28  2  0
M  END
$$$$
