HYV.pdb
     RDKit          3D

 30 31  0  0  1  0  0  0  0  0999 V2000
   12.0898  -15.9545   14.8514 N   0  0  0  0  0  0  0  0  0  0  0  0
   11.2309  -15.7043   15.9860 C   0  0  1  0  0  0  0  0  0  0  0  0
    9.8938  -16.4271   15.8624 C   0  0  0  0  0  0  0  0  0  0  0  0
    9.1540  -15.9078   14.6799 C   0  0  0  0  0  0  0  0  0  0  0  0
    8.3374  -14.7870   14.6711 C   0  0  0  0  0  0  0  0  0  0  0  0
    7.8456  -14.6381   13.4206 N   0  0  0  0  0  0  0  0  0  0  0  0
    8.3458  -15.6426   12.6727 C   0  0  0  0  0  0  0  0  0  0  0  0
    9.1469  -16.4248   13.4326 N   0  0  0  0  0  0  0  0  0  0  0  0
   11.8925  -16.0513   17.2603 C   0  0  0  0  0  0  0  0  0  0  0  0
   12.4751  -17.1582   17.3958 O   0  0  0  0  0  0  0  0  0  0  0  0
   18.4513  -13.5291   17.5967 O   0  0  0  0  0  0  0  0  0  0  0  0
   17.1857  -13.6823   18.1832 C   0  0  0  0  0  0  0  0  0  0  0  0
   16.0334  -13.2411   17.5795 C   0  0  0  0  0  0  0  0  0  0  0  0
   14.7774  -13.3754   18.1273 C   0  0  0  0  0  0  0  0  0  0  0  0
   14.6441  -13.9840   19.3505 C   0  0  0  0  0  0  0  0  0  0  0  0
   13.3337  -14.1751   20.0251 C   0  0  0  0  0  0  0  0  0  0  0  0
   12.6755  -15.4794   19.5569 C   0  0  2  0  0  0  0  0  0  0  0  0
   11.9105  -15.1828   18.3753 N   0  0  0  0  0  0  0  0  0  0  0  0
   11.8477  -15.9713   20.6711 C   0  0  0  0  0  0  0  0  0  0  0  0
   10.7807  -15.3646   20.9721 O   0  0  0  0  0  0  0  0  0  0  0  0
   15.7852  -14.4364   19.9788 C   0  0  0  0  0  0  0  0  0  0  0  0
   17.0378  -14.2942   19.4161 C   0  0  0  0  0  0  0  0  0  0  0  0
   11.9251  -20.0049   21.9877 C   0  0  0  0  0  0  0  0  0  0  0  0
   10.7791  -19.0306   22.1637 C   0  0  2  0  0  0  0  0  0  0  0  0
    9.8906  -19.1154   20.9720 C   0  0  0  0  0  0  0  0  0  0  0  0
   11.2514  -17.6402   22.4731 C   0  0  2  0  0  0  0  0  0  0  0  0
   12.1500  -17.1077   21.4685 N   0  0  0  0  0  0  0  0  0  0  0  0
   11.9725  -17.5751   23.7717 C   0  0  0  0  0  0  0  0  0  0  0  0
   13.2249  -17.5182   23.7763 O   0  0  0  0  0  0  0  0  0  0  0  0
   11.3260  -17.5739   25.0003 O   0  0  0  0  0  0  0  0  0  0  0  0
  2  1  1  6
  2  3  1  0
  3  4  1  0
  4  5  2  0
  5  6  1  0
  7  6  1  0
  8  4  1  0
  8  7  2  0
  9  2  1  0
  9 18  1  0
 10  9  2  0
 12 22  2  0
 12 11  1  0
 13 12  1  0
 14 13  2  0
 15 14  1  0
 15 21  2  0
 17 16  1  1
 16 15  1  0
 17 18  1  0
 19 17  1  0
 20 19  2  0
 21 22  1  0
 24 23  1  6
 24 26  1  0
 25 24  1  0
 26 27  1  6
 26 28  1  0
 27 19  1  0
 28 30  1  0
 29 28  2  0
M  END
$$$$
