HYV.pdb
     RDKit          3D

 30 31  0  0  1  0  0  0  0  0999 V2000
   10.3220  -18.3765   20.7092 N   0  0  0  0  0  0  0  0  0  0  0  0
   11.1019  -17.1604   20.6894 C   0  0  1  0  0  0  0  0  0  0  0  0
   11.1835  -16.5552   19.2920 C   0  0  0  0  0  0  0  0  0  0  0  0
   11.7291  -17.5639   18.3433 C   0  0  0  0  0  0  0  0  0  0  0  0
   13.0059  -17.5508   17.8024 C   0  0  0  0  0  0  0  0  0  0  0  0
   13.1267  -18.6249   16.9902 N   0  0  0  0  0  0  0  0  0  0  0  0
   11.9527  -19.2874   17.0272 C   0  0  0  0  0  0  0  0  0  0  0  0
   11.0910  -18.6474   17.8513 N   0  0  0  0  0  0  0  0  0  0  0  0
   10.5913  -16.1670   21.6561 C   0  0  0  0  0  0  0  0  0  0  0  0
   11.1808  -15.0664   21.8111 O   0  0  0  0  0  0  0  0  0  0  0  0
    5.8687  -11.4203   27.2486 O   0  0  0  0  0  0  0  0  0  0  0  0
    6.2723  -12.3981   26.3265 C   0  0  0  0  0  0  0  0  0  0  0  0
    6.0468  -13.7386   26.5249 C   0  0  0  0  0  0  0  0  0  0  0  0
    6.4295  -14.7225   25.6411 C   0  0  0  0  0  0  0  0  0  0  0  0
    7.0774  -14.3659   24.4846 C   0  0  0  0  0  0  0  0  0  0  0  0
    7.5314  -15.3524   23.4698 C   0  0  0  0  0  0  0  0  0  0  0  0
    9.0591  -15.4895   23.5021 C   0  0  2  0  0  0  0  0  0  0  0  0
    9.4392  -16.3877   22.4447 N   0  0  0  0  0  0  0  0  0  0  0  0
    9.4212  -15.9877   24.8397 C   0  0  0  0  0  0  0  0  0  0  0  0
    9.6089  -17.2250   25.0160 O   0  0  0  0  0  0  0  0  0  0  0  0
    7.3166  -13.0265   24.2604 C   0  0  0  0  0  0  0  0  0  0  0  0
    6.9263  -12.0517   25.1566 C   0  0  0  0  0  0  0  0  0  0  0  0
   10.9803  -13.3183   27.8073 C   0  0  0  0  0  0  0  0  0  0  0  0
   10.2876  -14.5806   28.2767 C   0  0  2  0  0  0  0  0  0  0  0  0
   10.9294  -15.0380   29.5399 C   0  0  0  0  0  0  0  0  0  0  0  0
   10.2282  -15.6329   27.2084 C   0  0  2  0  0  0  0  0  0  0  0  0
    9.5849  -15.1746   25.9933 N   0  0  0  0  0  0  0  0  0  0  0  0
    9.4849  -16.8393   27.6585 C   0  0  0  0  0  0  0  0  0  0  0  0
    8.2542  -16.9216   27.4340 O   0  0  0  0  0  0  0  0  0  0  0  0
   10.0873  -17.8978   28.3250 O   0  0  0  0  0  0  0  0  0  0  0  0
  2  1  1  6
  2  3  1  0
  3  4  1  0
  4  5  2  0
  5  6  1  0
  7  6  1  0
  8  4  1  0
  8  7  2  0
  9  2  1  0
  9 18  1  0
 10  9  2  0
 12 22  2  0
 12 11  1  0
 13 12  1  0
 14 13  2  0
 15 14  1  0
 15 21  2  0
 17 16  1  1
 16 15  1  0
 17 18  1  0
 19 17  1  0
 20 19  2  0
 21 22  1  0
 24 23  1  6
 24 26  1  0
 25 24  1  0
 26 27  1  6
 26 28  1  0
 27 19  1  0
 28 30  1  0
 29 28  2  0
M  END
$$$$
