HYV.pdb
     RDKit          3D

 30 31  0  0  1  0  0  0  0  0999 V2000
    8.9330  -18.6662   20.6207 N   0  0  0  0  0  0  0  0  0  0  0  0
    9.8121  -17.5229   20.5328 C   0  0  1  0  0  0  0  0  0  0  0  0
    9.9784  -17.0376   19.0967 C   0  0  0  0  0  0  0  0  0  0  0  0
   10.8368  -17.9927   18.3442 C   0  0  0  0  0  0  0  0  0  0  0  0
   12.2197  -18.0631   18.4209 C   0  0  0  0  0  0  0  0  0  0  0  0
   12.6342  -19.0504   17.5955 N   0  0  0  0  0  0  0  0  0  0  0  0
   11.5344  -19.5789   17.0213 C   0  0  0  0  0  0  0  0  0  0  0  0
   10.4300  -18.9397   17.4720 N   0  0  0  0  0  0  0  0  0  0  0  0
    9.3626  -16.4187   21.4050 C   0  0  0  0  0  0  0  0  0  0  0  0
    8.5521  -15.5570   20.9766 O   0  0  0  0  0  0  0  0  0  0  0  0
    5.5665  -11.4098   27.0739 O   0  0  0  0  0  0  0  0  0  0  0  0
    6.1118  -12.4394   26.2916 C   0  0  0  0  0  0  0  0  0  0  0  0
    5.9138  -13.7684   26.5775 C   0  0  0  0  0  0  0  0  0  0  0  0
    6.4341  -14.8020   25.8314 C   0  0  0  0  0  0  0  0  0  0  0  0
    7.2007  -14.5108   24.7305 C   0  0  0  0  0  0  0  0  0  0  0  0
    7.8072  -15.5542   23.8631 C   0  0  0  0  0  0  0  0  0  0  0  0
    9.2853  -15.2387   23.5995 C   0  0  2  0  0  0  0  0  0  0  0  0
    9.8046  -16.2678   22.7390 N   0  0  0  0  0  0  0  0  0  0  0  0
    9.9577  -15.1882   24.9086 C   0  0  0  0  0  0  0  0  0  0  0  0
   10.6708  -14.1882   25.2067 O   0  0  0  0  0  0  0  0  0  0  0  0
    7.4153  -13.1843   24.4207 C   0  0  0  0  0  0  0  0  0  0  0  0
    6.8863  -12.1592   25.1791 C   0  0  0  0  0  0  0  0  0  0  0  0
   10.7210  -13.6166   27.1047 C   0  0  0  0  0  0  0  0  0  0  0  0
   10.2909  -14.8273   27.9064 C   0  0  2  0  0  0  0  0  0  0  0  0
   10.9154  -14.7549   29.2561 C   0  0  0  0  0  0  0  0  0  0  0  0
   10.5524  -16.1160   27.1831 C   0  0  2  0  0  0  0  0  0  0  0  0
    9.8755  -16.1984   25.9043 N   0  0  0  0  0  0  0  0  0  0  0  0
   10.1164  -17.2957   27.9761 C   0  0  0  0  0  0  0  0  0  0  0  0
    9.0617  -17.8940   27.6575 O   0  0  0  0  0  0  0  0  0  0  0  0
   10.8235  -17.7802   29.0682 O   0  0  0  0  0  0  0  0  0  0  0  0
  2  1  1  6
  2  3  1  0
  3  4  1  0
  4  5  2  0
  5  6  1  0
  7  6  1  0
  8  4  1  0
  8  7  2  0
  9  2  1  0
  9 18  1  0
 10  9  2  0
 12 22  2  0
 12 11  1  0
 13 12  1  0
 14 13  2  0
 15 14  1  0
 15 21  2  0
 17 16  1  1
 16 15  1  0
 17 18  1  0
 19 17  1  0
 20 19  2  0
 21 22  1  0
 24 23  1  6
 24 26  1  0
 25 24  1  0
 26 27  1  6
 26 28  1  0
 27 19  1  0
 28 30  1  0
 29 28  2  0
M  END
$$$$
