HYV.pdb
     RDKit          3D

 30 31  0  0  1  0  0  0  0  0999 V2000
    9.5878  -18.8500   19.2906 N   0  0  0  0  0  0  0  0  0  0  0  0
   10.7727  -18.0391   19.4513 C   0  0  1  0  0  0  0  0  0  0  0  0
   10.9489  -17.0491   18.3048 C   0  0  0  0  0  0  0  0  0  0  0  0
   11.1855  -17.7921   17.0369 C   0  0  0  0  0  0  0  0  0  0  0  0
   12.4010  -17.8886   16.3765 C   0  0  0  0  0  0  0  0  0  0  0  0
   12.2162  -18.6416   15.2689 N   0  0  0  0  0  0  0  0  0  0  0  0
   10.9171  -19.0028   15.2440 C   0  0  0  0  0  0  0  0  0  0  0  0
   10.2777  -18.4888   16.3202 N   0  0  0  0  0  0  0  0  0  0  0  0
   10.7825  -17.3357   20.7503 C   0  0  0  0  0  0  0  0  0  0  0  0
   11.7702  -16.6333   21.0879 O   0  0  0  0  0  0  0  0  0  0  0  0
    7.3966  -12.2508   19.0451 O   0  0  0  0  0  0  0  0  0  0  0  0
    7.6567  -13.1781   20.0658 C   0  0  0  0  0  0  0  0  0  0  0  0
    8.5953  -12.9560   21.0440 C   0  0  0  0  0  0  0  0  0  0  0  0
    8.8747  -13.8441   22.0583 C   0  0  0  0  0  0  0  0  0  0  0  0
    8.1861  -15.0302   22.1159 C   0  0  0  0  0  0  0  0  0  0  0  0
    8.4157  -16.0533   23.1691 C   0  0  0  0  0  0  0  0  0  0  0  0
    9.7619  -16.7554   22.9494 C   0  0  2  0  0  0  0  0  0  0  0  0
    9.7102  -17.4078   21.6684 N   0  0  0  0  0  0  0  0  0  0  0  0
    9.9481  -17.6952   24.0677 C   0  0  0  0  0  0  0  0  0  0  0  0
    9.2079  -18.7157   24.1562 O   0  0  0  0  0  0  0  0  0  0  0  0
    7.2379  -15.2786   21.1459 C   0  0  0  0  0  0  0  0  0  0  0  0
    6.9693  -14.3776   20.1351 C   0  0  0  0  0  0  0  0  0  0  0  0
   13.5200  -18.9645   25.3114 C   0  0  0  0  0  0  0  0  0  0  0  0
   12.6190  -18.6613   26.4905 C   0  0  2  0  0  0  0  0  0  0  0  0
   12.8902  -19.6523   27.5681 C   0  0  0  0  0  0  0  0  0  0  0  0
   11.1735  -18.5688   26.0983 C   0  0  2  0  0  0  0  0  0  0  0  0
   10.9198  -17.5545   25.0947 N   0  0  0  0  0  0  0  0  0  0  0  0
   10.3025  -18.2498   27.2604 C   0  0  0  0  0  0  0  0  0  0  0  0
   10.0314  -17.0523   27.5141 O   0  0  0  0  0  0  0  0  0  0  0  0
    9.7636  -19.2200   28.0945 O   0  0  0  0  0  0  0  0  0  0  0  0
  2  1  1  6
  2  3  1  0
  3  4  1  0
  4  5  2  0
  5  6  1  0
  7  6  1  0
  8  4  1  0
  8  7  2  0
  9  2  1  0
  9 18  1  0
 10  9  2  0
 12 22  2  0
 12 11  1  0
 13 12  1  0
 14 13  2  0
 15 14  1  0
 15 21  2  0
 17 16  1  1
 16 15  1  0
 17 18  1  0
 19 17  1  0
 20 19  2  0
 21 22  1  0
 24 23  1  6
 24 26  1  0
 25 24  1  0
 26 27  1  6
 26 28  1  0
 27 19  1  0
 28 30  1  0
 29 28  2  0
M  END
$$$$
