HYV.pdb
     RDKit          3D

 30 31  0  0  1  0  0  0  0  0999 V2000
    6.9573  -17.4677   19.9707 N   0  0  0  0  0  0  0  0  0  0  0  0
    7.2984  -16.2643   20.6938 C   0  0  1  0  0  0  0  0  0  0  0  0
    6.5813  -15.0389   20.1370 C   0  0  0  0  0  0  0  0  0  0  0  0
    7.3239  -14.5209   18.9557 C   0  0  0  0  0  0  0  0  0  0  0  0
    8.2358  -13.4763   18.9741 C   0  0  0  0  0  0  0  0  0  0  0  0
    8.6963  -13.3014   17.7150 N   0  0  0  0  0  0  0  0  0  0  0  0
    8.0842  -14.2158   16.9355 C   0  0  0  0  0  0  0  0  0  0  0  0
    7.2430  -14.9667   17.6838 N   0  0  0  0  0  0  0  0  0  0  0  0
    7.0397  -16.4038   22.1414 C   0  0  0  0  0  0  0  0  0  0  0  0
    5.8621  -16.5094   22.5716 O   0  0  0  0  0  0  0  0  0  0  0  0
    5.8098  -22.5960   24.3310 O   0  0  0  0  0  0  0  0  0  0  0  0
    6.5069  -21.3901   24.5021 C   0  0  0  0  0  0  0  0  0  0  0  0
    7.4641  -20.9581   23.6166 C   0  0  0  0  0  0  0  0  0  0  0  0
    8.1657  -19.7816   23.7550 C   0  0  0  0  0  0  0  0  0  0  0  0
    7.9100  -18.9749   24.8360 C   0  0  0  0  0  0  0  0  0  0  0  0
    8.6141  -17.6881   25.0748 C   0  0  0  0  0  0  0  0  0  0  0  0
    7.7958  -16.5177   24.5141 C   0  0  2  0  0  0  0  0  0  0  0  0
    8.0730  -16.4264   23.1055 N   0  0  0  0  0  0  0  0  0  0  0  0
    8.1961  -15.3126   25.2597 C   0  0  0  0  0  0  0  0  0  0  0  0
    9.3645  -14.8512   25.1207 O   0  0  0  0  0  0  0  0  0  0  0  0
    6.9534  -19.3850   25.7407 C   0  0  0  0  0  0  0  0  0  0  0  0
    6.2583  -20.5678   25.5876 C   0  0  0  0  0  0  0  0  0  0  0  0
    5.8873  -12.0231   26.0874 C   0  0  0  0  0  0  0  0  0  0  0  0
    6.6681  -12.5199   27.2862 C   0  0  2  0  0  0  0  0  0  0  0  0
    7.0909  -11.3482   28.1018 C   0  0  0  0  0  0  0  0  0  0  0  0
    7.7963  -13.4303   26.8982 C   0  0  2  0  0  0  0  0  0  0  0  0
    7.3582  -14.5945   26.1546 N   0  0  0  0  0  0  0  0  0  0  0  0
    8.5369  -13.9332   28.0853 C   0  0  0  0  0  0  0  0  0  0  0  0
    8.2987  -15.0869   28.5142 O   0  0  0  0  0  0  0  0  0  0  0  0
    9.4936  -13.1842   28.7571 O   0  0  0  0  0  0  0  0  0  0  0  0
  2  1  1  6
  2  3  1  0
  3  4  1  0
  4  5  2  0
  5  6  1  0
  7  6  1  0
  8  4  1  0
  8  7  2  0
  9  2  1  0
  9 18  1  0
 10  9  2  0
 12 22  2  0
 12 11  1  0
 13 12  1  0
 14 13  2  0
 15 14  1  0
 15 21  2  0
 17 16  1  1
 16 15  1  0
 17 18  1  0
 19 17  1  0
 20 19  2  0
 21 22  1  0
 24 23  1  6
 24 26  1  0
 25 24  1  0
 26 27  1  1
 26 28  1  0
 27 19  1  0
 28 30  1  0
 29 28  2  0
M  END
$$$$
