HYV.pdb
     RDKit          3D

 30 31  0  0  1  0  0  0  0  0999 V2000
    9.6493  -15.7043   19.6235 N   0  0  0  0  0  0  0  0  0  0  0  0
    8.7898  -16.4389   20.5229 C   0  0  1  0  0  0  0  0  0  0  0  0
    8.8764  -17.9445   20.2959 C   0  0  0  0  0  0  0  0  0  0  0  0
    8.2342  -18.2904   18.9985 C   0  0  0  0  0  0  0  0  0  0  0  0
    7.9609  -17.3975   17.9733 C   0  0  0  0  0  0  0  0  0  0  0  0
    7.3778  -18.0843   16.9653 N   0  0  0  0  0  0  0  0  0  0  0  0
    7.2919  -19.3719   17.3568 C   0  0  0  0  0  0  0  0  0  0  0  0
    7.8126  -19.5091   18.5983 N   0  0  0  0  0  0  0  0  0  0  0  0
    9.0679  -16.1104   21.9360 C   0  0  0  0  0  0  0  0  0  0  0  0
   10.2336  -15.8132   22.3043 O   0  0  0  0  0  0  0  0  0  0  0  0
    6.8991  -10.4740   27.4056 O   0  0  0  0  0  0  0  0  0  0  0  0
    6.9446  -11.7577   26.8403 C   0  0  0  0  0  0  0  0  0  0  0  0
    7.6211  -12.7996   27.4269 C   0  0  0  0  0  0  0  0  0  0  0  0
    7.6855  -14.0696   26.8992 C   0  0  0  0  0  0  0  0  0  0  0  0
    7.0424  -14.3343   25.7156 C   0  0  0  0  0  0  0  0  0  0  0  0
    7.0539  -15.6706   25.0652 C   0  0  0  0  0  0  0  0  0  0  0  0
    8.3771  -15.8929   24.3214 C   0  0  2  0  0  0  0  0  0  0  0  0
    8.0666  -16.1103   22.9337 N   0  0  0  0  0  0  0  0  0  0  0  0
    9.0398  -17.0471   24.9514 C   0  0  0  0  0  0  0  0  0  0  0  0
    8.5695  -18.2077   24.7804 O   0  0  0  0  0  0  0  0  0  0  0  0
    6.3556  -13.3060   25.1054 C   0  0  0  0  0  0  0  0  0  0  0  0
    6.3004  -12.0376   25.6475 C   0  0  0  0  0  0  0  0  0  0  0  0
   12.7152  -18.1398   24.6765 C   0  0  0  0  0  0  0  0  0  0  0  0
   12.3325  -18.1484   26.1418 C   0  0  2  0  0  0  0  0  0  0  0  0
   13.0230  -19.2854   26.8107 C   0  0  0  0  0  0  0  0  0  0  0  0
   10.8458  -18.1342   26.3459 C   0  0  2  0  0  0  0  0  0  0  0  0
   10.2026  -16.9729   25.7645 N   0  0  0  0  0  0  0  0  0  0  0  0
   10.4835  -18.1483   27.7878 C   0  0  0  0  0  0  0  0  0  0  0  0
   10.2449  -17.0647   28.3716 O   0  0  0  0  0  0  0  0  0  0  0  0
   10.3931  -19.3137   28.5369 O   0  0  0  0  0  0  0  0  0  0  0  0
  2  1  1  6
  2  3  1  0
  3  4  1  0
  4  5  2  0
  5  6  1  0
  7  6  1  0
  8  4  1  0
  8  7  2  0
  9  2  1  0
  9 18  1  0
 10  9  2  0
 12 22  2  0
 12 11  1  0
 13 12  1  0
 14 13  2  0
 15 14  1  0
 15 21  2  0
 17 16  1  1
 16 15  1  0
 17 18  1  0
 19 17  1  0
 20 19  2  0
 21 22  1  0
 24 23  1  6
 24 26  1  0
 25 24  1  0
 26 27  1  1
 26 28  1  0
 27 19  1  0
 28 30  1  0
 29 28  2  0
M  END
$$$$
