HYV.pdb
     RDKit          3D

 30 31  0  0  1  0  0  0  0  0999 V2000
   10.0642  -16.6081   18.7617 N   0  0  0  0  0  0  0  0  0  0  0  0
    8.9374  -16.8349   19.6372 C   0  0  1  0  0  0  0  0  0  0  0  0
    8.6184  -18.3187   19.7872 C   0  0  0  0  0  0  0  0  0  0  0  0
    8.0558  -18.8388   18.5111 C   0  0  0  0  0  0  0  0  0  0  0  0
    7.1289  -18.1832   17.7148 C   0  0  0  0  0  0  0  0  0  0  0  0
    6.8645  -18.9696   16.6473 N   0  0  0  0  0  0  0  0  0  0  0  0
    7.6099  -20.0856   16.7793 C   0  0  0  0  0  0  0  0  0  0  0  0
    8.3420  -20.0161   17.9153 N   0  0  0  0  0  0  0  0  0  0  0  0
    9.1386  -16.2111   20.9610 C   0  0  0  0  0  0  0  0  0  0  0  0
   10.2551  -16.2824   21.5366 O   0  0  0  0  0  0  0  0  0  0  0  0
    7.5195  -11.8669   28.5155 O   0  0  0  0  0  0  0  0  0  0  0  0
    7.4217  -12.4084   27.2246 C   0  0  0  0  0  0  0  0  0  0  0  0
    8.1152  -11.8973   26.1546 C   0  0  0  0  0  0  0  0  0  0  0  0
    8.0417  -12.4043   24.8766 C   0  0  0  0  0  0  0  0  0  0  0  0
    7.2325  -13.4861   24.6330 C   0  0  0  0  0  0  0  0  0  0  0  0
    7.0843  -14.1045   23.2897 C   0  0  0  0  0  0  0  0  0  0  0  0
    8.3262  -14.9358   22.9429 C   0  0  2  0  0  0  0  0  0  0  0  0
    8.1152  -15.5144   21.6429 N   0  0  0  0  0  0  0  0  0  0  0  0
    8.4827  -15.9445   24.0043 C   0  0  0  0  0  0  0  0  0  0  0  0
    7.5817  -16.8136   24.1781 O   0  0  0  0  0  0  0  0  0  0  0  0
    6.5248  -14.0191   25.6898 C   0  0  0  0  0  0  0  0  0  0  0  0
    6.6095  -13.4991   26.9658 C   0  0  0  0  0  0  0  0  0  0  0  0
   12.2541  -17.2745   25.3518 C   0  0  0  0  0  0  0  0  0  0  0  0
   10.9393  -18.0221   25.4303 C   0  0  2  0  0  0  0  0  0  0  0  0
   10.7312  -18.7607   24.1543 C   0  0  0  0  0  0  0  0  0  0  0  0
    9.7944  -17.1296   25.8106 C   0  0  2  0  0  0  0  0  0  0  0  0
    9.5949  -16.0335   24.8838 N   0  0  0  0  0  0  0  0  0  0  0  0
    9.9851  -16.5249   27.1555 C   0  0  0  0  0  0  0  0  0  0  0  0
   10.2391  -15.3007   27.2479 O   0  0  0  0  0  0  0  0  0  0  0  0
    9.8964  -17.2522   28.3348 O   0  0  0  0  0  0  0  0  0  0  0  0
  2  1  1  6
  2  3  1  0
  3  4  1  0
  4  5  2  0
  5  6  1  0
  7  6  1  0
  8  4  1  0
  8  7  2  0
  9  2  1  0
  9 18  1  0
 10  9  2  0
 12 22  2  0
 12 11  1  0
 13 12  1  0
 14 13  2  0
 15 14  1  0
 15 21  2  0
 17 16  1  1
 16 15  1  0
 17 18  1  0
 19 17  1  0
 20 19  2  0
 21 22  1  0
 24 23  1  6
 24 26  1  0
 25 24  1  0
 26 27  1  6
 26 28  1  0
 27 19  1  0
 28 30  1  0
 29 28  2  0
M  END
$$$$
