HYV.pdb
     RDKit          3D

 30 31  0  0  1  0  0  0  0  0999 V2000
   10.1566  -16.8317   18.7566 N   0  0  0  0  0  0  0  0  0  0  0  0
    9.0193  -17.0089   19.6300 C   0  0  1  0  0  0  0  0  0  0  0  0
    8.7082  -18.4818   19.8733 C   0  0  0  0  0  0  0  0  0  0  0  0
    7.8675  -19.0038   18.7615 C   0  0  0  0  0  0  0  0  0  0  0  0
    6.4926  -19.1789   18.8070 C   0  0  0  0  0  0  0  0  0  0  0  0
    6.0941  -19.6697   17.6119 N   0  0  0  0  0  0  0  0  0  0  0  0
    7.1958  -19.7955   16.8445 C   0  0  0  0  0  0  0  0  0  0  0  0
    8.2857  -19.3912   17.5375 N   0  0  0  0  0  0  0  0  0  0  0  0
    9.1981  -16.2976   20.9123 C   0  0  0  0  0  0  0  0  0  0  0  0
   10.3281  -16.2506   21.4634 O   0  0  0  0  0  0  0  0  0  0  0  0
    7.4067  -12.0879   28.4671 O   0  0  0  0  0  0  0  0  0  0  0  0
    7.3019  -12.6444   27.1831 C   0  0  0  0  0  0  0  0  0  0  0  0
    6.5437  -13.7596   26.9210 C   0  0  0  0  0  0  0  0  0  0  0  0
    6.4198  -14.3303   25.6742 C   0  0  0  0  0  0  0  0  0  0  0  0
    7.0853  -13.7680   24.6133 C   0  0  0  0  0  0  0  0  0  0  0  0
    7.0167  -14.3098   23.2311 C   0  0  0  0  0  0  0  0  0  0  0  0
    8.2988  -15.0821   22.8942 C   0  0  2  0  0  0  0  0  0  0  0  0
    8.1375  -15.6438   21.5797 N   0  0  0  0  0  0  0  0  0  0  0  0
    8.4766  -16.1037   23.9397 C   0  0  0  0  0  0  0  0  0  0  0  0
    7.6416  -17.0472   24.0400 O   0  0  0  0  0  0  0  0  0  0  0  0
    7.8537  -12.6475   24.8487 C   0  0  0  0  0  0  0  0  0  0  0  0
    7.9677  -12.0870   26.1051 C   0  0  0  0  0  0  0  0  0  0  0  0
   11.2421  -18.4746   24.0964 C   0  0  0  0  0  0  0  0  0  0  0  0
   11.1434  -17.8928   25.4912 C   0  0  2  0  0  0  0  0  0  0  0  0
   11.5109  -18.9464   26.4770 C   0  0  0  0  0  0  0  0  0  0  0  0
    9.8113  -17.2529   25.7524 C   0  0  2  0  0  0  0  0  0  0  0  0
    9.5402  -16.1268   24.8814 N   0  0  0  0  0  0  0  0  0  0  0  0
    9.7002  -16.7523   27.1480 C   0  0  0  0  0  0  0  0  0  0  0  0
   10.1030  -15.5966   27.4196 O   0  0  0  0  0  0  0  0  0  0  0  0
    9.1665  -17.5056   28.1849 O   0  0  0  0  0  0  0  0  0  0  0  0
  2  1  1  6
  2  3  1  0
  3  4  1  0
  4  5  2  0
  5  6  1  0
  7  6  1  0
  8  4  1  0
  8  7  2  0
  9  2  1  0
  9 18  1  0
 10  9  2  0
 12 22  2  0
 12 11  1  0
 13 12  1  0
 14 13  2  0
 15 14  1  0
 15 21  2  0
 17 16  1  1
 16 15  1  0
 17 18  1  0
 19 17  1  0
 20 19  2  0
 21 22  1  0
 24 23  1  6
 24 26  1  0
 25 24  1  0
 26 27  1  6
 26 28  1  0
 27 19  1  0
 28 30  1  0
 29 28  2  0
M  END
$$$$
