HYV.pdb
     RDKit          3D

 30 31  0  0  1  0  0  0  0  0999 V2000
    8.8310  -15.0556   20.0305 N   0  0  0  0  0  0  0  0  0  0  0  0
    8.2541  -16.0688   20.8838 C   0  0  1  0  0  0  0  0  0  0  0  0
    8.4585  -17.4728   20.3245 C   0  0  0  0  0  0  0  0  0  0  0  0
    7.8648  -17.5578   18.9623 C   0  0  0  0  0  0  0  0  0  0  0  0
    6.6237  -17.0607   18.5938 C   0  0  0  0  0  0  0  0  0  0  0  0
    6.4389  -17.3292   17.2817 N   0  0  0  0  0  0  0  0  0  0  0  0
    7.5392  -17.9770   16.8479 C   0  0  0  0  0  0  0  0  0  0  0  0
    8.4174  -18.1221   17.8672 N   0  0  0  0  0  0  0  0  0  0  0  0
    8.7705  -15.9802   22.2649 C   0  0  0  0  0  0  0  0  0  0  0  0
    9.9969  -15.7954   22.4766 O   0  0  0  0  0  0  0  0  0  0  0  0
    6.6855  -10.0748   26.3647 O   0  0  0  0  0  0  0  0  0  0  0  0
    6.8512  -11.4587   26.2015 C   0  0  0  0  0  0  0  0  0  0  0  0
    8.0469  -12.0925   26.4374 C   0  0  0  0  0  0  0  0  0  0  0  0
    8.2429  -13.4470   26.2869 C   0  0  0  0  0  0  0  0  0  0  0  0
    7.1939  -14.2319   25.8769 C   0  0  0  0  0  0  0  0  0  0  0  0
    7.3049  -15.7013   25.6839 C   0  0  0  0  0  0  0  0  0  0  0  0
    8.4676  -16.0310   24.7388 C   0  0  2  0  0  0  0  0  0  0  0  0
    7.9392  -16.0946   23.4023 N   0  0  0  0  0  0  0  0  0  0  0  0
    9.0454  -17.3075   25.1915 C   0  0  0  0  0  0  0  0  0  0  0  0
    8.4611  -18.3925   24.9108 O   0  0  0  0  0  0  0  0  0  0  0  0
    5.9820  -13.6210   25.6330 C   0  0  0  0  0  0  0  0  0  0  0  0
    5.8015  -12.2612   25.7887 C   0  0  0  0  0  0  0  0  0  0  0  0
   12.7326  -18.3938   24.5750 C   0  0  0  0  0  0  0  0  0  0  0  0
   12.3603  -18.6923   26.0124 C   0  0  2  0  0  0  0  0  0  0  0  0
   13.0462  -19.9445   26.4349 C   0  0  0  0  0  0  0  0  0  0  0  0
   10.8753  -18.7093   26.2281 C   0  0  2  0  0  0  0  0  0  0  0  0
   10.2442  -17.4362   25.9432 N   0  0  0  0  0  0  0  0  0  0  0  0
   10.5220  -19.0591   27.6294 C   0  0  0  0  0  0  0  0  0  0  0  0
   10.5461  -20.2604   27.9871 O   0  0  0  0  0  0  0  0  0  0  0  0
   10.1608  -18.1140   28.5801 O   0  0  0  0  0  0  0  0  0  0  0  0
  2  1  1  6
  2  3  1  0
  3  4  1  0
  4  5  2  0
  5  6  1  0
  7  6  1  0
  8  4  1  0
  8  7  2  0
  9  2  1  0
  9 18  1  0
 10  9  2  0
 12 22  2  0
 12 11  1  0
 13 12  1  0
 14 13  2  0
 15 14  1  0
 15 21  2  0
 17 16  1  1
 16 15  1  0
 17 18  1  0
 19 17  1  0
 20 19  2  0
 21 22  1  0
 24 23  1  6
 24 26  1  0
 25 24  1  0
 26 27  1  1
 26 28  1  0
 27 19  1  0
 28 30  1  0
 29 28  2  0
M  END
$$$$
