HYV.pdb
     RDKit          3D

 30 31  0  0  1  0  0  0  0  0999 V2000
    9.4390  -18.3275   18.2421 N   0  0  0  0  0  0  0  0  0  0  0  0
    8.7385  -18.5857   19.4791 C   0  0  1  0  0  0  0  0  0  0  0  0
    8.6391  -20.0774   19.7802 C   0  0  0  0  0  0  0  0  0  0  0  0
    7.7228  -20.7233   18.8012 C   0  0  0  0  0  0  0  0  0  0  0  0
    6.5805  -20.1461   18.2672 C   0  0  0  0  0  0  0  0  0  0  0  0
    6.0183  -21.0378   17.4207 N   0  0  0  0  0  0  0  0  0  0  0  0
    6.7939  -22.1411   17.4302 C   0  0  0  0  0  0  0  0  0  0  0  0
    7.8387  -21.9596   18.2708 N   0  0  0  0  0  0  0  0  0  0  0  0
    9.3508  -17.8667   20.6150 C   0  0  0  0  0  0  0  0  0  0  0  0
   10.6020  -17.8068   20.7321 O   0  0  0  0  0  0  0  0  0  0  0  0
    8.0464  -11.9641   18.3101 O   0  0  0  0  0  0  0  0  0  0  0  0
    8.1022  -12.7770   19.4526 C   0  0  0  0  0  0  0  0  0  0  0  0
    7.0272  -13.5124   19.8893 C   0  0  0  0  0  0  0  0  0  0  0  0
    7.0486  -14.3190   21.0050 C   0  0  0  0  0  0  0  0  0  0  0  0
    8.2036  -14.4093   21.7415 C   0  0  0  0  0  0  0  0  0  0  0  0
    8.3266  -15.2502   22.9607 C   0  0  0  0  0  0  0  0  0  0  0  0
    9.2042  -16.4767   22.6791 C   0  0  2  0  0  0  0  0  0  0  0  0
    8.5872  -17.2195   21.6129 N   0  0  0  0  0  0  0  0  0  0  0  0
    9.2975  -17.2402   23.9348 C   0  0  0  0  0  0  0  0  0  0  0  0
    8.2456  -17.6887   24.4731 O   0  0  0  0  0  0  0  0  0  0  0  0
    9.2981  -13.6812   21.3252 C   0  0  0  0  0  0  0  0  0  0  0  0
    9.2606  -12.8769   20.2038 C   0  0  0  0  0  0  0  0  0  0  0  0
   13.0777  -18.6626   25.6807 C   0  0  0  0  0  0  0  0  0  0  0  0
   11.7419  -19.3763   25.6830 C   0  0  2  0  0  0  0  0  0  0  0  0
   11.6894  -20.2987   24.5153 C   0  0  0  0  0  0  0  0  0  0  0  0
   10.5839  -18.4248   25.7596 C   0  0  2  0  0  0  0  0  0  0  0  0
   10.5066  -17.5297   24.6224 N   0  0  0  0  0  0  0  0  0  0  0  0
   10.6473  -17.5703   26.9746 C   0  0  0  0  0  0  0  0  0  0  0  0
   10.9973  -16.3715   26.8647 O   0  0  0  0  0  0  0  0  0  0  0  0
   10.3354  -18.0332   28.2459 O   0  0  0  0  0  0  0  0  0  0  0  0
  2  1  1  6
  2  3  1  0
  3  4  1  0
  4  5  2  0
  5  6  1  0
  7  6  1  0
  8  4  1  0
  8  7  2  0
  9  2  1  0
  9 18  1  0
 10  9  2  0
 12 22  2  0
 12 11  1  0
 13 12  1  0
 14 13  2  0
 15 14  1  0
 15 21  2  0
 17 16  1  1
 16 15  1  0
 17 18  1  0
 19 17  1  0
 20 19  2  0
 21 22  1  0
 24 23  1  6
 24 26  1  0
 25 24  1  0
 26 27  1  6
 26 28  1  0
 27 19  1  0
 28 30  1  0
 29 28  2  0
M  END
$$$$
