HYV.pdb
     RDKit          3D

 30 31  0  0  1  0  0  0  0  0999 V2000
   10.3940  -17.0021   18.9028 N   0  0  0  0  0  0  0  0  0  0  0  0
    9.1793  -17.0442   19.6840 C   0  0  1  0  0  0  0  0  0  0  0  0
    8.6659  -18.4684   19.8680 C   0  0  0  0  0  0  0  0  0  0  0  0
    8.1386  -18.9792   18.5733 C   0  0  0  0  0  0  0  0  0  0  0  0
    7.6924  -18.1939   17.5210 C   0  0  0  0  0  0  0  0  0  0  0  0
    7.2930  -19.0168   16.5254 N   0  0  0  0  0  0  0  0  0  0  0  0
    7.4872  -20.2817   16.9509 C   0  0  0  0  0  0  0  0  0  0  0  0
    8.0038  -20.2703   18.2017 N   0  0  0  0  0  0  0  0  0  0  0  0
    9.3469  -16.3799   20.9926 C   0  0  0  0  0  0  0  0  0  0  0  0
   10.4481  -16.4338   21.5988 O   0  0  0  0  0  0  0  0  0  0  0  0
    7.5738  -11.7482   28.3390 O   0  0  0  0  0  0  0  0  0  0  0  0
    7.4947  -12.3535   27.0754 C   0  0  0  0  0  0  0  0  0  0  0  0
    8.1977  -11.8913   25.9895 C   0  0  0  0  0  0  0  0  0  0  0  0
    8.1425  -12.4614   24.7375 C   0  0  0  0  0  0  0  0  0  0  0  0
    7.3429  -13.5594   24.5385 C   0  0  0  0  0  0  0  0  0  0  0  0
    7.2146  -14.2445   23.2258 C   0  0  0  0  0  0  0  0  0  0  0  0
    8.4823  -15.0512   22.9165 C   0  0  2  0  0  0  0  0  0  0  0  0
    8.3070  -15.6622   21.6260 N   0  0  0  0  0  0  0  0  0  0  0  0
    8.6467  -16.0330   24.0016 C   0  0  0  0  0  0  0  0  0  0  0  0
    7.8185  -16.9807   24.1176 O   0  0  0  0  0  0  0  0  0  0  0  0
    6.6261  -14.0442   25.6121 C   0  0  0  0  0  0  0  0  0  0  0  0
    6.6924  -13.4611   26.8617 C   0  0  0  0  0  0  0  0  0  0  0  0
   11.4547  -18.3677   24.3600 C   0  0  0  0  0  0  0  0  0  0  0  0
   11.2894  -17.7240   25.7209 C   0  0  2  0  0  0  0  0  0  0  0  0
   11.6303  -18.7250   26.7691 C   0  0  0  0  0  0  0  0  0  0  0  0
    9.9386  -17.0944   25.8969 C   0  0  2  0  0  0  0  0  0  0  0  0
    9.6896  -16.0118   24.9662 N   0  0  0  0  0  0  0  0  0  0  0  0
    9.7608  -16.5351   27.2630 C   0  0  0  0  0  0  0  0  0  0  0  0
   10.0803  -15.3433   27.4850 O   0  0  0  0  0  0  0  0  0  0  0  0
    9.2523  -17.2711   28.3248 O   0  0  0  0  0  0  0  0  0  0  0  0
  2  1  1  1
  2  3  1  0
  3  4  1  0
  4  5  2  0
  5  6  1  0
  7  6  1  0
  8  4  1  0
  8  7  2  0
  9  2  1  0
  9 18  1  0
 10  9  2  0
 12 22  2  0
 12 11  1  0
 13 12  1  0
 14 13  2  0
 15 14  1  0
 15 21  2  0
 17 16  1  1
 16 15  1  0
 17 18  1  0
 19 17  1  0
 20 19  2  0
 21 22  1  0
 24 23  1  6
 24 26  1  0
 25 24  1  0
 26 27  1  6
 26 28  1  0
 27 19  1  0
 28 30  1  0
 29 28  2  0
M  END
$$$$
