HYV.pdb
     RDKit          3D

 30 31  0  0  1  0  0  0  0  0999 V2000
    7.4285  -17.1458   19.7660 N   0  0  0  0  0  0  0  0  0  0  0  0
    7.5400  -15.9289   20.5368 C   0  0  1  0  0  0  0  0  0  0  0  0
    6.7178  -14.7934   19.9364 C   0  0  0  0  0  0  0  0  0  0  0  0
    7.4388  -14.2206   18.7670 C   0  0  0  0  0  0  0  0  0  0  0  0
    8.1800  -13.0485   18.7749 C   0  0  0  0  0  0  0  0  0  0  0  0
    8.6787  -12.8611   17.5323 N   0  0  0  0  0  0  0  0  0  0  0  0
    8.2564  -13.8924   16.7729 C   0  0  0  0  0  0  0  0  0  0  0  0
    7.4977  -14.7295   17.5178 N   0  0  0  0  0  0  0  0  0  0  0  0
    7.1744  -16.1421   21.9521 C   0  0  0  0  0  0  0  0  0  0  0  0
    5.9670  -16.1430   22.3058 O   0  0  0  0  0  0  0  0  0  0  0  0
    5.4271  -22.2218   22.7509 O   0  0  0  0  0  0  0  0  0  0  0  0
    6.1570  -21.1374   23.2614 C   0  0  0  0  0  0  0  0  0  0  0  0
    7.3752  -20.7607   22.7503 C   0  0  0  0  0  0  0  0  0  0  0  0
    8.1163  -19.7031   23.2276 C   0  0  0  0  0  0  0  0  0  0  0  0
    7.6282  -18.9657   24.2776 C   0  0  0  0  0  0  0  0  0  0  0  0
    8.3525  -17.8081   24.8643 C   0  0  0  0  0  0  0  0  0  0  0  0
    7.7605  -16.4895   24.3500 C   0  0  2  0  0  0  0  0  0  0  0  0
    8.1345  -16.3526   22.9678 N   0  0  0  0  0  0  0  0  0  0  0  0
    8.2952  -15.4133   25.2012 C   0  0  0  0  0  0  0  0  0  0  0  0
    9.5194  -15.1081   25.1273 O   0  0  0  0  0  0  0  0  0  0  0  0
    6.4071  -19.3224   24.8097 C   0  0  0  0  0  0  0  0  0  0  0  0
    5.6759  -20.3859   24.3197 C   0  0  0  0  0  0  0  0  0  0  0  0
    5.8860  -12.7959   27.8144 C   0  0  0  0  0  0  0  0  0  0  0  0
    7.1920  -12.4369   27.1368 C   0  0  2  0  0  0  0  0  0  0  0  0
    6.8917  -11.7264   25.8633 C   0  0  0  0  0  0  0  0  0  0  0  0
    8.0977  -13.6223   26.9735 C   0  0  2  0  0  0  0  0  0  0  0  0
    7.5327  -14.6587   26.1327 N   0  0  0  0  0  0  0  0  0  0  0  0
    8.4212  -14.2575   28.2783 C   0  0  0  0  0  0  0  0  0  0  0  0
    7.9144  -15.3682   28.5630 O   0  0  0  0  0  0  0  0  0  0  0  0
    9.2674  -13.6797   29.2152 O   0  0  0  0  0  0  0  0  0  0  0  0
  2  1  1  6
  2  3  1  0
  3  4  1  0
  4  5  2  0
  5  6  1  0
  7  6  1  0
  8  4  1  0
  8  7  2  0
  9  2  1  0
  9 18  1  0
 10  9  2  0
 12 22  2  0
 12 11  1  0
 13 12  1  0
 14 13  2  0
 15 14  1  0
 15 21  2  0
 17 16  1  1
 16 15  1  0
 17 18  1  0
 19 17  1  0
 20 19  2  0
 21 22  1  0
 24 23  1  6
 24 26  1  0
 25 24  1  0
 26 27  1  6
 26 28  1  0
 27 19  1  0
 28 30  1  0
 29 28  2  0
M  END
$$$$
