ALV.pdb
     RDKit          3D

 21 20  0  0  1  0  0  0  0  0999 V2000
   17.6312  -11.4048  -19.9095 C   0  0  0  0  0  0  0  0  0  0  0  0
   18.8483  -12.0350  -19.2619 C   0  0  2  0  0  0  0  0  0  0  0  0
   18.4762  -13.3899  -18.8951 N   0  0  0  0  0  0  0  0  0  0  0  0
   19.1994  -11.2427  -18.0636 C   0  0  0  0  0  0  0  0  0  0  0  0
   18.3234  -11.0861  -17.1748 O   0  0  0  0  0  0  0  0  0  0  0  0
   21.2887   -9.7297  -13.6420 C   0  0  0  0  0  0  0  0  0  0  0  0
   22.3261   -9.4069  -14.7409 C   0  0  1  0  0  0  0  0  0  0  0  0
   23.6513   -9.8241  -14.1368 C   0  0  0  0  0  0  0  0  0  0  0  0
   21.9379  -10.2980  -15.8909 C   0  0  0  0  0  0  0  0  0  0  0  0
   20.7488   -9.8763  -16.6793 C   0  0  2  0  0  0  0  0  0  0  0  0
   20.4648  -10.6462  -17.8521 N   0  0  0  0  0  0  0  0  0  0  0  0
   20.6476   -8.4629  -16.9911 C   0  0  0  0  0  0  0  0  0  0  0  0
   21.3922   -7.9848  -17.8847 O   0  0  0  0  0  0  0  0  0  0  0  0
   18.5585   -6.2411  -18.7782 C   0  0  0  0  0  0  0  0  0  0  0  0
   18.4861   -5.7544  -17.3644 C   0  0  1  0  0  0  0  0  0  0  0  0
   17.2699   -6.2300  -16.6331 C   0  0  0  0  0  0  0  0  0  0  0  0
   19.7677   -6.1364  -16.6498 C   0  0  2  0  0  0  0  0  0  0  0  0
   19.7667   -7.5409  -16.3698 N   0  0  0  0  0  0  0  0  0  0  0  0
   19.8214   -5.4069  -15.3531 C   0  0  0  0  0  0  0  0  0  0  0  0
   20.1326   -4.1927  -15.3552 O   0  0  0  0  0  0  0  0  0  0  0  0
   19.5393   -6.0285  -14.1560 O   0  0  0  0  0  0  0  0  0  0  0  0
  2  1  1  1
  3  2  1  0
  4 11  1  0
  4  2  1  0
  5  4  2  0
  7  8  1  1
  7  6  1  0
 10  9  1  6
  9  7  1  0
 10 12  1  0
 10 11  1  0
 12 18  1  0
 13 12  2  0
 15 14  1  6
 15 16  1  0
 17 15  1  0
 17 18  1  1
 19 21  1  0
 19 17  1  0
 20 19  2  0
M  END
$$$$
