ALV.pdb
     RDKit          3D

 21 20  0  0  1  0  0  0  0  0999 V2000
   27.6646  -18.4315  -15.8072 C   0  0  0  0  0  0  0  0  0  0  0  0
   28.0261  -19.6536  -14.9864 C   0  0  2  0  0  0  0  0  0  0  0  0
   28.6214  -20.6131  -15.8993 N   0  0  0  0  0  0  0  0  0  0  0  0
   26.7865  -20.1947  -14.3885 C   0  0  0  0  0  0  0  0  0  0  0  0
   26.1979  -21.1334  -14.9838 O   0  0  0  0  0  0  0  0  0  0  0  0
   25.8792  -20.2294   -8.8169 C   0  0  0  0  0  0  0  0  0  0  0  0
   26.2295  -20.6437  -10.2638 C   0  0  1  0  0  0  0  0  0  0  0  0
   26.3618  -22.1515  -10.1981 C   0  0  0  0  0  0  0  0  0  0  0  0
   25.0274  -20.2289  -11.0700 C   0  0  0  0  0  0  0  0  0  0  0  0
   25.1312  -20.4005  -12.5441 C   0  0  2  0  0  0  0  0  0  0  0  0
   26.2172  -19.7213  -13.1828 N   0  0  0  0  0  0  0  0  0  0  0  0
   23.9143  -20.1933  -13.3067 C   0  0  0  0  0  0  0  0  0  0  0  0
   23.6366  -19.0317  -13.7006 O   0  0  0  0  0  0  0  0  0  0  0  0
   20.2339  -21.8113  -16.0887 C   0  0  0  0  0  0  0  0  0  0  0  0
   21.5291  -22.0672  -15.3830 C   0  0  1  0  0  0  0  0  0  0  0  0
   22.6830  -22.2727  -16.3138 C   0  0  0  0  0  0  0  0  0  0  0  0
   21.7816  -20.9400  -14.4009 C   0  0  2  0  0  0  0  0  0  0  0  0
   22.9804  -21.2001  -13.6619 N   0  0  0  0  0  0  0  0  0  0  0  0
   20.6472  -20.8889  -13.4381 C   0  0  0  0  0  0  0  0  0  0  0  0
   19.6963  -20.1046  -13.6656 O   0  0  0  0  0  0  0  0  0  0  0  0
   20.6152  -21.6776  -12.3085 O   0  0  0  0  0  0  0  0  0  0  0  0
  2  1  1  6
  3  2  1  0
  4 11  1  0
  4  2  1  0
  5  4  2  0
  7  8  1  1
  7  6  1  0
 10  9  1  1
  9  7  1  0
 10 12  1  0
 10 11  1  0
 12 18  1  0
 13 12  2  0
 15 14  1  6
 15 16  1  0
 17 15  1  0
 17 18  1  1
 19 21  1  0
 19 17  1  0
 20 19  2  0
M  END
$$$$
