ALV.pdb
     RDKit          3D

 21 20  0  0  1  0  0  0  0  0999 V2000
   11.4580  -22.6066    0.5731 C   0  0  0  0  0  0  0  0  0  0  0  0
   12.8002  -22.9504   -0.0416 C   0  0  2  0  0  0  0  0  0  0  0  0
   12.8592  -24.3978   -0.1422 N   0  0  0  0  0  0  0  0  0  0  0  0
   13.8638  -22.4408    0.8505 C   0  0  0  0  0  0  0  0  0  0  0  0
   14.2705  -23.1853    1.7791 O   0  0  0  0  0  0  0  0  0  0  0  0
   18.5546  -21.0213    2.3702 C   0  0  0  0  0  0  0  0  0  0  0  0
   17.9126  -19.8053    1.6653 C   0  0  1  0  0  0  0  0  0  0  0  0
   19.0250  -19.2437    0.8038 C   0  0  0  0  0  0  0  0  0  0  0  0
   16.8116  -20.4003    0.8280 C   0  0  0  0  0  0  0  0  0  0  0  0
   15.5583  -20.7584    1.5451 C   0  0  2  0  0  0  0  0  0  0  0  0
   14.4565  -21.1622    0.7254 N   0  0  0  0  0  0  0  0  0  0  0  0
   15.0965  -19.8184    2.5492 C   0  0  0  0  0  0  0  0  0  0  0  0
   14.5045  -18.7739    2.1745 O   0  0  0  0  0  0  0  0  0  0  0  0
   12.5254  -19.6998    5.0519 C   0  0  0  0  0  0  0  0  0  0  0  0
   13.7956  -19.5245    5.8245 C   0  0  1  0  0  0  0  0  0  0  0  0
   14.2496  -20.7731    6.5137 C   0  0  0  0  0  0  0  0  0  0  0  0
   14.8578  -18.9652    4.8984 C   0  0  2  0  0  0  0  0  0  0  0  0
   15.2510  -19.9651    3.9515 N   0  0  0  0  0  0  0  0  0  0  0  0
   16.0514  -18.6041    5.7115 C   0  0  0  0  0  0  0  0  0  0  0  0
   17.0117  -19.4078    5.7652 O   0  0  0  0  0  0  0  0  0  0  0  0
   16.1280  -17.4148    6.4035 O   0  0  0  0  0  0  0  0  0  0  0  0
  2  1  1  1
  3  2  1  0
  4 11  1  0
  4  2  1  0
  5  4  2  0
  7  8  1  6
  7  6  1  0
 10  9  1  6
  9  7  1  0
 10 12  1  0
 10 11  1  0
 12 18  1  0
 13 12  2  0
 15 14  1  6
 15 16  1  0
 17 15  1  0
 17 18  1  6
 19 21  1  0
 19 17  1  0
 20 19  2  0
M  END
$$$$
