ALV.pdb
     RDKit          3D

 21 20  0  0  1  0  0  0  0  0999 V2000
   25.4709  -18.5062  -17.8455 C   0  0  0  0  0  0  0  0  0  0  0  0
   26.3177  -19.5423  -17.1335 C   0  0  2  0  0  0  0  0  0  0  0  0
   26.6742  -20.5457  -18.1207 N   0  0  0  0  0  0  0  0  0  0  0  0
   25.5089  -20.1363  -16.0473 C   0  0  0  0  0  0  0  0  0  0  0  0
   24.7406  -21.0912  -16.3300 O   0  0  0  0  0  0  0  0  0  0  0  0
   25.7253  -21.0951  -10.0372 C   0  0  0  0  0  0  0  0  0  0  0  0
   24.8136  -21.2432  -11.2760 C   0  0  1  0  0  0  0  0  0  0  0  0
   23.4847  -20.6669  -10.8319 C   0  0  0  0  0  0  0  0  0  0  0  0
   25.4676  -20.3814  -12.3233 C   0  0  0  0  0  0  0  0  0  0  0  0
   24.8298  -20.3792  -13.6674 C   0  0  2  0  0  0  0  0  0  0  0  0
   25.5443  -19.6967  -14.7029 N   0  0  0  0  0  0  0  0  0  0  0  0
   23.4287  -20.0056  -13.7179 C   0  0  0  0  0  0  0  0  0  0  0  0
   23.1124  -18.8091  -13.4944 O   0  0  0  0  0  0  0  0  0  0  0  0
   18.9463  -20.5591  -15.4533 C   0  0  0  0  0  0  0  0  0  0  0  0
   20.4041  -20.8985  -15.4287 C   0  0  1  0  0  0  0  0  0  0  0  0
   21.1632  -20.3462  -16.5945 C   0  0  0  0  0  0  0  0  0  0  0  0
   20.9880  -20.4502  -14.1032 C   0  0  2  0  0  0  0  0  0  0  0  0
   22.3499  -20.8815  -14.0025 N   0  0  0  0  0  0  0  0  0  0  0  0
   20.2169  -21.0946  -13.0048 C   0  0  0  0  0  0  0  0  0  0  0  0
   20.3795  -22.3186  -12.7897 O   0  0  0  0  0  0  0  0  0  0  0  0
   19.3330  -20.3840  -12.2219 O   0  0  0  0  0  0  0  0  0  0  0  0
  2  1  1  6
  3  2  1  0
  4 11  1  0
  4  2  1  0
  5  4  2  0
  7  8  1  1
  7  6  1  0
 10  9  1  1
  9  7  1  0
 10 12  1  0
 10 11  1  0
 12 18  1  0
 13 12  2  0
 15 14  1  6
 15 16  1  0
 17 15  1  0
 17 18  1  6
 19 21  1  0
 19 17  1  0
 20 19  2  0
M  END
$$$$
