ALV.pdb
     RDKit          3D

 21 20  0  0  1  0  0  0  0  0999 V2000
   18.0075  -12.4332  -20.3821 C   0  0  0  0  0  0  0  0  0  0  0  0
   19.4728  -12.7912  -20.2333 C   0  0  2  0  0  0  0  0  0  0  0  0
   19.5667  -14.2361  -20.3425 N   0  0  0  0  0  0  0  0  0  0  0  0
   19.9303  -12.3328  -18.9039 C   0  0  0  0  0  0  0  0  0  0  0  0
   19.2897  -12.7114  -17.8898 O   0  0  0  0  0  0  0  0  0  0  0  0
   22.7835  -12.4263  -14.5115 C   0  0  0  0  0  0  0  0  0  0  0  0
   23.2842  -11.4416  -15.5921 C   0  0  1  0  0  0  0  0  0  0  0  0
   24.7871  -11.6317  -15.6022 C   0  0  0  0  0  0  0  0  0  0  0  0
   22.6556  -11.9385  -16.8669 C   0  0  0  0  0  0  0  0  0  0  0  0
   21.5052  -11.1504  -17.3854 C   0  0  2  0  0  0  0  0  0  0  0  0
   21.0487  -11.4909  -18.6986 N   0  0  0  0  0  0  0  0  0  0  0  0
   21.6028   -9.7078  -17.2651 C   0  0  0  0  0  0  0  0  0  0  0  0
   22.3801   -9.0869  -18.0345 O   0  0  0  0  0  0  0  0  0  0  0  0
   19.4763   -7.1004  -18.1299 C   0  0  0  0  0  0  0  0  0  0  0  0
   19.7147   -6.8251  -16.6779 C   0  0  1  0  0  0  0  0  0  0  0  0
   18.5734   -7.2333  -15.7999 C   0  0  0  0  0  0  0  0  0  0  0  0
   21.0170   -7.4814  -16.2633 C   0  0  2  0  0  0  0  0  0  0  0  0
   20.8879   -8.9057  -16.3391 N   0  0  0  0  0  0  0  0  0  0  0  0
   21.3000   -7.1178  -14.8477 C   0  0  0  0  0  0  0  0  0  0  0  0
   21.5588   -5.9231  -14.5707 O   0  0  0  0  0  0  0  0  0  0  0  0
   21.2851   -8.0559  -13.8383 O   0  0  0  0  0  0  0  0  0  0  0  0
  2  1  1  1
  3  2  1  0
  4 11  1  0
  4  2  1  0
  5  4  2  0
  7  8  1  6
  7  6  1  0
 10  9  1  6
  9  7  1  0
 10 12  1  0
 10 11  1  0
 12 18  1  0
 13 12  2  0
 15 14  1  6
 15 16  1  0
 17 15  1  0
 17 18  1  1
 19 21  1  0
 19 17  1  0
 20 19  2  0
M  END
$$$$
