ALV.pdb
     RDKit          3D

 21 20  0  0  1  0  0  0  0  0999 V2000
   27.6404  -19.6344  -15.7229 C   0  0  0  0  0  0  0  0  0  0  0  0
   28.1281  -20.4004  -14.5093 C   0  0  2  0  0  0  0  0  0  0  0  0
   28.7998  -21.5891  -15.0033 N   0  0  0  0  0  0  0  0  0  0  0  0
   26.9541  -20.7626  -13.6862 C   0  0  0  0  0  0  0  0  0  0  0  0
   26.2756  -21.7662  -14.0245 O   0  0  0  0  0  0  0  0  0  0  0  0
   26.2369  -19.7036   -8.1119 C   0  0  0  0  0  0  0  0  0  0  0  0
   26.4088  -20.5322   -9.4049 C   0  0  1  0  0  0  0  0  0  0  0  0
   26.0601  -21.9469   -8.9902 C   0  0  0  0  0  0  0  0  0  0  0  0
   25.3825  -19.9640  -10.3489 C   0  0  0  0  0  0  0  0  0  0  0  0
   25.4239  -20.4674  -11.7483 C   0  0  2  0  0  0  0  0  0  0  0  0
   26.5432  -20.0485  -12.5359 N   0  0  0  0  0  0  0  0  0  0  0  0
   24.2055  -20.3251  -12.5231 C   0  0  0  0  0  0  0  0  0  0  0  0
   24.0550  -19.2973  -13.2321 O   0  0  0  0  0  0  0  0  0  0  0  0
   20.5432  -22.1745  -15.0585 C   0  0  0  0  0  0  0  0  0  0  0  0
   21.7988  -22.3294  -14.2581 C   0  0  1  0  0  0  0  0  0  0  0  0
   23.0068  -22.6120  -15.0954 C   0  0  0  0  0  0  0  0  0  0  0  0
   21.9803  -21.0992  -13.3908 C   0  0  2  0  0  0  0  0  0  0  0  0
   23.1370  -21.2572  -12.5612 N   0  0  0  0  0  0  0  0  0  0  0  0
   20.7913  -20.9656  -12.5050 C   0  0  0  0  0  0  0  0  0  0  0  0
   20.8553  -21.4128  -11.3359 O   0  0  0  0  0  0  0  0  0  0  0  0
   19.6273  -20.3657  -12.9347 O   0  0  0  0  0  0  0  0  0  0  0  0
  2  1  1  6
  3  2  1  0
  4 11  1  0
  4  2  1  0
  5  4  2  0
  7  8  1  1
  7  6  1  0
 10  9  1  1
  9  7  1  0
 10 12  1  0
 10 11  1  0
 12 18  1  0
 13 12  2  0
 15 14  1  6
 15 16  1  0
 17 15  1  0
 17 18  1  1
 19 21  1  0
 19 17  1  0
 20 19  2  0
M  END
$$$$
