ALV.pdb
     RDKit          3D

 21 20  0  0  1  0  0  0  0  0999 V2000
   18.2914  -12.2130  -15.2486 C   0  0  0  0  0  0  0  0  0  0  0  0
   17.3669  -12.2206  -14.0474 C   0  0  2  0  0  0  0  0  0  0  0  0
   16.2672  -13.1130  -14.3679 N   0  0  0  0  0  0  0  0  0  0  0  0
   16.8794  -10.8419  -13.8277 C   0  0  0  0  0  0  0  0  0  0  0  0
   16.1753  -10.3088  -14.7233 O   0  0  0  0  0  0  0  0  0  0  0  0
   14.9692   -8.4365   -9.0861 C   0  0  0  0  0  0  0  0  0  0  0  0
   14.9979   -8.9169  -10.5545 C   0  0  1  0  0  0  0  0  0  0  0  0
   13.7979   -8.2452  -11.1901 C   0  0  0  0  0  0  0  0  0  0  0  0
   16.2906   -8.3692  -11.0989 C   0  0  0  0  0  0  0  0  0  0  0  0
   16.6360   -8.7579  -12.4928 C   0  0  2  0  0  0  0  0  0  0  0  0
   17.1559  -10.0800  -12.6680 N   0  0  0  0  0  0  0  0  0  0  0  0
   17.4429   -7.8160  -13.2458 C   0  0  0  0  0  0  0  0  0  0  0  0
   18.6954   -7.9197  -13.2007 O   0  0  0  0  0  0  0  0  0  0  0  0
   18.1227   -4.7681  -16.9490 C   0  0  0  0  0  0  0  0  0  0  0  0
   17.4062   -5.8810  -16.2495 C   0  0  1  0  0  0  0  0  0  0  0  0
   17.6388   -7.2221  -16.8720 C   0  0  0  0  0  0  0  0  0  0  0  0
   17.7848   -5.8595  -14.7815 C   0  0  2  0  0  0  0  0  0  0  0  0
   16.9444   -6.7598  -14.0508 N   0  0  0  0  0  0  0  0  0  0  0  0
   17.5581   -4.4856  -14.2549 C   0  0  0  0  0  0  0  0  0  0  0  0
   16.4285   -4.1923  -13.7980 O   0  0  0  0  0  0  0  0  0  0  0  0
   18.5532   -3.5321  -14.2565 O   0  0  0  0  0  0  0  0  0  0  0  0
  2  1  1  6
  3  2  1  0
  4 11  1  0
  4  2  1  0
  5  4  2  0
  7  8  1  6
  7  6  1  0
 10  9  1  1
  9  7  1  0
 10 12  1  0
 10 11  1  0
 12 18  1  0
 13 12  2  0
 15 14  1  6
 15 16  1  0
 17 15  1  0
 17 18  1  1
 19 21  1  0
 19 17  1  0
 20 19  2  0
M  END
$$$$
