ALV.pdb
     RDKit          3D

 21 20  0  0  1  0  0  0  0  0999 V2000
   26.9967  -19.9998  -17.3053 C   0  0  0  0  0  0  0  0  0  0  0  0
   27.6817  -20.7353  -16.1707 C   0  0  2  0  0  0  0  0  0  0  0  0
   28.1944  -21.9769  -16.7223 N   0  0  0  0  0  0  0  0  0  0  0  0
   26.6786  -21.0017  -15.1173 C   0  0  0  0  0  0  0  0  0  0  0  0
   25.7666  -21.8333  -15.3592 O   0  0  0  0  0  0  0  0  0  0  0  0
   25.1866  -22.1344  -10.1551 C   0  0  0  0  0  0  0  0  0  0  0  0
   25.0075  -20.6202  -10.4059 C   0  0  1  0  0  0  0  0  0  0  0  0
   25.3489  -19.9792   -9.0764 C   0  0  0  0  0  0  0  0  0  0  0  0
   26.0351  -20.2939  -11.4570 C   0  0  0  0  0  0  0  0  0  0  0  0
   25.7029  -20.6952  -12.8505 C   0  0  2  0  0  0  0  0  0  0  0  0
   26.6793  -20.3772  -13.8477 N   0  0  0  0  0  0  0  0  0  0  0  0
   24.3831  -20.3315  -13.3311 C   0  0  0  0  0  0  0  0  0  0  0  0
   24.1675  -19.1384  -13.6651 O   0  0  0  0  0  0  0  0  0  0  0  0
   20.0865  -21.2175  -15.3608 C   0  0  0  0  0  0  0  0  0  0  0  0
   21.5041  -21.5883  -15.0540 C   0  0  1  0  0  0  0  0  0  0  0  0
   22.4248  -21.4379  -16.2244 C   0  0  0  0  0  0  0  0  0  0  0  0
   21.9702  -20.7869  -13.8543 C   0  0  2  0  0  0  0  0  0  0  0  0
   23.2806  -21.2139  -13.4653 N   0  0  0  0  0  0  0  0  0  0  0  0
   21.0426  -21.0509  -12.7201 C   0  0  0  0  0  0  0  0  0  0  0  0
   20.1228  -20.2316  -12.4883 O   0  0  0  0  0  0  0  0  0  0  0  0
   21.1681  -22.1673  -11.9219 O   0  0  0  0  0  0  0  0  0  0  0  0
  2  1  1  6
  3  2  1  0
  4 11  1  0
  4  2  1  0
  5  4  2  0
  7  8  1  1
  7  6  1  0
 10  9  1  1
  9  7  1  0
 10 12  1  0
 10 11  1  0
 12 18  1  0
 13 12  2  0
 15 14  1  6
 15 16  1  0
 17 15  1  0
 17 18  1  1
 19 21  1  0
 19 17  1  0
 20 19  2  0
M  END
$$$$
