ALV.pdb
     RDKit          3D

 21 20  0  0  1  0  0  0  0  0999 V2000
   17.4546  -10.8100  -18.9071 C   0  0  0  0  0  0  0  0  0  0  0  0
   18.4467  -11.3517  -17.8973 C   0  0  2  0  0  0  0  0  0  0  0  0
   17.8092  -12.4816  -17.2448 N   0  0  0  0  0  0  0  0  0  0  0  0
   18.7478  -10.2817  -16.9220 C   0  0  0  0  0  0  0  0  0  0  0  0
   17.8470   -9.9418  -16.1128 O   0  0  0  0  0  0  0  0  0  0  0  0
   23.4422   -9.7465  -14.1151 C   0  0  0  0  0  0  0  0  0  0  0  0
   21.9119   -9.8114  -14.3203 C   0  0  1  0  0  0  0  0  0  0  0  0
   21.3404   -9.5949  -12.9340 C   0  0  0  0  0  0  0  0  0  0  0  0
   21.6100   -8.6504  -15.2302 C   0  0  0  0  0  0  0  0  0  0  0  0
   20.2521   -8.6248  -15.8376 C   0  0  2  0  0  0  0  0  0  0  0  0
   19.9916   -9.6122  -16.8406 N   0  0  0  0  0  0  0  0  0  0  0  0
   19.7712   -7.3336  -16.2922 C   0  0  0  0  0  0  0  0  0  0  0  0
   20.0320   -6.9693  -17.4673 O   0  0  0  0  0  0  0  0  0  0  0  0
   16.6340   -3.6513  -16.1573 C   0  0  0  0  0  0  0  0  0  0  0  0
   17.0566   -5.0722  -15.9488 C   0  0  1  0  0  0  0  0  0  0  0  0
   16.4038   -6.0317  -16.8940 C   0  0  0  0  0  0  0  0  0  0  0  0
   18.5695   -5.1468  -16.0139 C   0  0  2  0  0  0  0  0  0  0  0  0
   19.0143   -6.4153  -15.5201 N   0  0  0  0  0  0  0  0  0  0  0  0
   19.1334   -4.0855  -15.1353 C   0  0  0  0  0  0  0  0  0  0  0  0
   19.2216   -4.3038  -13.9042 O   0  0  0  0  0  0  0  0  0  0  0  0
   19.5591   -2.8748  -15.6375 O   0  0  0  0  0  0  0  0  0  0  0  0
  2  1  1  6
  3  2  1  0
  4 11  1  0
  4  2  1  0
  5  4  2  0
  7  8  1  1
  7  6  1  0
 10  9  1  6
  9  7  1  0
 10 12  1  0
 10 11  1  0
 12 18  1  0
 13 12  2  0
 15 14  1  6
 15 16  1  0
 17 15  1  0
 17 18  1  1
 19 21  1  0
 19 17  1  0
 20 19  2  0
M  END
$$$$
