ALV.pdb
     RDKit          3D

 21 20  0  0  1  0  0  0  0  0999 V2000
   38.8700   -5.0173  -13.9072 C   0  0  0  0  0  0  0  0  0  0  0  0
   38.1004   -5.9247  -12.9681 C   0  0  2  0  0  0  0  0  0  0  0  0
   36.9277   -6.3827  -13.6917 N   0  0  0  0  0  0  0  0  0  0  0  0
   37.7109   -5.1384  -11.7778 C   0  0  0  0  0  0  0  0  0  0  0  0
   36.6193   -4.5143  -11.8067 O   0  0  0  0  0  0  0  0  0  0  0  0
   37.6313   -6.4831   -6.2873 C   0  0  0  0  0  0  0  0  0  0  0  0
   37.0965   -5.8877   -7.6091 C   0  0  1  0  0  0  0  0  0  0  0  0
   35.9367   -5.0119   -7.1812 C   0  0  0  0  0  0  0  0  0  0  0  0
   38.2433   -5.0671   -8.1373 C   0  0  0  0  0  0  0  0  0  0  0  0
   38.0143   -4.3709   -9.4320 C   0  0  2  0  0  0  0  0  0  0  0  0
   38.4920   -5.0428  -10.6020 N   0  0  0  0  0  0  0  0  0  0  0  0
   38.3911   -2.9710   -9.4891 C   0  0  0  0  0  0  0  0  0  0  0  0
   39.5724   -2.6738   -9.8020 O   0  0  0  0  0  0  0  0  0  0  0  0
   36.9882    0.0054  -11.4496 C   0  0  0  0  0  0  0  0  0  0  0  0
   36.9328    0.3324   -9.9898 C   0  0  1  0  0  0  0  0  0  0  0  0
   35.5657    0.1845   -9.3986 C   0  0  0  0  0  0  0  0  0  0  0  0
   37.9637   -0.5074   -9.2613 C   0  0  2  0  0  0  0  0  0  0  0  0
   37.5345   -1.8731   -9.2191 N   0  0  0  0  0  0  0  0  0  0  0  0
   38.0718   -0.0136   -7.8610 C   0  0  0  0  0  0  0  0  0  0  0  0
   37.5155   -0.6649   -6.9459 O   0  0  0  0  0  0  0  0  0  0  0  0
   38.7642    1.1355   -7.5458 O   0  0  0  0  0  0  0  0  0  0  0  0
  2  1  1  6
  3  2  1  0
  4 11  1  0
  4  2  1  0
  5  4  2  0
  7  8  1  1
  7  6  1  0
 10  9  1  1
  9  7  1  0
 10 12  1  0
 10 11  1  0
 12 18  1  0
 13 12  2  0
 15 14  1  6
 15 16  1  0
 17 15  1  0
 17 18  1  1
 19 21  1  0
 19 17  1  0
 20 19  2  0
M  END
$$$$
