TGT.pdb
     RDKit          3D

 19 18  0  0  1  0  0  0  0  0999 V2000
   16.1017  -13.1388  -15.7776 C   0  0  0  0  0  0  0  0  0  0  0  0
   17.5929  -13.4015  -15.8509 C   0  0  1  0  0  0  0  0  0  0  0  0
   17.7777  -14.6309  -16.4430 O   0  0  0  0  0  0  0  0  0  0  0  0
   18.2755  -12.2938  -16.6582 C   0  0  2  0  0  0  0  0  0  0  0  0
   19.5725  -12.7764  -17.0324 N   0  0  0  0  0  0  0  0  0  0  0  0
   18.3651  -11.0687  -15.8505 C   0  0  0  0  0  0  0  0  0  0  0  0
   17.2960  -10.5024  -15.4688 O   0  0  0  0  0  0  0  0  0  0  0  0
   19.5776  -10.4508  -15.4520 N   0  0  0  0  0  0  0  0  0  0  0  0
   19.5997   -9.3076  -14.5899 C   0  0  0  0  0  0  0  0  0  0  0  0
   20.7289   -8.3789  -14.9174 C   0  0  0  0  0  0  0  0  0  0  0  0
   21.7030   -8.7678  -15.6124 O   0  0  0  0  0  0  0  0  0  0  0  0
   20.3351   -5.2083  -16.8094 C   0  0  0  0  0  0  0  0  0  0  0  0
   20.9837   -4.8528  -15.5084 C   0  0  1  0  0  0  0  0  0  0  0  0
   20.0649   -4.2722  -14.6355 O   0  0  0  0  0  0  0  0  0  0  0  0
   21.6263   -6.0330  -14.8250 C   0  0  2  0  0  0  0  0  0  0  0  0
   20.6928   -7.0414  -14.4331 N   0  0  0  0  0  0  0  0  0  0  0  0
   22.4132   -5.4956  -13.6680 C   0  0  0  0  0  0  0  0  0  0  0  0
   22.0680   -5.7175  -12.3544 O   0  0  0  0  0  0  0  0  0  0  0  0
   23.4341   -4.8123  -13.9739 O   0  0  0  0  0  0  0  0  0  0  0  0
  2  1  1  6
  2  3  1  0
  4  2  1  0
  4  5  1  1
  6  8  1  0
  6  4  1  0
  7  6  2  0
  9 10  1  0
  9  8  1  0
 10 16  1  0
 11 10  2  0
 13 14  1  0
 13 12  1  6
 13 15  1  0
 15 17  1  0
 15 16  1  1
 17 19  2  0
 17 18  1  0
M  END
$$$$
