TGT.pdb
     RDKit          3D

 19 18  0  0  1  0  0  0  0  0999 V2000
   17.1833  -11.7629  -14.6317 C   0  0  0  0  0  0  0  0  0  0  0  0
   17.0609  -12.5484  -15.9224 C   0  0  1  0  0  0  0  0  0  0  0  0
   16.2003  -13.5998  -15.6984 O   0  0  0  0  0  0  0  0  0  0  0  0
   16.5378  -11.6371  -17.0363 C   0  0  2  0  0  0  0  0  0  0  0  0
   16.2050  -12.4745  -18.1513 N   0  0  0  0  0  0  0  0  0  0  0  0
   17.5611  -10.6430  -17.3913 C   0  0  0  0  0  0  0  0  0  0  0  0
   18.4337  -10.9407  -18.2625 O   0  0  0  0  0  0  0  0  0  0  0  0
   17.6569   -9.3455  -16.8270 N   0  0  0  0  0  0  0  0  0  0  0  0
   18.7831   -8.4943  -17.0673 C   0  0  0  0  0  0  0  0  0  0  0  0
   19.0745   -7.6047  -15.8974 C   0  0  0  0  0  0  0  0  0  0  0  0
   18.2417   -7.4740  -14.9633 O   0  0  0  0  0  0  0  0  0  0  0  0
   22.1183   -8.2999  -13.8653 C   0  0  0  0  0  0  0  0  0  0  0  0
   22.1719   -6.8538  -14.2472 C   0  0  1  0  0  0  0  0  0  0  0  0
   23.0846   -6.6445  -15.2798 O   0  0  0  0  0  0  0  0  0  0  0  0
   20.8322   -6.3007  -14.6616 C   0  0  2  0  0  0  0  0  0  0  0  0
   20.3107   -6.9018  -15.8485 N   0  0  0  0  0  0  0  0  0  0  0  0
   20.9906   -4.8158  -14.7899 C   0  0  0  0  0  0  0  0  0  0  0  0
   20.8929   -4.1487  -15.9896 O   0  0  0  0  0  0  0  0  0  0  0  0
   21.2242   -4.1975  -13.7100 O   0  0  0  0  0  0  0  0  0  0  0  0
  2  1  1  1
  2  3  1  0
  4  2  1  0
  4  5  1  6
  6  8  1  0
  6  4  1  0
  7  6  2  0
  9 10  1  0
  9  8  1  0
 10 16  1  0
 11 10  2  0
 13 14  1  0
 13 12  1  6
 13 15  1  0
 15 17  1  0
 15 16  1  6
 17 19  2  0
 17 18  1  0
M  END
$$$$
