RNT.pdb
     RDKit          3D

 27 26  0  0  1  0  0  0  0  0999 V2000
   27.7604  -18.6812  -20.6054 N   0  0  0  0  0  0  0  0  0  0  0  0
   29.1689  -18.6813  -20.4132 C   0  0  0  0  0  0  0  0  0  0  0  0
   30.0065  -18.6992  -21.3988 N   0  0  0  0  0  0  0  0  0  0  0  0
   29.7033  -18.6629  -19.0853 N   0  0  0  0  0  0  0  0  0  0  0  0
   29.0318  -19.4385  -18.0588 C   0  0  0  0  0  0  0  0  0  0  0  0
   28.1166  -18.5376  -17.2964 C   0  0  0  0  0  0  0  0  0  0  0  0
   27.2763  -19.2820  -16.3376 C   0  0  0  0  0  0  0  0  0  0  0  0
   27.8596  -20.4766  -15.6818 C   0  0  2  0  0  0  0  0  0  0  0  0
   28.3101  -21.5296  -16.5249 N   0  0  0  0  0  0  0  0  0  0  0  0
   26.9196  -21.0863  -14.6741 C   0  0  0  0  0  0  0  0  0  0  0  0
   26.3271  -22.1750  -14.8861 O   0  0  0  0  0  0  0  0  0  0  0  0
   31.0188  -18.6379  -21.1536 N   0  0  0  0  0  0  0  0  0  0  0  0
   24.2910  -21.4643  -10.0641 C   0  0  0  0  0  0  0  0  0  0  0  0
   25.4670  -20.6305   -9.9772 O   0  0  0  0  0  0  0  0  0  0  0  0
   25.7182  -20.2366   -8.8160 C   0  0  0  0  0  0  0  0  0  0  0  0
   26.2405  -20.3180  -11.1714 C   0  0  1  0  0  0  0  0  0  0  0  0
   25.7398  -20.9918  -12.4257 N   0  0  0  0  0  0  0  0  0  0  0  0
   26.6878  -20.4317  -13.4585 C   0  0  0  0  0  0  0  0  0  0  0  0
   24.4286  -20.4795  -12.8771 O   0  0  0  0  0  0  0  0  0  0  0  0
   24.3803  -19.2612  -13.2740 C   0  0  0  0  0  0  0  0  0  0  0  0
   20.3075  -20.8805  -15.2116 C   0  0  2  0  0  0  0  0  0  0  0  0
   21.6682  -21.4187  -14.7671 O   0  0  0  0  0  0  0  0  0  0  0  0
   22.5509  -21.1414  -15.8005 C   0  0  1  0  0  0  0  0  0  0  0  0
   22.0567  -20.6471  -13.5196 N   0  0  0  0  0  0  0  0  0  0  0  0
   23.2450  -21.2362  -12.9043 C   0  0  0  0  0  0  0  0  0  0  0  0
   20.9667  -20.7080  -12.5105 O   0  0  0  0  0  0  0  0  0  0  0  0
   20.9718  -21.5622  -11.6101 O   0  0  0  0  0  0  0  0  0  0  0  0
  2  1  1  0
  3  2  2  0
  4  2  1  0
  5  4  1  0
  6  5  1  0
  7  8  1  0
  7  6  1  0
  8  9  1  6
 10  8  1  0
 10 17  1  0
 11 10  2  0
 13 12  1  0
 14 13  2  0
 16 15  1  1
 15 13  1  0
 16 17  1  0
 18 16  1  0
 19 18  2  0
 21 20  1  6
 21 22  1  0
 23 21  1  0
 23 24  1  6
 24 18  1  0
 25 23  1  0
 26 25  2  0
 27 25  1  0
M  END
$$$$
