RNT.pdb
     RDKit          3D

 27 26  0  0  1  0  0  0  0  0999 V2000
   31.0677  -24.1529  -17.6459 N   0  0  0  0  0  0  0  0  0  0  0  0
   30.8704  -23.1632  -18.6471 C   0  0  0  0  0  0  0  0  0  0  0  0
   31.7485  -22.9150  -19.5639 N   0  0  0  0  0  0  0  0  0  0  0  0
   29.6606  -22.3981  -18.6590 N   0  0  0  0  0  0  0  0  0  0  0  0
   29.2491  -21.7357  -17.4350 C   0  0  0  0  0  0  0  0  0  0  0  0
   29.3427  -22.7090  -16.3062 C   0  0  0  0  0  0  0  0  0  0  0  0
   28.4127  -22.3774  -15.2085 C   0  0  0  0  0  0  0  0  0  0  0  0
   27.1071  -21.7708  -15.5615 C   0  0  2  0  0  0  0  0  0  0  0  0
   27.0802  -20.3677  -15.7923 N   0  0  0  0  0  0  0  0  0  0  0  0
   26.0456  -22.0721  -14.5352 C   0  0  0  0  0  0  0  0  0  0  0  0
   25.8221  -23.2408  -14.1283 O   0  0  0  0  0  0  0  0  0  0  0  0
   31.4427  -22.3019  -20.3509 N   0  0  0  0  0  0  0  0  0  0  0  0
   24.9355  -20.9940   -9.2121 C   0  0  0  0  0  0  0  0  0  0  0  0
   24.2323  -20.8738  -10.4678 O   0  0  0  0  0  0  0  0  0  0  0  0
   22.9867  -20.9124  -10.3512 C   0  0  0  0  0  0  0  0  0  0  0  0
   24.9692  -20.7249  -11.7155 C   0  0  1  0  0  0  0  0  0  0  0  0
   24.2506  -21.2690  -12.9262 N   0  0  0  0  0  0  0  0  0  0  0  0
   25.2752  -21.0286  -14.0086 C   0  0  0  0  0  0  0  0  0  0  0  0
   23.1175  -20.4235  -13.3584 O   0  0  0  0  0  0  0  0  0  0  0  0
   23.3354  -19.1652  -13.4734 C   0  0  0  0  0  0  0  0  0  0  0  0
   21.2745  -20.2611  -16.4191 C   0  0  2  0  0  0  0  0  0  0  0  0
   20.1716  -20.3473  -15.3632 O   0  0  0  0  0  0  0  0  0  0  0  0
   19.7750  -21.6760  -15.3249 C   0  0  2  0  0  0  0  0  0  0  0  0
   20.7999  -19.9457  -14.0416 N   0  0  0  0  0  0  0  0  0  0  0  0
   21.8315  -20.9064  -13.6538 C   0  0  0  0  0  0  0  0  0  0  0  0
   19.7788  -19.9415  -12.9610 O   0  0  0  0  0  0  0  0  0  0  0  0
   19.7798  -20.8084  -12.0728 O   0  0  0  0  0  0  0  0  0  0  0  0
  2  1  1  0
  3  2  2  0
  4  2  1  0
  5  4  1  0
  6  5  1  0
  7  8  1  0
  7  6  1  0
  8  9  1  1
 10  8  1  0
 10 17  1  0
 11 10  2  0
 13 12  1  0
 14 13  2  0
 16 15  1  1
 15 13  1  0
 16 17  1  0
 18 16  1  0
 19 18  2  0
 21 20  1  6
 21 22  1  0
 23 21  1  0
 23 24  1  1
 24 18  1  0
 25 23  1  0
 26 25  2  0
 27 25  1  0
M  END
$$$$
