RNT.pdb
     RDKit          3D

 27 26  0  0  1  0  0  0  0  0999 V2000
   21.0315  -23.8399  -15.8009 N   0  0  0  0  0  0  0  0  0  0  0  0
   21.3287  -22.6214  -16.4700 C   0  0  0  0  0  0  0  0  0  0  0  0
   20.7050  -21.5170  -16.2159 N   0  0  0  0  0  0  0  0  0  0  0  0
   22.3534  -22.5927  -17.4692 N   0  0  0  0  0  0  0  0  0  0  0  0
   23.3054  -23.6872  -17.5150 C   0  0  0  0  0  0  0  0  0  0  0  0
   24.6762  -23.1252  -17.7033 C   0  0  0  0  0  0  0  0  0  0  0  0
   25.7012  -24.1830  -17.8032 C   0  0  0  0  0  0  0  0  0  0  0  0
   26.0817  -24.9030  -16.5646 C   0  0  2  0  0  0  0  0  0  0  0  0
   27.4416  -25.2970  -16.4301 N   0  0  0  0  0  0  0  0  0  0  0  0
   25.2394  -26.1323  -16.3415 C   0  0  0  0  0  0  0  0  0  0  0  0
   25.4851  -27.2240  -16.9153 O   0  0  0  0  0  0  0  0  0  0  0  0
   21.0053  -20.6754  -16.7546 N   0  0  0  0  0  0  0  0  0  0  0  0
   22.2914  -29.4501  -13.5908 C   0  0  0  0  0  0  0  0  0  0  0  0
   22.9766  -28.4081  -12.8622 O   0  0  0  0  0  0  0  0  0  0  0  0
   23.0710  -28.6330  -11.6346 C   0  0  0  0  0  0  0  0  0  0  0  0
   23.4837  -27.2324  -13.5568 C   0  0  2  0  0  0  0  0  0  0  0  0
   23.3910  -27.3155  -15.0610 N   0  0  0  0  0  0  0  0  0  0  0  0
   24.1447  -26.0733  -15.4708 C   0  0  0  0  0  0  0  0  0  0  0  0
   22.0299  -27.0537  -15.5750 O   0  0  0  0  0  0  0  0  0  0  0  0
   21.6072  -25.8442  -15.5254 C   0  0  0  0  0  0  0  0  0  0  0  0
   18.0108  -28.1164  -18.1293 C   0  0  2  0  0  0  0  0  0  0  0  0
   19.4203  -28.5573  -17.7323 O   0  0  0  0  0  0  0  0  0  0  0  0
   20.2090  -28.3971  -18.8620 C   0  0  1  0  0  0  0  0  0  0  0  0
   19.8779  -27.6183  -16.6316 N   0  0  0  0  0  0  0  0  0  0  0  0
   21.1805  -28.0345  -16.1142 C   0  0  0  0  0  0  0  0  0  0  0  0
   18.9245  -27.6508  -15.4913 O   0  0  0  0  0  0  0  0  0  0  0  0
   19.0215  -28.5059  -14.5969 O   0  0  0  0  0  0  0  0  0  0  0  0
  2  1  1  0
  3  2  2  0
  4  2  1  0
  5  4  1  0
  6  5  1  0
  7  8  1  0
  7  6  1  0
  8  9  1  6
 10  8  1  0
 10 17  1  0
 11 10  2  0
 13 12  1  0
 14 13  2  0
 16 15  1  6
 15 13  1  0
 16 17  1  0
 18 16  1  0
 19 18  2  0
 21 20  1  6
 21 22  1  0
 23 21  1  0
 23 24  1  1
 24 18  1  0
 25 23  1  0
 26 25  2  0
 27 25  1  0
M  END
$$$$
