RNT.pdb
     RDKit          3D

 27 26  0  0  1  0  0  0  0  0999 V2000
   24.9301  -24.2921  -14.9721 N   0  0  0  0  0  0  0  0  0  0  0  0
   26.1170  -24.5637  -15.7058 C   0  0  0  0  0  0  0  0  0  0  0  0
   26.5783  -25.7616  -15.8660 N   0  0  0  0  0  0  0  0  0  0  0  0
   26.8475  -23.4841  -16.2976 N   0  0  0  0  0  0  0  0  0  0  0  0
   26.1795  -22.2065  -16.4641 C   0  0  0  0  0  0  0  0  0  0  0  0
   25.4022  -22.2323  -17.7390 C   0  0  0  0  0  0  0  0  0  0  0  0
   24.0947  -21.5597  -17.6059 C   0  0  0  0  0  0  0  0  0  0  0  0
   24.0835  -20.1318  -17.2080 C   0  0  2  0  0  0  0  0  0  0  0  0
   25.3341  -19.5318  -16.8938 N   0  0  0  0  0  0  0  0  0  0  0  0
   23.1628  -19.8747  -16.0432 C   0  0  0  0  0  0  0  0  0  0  0  0
   23.5383  -20.0133  -14.8512 O   0  0  0  0  0  0  0  0  0  0  0  0
   27.4207  -25.8611  -16.4735 N   0  0  0  0  0  0  0  0  0  0  0  0
   21.7287  -15.8073  -15.9371 C   0  0  0  0  0  0  0  0  0  0  0  0
   21.0373  -16.7061  -15.0426 O   0  0  0  0  0  0  0  0  0  0  0  0
   21.1350  -16.3869  -13.8363 C   0  0  0  0  0  0  0  0  0  0  0  0
   20.3143  -17.8573  -15.5659 C   0  0  2  0  0  0  0  0  0  0  0  0
   20.8865  -19.1894  -15.1459 N   0  0  0  0  0  0  0  0  0  0  0  0
   21.8441  -19.4681  -16.2792 C   0  0  0  0  0  0  0  0  0  0  0  0
   19.9176  -20.3001  -15.2590 O   0  0  0  0  0  0  0  0  0  0  0  0
   19.6178  -20.6985  -16.4403 C   0  0  0  0  0  0  0  0  0  0  0  0
   17.6571  -24.2747  -13.6659 C   0  0  2  0  0  0  0  0  0  0  0  0
   18.7410  -23.2161  -13.4578 O   0  0  0  0  0  0  0  0  0  0  0  0
   19.9444  -23.8247  -13.7827 C   0  0  1  0  0  0  0  0  0  0  0  0
   18.4415  -22.0879  -14.4274 N   0  0  0  0  0  0  0  0  0  0  0  0
   19.3145  -20.9446  -14.1658 C   0  0  0  0  0  0  0  0  0  0  0  0
   17.0418  -21.6160  -14.2589 O   0  0  0  0  0  0  0  0  0  0  0  0
   16.7862  -20.5709  -13.6401 O   0  0  0  0  0  0  0  0  0  0  0  0
  2  1  1  0
  3  2  2  0
  4  2  1  0
  5  4  1  0
  6  5  1  0
  7  8  1  0
  7  6  1  0
  8  9  1  1
 10  8  1  0
 10 17  1  0
 11 10  2  0
 13 12  1  0
 14 13  2  0
 16 15  1  1
 15 13  1  0
 16 17  1  0
 18 16  1  0
 19 18  2  0
 21 20  1  1
 21 22  1  0
 23 21  1  0
 23 24  1  1
 24 18  1  0
 25 23  1  0
 26 25  2  0
 27 25  1  0
M  END
$$$$
