RNT.pdb
     RDKit          3D

 27 26  0  0  1  0  0  0  0  0999 V2000
   26.3053  -23.5376  -16.7312 N   0  0  0  0  0  0  0  0  0  0  0  0
   26.7267  -22.4846  -17.5883 C   0  0  0  0  0  0  0  0  0  0  0  0
   27.3119  -22.7007  -18.7215 N   0  0  0  0  0  0  0  0  0  0  0  0
   26.5064  -21.1242  -17.2012 N   0  0  0  0  0  0  0  0  0  0  0  0
   25.5384  -20.8509  -16.1550 C   0  0  0  0  0  0  0  0  0  0  0  0
   26.2706  -20.5008  -14.9013 C   0  0  0  0  0  0  0  0  0  0  0  0
   25.3515  -20.1404  -13.8036 C   0  0  0  0  0  0  0  0  0  0  0  0
   24.4341  -21.1863  -13.2920 C   0  0  2  0  0  0  0  0  0  0  0  0
   24.3924  -22.4203  -13.9978 N   0  0  0  0  0  0  0  0  0  0  0  0
   23.0154  -20.6910  -13.1798 C   0  0  0  0  0  0  0  0  0  0  0  0
   22.7102  -19.6897  -12.4830 O   0  0  0  0  0  0  0  0  0  0  0  0
   27.5909  -21.8593  -19.2718 N   0  0  0  0  0  0  0  0  0  0  0  0
   20.5914  -18.0706  -13.9244 C   0  0  0  0  0  0  0  0  0  0  0  0
   20.4836  -18.7939  -15.1697 O   0  0  0  0  0  0  0  0  0  0  0  0
   20.4630  -18.0545  -16.1794 C   0  0  0  0  0  0  0  0  0  0  0  0
   20.4096  -20.2487  -15.1747 C   0  0  2  0  0  0  0  0  0  0  0  0
   20.5617  -20.8797  -13.8120 N   0  0  0  0  0  0  0  0  0  0  0  0
   21.9931  -21.3562  -13.8671 C   0  0  0  0  0  0  0  0  0  0  0  0
   19.8050  -22.1415  -13.6678 O   0  0  0  0  0  0  0  0  0  0  0  0
   20.4466  -23.2350  -13.8592 C   0  0  0  0  0  0  0  0  0  0  0  0
   18.3906  -22.9990  -10.5636 C   0  0  1  0  0  0  0  0  0  0  0  0
   18.6445  -24.0129  -11.6800 O   0  0  0  0  0  0  0  0  0  0  0  0
   18.0990  -25.2120  -11.2459 C   0  0  1  0  0  0  0  0  0  0  0  0
   17.9037  -23.5087  -12.9046 N   0  0  0  0  0  0  0  0  0  0  0  0
   18.4427  -22.2186  -13.3322 C   0  0  0  0  0  0  0  0  0  0  0  0
   16.4655  -23.2989  -12.5920 O   0  0  0  0  0  0  0  0  0  0  0  0
   15.9764  -22.1589  -12.5513 O   0  0  0  0  0  0  0  0  0  0  0  0
  2  1  1  0
  3  2  2  0
  4  2  1  0
  5  4  1  0
  6  5  1  0
  7  8  1  0
  7  6  1  0
  8  9  1  6
 10  8  1  0
 10 17  1  0
 11 10  2  0
 13 12  1  0
 14 13  2  0
 16 15  1  1
 15 13  1  0
 16 17  1  0
 18 16  1  0
 19 18  2  0
 21 20  1  1
 21 22  1  0
 23 21  1  0
 23 24  1  6
 24 18  1  0
 25 23  1  0
 26 25  2  0
 27 25  1  0
M  END
$$$$
