RNT.pdb
     RDKit          3D

 27 26  0  0  1  0  0  0  0  0999 V2000
   27.6973  -21.1380  -10.2534 N   0  0  0  0  0  0  0  0  0  0  0  0
   28.9773  -21.2878  -10.8534 C   0  0  0  0  0  0  0  0  0  0  0  0
   30.0768  -21.2185  -10.1755 N   0  0  0  0  0  0  0  0  0  0  0  0
   29.0770  -21.5234  -12.2618 N   0  0  0  0  0  0  0  0  0  0  0  0
   27.8555  -21.7409  -13.0148 C   0  0  0  0  0  0  0  0  0  0  0  0
   27.3130  -20.4174  -13.4447 C   0  0  0  0  0  0  0  0  0  0  0  0
   25.9276  -20.2077  -12.9798 C   0  0  0  0  0  0  0  0  0  0  0  0
   24.9250  -21.2565  -13.2832 C   0  0  2  0  0  0  0  0  0  0  0  0
   24.9108  -21.7836  -14.6041 N   0  0  0  0  0  0  0  0  0  0  0  0
   23.5213  -20.8072  -12.9696 C   0  0  0  0  0  0  0  0  0  0  0  0
   23.2476  -20.1399  -11.9394 O   0  0  0  0  0  0  0  0  0  0  0  0
   30.9646  -21.3372  -10.7107 N   0  0  0  0  0  0  0  0  0  0  0  0
   21.1340  -17.6162  -14.2599 C   0  0  0  0  0  0  0  0  0  0  0  0
   21.3907  -18.6954  -15.1847 O   0  0  0  0  0  0  0  0  0  0  0  0
   22.1540  -18.3795  -16.1251 C   0  0  0  0  0  0  0  0  0  0  0  0
   20.7834  -20.0036  -14.9800 C   0  0  2  0  0  0  0  0  0  0  0  0
   21.0757  -20.6162  -13.6319 N   0  0  0  0  0  0  0  0  0  0  0  0
   22.4775  -21.1354  -13.8429 C   0  0  0  0  0  0  0  0  0  0  0  0
   20.3068  -21.8526  -13.3761 O   0  0  0  0  0  0  0  0  0  0  0  0
   20.5197  -22.8474  -14.1567 C   0  0  0  0  0  0  0  0  0  0  0  0
   17.1560  -24.6799  -10.9009 C   0  0  2  0  0  0  0  0  0  0  0  0
   17.9385  -23.3659  -10.8926 O   0  0  0  0  0  0  0  0  0  0  0  0
   18.8420  -23.4595   -9.8443 C   0  0  1  0  0  0  0  0  0  0  0  0
   18.6738  -23.2872  -12.2177 N   0  0  0  0  0  0  0  0  0  0  0  0
   19.3712  -22.0079  -12.3394 C   0  0  0  0  0  0  0  0  0  0  0  0
   17.7141  -23.3706  -13.3502 O   0  0  0  0  0  0  0  0  0  0  0  0
   17.5777  -24.4187  -14.0008 O   0  0  0  0  0  0  0  0  0  0  0  0
  2  1  1  0
  3  2  2  0
  4  2  1  0
  5  4  1  0
  6  5  1  0
  7  8  1  0
  7  6  1  0
  8  9  1  6
 10  8  1  0
 10 17  1  0
 11 10  2  0
 13 12  1  0
 14 13  2  0
 16 15  1  1
 15 13  1  0
 16 17  1  0
 18 16  1  0
 19 18  2  0
 21 20  1  1
 21 22  1  0
 23 21  1  0
 23 24  1  1
 24 18  1  0
 25 23  1  0
 26 25  2  0
 27 25  1  0
M  END
$$$$
