RNT.pdb
     RDKit          3D

 27 26  0  0  1  0  0  0  0  0999 V2000
   20.3554  -20.9546   -8.8626 N   0  0  0  0  0  0  0  0  0  0  0  0
   21.1908  -21.4888   -7.8439 C   0  0  0  0  0  0  0  0  0  0  0  0
   20.7192  -22.0938   -6.8023 N   0  0  0  0  0  0  0  0  0  0  0  0
   22.6124  -21.3620   -7.9537 N   0  0  0  0  0  0  0  0  0  0  0  0
   23.1633  -20.7778   -9.1627 C   0  0  0  0  0  0  0  0  0  0  0  0
   24.6536  -20.7852   -9.0650 C   0  0  0  0  0  0  0  0  0  0  0  0
   25.2905  -20.1696  -10.2460 C   0  0  0  0  0  0  0  0  0  0  0  0
   24.7228  -20.4737  -11.5811 C   0  0  2  0  0  0  0  0  0  0  0  0
   24.5268  -21.8432  -11.9107 N   0  0  0  0  0  0  0  0  0  0  0  0
   25.5320  -19.8607  -12.6947 C   0  0  0  0  0  0  0  0  0  0  0  0
   26.0456  -18.7171  -12.5963 O   0  0  0  0  0  0  0  0  0  0  0  0
   21.4119  -22.3939   -6.0821 N   0  0  0  0  0  0  0  0  0  0  0  0
   28.0413  -19.5214  -17.3300 C   0  0  0  0  0  0  0  0  0  0  0  0
   28.2252  -20.7537  -16.5996 O   0  0  0  0  0  0  0  0  0  0  0  0
   29.1355  -21.4789  -17.0601 C   0  0  0  0  0  0  0  0  0  0  0  0
   27.3920  -21.0587  -15.4444 C   0  0  2  0  0  0  0  0  0  0  0  0
   26.4279  -19.9592  -15.0703 N   0  0  0  0  0  0  0  0  0  0  0  0
   25.7270  -20.5744  -13.8831 C   0  0  0  0  0  0  0  0  0  0  0  0
   25.3293  -19.7926  -16.0453 O   0  0  0  0  0  0  0  0  0  0  0  0
   24.6572  -20.8395  -16.3557 C   0  0  0  0  0  0  0  0  0  0  0  0
   22.2160  -17.6800  -15.9249 C   0  0  2  0  0  0  0  0  0  0  0  0
   22.9320  -17.3614  -17.2381 O   0  0  0  0  0  0  0  0  0  0  0  0
   23.6981  -16.2304  -16.9972 C   0  0  2  0  0  0  0  0  0  0  0  0
   23.8255  -18.5482  -17.5475 N   0  0  0  0  0  0  0  0  0  0  0  0
   24.9743  -18.5717  -16.6434 C   0  0  0  0  0  0  0  0  0  0  0  0
   24.3607  -18.4488  -18.9310 O   0  0  0  0  0  0  0  0  0  0  0  0
   25.5545  -18.1816  -19.1404 O   0  0  0  0  0  0  0  0  0  0  0  0
  2  1  1  0
  3  2  2  0
  4  2  1  0
  5  4  1  0
  6  5  1  0
  7  8  1  0
  7  6  1  0
  8  9  1  6
 10  8  1  0
 10 17  1  0
 11 10  2  0
 13 12  1  0
 14 13  2  0
 16 15  1  1
 15 13  1  0
 16 17  1  0
 18 16  1  0
 19 18  2  0
 21 20  1  6
 21 22  1  0
 23 21  1  0
 23 24  1  6
 24 18  1  0
 25 23  1  0
 26 25  2  0
 27 25  1  0
M  END
$$$$
