RNT.pdb
     RDKit          3D

 27 26  0  0  1  0  0  0  0  0999 V2000
   18.8285  -10.8908    7.6656 N   0  0  0  0  0  0  0  0  0  0  0  0
   19.8566  -11.2237    6.7420 C   0  0  0  0  0  0  0  0  0  0  0  0
   21.0318  -10.6847    6.7836 N   0  0  0  0  0  0  0  0  0  0  0  0
   19.6028  -12.1895    5.7162 N   0  0  0  0  0  0  0  0  0  0  0  0
   18.2245  -12.4982    5.3827 C   0  0  0  0  0  0  0  0  0  0  0  0
   18.1030  -13.9687    5.1517 C   0  0  0  0  0  0  0  0  0  0  0  0
   16.7322  -14.3590    4.7670 C   0  0  0  0  0  0  0  0  0  0  0  0
   16.4608  -15.7949    4.5188 C   0  0  2  0  0  0  0  0  0  0  0  0
   15.1793  -16.1381    4.0062 N   0  0  0  0  0  0  0  0  0  0  0  0
   16.6865  -16.6358    5.7486 C   0  0  0  0  0  0  0  0  0  0  0  0
   15.7382  -17.1814    6.3685 O   0  0  0  0  0  0  0  0  0  0  0  0
   21.7363  -11.0455    6.1038 N   0  0  0  0  0  0  0  0  0  0  0  0
   18.2719  -19.8403    9.2478 C   0  0  0  0  0  0  0  0  0  0  0  0
   17.9700  -20.1286    7.8651 O   0  0  0  0  0  0  0  0  0  0  0  0
   17.6924  -21.3303    7.6521 C   0  0  0  0  0  0  0  0  0  0  0  0
   18.0051  -19.0697    6.8653 C   0  0  2  0  0  0  0  0  0  0  0  0
   18.2697  -17.6953    7.4301 N   0  0  0  0  0  0  0  0  0  0  0  0
   17.9877  -16.8250    6.2291 C   0  0  0  0  0  0  0  0  0  0  0  0
   19.7026  -17.4385    7.6877 O   0  0  0  0  0  0  0  0  0  0  0  0
   20.5023  -17.5239    6.6891 C   0  0  0  0  0  0  0  0  0  0  0  0
   21.3585  -15.9398   11.2806 C   0  0  2  0  0  0  0  0  0  0  0  0
   21.9664  -15.6631    9.9049 O   0  0  0  0  0  0  0  0  0  0  0  0
   23.3320  -15.5250   10.1054 C   0  0  1  0  0  0  0  0  0  0  0  0
   21.6794  -16.8817    9.0475 N   0  0  0  0  0  0  0  0  0  0  0  0
   20.2381  -17.1046    8.9431 C   0  0  0  0  0  0  0  0  0  0  0  0
   22.2661  -18.1007    9.6640 O   0  0  0  0  0  0  0  0  0  0  0  0
   21.5540  -18.9286   10.2539 O   0  0  0  0  0  0  0  0  0  0  0  0
  2  1  1  0
  3  2  2  0
  4  2  1  0
  5  4  1  0
  6  5  1  0
  7  8  1  0
  7  6  1  0
  8  9  1  1
 10  8  1  0
 10 17  1  0
 11 10  2  0
 13 12  1  0
 14 13  2  0
 16 15  1  1
 15 13  1  0
 16 17  1  0
 18 16  1  0
 19 18  2  0
 21 20  1  1
 21 22  1  0
 23 21  1  0
 23 24  1  6
 24 18  1  0
 25 23  1  0
 26 25  2  0
 27 25  1  0
M  END
$$$$
