GRA.pdb
     RDKit          3D

 21 20  0  0  1  0  0  0  0  0999 V2000
   23.1019  -20.7753   -7.8647 N   0  0  0  0  0  0  0  0  0  0  0  0
   24.0557  -21.4961   -8.6578 C   0  0  0  0  0  0  0  0  0  0  0  0
   24.2031  -20.7710   -9.9655 C   0  0  0  0  0  0  0  0  0  0  0  0
   23.5980  -19.7074  -10.1999 O   0  0  0  0  0  0  0  0  0  0  0  0
   26.9407  -16.5810  -14.8028 N   0  0  0  0  0  0  0  0  0  0  0  0
   27.3296  -17.4812  -15.8311 C   0  0  0  0  0  0  0  0  0  0  0  0
   27.4539  -17.0523  -17.0511 N   0  0  0  0  0  0  0  0  0  0  0  0
   27.5842  -18.8404  -15.5459 N   0  0  0  0  0  0  0  0  0  0  0  0
   27.3657  -19.3264  -14.2070 C   0  0  0  0  0  0  0  0  0  0  0  0
   26.8050  -20.7271  -14.2440 C   0  0  0  0  0  0  0  0  0  0  0  0
   26.4607  -21.2341  -12.8857 C   0  0  0  0  0  0  0  0  0  0  0  0
   25.2150  -20.6850  -12.2691 C   0  0  2  0  0  0  0  0  0  0  0  0
   25.0577  -21.3337  -10.9375 N   0  0  0  0  0  0  0  0  0  0  0  0
   23.9738  -20.8852  -13.0173 C   0  0  0  0  0  0  0  0  0  0  0  0
   23.4684  -22.0686  -13.0048 O   0  0  0  0  0  0  0  0  0  0  0  0
   27.7496  -17.6984  -17.8138 C   0  0  0  0  0  0  0  0  0  0  0  0
   21.3346  -18.9944  -14.9713 C   0  0  1  0  0  0  0  0  0  0  0  0
   22.0372  -20.2321  -14.4897 N   0  0  0  0  0  0  0  0  0  0  0  0
   23.2481  -19.9412  -13.7562 C   0  0  0  0  0  0  0  0  0  0  0  0
   22.3909  -21.0392  -15.6824 O   0  0  0  0  0  0  0  0  0  0  0  0
   23.5869  -21.1089  -16.0305 O   0  0  0  0  0  0  0  0  0  0  0  0
  1  2  1  0
  2  3  1  0
  3  4  2  0
  6  8  1  0
  6  5  1  0
  7  6  2  0
  9 10  1  0
  9  8  1  0
 10 11  1  0
 12 11  1  6
 12 14  1  0
 13  3  1  0
 13 12  1  0
 14 18  1  0
 14 15  2  0
 17 16  1  1
 17 19  1  0
 18 17  1  0
 19 21  1  0
 20 19  2  0
M  END
$$$$
