GRA.pdb
     RDKit          3D

 21 20  0  0  1  0  0  0  0  0999 V2000
   15.8697  -20.0749    2.0754 N   0  0  0  0  0  0  0  0  0  0  0  0
   15.6680  -19.2618    3.2400 C   0  0  0  0  0  0  0  0  0  0  0  0
   17.0206  -18.9222    3.7995 C   0  0  0  0  0  0  0  0  0  0  0  0
   18.0694  -19.3857    3.3124 O   0  0  0  0  0  0  0  0  0  0  0  0
   21.6174  -11.1456    7.1259 N   0  0  0  0  0  0  0  0  0  0  0  0
   20.4105  -11.8533    6.8782 C   0  0  0  0  0  0  0  0  0  0  0  0
   19.2674  -11.2737    7.0904 N   0  0  0  0  0  0  0  0  0  0  0  0
   20.4349  -13.1827    6.4029 N   0  0  0  0  0  0  0  0  0  0  0  0
   19.2026  -13.9275    6.3465 C   0  0  0  0  0  0  0  0  0  0  0  0
   19.4695  -15.3482    5.9126 C   0  0  0  0  0  0  0  0  0  0  0  0
   18.2241  -16.1643    5.8529 C   0  0  0  0  0  0  0  0  0  0  0  0
   18.3863  -17.5925    5.4440 C   0  0  2  0  0  0  0  0  0  0  0  0
   17.0743  -18.0509    4.9085 N   0  0  0  0  0  0  0  0  0  0  0  0
   18.7975  -18.5281    6.4910 C   0  0  0  0  0  0  0  0  0  0  0  0
   17.8691  -19.0137    7.2382 O   0  0  0  0  0  0  0  0  0  0  0  0
   18.3739  -11.7720    6.8907 C   0  0  0  0  0  0  0  0  0  0  0  0
   21.5839  -20.8137    7.4448 C   0  0  1  0  0  0  0  0  0  0  0  0
   20.4022  -19.9582    7.8042 N   0  0  0  0  0  0  0  0  0  0  0  0
   20.0911  -18.9756    6.7910 C   0  0  0  0  0  0  0  0  0  0  0  0
   20.7300  -19.2483    9.0644 O   0  0  0  0  0  0  0  0  0  0  0  0
   20.8150  -18.0037    9.0509 O   0  0  0  0  0  0  0  0  0  0  0  0
  1  2  1  0
  2  3  1  0
  3  4  2  0
  6  8  1  0
  6  5  1  0
  7  6  2  0
  9 10  1  0
  9  8  1  0
 10 11  1  0
 12 11  1  1
 12 14  1  0
 13  3  1  0
 13 12  1  0
 14 18  1  0
 14 15  2  0
 17 16  1  6
 17 19  1  0
 18 17  1  0
 19 21  1  0
 20 19  2  0
M  END
$$$$
