GRA.pdb
     RDKit          3D

 21 20  0  0  1  0  0  0  0  0999 V2000
   19.8949  -19.8758  -14.9861 N   0  0  0  0  0  0  0  0  0  0  0  0
   21.0112  -19.8944  -15.8871 C   0  0  0  0  0  0  0  0  0  0  0  0
   22.1337  -19.1343  -15.2390 C   0  0  0  0  0  0  0  0  0  0  0  0
   21.9496  -18.0330  -14.6864 O   0  0  0  0  0  0  0  0  0  0  0  0
   26.9696  -21.5717   -9.3606 N   0  0  0  0  0  0  0  0  0  0  0  0
   25.7638  -20.9895   -9.8359 C   0  0  0  0  0  0  0  0  0  0  0  0
   24.7110  -20.9739   -9.0748 N   0  0  0  0  0  0  0  0  0  0  0  0
   25.6921  -20.4253  -11.1282 N   0  0  0  0  0  0  0  0  0  0  0  0
   26.8710  -20.4246  -11.9569 C   0  0  0  0  0  0  0  0  0  0  0  0
   26.6135  -19.6596  -13.2322 C   0  0  0  0  0  0  0  0  0  0  0  0
   25.3658  -20.1035  -13.9154 C   0  0  0  0  0  0  0  0  0  0  0  0
   24.5641  -19.0378  -14.5900 C   0  0  2  0  0  0  0  0  0  0  0  0
   23.4226  -19.7083  -15.2724 N   0  0  0  0  0  0  0  0  0  0  0  0
   25.2661  -18.2226  -15.5816 C   0  0  0  0  0  0  0  0  0  0  0  0
   25.4004  -18.7226  -16.7597 O   0  0  0  0  0  0  0  0  0  0  0  0
   23.8157  -20.5625   -9.4149 C   0  0  0  0  0  0  0  0  0  0  0  0
   27.0176  -14.8780  -15.9838 C   0  0  1  0  0  0  0  0  0  0  0  0
   26.5335  -16.2239  -16.4441 N   0  0  0  0  0  0  0  0  0  0  0  0
   25.8186  -16.9454  -15.4158 C   0  0  0  0  0  0  0  0  0  0  0  0
   27.7231  -17.0176  -16.8366 O   0  0  0  0  0  0  0  0  0  0  0  0
   28.1052  -17.9412  -16.0899 O   0  0  0  0  0  0  0  0  0  0  0  0
  1  2  1  0
  2  3  1  0
  3  4  2  0
  6  8  1  0
  6  5  1  0
  7  6  2  0
  9 10  1  0
  9  8  1  0
 10 11  1  0
 12 11  1  6
 12 14  1  0
 13  3  1  0
 13 12  1  0
 14 18  1  0
 14 15  2  0
 17 16  1  6
 17 19  1  0
 18 17  1  0
 19 21  1  0
 20 19  2  0
M  END
$$$$
