GRA.pdb
     RDKit          3D

 21 20  0  0  1  0  0  0  0  0999 V2000
   27.4616  -10.8912  -16.0761 N   0  0  0  0  0  0  0  0  0  0  0  0
   26.2855  -11.0613  -15.2723 C   0  0  0  0  0  0  0  0  0  0  0  0
   25.1419  -10.4035  -15.9914 C   0  0  0  0  0  0  0  0  0  0  0  0
   25.2878   -9.8648  -17.1053 O   0  0  0  0  0  0  0  0  0  0  0  0
   16.9210  -13.2551  -15.6757 N   0  0  0  0  0  0  0  0  0  0  0  0
   16.8588  -12.1752  -16.5970 C   0  0  0  0  0  0  0  0  0  0  0  0
   15.7559  -11.9402  -17.2421 N   0  0  0  0  0  0  0  0  0  0  0  0
   17.9822  -11.3503  -16.8230 N   0  0  0  0  0  0  0  0  0  0  0  0
   19.2159  -11.6469  -16.1401 C   0  0  0  0  0  0  0  0  0  0  0  0
   20.2684  -10.6245  -16.4935 C   0  0  0  0  0  0  0  0  0  0  0  0
   21.5692  -10.8963  -15.8194 C   0  0  0  0  0  0  0  0  0  0  0  0
   22.6723   -9.9253  -16.0908 C   0  0  2  0  0  0  0  0  0  0  0  0
   23.8779  -10.4110  -15.3636 N   0  0  0  0  0  0  0  0  0  0  0  0
   22.4333   -8.5382  -15.6911 C   0  0  0  0  0  0  0  0  0  0  0  0
   22.5431   -8.2639  -14.4387 O   0  0  0  0  0  0  0  0  0  0  0  0
   15.6965  -11.1541  -17.9241 C   0  0  0  0  0  0  0  0  0  0  0  0
   21.8693   -5.0856  -17.1356 C   0  0  1  0  0  0  0  0  0  0  0  0
   21.8954   -6.1006  -16.0281 N   0  0  0  0  0  0  0  0  0  0  0  0
   22.0979   -7.4492  -16.5068 C   0  0  0  0  0  0  0  0  0  0  0  0
   20.5869   -6.0388  -15.3329 O   0  0  0  0  0  0  0  0  0  0  0  0
   19.7931   -6.9935  -15.4553 O   0  0  0  0  0  0  0  0  0  0  0  0
  1  2  1  0
  2  3  1  0
  3  4  2  0
  6  8  1  0
  6  5  1  0
  7  6  2  0
  9 10  1  0
  9  8  1  0
 10 11  1  0
 12 11  1  1
 12 14  1  0
 13  3  1  0
 13 12  1  0
 14 18  1  0
 14 15  2  0
 17 16  1  1
 17 19  1  0
 18 17  1  0
 19 21  1  0
 20 19  2  0
M  END
$$$$
