GRA.pdb
     RDKit          3D

 21 20  0  0  1  0  0  0  0  0999 V2000
   19.5264  -27.7574   -1.8038 N   0  0  0  0  0  0  0  0  0  0  0  0
   18.6420  -27.9979   -2.9075 C   0  0  0  0  0  0  0  0  0  0  0  0
   18.3028  -26.6679   -3.5189 C   0  0  0  0  0  0  0  0  0  0  0  0
   18.6093  -25.5933   -2.9682 O   0  0  0  0  0  0  0  0  0  0  0  0
   18.3330  -25.7882  -11.8477 N   0  0  0  0  0  0  0  0  0  0  0  0
   19.2778  -25.9044  -10.7928 C   0  0  0  0  0  0  0  0  0  0  0  0
   20.4308  -26.4593  -11.0174 N   0  0  0  0  0  0  0  0  0  0  0  0
   18.9812  -25.4238   -9.4987 N   0  0  0  0  0  0  0  0  0  0  0  0
   17.7080  -24.7915   -9.2627 C   0  0  0  0  0  0  0  0  0  0  0  0
   17.5656  -24.4305   -7.8042 C   0  0  0  0  0  0  0  0  0  0  0  0
   17.5888  -25.6298   -6.9201 C   0  0  0  0  0  0  0  0  0  0  0  0
   17.3509  -25.3858   -5.4651 C   0  0  2  0  0  0  0  0  0  0  0  0
   17.6172  -26.6663   -4.7526 N   0  0  0  0  0  0  0  0  0  0  0  0
   16.0115  -24.9316   -5.0903 C   0  0  0  0  0  0  0  0  0  0  0  0
   15.0654  -25.8027   -5.1350 O   0  0  0  0  0  0  0  0  0  0  0  0
   21.1142  -26.5967  -10.2424 C   0  0  0  0  0  0  0  0  0  0  0  0
   14.2337  -21.9641   -3.5499 C   0  0  1  0  0  0  0  0  0  0  0  0
   14.2954  -23.3191   -4.1960 N   0  0  0  0  0  0  0  0  0  0  0  0
   15.6165  -23.6516   -4.6789 C   0  0  0  0  0  0  0  0  0  0  0  0
   13.3612  -23.3090   -5.3478 O   0  0  0  0  0  0  0  0  0  0  0  0
   13.8256  -23.1941   -6.5001 O   0  0  0  0  0  0  0  0  0  0  0  0
  1  2  1  0
  2  3  1  0
  3  4  2  0
  6  8  1  0
  6  5  1  0
  7  6  2  0
  9 10  1  0
  9  8  1  0
 10 11  1  0
 12 11  1  6
 12 14  1  0
 13  3  1  0
 13 12  1  0
 14 18  1  0
 14 15  2  0
 17 16  1  1
 17 19  1  0
 18 17  1  0
 19 21  1  0
 20 19  2  0
M  END
$$$$
