GRA.pdb
     RDKit          3D

 21 20  0  0  1  0  0  0  0  0999 V2000
   19.4653  -10.7569  -12.3189 N   0  0  0  0  0  0  0  0  0  0  0  0
   18.8499  -10.5449  -11.0404 C   0  0  0  0  0  0  0  0  0  0  0  0
   17.7230   -9.5698  -11.2322 C   0  0  0  0  0  0  0  0  0  0  0  0
   17.3633   -9.1944  -12.3644 O   0  0  0  0  0  0  0  0  0  0  0  0
   10.1333   -9.1752   -7.1998 N   0  0  0  0  0  0  0  0  0  0  0  0
   10.7438   -9.8094   -8.3151 C   0  0  0  0  0  0  0  0  0  0  0  0
   10.2783  -10.9426   -8.7477 N   0  0  0  0  0  0  0  0  0  0  0  0
   11.8534   -9.2243   -8.9632 N   0  0  0  0  0  0  0  0  0  0  0  0
   12.6168   -8.2177   -8.2700 C   0  0  0  0  0  0  0  0  0  0  0  0
   13.6814   -7.6512   -9.1775 C   0  0  0  0  0  0  0  0  0  0  0  0
   14.8873   -8.5238   -9.2475 C   0  0  0  0  0  0  0  0  0  0  0  0
   15.9571   -8.1010  -10.2015 C   0  0  2  0  0  0  0  0  0  0  0  0
   17.0714   -9.0817  -10.0793 N   0  0  0  0  0  0  0  0  0  0  0  0
   16.5124   -6.7615  -10.0071 C   0  0  0  0  0  0  0  0  0  0  0  0
   17.2796   -6.5892   -8.9884 O   0  0  0  0  0  0  0  0  0  0  0  0
   10.7164  -11.4200   -9.5642 C   0  0  0  0  0  0  0  0  0  0  0  0
   16.7369   -3.3563  -11.6516 C   0  0  1  0  0  0  0  0  0  0  0  0
   16.8661   -4.3175  -10.5040 N   0  0  0  0  0  0  0  0  0  0  0  0
   16.3183   -5.6219  -10.7994 C   0  0  0  0  0  0  0  0  0  0  0  0
   16.1252   -3.7444   -9.3542 O   0  0  0  0  0  0  0  0  0  0  0  0
   15.1190   -4.3447   -8.9255 O   0  0  0  0  0  0  0  0  0  0  0  0
  1  2  1  0
  2  3  1  0
  3  4  2  0
  6  8  1  0
  6  5  1  0
  7  6  2  0
  9 10  1  0
  9  8  1  0
 10 11  1  0
 12 11  1  1
 12 14  1  0
 13  3  1  0
 13 12  1  0
 14 18  1  0
 14 15  2  0
 17 16  1  6
 17 19  1  0
 18 17  1  0
 19 21  1  0
 20 19  2  0
M  END
$$$$
