GRA.pdb
     RDKit          3D

 21 20  0  0  1  0  0  0  0  0999 V2000
   22.5764  -20.6182   -7.5044 N   0  0  0  0  0  0  0  0  0  0  0  0
   23.3549  -21.4049   -8.4174 C   0  0  0  0  0  0  0  0  0  0  0  0
   23.4050  -20.6688   -9.7263 C   0  0  0  0  0  0  0  0  0  0  0  0
   22.9217  -19.5281   -9.8586 O   0  0  0  0  0  0  0  0  0  0  0  0
   27.1449  -19.2256  -17.1104 N   0  0  0  0  0  0  0  0  0  0  0  0
   28.1197  -20.0025  -16.4286 C   0  0  0  0  0  0  0  0  0  0  0  0
   29.2107  -20.3515  -17.0415 N   0  0  0  0  0  0  0  0  0  0  0  0
   27.9199  -20.4025  -15.0893 N   0  0  0  0  0  0  0  0  0  0  0  0
   26.8630  -21.3347  -14.7885 C   0  0  0  0  0  0  0  0  0  0  0  0
   25.7013  -20.6184  -14.1443 C   0  0  0  0  0  0  0  0  0  0  0  0
   25.3989  -21.1426  -12.7826 C   0  0  0  0  0  0  0  0  0  0  0  0
   24.1681  -20.6082  -12.1246 C   0  0  2  0  0  0  0  0  0  0  0  0
   24.0231  -21.3120  -10.8200 N   0  0  0  0  0  0  0  0  0  0  0  0
   22.9142  -20.7634  -12.8623 C   0  0  0  0  0  0  0  0  0  0  0  0
   22.3983  -21.9419  -12.8962 O   0  0  0  0  0  0  0  0  0  0  0  0
   29.9307  -20.9290  -16.5571 C   0  0  0  0  0  0  0  0  0  0  0  0
   20.2436  -18.7352  -14.6269 C   0  0  1  0  0  0  0  0  0  0  0  0
   20.9166  -20.0083  -14.1981 N   0  0  0  0  0  0  0  0  0  0  0  0
   22.1863  -19.7805  -13.5461 C   0  0  0  0  0  0  0  0  0  0  0  0
   21.1511  -20.8228  -15.4150 O   0  0  0  0  0  0  0  0  0  0  0  0
   22.3016  -20.8726  -15.8951 O   0  0  0  0  0  0  0  0  0  0  0  0
  1  2  1  0
  2  3  1  0
  3  4  2  0
  6  8  1  0
  6  5  1  0
  7  6  2  0
  9 10  1  0
  9  8  1  0
 10 11  1  0
 12 11  1  6
 12 14  1  0
 13  3  1  0
 13 12  1  0
 14 18  1  0
 14 15  2  0
 17 16  1  1
 17 19  1  0
 18 17  1  0
 19 21  1  0
 20 19  2  0
M  END
$$$$
