GRA.pdb
     RDKit          3D

 21 20  0  0  1  0  0  0  0  0999 V2000
   18.8151  -22.5830   -7.1988 N   0  0  0  0  0  0  0  0  0  0  0  0
   20.1551  -22.9457   -7.5606 C   0  0  0  0  0  0  0  0  0  0  0  0
   20.6947  -21.8657   -8.4551 C   0  0  0  0  0  0  0  0  0  0  0  0
   19.9812  -20.9268   -8.8571 O   0  0  0  0  0  0  0  0  0  0  0  0
   26.3603  -21.5910  -14.1709 N   0  0  0  0  0  0  0  0  0  0  0  0
   26.9165  -20.4764  -13.4873 C   0  0  0  0  0  0  0  0  0  0  0  0
   28.0298  -19.9532  -13.9050 N   0  0  0  0  0  0  0  0  0  0  0  0
   26.2748  -19.9266  -12.3560 N   0  0  0  0  0  0  0  0  0  0  0  0
   25.5039  -20.7924  -11.5002 C   0  0  0  0  0  0  0  0  0  0  0  0
   24.9373  -20.0114  -10.3397 C   0  0  0  0  0  0  0  0  0  0  0  0
   24.1116  -20.8610   -9.4359 C   0  0  0  0  0  0  0  0  0  0  0  0
   22.6457  -20.9051   -9.7234 C   0  0  2  0  0  0  0  0  0  0  0  0
   22.0518  -21.9425   -8.8349 N   0  0  0  0  0  0  0  0  0  0  0  0
   22.2600  -21.2163  -11.1000 C   0  0  0  0  0  0  0  0  0  0  0  0
   22.3974  -22.4369  -11.4836 O   0  0  0  0  0  0  0  0  0  0  0  0
   28.4306  -19.1127  -13.4364 C   0  0  0  0  0  0  0  0  0  0  0  0
   20.0233  -20.1766  -13.8124 C   0  0  1  0  0  0  0  0  0  0  0  0
   21.3507  -20.7484  -13.4020 N   0  0  0  0  0  0  0  0  0  0  0  0
   21.7487  -20.3460  -12.0721 C   0  0  0  0  0  0  0  0  0  0  0  0
   22.3662  -20.2598  -14.3660 O   0  0  0  0  0  0  0  0  0  0  0  0
   23.2571  -19.4851  -13.9627 O   0  0  0  0  0  0  0  0  0  0  0  0
  1  2  1  0
  2  3  1  0
  3  4  2  0
  6  8  1  0
  6  5  1  0
  7  6  2  0
  9 10  1  0
  9  8  1  0
 10 11  1  0
 12 11  1  6
 12 14  1  0
 13  3  1  0
 13 12  1  0
 14 18  1  0
 14 15  2  0
 17 16  1  1
 17 19  1  0
 18 17  1  0
 19 21  1  0
 20 19  2  0
M  END
$$$$
