GRA.pdb
     RDKit          3D

 21 20  0  0  1  0  0  0  0  0999 V2000
   14.6461   -7.2761   -7.4885 N   0  0  0  0  0  0  0  0  0  0  0  0
   15.4031   -6.2771   -8.1866 C   0  0  0  0  0  0  0  0  0  0  0  0
   16.2637   -6.9803   -9.1978 C   0  0  0  0  0  0  0  0  0  0  0  0
   16.7026   -8.1298   -9.0026 O   0  0  0  0  0  0  0  0  0  0  0  0
   13.5717  -11.3052  -11.4663 N   0  0  0  0  0  0  0  0  0  0  0  0
   14.3333  -11.5638  -12.6376 C   0  0  0  0  0  0  0  0  0  0  0  0
   14.2899  -12.7393  -13.1889 N   0  0  0  0  0  0  0  0  0  0  0  0
   15.1399  -10.5583  -13.2137 N   0  0  0  0  0  0  0  0  0  0  0  0
   15.3428   -9.3268  -12.4935 C   0  0  0  0  0  0  0  0  0  0  0  0
   16.1115   -8.3445  -13.3431 C   0  0  0  0  0  0  0  0  0  0  0  0
   16.2910   -7.0299  -12.6647 C   0  0  0  0  0  0  0  0  0  0  0  0
   17.2461   -7.0018  -11.5156 C   0  0  2  0  0  0  0  0  0  0  0  0
   16.5675   -6.2952  -10.3937 N   0  0  0  0  0  0  0  0  0  0  0  0
   18.5311   -6.3432  -11.7514 C   0  0  0  0  0  0  0  0  0  0  0  0
   18.5441   -5.0570  -11.7134 O   0  0  0  0  0  0  0  0  0  0  0  0
   14.8451  -12.9445  -14.0470 C   0  0  0  0  0  0  0  0  0  0  0  0
   22.1928   -7.1090  -12.3963 C   0  0  1  0  0  0  0  0  0  0  0  0
   21.0043   -6.2088  -12.2098 N   0  0  0  0  0  0  0  0  0  0  0  0
   19.7721   -6.9385  -12.0147 C   0  0  0  0  0  0  0  0  0  0  0  0
   20.8732   -5.3809  -13.4332 O   0  0  0  0  0  0  0  0  0  0  0  0
   20.0013   -5.6806  -14.2737 O   0  0  0  0  0  0  0  0  0  0  0  0
  1  2  1  0
  2  3  1  0
  3  4  2  0
  6  8  1  0
  6  5  1  0
  7  6  2  0
  9 10  1  0
  9  8  1  0
 10 11  1  0
 12 11  1  6
 12 14  1  0
 13  3  1  0
 13 12  1  0
 14 18  1  0
 14 15  2  0
 17 16  1  1
 17 19  1  0
 18 17  1  0
 19 21  1  0
 20 19  2  0
M  END
$$$$
