TQD.pdb
     RDKit          3D

 25 24  0  0  1  0  0  0  0  0999 V2000
   14.0956   -4.8428   -9.7842 C   0  0  0  0  0  0  0  0  0  0  0  0
   14.4977   -5.2184   -8.3952 C   0  0  1  0  0  0  0  0  0  0  0  0
   13.5515   -4.6590   -7.5204 O   0  0  0  0  0  0  0  0  0  0  0  0
   14.4114   -6.7169   -8.1804 C   0  0  2  0  0  0  0  0  0  0  0  0
   14.9322   -6.9088   -6.8015 N   0  0  0  0  0  0  0  0  0  0  0  0
   15.3475   -7.4623   -9.0490 C   0  0  0  0  0  0  0  0  0  0  0  0
   16.6070   -7.2407   -8.9683 O   0  0  0  0  0  0  0  0  0  0  0  0
   16.4135  -12.7896  -10.1622 N   0  0  0  0  0  0  0  0  0  0  0  0
   16.7874  -12.5027  -11.4994 C   0  0  0  0  0  0  0  0  0  0  0  0
   17.4768  -13.3049  -12.1553 O   0  0  0  0  0  0  0  0  0  0  0  0
   16.3398  -11.2166  -12.1138 C   0  0  0  0  0  0  0  0  0  0  0  0
   15.5550  -10.4632  -11.0906 C   0  0  0  0  0  0  0  0  0  0  0  0
   15.9737   -9.0087  -10.9340 C   0  0  2  0  0  0  0  0  0  0  0  0
   14.9934   -8.4442  -10.0048 N   0  0  0  0  0  0  0  0  0  0  0  0
   16.0862   -8.2795  -12.1909 C   0  0  0  0  0  0  0  0  0  0  0  0
   15.0781   -7.9632  -12.9007 O   0  0  0  0  0  0  0  0  0  0  0  0
   17.3621   -7.8885  -12.6740 N   0  0  0  0  0  0  0  0  0  0  0  0
   17.5143   -7.1746  -13.9365 C   0  0  1  0  0  0  0  0  0  0  0  0
   18.0091   -5.7727  -13.6764 C   0  0  0  0  0  0  0  0  0  0  0  0
   18.2287   -5.0188  -14.9336 C   0  0  0  0  0  0  0  0  0  0  0  0
   18.1198   -5.5400  -16.0721 O   0  0  0  0  0  0  0  0  0  0  0  0
   18.4959   -7.9120  -14.7757 C   0  0  0  0  0  0  0  0  0  0  0  0
   19.3901   -8.6412  -14.2762 O   0  0  0  0  0  0  0  0  0  0  0  0
   18.5681   -3.6825  -14.8329 O   0  0  0  0  0  0  0  0  0  0  0  0
   18.4573   -7.8186  -16.1594 O   0  0  0  0  0  0  0  0  0  0  0  0
  2  1  1  6
  3  2  1  0
  4  6  1  0
  4  2  1  0
  4  5  1  1
  6 14  1  0
  6  7  2  0
  9 10  2  0
  9  8  1  0
 11  9  1  0
 12 11  1  0
 13 12  1  6
 14 13  1  0
 15 17  1  0
 15 13  1  0
 16 15  2  0
 18 22  1  0
 18 17  1  0
 18 19  1  1
 19 20  1  0
 20 24  1  0
 21 20  2  0
 22 25  1  0
 23 22  2  0
M  END
$$$$
