TQD.pdb
     RDKit          3D

 25 24  0  0  1  0  0  0  0  0999 V2000
   23.1788  -12.9327  -20.0768 C   0  0  0  0  0  0  0  0  0  0  0  0
   22.1639  -11.9681  -19.5556 C   0  0  1  0  0  0  0  0  0  0  0  0
   20.9758  -12.6867  -19.3414 O   0  0  0  0  0  0  0  0  0  0  0  0
   22.5611  -11.4280  -18.1957 C   0  0  2  0  0  0  0  0  0  0  0  0
   22.4792  -12.6146  -17.3042 N   0  0  0  0  0  0  0  0  0  0  0  0
   21.5648  -10.4771  -17.6576 C   0  0  0  0  0  0  0  0  0  0  0  0
   21.4310   -9.3212  -18.1943 O   0  0  0  0  0  0  0  0  0  0  0  0
   16.9127  -12.0160  -14.1300 N   0  0  0  0  0  0  0  0  0  0  0  0
   16.7948  -12.0117  -15.5429 C   0  0  0  0  0  0  0  0  0  0  0  0
   15.9546  -12.7298  -16.1152 O   0  0  0  0  0  0  0  0  0  0  0  0
   17.6983  -11.1283  -16.3398 C   0  0  0  0  0  0  0  0  0  0  0  0
   18.6577  -10.4775  -15.3985 C   0  0  0  0  0  0  0  0  0  0  0  0
   19.7637   -9.6897  -16.0850 C   0  0  2  0  0  0  0  0  0  0  0  0
   20.6963  -10.7111  -16.5649 N   0  0  0  0  0  0  0  0  0  0  0  0
   20.3821   -8.6707  -15.2461 C   0  0  0  0  0  0  0  0  0  0  0  0
   21.3874   -8.9037  -14.5009 O   0  0  0  0  0  0  0  0  0  0  0  0
   19.8659   -7.3487  -15.2365 N   0  0  0  0  0  0  0  0  0  0  0  0
   20.4959   -6.2891  -14.4575 C   0  0  1  0  0  0  0  0  0  0  0  0
   21.9395   -6.1380  -14.8708 C   0  0  0  0  0  0  0  0  0  0  0  0
   22.5748   -4.9525  -14.2476 C   0  0  0  0  0  0  0  0  0  0  0  0
   22.5082   -4.7083  -13.0165 O   0  0  0  0  0  0  0  0  0  0  0  0
   19.7601   -5.0217  -14.7105 C   0  0  0  0  0  0  0  0  0  0  0  0
   19.9870   -3.9731  -14.0550 O   0  0  0  0  0  0  0  0  0  0  0  0
   23.2684   -4.0854  -15.0711 O   0  0  0  0  0  0  0  0  0  0  0  0
   18.7835   -4.9529  -15.6935 O   0  0  0  0  0  0  0  0  0  0  0  0
  2  1  1  1
  3  2  1  0
  4  6  1  0
  4  2  1  0
  4  5  1  1
  6 14  1  0
  6  7  2  0
  9 10  2  0
  9  8  1  0
 11  9  1  0
 12 11  1  0
 13 12  1  1
 14 13  1  0
 15 17  1  0
 15 13  1  0
 16 15  2  0
 18 22  1  0
 18 17  1  0
 18 19  1  6
 19 20  1  0
 20 24  1  0
 21 20  2  0
 22 25  1  0
 23 22  2  0
M  END
$$$$
