TQD.pdb
     RDKit          3D

 25 24  0  0  1  0  0  0  0  0999 V2000
   13.1322  -10.2475  -14.2340 C   0  0  0  0  0  0  0  0  0  0  0  0
   13.6306  -11.5237  -13.6380 C   0  0  1  0  0  0  0  0  0  0  0  0
   12.9405  -12.5750  -14.2643 O   0  0  0  0  0  0  0  0  0  0  0  0
   15.0944  -11.7509  -13.9615 C   0  0  2  0  0  0  0  0  0  0  0  0
   15.4449  -12.9693  -13.1858 N   0  0  0  0  0  0  0  0  0  0  0  0
   15.9614  -10.6864  -13.4123 C   0  0  0  0  0  0  0  0  0  0  0  0
   16.1054  -10.5714  -12.1442 O   0  0  0  0  0  0  0  0  0  0  0  0
   21.2230   -8.9214  -15.1975 N   0  0  0  0  0  0  0  0  0  0  0  0
   21.0826   -7.8821  -14.2433 C   0  0  0  0  0  0  0  0  0  0  0  0
   22.0474   -7.1540  -13.9464 O   0  0  0  0  0  0  0  0  0  0  0  0
   19.7530   -7.6718  -13.5955 C   0  0  0  0  0  0  0  0  0  0  0  0
   18.8094   -8.6977  -14.1316 C   0  0  0  0  0  0  0  0  0  0  0  0
   17.4141   -8.6338  -13.5281 C   0  0  2  0  0  0  0  0  0  0  0  0
   16.6894   -9.7346  -14.1654 N   0  0  0  0  0  0  0  0  0  0  0  0
   16.7615   -7.3377  -13.6649 C   0  0  0  0  0  0  0  0  0  0  0  0
   16.0973   -7.0023  -14.6976 O   0  0  0  0  0  0  0  0  0  0  0  0
   16.8498   -6.3835  -12.6180 N   0  0  0  0  0  0  0  0  0  0  0  0
   16.1904   -5.0861  -12.7103 C   0  0  1  0  0  0  0  0  0  0  0  0
   15.9237   -4.5468  -11.3262 C   0  0  0  0  0  0  0  0  0  0  0  0
   14.6392   -5.0406  -10.7754 C   0  0  0  0  0  0  0  0  0  0  0  0
   13.8454   -5.7615  -11.4312 O   0  0  0  0  0  0  0  0  0  0  0  0
   17.0846   -4.1585  -13.4530 C   0  0  0  0  0  0  0  0  0  0  0  0
   16.7313   -2.9926  -13.7639 O   0  0  0  0  0  0  0  0  0  0  0  0
   14.3135   -4.6836   -9.4803 O   0  0  0  0  0  0  0  0  0  0  0  0
   18.3586   -4.5547  -13.8336 O   0  0  0  0  0  0  0  0  0  0  0  0
  2  1  1  6
  3  2  1  0
  4  6  1  0
  4  2  1  0
  4  5  1  1
  6 14  1  0
  6  7  2  0
  9 10  2  0
  9  8  1  0
 11  9  1  0
 12 11  1  0
 13 12  1  6
 14 13  1  0
 15 17  1  0
 15 13  1  0
 16 15  2  0
 18 22  1  0
 18 17  1  0
 18 19  1  1
 19 20  1  0
 20 24  1  0
 21 20  2  0
 22 25  1  0
 23 22  2  0
M  END
$$$$
