TQD.pdb
     RDKit          3D

 25 24  0  0  1  0  0  0  0  0999 V2000
   27.1077  -10.4508  -15.5074 C   0  0  0  0  0  0  0  0  0  0  0  0
   26.9621  -11.1619  -16.8132 C   0  0  1  0  0  0  0  0  0  0  0  0
   27.9548  -12.1549  -16.8614 O   0  0  0  0  0  0  0  0  0  0  0  0
   25.6427  -11.9044  -16.8948 C   0  0  2  0  0  0  0  0  0  0  0  0
   25.6862  -12.5613  -18.2274 N   0  0  0  0  0  0  0  0  0  0  0  0
   24.4858  -10.9858  -16.9599 C   0  0  0  0  0  0  0  0  0  0  0  0
   24.2908  -10.2786  -18.0105 O   0  0  0  0  0  0  0  0  0  0  0  0
   18.9785  -11.1684  -14.3128 N   0  0  0  0  0  0  0  0  0  0  0  0
   19.3632  -11.8572  -15.4909 C   0  0  0  0  0  0  0  0  0  0  0  0
   18.6772  -12.7966  -15.9335 O   0  0  0  0  0  0  0  0  0  0  0  0
   20.6106  -11.4373  -16.1976 C   0  0  0  0  0  0  0  0  0  0  0  0
   21.2654  -10.3686  -15.3855 C   0  0  0  0  0  0  0  0  0  0  0  0
   22.4920   -9.7529  -16.0426 C   0  0  2  0  0  0  0  0  0  0  0  0
   23.5192  -10.7914  -15.9446 N   0  0  0  0  0  0  0  0  0  0  0  0
   22.8920   -8.4695  -15.4793 C   0  0  0  0  0  0  0  0  0  0  0  0
   23.7451   -8.3607  -14.5409 O   0  0  0  0  0  0  0  0  0  0  0  0
   22.3251   -7.2673  -15.9769 N   0  0  0  0  0  0  0  0  0  0  0  0
   22.8355   -5.9607  -15.5782 C   0  0  1  0  0  0  0  0  0  0  0  0
   22.8680   -5.0371  -16.7714 C   0  0  0  0  0  0  0  0  0  0  0  0
   23.2842   -3.6638  -16.3999 C   0  0  0  0  0  0  0  0  0  0  0  0
   22.4647   -2.7405  -16.1639 O   0  0  0  0  0  0  0  0  0  0  0  0
   21.9361   -5.4065  -14.5315 C   0  0  0  0  0  0  0  0  0  0  0  0
   22.3182   -4.5294  -13.7158 O   0  0  0  0  0  0  0  0  0  0  0  0
   24.6389   -3.4022  -16.3131 O   0  0  0  0  0  0  0  0  0  0  0  0
   20.6250   -5.8456  -14.4183 O   0  0  0  0  0  0  0  0  0  0  0  0
  2  1  1  1
  3  2  1  0
  4  6  1  0
  4  2  1  0
  4  5  1  6
  6 14  1  0
  6  7  2  0
  9 10  2  0
  9  8  1  0
 11  9  1  0
 12 11  1  0
 13 12  1  1
 14 13  1  0
 15 17  1  0
 15 13  1  0
 16 15  2  0
 18 22  1  0
 18 17  1  0
 18 19  1  6
 19 20  1  0
 20 24  1  0
 21 20  2  0
 22 25  1  0
 23 22  2  0
M  END
$$$$
