TQD.pdb
     RDKit          3D

 25 24  0  0  1  0  0  0  0  0999 V2000
   25.7570  -36.2401    0.5029 C   0  0  0  0  0  0  0  0  0  0  0  0
   26.4728  -35.6524   -0.6694 C   0  0  1  0  0  0  0  0  0  0  0  0
   25.6847  -35.8975   -1.8062 O   0  0  0  0  0  0  0  0  0  0  0  0
   26.5673  -34.1430   -0.5601 C   0  0  2  0  0  0  0  0  0  0  0  0
   27.2799  -33.7407   -1.8009 N   0  0  0  0  0  0  0  0  0  0  0  0
   27.4529  -33.7155    0.5442 C   0  0  0  0  0  0  0  0  0  0  0  0
   28.7213  -33.8633    0.4387 O   0  0  0  0  0  0  0  0  0  0  0  0
   26.0765  -29.6989    4.9915 N   0  0  0  0  0  0  0  0  0  0  0  0
   25.5426  -31.0018    5.1583 C   0  0  0  0  0  0  0  0  0  0  0  0
   24.6300  -31.2174    5.9767 O   0  0  0  0  0  0  0  0  0  0  0  0
   26.0938  -32.1187    4.3334 C   0  0  0  0  0  0  0  0  0  0  0  0
   27.2390  -31.5847    3.5373 C   0  0  0  0  0  0  0  0  0  0  0  0
   28.0004  -32.6454    2.7559 C   0  0  2  0  0  0  0  0  0  0  0  0
   27.0387  -33.1293    1.7639 N   0  0  0  0  0  0  0  0  0  0  0  0
   28.5787  -33.6977    3.5822 C   0  0  0  0  0  0  0  0  0  0  0  0
   27.9602  -34.7730    3.8674 O   0  0  0  0  0  0  0  0  0  0  0  0
   29.8886  -33.5494    4.1078 N   0  0  0  0  0  0  0  0  0  0  0  0
   30.5134  -34.5971    4.9070 C   0  0  1  0  0  0  0  0  0  0  0  0
   32.0104  -34.4062    4.9227 C   0  0  0  0  0  0  0  0  0  0  0  0
   32.6977  -35.4663    5.6979 C   0  0  0  0  0  0  0  0  0  0  0  0
   32.3313  -35.8205    6.8469 O   0  0  0  0  0  0  0  0  0  0  0  0
   29.9763  -34.5128    6.2912 C   0  0  0  0  0  0  0  0  0  0  0  0
   29.4792  -33.4547    6.7537 O   0  0  0  0  0  0  0  0  0  0  0  0
   33.7897  -36.0840    5.1175 O   0  0  0  0  0  0  0  0  0  0  0  0
   30.0063  -35.6162    7.1318 O   0  0  0  0  0  0  0  0  0  0  0  0
  2  1  1  1
  3  2  1  0
  4  6  1  0
  4  2  1  0
  4  5  1  6
  6 14  1  0
  6  7  2  0
  9 10  2  0
  9  8  1  0
 11  9  1  0
 12 11  1  0
 13 12  1  1
 14 13  1  0
 15 17  1  0
 15 13  1  0
 16 15  2  0
 18 22  1  0
 18 17  1  0
 18 19  1  1
 19 20  1  0
 20 24  1  0
 21 20  2  0
 22 25  1  0
 23 22  2  0
M  END
$$$$
