TQD.pdb
     RDKit          3D

 25 24  0  0  1  0  0  0  0  0999 V2000
   14.2956   -7.0412  -11.8198 C   0  0  0  0  0  0  0  0  0  0  0  0
   14.3833   -8.0877  -10.7572 C   0  0  1  0  0  0  0  0  0  0  0  0
   13.0748   -8.3460  -10.3159 O   0  0  0  0  0  0  0  0  0  0  0  0
   14.8889   -9.4032  -11.3165 C   0  0  2  0  0  0  0  0  0  0  0  0
   15.0586  -10.2592  -10.1133 N   0  0  0  0  0  0  0  0  0  0  0  0
   16.2451   -9.2825  -11.8932 C   0  0  0  0  0  0  0  0  0  0  0  0
   17.2638   -9.2119  -11.1192 O   0  0  0  0  0  0  0  0  0  0  0  0
   17.1040  -11.6963  -16.7849 N   0  0  0  0  0  0  0  0  0  0  0  0
   18.2589  -12.0623  -16.0483 C   0  0  0  0  0  0  0  0  0  0  0  0
   18.8021  -13.1686  -16.2215 O   0  0  0  0  0  0  0  0  0  0  0  0
   18.8180  -11.0960  -15.0556 C   0  0  0  0  0  0  0  0  0  0  0  0
   17.9592   -9.8743  -15.0645 C   0  0  0  0  0  0  0  0  0  0  0  0
   17.9426   -9.1171  -13.7447 C   0  0  2  0  0  0  0  0  0  0  0  0
   16.5624   -9.2374  -13.2717 N   0  0  0  0  0  0  0  0  0  0  0  0
   18.4191   -7.7428  -13.8370 C   0  0  0  0  0  0  0  0  0  0  0  0
   17.6600   -6.7650  -14.1335 O   0  0  0  0  0  0  0  0  0  0  0  0
   19.7849   -7.4461  -13.5905 N   0  0  0  0  0  0  0  0  0  0  0  0
   20.3062   -6.0900  -13.7169 C   0  0  1  0  0  0  0  0  0  0  0  0
   21.7100   -6.0269  -13.1663 C   0  0  0  0  0  0  0  0  0  0  0  0
   22.3245   -4.6924  -13.3629 C   0  0  0  0  0  0  0  0  0  0  0  0
   21.7684   -3.6235  -13.0053 O   0  0  0  0  0  0  0  0  0  0  0  0
   20.3091   -5.7222  -15.1579 C   0  0  0  0  0  0  0  0  0  0  0  0
   20.0875   -4.5484  -15.5501 O   0  0  0  0  0  0  0  0  0  0  0  0
   23.5660   -4.6374  -13.9685 O   0  0  0  0  0  0  0  0  0  0  0  0
   20.5604   -6.6768  -16.1327 O   0  0  0  0  0  0  0  0  0  0  0  0
  2  1  1  6
  3  2  1  0
  4  6  1  0
  4  2  1  0
  4  5  1  1
  6 14  1  0
  6  7  2  0
  9 10  2  0
  9  8  1  0
 11  9  1  0
 12 11  1  0
 13 12  1  6
 14 13  1  0
 15 17  1  0
 15 13  1  0
 16 15  2  0
 18 22  1  0
 18 17  1  0
 18 19  1  6
 19 20  1  0
 20 24  1  0
 21 20  2  0
 22 25  1  0
 23 22  2  0
M  END
$$$$
