VTW.pdb
     RDKit          3D

 29 30  0  0  1  0  0  0  0  0999 V2000
    6.6741  -13.4117   20.4794 C   0  0  0  0  0  0  0  0  0  0  0  0
    8.0382  -13.1508   19.8019 C   0  0  2  0  0  0  0  0  0  0  0  0
    7.7328  -12.1661   18.6978 C   0  0  0  0  0  0  0  0  0  0  0  0
    8.5225  -14.4806   19.3510 C   0  0  2  0  0  0  0  0  0  0  0  0
    7.6975  -14.8444   18.1908 N   0  0  0  0  0  0  0  0  0  0  0  0
    8.5450  -15.5541   20.3398 C   0  0  0  0  0  0  0  0  0  0  0  0
    7.4413  -16.1873   20.5186 O   0  0  0  0  0  0  0  0  0  0  0  0
    9.9021  -18.8599   20.5781 C   0  0  0  0  0  0  0  0  0  0  0  0
   10.3372  -18.1889   21.8638 C   0  0  1  0  0  0  0  0  0  0  0  0
   11.6659  -17.8696   21.7438 O   0  0  0  0  0  0  0  0  0  0  0  0
    9.4681  -16.9791   22.1521 C   0  0  2  0  0  0  0  0  0  0  0  0
    9.6430  -15.9807   21.1233 N   0  0  0  0  0  0  0  0  0  0  0  0
    9.7227  -16.5189   23.5182 C   0  0  0  0  0  0  0  0  0  0  0  0
   10.3801  -15.4459   23.6650 O   0  0  0  0  0  0  0  0  0  0  0  0
    9.3004  -17.1653   24.6976 N   0  0  0  0  0  0  0  0  0  0  0  0
    9.6681  -16.6664   26.0302 C   0  0  1  0  0  0  0  0  0  0  0  0
    8.4771  -16.6004   26.9344 C   0  0  0  0  0  0  0  0  0  0  0  0
    7.5323  -15.5829   26.4219 C   0  0  0  0  0  0  0  0  0  0  0  0
    6.3570  -15.8497   25.7168 C   0  0  0  0  0  0  0  0  0  0  0  0
    5.7599  -14.6832   25.4184 N   0  0  0  0  0  0  0  0  0  0  0  0
    6.4800  -13.6438   25.8906 C   0  0  0  0  0  0  0  0  0  0  0  0
    6.2859  -12.2828   25.8378 C   0  0  0  0  0  0  0  0  0  0  0  0
    7.2300  -11.4627   26.4309 C   0  0  0  0  0  0  0  0  0  0  0  0
    8.3233  -12.0246   27.0495 C   0  0  0  0  0  0  0  0  0  0  0  0
    8.5190  -13.3802   27.1036 C   0  0  0  0  0  0  0  0  0  0  0  0
    7.5844  -14.2185   26.5153 C   0  0  0  0  0  0  0  0  0  0  0  0
   10.7300  -17.5753   26.5842 C   0  0  0  0  0  0  0  0  0  0  0  0
   11.4531  -17.2305   27.7032 O   0  0  0  0  0  0  0  0  0  0  0  0
   10.9853  -18.6819   26.0338 O   0  0  0  0  0  0  0  0  0  0  0  0
  2  1  1  6
  2  3  1  0
  4  2  1  0
  4  5  1  6
  6  4  1  0
  7  6  2  0
  9 11  1  0
  9  8  1  6
 10  9  1  0
 11 12  1  6
 12  6  1  0
 13 15  1  0
 13 11  1  0
 14 13  2  0
 16 15  1  0
 16 17  1  1
 17 18  1  0
 18 26  1  0
 18 19  2  0
 19 20  1  0
 21 20  1  0
 21 22  2  0
 23 22  1  0
 24 23  2  0
 25 26  2  0
 25 24  1  0
 26 21  1  0
 27 28  1  0
 27 16  1  0
 29 27  2  0
M  END
$$$$
