VTW.pdb
     RDKit          3D

 29 30  0  0  1  0  0  0  0  0999 V2000
    3.8782  -18.6933   22.4235 C   0  0  0  0  0  0  0  0  0  0  0  0
    3.4130  -18.4923   20.9636 C   0  0  2  0  0  0  0  0  0  0  0  0
    2.0280  -19.0937   20.9191 C   0  0  0  0  0  0  0  0  0  0  0  0
    4.4291  -19.1744   20.1219 C   0  0  2  0  0  0  0  0  0  0  0  0
    4.1915  -20.6156   20.2814 N   0  0  0  0  0  0  0  0  0  0  0  0
    5.8295  -18.8406   20.3627 C   0  0  0  0  0  0  0  0  0  0  0  0
    6.4508  -19.5722   21.2171 O   0  0  0  0  0  0  0  0  0  0  0  0
    8.7034  -17.6767   17.8569 C   0  0  0  0  0  0  0  0  0  0  0  0
    8.7159  -16.8345   19.1151 C   0  0  1  0  0  0  0  0  0  0  0  0
    8.2244  -15.5940   18.7969 O   0  0  0  0  0  0  0  0  0  0  0  0
    7.9233  -17.5133   20.2165 C   0  0  2  0  0  0  0  0  0  0  0  0
    6.5841  -17.8056   19.7620 N   0  0  0  0  0  0  0  0  0  0  0  0
    8.0067  -16.7071   21.4356 C   0  0  0  0  0  0  0  0  0  0  0  0
    7.0667  -15.8898   21.6662 O   0  0  0  0  0  0  0  0  0  0  0  0
    9.0465  -16.7559   22.3862 N   0  0  0  0  0  0  0  0  0  0  0  0
    9.0405  -15.9084   23.5869 C   0  0  1  0  0  0  0  0  0  0  0  0
    7.8661  -16.2141   24.4630 C   0  0  0  0  0  0  0  0  0  0  0  0
    7.9090  -15.3410   25.6574 C   0  0  0  0  0  0  0  0  0  0  0  0
    8.3510  -15.7230   26.9255 C   0  0  0  0  0  0  0  0  0  0  0  0
    8.2468  -14.6691   27.7531 N   0  0  0  0  0  0  0  0  0  0  0  0
    7.7549  -13.5955   27.0993 C   0  0  0  0  0  0  0  0  0  0  0  0
    7.4727  -12.3123   27.5070 C   0  0  0  0  0  0  0  0  0  0  0  0
    6.9640  -11.4253   26.5743 C   0  0  0  0  0  0  0  0  0  0  0  0
    6.7572  -11.8464   25.2806 C   0  0  0  0  0  0  0  0  0  0  0  0
    7.0376  -13.1244   24.8718 C   0  0  0  0  0  0  0  0  0  0  0  0
    7.5480  -14.0278   25.7914 C   0  0  0  0  0  0  0  0  0  0  0  0
   10.3395  -16.1287   24.3112 C   0  0  0  0  0  0  0  0  0  0  0  0
   11.0003  -15.0896   24.9257 O   0  0  0  0  0  0  0  0  0  0  0  0
   10.8582  -17.2777   24.3737 O   0  0  0  0  0  0  0  0  0  0  0  0
  2  1  1  1
  2  3  1  0
  4  2  1  0
  4  5  1  1
  6  4  1  0
  7  6  2  0
  9 11  1  0
  9  8  1  6
 10  9  1  0
 11 12  1  6
 12  6  1  0
 13 15  1  0
 13 11  1  0
 14 13  2  0
 16 15  1  0
 16 17  1  1
 17 18  1  0
 18 26  1  0
 18 19  2  0
 19 20  1  0
 21 20  1  0
 21 22  2  0
 23 22  1  0
 24 23  2  0
 25 26  2  0
 25 24  1  0
 26 21  1  0
 27 28  1  0
 27 16  1  0
 29 27  2  0
M  END
$$$$
