VTW.pdb
     RDKit          3D

 29 30  0  0  1  0  0  0  0  0999 V2000
    7.2573  -12.8229   20.5205 C   0  0  0  0  0  0  0  0  0  0  0  0
    8.4990  -13.0822   19.6379 C   0  0  2  0  0  0  0  0  0  0  0  0
    8.3156  -12.1723   18.4461 C   0  0  0  0  0  0  0  0  0  0  0  0
    8.4793  -14.5363   19.3358 C   0  0  2  0  0  0  0  0  0  0  0  0
    7.3750  -14.7422   18.3885 N   0  0  0  0  0  0  0  0  0  0  0  0
    8.3812  -15.4527   20.4677 C   0  0  0  0  0  0  0  0  0  0  0  0
    7.2068  -15.6285   20.9584 O   0  0  0  0  0  0  0  0  0  0  0  0
    8.7841  -19.0118   20.8684 C   0  0  0  0  0  0  0  0  0  0  0  0
    9.5929  -18.4181   22.0023 C   0  0  1  0  0  0  0  0  0  0  0  0
   10.9209  -18.5352   21.6792 O   0  0  0  0  0  0  0  0  0  0  0  0
    9.1767  -16.9812   22.2560 C   0  0  2  0  0  0  0  0  0  0  0  0
    9.4301  -16.1728   21.0864 N   0  0  0  0  0  0  0  0  0  0  0  0
    9.8072  -16.5088   23.4899 C   0  0  0  0  0  0  0  0  0  0  0  0
   10.8468  -15.7928   23.3829 O   0  0  0  0  0  0  0  0  0  0  0  0
    9.3608  -16.7797   24.7993 N   0  0  0  0  0  0  0  0  0  0  0  0
   10.2099  -16.5376   25.9742 C   0  0  1  0  0  0  0  0  0  0  0  0
    9.8894  -15.2239   26.6159 C   0  0  0  0  0  0  0  0  0  0  0  0
    8.4806  -14.8724   26.3289 C   0  0  0  0  0  0  0  0  0  0  0  0
    7.4574  -15.7822   26.0554 C   0  0  0  0  0  0  0  0  0  0  0  0
    6.3185  -15.0993   25.8476 N   0  0  0  0  0  0  0  0  0  0  0  0
    6.5291  -13.7716   25.9690 C   0  0  0  0  0  0  0  0  0  0  0  0
    5.6920  -12.6865   25.8488 C   0  0  0  0  0  0  0  0  0  0  0  0
    6.2258  -11.4232   26.0354 C   0  0  0  0  0  0  0  0  0  0  0  0
    7.5628  -11.2893   26.3326 C   0  0  0  0  0  0  0  0  0  0  0  0
    8.3989  -12.3688   26.4530 C   0  0  0  0  0  0  0  0  0  0  0  0
    7.8831  -13.6427   26.2696 C   0  0  0  0  0  0  0  0  0  0  0  0
   10.0086  -17.6807   26.9299 C   0  0  0  0  0  0  0  0  0  0  0  0
   10.7826  -17.8120   28.0602 O   0  0  0  0  0  0  0  0  0  0  0  0
    9.1204  -18.5520   26.7179 O   0  0  0  0  0  0  0  0  0  0  0  0
  2  1  1  1
  2  3  1  0
  4  2  1  0
  4  5  1  6
  6  4  1  0
  7  6  2  0
  9 11  1  0
  9  8  1  6
 10  9  1  0
 11 12  1  6
 12  6  1  0
 13 15  1  0
 13 11  1  0
 14 13  2  0
 16 15  1  0
 16 17  1  1
 17 18  1  0
 18 26  1  0
 18 19  2  0
 19 20  1  0
 21 20  1  0
 21 22  2  0
 23 22  1  0
 24 23  2  0
 25 26  2  0
 25 24  1  0
 26 21  1  0
 27 28  1  0
 27 16  1  0
 29 27  2  0
M  END
$$$$
