VTW.pdb
     RDKit          3D

 29 30  0  0  1  0  0  0  0  0999 V2000
    8.3349  -12.4343   17.9182 C   0  0  0  0  0  0  0  0  0  0  0  0
    8.1179  -13.1509   19.2700 C   0  0  2  0  0  0  0  0  0  0  0  0
    9.0289  -12.4285   20.2344 C   0  0  0  0  0  0  0  0  0  0  0  0
    8.4538  -14.5770   19.0260 C   0  0  2  0  0  0  0  0  0  0  0  0
    7.5509  -15.0331   17.9603 N   0  0  0  0  0  0  0  0  0  0  0  0
    8.4139  -15.4787   20.1732 C   0  0  0  0  0  0  0  0  0  0  0  0
    7.2479  -15.7776   20.6227 O   0  0  0  0  0  0  0  0  0  0  0  0
    8.9116  -18.9528   20.6421 C   0  0  0  0  0  0  0  0  0  0  0  0
    9.7681  -18.3189   21.7177 C   0  0  1  0  0  0  0  0  0  0  0  0
   11.0742  -18.3713   21.3019 O   0  0  0  0  0  0  0  0  0  0  0  0
    9.3011  -16.9038   22.0033 C   0  0  2  0  0  0  0  0  0  0  0  0
    9.5113  -16.0645   20.8470 N   0  0  0  0  0  0  0  0  0  0  0  0
    9.9267  -16.4313   23.2395 C   0  0  0  0  0  0  0  0  0  0  0  0
   10.9602  -15.7061   23.1364 O   0  0  0  0  0  0  0  0  0  0  0  0
    9.4816  -16.7115   24.5475 N   0  0  0  0  0  0  0  0  0  0  0  0
   10.2544  -16.3126   25.7322 C   0  0  1  0  0  0  0  0  0  0  0  0
    9.8978  -14.9275   26.1737 C   0  0  0  0  0  0  0  0  0  0  0  0
    8.4260  -14.7727   26.1505 C   0  0  0  0  0  0  0  0  0  0  0  0
    7.5049  -15.8050   25.9624 C   0  0  0  0  0  0  0  0  0  0  0  0
    6.2649  -15.2883   26.0042 N   0  0  0  0  0  0  0  0  0  0  0  0
    6.3100  -13.9553   26.2118 C   0  0  0  0  0  0  0  0  0  0  0  0
    5.3245  -13.0024   26.3282 C   0  0  0  0  0  0  0  0  0  0  0  0
    5.7049  -11.6890   26.5421 C   0  0  0  0  0  0  0  0  0  0  0  0
    7.0421  -11.3765   26.6314 C   0  0  0  0  0  0  0  0  0  0  0  0
    8.0259  -12.3240   26.5160 C   0  0  0  0  0  0  0  0  0  0  0  0
    7.6650  -13.6454   26.3015 C   0  0  0  0  0  0  0  0  0  0  0  0
    9.9885  -17.3210   26.8152 C   0  0  0  0  0  0  0  0  0  0  0  0
   10.6260  -17.2472   28.0326 O   0  0  0  0  0  0  0  0  0  0  0  0
    9.1702  -18.2645   26.6333 O   0  0  0  0  0  0  0  0  0  0  0  0
  2  1  1  6
  2  3  1  0
  4  2  1  0
  4  5  1  6
  6  4  1  0
  7  6  2  0
  9 11  1  0
  9  8  1  6
 10  9  1  0
 11 12  1  6
 12  6  1  0
 13 15  1  0
 13 11  1  0
 14 13  2  0
 16 15  1  0
 16 17  1  1
 17 18  1  0
 18 26  1  0
 18 19  2  0
 19 20  1  0
 21 20  1  0
 21 22  2  0
 23 22  1  0
 24 23  2  0
 25 26  2  0
 25 24  1  0
 26 21  1  0
 27 28  1  0
 27 16  1  0
 29 27  2  0
M  END
$$$$
