VTW.pdb
     RDKit          3D

 29 30  0  0  1  0  0  0  0  0999 V2000
    7.5098  -12.8331   20.2273 C   0  0  0  0  0  0  0  0  0  0  0  0
    8.7825  -13.1220   19.3998 C   0  0  2  0  0  0  0  0  0  0  0  0
    8.6860  -12.1899   18.2149 C   0  0  0  0  0  0  0  0  0  0  0  0
    8.7290  -14.5703   19.0747 C   0  0  2  0  0  0  0  0  0  0  0  0
    7.6258  -14.7341   18.1180 N   0  0  0  0  0  0  0  0  0  0  0  0
    8.6016  -15.5016   20.1914 C   0  0  0  0  0  0  0  0  0  0  0  0
    7.4108  -15.7092   20.6272 O   0  0  0  0  0  0  0  0  0  0  0  0
    9.0044  -19.0706   20.6348 C   0  0  0  0  0  0  0  0  0  0  0  0
    9.8002  -18.4507   21.7639 C   0  0  1  0  0  0  0  0  0  0  0  0
   11.1304  -18.5422   21.4417 O   0  0  0  0  0  0  0  0  0  0  0  0
    9.3535  -17.0210   22.0061 C   0  0  2  0  0  0  0  0  0  0  0  0
    9.6380  -16.2051   20.8490 N   0  0  0  0  0  0  0  0  0  0  0  0
    9.9308  -16.5436   23.2638 C   0  0  0  0  0  0  0  0  0  0  0  0
   10.9371  -15.7771   23.1961 O   0  0  0  0  0  0  0  0  0  0  0  0
    9.4664  -16.8610   24.5564 N   0  0  0  0  0  0  0  0  0  0  0  0
   10.2417  -16.5341   25.7614 C   0  0  1  0  0  0  0  0  0  0  0  0
    9.9296  -15.1548   26.2519 C   0  0  0  0  0  0  0  0  0  0  0  0
    8.4629  -14.9559   26.2454 C   0  0  0  0  0  0  0  0  0  0  0  0
    7.5089  -15.9617   26.0795 C   0  0  0  0  0  0  0  0  0  0  0  0
    6.2855  -15.4074   26.1314 N   0  0  0  0  0  0  0  0  0  0  0  0
    6.3733  -14.0744   26.3247 C   0  0  0  0  0  0  0  0  0  0  0  0
    5.4185  -13.0911   26.4436 C   0  0  0  0  0  0  0  0  0  0  0  0
    5.8410  -11.7877   26.6392 C   0  0  0  0  0  0  0  0  0  0  0  0
    7.1880  -11.5148   26.7087 C   0  0  0  0  0  0  0  0  0  0  0  0
    8.1413  -12.4927   26.5907 C   0  0  0  0  0  0  0  0  0  0  0  0
    7.7381  -13.8047   26.3943 C   0  0  0  0  0  0  0  0  0  0  0  0
    9.9308  -17.5723   26.8035 C   0  0  0  0  0  0  0  0  0  0  0  0
   10.6139  -17.6134   27.9975 O   0  0  0  0  0  0  0  0  0  0  0  0
    9.0313  -18.4358   26.6077 O   0  0  0  0  0  0  0  0  0  0  0  0
  2  1  1  1
  2  3  1  0
  4  2  1  0
  4  5  1  6
  6  4  1  0
  7  6  2  0
  9 11  1  0
  9  8  1  6
 10  9  1  0
 11 12  1  6
 12  6  1  0
 13 15  1  0
 13 11  1  0
 14 13  2  0
 16 15  1  0
 16 17  1  1
 17 18  1  0
 18 26  1  0
 18 19  2  0
 19 20  1  0
 21 20  1  0
 21 22  2  0
 23 22  1  0
 24 23  2  0
 25 26  2  0
 25 24  1  0
 26 21  1  0
 27 28  1  0
 27 16  1  0
 29 27  2  0
M  END
$$$$
