VTW.pdb
     RDKit          3D

 29 30  0  0  1  0  0  0  0  0999 V2000
    7.0822  -12.9881   20.2738 C   0  0  0  0  0  0  0  0  0  0  0  0
    8.4498  -13.0491   19.5569 C   0  0  2  0  0  0  0  0  0  0  0  0
    8.2972  -12.1311   18.3670 C   0  0  0  0  0  0  0  0  0  0  0  0
    8.6675  -14.4816   19.2302 C   0  0  2  0  0  0  0  0  0  0  0  0
    7.7354  -14.7984   18.1394 N   0  0  0  0  0  0  0  0  0  0  0  0
    8.5469  -15.4420   20.3229 C   0  0  0  0  0  0  0  0  0  0  0  0
    7.3559  -15.8246   20.6163 O   0  0  0  0  0  0  0  0  0  0  0  0
    9.1366  -18.8872   20.6625 C   0  0  0  0  0  0  0  0  0  0  0  0
    9.8451  -18.2952   21.8625 C   0  0  1  0  0  0  0  0  0  0  0  0
   11.1901  -18.2815   21.5934 O   0  0  0  0  0  0  0  0  0  0  0  0
    9.2968  -16.9156   22.1758 C   0  0  2  0  0  0  0  0  0  0  0  0
    9.5907  -16.0032   21.0956 N   0  0  0  0  0  0  0  0  0  0  0  0
    9.7747  -16.4964   23.4945 C   0  0  0  0  0  0  0  0  0  0  0  0
   10.6959  -15.6279   23.5380 O   0  0  0  0  0  0  0  0  0  0  0  0
    9.3004  -16.9744   24.7330 N   0  0  0  0  0  0  0  0  0  0  0  0
    9.8717  -16.5224   26.0093 C   0  0  1  0  0  0  0  0  0  0  0  0
    8.8247  -16.4409   27.0759 C   0  0  0  0  0  0  0  0  0  0  0  0
    7.7254  -15.5644   26.6133 C   0  0  0  0  0  0  0  0  0  0  0  0
    6.5317  -15.9984   26.0333 C   0  0  0  0  0  0  0  0  0  0  0  0
    5.7778  -14.9237   25.7448 N   0  0  0  0  0  0  0  0  0  0  0  0
    6.4100  -13.7867   26.1044 C   0  0  0  0  0  0  0  0  0  0  0  0
    6.0538  -12.4609   26.0144 C   0  0  0  0  0  0  0  0  0  0  0  0
    6.9440  -11.5099   26.4820 C   0  0  0  0  0  0  0  0  0  0  0  0
    8.1462  -11.9120   27.0176 C   0  0  0  0  0  0  0  0  0  0  0  0
    8.5035  -13.2322   27.1085 C   0  0  0  0  0  0  0  0  0  0  0  0
    7.6252  -14.2000   26.6454 C   0  0  0  0  0  0  0  0  0  0  0  0
   10.9682  -17.4795   26.3865 C   0  0  0  0  0  0  0  0  0  0  0  0
   11.8821  -17.1686   27.3675 O   0  0  0  0  0  0  0  0  0  0  0  0
   11.0779  -18.5968   25.8099 O   0  0  0  0  0  0  0  0  0  0  0  0
  2  1  1  1
  2  3  1  0
  4  2  1  0
  4  5  1  6
  6  4  1  0
  7  6  2  0
  9 11  1  0
  9  8  1  6
 10  9  1  0
 11 12  1  6
 12  6  1  0
 13 15  1  0
 13 11  1  0
 14 13  2  0
 16 15  1  0
 16 17  1  1
 17 18  1  0
 18 26  1  0
 18 19  2  0
 19 20  1  0
 21 20  1  0
 21 22  2  0
 23 22  1  0
 24 23  2  0
 25 26  2  0
 25 24  1  0
 26 21  1  0
 27 28  1  0
 27 16  1  0
 29 27  2  0
M  END
$$$$
