VTW.pdb
     RDKit          3D

 29 30  0  0  1  0  0  0  0  0999 V2000
    8.1231  -12.5655   18.1475 C   0  0  0  0  0  0  0  0  0  0  0  0
    7.8378  -13.4111   19.4091 C   0  0  2  0  0  0  0  0  0  0  0  0
    8.5760  -12.7001   20.5188 C   0  0  0  0  0  0  0  0  0  0  0  0
    8.3270  -14.7777   19.0946 C   0  0  2  0  0  0  0  0  0  0  0  0
    7.5228  -15.2485   17.9585 N   0  0  0  0  0  0  0  0  0  0  0  0
    8.3283  -15.7534   20.1803 C   0  0  0  0  0  0  0  0  0  0  0  0
    7.1798  -16.0759   20.6579 O   0  0  0  0  0  0  0  0  0  0  0  0
    9.1215  -19.3071   20.6651 C   0  0  0  0  0  0  0  0  0  0  0  0
    9.8859  -18.5697   21.7441 C   0  0  1  0  0  0  0  0  0  0  0  0
   11.2063  -18.5321   21.3744 O   0  0  0  0  0  0  0  0  0  0  0  0
    9.2990  -17.1872   21.9604 C   0  0  2  0  0  0  0  0  0  0  0  0
    9.4484  -16.3879   20.7669 N   0  0  0  0  0  0  0  0  0  0  0  0
    9.8716  -16.6067   23.1762 C   0  0  0  0  0  0  0  0  0  0  0  0
   10.8591  -15.8239   23.0461 O   0  0  0  0  0  0  0  0  0  0  0  0
    9.4219  -16.8405   24.4916 N   0  0  0  0  0  0  0  0  0  0  0  0
   10.1660  -16.3573   25.6633 C   0  0  1  0  0  0  0  0  0  0  0  0
    9.8829  -14.9119   25.9297 C   0  0  0  0  0  0  0  0  0  0  0  0
    8.4195  -14.7117   26.0248 C   0  0  0  0  0  0  0  0  0  0  0  0
    7.4549  -15.7152   25.9147 C   0  0  0  0  0  0  0  0  0  0  0  0
    6.2387  -15.1604   26.0548 N   0  0  0  0  0  0  0  0  0  0  0  0
    6.3414  -13.8293   26.2541 C   0  0  0  0  0  0  0  0  0  0  0  0
    5.3983  -12.8464   26.4467 C   0  0  0  0  0  0  0  0  0  0  0  0
    5.8349  -11.5452   26.6252 C   0  0  0  0  0  0  0  0  0  0  0  0
    7.1839  -11.2741   26.6056 C   0  0  0  0  0  0  0  0  0  0  0  0
    8.1256  -12.2516   26.4140 C   0  0  0  0  0  0  0  0  0  0  0  0
    7.7081  -13.5613   26.2333 C   0  0  0  0  0  0  0  0  0  0  0  0
    9.7856  -17.2179   26.8361 C   0  0  0  0  0  0  0  0  0  0  0  0
   10.3741  -17.0472   28.0684 O   0  0  0  0  0  0  0  0  0  0  0  0
    8.9132  -18.1223   26.7184 O   0  0  0  0  0  0  0  0  0  0  0  0
  2  1  1  6
  2  3  1  0
  4  2  1  0
  4  5  1  6
  6  4  1  0
  7  6  2  0
  9 11  1  0
  9  8  1  6
 10  9  1  0
 11 12  1  6
 12  6  1  0
 13 15  1  0
 13 11  1  0
 14 13  2  0
 16 15  1  0
 16 17  1  1
 17 18  1  0
 18 26  1  0
 18 19  2  0
 19 20  1  0
 21 20  1  0
 21 22  2  0
 23 22  1  0
 24 23  2  0
 25 26  2  0
 25 24  1  0
 26 21  1  0
 27 28  1  0
 27 16  1  0
 29 27  2  0
M  END
$$$$
