RNL.pdb
     RDKit          3D

 28 27  0  0  1  0  0  0  0  0999 V2000
    7.1134  -14.2656   14.3013 N   0  0  0  0  0  0  0  0  0  0  0  0
    8.4357  -14.1049   14.8178 C   0  0  0  0  0  0  0  0  0  0  0  0
    9.3968  -13.8198   14.0100 N   0  0  0  0  0  0  0  0  0  0  0  0
    8.7283  -14.2492   16.1926 N   0  0  0  0  0  0  0  0  0  0  0  0
    7.6649  -14.5084   17.1788 C   0  0  0  0  0  0  0  0  0  0  0  0
    7.7017  -13.3756   18.1673 C   0  0  0  0  0  0  0  0  0  0  0  0
    7.6439  -13.7546   19.5976 C   0  0  0  0  0  0  0  0  0  0  0  0
    8.9357  -14.0049   20.2921 C   0  0  2  0  0  0  0  0  0  0  0  0
    9.8017  -14.7825   19.4341 N   0  0  0  0  0  0  0  0  0  0  0  0
    8.7517  -14.6710   21.6155 C   0  0  0  0  0  0  0  0  0  0  0  0
    7.8161  -14.2514   22.3398 O   0  0  0  0  0  0  0  0  0  0  0  0
   10.3852  -13.7633   14.3273 N   0  0  0  0  0  0  0  0  0  0  0  0
   10.7171  -19.0093   21.2088 C   0  0  0  0  0  0  0  0  0  0  0  0
    9.7231  -18.6048   22.1098 O   0  0  0  0  0  0  0  0  0  0  0  0
    8.5375  -18.9797   21.8476 C   0  0  0  0  0  0  0  0  0  0  0  0
    9.9390  -17.7972   23.3102 C   0  0  2  0  0  0  0  0  0  0  0  0
    9.2900  -16.4433   23.2592 N   0  0  0  0  0  0  0  0  0  0  0  0
    9.5881  -15.7347   22.0541 C   0  0  0  0  0  0  0  0  0  0  0  0
    9.5688  -15.6449   24.4828 O   0  0  0  0  0  0  0  0  0  0  0  0
   10.7294  -15.2342   24.7358 C   0  0  0  0  0  0  0  0  0  0  0  0
    5.9738  -11.9377   26.4257 C   0  0  1  0  0  0  0  0  0  0  0  0
    7.2136  -12.7130   26.0625 C   0  0  0  0  0  0  0  0  0  0  0  0
    8.2680  -11.7714   25.5341 C   0  0  0  0  0  0  0  0  0  0  0  0
    7.6752  -13.6905   27.0494 C   0  0  2  0  0  0  0  0  0  0  0  0
    8.7674  -14.6343   26.6783 N   0  0  0  0  0  0  0  0  0  0  0  0
    8.5652  -15.3086   25.4128 C   0  0  0  0  0  0  0  0  0  0  0  0
    9.2718  -15.4831   27.7467 O   0  0  0  0  0  0  0  0  0  0  0  0
    9.8688  -15.0756   28.9304 O   0  0  0  0  0  0  0  0  0  0  0  0
  1  2  1  0
  2  4  1  0
  3  2  2  0
  4  5  1  0
  5  6  1  0
  7  6  1  0
  8  9  1  6
  8  7  1  0
 10  8  1  0
 10 11  2  0
 13 12  1  0
 13 15  1  0
 14 13  2  0
 16 15  1  6
 16 17  1  0
 16 18  1  0
 17 10  1  0
 18 25  1  0
 19 18  2  0
 21 20  1  6
 21 23  1  0
 22 21  1  0
 24 23  1  6
 24 26  1  0
 25 24  1  0
 26 28  2  0
 26 27  1  0
M  END
$$$$
