RNL.pdb
     RDKit          3D

 28 27  0  0  1  0  0  0  0  0999 V2000
    8.1239  -12.4172   17.5693 N   0  0  0  0  0  0  0  0  0  0  0  0
    7.9930  -13.4186   16.5587 C   0  0  0  0  0  0  0  0  0  0  0  0
    7.7567  -13.0607   15.3448 N   0  0  0  0  0  0  0  0  0  0  0  0
    8.1142  -14.7967   16.8459 N   0  0  0  0  0  0  0  0  0  0  0  0
    8.3081  -15.2774   18.2250 C   0  0  0  0  0  0  0  0  0  0  0  0
    6.9603  -15.2452   18.8913 C   0  0  0  0  0  0  0  0  0  0  0  0
    6.9211  -15.6769   20.3073 C   0  0  0  0  0  0  0  0  0  0  0  0
    7.3625  -17.0647   20.6123 C   0  0  2  0  0  0  0  0  0  0  0  0
    6.2509  -17.9731   20.4400 N   0  0  0  0  0  0  0  0  0  0  0  0
    7.9506  -17.1884   21.9789 C   0  0  0  0  0  0  0  0  0  0  0  0
    7.1483  -17.3264   22.9345 O   0  0  0  0  0  0  0  0  0  0  0  0
    7.6891  -13.7506   14.5699 N   0  0  0  0  0  0  0  0  0  0  0  0
   12.1221  -19.4498   21.7888 C   0  0  0  0  0  0  0  0  0  0  0  0
   11.3566  -19.1576   22.9253 O   0  0  0  0  0  0  0  0  0  0  0  0
   10.6995  -20.1231   23.4265 C   0  0  0  0  0  0  0  0  0  0  0  0
   11.2554  -17.8489   23.5710 C   0  0  2  0  0  0  0  0  0  0  0  0
    9.8753  -17.2566   23.5357 N   0  0  0  0  0  0  0  0  0  0  0  0
    9.3539  -17.1536   22.2087 C   0  0  0  0  0  0  0  0  0  0  0  0
    9.7991  -15.9754   24.2873 O   0  0  0  0  0  0  0  0  0  0  0  0
   10.3933  -14.9477   23.8744 C   0  0  0  0  0  0  0  0  0  0  0  0
    8.7914  -11.4379   26.5621 C   0  0  2  0  0  0  0  0  0  0  0  0
    7.7230  -12.4887   26.7182 C   0  0  0  0  0  0  0  0  0  0  0  0
    6.3596  -11.8492   26.6204 C   0  0  0  0  0  0  0  0  0  0  0  0
    7.9047  -13.7139   25.9382 C   0  0  1  0  0  0  0  0  0  0  0  0
    8.9980  -14.6555   26.3121 N   0  0  0  0  0  0  0  0  0  0  0  0
    9.0688  -15.8419   25.4848 C   0  0  0  0  0  0  0  0  0  0  0  0
    9.1795  -14.8942   27.7357 O   0  0  0  0  0  0  0  0  0  0  0  0
    9.8769  -14.1029   28.6362 O   0  0  0  0  0  0  0  0  0  0  0  0
  1  2  1  0
  2  4  1  0
  3  2  2  0
  4  5  1  0
  5  6  1  0
  7  6  1  0
  8  9  1  1
  8  7  1  0
 10  8  1  0
 10 11  2  0
 13 12  1  0
 13 15  1  0
 14 13  2  0
 16 15  1  1
 16 17  1  0
 16 18  1  0
 17 10  1  0
 18 25  1  0
 19 18  2  0
 21 20  1  1
 21 23  1  0
 22 21  1  0
 24 23  1  6
 24 26  1  0
 25 24  1  0
 26 28  2  0
 26 27  1  0
M  END
$$$$
