RNL.pdb
     RDKit          3D

 28 27  0  0  1  0  0  0  0  0999 V2000
    8.7696  -14.9078   15.8517 N   0  0  0  0  0  0  0  0  0  0  0  0
    8.2774  -13.7193   16.4735 C   0  0  0  0  0  0  0  0  0  0  0  0
    7.9529  -12.7128   15.7392 N   0  0  0  0  0  0  0  0  0  0  0  0
    8.1333  -13.6085   17.8746 N   0  0  0  0  0  0  0  0  0  0  0  0
    7.9374  -14.7984   18.7209 C   0  0  0  0  0  0  0  0  0  0  0  0
    6.9421  -14.4192   19.7826 C   0  0  0  0  0  0  0  0  0  0  0  0
    6.5892  -15.4783   20.7555 C   0  0  0  0  0  0  0  0  0  0  0  0
    7.3234  -16.7689   20.6587 C   0  0  2  0  0  0  0  0  0  0  0  0
    6.3800  -17.8466   20.4607 N   0  0  0  0  0  0  0  0  0  0  0  0
    8.1879  -17.0235   21.8489 C   0  0  0  0  0  0  0  0  0  0  0  0
    7.6131  -17.3892   22.9033 O   0  0  0  0  0  0  0  0  0  0  0  0
    7.6519  -11.8059   16.1489 N   0  0  0  0  0  0  0  0  0  0  0  0
   12.1267  -19.5182   21.9964 C   0  0  0  0  0  0  0  0  0  0  0  0
   12.1549  -18.1369   21.7629 O   0  0  0  0  0  0  0  0  0  0  0  0
   12.4821  -17.7694   20.5912 C   0  0  0  0  0  0  0  0  0  0  0  0
   11.8420  -17.1002   22.7463 C   0  0  2  0  0  0  0  0  0  0  0  0
   10.3727  -16.9345   23.0114 N   0  0  0  0  0  0  0  0  0  0  0  0
    9.6008  -16.8643   21.8102 C   0  0  0  0  0  0  0  0  0  0  0  0
   10.0976  -15.8070   23.9415 O   0  0  0  0  0  0  0  0  0  0  0  0
   10.7314  -14.7253   23.8510 C   0  0  0  0  0  0  0  0  0  0  0  0
    8.2446  -11.7677   26.6677 C   0  0  2  0  0  0  0  0  0  0  0  0
    7.2781  -12.9070   26.4727 C   0  0  0  0  0  0  0  0  0  0  0  0
    5.8869  -12.3646   26.2539 C   0  0  0  0  0  0  0  0  0  0  0  0
    7.7000  -13.9592   25.5469 C   0  0  1  0  0  0  0  0  0  0  0  0
    8.8278  -14.8542   25.9324 N   0  0  0  0  0  0  0  0  0  0  0  0
    9.1273  -15.8848   24.9601 C   0  0  0  0  0  0  0  0  0  0  0  0
    8.8485  -15.2992   27.3173 O   0  0  0  0  0  0  0  0  0  0  0  0
    8.7767  -16.6049   27.7796 O   0  0  0  0  0  0  0  0  0  0  0  0
  1  2  1  0
  2  4  1  0
  3  2  2  0
  4  5  1  0
  5  6  1  0
  7  6  1  0
  8  9  1  1
  8  7  1  0
 10  8  1  0
 10 11  2  0
 13 12  1  0
 13 15  1  0
 14 13  2  0
 16 15  1  1
 16 17  1  0
 16 18  1  0
 17 10  1  0
 18 25  1  0
 19 18  2  0
 21 20  1  1
 21 23  1  0
 22 21  1  0
 24 23  1  6
 24 26  1  0
 25 24  1  0
 26 28  2  0
 26 27  1  0
M  END
$$$$
