RNL.pdb
     RDKit          3D

 28 27  0  0  1  0  0  0  0  0999 V2000
    7.5601  -12.8570   18.2901 N   0  0  0  0  0  0  0  0  0  0  0  0
    7.5400  -12.3980   19.6430 C   0  0  0  0  0  0  0  0  0  0  0  0
    8.1223  -11.2888   19.9401 N   0  0  0  0  0  0  0  0  0  0  0  0
    6.9001  -13.1229   20.6732 N   0  0  0  0  0  0  0  0  0  0  0  0
    6.2146  -14.3981   20.4004 C   0  0  0  0  0  0  0  0  0  0  0  0
    7.2602  -15.3573   19.9024 C   0  0  0  0  0  0  0  0  0  0  0  0
    8.1945  -15.8913   20.9196 C   0  0  0  0  0  0  0  0  0  0  0  0
    9.0876  -17.0084   20.5093 C   0  0  2  0  0  0  0  0  0  0  0  0
    8.2895  -18.1027   20.0030 N   0  0  0  0  0  0  0  0  0  0  0  0
    9.9792  -17.4617   21.6176 C   0  0  0  0  0  0  0  0  0  0  0  0
   10.7416  -18.4295   21.3764 O   0  0  0  0  0  0  0  0  0  0  0  0
    8.2397  -10.9742   20.9240 N   0  0  0  0  0  0  0  0  0  0  0  0
   13.3523  -17.7038   21.9433 C   0  0  0  0  0  0  0  0  0  0  0  0
   12.9771  -16.3622   21.7931 O   0  0  0  0  0  0  0  0  0  0  0  0
   13.4621  -15.7496   20.7909 C   0  0  0  0  0  0  0  0  0  0  0  0
   12.0847  -15.6222   22.6852 C   0  0  2  0  0  0  0  0  0  0  0  0
   11.2110  -16.4979   23.5376 N   0  0  0  0  0  0  0  0  0  0  0  0
    9.9797  -16.8385   22.8962 C   0  0  0  0  0  0  0  0  0  0  0  0
   11.0160  -15.9337   24.8999 O   0  0  0  0  0  0  0  0  0  0  0  0
   11.9977  -15.5688   25.5948 C   0  0  0  0  0  0  0  0  0  0  0  0
    6.7508  -12.9142   25.5786 C   0  0  1  0  0  0  0  0  0  0  0  0
    8.1667  -13.3670   25.8244 C   0  0  0  0  0  0  0  0  0  0  0  0
    9.0899  -12.1733   25.8350 C   0  0  0  0  0  0  0  0  0  0  0  0
    8.3574  -14.3243   26.9152 C   0  0  2  0  0  0  0  0  0  0  0  0
    9.4678  -15.3145   26.8243 N   0  0  0  0  0  0  0  0  0  0  0  0
    9.7414  -15.7781   25.4800 C   0  0  0  0  0  0  0  0  0  0  0  0
    9.4848  -16.3538   27.8421 O   0  0  0  0  0  0  0  0  0  0  0  0
    9.6720  -16.1883   29.2063 O   0  0  0  0  0  0  0  0  0  0  0  0
  1  2  1  0
  2  4  1  0
  3  2  2  0
  4  5  1  0
  5  6  1  0
  7  6  1  0
  8  9  1  1
  8  7  1  0
 10  8  1  0
 10 11  2  0
 13 12  1  0
 13 15  1  0
 14 13  2  0
 16 15  1  6
 16 17  1  0
 16 18  1  0
 17 10  1  0
 18 25  1  0
 19 18  2  0
 21 20  1  6
 21 23  1  0
 22 21  1  0
 24 23  1  6
 24 26  1  0
 25 24  1  0
 26 28  2  0
 26 27  1  0
M  END
$$$$
