RNL.pdb
     RDKit          3D

 28 27  0  0  1  0  0  0  0  0999 V2000
   10.6538  -14.4442   17.4818 N   0  0  0  0  0  0  0  0  0  0  0  0
   10.5417  -13.4574   18.5090 C   0  0  0  0  0  0  0  0  0  0  0  0
   11.5886  -13.1272   19.1816 N   0  0  0  0  0  0  0  0  0  0  0  0
    9.3148  -12.8272   18.8151 N   0  0  0  0  0  0  0  0  0  0  0  0
    8.0506  -13.2752   18.2053 C   0  0  0  0  0  0  0  0  0  0  0  0
    7.9194  -14.7435   18.5027 C   0  0  0  0  0  0  0  0  0  0  0  0
    7.2160  -15.0957   19.7573 C   0  0  0  0  0  0  0  0  0  0  0  0
    7.1529  -16.5359   20.1255 C   0  0  2  0  0  0  0  0  0  0  0  0
    5.8628  -17.0726   19.7539 N   0  0  0  0  0  0  0  0  0  0  0  0
    7.4341  -16.7668   21.5734 C   0  0  0  0  0  0  0  0  0  0  0  0
    6.4610  -16.6889   22.3626 O   0  0  0  0  0  0  0  0  0  0  0  0
   11.5527  -12.4260   19.9483 N   0  0  0  0  0  0  0  0  0  0  0  0
   10.6477  -19.9017   25.5912 C   0  0  0  0  0  0  0  0  0  0  0  0
   10.3267  -18.6444   25.0625 O   0  0  0  0  0  0  0  0  0  0  0  0
   10.2729  -17.6814   25.8900 C   0  0  0  0  0  0  0  0  0  0  0  0
   10.0528  -18.3570   23.6546 C   0  0  1  0  0  0  0  0  0  0  0  0
    8.9512  -17.3586   23.4391 N   0  0  0  0  0  0  0  0  0  0  0  0
    8.7387  -17.0629   22.0568 C   0  0  0  0  0  0  0  0  0  0  0  0
    9.1345  -16.1383   24.2693 O   0  0  0  0  0  0  0  0  0  0  0  0
   10.0592  -15.3230   24.0244 C   0  0  0  0  0  0  0  0  0  0  0  0
    8.3022  -11.4546   26.6326 C   0  0  2  0  0  0  0  0  0  0  0  0
    7.2733  -12.5108   26.9421 C   0  0  0  0  0  0  0  0  0  0  0  0
    5.9226  -11.8664   27.1369 C   0  0  0  0  0  0  0  0  0  0  0  0
    7.2904  -13.6981   26.0862 C   0  0  1  0  0  0  0  0  0  0  0  0
    8.4099  -14.6728   26.2216 N   0  0  0  0  0  0  0  0  0  0  0  0
    8.2965  -15.8309   25.3595 C   0  0  0  0  0  0  0  0  0  0  0  0
    8.8456  -14.9644   27.5786 O   0  0  0  0  0  0  0  0  0  0  0  0
    9.7553  -14.2456   28.3398 O   0  0  0  0  0  0  0  0  0  0  0  0
  1  2  1  0
  2  4  1  0
  3  2  2  0
  4  5  1  0
  5  6  1  0
  7  6  1  0
  8  9  1  1
  8  7  1  0
 10  8  1  0
 10 11  2  0
 13 12  1  0
 13 15  1  0
 14 13  2  0
 16 15  1  6
 16 17  1  0
 16 18  1  0
 17 10  1  0
 18 25  1  0
 19 18  2  0
 21 20  1  1
 21 23  1  0
 22 21  1  0
 24 23  1  6
 24 26  1  0
 25 24  1  0
 26 28  2  0
 26 27  1  0
M  END
$$$$
