RNL.pdb
     RDKit          3D

 28 27  0  0  1  0  0  0  0  0999 V2000
    9.3203  -12.7676   18.0893 N   0  0  0  0  0  0  0  0  0  0  0  0
    8.0734  -13.4081   17.8128 C   0  0  0  0  0  0  0  0  0  0  0  0
    7.7927  -13.7431   16.6018 N   0  0  0  0  0  0  0  0  0  0  0  0
    7.1313  -13.6885   18.8277 N   0  0  0  0  0  0  0  0  0  0  0  0
    7.4226  -13.4030   20.2433 C   0  0  0  0  0  0  0  0  0  0  0  0
    7.7354  -14.7202   20.8982 C   0  0  0  0  0  0  0  0  0  0  0  0
    8.9058  -15.4537   20.3643 C   0  0  0  0  0  0  0  0  0  0  0  0
   10.1355  -15.4829   21.2016 C   0  0  2  0  0  0  0  0  0  0  0  0
   11.2067  -16.1135   20.4630 N   0  0  0  0  0  0  0  0  0  0  0  0
    9.9158  -16.1607   22.5135 C   0  0  0  0  0  0  0  0  0  0  0  0
    9.0942  -15.6287   23.2995 O   0  0  0  0  0  0  0  0  0  0  0  0
    6.8767  -14.1618   16.3440 N   0  0  0  0  0  0  0  0  0  0  0  0
    9.1708  -20.5955   22.5663 C   0  0  0  0  0  0  0  0  0  0  0  0
   10.4443  -20.1464   22.9405 O   0  0  0  0  0  0  0  0  0  0  0  0
   11.3921  -20.4012   22.1332 C   0  0  0  0  0  0  0  0  0  0  0  0
   10.7640  -19.4185   24.1683 C   0  0  2  0  0  0  0  0  0  0  0  0
   10.3590  -17.9721   24.1429 N   0  0  0  0  0  0  0  0  0  0  0  0
   10.5970  -17.3558   22.8752 C   0  0  0  0  0  0  0  0  0  0  0  0
   10.9468  -17.2085   25.2758 O   0  0  0  0  0  0  0  0  0  0  0  0
   11.5160  -16.1043   25.0846 C   0  0  0  0  0  0  0  0  0  0  0  0
   11.0929  -13.8728   27.9942 C   0  0  2  0  0  0  0  0  0  0  0  0
    9.7334  -14.5036   28.1494 C   0  0  0  0  0  0  0  0  0  0  0  0
    8.6609  -13.4874   27.8419 C   0  0  0  0  0  0  0  0  0  0  0  0
    9.5574  -15.8172   27.5282 C   0  0  2  0  0  0  0  0  0  0  0  0
   10.5764  -16.8771   27.7732 N   0  0  0  0  0  0  0  0  0  0  0  0
   10.9002  -17.6707   26.6060 C   0  0  0  0  0  0  0  0  0  0  0  0
   10.4271  -17.6376   29.0043 O   0  0  0  0  0  0  0  0  0  0  0  0
   11.1342  -17.4683   30.1854 O   0  0  0  0  0  0  0  0  0  0  0  0
  1  2  1  0
  2  4  1  0
  3  2  2  0
  4  5  1  0
  5  6  1  0
  7  6  1  0
  8  9  1  6
  8  7  1  0
 10  8  1  0
 10 11  2  0
 13 12  1  0
 13 15  1  0
 14 13  2  0
 16 15  1  6
 16 17  1  0
 16 18  1  0
 17 10  1  0
 18 25  1  0
 19 18  2  0
 21 20  1  1
 21 23  1  0
 22 21  1  0
 24 23  1  6
 24 26  1  0
 25 24  1  0
 26 28  2  0
 26 27  1  0
M  END
$$$$
