RNL.pdb
     RDKit          3D

 28 27  0  0  1  0  0  0  0  0999 V2000
    7.7907  -12.5828   17.5070 N   0  0  0  0  0  0  0  0  0  0  0  0
    8.8571  -13.3991   17.9948 C   0  0  0  0  0  0  0  0  0  0  0  0
   10.0517  -12.9203   18.0284 N   0  0  0  0  0  0  0  0  0  0  0  0
    8.6460  -14.7219   18.4441 N   0  0  0  0  0  0  0  0  0  0  0  0
    7.2992  -15.2062   18.7938 C   0  0  0  0  0  0  0  0  0  0  0  0
    6.8844  -14.4774   20.0421 C   0  0  0  0  0  0  0  0  0  0  0  0
    7.0376  -15.2204   21.3139 C   0  0  0  0  0  0  0  0  0  0  0  0
    8.1986  -16.1435   21.4318 C   0  0  2  0  0  0  0  0  0  0  0  0
    8.0909  -17.1837   20.4333 N   0  0  0  0  0  0  0  0  0  0  0  0
    8.3282  -16.7243   22.8009 C   0  0  0  0  0  0  0  0  0  0  0  0
    7.8592  -17.8751   22.9788 O   0  0  0  0  0  0  0  0  0  0  0  0
   10.8632  -13.4853   18.3494 N   0  0  0  0  0  0  0  0  0  0  0  0
   13.7243  -16.3681   23.7991 C   0  0  0  0  0  0  0  0  0  0  0  0
   12.5349  -17.0971   23.6687 O   0  0  0  0  0  0  0  0  0  0  0  0
   12.5969  -18.3339   23.9545 C   0  0  0  0  0  0  0  0  0  0  0  0
   11.2468  -16.5554   23.2360 C   0  0  2  0  0  0  0  0  0  0  0  0
   10.2411  -16.4158   24.3431 N   0  0  0  0  0  0  0  0  0  0  0  0
    8.9514  -16.0215   23.8691 C   0  0  0  0  0  0  0  0  0  0  0  0
   10.7410  -15.5503   25.4446 O   0  0  0  0  0  0  0  0  0  0  0  0
   11.8726  -15.7446   25.9562 C   0  0  0  0  0  0  0  0  0  0  0  0
    8.2601  -11.8956   26.3471 C   0  0  2  0  0  0  0  0  0  0  0  0
    7.2750  -12.9039   26.8791 C   0  0  0  0  0  0  0  0  0  0  0  0
    5.9606  -12.7673   26.1502 C   0  0  0  0  0  0  0  0  0  0  0  0
    7.7728  -14.2714   27.0355 C   0  0  2  0  0  0  0  0  0  0  0  0
    9.2365  -14.4945   27.2069 N   0  0  0  0  0  0  0  0  0  0  0  0
    9.9882  -14.4811   25.9692 C   0  0  0  0  0  0  0  0  0  0  0  0
    9.6204  -15.5415   28.1410 O   0  0  0  0  0  0  0  0  0  0  0  0
    9.3532  -16.8984   28.0358 O   0  0  0  0  0  0  0  0  0  0  0  0
  1  2  1  0
  2  4  1  0
  3  2  2  0
  4  5  1  0
  5  6  1  0
  7  6  1  0
  8  9  1  6
  8  7  1  0
 10  8  1  0
 10 11  2  0
 13 12  1  0
 13 15  1  0
 14 13  2  0
 16 15  1  6
 16 17  1  0
 16 18  1  0
 17 10  1  0
 18 25  1  0
 19 18  2  0
 21 20  1  1
 21 23  1  0
 22 21  1  0
 24 23  1  1
 24 26  1  0
 25 24  1  0
 26 28  2  0
 26 27  1  0
M  END
$$$$
