LPW.pdb
     RDKit          3D

 30 32  0  0  1  0  0  0  0  0999 V2000
   23.2411  -22.0313  -18.8041 C   0  0  0  0  0  0  0  0  0  0  0  0
   24.6536  -21.5317  -18.6252 C   0  0  1  0  0  0  0  0  0  0  0  0
   24.6194  -20.0230  -18.9039 C   0  0  0  0  0  0  0  0  0  0  0  0
   25.2218  -21.8166  -17.2886 C   0  0  0  0  0  0  0  0  0  0  0  0
   26.6958  -21.4396  -17.1790 C   0  0  2  0  0  0  0  0  0  0  0  0
   27.3796  -22.6832  -17.6431 N   0  0  0  0  0  0  0  0  0  0  0  0
   27.1061  -21.3100  -15.7570 C   0  0  0  0  0  0  0  0  0  0  0  0
   27.4094  -22.4156  -15.1645 O   0  0  0  0  0  0  0  0  0  0  0  0
   27.1834  -20.0927  -15.0420 N   0  0  0  0  0  0  0  0  0  0  0  0
   26.8994  -18.7694  -15.5187 C   0  0  0  0  0  0  0  0  0  0  0  0
   27.8812  -17.8809  -14.7780 C   0  0  0  0  0  0  0  0  0  0  0  0
   27.9715  -18.5481  -13.4333 C   0  0  0  0  0  0  0  0  0  0  0  0
   27.6105  -19.9787  -13.6447 C   0  0  1  0  0  0  0  0  0  0  0  0
   26.5358  -20.4324  -12.7283 C   0  0  0  0  0  0  0  0  0  0  0  0
   25.3365  -20.3994  -13.1071 O   0  0  0  0  0  0  0  0  0  0  0  0
   26.8864  -20.8946  -11.4419 N   0  0  0  0  0  0  0  0  0  0  0  0
   25.8860  -21.3718  -10.4842 C   0  0  1  0  0  0  0  0  0  0  0  0
   26.5152  -21.8159   -9.2252 C   0  0  0  0  0  0  0  0  0  0  0  0
   26.9228  -20.6952   -8.3588 C   0  0  0  0  0  0  0  0  0  0  0  0
   26.3503  -19.4036   -8.3608 C   0  0  0  0  0  0  0  0  0  0  0  0
   26.9999  -18.6306   -7.4784 N   0  0  0  0  0  0  0  0  0  0  0  0
   27.9762  -19.3128   -6.8757 C   0  0  0  0  0  0  0  0  0  0  0  0
   28.9049  -19.0143   -5.9013 C   0  0  0  0  0  0  0  0  0  0  0  0
   29.8075  -19.9788   -5.4423 C   0  0  0  0  0  0  0  0  0  0  0  0
   29.7517  -21.2305   -5.9809 C   0  0  0  0  0  0  0  0  0  0  0  0
   28.8255  -21.5153   -6.9491 C   0  0  0  0  0  0  0  0  0  0  0  0
   27.9260  -20.5876   -7.4212 C   0  0  0  0  0  0  0  0  0  0  0  0
   24.8990  -20.3251  -10.2953 C   0  0  0  0  0  0  0  0  0  0  0  0
   23.6127  -20.6461   -9.8940 O   0  0  0  0  0  0  0  0  0  0  0  0
   25.1404  -19.1120  -10.4772 O   0  0  0  0  0  0  0  0  0  0  0  0
  2  3  1  1
  2  1  1  0
  4  2  1  0
  5  4  1  0
  5  6  1  1
  7  5  1  0
  8  7  2  0
  9  7  1  0
  9 13  1  0
 10  9  1  0
 11 10  1  0
 11 12  1  0
 12 13  1  0
 13 14  1  1
 14 15  2  0
 16 14  1  0
 17 16  1  0
 17 28  1  0
 17 18  1  1
 19 18  1  0
 20 19  2  0
 21 22  1  0
 21 20  1  0
 22 27  2  0
 23 22  1  0
 23 24  2  0
 24 25  1  0
 25 26  2  0
 27 19  1  0
 27 26  1  0
 28 30  2  0
 28 29  1  0
M  END
$$$$
