LPW.pdb
     RDKit          3D

 30 32  0  0  1  0  0  0  0  0999 V2000
   17.9458  -11.2174  -22.3762 C   0  0  0  0  0  0  0  0  0  0  0  0
   18.0134  -10.6169  -20.9936 C   0  0  1  0  0  0  0  0  0  0  0  0
   17.0527  -11.4330  -20.1182 C   0  0  0  0  0  0  0  0  0  0  0  0
   19.3768  -10.5978  -20.4181 C   0  0  0  0  0  0  0  0  0  0  0  0
   20.3539   -9.7610  -21.2378 C   0  0  2  0  0  0  0  0  0  0  0  0
   21.3752  -10.7706  -21.6467 N   0  0  0  0  0  0  0  0  0  0  0  0
   21.1044   -8.8185  -20.3685 C   0  0  0  0  0  0  0  0  0  0  0  0
   22.1286   -9.3183  -19.7632 O   0  0  0  0  0  0  0  0  0  0  0  0
   20.7768   -7.4568  -20.1745 N   0  0  0  0  0  0  0  0  0  0  0  0
   19.7284   -6.7033  -20.8007 C   0  0  0  0  0  0  0  0  0  0  0  0
   20.3010   -5.3058  -20.9462 C   0  0  0  0  0  0  0  0  0  0  0  0
   21.1368   -5.1669  -19.7037 C   0  0  0  0  0  0  0  0  0  0  0  0
   21.5041   -6.5489  -19.2832 C   0  0  1  0  0  0  0  0  0  0  0  0
   21.1617   -6.8188  -17.8653 C   0  0  0  0  0  0  0  0  0  0  0  0
   20.0400   -7.3100  -17.5761 O   0  0  0  0  0  0  0  0  0  0  0  0
   22.1098   -6.5158  -16.8650 N   0  0  0  0  0  0  0  0  0  0  0  0
   21.8250   -6.6946  -15.4393 C   0  0  1  0  0  0  0  0  0  0  0  0
   22.5447   -7.8596  -14.8889 C   0  0  0  0  0  0  0  0  0  0  0  0
   23.9050   -8.0076  -15.4372 C   0  0  0  0  0  0  0  0  0  0  0  0
   24.6460   -6.9932  -16.0834 C   0  0  0  0  0  0  0  0  0  0  0  0
   25.8204   -7.4956  -16.4919 N   0  0  0  0  0  0  0  0  0  0  0  0
   25.9263   -8.7853  -16.1645 C   0  0  0  0  0  0  0  0  0  0  0  0
   26.9034   -9.7454  -16.3217 C   0  0  0  0  0  0  0  0  0  0  0  0
   26.7278  -11.0434  -15.8318 C   0  0  0  0  0  0  0  0  0  0  0  0
   25.5626  -11.3445  -15.1905 C   0  0  0  0  0  0  0  0  0  0  0  0
   24.5984  -10.3829  -15.0411 C   0  0  0  0  0  0  0  0  0  0  0  0
   24.7421   -9.0987  -15.5130 C   0  0  0  0  0  0  0  0  0  0  0  0
   22.1312   -5.4533  -14.7533 C   0  0  0  0  0  0  0  0  0  0  0  0
   21.7998   -5.2966  -13.4175 O   0  0  0  0  0  0  0  0  0  0  0  0
   22.6929   -4.4830  -15.3064 O   0  0  0  0  0  0  0  0  0  0  0  0
  2  3  1  1
  2  1  1  0
  4  2  1  0
  5  4  1  0
  5  6  1  1
  7  5  1  0
  8  7  2  0
  9  7  1  0
  9 13  1  0
 10  9  1  0
 11 10  1  0
 11 12  1  0
 12 13  1  0
 13 14  1  1
 14 15  2  0
 16 14  1  0
 17 16  1  0
 17 28  1  0
 17 18  1  1
 19 18  1  0
 20 19  2  0
 21 22  1  0
 21 20  1  0
 22 27  2  0
 23 22  1  0
 23 24  2  0
 24 25  1  0
 25 26  2  0
 27 19  1  0
 27 26  1  0
 28 30  2  0
 28 29  1  0
M  END
$$$$
