LPW.pdb
     RDKit          3D

 30 32  0  0  1  0  0  0  0  0999 V2000
   26.9631  -13.6191  -14.4073 C   0  0  0  0  0  0  0  0  0  0  0  0
   26.8028  -14.8311  -15.2918 C   0  0  1  0  0  0  0  0  0  0  0  0
   28.1370  -15.0106  -16.0287 C   0  0  0  0  0  0  0  0  0  0  0  0
   26.4273  -16.0598  -14.5571 C   0  0  0  0  0  0  0  0  0  0  0  0
   26.2865  -17.2750  -15.4682 C   0  0  2  0  0  0  0  0  0  0  0  0
   24.9283  -17.0783  -16.0566 N   0  0  0  0  0  0  0  0  0  0  0  0
   26.1591  -18.5230  -14.6724 C   0  0  0  0  0  0  0  0  0  0  0  0
   25.0151  -18.7031  -14.1030 O   0  0  0  0  0  0  0  0  0  0  0  0
   27.1777  -19.4901  -14.5101 N   0  0  0  0  0  0  0  0  0  0  0  0
   28.5026  -19.4776  -15.0612 C   0  0  0  0  0  0  0  0  0  0  0  0
   28.8153  -20.9379  -15.3292 C   0  0  0  0  0  0  0  0  0  0  0  0
   28.1277  -21.6318  -14.1859 C   0  0  0  0  0  0  0  0  0  0  0  0
   27.0289  -20.7284  -13.7406 C   0  0  1  0  0  0  0  0  0  0  0  0
   27.0795  -20.4511  -12.2842 C   0  0  0  0  0  0  0  0  0  0  0  0
   27.8418  -19.5513  -11.8457 O   0  0  0  0  0  0  0  0  0  0  0  0
   26.2647  -21.2093  -11.4168 N   0  0  0  0  0  0  0  0  0  0  0  0
   26.4475  -21.1964   -9.9635 C   0  0  1  0  0  0  0  0  0  0  0  0
   26.2894  -19.8360   -9.4134 C   0  0  0  0  0  0  0  0  0  0  0  0
   26.3293  -19.8025   -7.9403 C   0  0  0  0  0  0  0  0  0  0  0  0
   25.2242  -20.0017   -7.0829 C   0  0  0  0  0  0  0  0  0  0  0  0
   25.6199  -19.8543   -5.8101 N   0  0  0  0  0  0  0  0  0  0  0  0
   26.9223  -19.5688   -5.7463 C   0  0  0  0  0  0  0  0  0  0  0  0
   27.8141  -19.3472   -4.7183 C   0  0  0  0  0  0  0  0  0  0  0  0
   29.1647  -19.0908   -4.9747 C   0  0  0  0  0  0  0  0  0  0  0  0
   29.5869  -19.0638   -6.2712 C   0  0  0  0  0  0  0  0  0  0  0  0
   28.6917  -19.2843   -7.2844 C   0  0  0  0  0  0  0  0  0  0  0  0
   27.3578  -19.5378   -7.0633 C   0  0  0  0  0  0  0  0  0  0  0  0
   25.5350  -22.1618   -9.3799 C   0  0  0  0  0  0  0  0  0  0  0  0
   26.0205  -23.1812   -8.5774 O   0  0  0  0  0  0  0  0  0  0  0  0
   24.2981  -22.1341   -9.5594 O   0  0  0  0  0  0  0  0  0  0  0  0
  2  3  1  1
  2  1  1  0
  4  2  1  0
  5  4  1  0
  5  6  1  1
  7  5  1  0
  8  7  2  0
  9  7  1  0
  9 13  1  0
 10  9  1  0
 11 10  1  0
 11 12  1  0
 12 13  1  0
 13 14  1  1
 14 15  2  0
 16 14  1  0
 17 16  1  0
 17 28  1  0
 17 18  1  1
 19 18  1  0
 20 19  2  0
 21 22  1  0
 21 20  1  0
 22 27  2  0
 23 22  1  0
 23 24  2  0
 24 25  1  0
 25 26  2  0
 27 19  1  0
 27 26  1  0
 28 30  2  0
 28 29  1  0
M  END
$$$$
