LPW.pdb
     RDKit          3D

 30 32  0  0  1  0  0  0  0  0999 V2000
   22.3690  -16.5772  -16.6434 C   0  0  0  0  0  0  0  0  0  0  0  0
   22.0297  -18.0263  -16.3948 C   0  0  1  0  0  0  0  0  0  0  0  0
   22.9094  -18.8479  -17.3468 C   0  0  0  0  0  0  0  0  0  0  0  0
   22.2201  -18.4504  -14.9897 C   0  0  0  0  0  0  0  0  0  0  0  0
   21.8934  -19.9236  -14.7662 C   0  0  2  0  0  0  0  0  0  0  0  0
   20.4886  -19.8672  -14.2634 N   0  0  0  0  0  0  0  0  0  0  0  0
   22.6661  -20.4708  -13.6213 C   0  0  0  0  0  0  0  0  0  0  0  0
   22.2783  -20.0810  -12.4539 O   0  0  0  0  0  0  0  0  0  0  0  0
   23.7584  -21.3618  -13.7308 N   0  0  0  0  0  0  0  0  0  0  0  0
   24.3244  -21.9219  -14.9246 C   0  0  0  0  0  0  0  0  0  0  0  0
   24.7775  -23.3105  -14.5137 C   0  0  0  0  0  0  0  0  0  0  0  0
   25.2376  -23.0957  -13.0982 C   0  0  0  0  0  0  0  0  0  0  0  0
   24.5046  -21.9012  -12.5906 C   0  0  1  0  0  0  0  0  0  0  0  0
   25.4158  -20.8756  -12.0266 C   0  0  0  0  0  0  0  0  0  0  0  0
   25.7540  -19.8870  -12.7276 O   0  0  0  0  0  0  0  0  0  0  0  0
   25.8864  -21.0337  -10.7056 N   0  0  0  0  0  0  0  0  0  0  0  0
   26.9473  -20.1911  -10.1486 C   0  0  1  0  0  0  0  0  0  0  0  0
   26.4310  -19.3098   -9.0833 C   0  0  0  0  0  0  0  0  0  0  0  0
   26.4392  -19.9476   -7.7543 C   0  0  0  0  0  0  0  0  0  0  0  0
   25.4472  -20.8208   -7.2550 C   0  0  0  0  0  0  0  0  0  0  0  0
   25.7578  -21.1702   -5.9981 N   0  0  0  0  0  0  0  0  0  0  0  0
   26.8969  -20.5922   -5.6108 C   0  0  0  0  0  0  0  0  0  0  0  0
   27.6559  -20.6269   -4.4603 C   0  0  0  0  0  0  0  0  0  0  0  0
   28.8542  -19.9127   -4.3621 C   0  0  0  0  0  0  0  0  0  0  0  0
   29.2614  -19.1750   -5.4344 C   0  0  0  0  0  0  0  0  0  0  0  0
   28.4986  -19.1472   -6.5720 C   0  0  0  0  0  0  0  0  0  0  0  0
   27.3156  -19.8380   -6.6975 C   0  0  0  0  0  0  0  0  0  0  0  0
   28.0298  -21.0513   -9.7086 C   0  0  0  0  0  0  0  0  0  0  0  0
   29.3220  -20.5585   -9.6303 O   0  0  0  0  0  0  0  0  0  0  0  0
   27.8684  -22.2480   -9.3849 O   0  0  0  0  0  0  0  0  0  0  0  0
  2  3  1  6
  2  1  1  0
  4  2  1  0
  5  4  1  0
  5  6  1  1
  7  5  1  0
  8  7  2  0
  9  7  1  0
  9 13  1  0
 10  9  1  0
 11 10  1  0
 11 12  1  0
 12 13  1  0
 13 14  1  6
 14 15  2  0
 16 14  1  0
 17 16  1  0
 17 28  1  0
 17 18  1  1
 19 18  1  0
 20 19  2  0
 21 22  1  0
 21 20  1  0
 22 27  2  0
 23 22  1  0
 23 24  2  0
 24 25  1  0
 25 26  2  0
 27 19  1  0
 27 26  1  0
 28 30  2  0
 28 29  1  0
M  END
$$$$
