LPW.pdb
     RDKit          3D

 30 32  0  0  1  0  0  0  0  0999 V2000
   26.7337  -32.5228   -9.0884 C   0  0  0  0  0  0  0  0  0  0  0  0
   25.2724  -32.8218   -8.8599 C   0  0  1  0  0  0  0  0  0  0  0  0
   24.5189  -31.5043   -9.0872 C   0  0  0  0  0  0  0  0  0  0  0  0
   24.7418  -33.8983   -9.7260 C   0  0  0  0  0  0  0  0  0  0  0  0
   25.3906  -35.2517   -9.4532 C   0  0  2  0  0  0  0  0  0  0  0  0
   24.5391  -36.1818  -10.2530 N   0  0  0  0  0  0  0  0  0  0  0  0
   25.1659  -35.6741   -8.0467 C   0  0  0  0  0  0  0  0  0  0  0  0
   23.9332  -35.6996   -7.6657 O   0  0  0  0  0  0  0  0  0  0  0  0
   26.1841  -36.0386   -7.1360 N   0  0  0  0  0  0  0  0  0  0  0  0
   27.5907  -36.1663   -7.3893 C   0  0  0  0  0  0  0  0  0  0  0  0
   28.0359  -37.3045   -6.4901 C   0  0  0  0  0  0  0  0  0  0  0  0
   27.1702  -37.1153   -5.2751 C   0  0  0  0  0  0  0  0  0  0  0  0
   25.9530  -36.3858   -5.7310 C   0  0  1  0  0  0  0  0  0  0  0  0
   25.6881  -35.1684   -4.9259 C   0  0  0  0  0  0  0  0  0  0  0  0
   26.2547  -34.0857   -5.2255 O   0  0  0  0  0  0  0  0  0  0  0  0
   24.7992  -35.2534   -3.8332 N   0  0  0  0  0  0  0  0  0  0  0  0
   24.4560  -34.0890   -3.0134 C   0  0  1  0  0  0  0  0  0  0  0  0
   23.4445  -33.2433   -3.6766 C   0  0  0  0  0  0  0  0  0  0  0  0
   22.1258  -33.8944   -3.7766 C   0  0  0  0  0  0  0  0  0  0  0  0
   21.8377  -35.2287   -3.4125 C   0  0  0  0  0  0  0  0  0  0  0  0
   20.5507  -35.4924   -3.6817 N   0  0  0  0  0  0  0  0  0  0  0  0
   19.9448  -34.4239   -4.2041 C   0  0  0  0  0  0  0  0  0  0  0  0
   18.6613  -34.1512   -4.6274 C   0  0  0  0  0  0  0  0  0  0  0  0
   18.3139  -32.8882   -5.1172 C   0  0  0  0  0  0  0  0  0  0  0  0
   19.2762  -31.9233   -5.1688 C   0  0  0  0  0  0  0  0  0  0  0  0
   20.5484  -32.2060   -4.7465 C   0  0  0  0  0  0  0  0  0  0  0  0
   20.9199  -33.4385   -4.2612 C   0  0  0  0  0  0  0  0  0  0  0  0
   24.0436  -34.5581   -1.7038 C   0  0  0  0  0  0  0  0  0  0  0  0
   23.8920  -33.6610   -0.6593 O   0  0  0  0  0  0  0  0  0  0  0  0
   23.8084  -35.7588   -1.4466 O   0  0  0  0  0  0  0  0  0  0  0  0
  2  3  1  6
  2  1  1  0
  4  2  1  0
  5  4  1  0
  5  6  1  6
  7  5  1  0
  8  7  2  0
  9  7  1  0
  9 13  1  0
 10  9  1  0
 11 10  1  0
 11 12  1  0
 12 13  1  0
 13 14  1  1
 14 15  2  0
 16 14  1  0
 17 16  1  0
 17 28  1  0
 17 18  1  6
 19 18  1  0
 20 19  2  0
 21 22  1  0
 21 20  1  0
 22 27  2  0
 23 22  1  0
 23 24  2  0
 24 25  1  0
 25 26  2  0
 27 19  1  0
 27 26  1  0
 28 30  2  0
 28 29  1  0
M  END
$$$$
