LPW.pdb
     RDKit          3D

 30 32  0  0  1  0  0  0  0  0999 V2000
   27.4017  -14.1819  -15.3505 C   0  0  0  0  0  0  0  0  0  0  0  0
   27.1215  -15.4517  -16.1161 C   0  0  1  0  0  0  0  0  0  0  0  0
   28.3445  -15.6990  -17.0096 C   0  0  0  0  0  0  0  0  0  0  0  0
   26.8452  -16.6204  -15.2511 C   0  0  0  0  0  0  0  0  0  0  0  0
   26.5354  -17.8852  -16.0457 C   0  0  2  0  0  0  0  0  0  0  0  0
   25.1678  -17.6037  -16.5749 N   0  0  0  0  0  0  0  0  0  0  0  0
   26.3412  -19.0467  -15.1400 C   0  0  0  0  0  0  0  0  0  0  0  0
   25.2013  -19.0951  -14.5370 O   0  0  0  0  0  0  0  0  0  0  0  0
   27.2944  -20.0653  -14.9101 N   0  0  0  0  0  0  0  0  0  0  0  0
   28.5781  -20.2291  -15.5303 C   0  0  0  0  0  0  0  0  0  0  0  0
   28.7647  -21.7320  -15.6238 C   0  0  0  0  0  0  0  0  0  0  0  0
   28.1036  -22.2197  -14.3642 C   0  0  0  0  0  0  0  0  0  0  0  0
   27.1054  -21.1817  -13.9798 C   0  0  1  0  0  0  0  0  0  0  0  0
   27.2706  -20.7299  -12.5766 C   0  0  0  0  0  0  0  0  0  0  0  0
   28.4174  -20.4496  -12.1414 O   0  0  0  0  0  0  0  0  0  0  0  0
   26.1281  -20.6239  -11.7552 N   0  0  0  0  0  0  0  0  0  0  0  0
   26.1604  -20.9484  -10.3271 C   0  0  1  0  0  0  0  0  0  0  0  0
   27.0432  -20.0269   -9.5857 C   0  0  0  0  0  0  0  0  0  0  0  0
   26.8659  -20.1107   -8.1247 C   0  0  0  0  0  0  0  0  0  0  0  0
   25.6379  -20.3101   -7.4553 C   0  0  0  0  0  0  0  0  0  0  0  0
   25.8472  -20.2860   -6.1310 N   0  0  0  0  0  0  0  0  0  0  0  0
   27.1379  -20.0842   -5.8564 C   0  0  0  0  0  0  0  0  0  0  0  0
   27.8770  -19.9967   -4.6958 C   0  0  0  0  0  0  0  0  0  0  0  0
   29.2614  -19.8019   -4.7325 C   0  0  0  0  0  0  0  0  0  0  0  0
   29.8717  -19.6991   -5.9477 C   0  0  0  0  0  0  0  0  0  0  0  0
   29.1271  -19.7865   -7.0942 C   0  0  0  0  0  0  0  0  0  0  0  0
   27.7646  -19.9767   -7.0896 C   0  0  0  0  0  0  0  0  0  0  0  0
   24.7969  -20.9617   -9.8310 C   0  0  0  0  0  0  0  0  0  0  0  0
   23.7615  -20.5046  -10.6296 O   0  0  0  0  0  0  0  0  0  0  0  0
   24.4839  -21.3718   -8.6922 O   0  0  0  0  0  0  0  0  0  0  0  0
  2  3  1  1
  2  1  1  0
  4  2  1  0
  5  4  1  0
  5  6  1  1
  7  5  1  0
  8  7  2  0
  9  7  1  0
  9 13  1  0
 10  9  1  0
 11 10  1  0
 11 12  1  0
 12 13  1  0
 13 14  1  1
 14 15  2  0
 16 14  1  0
 17 16  1  0
 17 28  1  0
 17 18  1  1
 19 18  1  0
 20 19  2  0
 21 22  1  0
 21 20  1  0
 22 27  2  0
 23 22  1  0
 23 24  2  0
 24 25  1  0
 25 26  2  0
 27 19  1  0
 27 26  1  0
 28 30  2  0
 28 29  1  0
M  END
$$$$
