LPW.pdb
     RDKit          3D

 30 32  0  0  1  0  0  0  0  0999 V2000
   26.6552  -15.8020  -16.6587 C   0  0  0  0  0  0  0  0  0  0  0  0
   27.3685  -17.1301  -16.7248 C   0  0  1  0  0  0  0  0  0  0  0  0
   28.8693  -16.8218  -16.6367 C   0  0  0  0  0  0  0  0  0  0  0  0
   26.9546  -18.0821  -15.6699 C   0  0  0  0  0  0  0  0  0  0  0  0
   27.7183  -19.4012  -15.7298 C   0  0  2  0  0  0  0  0  0  0  0  0
   27.0137  -20.1295  -16.8265 N   0  0  0  0  0  0  0  0  0  0  0  0
   27.4534  -20.2231  -14.5209 C   0  0  0  0  0  0  0  0  0  0  0  0
   26.3118  -20.8245  -14.4985 O   0  0  0  0  0  0  0  0  0  0  0  0
   28.3454  -20.3817  -13.4355 N   0  0  0  0  0  0  0  0  0  0  0  0
   29.6958  -19.9088  -13.3264 C   0  0  0  0  0  0  0  0  0  0  0  0
   30.4054  -20.9733  -12.5107 C   0  0  0  0  0  0  0  0  0  0  0  0
   29.3346  -21.4139  -11.5511 C   0  0  0  0  0  0  0  0  0  0  0  0
   28.0293  -21.1095  -12.2034 C   0  0  1  0  0  0  0  0  0  0  0  0
   27.1357  -20.3064  -11.3334 C   0  0  0  0  0  0  0  0  0  0  0  0
   27.2209  -19.0511  -11.3395 O   0  0  0  0  0  0  0  0  0  0  0  0
   26.2027  -20.9745  -10.5121 N   0  0  0  0  0  0  0  0  0  0  0  0
   25.3968  -20.2693   -9.5125 C   0  0  1  0  0  0  0  0  0  0  0  0
   24.4968  -19.2848  -10.1442 C   0  0  0  0  0  0  0  0  0  0  0  0
   23.5305  -19.9003  -11.0717 C   0  0  0  0  0  0  0  0  0  0  0  0
   22.5091  -20.8078  -10.7124 C   0  0  0  0  0  0  0  0  0  0  0  0
   21.8541  -21.1960  -11.8163 N   0  0  0  0  0  0  0  0  0  0  0  0
   22.3632  -20.6107  -12.9027 C   0  0  0  0  0  0  0  0  0  0  0  0
   22.0612  -20.6401  -14.2477 C   0  0  0  0  0  0  0  0  0  0  0  0
   22.7811  -19.8714  -15.1678 C   0  0  0  0  0  0  0  0  0  0  0  0
   23.7957  -19.0858  -14.7062 C   0  0  0  0  0  0  0  0  0  0  0  0
   24.0874  -19.0653  -13.3679 C   0  0  0  0  0  0  0  0  0  0  0  0
   23.3980  -19.8108  -12.4397 C   0  0  0  0  0  0  0  0  0  0  0  0
   24.6972  -21.2562   -8.7113 C   0  0  0  0  0  0  0  0  0  0  0  0
   23.9662  -20.8610   -7.6030 O   0  0  0  0  0  0  0  0  0  0  0  0
   24.7111  -22.4807   -8.9629 O   0  0  0  0  0  0  0  0  0  0  0  0
  2  3  1  1
  2  1  1  0
  4  2  1  0
  5  4  1  0
  5  6  1  6
  7  5  1  0
  8  7  2  0
  9  7  1  0
  9 13  1  0
 10  9  1  0
 11 10  1  0
 11 12  1  0
 12 13  1  0
 13 14  1  1
 14 15  2  0
 16 14  1  0
 17 16  1  0
 17 28  1  0
 17 18  1  6
 19 18  1  0
 20 19  2  0
 21 22  1  0
 21 20  1  0
 22 27  2  0
 23 22  1  0
 23 24  2  0
 24 25  1  0
 25 26  2  0
 27 19  1  0
 27 26  1  0
 28 30  2  0
 28 29  1  0
M  END
$$$$
