LPW.pdb
     RDKit          3D

 30 32  0  0  1  0  0  0  0  0999 V2000
   22.4870  -20.4908  -17.5423 C   0  0  0  0  0  0  0  0  0  0  0  0
   23.4339  -20.5329  -16.3681 C   0  0  1  0  0  0  0  0  0  0  0  0
   22.5693  -20.3937  -15.1078 C   0  0  0  0  0  0  0  0  0  0  0  0
   24.2640  -21.7571  -16.3155 C   0  0  0  0  0  0  0  0  0  0  0  0
   25.7556  -21.4675  -16.4507 C   0  0  2  0  0  0  0  0  0  0  0  0
   26.2563  -22.6877  -17.1506 N   0  0  0  0  0  0  0  0  0  0  0  0
   26.4264  -21.5090  -15.1258 C   0  0  0  0  0  0  0  0  0  0  0  0
   26.5216  -22.6787  -14.5889 O   0  0  0  0  0  0  0  0  0  0  0  0
   26.9495  -20.3856  -14.4450 N   0  0  0  0  0  0  0  0  0  0  0  0
   26.9985  -19.0242  -14.8960 C   0  0  0  0  0  0  0  0  0  0  0  0
   28.2869  -18.4772  -14.3102 C   0  0  0  0  0  0  0  0  0  0  0  0
   28.3624  -19.1782  -12.9819 C   0  0  0  0  0  0  0  0  0  0  0  0
   27.5773  -20.4375  -13.1218 C   0  0  1  0  0  0  0  0  0  0  0  0
   26.5526  -20.5865  -12.0597 C   0  0  0  0  0  0  0  0  0  0  0  0
   25.3447  -20.3485  -12.3192 O   0  0  0  0  0  0  0  0  0  0  0  0
   26.9596  -20.9952  -10.7718 N   0  0  0  0  0  0  0  0  0  0  0  0
   26.0004  -21.4034   -9.7427 C   0  0  1  0  0  0  0  0  0  0  0  0
   26.6727  -21.6717   -8.4565 C   0  0  0  0  0  0  0  0  0  0  0  0
   27.0394  -20.4420   -7.7311 C   0  0  0  0  0  0  0  0  0  0  0  0
   26.6178  -19.1350   -8.0626 C   0  0  0  0  0  0  0  0  0  0  0  0
   27.1812  -18.2607   -7.2161 N   0  0  0  0  0  0  0  0  0  0  0  0
   27.9576  -18.8884   -6.3300 C   0  0  0  0  0  0  0  0  0  0  0  0
   28.7270  -18.4824   -5.2604 C   0  0  0  0  0  0  0  0  0  0  0  0
   29.4263  -19.4080   -4.4793 C   0  0  0  0  0  0  0  0  0  0  0  0
   29.3322  -20.7306   -4.7980 C   0  0  0  0  0  0  0  0  0  0  0  0
   28.5655  -21.1223   -5.8636 C   0  0  0  0  0  0  0  0  0  0  0  0
   27.8677  -20.2354   -6.6503 C   0  0  0  0  0  0  0  0  0  0  0  0
   24.9690  -20.3870   -9.6509 C   0  0  0  0  0  0  0  0  0  0  0  0
   23.7327  -20.6973   -9.1086 O   0  0  0  0  0  0  0  0  0  0  0  0
   25.1271  -19.2102  -10.0422 O   0  0  0  0  0  0  0  0  0  0  0  0
  2  3  1  1
  2  1  1  0
  4  2  1  0
  5  4  1  0
  5  6  1  6
  7  5  1  0
  8  7  2  0
  9  7  1  0
  9 13  1  0
 10  9  1  0
 11 10  1  0
 11 12  1  0
 12 13  1  0
 13 14  1  1
 14 15  2  0
 16 14  1  0
 17 16  1  0
 17 28  1  0
 17 18  1  1
 19 18  1  0
 20 19  2  0
 21 22  1  0
 21 20  1  0
 22 27  2  0
 23 22  1  0
 23 24  2  0
 24 25  1  0
 25 26  2  0
 27 19  1  0
 27 26  1  0
 28 30  2  0
 28 29  1  0
M  END
$$$$
