LPW.pdb
     RDKit          3D

 30 32  0  0  1  0  0  0  0  0999 V2000
   28.4253  -18.2207  -16.0717 C   0  0  0  0  0  0  0  0  0  0  0  0
   27.4064  -17.9138  -15.0019 C   0  0  1  0  0  0  0  0  0  0  0  0
   27.9010  -16.6531  -14.2799 C   0  0  0  0  0  0  0  0  0  0  0  0
   26.0332  -17.7289  -15.5221 C   0  0  0  0  0  0  0  0  0  0  0  0
   25.4502  -19.0048  -16.1214 C   0  0  2  0  0  0  0  0  0  0  0  0
   24.0711  -18.5781  -16.5030 N   0  0  0  0  0  0  0  0  0  0  0  0
   25.2335  -20.0333  -15.0715 C   0  0  0  0  0  0  0  0  0  0  0  0
   24.3169  -19.7575  -14.2059 O   0  0  0  0  0  0  0  0  0  0  0  0
   25.9434  -21.2519  -14.9698 N   0  0  0  0  0  0  0  0  0  0  0  0
   26.9940  -21.7349  -15.8196 C   0  0  0  0  0  0  0  0  0  0  0  0
   26.7941  -23.2387  -15.8517 C   0  0  0  0  0  0  0  0  0  0  0  0
   26.3119  -23.5315  -14.4576 C   0  0  0  0  0  0  0  0  0  0  0  0
   25.6913  -22.2746  -13.9509 C   0  0  1  0  0  0  0  0  0  0  0  0
   26.2464  -21.8580  -12.6399 C   0  0  0  0  0  0  0  0  0  0  0  0
   27.4776  -21.6239  -12.5287 O   0  0  0  0  0  0  0  0  0  0  0  0
   25.3734  -21.7328  -11.5383 N   0  0  0  0  0  0  0  0  0  0  0  0
   25.8586  -21.4471  -10.1860 C   0  0  1  0  0  0  0  0  0  0  0  0
   26.7861  -20.2991  -10.1785 C   0  0  0  0  0  0  0  0  0  0  0  0
   27.0707  -19.7978   -8.8218 C   0  0  0  0  0  0  0  0  0  0  0  0
   26.2974  -18.8487   -8.1167 C   0  0  0  0  0  0  0  0  0  0  0  0
   26.8777  -18.5960   -6.9345 N   0  0  0  0  0  0  0  0  0  0  0  0
   27.9947  -19.3122   -6.7895 C   0  0  0  0  0  0  0  0  0  0  0  0
   28.9337  -19.4467   -5.7889 C   0  0  0  0  0  0  0  0  0  0  0  0
   30.0133  -20.3255   -5.9230 C   0  0  0  0  0  0  0  0  0  0  0  0
   30.1210  -21.0530   -7.0714 C   0  0  0  0  0  0  0  0  0  0  0  0
   29.1826  -20.9104   -8.0593 C   0  0  0  0  0  0  0  0  0  0  0  0
   28.1111  -20.0538   -7.9564 C   0  0  0  0  0  0  0  0  0  0  0  0
   24.7104  -21.2639   -9.3181 C   0  0  0  0  0  0  0  0  0  0  0  0
   24.7932  -21.5951   -7.9756 O   0  0  0  0  0  0  0  0  0  0  0  0
   23.6143  -20.8121   -9.7147 O   0  0  0  0  0  0  0  0  0  0  0  0
  2  3  1  6
  2  1  1  0
  4  2  1  0
  5  4  1  0
  5  6  1  1
  7  5  1  0
  8  7  2  0
  9  7  1  0
  9 13  1  0
 10  9  1  0
 11 10  1  0
 11 12  1  0
 12 13  1  0
 13 14  1  1
 14 15  2  0
 16 14  1  0
 17 16  1  0
 17 28  1  0
 17 18  1  6
 19 18  1  0
 20 19  2  0
 21 22  1  0
 21 20  1  0
 22 27  2  0
 23 22  1  0
 23 24  2  0
 24 25  1  0
 25 26  2  0
 27 19  1  0
 27 26  1  0
 28 30  2  0
 28 29  1  0
M  END
$$$$
