LPW.pdb
     RDKit          3D

 30 32  0  0  1  0  0  0  0  0999 V2000
   25.0708  -23.1362  -20.1682 C   0  0  0  0  0  0  0  0  0  0  0  0
   26.3691  -22.5478  -19.6728 C   0  0  1  0  0  0  0  0  0  0  0  0
   26.4649  -21.1392  -20.2743 C   0  0  0  0  0  0  0  0  0  0  0  0
   26.4813  -22.5089  -18.1976 C   0  0  0  0  0  0  0  0  0  0  0  0
   27.8586  -22.0594  -17.7201 C   0  0  2  0  0  0  0  0  0  0  0  0
   28.6462  -23.3267  -17.7763 N   0  0  0  0  0  0  0  0  0  0  0  0
   27.8325  -21.7131  -16.2756 C   0  0  0  0  0  0  0  0  0  0  0  0
   28.0553  -22.6933  -15.4664 O   0  0  0  0  0  0  0  0  0  0  0  0
   27.5897  -20.4213  -15.7546 N   0  0  0  0  0  0  0  0  0  0  0  0
   27.2611  -19.2257  -16.4769 C   0  0  0  0  0  0  0  0  0  0  0  0
   27.9260  -18.1123  -15.6891 C   0  0  0  0  0  0  0  0  0  0  0  0
   27.7848  -18.5902  -14.2702 C   0  0  0  0  0  0  0  0  0  0  0  0
   27.6638  -20.0745  -14.3326 C   0  0  1  0  0  0  0  0  0  0  0  0
   26.4713  -20.5761  -13.6069 C   0  0  0  0  0  0  0  0  0  0  0  0
   25.3729  -20.6862  -14.2107 O   0  0  0  0  0  0  0  0  0  0  0  0
   26.5972  -20.9209  -12.2443 N   0  0  0  0  0  0  0  0  0  0  0  0
   25.5071  -21.5488  -11.4938 C   0  0  1  0  0  0  0  0  0  0  0  0
   25.9889  -22.1188  -10.2206 C   0  0  0  0  0  0  0  0  0  0  0  0
   26.3744  -21.0894   -9.2384 C   0  0  0  0  0  0  0  0  0  0  0  0
   25.5483  -20.0385   -8.7813 C   0  0  0  0  0  0  0  0  0  0  0  0
   26.2421  -19.2690   -7.9299 N   0  0  0  0  0  0  0  0  0  0  0  0
   27.4858  -19.7291   -7.7776 C   0  0  0  0  0  0  0  0  0  0  0  0
   28.5747  -19.3411   -7.0260 C   0  0  0  0  0  0  0  0  0  0  0  0
   29.7712  -20.0644   -7.0585 C   0  0  0  0  0  0  0  0  0  0  0  0
   29.8414  -21.1698   -7.8541 C   0  0  0  0  0  0  0  0  0  0  0  0
   28.7536  -21.5453   -8.5972 C   0  0  0  0  0  0  0  0  0  0  0  0
   27.5645  -20.8535   -8.5866 C   0  0  0  0  0  0  0  0  0  0  0  0
   24.4488  -20.5712  -11.3218 C   0  0  0  0  0  0  0  0  0  0  0  0
   23.1540  -20.9866  -11.0577 O   0  0  0  0  0  0  0  0  0  0  0  0
   24.6340  -19.3372  -11.3992 O   0  0  0  0  0  0  0  0  0  0  0  0
  2  3  1  1
  2  1  1  0
  4  2  1  0
  5  4  1  0
  5  6  1  1
  7  5  1  0
  8  7  2  0
  9  7  1  0
  9 13  1  0
 10  9  1  0
 11 10  1  0
 11 12  1  0
 12 13  1  0
 13 14  1  1
 14 15  2  0
 16 14  1  0
 17 16  1  0
 17 28  1  0
 17 18  1  1
 19 18  1  0
 20 19  2  0
 21 22  1  0
 21 20  1  0
 22 27  2  0
 23 22  1  0
 23 24  2  0
 24 25  1  0
 25 26  2  0
 27 19  1  0
 27 26  1  0
 28 30  2  0
 28 29  1  0
M  END
$$$$
