LPW.pdb
     RDKit          3D

 30 32  0  0  1  0  0  0  0  0999 V2000
   22.6225  -16.2137  -14.2244 C   0  0  0  0  0  0  0  0  0  0  0  0
   23.4490  -17.0765  -15.1460 C   0  0  1  0  0  0  0  0  0  0  0  0
   24.5248  -16.1626  -15.7480 C   0  0  0  0  0  0  0  0  0  0  0  0
   24.0555  -18.2503  -14.4790 C   0  0  0  0  0  0  0  0  0  0  0  0
   25.0109  -19.0190  -15.3863 C   0  0  2  0  0  0  0  0  0  0  0  0
   24.0743  -19.7745  -16.2704 N   0  0  0  0  0  0  0  0  0  0  0  0
   25.7263  -20.0775  -14.6282 C   0  0  0  0  0  0  0  0  0  0  0  0
   25.0816  -21.1856  -14.4803 O   0  0  0  0  0  0  0  0  0  0  0  0
   27.0241  -19.9486  -14.0819 N   0  0  0  0  0  0  0  0  0  0  0  0
   27.8130  -18.7570  -13.9527 C   0  0  0  0  0  0  0  0  0  0  0  0
   29.2426  -19.2257  -14.1496 C   0  0  0  0  0  0  0  0  0  0  0  0
   29.2286  -20.5864  -13.5094 C   0  0  0  0  0  0  0  0  0  0  0  0
   27.8179  -21.0649  -13.5610 C   0  0  1  0  0  0  0  0  0  0  0  0
   27.3160  -21.4911  -12.2318 C   0  0  0  0  0  0  0  0  0  0  0  0
   27.7612  -22.5427  -11.7035 O   0  0  0  0  0  0  0  0  0  0  0  0
   26.3422  -20.7007  -11.5849 N   0  0  0  0  0  0  0  0  0  0  0  0
   26.0533  -20.8329  -10.1549 C   0  0  1  0  0  0  0  0  0  0  0  0
   27.0491  -20.1145   -9.3361 C   0  0  0  0  0  0  0  0  0  0  0  0
   26.7429  -20.1503   -7.8946 C   0  0  0  0  0  0  0  0  0  0  0  0
   25.4507  -20.2387   -7.3304 C   0  0  0  0  0  0  0  0  0  0  0  0
   25.5484  -20.2000   -5.9935 N   0  0  0  0  0  0  0  0  0  0  0  0
   26.8231  -20.0922   -5.6121 C   0  0  0  0  0  0  0  0  0  0  0  0
   27.4659  -20.0350   -4.3937 C   0  0  0  0  0  0  0  0  0  0  0  0
   28.8595  -19.9485   -4.3142 C   0  0  0  0  0  0  0  0  0  0  0  0
   29.5767  -19.9215   -5.4738 C   0  0  0  0  0  0  0  0  0  0  0  0
   28.9271  -19.9778   -6.6786 C   0  0  0  0  0  0  0  0  0  0  0  0
   27.5584  -20.0621   -6.7883 C   0  0  0  0  0  0  0  0  0  0  0  0
   24.6911  -20.3912   -9.9216 C   0  0  0  0  0  0  0  0  0  0  0  0
   23.9451  -20.9483   -8.8959 O   0  0  0  0  0  0  0  0  0  0  0  0
   24.1267  -19.5118  -10.6080 O   0  0  0  0  0  0  0  0  0  0  0  0
  2  3  1  1
  2  1  1  0
  4  2  1  0
  5  4  1  0
  5  6  1  6
  7  5  1  0
  8  7  2  0
  9  7  1  0
  9 13  1  0
 10  9  1  0
 11 10  1  0
 11 12  1  0
 12 13  1  0
 13 14  1  1
 14 15  2  0
 16 14  1  0
 17 16  1  0
 17 28  1  0
 17 18  1  1
 19 18  1  0
 20 19  2  0
 21 22  1  0
 21 20  1  0
 22 27  2  0
 23 22  1  0
 23 24  2  0
 24 25  1  0
 25 26  2  0
 27 19  1  0
 27 26  1  0
 28 30  2  0
 28 29  1  0
M  END
$$$$
