LPW.pdb
     RDKit          3D

 30 32  0  0  1  0  0  0  0  0999 V2000
   23.7587  -14.9262  -15.1248 C   0  0  0  0  0  0  0  0  0  0  0  0
   23.8443  -16.3509  -15.6146 C   0  0  1  0  0  0  0  0  0  0  0  0
   24.9789  -16.3876  -16.6474 C   0  0  0  0  0  0  0  0  0  0  0  0
   24.0695  -17.3394  -14.5364 C   0  0  0  0  0  0  0  0  0  0  0  0
   24.1850  -18.7683  -15.0575 C   0  0  2  0  0  0  0  0  0  0  0  0
   22.7615  -19.1239  -15.3347 N   0  0  0  0  0  0  0  0  0  0  0  0
   24.5856  -19.6988  -13.9708 C   0  0  0  0  0  0  0  0  0  0  0  0
   23.6937  -19.9060  -13.0615 O   0  0  0  0  0  0  0  0  0  0  0  0
   25.8381  -20.3483  -13.8787 N   0  0  0  0  0  0  0  0  0  0  0  0
   26.9249  -20.3068  -14.8149 C   0  0  0  0  0  0  0  0  0  0  0  0
   27.5502  -21.6867  -14.7309 C   0  0  0  0  0  0  0  0  0  0  0  0
   27.3917  -22.0264  -13.2745 C   0  0  0  0  0  0  0  0  0  0  0  0
   26.2355  -21.2285  -12.7764 C   0  0  1  0  0  0  0  0  0  0  0  0
   26.5727  -20.4372  -11.5678 C   0  0  0  0  0  0  0  0  0  0  0  0
   27.5371  -19.6298  -11.5987 O   0  0  0  0  0  0  0  0  0  0  0  0
   25.7974  -20.6097  -10.4014 N   0  0  0  0  0  0  0  0  0  0  0  0
   26.3123  -21.3008   -9.2168 C   0  0  1  0  0  0  0  0  0  0  0  0
   27.6879  -20.8709   -8.8986 C   0  0  0  0  0  0  0  0  0  0  0  0
   27.7626  -20.0261   -7.6930 C   0  0  0  0  0  0  0  0  0  0  0  0
   27.1314  -18.7732   -7.5263 C   0  0  0  0  0  0  0  0  0  0  0  0
   27.4558  -18.2708   -6.3260 N   0  0  0  0  0  0  0  0  0  0  0  0
   28.2657  -19.1012   -5.6654 C   0  0  0  0  0  0  0  0  0  0  0  0
   28.8623  -19.0843   -4.4224 C   0  0  0  0  0  0  0  0  0  0  0  0
   29.6602  -20.1475   -3.9883 C   0  0  0  0  0  0  0  0  0  0  0  0
   29.8388  -21.2102   -4.8241 C   0  0  0  0  0  0  0  0  0  0  0  0
   29.2420  -21.2156   -6.0571 C   0  0  0  0  0  0  0  0  0  0  0  0
   28.4531  -20.1844   -6.5119 C   0  0  0  0  0  0  0  0  0  0  0  0
   25.3786  -21.0937   -8.1256 C   0  0  0  0  0  0  0  0  0  0  0  0
   25.5907  -21.7084   -6.9025 O   0  0  0  0  0  0  0  0  0  0  0  0
   24.3610  -20.3736   -8.2192 O   0  0  0  0  0  0  0  0  0  0  0  0
  2  3  1  6
  2  1  1  0
  4  2  1  0
  5  4  1  0
  5  6  1  1
  7  5  1  0
  8  7  2  0
  9  7  1  0
  9 13  1  0
 10  9  1  0
 11 10  1  0
 11 12  1  0
 12 13  1  0
 13 14  1  1
 14 15  2  0
 16 14  1  0
 17 16  1  0
 17 28  1  0
 17 18  1  1
 19 18  1  0
 20 19  2  0
 21 22  1  0
 21 20  1  0
 22 27  2  0
 23 22  1  0
 23 24  2  0
 24 25  1  0
 25 26  2  0
 27 19  1  0
 27 26  1  0
 28 30  2  0
 28 29  1  0
M  END
$$$$
