RHD.pdb
     RDKit          3D

 30 30  0  0  1  0  0  0  0  0999 V2000
   12.2058  -21.0203   14.1901 N   0  0  0  0  0  0  0  0  0  0  0  0
   13.4144  -20.2631   14.2642 C   0  0  0  0  0  0  0  0  0  0  0  0
   14.0815  -19.9504   13.2072 N   0  0  0  0  0  0  0  0  0  0  0  0
   13.8978  -19.8426   15.5271 N   0  0  0  0  0  0  0  0  0  0  0  0
   13.0642  -20.1321   16.6980 C   0  0  0  0  0  0  0  0  0  0  0  0
   11.8989  -19.1876   16.6784 C   0  0  0  0  0  0  0  0  0  0  0  0
   11.9343  -18.2749   17.8706 C   0  0  0  0  0  0  0  0  0  0  0  0
   10.7013  -17.4109   17.8937 C   0  0  2  0  0  0  0  0  0  0  0  0
   10.6046  -16.6699   16.6493 N   0  0  0  0  0  0  0  0  0  0  0  0
   10.7557  -16.4434   19.0345 C   0  0  0  0  0  0  0  0  0  0  0  0
   11.5309  -15.4743   18.9119 O   0  0  0  0  0  0  0  0  0  0  0  0
   14.9773  -19.4362   13.2543 N   0  0  0  0  0  0  0  0  0  0  0  0
    9.9555  -16.6500   20.1757 C   0  0  1  0  0  0  0  0  0  0  0  0
    9.9844  -15.6482   21.2586 C   0  0  0  0  0  0  0  0  0  0  0  0
    8.5584  -15.2575   21.5004 C   0  0  0  0  0  0  0  0  0  0  0  0
    7.9816  -14.3934   20.4589 C   0  0  0  0  0  0  0  0  0  0  0  0
    8.0227  -13.0512   20.2310 N   0  0  0  0  0  0  0  0  0  0  0  0
    7.3521  -12.8023   19.0817 C   0  0  0  0  0  0  0  0  0  0  0  0
    6.9038  -13.9544   18.6007 N   0  0  0  0  0  0  0  0  0  0  0  0
    7.2775  -14.9352   19.4255 C   0  0  0  0  0  0  0  0  0  0  0  0
   10.4677  -16.4354   22.4550 O   0  0  0  0  0  0  0  0  0  0  0  0
   10.1675  -17.6310   22.6687 N   0  0  0  0  0  0  0  0  0  0  0  0
   11.3068  -15.8235   23.4090 C   0  0  1  0  0  0  0  0  0  0  0  0
   11.8605  -16.6125   24.5242 C   0  0  0  0  0  0  0  0  0  0  0  0
   13.1752  -15.9952   24.8368 C   0  0  0  0  0  0  0  0  0  0  0  0
   14.3755  -16.7282   24.4949 O   0  0  0  0  0  0  0  0  0  0  0  0
   14.3619  -17.8922   24.0571 C   0  0  0  0  0  0  0  0  0  0  0  0
   10.8974  -16.6976   25.6150 O   0  0  0  0  0  0  0  0  0  0  0  0
    9.9748  -15.8814   25.7533 O   0  0  0  0  0  0  0  0  0  0  0  0
   15.6140  -16.1210   24.6557 O   0  0  0  0  0  0  0  0  0  0  0  0
  2  3  2  0
  2  1  1  0
  4  2  1  0
  5  4  1  0
  6  5  1  0
  7  6  1  0
  8  7  1  0
  8  9  1  6
 10 11  2  0
 10  8  1  0
 12 10  1  0
 13 20  1  0
 13 12  1  0
 13 14  1  1
 15 14  1  0
 16 15  2  0
 17 18  1  0
 17 16  1  0
 18 19  2  0
 19 15  1  0
 20 21  2  0
 22 23  1  0
 22 20  1  0
 23 24  1  1
 24 25  1  0
 25 26  2  0
 25 29  1  0
 27 23  1  0
 28 27  2  0
 30 27  1  0
M  END
$$$$
