RHD.pdb
     RDKit          3D

 30 30  0  0  1  0  0  0  0  0999 V2000
    7.8829  -13.6371   14.3130 N   0  0  0  0  0  0  0  0  0  0  0  0
    8.1244  -14.8387   15.0462 C   0  0  0  0  0  0  0  0  0  0  0  0
    8.4957  -15.9245   14.4601 N   0  0  0  0  0  0  0  0  0  0  0  0
    7.9533  -14.8445   16.4518 N   0  0  0  0  0  0  0  0  0  0  0  0
    7.5082  -13.5975   17.0815 C   0  0  0  0  0  0  0  0  0  0  0  0
    7.3204  -13.8627   18.5461 C   0  0  0  0  0  0  0  0  0  0  0  0
    8.6139  -13.6861   19.2885 C   0  0  0  0  0  0  0  0  0  0  0  0
    8.8835  -14.8938   20.1464 C   0  0  2  0  0  0  0  0  0  0  0  0
    7.7637  -15.8130   20.0561 N   0  0  0  0  0  0  0  0  0  0  0  0
    9.0725  -14.4942   21.5765 C   0  0  0  0  0  0  0  0  0  0  0  0
    9.9743  -13.6660   21.8132 O   0  0  0  0  0  0  0  0  0  0  0  0
    8.6661  -16.8005   14.9822 N   0  0  0  0  0  0  0  0  0  0  0  0
    8.2523  -15.0477   22.5796 C   0  0  1  0  0  0  0  0  0  0  0  0
    8.4886  -14.6668   23.9854 C   0  0  0  0  0  0  0  0  0  0  0  0
    7.1598  -14.2370   24.5276 C   0  0  0  0  0  0  0  0  0  0  0  0
    7.2002  -13.7490   25.9148 C   0  0  0  0  0  0  0  0  0  0  0  0
    6.7098  -14.2334   27.0896 N   0  0  0  0  0  0  0  0  0  0  0  0
    7.0920  -13.3929   28.0796 C   0  0  0  0  0  0  0  0  0  0  0  0
    7.8028  -12.4098   27.5429 N   0  0  0  0  0  0  0  0  0  0  0  0
    7.8800  -12.6094   26.2253 C   0  0  0  0  0  0  0  0  0  0  0  0
    8.8683  -15.9723   24.6458 O   0  0  0  0  0  0  0  0  0  0  0  0
    8.2261  -17.0366   24.5037 N   0  0  0  0  0  0  0  0  0  0  0  0
   10.0047  -16.0366   25.4783 C   0  0  1  0  0  0  0  0  0  0  0  0
   10.3347  -17.2861   26.1874 C   0  0  0  0  0  0  0  0  0  0  0  0
   11.7826  -17.5135   25.9440 C   0  0  0  0  0  0  0  0  0  0  0  0
   12.2034  -17.8872   24.6105 O   0  0  0  0  0  0  0  0  0  0  0  0
   13.3965  -17.9563   24.2667 C   0  0  0  0  0  0  0  0  0  0  0  0
    9.9050  -17.2109   27.5781 O   0  0  0  0  0  0  0  0  0  0  0  0
    9.5887  -16.1419   28.1201 O   0  0  0  0  0  0  0  0  0  0  0  0
   11.2443  -18.1875   23.6522 O   0  0  0  0  0  0  0  0  0  0  0  0
  2  3  2  0
  2  1  1  0
  4  2  1  0
  5  4  1  0
  6  5  1  0
  7  6  1  0
  8  7  1  0
  8  9  1  1
 10 11  2  0
 10  8  1  0
 12 10  1  0
 13 20  1  0
 13 12  1  0
 13 14  1  1
 15 14  1  0
 16 15  2  0
 17 18  1  0
 17 16  1  0
 18 19  2  0
 19 15  1  0
 20 21  2  0
 22 23  1  0
 22 20  1  0
 23 24  1  1
 24 25  1  0
 25 26  2  0
 25 29  1  0
 27 23  1  0
 28 27  2  0
 30 27  1  0
M  END
$$$$
