RHD.pdb
     RDKit          3D

 30 30  0  0  1  0  0  0  0  0999 V2000
    7.9031  -13.8383   15.6378 N   0  0  0  0  0  0  0  0  0  0  0  0
    8.1664  -13.3486   16.9533 C   0  0  0  0  0  0  0  0  0  0  0  0
    9.2769  -12.7647   17.2470 N   0  0  0  0  0  0  0  0  0  0  0  0
    7.1880  -13.5054   17.9649 N   0  0  0  0  0  0  0  0  0  0  0  0
    7.5032  -12.9751   19.2950 C   0  0  0  0  0  0  0  0  0  0  0  0
    8.3830  -13.9710   19.9911 C   0  0  0  0  0  0  0  0  0  0  0  0
    7.5830  -14.8134   20.9429 C   0  0  0  0  0  0  0  0  0  0  0  0
    8.4573  -15.8821   21.5434 C   0  0  2  0  0  0  0  0  0  0  0  0
    7.7483  -17.1487   21.5385 N   0  0  0  0  0  0  0  0  0  0  0  0
    8.8244  -15.5341   22.9523 C   0  0  0  0  0  0  0  0  0  0  0  0
    9.4909  -14.4931   23.1176 O   0  0  0  0  0  0  0  0  0  0  0  0
    9.5445  -12.5510   18.2225 N   0  0  0  0  0  0  0  0  0  0  0  0
    8.4190  -16.3660   24.0147 C   0  0  1  0  0  0  0  0  0  0  0  0
    8.8936  -16.0641   25.3787 C   0  0  0  0  0  0  0  0  0  0  0  0
    7.6713  -15.7339   26.1796 C   0  0  0  0  0  0  0  0  0  0  0  0
    7.3092  -14.3081   26.1732 C   0  0  0  0  0  0  0  0  0  0  0  0
    6.2580  -13.6141   25.6546 N   0  0  0  0  0  0  0  0  0  0  0  0
    6.4074  -12.3130   25.9970 C   0  0  0  0  0  0  0  0  0  0  0  0
    7.5191  -12.1929   26.7108 N   0  0  0  0  0  0  0  0  0  0  0  0
    8.0821  -13.3974   26.8292 C   0  0  0  0  0  0  0  0  0  0  0  0
    9.4337  -17.3890   25.8660 O   0  0  0  0  0  0  0  0  0  0  0  0
    8.7677  -18.4479   25.8834 N   0  0  0  0  0  0  0  0  0  0  0  0
   10.7600  -17.4793   26.3367 C   0  0  1  0  0  0  0  0  0  0  0  0
   11.2751  -18.7566   26.8619 C   0  0  0  0  0  0  0  0  0  0  0  0
   12.7499  -18.6922   26.6945 C   0  0  0  0  0  0  0  0  0  0  0  0
   13.2894  -18.7176   25.3517 O   0  0  0  0  0  0  0  0  0  0  0  0
   12.5931  -18.9186   24.3411 C   0  0  0  0  0  0  0  0  0  0  0  0
   10.7755  -18.9909   28.2109 O   0  0  0  0  0  0  0  0  0  0  0  0
   10.2017  -18.1117   28.8701 O   0  0  0  0  0  0  0  0  0  0  0  0
   14.6489  -18.5097   25.1593 O   0  0  0  0  0  0  0  0  0  0  0  0
  2  3  2  0
  2  1  1  0
  4  2  1  0
  5  4  1  0
  6  5  1  0
  7  6  1  0
  8  7  1  0
  8  9  1  1
 10 11  2  0
 10  8  1  0
 12 10  1  0
 13 20  1  0
 13 12  1  0
 13 14  1  1
 15 14  1  0
 16 15  2  0
 17 18  1  0
 17 16  1  0
 18 19  2  0
 19 15  1  0
 20 21  2  0
 22 23  1  0
 22 20  1  0
 23 24  1  1
 24 25  1  0
 25 26  2  0
 25 29  1  0
 27 23  1  0
 28 27  2  0
 30 27  1  0
M  END
$$$$
