RHD.pdb
     RDKit          3D

 30 30  0  0  1  0  0  0  0  0999 V2000
   14.3974  -22.8046   15.8776 N   0  0  0  0  0  0  0  0  0  0  0  0
   14.0382  -21.4261   15.7759 C   0  0  0  0  0  0  0  0  0  0  0  0
   14.7408  -20.5940   15.0873 N   0  0  0  0  0  0  0  0  0  0  0  0
   12.8830  -20.9549   16.4457 N   0  0  0  0  0  0  0  0  0  0  0  0
   12.6303  -19.5109   16.4185 C   0  0  0  0  0  0  0  0  0  0  0  0
   11.3329  -19.2570   17.1276 C   0  0  0  0  0  0  0  0  0  0  0  0
   11.0071  -17.7909   17.1313 C   0  0  0  0  0  0  0  0  0  0  0  0
    9.7043  -17.5554   17.8484 C   0  0  2  0  0  0  0  0  0  0  0  0
    8.7298  -17.0134   16.9190 N   0  0  0  0  0  0  0  0  0  0  0  0
    9.8901  -16.5908   18.9779 C   0  0  0  0  0  0  0  0  0  0  0  0
   10.2958  -15.4498   18.6803 O   0  0  0  0  0  0  0  0  0  0  0  0
   14.4925  -19.5930   15.0146 N   0  0  0  0  0  0  0  0  0  0  0  0
    9.6102  -16.9882   20.3004 C   0  0  1  0  0  0  0  0  0  0  0  0
    9.7442  -15.9985   21.3865 C   0  0  0  0  0  0  0  0  0  0  0  0
    8.3573  -15.5135   21.6792 C   0  0  0  0  0  0  0  0  0  0  0  0
    7.8661  -14.4844   20.7499 C   0  0  0  0  0  0  0  0  0  0  0  0
    7.5711  -14.4915   19.4201 N   0  0  0  0  0  0  0  0  0  0  0  0
    7.1002  -13.2658   19.0906 C   0  0  0  0  0  0  0  0  0  0  0  0
    7.0981  -12.5110   20.1815 N   0  0  0  0  0  0  0  0  0  0  0  0
    7.5609  -13.2357   21.2025 C   0  0  0  0  0  0  0  0  0  0  0  0
   10.2132  -16.8253   22.5616 O   0  0  0  0  0  0  0  0  0  0  0  0
    9.8058  -17.9830   22.8047 N   0  0  0  0  0  0  0  0  0  0  0  0
   11.1639  -16.2979   23.4598 C   0  0  1  0  0  0  0  0  0  0  0  0
   11.6527  -17.1139   24.5858 C   0  0  0  0  0  0  0  0  0  0  0  0
   13.0182  -16.6093   24.8822 C   0  0  0  0  0  0  0  0  0  0  0  0
   14.0593  -16.8320   23.9016 O   0  0  0  0  0  0  0  0  0  0  0  0
   13.8950  -17.5168   22.8766 C   0  0  0  0  0  0  0  0  0  0  0  0
   10.6922  -17.0960   25.6821 O   0  0  0  0  0  0  0  0  0  0  0  0
    9.7213  -16.3256   25.7037 O   0  0  0  0  0  0  0  0  0  0  0  0
   15.3110  -16.2624   24.0950 O   0  0  0  0  0  0  0  0  0  0  0  0
  2  3  2  0
  2  1  1  0
  4  2  1  0
  5  4  1  0
  6  5  1  0
  7  6  1  0
  8  7  1  0
  8  9  1  6
 10 11  2  0
 10  8  1  0
 12 10  1  0
 13 20  1  0
 13 12  1  0
 13 14  1  1
 15 14  1  0
 16 15  2  0
 17 18  1  0
 17 16  1  0
 18 19  2  0
 19 15  1  0
 20 21  2  0
 22 23  1  0
 22 20  1  0
 23 24  1  1
 24 25  1  0
 25 26  2  0
 25 29  1  0
 27 23  1  0
 28 27  2  0
 30 27  1  0
M  END
$$$$
