RHD.pdb
     RDKit          3D

 30 30  0  0  1  0  0  0  0  0999 V2000
    7.5849  -13.1506   14.9404 N   0  0  0  0  0  0  0  0  0  0  0  0
    8.0065  -14.2968   15.6808 C   0  0  0  0  0  0  0  0  0  0  0  0
    8.7217  -15.2234   15.1422 N   0  0  0  0  0  0  0  0  0  0  0  0
    7.6327  -14.4251   17.0406 N   0  0  0  0  0  0  0  0  0  0  0  0
    8.4566  -13.7297   18.0342 C   0  0  0  0  0  0  0  0  0  0  0  0
    7.5388  -12.9520   18.9305 C   0  0  0  0  0  0  0  0  0  0  0  0
    6.8776  -13.8579   19.9294 C   0  0  0  0  0  0  0  0  0  0  0  0
    7.8096  -14.9804   20.3015 C   0  0  2  0  0  0  0  0  0  0  0  0
    7.0719  -16.2298   20.3439 N   0  0  0  0  0  0  0  0  0  0  0  0
    8.4263  -14.7323   21.6426 C   0  0  0  0  0  0  0  0  0  0  0  0
    9.2015  -13.7596   21.7324 O   0  0  0  0  0  0  0  0  0  0  0  0
    9.0466  -16.0473   15.6756 N   0  0  0  0  0  0  0  0  0  0  0  0
    8.1221  -15.5776   22.7281 C   0  0  1  0  0  0  0  0  0  0  0  0
    8.7580  -15.3189   24.0341 C   0  0  0  0  0  0  0  0  0  0  0  0
    7.6506  -15.3263   25.0433 C   0  0  0  0  0  0  0  0  0  0  0  0
    7.1674  -13.9897   25.4228 C   0  0  0  0  0  0  0  0  0  0  0  0
    7.5520  -12.7273   25.0855 N   0  0  0  0  0  0  0  0  0  0  0  0
    6.7117  -11.8582   25.6947 C   0  0  0  0  0  0  0  0  0  0  0  0
    5.8243  -12.5540   26.3934 N   0  0  0  0  0  0  0  0  0  0  0  0
    6.0853  -13.8541   26.2400 C   0  0  0  0  0  0  0  0  0  0  0  0
    9.6113  -16.5457   24.2606 O   0  0  0  0  0  0  0  0  0  0  0  0
    9.2497  -17.7080   23.9712 N   0  0  0  0  0  0  0  0  0  0  0  0
   10.8953  -16.4160   24.8289 C   0  0  1  0  0  0  0  0  0  0  0  0
   11.7235  -17.6112   25.0705 C   0  0  0  0  0  0  0  0  0  0  0  0
   13.0921  -17.2469   24.6216 C   0  0  0  0  0  0  0  0  0  0  0  0
   14.1231  -18.2615   24.6720 O   0  0  0  0  0  0  0  0  0  0  0  0
   13.8978  -19.4480   24.9687 C   0  0  0  0  0  0  0  0  0  0  0  0
   11.5810  -18.0588   26.4503 O   0  0  0  0  0  0  0  0  0  0  0  0
   11.0228  -17.3722   27.3184 O   0  0  0  0  0  0  0  0  0  0  0  0
   15.4354  -17.9149   24.3781 O   0  0  0  0  0  0  0  0  0  0  0  0
  2  3  2  0
  2  1  1  0
  4  2  1  0
  5  4  1  0
  6  5  1  0
  7  6  1  0
  8  7  1  0
  8  9  1  1
 10 11  2  0
 10  8  1  0
 12 10  1  0
 13 20  1  0
 13 12  1  0
 13 14  1  1
 15 14  1  0
 16 15  2  0
 17 18  1  0
 17 16  1  0
 18 19  2  0
 19 15  1  0
 20 21  2  0
 22 23  1  0
 22 20  1  0
 23 24  1  1
 24 25  1  0
 25 26  2  0
 25 29  1  0
 27 23  1  0
 28 27  2  0
 30 27  1  0
M  END
$$$$
