RHD.pdb
     RDKit          3D

 30 30  0  0  1  0  0  0  0  0999 V2000
    6.7752  -14.6104   16.2881 N   0  0  0  0  0  0  0  0  0  0  0  0
    7.6932  -13.5316   16.4703 C   0  0  0  0  0  0  0  0  0  0  0  0
    8.5135  -13.1785   15.5416 N   0  0  0  0  0  0  0  0  0  0  0  0
    7.7080  -12.8283   17.6993 N   0  0  0  0  0  0  0  0  0  0  0  0
    6.7653  -13.2620   18.7351 C   0  0  0  0  0  0  0  0  0  0  0  0
    7.3379  -14.4796   19.3984 C   0  0  0  0  0  0  0  0  0  0  0  0
    7.6377  -14.2059   20.8443 C   0  0  0  0  0  0  0  0  0  0  0  0
    8.9419  -14.8519   21.2304 C   0  0  2  0  0  0  0  0  0  0  0  0
    8.9513  -16.2323   20.7815 N   0  0  0  0  0  0  0  0  0  0  0  0
    9.1276  -14.8206   22.7153 C   0  0  0  0  0  0  0  0  0  0  0  0
    9.1392  -13.6968   23.2557 O   0  0  0  0  0  0  0  0  0  0  0  0
    9.1487  -12.3696   15.6473 N   0  0  0  0  0  0  0  0  0  0  0  0
    9.2787  -16.0227   23.4346 C   0  0  1  0  0  0  0  0  0  0  0  0
    9.2467  -15.9810   24.9091 C   0  0  0  0  0  0  0  0  0  0  0  0
    7.8130  -15.7662   25.2871 C   0  0  0  0  0  0  0  0  0  0  0  0
    7.4894  -14.3853   25.6778 C   0  0  0  0  0  0  0  0  0  0  0  0
    8.2188  -13.2366   25.7371 N   0  0  0  0  0  0  0  0  0  0  0  0
    7.3909  -12.2358   26.1187 C   0  0  0  0  0  0  0  0  0  0  0  0
    6.1766  -12.7406   26.2930 N   0  0  0  0  0  0  0  0  0  0  0  0
    6.2164  -14.0484   26.0288 C   0  0  0  0  0  0  0  0  0  0  0  0
    9.6356  -17.3853   25.3105 O   0  0  0  0  0  0  0  0  0  0  0  0
    9.7954  -18.3225   24.4972 N   0  0  0  0  0  0  0  0  0  0  0  0
    9.8390  -17.6989   26.6703 C   0  0  1  0  0  0  0  0  0  0  0  0
   10.9800  -18.5400   27.0747 C   0  0  0  0  0  0  0  0  0  0  0  0
   12.1634  -17.9686   26.3817 C   0  0  0  0  0  0  0  0  0  0  0  0
   12.8433  -18.7855   25.3992 O   0  0  0  0  0  0  0  0  0  0  0  0
   12.4468  -19.9140   25.0590 C   0  0  0  0  0  0  0  0  0  0  0  0
   11.0513  -18.6370   28.5273 O   0  0  0  0  0  0  0  0  0  0  0  0
   10.6971  -17.7133   29.2741 O   0  0  0  0  0  0  0  0  0  0  0  0
   13.9971  -18.3049   24.7940 O   0  0  0  0  0  0  0  0  0  0  0  0
  2  3  2  0
  2  1  1  0
  4  2  1  0
  5  4  1  0
  6  5  1  0
  7  6  1  0
  8  7  1  0
  8  9  1  1
 10 11  2  0
 10  8  1  0
 12 10  1  0
 13 20  1  0
 13 12  1  0
 13 14  1  1
 15 14  1  0
 16 15  2  0
 17 18  1  0
 17 16  1  0
 18 19  2  0
 19 15  1  0
 20 21  2  0
 22 23  1  0
 22 20  1  0
 23 24  1  1
 24 25  1  0
 25 26  2  0
 25 29  1  0
 27 23  1  0
 28 27  2  0
 30 27  1  0
M  END
$$$$
