RHD.pdb
     RDKit          3D

 30 30  0  0  1  0  0  0  0  0999 V2000
    8.5987  -19.0773   15.9021 N   0  0  0  0  0  0  0  0  0  0  0  0
    8.0169  -17.9568   16.5695 C   0  0  0  0  0  0  0  0  0  0  0  0
    6.8071  -17.5823   16.3317 N   0  0  0  0  0  0  0  0  0  0  0  0
    8.7824  -17.2345   17.5169 N   0  0  0  0  0  0  0  0  0  0  0  0
    9.2396  -15.8953   17.1334 C   0  0  0  0  0  0  0  0  0  0  0  0
    8.4851  -14.8967   17.9604 C   0  0  0  0  0  0  0  0  0  0  0  0
    8.9969  -14.8806   19.3723 C   0  0  0  0  0  0  0  0  0  0  0  0
    8.0958  -14.0390   20.2365 C   0  0  2  0  0  0  0  0  0  0  0  0
    8.1450  -12.6589   19.7895 N   0  0  0  0  0  0  0  0  0  0  0  0
    8.5266  -14.1035   21.6686 C   0  0  0  0  0  0  0  0  0  0  0  0
    9.4092  -13.2983   22.0258 O   0  0  0  0  0  0  0  0  0  0  0  0
    6.3708  -16.7859   16.8259 N   0  0  0  0  0  0  0  0  0  0  0  0
    7.9410  -15.0418   22.5416 C   0  0  2  0  0  0  0  0  0  0  0  0
    8.2574  -14.9717   23.9810 C   0  0  0  0  0  0  0  0  0  0  0  0
    6.9403  -14.9301   24.6937 C   0  0  0  0  0  0  0  0  0  0  0  0
    6.6436  -13.6448   25.3448 C   0  0  0  0  0  0  0  0  0  0  0  0
    7.2919  -12.4475   25.3859 N   0  0  0  0  0  0  0  0  0  0  0  0
    6.5298  -11.5847   26.0983 C   0  0  0  0  0  0  0  0  0  0  0  0
    5.4344  -12.2206   26.4923 N   0  0  0  0  0  0  0  0  0  0  0  0
    5.4853  -13.4765   26.0428 C   0  0  0  0  0  0  0  0  0  0  0  0
    8.9062  -16.3070   24.2652 O   0  0  0  0  0  0  0  0  0  0  0  0
    8.5537  -17.3803   23.7276 N   0  0  0  0  0  0  0  0  0  0  0  0
    9.9732  -16.3909   25.1834 C   0  0  1  0  0  0  0  0  0  0  0  0
   10.5736  -17.6981   25.5050 C   0  0  0  0  0  0  0  0  0  0  0  0
   11.9583  -17.6449   24.9692 C   0  0  0  0  0  0  0  0  0  0  0  0
   12.8303  -18.7750   25.2091 O   0  0  0  0  0  0  0  0  0  0  0  0
   12.4710  -19.7946   25.8238 C   0  0  0  0  0  0  0  0  0  0  0  0
   10.4286  -17.9891   26.9259 O   0  0  0  0  0  0  0  0  0  0  0  0
   10.0410  -17.1411   27.7427 O   0  0  0  0  0  0  0  0  0  0  0  0
   14.1363  -18.7401   24.7384 O   0  0  0  0  0  0  0  0  0  0  0  0
  2  3  2  0
  2  1  1  0
  4  2  1  0
  5  4  1  0
  6  5  1  0
  7  6  1  0
  8  7  1  0
  8  9  1  6
 10 11  2  0
 10  8  1  0
 12 10  1  0
 13 20  1  0
 13 12  1  0
 13 14  1  6
 15 14  1  0
 16 15  2  0
 17 18  1  0
 17 16  1  0
 18 19  2  0
 19 15  1  0
 20 21  2  0
 22 23  1  0
 22 20  1  0
 23 24  1  1
 24 25  1  0
 25 26  2  0
 25 29  1  0
 27 23  1  0
 28 27  2  0
 30 27  1  0
M  END
$$$$
