RHD.pdb
     RDKit          3D

 30 30  0  0  1  0  0  0  0  0999 V2000
    6.0160  -18.7263   16.2535 N   0  0  0  0  0  0  0  0  0  0  0  0
    6.7585  -17.8660   15.3885 C   0  0  0  0  0  0  0  0  0  0  0  0
    6.4901  -17.7770   14.1314 N   0  0  0  0  0  0  0  0  0  0  0  0
    7.8172  -17.0890   15.9183 N   0  0  0  0  0  0  0  0  0  0  0  0
    7.9720  -17.0662   17.3761 C   0  0  0  0  0  0  0  0  0  0  0  0
    7.7999  -15.6485   17.8353 C   0  0  0  0  0  0  0  0  0  0  0  0
    7.8696  -15.5626   19.3331 C   0  0  0  0  0  0  0  0  0  0  0  0
    7.5352  -14.1656   19.7843 C   0  0  2  0  0  0  0  0  0  0  0  0
    8.1394  -13.2054   18.8787 N   0  0  0  0  0  0  0  0  0  0  0  0
    8.0491  -13.9205   21.1687 C   0  0  0  0  0  0  0  0  0  0  0  0
    9.2754  -13.7270   21.2859 O   0  0  0  0  0  0  0  0  0  0  0  0
    7.0650  -17.2105   13.4852 N   0  0  0  0  0  0  0  0  0  0  0  0
    7.1605  -13.9162   22.2622 C   0  0  2  0  0  0  0  0  0  0  0  0
    7.7046  -13.7467   23.6232 C   0  0  0  0  0  0  0  0  0  0  0  0
    6.5565  -13.3015   24.4765 C   0  0  0  0  0  0  0  0  0  0  0  0
    6.9083  -13.0487   25.8824 C   0  0  0  0  0  0  0  0  0  0  0  0
    7.3687  -11.9525   26.5470 N   0  0  0  0  0  0  0  0  0  0  0  0
    7.4701  -12.2718   27.8586 C   0  0  0  0  0  0  0  0  0  0  0  0
    7.0836  -13.5313   28.0140 N   0  0  0  0  0  0  0  0  0  0  0  0
    6.7373  -14.0213   26.8215 C   0  0  0  0  0  0  0  0  0  0  0  0
    8.0789  -15.1531   24.0315 O   0  0  0  0  0  0  0  0  0  0  0  0
    7.5020  -16.1782   23.6052 N   0  0  0  0  0  0  0  0  0  0  0  0
    9.1331  -15.3652   24.9437 C   0  0  1  0  0  0  0  0  0  0  0  0
    9.4691  -16.7312   25.3840 C   0  0  0  0  0  0  0  0  0  0  0  0
   10.3297  -17.2963   24.3128 C   0  0  0  0  0  0  0  0  0  0  0  0
   10.9719  -18.5714   24.5504 O   0  0  0  0  0  0  0  0  0  0  0  0
   10.8189  -19.2274   25.5958 C   0  0  0  0  0  0  0  0  0  0  0  0
   10.0245  -16.7096   26.7314 O   0  0  0  0  0  0  0  0  0  0  0  0
   10.4140  -17.7359   27.3072 O   0  0  0  0  0  0  0  0  0  0  0  0
   11.8041  -19.1074   23.5764 O   0  0  0  0  0  0  0  0  0  0  0  0
  2  3  2  0
  2  1  1  0
  4  2  1  0
  5  4  1  0
  6  5  1  0
  7  6  1  0
  8  7  1  0
  8  9  1  6
 10 11  2  0
 10  8  1  0
 12 10  1  0
 13 20  1  0
 13 12  1  0
 13 14  1  6
 15 14  1  0
 16 15  2  0
 17 18  1  0
 17 16  1  0
 18 19  2  0
 19 15  1  0
 20 21  2  0
 22 23  1  0
 22 20  1  0
 23 24  1  1
 24 25  1  0
 25 26  2  0
 25 29  1  0
 27 23  1  0
 28 27  2  0
 30 27  1  0
M  END
$$$$
