RHD.pdb
     RDKit          3D

 30 30  0  0  1  0  0  0  0  0999 V2000
    8.0982  -13.3066   15.4385 N   0  0  0  0  0  0  0  0  0  0  0  0
    8.4876  -14.3528   16.3293 C   0  0  0  0  0  0  0  0  0  0  0  0
    8.2559  -15.5912   16.0592 N   0  0  0  0  0  0  0  0  0  0  0  0
    9.1445  -14.0287   17.5412 N   0  0  0  0  0  0  0  0  0  0  0  0
    8.4779  -13.0768   18.4352 C   0  0  0  0  0  0  0  0  0  0  0  0
    7.3555  -13.7978   19.1213 C   0  0  0  0  0  0  0  0  0  0  0  0
    7.5617  -13.8093   20.6089 C   0  0  0  0  0  0  0  0  0  0  0  0
    8.5547  -14.8779   20.9822 C   0  0  2  0  0  0  0  0  0  0  0  0
    7.9721  -16.1861   20.7447 N   0  0  0  0  0  0  0  0  0  0  0  0
    8.9319  -14.7668   22.4265 C   0  0  0  0  0  0  0  0  0  0  0  0
    9.4576  -13.6954   22.7883 O   0  0  0  0  0  0  0  0  0  0  0  0
    8.5701  -16.3572   16.6784 N   0  0  0  0  0  0  0  0  0  0  0  0
    8.6897  -15.8413   23.3052 C   0  0  1  0  0  0  0  0  0  0  0  0
    9.0126  -15.6799   24.7358 C   0  0  0  0  0  0  0  0  0  0  0  0
    7.7006  -15.5230   25.4421 C   0  0  0  0  0  0  0  0  0  0  0  0
    7.2892  -14.1266   25.6537 C   0  0  0  0  0  0  0  0  0  0  0  0
    7.8546  -12.9285   25.3370 N   0  0  0  0  0  0  0  0  0  0  0  0
    7.0042  -11.9498   25.7265 C   0  0  0  0  0  0  0  0  0  0  0  0
    5.9353  -12.5162   26.2708 N   0  0  0  0  0  0  0  0  0  0  0  0
    6.0902  -13.8416   26.2353 C   0  0  0  0  0  0  0  0  0  0  0  0
    9.5978  -17.0198   25.1190 O   0  0  0  0  0  0  0  0  0  0  0  0
    9.0685  -18.1172   24.8348 N   0  0  0  0  0  0  0  0  0  0  0  0
   10.8088  -17.0799   25.8391 C   0  0  1  0  0  0  0  0  0  0  0  0
   11.3902  -18.3842   26.2044 C   0  0  0  0  0  0  0  0  0  0  0  0
   12.8502  -18.2530   25.9626 C   0  0  0  0  0  0  0  0  0  0  0  0
   13.5709  -19.4090   25.4734 O   0  0  0  0  0  0  0  0  0  0  0  0
   13.6108  -20.4941   26.0797 C   0  0  0  0  0  0  0  0  0  0  0  0
   10.9777  -18.7669   27.5490 O   0  0  0  0  0  0  0  0  0  0  0  0
   10.4082  -17.9803   28.3195 O   0  0  0  0  0  0  0  0  0  0  0  0
   14.2584  -19.3245   24.2699 O   0  0  0  0  0  0  0  0  0  0  0  0
  2  3  2  0
  2  1  1  0
  4  2  1  0
  5  4  1  0
  6  5  1  0
  7  6  1  0
  8  7  1  0
  8  9  1  1
 10 11  2  0
 10  8  1  0
 12 10  1  0
 13 20  1  0
 13 12  1  0
 13 14  1  6
 15 14  1  0
 16 15  2  0
 17 18  1  0
 17 16  1  0
 18 19  2  0
 19 15  1  0
 20 21  2  0
 22 23  1  0
 22 20  1  0
 23 24  1  1
 24 25  1  0
 25 26  2  0
 25 29  1  0
 27 23  1  0
 28 27  2  0
 30 27  1  0
M  END
$$$$
