HGM.pdb
     RDKit          3D

 23 23  0  0  1  0  0  0  0  0999 V2000
   25.3105  -19.1079  -15.4449 N   0  0  0  0  0  0  0  0  0  0  0  0
   26.3558  -19.0351  -14.4719 C   0  0  1  0  0  0  0  0  0  0  0  0
   27.2520  -17.8677  -14.8080 C   0  0  0  0  0  0  0  0  0  0  0  0
   27.8750  -17.9790  -16.1376 C   0  0  0  0  0  0  0  0  0  0  0  0
   28.8458  -18.8503  -16.5366 C   0  0  0  0  0  0  0  0  0  0  0  0
   29.1205  -18.6057  -17.8268 N   0  0  0  0  0  0  0  0  0  0  0  0
   28.3363  -17.6028  -18.2212 C   0  0  0  0  0  0  0  0  0  0  0  0
   27.5709  -17.2133  -17.1940 N   0  0  0  0  0  0  0  0  0  0  0  0
   25.7804  -18.8978  -13.0972 C   0  0  0  0  0  0  0  0  0  0  0  0
   25.0956  -17.8803  -12.7999 O   0  0  0  0  0  0  0  0  0  0  0  0
   26.0201  -19.9267  -12.1464 N   0  0  0  0  0  0  0  0  0  0  0  0
   25.5987  -19.8092  -10.7880 C   0  0  0  0  0  0  0  0  0  0  0  0
   26.4178  -20.6058   -9.8465 C   0  0  0  0  0  0  0  0  0  0  0  0
   27.0768  -21.6269  -10.1599 O   0  0  0  0  0  0  0  0  0  0  0  0
   28.1474  -18.6891   -2.7385 C   0  0  0  0  0  0  0  0  0  0  0  0
   28.4746  -19.9110   -4.0134 S   0  0  0  0  0  0  0  0  0  0  0  0
   27.8178  -19.4278   -5.6185 C   0  0  0  0  0  0  0  0  0  0  0  0
   28.1483  -20.4162   -6.6670 C   0  0  0  0  0  0  0  0  0  0  0  0
   27.0289  -21.0132   -7.4409 C   0  0  2  0  0  0  0  0  0  0  0  0
   26.4675  -20.1901   -8.4820 N   0  0  0  0  0  0  0  0  0  0  0  0
   25.9614  -21.3847   -6.4759 C   0  0  0  0  0  0  0  0  0  0  0  0
   26.2016  -22.2562   -5.6127 O   0  0  0  0  0  0  0  0  0  0  0  0
   24.7013  -20.7913   -6.5039 O   0  0  0  0  0  0  0  0  0  0  0  0
  2  1  1  6
  2  9  1  0
  3  2  1  0
  4  3  1  0
  5  4  2  0
  6  7  1  0
  6  5  1  0
  7  8  2  0
  8  4  1  0
  9 10  2  0
 11  9  1  0
 11 12  1  0
 12 13  1  0
 13 14  2  0
 16 15  1  0
 17 16  1  0
 18 17  1  0
 19 18  1  1
 20 19  1  0
 20 13  1  0
 21 19  1  0
 22 21  2  0
 23 21  1  0
M  END
$$$$
