HGM.pdb
     RDKit          3D

 23 23  0  0  1  0  0  0  0  0999 V2000
   24.2430  -21.5717  -13.9559 N   0  0  0  0  0  0  0  0  0  0  0  0
   24.4323  -20.2494  -13.4457 C   0  0  1  0  0  0  0  0  0  0  0  0
   23.3018  -19.9275  -12.4986 C   0  0  0  0  0  0  0  0  0  0  0  0
   21.9714  -20.0746  -13.1124 C   0  0  0  0  0  0  0  0  0  0  0  0
   21.4433  -19.3591  -14.1468 C   0  0  0  0  0  0  0  0  0  0  0  0
   20.2066  -19.8215  -14.3846 N   0  0  0  0  0  0  0  0  0  0  0  0
   19.9712  -20.8042  -13.5156 C   0  0  0  0  0  0  0  0  0  0  0  0
   21.0457  -20.9658  -12.7334 N   0  0  0  0  0  0  0  0  0  0  0  0
   25.7593  -20.1386  -12.7626 C   0  0  0  0  0  0  0  0  0  0  0  0
   26.1209  -19.0370  -12.2642 O   0  0  0  0  0  0  0  0  0  0  0  0
   26.5921  -21.2880  -12.6892 N   0  0  0  0  0  0  0  0  0  0  0  0
   27.9070  -21.2307  -12.1375 C   0  0  0  0  0  0  0  0  0  0  0  0
   27.9240  -21.2114  -10.6572 C   0  0  0  0  0  0  0  0  0  0  0  0
   28.8627  -21.6476   -9.9476 O   0  0  0  0  0  0  0  0  0  0  0  0
   28.8911  -19.9232   -3.9965 C   0  0  0  0  0  0  0  0  0  0  0  0
   28.8693  -19.9068   -5.7922 S   0  0  0  0  0  0  0  0  0  0  0  0
   27.3307  -19.2512   -6.4586 C   0  0  0  0  0  0  0  0  0  0  0  0
   27.2895  -19.3397   -7.9337 C   0  0  0  0  0  0  0  0  0  0  0  0
   26.7212  -20.5701   -8.5433 C   0  0  2  0  0  0  0  0  0  0  0  0
   26.7958  -20.6589   -9.9797 N   0  0  0  0  0  0  0  0  0  0  0  0
   25.3015  -20.6708   -8.1156 C   0  0  0  0  0  0  0  0  0  0  0  0
   24.4018  -20.3484   -8.9213 O   0  0  0  0  0  0  0  0  0  0  0  0
   24.9427  -21.1135   -6.8444 O   0  0  0  0  0  0  0  0  0  0  0  0
  2  1  1  1
  2  9  1  0
  3  2  1  0
  4  3  1  0
  5  4  2  0
  6  7  1  0
  6  5  1  0
  7  8  2  0
  8  4  1  0
  9 10  2  0
 11  9  1  0
 11 12  1  0
 12 13  1  0
 13 14  2  0
 16 15  1  0
 17 16  1  0
 18 17  1  0
 19 18  1  6
 20 19  1  0
 20 13  1  0
 21 19  1  0
 22 21  2  0
 23 21  1  0
M  END
$$$$
