HGM.pdb
     RDKit          3D

 23 23  0  0  1  0  0  0  0  0999 V2000
   18.1474  -11.8841  -14.9864 N   0  0  0  0  0  0  0  0  0  0  0  0
   16.9154  -11.2313  -14.6694 C   0  0  1  0  0  0  0  0  0  0  0  0
   16.0200  -12.2080  -13.9462 C   0  0  0  0  0  0  0  0  0  0  0  0
   15.6660  -13.3827  -14.7605 C   0  0  0  0  0  0  0  0  0  0  0  0
   14.6958  -13.4780  -15.7147 C   0  0  0  0  0  0  0  0  0  0  0  0
   14.7159  -14.7261  -16.2062 N   0  0  0  0  0  0  0  0  0  0  0  0
   15.6791  -15.3927  -15.5703 C   0  0  0  0  0  0  0  0  0  0  0  0
   16.2656  -14.5783  -14.6840 N   0  0  0  0  0  0  0  0  0  0  0  0
   17.1693  -10.0123  -13.8391 C   0  0  0  0  0  0  0  0  0  0  0  0
   17.8489  -10.1025  -12.7796 O   0  0  0  0  0  0  0  0  0  0  0  0
   16.6342   -8.7668  -14.2661 N   0  0  0  0  0  0  0  0  0  0  0  0
   16.8763   -7.5577  -13.5477 C   0  0  0  0  0  0  0  0  0  0  0  0
   15.8861   -7.3002  -12.4777 C   0  0  0  0  0  0  0  0  0  0  0  0
   14.8744   -8.0085  -12.2546 O   0  0  0  0  0  0  0  0  0  0  0  0
   12.8045   -7.4834   -5.8716 C   0  0  0  0  0  0  0  0  0  0  0  0
   13.9610   -7.8369   -7.1994 S   0  0  0  0  0  0  0  0  0  0  0  0
   14.0914   -6.4844   -8.3805 C   0  0  0  0  0  0  0  0  0  0  0  0
   14.9794   -6.8270   -9.5116 C   0  0  0  0  0  0  0  0  0  0  0  0
   15.1723   -5.8119  -10.5798 C   0  0  2  0  0  0  0  0  0  0  0  0
   16.0884   -6.1668  -11.6340 N   0  0  0  0  0  0  0  0  0  0  0  0
   15.6296   -4.5557   -9.9306 C   0  0  0  0  0  0  0  0  0  0  0  0
   16.8136   -4.1880  -10.0895 O   0  0  0  0  0  0  0  0  0  0  0  0
   14.7791   -3.7754   -9.1504 O   0  0  0  0  0  0  0  0  0  0  0  0
  2  1  1  1
  2  9  1  0
  3  2  1  0
  4  3  1  0
  5  4  2  0
  6  7  1  0
  6  5  1  0
  7  8  2  0
  8  4  1  0
  9 10  2  0
 11  9  1  0
 11 12  1  0
 12 13  1  0
 13 14  2  0
 16 15  1  0
 17 16  1  0
 18 17  1  0
 19 18  1  1
 20 19  1  0
 20 13  1  0
 21 19  1  0
 22 21  2  0
 23 21  1  0
M  END
$$$$
