HGM.pdb
     RDKit          3D

 23 23  0  0  1  0  0  0  0  0999 V2000
    9.4978  -16.4181    1.9858 N   0  0  0  0  0  0  0  0  0  0  0  0
   10.5612  -17.0174    1.2410 C   0  0  1  0  0  0  0  0  0  0  0  0
   10.8109  -16.1931    0.0013 C   0  0  0  0  0  0  0  0  0  0  0  0
    9.6300  -16.0870   -0.8720 C   0  0  0  0  0  0  0  0  0  0  0  0
    8.7855  -15.0250   -1.0122 C   0  0  0  0  0  0  0  0  0  0  0  0
    7.8459  -15.3556   -1.9109 N   0  0  0  0  0  0  0  0  0  0  0  0
    8.1016  -16.5978   -2.3208 C   0  0  0  0  0  0  0  0  0  0  0  0
    9.1915  -17.0530   -1.6902 N   0  0  0  0  0  0  0  0  0  0  0  0
   11.7950  -17.1180    2.0820 C   0  0  0  0  0  0  0  0  0  0  0  0
   12.0328  -16.2418    2.9586 O   0  0  0  0  0  0  0  0  0  0  0  0
   12.6814  -18.2092    1.8731 N   0  0  0  0  0  0  0  0  0  0  0  0
   13.8984  -18.3413    2.6067 C   0  0  0  0  0  0  0  0  0  0  0  0
   14.7371  -19.4752    2.1565 C   0  0  0  0  0  0  0  0  0  0  0  0
   15.5127  -19.4431    1.1704 O   0  0  0  0  0  0  0  0  0  0  0  0
   19.9516  -22.9428    3.8635 C   0  0  0  0  0  0  0  0  0  0  0  0
   19.2042  -21.4051    4.4132 S   0  0  0  0  0  0  0  0  0  0  0  0
   17.4097  -21.4185    4.2684 C   0  0  0  0  0  0  0  0  0  0  0  0
   16.9733  -21.6144    2.8696 C   0  0  0  0  0  0  0  0  0  0  0  0
   15.5241  -21.8201    2.6130 C   0  0  2  0  0  0  0  0  0  0  0  0
   14.6650  -20.6970    2.8908 N   0  0  0  0  0  0  0  0  0  0  0  0
   15.0850  -22.9887    3.4195 C   0  0  0  0  0  0  0  0  0  0  0  0
   14.2637  -22.8117    4.3451 O   0  0  0  0  0  0  0  0  0  0  0  0
   15.5606  -24.2752    3.1756 O   0  0  0  0  0  0  0  0  0  0  0  0
  2  1  1  1
  2  9  1  0
  3  2  1  0
  4  3  1  0
  5  4  2  0
  6  7  1  0
  6  5  1  0
  7  8  2  0
  8  4  1  0
  9 10  2  0
 11  9  1  0
 11 12  1  0
 12 13  1  0
 13 14  2  0
 16 15  1  0
 17 16  1  0
 18 17  1  0
 19 18  1  1
 20 19  1  0
 20 13  1  0
 21 19  1  0
 22 21  2  0
 23 21  1  0
M  END
$$$$
