HGM.pdb
     RDKit          3D

 23 23  0  0  1  0  0  0  0  0999 V2000
   16.1870   -9.8289   -9.6900 N   0  0  0  0  0  0  0  0  0  0  0  0
   15.4516   -8.9991  -10.5929 C   0  0  1  0  0  0  0  0  0  0  0  0
   14.0030   -8.9840  -10.1686 C   0  0  0  0  0  0  0  0  0  0  0  0
   13.3289  -10.2789  -10.3610 C   0  0  0  0  0  0  0  0  0  0  0  0
   13.7905  -11.3706  -11.0362 C   0  0  0  0  0  0  0  0  0  0  0  0
   12.8570  -12.3313  -10.9631 N   0  0  0  0  0  0  0  0  0  0  0  0
   11.8361  -11.8463  -10.2567 C   0  0  0  0  0  0  0  0  0  0  0  0
   12.1163  -10.5911   -9.8843 N   0  0  0  0  0  0  0  0  0  0  0  0
   16.0239   -7.6165  -10.6148 C   0  0  0  0  0  0  0  0  0  0  0  0
   15.5529   -6.7525  -11.4049 O   0  0  0  0  0  0  0  0  0  0  0  0
   17.0965   -7.3032   -9.7365 N   0  0  0  0  0  0  0  0  0  0  0  0
   17.7092   -6.0143   -9.7267 C   0  0  0  0  0  0  0  0  0  0  0  0
   19.0955   -6.0175  -10.2463 C   0  0  0  0  0  0  0  0  0  0  0  0
   20.0797   -6.5228   -9.6538 O   0  0  0  0  0  0  0  0  0  0  0  0
   21.6988  -10.8062  -12.9373 C   0  0  0  0  0  0  0  0  0  0  0  0
   21.4164   -9.1900  -13.6678 S   0  0  0  0  0  0  0  0  0  0  0  0
   21.1193   -7.9154  -12.4315 C   0  0  0  0  0  0  0  0  0  0  0  0
   20.8839   -6.5940  -13.0511 C   0  0  0  0  0  0  0  0  0  0  0  0
   20.6298   -5.4375  -12.1532 C   0  0  2  0  0  0  0  0  0  0  0  0
   19.3398   -5.4040  -11.5117 N   0  0  0  0  0  0  0  0  0  0  0  0
   20.8166   -4.1976  -12.9511 C   0  0  0  0  0  0  0  0  0  0  0  0
   19.8091   -3.5502  -13.3091 O   0  0  0  0  0  0  0  0  0  0  0  0
   22.0800   -3.7350  -13.3122 O   0  0  0  0  0  0  0  0  0  0  0  0
  2  1  1  1
  2  9  1  0
  3  2  1  0
  4  3  1  0
  5  4  2  0
  6  7  1  0
  6  5  1  0
  7  8  2  0
  8  4  1  0
  9 10  2  0
 11  9  1  0
 11 12  1  0
 12 13  1  0
 13 14  2  0
 16 15  1  0
 17 16  1  0
 18 17  1  0
 19 18  1  6
 20 19  1  0
 20 13  1  0
 21 19  1  0
 22 21  2  0
 23 21  1  0
M  END
$$$$
