HGM.pdb
     RDKit          3D

 23 23  0  0  1  0  0  0  0  0999 V2000
   23.1758  -25.4759  -14.9063 N   0  0  0  0  0  0  0  0  0  0  0  0
   21.7460  -25.4707  -14.8860 C   0  0  1  0  0  0  0  0  0  0  0  0
   21.2403  -25.3611  -16.3041 C   0  0  0  0  0  0  0  0  0  0  0  0
   21.7485  -24.1733  -17.0107 C   0  0  0  0  0  0  0  0  0  0  0  0
   22.6160  -24.1327  -18.0627 C   0  0  0  0  0  0  0  0  0  0  0  0
   22.8082  -22.8472  -18.3949 N   0  0  0  0  0  0  0  0  0  0  0  0
   22.0750  -22.1043  -17.5661 C   0  0  0  0  0  0  0  0  0  0  0  0
   21.4233  -22.9075  -16.7159 N   0  0  0  0  0  0  0  0  0  0  0  0
   21.2291  -26.7077  -14.2209 C   0  0  0  0  0  0  0  0  0  0  0  0
   21.6828  -27.8376  -14.5528 O   0  0  0  0  0  0  0  0  0  0  0  0
   20.2282  -26.5821  -13.2196 N   0  0  0  0  0  0  0  0  0  0  0  0
   19.6968  -27.7188  -12.5399 C   0  0  0  0  0  0  0  0  0  0  0  0
   18.7522  -27.3678  -11.4553 C   0  0  0  0  0  0  0  0  0  0  0  0
   18.0980  -28.1994  -10.7803 O   0  0  0  0  0  0  0  0  0  0  0  0
   18.4372  -26.0556   -5.1166 C   0  0  0  0  0  0  0  0  0  0  0  0
   17.6024  -25.3406   -6.5369 S   0  0  0  0  0  0  0  0  0  0  0  0
   18.6528  -25.2804   -7.9978 C   0  0  0  0  0  0  0  0  0  0  0  0
   17.9643  -24.6488   -9.1433 C   0  0  0  0  0  0  0  0  0  0  0  0
   17.5273  -25.5226  -10.2631 C   0  0  2  0  0  0  0  0  0  0  0  0
   18.5657  -25.9865  -11.1480 N   0  0  0  0  0  0  0  0  0  0  0  0
   16.5084  -24.7762  -11.0463 C   0  0  0  0  0  0  0  0  0  0  0  0
   16.7870  -24.4090  -12.2082 O   0  0  0  0  0  0  0  0  0  0  0  0
   15.2525  -24.4732  -10.5252 O   0  0  0  0  0  0  0  0  0  0  0  0
  2  1  1  6
  2  9  1  0
  3  2  1  0
  4  3  1  0
  5  4  2  0
  6  7  1  0
  6  5  1  0
  7  8  2  0
  8  4  1  0
  9 10  2  0
 11  9  1  0
 11 12  1  0
 12 13  1  0
 13 14  2  0
 16 15  1  0
 17 16  1  0
 18 17  1  0
 19 18  1  1
 20 19  1  0
 20 13  1  0
 21 19  1  0
 22 21  2  0
 23 21  1  0
M  END
$$$$
