TAM.pdb
     RDKit          3D

 21 20  0  0  1  0  0  0  0  0999 V2000
   12.2948   -8.4795  -10.3496 C   0  0  0  0  0  0  0  0  0  0  0  0
   13.6637   -8.4718  -10.9959 C   0  0  1  0  0  0  0  0  0  0  0  0
   14.6050   -7.8096  -10.2088 O   0  0  0  0  0  0  0  0  0  0  0  0
   14.0744   -9.9126  -11.2072 C   0  0  2  0  0  0  0  0  0  0  0  0
   14.1301  -10.5542   -9.9076 N   0  0  0  0  0  0  0  0  0  0  0  0
   15.4027  -10.0399  -11.8461 C   0  0  0  0  0  0  0  0  0  0  0  0
   16.4292  -10.2529  -11.1526 O   0  0  0  0  0  0  0  0  0  0  0  0
   16.6966   -9.8437  -15.4247 C   0  0  0  0  0  0  0  0  0  0  0  0
   16.8431   -9.9014  -13.8975 C   0  0  2  0  0  0  0  0  0  0  0  0
   15.5410   -9.9224  -13.2644 N   0  0  0  0  0  0  0  0  0  0  0  0
   17.6109   -8.6863  -13.5217 C   0  0  0  0  0  0  0  0  0  0  0  0
   16.9513   -7.6653  -13.2029 O   0  0  0  0  0  0  0  0  0  0  0  0
   21.9701   -5.0012   -8.7834 C   0  0  0  0  0  0  0  0  0  0  0  0
   21.7412   -6.6147   -9.5895 S   0  0  0  0  0  0  0  0  0  0  0  0
   21.1694   -6.4341  -11.2755 C   0  0  0  0  0  0  0  0  0  0  0  0
   20.3166   -7.5919  -11.7079 C   0  0  0  0  0  0  0  0  0  0  0  0
   19.7729   -7.4226  -13.0926 C   0  0  2  0  0  0  0  0  0  0  0  0
   19.0094   -8.6125  -13.5019 N   0  0  0  0  0  0  0  0  0  0  0  0
   20.8149   -7.2429  -14.1218 C   0  0  0  0  0  0  0  0  0  0  0  0
   21.0781   -8.1819  -15.1072 O   0  0  0  0  0  0  0  0  0  0  0  0
   21.5165   -6.2000  -14.1354 O   0  0  0  0  0  0  0  0  0  0  0  0
  2  1  1  1
  3  2  1  0
  4  2  1  0
  4  5  1  1
  6  4  1  0
  6 10  1  0
  7  6  2  0
  9  8  1  6
  9 10  1  0
  9 11  1  0
 11 18  1  0
 12 11  2  0
 14 13  1  0
 15 14  1  0
 16 15  1  0
 17 19  1  0
 17 16  1  1
 18 17  1  0
 19 20  1  0
 21 19  2  0
M  END
$$$$
