TAM.pdb
     RDKit          3D

 21 20  0  0  1  0  0  0  0  0999 V2000
   18.5942  -14.3074  -15.1110 C   0  0  0  0  0  0  0  0  0  0  0  0
   18.9282  -14.7657  -16.5145 C   0  0  1  0  0  0  0  0  0  0  0  0
   18.5950  -16.1046  -16.7159 O   0  0  0  0  0  0  0  0  0  0  0  0
   18.1624  -13.8826  -17.4751 C   0  0  2  0  0  0  0  0  0  0  0  0
   18.3865  -14.3859  -18.8168 N   0  0  0  0  0  0  0  0  0  0  0  0
   18.6031  -12.4711  -17.4281 C   0  0  0  0  0  0  0  0  0  0  0  0
   19.7530  -12.1458  -17.8181 O   0  0  0  0  0  0  0  0  0  0  0  0
   17.0005   -9.1893  -16.3393 C   0  0  0  0  0  0  0  0  0  0  0  0
   18.1375  -10.0646  -16.8855 C   0  0  2  0  0  0  0  0  0  0  0  0
   17.7277  -11.4525  -16.9376 N   0  0  0  0  0  0  0  0  0  0  0  0
   19.2778   -9.8691  -15.9534 C   0  0  0  0  0  0  0  0  0  0  0  0
   19.2885  -10.5616  -14.9049 O   0  0  0  0  0  0  0  0  0  0  0  0
   26.5871  -10.6473  -14.3457 C   0  0  0  0  0  0  0  0  0  0  0  0
   25.1451  -10.7124  -15.4512 S   0  0  0  0  0  0  0  0  0  0  0  0
   23.8352   -9.6297  -14.8904 C   0  0  0  0  0  0  0  0  0  0  0  0
   22.6244   -9.7059  -15.7751 C   0  0  0  0  0  0  0  0  0  0  0  0
   21.5040   -8.8362  -15.2957 C   0  0  2  0  0  0  0  0  0  0  0  0
   20.3289   -8.9696  -16.1719 N   0  0  0  0  0  0  0  0  0  0  0  0
   21.8322   -7.3976  -15.2838 C   0  0  0  0  0  0  0  0  0  0  0  0
   22.3643   -6.7498  -14.1795 O   0  0  0  0  0  0  0  0  0  0  0  0
   21.6326   -6.6953  -16.3070 O   0  0  0  0  0  0  0  0  0  0  0  0
  2  1  1  1
  3  2  1  0
  4  2  1  0
  4  5  1  6
  6  4  1  0
  6 10  1  0
  7  6  2  0
  9  8  1  1
  9 10  1  0
  9 11  1  0
 11 18  1  0
 12 11  2  0
 14 13  1  0
 15 14  1  0
 16 15  1  0
 17 19  1  0
 17 16  1  6
 18 17  1  0
 19 20  1  0
 21 19  2  0
M  END
$$$$
