TAM.pdb
     RDKit          3D

 21 20  0  0  1  0  0  0  0  0999 V2000
   17.9588  -14.0732  -14.8071 C   0  0  0  0  0  0  0  0  0  0  0  0
   18.1228  -14.6069  -16.2141 C   0  0  1  0  0  0  0  0  0  0  0  0
   17.7393  -15.9440  -16.3095 O   0  0  0  0  0  0  0  0  0  0  0  0
   17.2738  -13.7495  -17.1270 C   0  0  2  0  0  0  0  0  0  0  0  0
   17.3299  -14.3254  -18.4570 N   0  0  0  0  0  0  0  0  0  0  0  0
   17.7518  -12.3516  -17.2048 C   0  0  0  0  0  0  0  0  0  0  0  0
   18.9417  -12.0982  -17.5215 O   0  0  0  0  0  0  0  0  0  0  0  0
   16.1856   -8.9380  -16.5583 C   0  0  0  0  0  0  0  0  0  0  0  0
   17.3323   -9.8930  -16.9195 C   0  0  2  0  0  0  0  0  0  0  0  0
   16.8676  -11.2644  -16.9208 N   0  0  0  0  0  0  0  0  0  0  0  0
   18.3775   -9.6740  -15.8866 C   0  0  0  0  0  0  0  0  0  0  0  0
   18.2031  -10.2188  -14.7678 O   0  0  0  0  0  0  0  0  0  0  0  0
   23.4623  -12.4120  -14.4617 C   0  0  0  0  0  0  0  0  0  0  0  0
   24.1207  -10.7187  -14.5315 S   0  0  0  0  0  0  0  0  0  0  0  0
   22.8294   -9.4997  -14.3106 C   0  0  0  0  0  0  0  0  0  0  0  0
   21.7134   -9.6761  -15.2996 C   0  0  0  0  0  0  0  0  0  0  0  0
   20.5865   -8.7164  -15.0751 C   0  0  2  0  0  0  0  0  0  0  0  0
   19.5317   -8.9057  -16.0840 N   0  0  0  0  0  0  0  0  0  0  0  0
   20.9848   -7.2991  -15.1744 C   0  0  0  0  0  0  0  0  0  0  0  0
   20.7697   -6.5280  -16.3063 O   0  0  0  0  0  0  0  0  0  0  0  0
   21.5486   -6.7316  -14.2049 O   0  0  0  0  0  0  0  0  0  0  0  0
  2  1  1  1
  3  2  1  0
  4  2  1  0
  4  5  1  6
  6  4  1  0
  6 10  1  0
  7  6  2  0
  9  8  1  1
  9 10  1  0
  9 11  1  0
 11 18  1  0
 12 11  2  0
 14 13  1  0
 15 14  1  0
 16 15  1  0
 17 19  1  0
 17 16  1  6
 18 17  1  0
 19 20  1  0
 21 19  2  0
M  END
$$$$
