TAM.pdb
     RDKit          3D

 21 20  0  0  1  0  0  0  0  0999 V2000
   21.4977  -11.4297  -16.7171 C   0  0  0  0  0  0  0  0  0  0  0  0
   20.4406  -11.4046  -17.8003 C   0  0  1  0  0  0  0  0  0  0  0  0
   20.4050  -12.5994  -18.5180 O   0  0  0  0  0  0  0  0  0  0  0  0
   19.1080  -11.1542  -17.1288 C   0  0  2  0  0  0  0  0  0  0  0  0
   18.0715  -11.2867  -18.1346 N   0  0  0  0  0  0  0  0  0  0  0  0
   19.0120   -9.8016  -16.5372 C   0  0  0  0  0  0  0  0  0  0  0  0
   19.2796   -8.7823  -17.2225 O   0  0  0  0  0  0  0  0  0  0  0  0
   17.8723   -8.3839  -13.1987 C   0  0  0  0  0  0  0  0  0  0  0  0
   18.6017   -8.3255  -14.5485 C   0  0  2  0  0  0  0  0  0  0  0  0
   18.6129   -9.6310  -15.1748 N   0  0  0  0  0  0  0  0  0  0  0  0
   19.9780   -7.8580  -14.2412 C   0  0  0  0  0  0  0  0  0  0  0  0
   20.8819   -8.7292  -14.1851 O   0  0  0  0  0  0  0  0  0  0  0  0
   26.0069   -5.4530  -17.4553 C   0  0  0  0  0  0  0  0  0  0  0  0
   24.3526   -6.1739  -17.2335 S   0  0  0  0  0  0  0  0  0  0  0  0
   23.6427   -5.7215  -15.6544 C   0  0  0  0  0  0  0  0  0  0  0  0
   22.3085   -6.3727  -15.4296 C   0  0  0  0  0  0  0  0  0  0  0  0
   21.6898   -5.9843  -14.1227 C   0  0  2  0  0  0  0  0  0  0  0  0
   20.3232   -6.5200  -14.0132 N   0  0  0  0  0  0  0  0  0  0  0  0
   21.5635   -4.5260  -13.9357 C   0  0  0  0  0  0  0  0  0  0  0  0
   22.4855   -3.7689  -13.2294 O   0  0  0  0  0  0  0  0  0  0  0  0
   20.5852   -3.9083  -14.4268 O   0  0  0  0  0  0  0  0  0  0  0  0
  2  1  1  1
  3  2  1  0
  4  2  1  0
  4  5  1  6
  6  4  1  0
  6 10  1  0
  7  6  2  0
  9  8  1  1
  9 10  1  0
  9 11  1  0
 11 18  1  0
 12 11  2  0
 14 13  1  0
 15 14  1  0
 16 15  1  0
 17 19  1  0
 17 16  1  6
 18 17  1  0
 19 20  1  0
 21 19  2  0
M  END
$$$$
