TAM.pdb
     RDKit          3D

 21 20  0  0  1  0  0  0  0  0999 V2000
   17.4290  -11.1199  -16.8215 C   0  0  0  0  0  0  0  0  0  0  0  0
   18.7038  -11.7003  -17.3955 C   0  0  1  0  0  0  0  0  0  0  0  0
   18.5143  -12.1929  -18.6860 O   0  0  0  0  0  0  0  0  0  0  0  0
   19.7424  -10.6000  -17.3995 C   0  0  2  0  0  0  0  0  0  0  0  0
   20.8853  -11.0701  -18.1587 N   0  0  0  0  0  0  0  0  0  0  0  0
   20.2021  -10.2438  -16.0391 C   0  0  0  0  0  0  0  0  0  0  0  0
   19.3798   -9.8858  -15.1584 O   0  0  0  0  0  0  0  0  0  0  0  0
   23.5032  -10.3792  -14.1718 C   0  0  0  0  0  0  0  0  0  0  0  0
   22.0728   -9.8730  -14.4066 C   0  0  2  0  0  0  0  0  0  0  0  0
   21.5908  -10.3009  -15.7033 N   0  0  0  0  0  0  0  0  0  0  0  0
   22.1514   -8.3922  -14.3173 C   0  0  0  0  0  0  0  0  0  0  0  0
   22.4627   -7.8991  -13.2041 O   0  0  0  0  0  0  0  0  0  0  0  0
   23.2539   -4.6124  -19.4068 C   0  0  0  0  0  0  0  0  0  0  0  0
   22.9851   -3.3033  -18.1742 S   0  0  0  0  0  0  0  0  0  0  0  0
   22.4645   -3.9768  -16.6001 C   0  0  0  0  0  0  0  0  0  0  0  0
   22.4355   -5.4781  -16.6120 C   0  0  0  0  0  0  0  0  0  0  0  0
   21.9900   -6.0569  -15.3051 C   0  0  2  0  0  0  0  0  0  0  0  0
   21.9021   -7.5238  -15.3875 N   0  0  0  0  0  0  0  0  0  0  0  0
   20.6536   -5.5999  -14.8780 C   0  0  0  0  0  0  0  0  0  0  0  0
   20.4545   -4.5060  -14.0497 O   0  0  0  0  0  0  0  0  0  0  0  0
   19.6240   -6.2084  -15.2648 O   0  0  0  0  0  0  0  0  0  0  0  0
  2  1  1  6
  3  2  1  0
  4  2  1  0
  4  5  1  6
  6  4  1  0
  6 10  1  0
  7  6  2  0
  9  8  1  6
  9 10  1  0
  9 11  1  0
 11 18  1  0
 12 11  2  0
 14 13  1  0
 15 14  1  0
 16 15  1  0
 17 19  1  0
 17 16  1  6
 18 17  1  0
 19 20  1  0
 21 19  2  0
M  END
$$$$
