TAM.pdb
     RDKit          3D

 21 20  0  0  1  0  0  0  0  0999 V2000
   24.6537  -25.0172  -16.0507 C   0  0  0  0  0  0  0  0  0  0  0  0
   26.0888  -25.2094  -16.4920 C   0  0  1  0  0  0  0  0  0  0  0  0
   26.2130  -26.2468  -17.4153 O   0  0  0  0  0  0  0  0  0  0  0  0
   26.5557  -23.9050  -17.1001 C   0  0  2  0  0  0  0  0  0  0  0  0
   27.9357  -24.0754  -17.5125 N   0  0  0  0  0  0  0  0  0  0  0  0
   26.4911  -22.7753  -16.1471 C   0  0  0  0  0  0  0  0  0  0  0  0
   27.4028  -22.5991  -15.2998 O   0  0  0  0  0  0  0  0  0  0  0  0
   24.2753  -19.7196  -15.7638 C   0  0  0  0  0  0  0  0  0  0  0  0
   25.3271  -20.7275  -15.2789 C   0  0  2  0  0  0  0  0  0  0  0  0
   25.3894  -21.8642  -16.1738 N   0  0  0  0  0  0  0  0  0  0  0  0
   24.8970  -21.1317  -13.9155 C   0  0  0  0  0  0  0  0  0  0  0  0
   23.9726  -21.9787  -13.8318 O   0  0  0  0  0  0  0  0  0  0  0  0
   30.2772  -21.3557   -9.8157 C   0  0  0  0  0  0  0  0  0  0  0  0
   28.6429  -20.6384   -9.4688 S   0  0  0  0  0  0  0  0  0  0  0  0
   27.3895  -21.2928  -10.5655 C   0  0  0  0  0  0  0  0  0  0  0  0
   26.0608  -20.6223  -10.3657 C   0  0  0  0  0  0  0  0  0  0  0  0
   25.0438  -21.0433  -11.3806 C   0  0  2  0  0  0  0  0  0  0  0  0
   25.4545  -20.6307  -12.7324 N   0  0  0  0  0  0  0  0  0  0  0  0
   23.7110  -20.4466  -11.1684 C   0  0  0  0  0  0  0  0  0  0  0  0
   22.7218  -21.0503  -10.4074 O   0  0  0  0  0  0  0  0  0  0  0  0
   23.4246  -19.3385  -11.6881 O   0  0  0  0  0  0  0  0  0  0  0  0
  2  1  1  6
  3  2  1  0
  4  2  1  0
  4  5  1  1
  6  4  1  0
  6 10  1  0
  7  6  2  0
  9  8  1  6
  9 10  1  0
  9 11  1  0
 11 18  1  0
 12 11  2  0
 14 13  1  0
 15 14  1  0
 16 15  1  0
 17 19  1  0
 17 16  1  1
 18 17  1  0
 19 20  1  0
 21 19  2  0
M  END
$$$$
