TAM.pdb
     RDKit          3D

 21 20  0  0  1  0  0  0  0  0999 V2000
   23.1818  -12.4624  -14.7421 C   0  0  0  0  0  0  0  0  0  0  0  0
   23.0310  -12.9210  -16.1768 C   0  0  1  0  0  0  0  0  0  0  0  0
   23.2472  -14.2921  -16.3085 O   0  0  0  0  0  0  0  0  0  0  0  0
   21.6300  -12.5639  -16.6230 C   0  0  2  0  0  0  0  0  0  0  0  0
   21.4357  -13.1056  -17.9543 N   0  0  0  0  0  0  0  0  0  0  0  0
   21.4031  -11.1029  -16.6774 C   0  0  0  0  0  0  0  0  0  0  0  0
   22.1539  -10.3633  -17.3625 O   0  0  0  0  0  0  0  0  0  0  0  0
   18.6712   -8.7708  -15.4435 C   0  0  0  0  0  0  0  0  0  0  0  0
   20.0547   -9.0870  -16.0293 C   0  0  2  0  0  0  0  0  0  0  0  0
   20.3250  -10.5075  -15.9511 N   0  0  0  0  0  0  0  0  0  0  0  0
   21.0224   -8.3039  -15.2186 C   0  0  0  0  0  0  0  0  0  0  0  0
   21.3653   -8.7851  -14.1095 O   0  0  0  0  0  0  0  0  0  0  0  0
   23.1354   -2.5852  -18.8196 C   0  0  0  0  0  0  0  0  0  0  0  0
   24.0139   -3.7476  -17.7321 S   0  0  0  0  0  0  0  0  0  0  0  0
   22.8887   -4.6006  -16.6327 C   0  0  0  0  0  0  0  0  0  0  0  0
   23.5710   -5.7002  -15.8710 C   0  0  0  0  0  0  0  0  0  0  0  0
   22.6569   -6.3845  -14.9027 C   0  0  2  0  0  0  0  0  0  0  0  0
   21.5686   -7.0759  -15.6127 N   0  0  0  0  0  0  0  0  0  0  0  0
   21.9959   -5.4637  -13.9579 C   0  0  0  0  0  0  0  0  0  0  0  0
   22.6255   -4.9469  -12.8360 O   0  0  0  0  0  0  0  0  0  0  0  0
   20.8049   -5.1100  -14.1488 O   0  0  0  0  0  0  0  0  0  0  0  0
  2  1  1  1
  3  2  1  0
  4  2  1  0
  4  5  1  6
  6  4  1  0
  6 10  1  0
  7  6  2  0
  9  8  1  1
  9 10  1  0
  9 11  1  0
 11 18  1  0
 12 11  2  0
 14 13  1  0
 15 14  1  0
 16 15  1  0
 17 19  1  0
 17 16  1  6
 18 17  1  0
 19 20  1  0
 21 19  2  0
M  END
$$$$
