TAM.pdb
     RDKit          3D

 21 20  0  0  1  0  0  0  0  0999 V2000
   22.8211  -10.3115  -21.1623 C   0  0  0  0  0  0  0  0  0  0  0  0
   21.6731  -11.0348  -20.4912 C   0  0  1  0  0  0  0  0  0  0  0  0
   21.6403  -12.3860  -20.8337 O   0  0  0  0  0  0  0  0  0  0  0  0
   21.8469  -10.8747  -18.9967 C   0  0  2  0  0  0  0  0  0  0  0  0
   21.0080  -11.8611  -18.3434 N   0  0  0  0  0  0  0  0  0  0  0  0
   21.4487   -9.5335  -18.5160 C   0  0  0  0  0  0  0  0  0  0  0  0
   22.0840   -8.5098  -18.8747 O   0  0  0  0  0  0  0  0  0  0  0  0
   18.4603   -8.1361  -16.6572 C   0  0  0  0  0  0  0  0  0  0  0  0
   19.9005   -8.0723  -17.1855 C   0  0  2  0  0  0  0  0  0  0  0  0
   20.3335   -9.3791  -17.6345 N   0  0  0  0  0  0  0  0  0  0  0  0
   20.7242   -7.5877  -16.0480 C   0  0  0  0  0  0  0  0  0  0  0  0
   21.4309   -8.4358  -15.4477 O   0  0  0  0  0  0  0  0  0  0  0  0
   26.0614   -6.8208  -17.1877 C   0  0  0  0  0  0  0  0  0  0  0  0
   25.5944   -5.0722  -17.0150 S   0  0  0  0  0  0  0  0  0  0  0  0
   24.2745   -4.8567  -15.8260 C   0  0  0  0  0  0  0  0  0  0  0  0
   23.0410   -5.6224  -16.2092 C   0  0  0  0  0  0  0  0  0  0  0  0
   21.9757   -5.5632  -15.1589 C   0  0  2  0  0  0  0  0  0  0  0  0
   20.7591   -6.2576  -15.6106 N   0  0  0  0  0  0  0  0  0  0  0  0
   21.5505   -4.1912  -14.8209 C   0  0  0  0  0  0  0  0  0  0  0  0
   20.5758   -3.5033  -15.5270 O   0  0  0  0  0  0  0  0  0  0  0  0
   22.0766   -3.5871  -13.8522 O   0  0  0  0  0  0  0  0  0  0  0  0
  2  1  1  6
  3  2  1  0
  4  2  1  0
  4  5  1  1
  6  4  1  0
  6 10  1  0
  7  6  2  0
  9  8  1  1
  9 10  1  0
  9 11  1  0
 11 18  1  0
 12 11  2  0
 14 13  1  0
 15 14  1  0
 16 15  1  0
 17 19  1  0
 17 16  1  6
 18 17  1  0
 19 20  1  0
 21 19  2  0
M  END
$$$$
