DRL.pdb
     RDKit          3D

 28 27  0  0  1  0  0  0  0  0999 V2000
   25.3788  -27.5219  -17.0328 N   0  0  0  0  0  0  0  0  0  0  0  0
   24.7907  -26.2003  -17.1153 C   0  0  1  0  0  0  0  0  0  0  0  0
   23.2959  -26.2374  -16.8836 C   0  0  0  0  0  0  0  0  0  0  0  0
   22.5490  -26.5630  -18.1074 C   0  0  0  0  0  0  0  0  0  0  0  0
   23.1863  -26.8458  -19.1533 O   0  0  0  0  0  0  0  0  0  0  0  0
   25.4158  -25.2551  -16.1530 C   0  0  0  0  0  0  0  0  0  0  0  0
   25.5584  -25.6479  -14.9781 O   0  0  0  0  0  0  0  0  0  0  0  0
   21.1725  -26.5498  -18.0770 O   0  0  0  0  0  0  0  0  0  0  0  0
   30.8771  -23.0126  -16.3166 N   0  0  0  0  0  0  0  0  0  0  0  0
   31.0158  -22.9858  -17.7333 C   0  0  0  0  0  0  0  0  0  0  0  0
   31.8172  -23.7651  -18.3810 N   0  0  0  0  0  0  0  0  0  0  0  0
   30.2472  -22.0652  -18.5100 N   0  0  0  0  0  0  0  0  0  0  0  0
   29.1690  -21.3192  -17.8314 C   0  0  0  0  0  0  0  0  0  0  0  0
   28.3659  -22.3549  -17.0564 C   0  0  0  0  0  0  0  0  0  0  0  0
   27.0957  -21.8511  -16.4895 C   0  0  0  0  0  0  0  0  0  0  0  0
   26.3272  -22.9288  -15.7761 C   0  0  2  0  0  0  0  0  0  0  0  0
   25.8140  -23.9817  -16.5944 N   0  0  0  0  0  0  0  0  0  0  0  0
   25.3442  -22.4048  -14.8010 C   0  0  0  0  0  0  0  0  0  0  0  0
   24.1423  -22.3067  -15.1858 O   0  0  0  0  0  0  0  0  0  0  0  0
   31.8474  -23.6339  -19.4252 C   0  0  0  0  0  0  0  0  0  0  0  0
   25.2955  -20.9435   -8.7984 C   0  0  2  0  0  0  0  0  0  0  0  0
   24.3906  -21.1230  -10.0546 C   0  0  0  0  0  0  0  0  0  0  0  0
   23.4547  -19.9149  -10.0552 C   0  0  0  0  0  0  0  0  0  0  0  0
   25.2552  -21.2500  -11.2464 C   0  0  1  0  0  0  0  0  0  0  0  0
   24.6793  -21.3847  -12.5918 N   0  0  0  0  0  0  0  0  0  0  0  0
   25.6617  -22.0159  -13.4935 C   0  0  0  0  0  0  0  0  0  0  0  0
   24.1341  -20.2372  -13.2912 O   0  0  0  0  0  0  0  0  0  0  0  0
   24.7774  -19.4241  -13.9983 O   0  0  0  0  0  0  0  0  0  0  0  0
  2  1  1  1
  2  3  1  0
  3  4  1  0
  4  5  2  0
  4  8  1  0
  6  7  2  0
  6  2  1  0
  9 10  1  0
 10 12  1  0
 11 10  2  0
 12 13  1  0
 14 13  1  0
 14 15  1  0
 16 15  1  6
 16 17  1  0
 17  6  1  0
 18 16  1  0
 19 18  2  0
 21 20  1  1
 21 22  1  0
 23 21  1  0
 24 23  1  1
 24 25  1  0
 25 18  1  0
 26 28  1  0
 26 24  1  0
 27 26  2  0
M  END
$$$$
