DRL.pdb
     RDKit          3D

 28 27  0  0  1  0  0  0  0  0999 V2000
   26.7658  -20.1929  -18.8613 N   0  0  0  0  0  0  0  0  0  0  0  0
   27.2809  -20.6273  -17.5787 C   0  0  1  0  0  0  0  0  0  0  0  0
   28.7930  -20.5880  -17.5404 C   0  0  0  0  0  0  0  0  0  0  0  0
   29.4001  -21.6534  -18.3514 C   0  0  0  0  0  0  0  0  0  0  0  0
   28.6530  -22.4086  -19.0233 O   0  0  0  0  0  0  0  0  0  0  0  0
   26.7377  -19.8133  -16.4595 C   0  0  0  0  0  0  0  0  0  0  0  0
   26.3712  -18.6512  -16.7244 O   0  0  0  0  0  0  0  0  0  0  0  0
   30.7695  -21.7968  -18.3544 O   0  0  0  0  0  0  0  0  0  0  0  0
   21.7443  -20.3130  -17.7144 N   0  0  0  0  0  0  0  0  0  0  0  0
   21.0724  -21.0386  -16.6901 C   0  0  0  0  0  0  0  0  0  0  0  0
   20.0960  -21.8520  -16.9228 N   0  0  0  0  0  0  0  0  0  0  0  0
   21.4697  -20.8849  -15.3263 N   0  0  0  0  0  0  0  0  0  0  0  0
   22.2861  -19.7070  -14.9720 C   0  0  0  0  0  0  0  0  0  0  0  0
   23.6817  -20.2381  -14.6741 C   0  0  0  0  0  0  0  0  0  0  0  0
   24.6583  -19.2061  -14.2622 C   0  0  0  0  0  0  0  0  0  0  0  0
   26.0284  -19.7821  -14.0345 C   0  0  2  0  0  0  0  0  0  0  0  0
   26.6595  -20.3724  -15.1725 N   0  0  0  0  0  0  0  0  0  0  0  0
   26.1242  -20.6088  -12.8100 C   0  0  0  0  0  0  0  0  0  0  0  0
   25.5862  -21.7542  -12.8408 O   0  0  0  0  0  0  0  0  0  0  0  0
   19.6335  -22.2744  -16.0766 C   0  0  0  0  0  0  0  0  0  0  0  0
   30.6384  -20.5038   -9.7761 C   0  0  2  0  0  0  0  0  0  0  0  0
   29.4275  -20.8943  -10.6763 C   0  0  0  0  0  0  0  0  0  0  0  0
   29.8111  -22.2288  -11.3142 C   0  0  0  0  0  0  0  0  0  0  0  0
   28.2077  -20.9226   -9.8424 C   0  0  2  0  0  0  0  0  0  0  0  0
   26.8771  -21.0740  -10.4478 N   0  0  0  0  0  0  0  0  0  0  0  0
   26.7673  -20.2033  -11.6337 C   0  0  0  0  0  0  0  0  0  0  0  0
   25.6719  -20.8817   -9.6645 O   0  0  0  0  0  0  0  0  0  0  0  0
   24.9160  -19.8805   -9.6984 O   0  0  0  0  0  0  0  0  0  0  0  0
  2  1  1  6
  2  3  1  0
  3  4  1  0
  4  5  2  0
  4  8  1  0
  6  7  2  0
  6  2  1  0
  9 10  1  0
 10 12  1  0
 11 10  2  0
 12 13  1  0
 14 13  1  0
 14 15  1  0
 16 15  1  6
 16 17  1  0
 17  6  1  0
 18 16  1  0
 19 18  2  0
 21 20  1  6
 21 22  1  0
 23 21  1  0
 24 23  1  6
 24 25  1  0
 25 18  1  0
 26 28  1  0
 26 24  1  0
 27 26  2  0
M  END
$$$$
