DRL.pdb
     RDKit          3D

 28 27  0  0  1  0  0  0  0  0999 V2000
   21.2903  -17.1597  -18.7188 N   0  0  0  0  0  0  0  0  0  0  0  0
   22.0863  -17.3247  -17.5195 C   0  0  1  0  0  0  0  0  0  0  0  0
   21.8672  -16.1908  -16.5419 C   0  0  0  0  0  0  0  0  0  0  0  0
   22.3864  -14.9109  -17.0457 C   0  0  0  0  0  0  0  0  0  0  0  0
   23.3842  -14.9165  -17.8100 O   0  0  0  0  0  0  0  0  0  0  0  0
   21.8076  -18.6194  -16.8439 C   0  0  0  0  0  0  0  0  0  0  0  0
   20.6245  -19.0132  -16.8307 O   0  0  0  0  0  0  0  0  0  0  0  0
   21.7674  -13.7403  -16.6682 O   0  0  0  0  0  0  0  0  0  0  0  0
   24.7056  -25.6754  -16.2410 N   0  0  0  0  0  0  0  0  0  0  0  0
   25.7432  -24.7558  -15.9174 C   0  0  0  0  0  0  0  0  0  0  0  0
   26.9152  -24.7912  -16.4598 N   0  0  0  0  0  0  0  0  0  0  0  0
   25.5136  -23.7299  -14.9496 N   0  0  0  0  0  0  0  0  0  0  0  0
   24.1774  -23.6529  -14.3268 C   0  0  0  0  0  0  0  0  0  0  0  0
   23.9258  -22.1759  -14.0553 C   0  0  0  0  0  0  0  0  0  0  0  0
   23.9998  -21.3085  -15.2515 C   0  0  0  0  0  0  0  0  0  0  0  0
   22.7439  -20.5052  -15.4467 C   0  0  2  0  0  0  0  0  0  0  0  0
   22.8656  -19.3352  -16.2580 N   0  0  0  0  0  0  0  0  0  0  0  0
   21.9873  -20.2802  -14.1942 C   0  0  0  0  0  0  0  0  0  0  0  0
   22.5428  -19.5769  -13.3003 O   0  0  0  0  0  0  0  0  0  0  0  0
   27.5972  -24.0569  -16.1372 C   0  0  0  0  0  0  0  0  0  0  0  0
   18.1601  -17.1585  -13.5537 C   0  0  1  0  0  0  0  0  0  0  0  0
   19.4079  -18.0170  -13.1859 C   0  0  0  0  0  0  0  0  0  0  0  0
   20.0146  -17.3430  -11.9560 C   0  0  0  0  0  0  0  0  0  0  0  0
   18.9776  -19.4170  -12.9887 C   0  0  2  0  0  0  0  0  0  0  0  0
   19.9544  -20.4803  -12.7142 N   0  0  0  0  0  0  0  0  0  0  0  0
   20.7086  -20.7934  -13.9429 C   0  0  0  0  0  0  0  0  0  0  0  0
   19.5425  -21.7435  -12.1330 O   0  0  0  0  0  0  0  0  0  0  0  0
   19.6681  -22.8775  -12.6558 O   0  0  0  0  0  0  0  0  0  0  0  0
  2  1  1  6
  2  3  1  0
  3  4  1  0
  4  5  2  0
  4  8  1  0
  6  7  2  0
  6  2  1  0
  9 10  1  0
 10 12  1  0
 11 10  2  0
 12 13  1  0
 14 13  1  0
 14 15  1  0
 16 15  1  1
 16 17  1  0
 17  6  1  0
 18 16  1  0
 19 18  2  0
 21 20  1  6
 21 22  1  0
 23 21  1  0
 24 23  1  1
 24 25  1  0
 25 18  1  0
 26 28  1  0
 26 24  1  0
 27 26  2  0
M  END
$$$$
