DRL.pdb
     RDKit          3D

 28 27  0  0  1  0  0  0  0  0999 V2000
   20.5290  -19.6218  -14.1992 N   0  0  0  0  0  0  0  0  0  0  0  0
   20.8673  -20.0293  -12.8506 C   0  0  1  0  0  0  0  0  0  0  0  0
   19.8601  -21.0113  -12.2933 C   0  0  0  0  0  0  0  0  0  0  0  0
   18.5074  -20.4406  -12.2161 C   0  0  0  0  0  0  0  0  0  0  0  0
   18.0108  -19.9090  -13.2411 O   0  0  0  0  0  0  0  0  0  0  0  0
   22.2283  -20.6231  -12.7765 C   0  0  0  0  0  0  0  0  0  0  0  0
   22.5618  -21.1531  -11.6982 O   0  0  0  0  0  0  0  0  0  0  0  0
   17.8199  -20.5026  -11.0247 O   0  0  0  0  0  0  0  0  0  0  0  0
   26.0139  -22.8378  -18.0847 N   0  0  0  0  0  0  0  0  0  0  0  0
   27.3619  -22.9248  -17.6348 C   0  0  0  0  0  0  0  0  0  0  0  0
   28.3799  -22.7528  -18.4114 N   0  0  0  0  0  0  0  0  0  0  0  0
   27.6412  -23.2150  -16.2639 N   0  0  0  0  0  0  0  0  0  0  0  0
   26.6088  -22.8829  -15.2622 C   0  0  0  0  0  0  0  0  0  0  0  0
   26.5038  -21.3639  -15.2559 C   0  0  0  0  0  0  0  0  0  0  0  0
   25.1198  -20.8422  -15.2842 C   0  0  0  0  0  0  0  0  0  0  0  0
   24.4395  -20.9693  -13.9493 C   0  0  2  0  0  0  0  0  0  0  0  0
   23.0696  -20.5659  -13.9008 N   0  0  0  0  0  0  0  0  0  0  0  0
   25.2490  -20.4506  -12.8234 C   0  0  0  0  0  0  0  0  0  0  0  0
   25.2912  -19.1948  -12.6706 O   0  0  0  0  0  0  0  0  0  0  0  0
   29.3269  -22.8682  -17.9661 C   0  0  0  0  0  0  0  0  0  0  0  0
   25.8038  -20.4063   -7.2020 C   0  0  2  0  0  0  0  0  0  0  0  0
   26.5845  -19.9491   -8.4712 C   0  0  0  0  0  0  0  0  0  0  0  0
   28.0495  -19.8799   -8.0421 C   0  0  0  0  0  0  0  0  0  0  0  0
   26.2945  -20.8931   -9.5707 C   0  0  1  0  0  0  0  0  0  0  0  0
   26.8718  -20.7012  -10.9086 N   0  0  0  0  0  0  0  0  0  0  0  0
   25.9623  -21.2577  -11.9282 C   0  0  0  0  0  0  0  0  0  0  0  0
   28.2060  -21.1746  -11.2231 O   0  0  0  0  0  0  0  0  0  0  0  0
   28.5162  -21.9559  -12.1551 O   0  0  0  0  0  0  0  0  0  0  0  0
  2  1  1  6
  2  3  1  0
  3  4  1  0
  4  5  2  0
  4  8  1  0
  6  7  2  0
  6  2  1  0
  9 10  1  0
 10 12  1  0
 11 10  2  0
 12 13  1  0
 14 13  1  0
 14 15  1  0
 16 15  1  6
 16 17  1  0
 17  6  1  0
 18 16  1  0
 19 18  2  0
 21 20  1  1
 21 22  1  0
 23 21  1  0
 24 23  1  6
 24 25  1  0
 25 18  1  0
 26 28  1  0
 26 24  1  0
 27 26  2  0
M  END
$$$$
