DRL.pdb
     RDKit          3D

 28 27  0  0  1  0  0  0  0  0999 V2000
   17.6332  -13.7724  -18.2635 N   0  0  0  0  0  0  0  0  0  0  0  0
   17.0332  -12.9422  -17.2388 C   0  0  1  0  0  0  0  0  0  0  0  0
   17.0356  -13.6281  -15.8902 C   0  0  0  0  0  0  0  0  0  0  0  0
   16.2403  -14.8646  -15.8911 C   0  0  0  0  0  0  0  0  0  0  0  0
   15.1811  -14.9074  -16.5665 O   0  0  0  0  0  0  0  0  0  0  0  0
   17.7141  -11.6256  -17.1239 C   0  0  0  0  0  0  0  0  0  0  0  0
   18.9010  -11.5621  -17.5011 O   0  0  0  0  0  0  0  0  0  0  0  0
   16.6750  -15.9428  -15.1532 O   0  0  0  0  0  0  0  0  0  0  0  0
   11.9644   -5.7850  -15.7358 N   0  0  0  0  0  0  0  0  0  0  0  0
   11.8468   -7.1628  -16.0746 C   0  0  0  0  0  0  0  0  0  0  0  0
   10.7141   -7.7800  -16.1466 N   0  0  0  0  0  0  0  0  0  0  0  0
   13.0172   -7.9329  -16.3553 N   0  0  0  0  0  0  0  0  0  0  0  0
   14.2848   -7.2092  -16.5769 C   0  0  0  0  0  0  0  0  0  0  0  0
   15.3377   -8.2778  -16.8376 C   0  0  0  0  0  0  0  0  0  0  0  0
   16.5616   -8.1496  -16.0165 C   0  0  0  0  0  0  0  0  0  0  0  0
   17.5558   -9.2393  -16.3084 C   0  0  2  0  0  0  0  0  0  0  0  0
   17.0094  -10.5257  -16.6056 N   0  0  0  0  0  0  0  0  0  0  0  0
   18.6819   -9.2824  -15.3482 C   0  0  0  0  0  0  0  0  0  0  0  0
   18.5894  -10.0963  -14.3831 O   0  0  0  0  0  0  0  0  0  0  0  0
   10.7554   -8.7916  -16.4355 C   0  0  0  0  0  0  0  0  0  0  0  0
   23.9929   -9.9362  -15.0122 C   0  0  2  0  0  0  0  0  0  0  0  0
   22.7762  -10.6194  -14.3179 C   0  0  0  0  0  0  0  0  0  0  0  0
   22.9366  -10.3154  -12.8290 C   0  0  0  0  0  0  0  0  0  0  0  0
   21.5329  -10.1106  -14.9339 C   0  0  2  0  0  0  0  0  0  0  0  0
   21.0486   -8.7511  -14.6560 N   0  0  0  0  0  0  0  0  0  0  0  0
   19.8297   -8.4856  -15.4435 C   0  0  0  0  0  0  0  0  0  0  0  0
   21.9170   -7.6003  -14.8129 O   0  0  0  0  0  0  0  0  0  0  0  0
   22.8159   -7.2343  -14.0172 O   0  0  0  0  0  0  0  0  0  0  0  0
  2  1  1  6
  2  3  1  0
  3  4  1  0
  4  5  2  0
  4  8  1  0
  6  7  2  0
  6  2  1  0
  9 10  1  0
 10 12  1  0
 11 10  2  0
 12 13  1  0
 14 13  1  0
 14 15  1  0
 16 15  1  1
 16 17  1  0
 17  6  1  0
 18 16  1  0
 19 18  2  0
 21 20  1  1
 21 22  1  0
 23 21  1  0
 24 23  1  1
 24 25  1  0
 25 18  1  0
 26 28  1  0
 26 24  1  0
 27 26  2  0
M  END
$$$$
