DRL.pdb
     RDKit          3D

 28 27  0  0  1  0  0  0  0  0999 V2000
   26.0938  -20.4623   -8.7115 N   0  0  0  0  0  0  0  0  0  0  0  0
   25.0797  -20.8777   -9.6593 C   0  0  1  0  0  0  0  0  0  0  0  0
   23.6854  -20.5751   -9.1557 C   0  0  0  0  0  0  0  0  0  0  0  0
   23.4089  -21.2126   -7.8601 C   0  0  0  0  0  0  0  0  0  0  0  0
   24.2514  -22.0144   -7.3834 O   0  0  0  0  0  0  0  0  0  0  0  0
   25.2722  -20.2429  -10.9899 C   0  0  0  0  0  0  0  0  0  0  0  0
   25.5777  -19.0340  -11.0066 O   0  0  0  0  0  0  0  0  0  0  0  0
   22.2360  -20.9158   -7.2027 O   0  0  0  0  0  0  0  0  0  0  0  0
   27.5238  -21.9579  -18.7913 N   0  0  0  0  0  0  0  0  0  0  0  0
   28.0030  -22.0735  -17.4556 C   0  0  0  0  0  0  0  0  0  0  0  0
   28.4843  -23.1691  -16.9685 N   0  0  0  0  0  0  0  0  0  0  0  0
   27.9657  -20.9435  -16.5819 N   0  0  0  0  0  0  0  0  0  0  0  0
   28.5243  -21.0999  -15.2244 C   0  0  0  0  0  0  0  0  0  0  0  0
   27.4726  -20.5476  -14.2718 C   0  0  0  0  0  0  0  0  0  0  0  0
   26.1310  -21.1539  -14.4173 C   0  0  0  0  0  0  0  0  0  0  0  0
   25.1225  -20.5246  -13.4965 C   0  0  2  0  0  0  0  0  0  0  0  0
   25.1063  -21.0130  -12.1537 N   0  0  0  0  0  0  0  0  0  0  0  0
   23.7748  -20.3983  -14.0962 C   0  0  0  0  0  0  0  0  0  0  0  0
   22.8224  -20.9922  -13.5111 O   0  0  0  0  0  0  0  0  0  0  0  0
   28.8176  -23.1251  -15.9708 C   0  0  0  0  0  0  0  0  0  0  0  0
   19.8516  -17.1274  -13.3289 C   0  0  2  0  0  0  0  0  0  0  0  0
   20.1646  -17.9351  -14.6247 C   0  0  0  0  0  0  0  0  0  0  0  0
   19.8753  -16.9763  -15.7789 C   0  0  0  0  0  0  0  0  0  0  0  0
   21.5554  -18.4290  -14.5501 C   0  0  1  0  0  0  0  0  0  0  0  0
   22.1279  -19.2520  -15.6248 N   0  0  0  0  0  0  0  0  0  0  0  0
   23.4948  -19.6691  -15.2587 C   0  0  0  0  0  0  0  0  0  0  0  0
   22.1810  -18.7682  -16.9909 O   0  0  0  0  0  0  0  0  0  0  0  0
   23.1080  -18.0966  -17.5053 O   0  0  0  0  0  0  0  0  0  0  0  0
  2  1  1  1
  2  3  1  0
  3  4  1  0
  4  5  2  0
  4  8  1  0
  6  7  2  0
  6  2  1  0
  9 10  1  0
 10 12  1  0
 11 10  2  0
 12 13  1  0
 14 13  1  0
 14 15  1  0
 16 15  1  6
 16 17  1  0
 17  6  1  0
 18 16  1  0
 19 18  2  0
 21 20  1  6
 21 22  1  0
 23 21  1  0
 24 23  1  1
 24 25  1  0
 25 18  1  0
 26 28  1  0
 26 24  1  0
 27 26  2  0
M  END
$$$$
