DRL.pdb
     RDKit          3D

 28 27  0  0  1  0  0  0  0  0999 V2000
   24.3769  -21.8786  -16.9379 N   0  0  0  0  0  0  0  0  0  0  0  0
   24.4173  -20.7587  -16.0194 C   0  0  1  0  0  0  0  0  0  0  0  0
   23.0321  -20.2258  -15.7252 C   0  0  0  0  0  0  0  0  0  0  0  0
   22.4500  -19.5184  -16.8751 C   0  0  0  0  0  0  0  0  0  0  0  0
   23.1068  -19.4498  -17.9446 O   0  0  0  0  0  0  0  0  0  0  0  0
   25.0907  -21.1140  -14.7425 C   0  0  0  0  0  0  0  0  0  0  0  0
   24.4356  -21.7826  -13.9186 O   0  0  0  0  0  0  0  0  0  0  0  0
   21.2021  -18.9497  -16.7516 O   0  0  0  0  0  0  0  0  0  0  0  0
   31.4226  -21.6866   -9.7758 N   0  0  0  0  0  0  0  0  0  0  0  0
   31.8080  -22.0885  -11.0861 C   0  0  0  0  0  0  0  0  0  0  0  0
   32.4718  -23.1701  -11.3284 N   0  0  0  0  0  0  0  0  0  0  0  0
   31.4613  -21.2812  -12.2129 N   0  0  0  0  0  0  0  0  0  0  0  0
   30.6804  -20.0523  -11.9694 C   0  0  0  0  0  0  0  0  0  0  0  0
   29.2172  -20.4729  -11.9958 C   0  0  0  0  0  0  0  0  0  0  0  0
   28.5774  -20.3928  -13.3274 C   0  0  0  0  0  0  0  0  0  0  0  0
   27.1246  -20.7774  -13.2813 C   0  0  2  0  0  0  0  0  0  0  0  0
   26.4121  -20.6920  -14.5170 N   0  0  0  0  0  0  0  0  0  0  0  0
   26.3948  -20.1882  -12.1358 C   0  0  0  0  0  0  0  0  0  0  0  0
   26.2775  -18.9281  -12.1101 O   0  0  0  0  0  0  0  0  0  0  0  0
   32.7876  -23.3066  -12.3234 C   0  0  0  0  0  0  0  0  0  0  0  0
   21.5099  -21.4377  -10.5145 C   0  0  1  0  0  0  0  0  0  0  0  0
   22.7860  -20.6140  -10.8639 C   0  0  0  0  0  0  0  0  0  0  0  0
   22.3078  -19.1702  -11.0121 C   0  0  0  0  0  0  0  0  0  0  0  0
   23.7968  -20.8372   -9.8091 C   0  0  2  0  0  0  0  0  0  0  0  0
   25.1605  -20.3048   -9.9390 N   0  0  0  0  0  0  0  0  0  0  0  0
   25.8332  -20.9337  -11.0916 C   0  0  0  0  0  0  0  0  0  0  0  0
   26.0902  -20.3480   -8.8269 O   0  0  0  0  0  0  0  0  0  0  0  0
   27.1506  -21.0170   -8.7710 O   0  0  0  0  0  0  0  0  0  0  0  0
  2  1  1  6
  2  3  1  0
  3  4  1  0
  4  5  2  0
  4  8  1  0
  6  7  2  0
  6  2  1  0
  9 10  1  0
 10 12  1  0
 11 10  2  0
 12 13  1  0
 14 13  1  0
 14 15  1  0
 16 15  1  6
 16 17  1  0
 17  6  1  0
 18 16  1  0
 19 18  2  0
 21 20  1  6
 21 22  1  0
 23 21  1  0
 24 23  1  6
 24 25  1  0
 25 18  1  0
 26 28  1  0
 26 24  1  0
 27 26  2  0
M  END
$$$$
