CFI.pdb
     RDKit          3D

 26 26  0  0  1  0  0  0  0  0999 V2000
   29.0016  -21.7782  -14.3724 N   0  0  0  0  0  0  0  0  0  0  0  0
   28.7758  -20.6436  -13.4982 C   0  0  1  0  0  0  0  0  0  0  0  0
   27.7735  -19.6801  -14.0774 C   0  0  0  0  0  0  0  0  0  0  0  0
   28.4865  -18.5918  -15.3134 S   0  0  0  0  0  0  0  0  0  0  0  0
   28.2567  -21.1147  -12.1843 C   0  0  0  0  0  0  0  0  0  0  0  0
   27.4959  -22.1075  -12.1170 O   0  0  0  0  0  0  0  0  0  0  0  0
   28.6135  -20.4524  -11.0068 N   0  0  0  0  0  0  0  0  0  0  0  0
   27.9910  -20.7560   -9.6935 C   0  0  1  0  0  0  0  0  0  0  0  0
   28.9335  -20.1665   -8.6934 C   0  0  0  0  0  0  0  0  0  0  0  0
   28.4559  -20.1121   -7.3045 C   0  0  0  0  0  0  0  0  0  0  0  0
   27.7204  -19.0156   -6.8422 C   0  0  0  0  0  0  0  0  0  0  0  0
   27.2438  -18.9467   -5.5644 C   0  0  0  0  0  0  0  0  0  0  0  0
   27.4734  -19.9741   -4.6640 C   0  0  0  0  0  0  0  0  0  0  0  0
   28.1951  -21.0688   -5.0890 C   0  0  0  0  0  0  0  0  0  0  0  0
   28.6647  -21.1134   -6.3835 C   0  0  0  0  0  0  0  0  0  0  0  0
   26.6496  -20.1604   -9.7390 C   0  0  0  0  0  0  0  0  0  0  0  0
   26.5205  -18.9944  -10.2279 O   0  0  0  0  0  0  0  0  0  0  0  0
   22.6590  -20.1182  -13.2956 C   0  0  0  0  0  0  0  0  0  0  0  0
   22.7177  -19.9352  -11.7699 C   0  0  0  0  0  0  0  0  0  0  0  0
   23.9790  -20.5057  -11.2306 C   0  0  2  0  0  0  0  0  0  0  0  0
   24.2065  -21.9386  -11.6377 C   0  0  0  0  0  0  0  0  0  0  0  0
   24.1301  -20.3171   -9.7359 C   0  0  2  0  0  0  0  0  0  0  0  0
   25.4423  -20.7453   -9.2949 N   0  0  0  0  0  0  0  0  0  0  0  0
   23.0222  -20.8358   -8.9449 C   0  0  0  0  0  0  0  0  0  0  0  0
   23.2079  -21.7279   -8.0639 O   0  0  0  0  0  0  0  0  0  0  0  0
   21.7035  -20.4281   -9.0634 O   0  0  0  0  0  0  0  0  0  0  0  0
  2  1  1  6
  2  3  1  0
  3  4  1  0
  5  2  1  0
  6  5  2  0
  7  5  1  0
  8  7  1  0
  8  9  1  1
  9 10  1  0
 10 15  2  0
 11 12  2  0
 11 10  1  0
 12 13  1  0
 13 14  2  0
 15 14  1  0
 16 23  1  0
 16  8  1  0
 17 16  2  0
 19 18  1  0
 20 22  1  0
 20 19  1  0
 20 21  1  1
 22 24  1  0
 22 23  1  1
 24 26  1  0
 25 24  2  0
M  END
$$$$
