CFI.pdb
     RDKit          3D

 26 26  0  0  1  0  0  0  0  0999 V2000
   21.7714  -17.8098  -17.2132 N   0  0  0  0  0  0  0  0  0  0  0  0
   21.1403  -16.5110  -17.3443 C   0  0  1  0  0  0  0  0  0  0  0  0
   20.1427  -16.2585  -16.2445 C   0  0  0  0  0  0  0  0  0  0  0  0
   18.5990  -17.1407  -16.4880 S   0  0  0  0  0  0  0  0  0  0  0  0
   22.1733  -15.4400  -17.2845 C   0  0  0  0  0  0  0  0  0  0  0  0
   23.1454  -15.5332  -16.5000 O   0  0  0  0  0  0  0  0  0  0  0  0
   22.0701  -14.3143  -18.1059 N   0  0  0  0  0  0  0  0  0  0  0  0
   23.1105  -13.2561  -18.1538 C   0  0  1  0  0  0  0  0  0  0  0  0
   23.5618  -13.2468  -19.5794 C   0  0  0  0  0  0  0  0  0  0  0  0
   24.5618  -14.2579  -19.9505 C   0  0  0  0  0  0  0  0  0  0  0  0
   25.9224  -14.0441  -19.7048 C   0  0  0  0  0  0  0  0  0  0  0  0
   26.8722  -14.9739  -20.0173 C   0  0  0  0  0  0  0  0  0  0  0  0
   26.5207  -16.1816  -20.5978 C   0  0  0  0  0  0  0  0  0  0  0  0
   25.1878  -16.4227  -20.8527 C   0  0  0  0  0  0  0  0  0  0  0  0
   24.2492  -15.4678  -20.5276 C   0  0  0  0  0  0  0  0  0  0  0  0
   22.4563  -12.0296  -17.6805 C   0  0  0  0  0  0  0  0  0  0  0  0
   21.3241  -11.7198  -18.1679 O   0  0  0  0  0  0  0  0  0  0  0  0
   21.4223   -8.5890  -12.7875 C   0  0  0  0  0  0  0  0  0  0  0  0
   21.4776   -8.5994  -14.3243 C   0  0  0  0  0  0  0  0  0  0  0  0
   22.2508   -9.7737  -14.8042 C   0  0  2  0  0  0  0  0  0  0  0  0
   23.6483   -9.8359  -14.2443 C   0  0  0  0  0  0  0  0  0  0  0  0
   22.2438   -9.9194  -16.3114 C   0  0  2  0  0  0  0  0  0  0  0  0
   22.9448  -11.1221  -16.7137 N   0  0  0  0  0  0  0  0  0  0  0  0
   22.6301   -8.7173  -17.0378 C   0  0  0  0  0  0  0  0  0  0  0  0
   23.7738   -8.6157  -17.5746 O   0  0  0  0  0  0  0  0  0  0  0  0
   21.8250   -7.6038  -17.2142 O   0  0  0  0  0  0  0  0  0  0  0  0
  2  1  1  1
  2  3  1  0
  3  4  1  0
  5  2  1  0
  6  5  2  0
  7  5  1  0
  8  7  1  0
  8  9  1  6
  9 10  1  0
 10 15  2  0
 11 12  2  0
 11 10  1  0
 12 13  1  0
 13 14  2  0
 15 14  1  0
 16 23  1  0
 16  8  1  0
 17 16  2  0
 19 18  1  0
 20 22  1  0
 20 19  1  0
 20 21  1  6
 22 24  1  0
 22 23  1  1
 24 26  1  0
 25 24  2  0
M  END
$$$$
