CFI.pdb
     RDKit          3D

 26 26  0  0  1  0  0  0  0  0999 V2000
   18.0439  -12.9874  -18.3591 N   0  0  0  0  0  0  0  0  0  0  0  0
   18.8979  -11.9116  -18.8237 C   0  0  1  0  0  0  0  0  0  0  0  0
   18.1025  -10.6957  -19.2204 C   0  0  0  0  0  0  0  0  0  0  0  0
   17.0175  -10.9979  -20.6175 S   0  0  0  0  0  0  0  0  0  0  0  0
   19.8409  -11.5132  -17.7422 C   0  0  0  0  0  0  0  0  0  0  0  0
   19.5153  -11.6247  -16.5378 O   0  0  0  0  0  0  0  0  0  0  0  0
   21.1046  -11.0084  -18.0593 N   0  0  0  0  0  0  0  0  0  0  0  0
   22.0857  -10.5904  -17.0263 C   0  0  1  0  0  0  0  0  0  0  0  0
   23.4008  -11.0728  -17.5497 C   0  0  0  0  0  0  0  0  0  0  0  0
   24.5857  -10.7153  -16.7571 C   0  0  0  0  0  0  0  0  0  0  0  0
   25.3231   -9.5632  -17.0503 C   0  0  0  0  0  0  0  0  0  0  0  0
   26.4145   -9.1929  -16.3182 C   0  0  0  0  0  0  0  0  0  0  0  0
   26.8398   -9.9542  -15.2418 C   0  0  0  0  0  0  0  0  0  0  0  0
   26.1343  -11.0956  -14.9270 C   0  0  0  0  0  0  0  0  0  0  0  0
   25.0365  -11.4469  -15.6819 C   0  0  0  0  0  0  0  0  0  0  0  0
   21.9403   -9.1345  -16.9019 C   0  0  0  0  0  0  0  0  0  0  0  0
   21.8828   -8.4382  -17.9636 O   0  0  0  0  0  0  0  0  0  0  0  0
   18.8250   -4.5960  -16.4840 C   0  0  0  0  0  0  0  0  0  0  0  0
   20.2609   -4.9922  -16.1017 C   0  0  0  0  0  0  0  0  0  0  0  0
   20.3659   -6.4665  -15.9511 C   0  0  2  0  0  0  0  0  0  0  0  0
   19.3760   -7.0368  -14.9685 C   0  0  0  0  0  0  0  0  0  0  0  0
   21.7755   -6.9399  -15.6653 C   0  0  2  0  0  0  0  0  0  0  0  0
   21.8490   -8.3865  -15.7064 N   0  0  0  0  0  0  0  0  0  0  0  0
   22.3929   -6.3316  -14.4945 C   0  0  0  0  0  0  0  0  0  0  0  0
   22.4997   -6.9696  -13.4046 O   0  0  0  0  0  0  0  0  0  0  0  0
   22.9089   -5.0468  -14.4471 O   0  0  0  0  0  0  0  0  0  0  0  0
  2  1  1  1
  2  3  1  0
  3  4  1  0
  5  2  1  0
  6  5  2  0
  7  5  1  0
  8  7  1  0
  8  9  1  6
  9 10  1  0
 10 15  2  0
 11 12  2  0
 11 10  1  0
 12 13  1  0
 13 14  2  0
 15 14  1  0
 16 23  1  0
 16  8  1  0
 17 16  2  0
 19 18  1  0
 20 22  1  0
 20 19  1  0
 20 21  1  1
 22 24  1  0
 22 23  1  1
 24 26  1  0
 25 24  2  0
M  END
$$$$
