CFI.pdb
     RDKit          3D

 26 26  0  0  1  0  0  0  0  0999 V2000
   28.1796  -22.2318  -17.5858 N   0  0  0  0  0  0  0  0  0  0  0  0
   27.6594  -21.0712  -16.8897 C   0  0  1  0  0  0  0  0  0  0  0  0
   26.7366  -20.2610  -17.7618 C   0  0  0  0  0  0  0  0  0  0  0  0
   27.5961  -19.4217  -19.0950 S   0  0  0  0  0  0  0  0  0  0  0  0
   26.8950  -21.5048  -15.6874 C   0  0  0  0  0  0  0  0  0  0  0  0
   26.2404  -22.5728  -15.6976 O   0  0  0  0  0  0  0  0  0  0  0  0
   26.8989  -20.7226  -14.5295 N   0  0  0  0  0  0  0  0  0  0  0  0
   26.1766  -21.1138  -13.2928 C   0  0  1  0  0  0  0  0  0  0  0  0
   26.9818  -20.5079  -12.1879 C   0  0  0  0  0  0  0  0  0  0  0  0
   26.3689  -20.5266  -10.8522 C   0  0  0  0  0  0  0  0  0  0  0  0
   26.5223  -21.6322  -10.0089 C   0  0  0  0  0  0  0  0  0  0  0  0
   25.9843  -21.6697   -8.7544 C   0  0  0  0  0  0  0  0  0  0  0  0
   25.2557  -20.5995   -8.2614 C   0  0  0  0  0  0  0  0  0  0  0  0
   25.0866  -19.4948   -9.0681 C   0  0  0  0  0  0  0  0  0  0  0  0
   25.6398  -19.4825  -10.3299 C   0  0  0  0  0  0  0  0  0  0  0  0
   24.8102  -20.5986  -13.4472 C   0  0  0  0  0  0  0  0  0  0  0  0
   24.6544  -19.4152  -13.8836 O   0  0  0  0  0  0  0  0  0  0  0  0
   19.8302  -20.6799  -16.2528 C   0  0  0  0  0  0  0  0  0  0  0  0
   20.3629  -20.3488  -14.8488 C   0  0  0  0  0  0  0  0  0  0  0  0
   21.6627  -21.0300  -14.6168 C   0  0  2  0  0  0  0  0  0  0  0  0
   21.6004  -22.5204  -14.8298 C   0  0  0  0  0  0  0  0  0  0  0  0
   22.2923  -20.6801  -13.2849 C   0  0  2  0  0  0  0  0  0  0  0  0
   23.6054  -21.2810  -13.1647 N   0  0  0  0  0  0  0  0  0  0  0  0
   21.4233  -20.8797  -12.1331 C   0  0  0  0  0  0  0  0  0  0  0  0
   21.6287  -21.8245  -11.3137 O   0  0  0  0  0  0  0  0  0  0  0  0
   20.3266  -20.0928  -11.8208 O   0  0  0  0  0  0  0  0  0  0  0  0
  2  1  1  6
  2  3  1  0
  3  4  1  0
  5  2  1  0
  6  5  2  0
  7  5  1  0
  8  7  1  0
  8  9  1  1
  9 10  1  0
 10 15  2  0
 11 12  2  0
 11 10  1  0
 12 13  1  0
 13 14  2  0
 15 14  1  0
 16 23  1  0
 16  8  1  0
 17 16  2  0
 19 18  1  0
 20 22  1  0
 20 19  1  0
 20 21  1  1
 22 24  1  0
 22 23  1  1
 24 26  1  0
 25 24  2  0
M  END
$$$$
