CFI.pdb
     RDKit          3D

 26 26  0  0  1  0  0  0  0  0999 V2000
   28.8933  -20.4469  -14.8688 N   0  0  0  0  0  0  0  0  0  0  0  0
   28.2781  -19.6474  -13.8273 C   0  0  1  0  0  0  0  0  0  0  0  0
   27.6359  -18.4027  -14.3813 C   0  0  0  0  0  0  0  0  0  0  0  0
   28.3179  -17.9134  -15.9675 S   0  0  0  0  0  0  0  0  0  0  0  0
   27.2243  -20.4421  -13.1376 C   0  0  0  0  0  0  0  0  0  0  0  0
   26.9053  -21.5789  -13.5558 O   0  0  0  0  0  0  0  0  0  0  0  0
   26.5765  -19.9271  -12.0117 N   0  0  0  0  0  0  0  0  0  0  0  0
   25.5593  -20.6936  -11.2488 C   0  0  1  0  0  0  0  0  0  0  0  0
   25.5501  -20.0517   -9.8982 C   0  0  0  0  0  0  0  0  0  0  0  0
   26.7368  -20.2814   -9.0621 C   0  0  0  0  0  0  0  0  0  0  0  0
   26.9475  -19.5363   -7.8969 C   0  0  0  0  0  0  0  0  0  0  0  0
   28.0281  -19.7422   -7.0880 C   0  0  0  0  0  0  0  0  0  0  0  0
   28.9705  -20.7103   -7.3939 C   0  0  0  0  0  0  0  0  0  0  0  0
   28.7915  -21.4616   -8.5355 C   0  0  0  0  0  0  0  0  0  0  0  0
   27.6925  -21.2337   -9.3346 C   0  0  0  0  0  0  0  0  0  0  0  0
   24.3141  -20.5836  -12.0193 C   0  0  0  0  0  0  0  0  0  0  0  0
   24.0088  -19.4561  -12.5200 O   0  0  0  0  0  0  0  0  0  0  0  0
   21.5630  -21.4930  -16.4532 C   0  0  0  0  0  0  0  0  0  0  0  0
   21.1205  -22.3035  -15.2236 C   0  0  0  0  0  0  0  0  0  0  0  0
   22.2523  -22.4581  -14.2736 C   0  0  2  0  0  0  0  0  0  0  0  0
   22.4125  -23.8664  -13.7621 C   0  0  0  0  0  0  0  0  0  0  0  0
   22.2268  -21.4509  -13.1434 C   0  0  2  0  0  0  0  0  0  0  0  0
   23.3833  -21.6130  -12.2856 N   0  0  0  0  0  0  0  0  0  0  0  0
   20.9543  -21.3620  -12.4400 C   0  0  0  0  0  0  0  0  0  0  0  0
   19.8961  -21.0108  -13.0427 O   0  0  0  0  0  0  0  0  0  0  0  0
   20.7698  -21.6403  -11.0954 O   0  0  0  0  0  0  0  0  0  0  0  0
  2  1  1  6
  2  3  1  0
  3  4  1  0
  5  2  1  0
  6  5  2  0
  7  5  1  0
  8  7  1  0
  8  9  1  1
  9 10  1  0
 10 15  2  0
 11 12  2  0
 11 10  1  0
 12 13  1  0
 13 14  2  0
 15 14  1  0
 16 23  1  0
 16  8  1  0
 17 16  2  0
 19 18  1  0
 20 22  1  0
 20 19  1  0
 20 21  1  1
 22 24  1  0
 22 23  1  1
 24 26  1  0
 25 24  2  0
M  END
$$$$
