CFI.pdb
     RDKit          3D

 26 26  0  0  1  0  0  0  0  0999 V2000
   43.6200  -11.5395   -7.4234 N   0  0  0  0  0  0  0  0  0  0  0  0
   42.8837  -10.3708   -6.9827 C   0  0  1  0  0  0  0  0  0  0  0  0
   43.7672   -9.1548   -6.8858 C   0  0  0  0  0  0  0  0  0  0  0  0
   44.9892   -9.2835   -5.5779 S   0  0  0  0  0  0  0  0  0  0  0  0
   41.7898  -10.0703   -7.9475 C   0  0  0  0  0  0  0  0  0  0  0  0
   41.9240  -10.3284   -9.1659 O   0  0  0  0  0  0  0  0  0  0  0  0
   40.5965   -9.4948   -7.5035 N   0  0  0  0  0  0  0  0  0  0  0  0
   39.4220   -9.2949   -8.3895 C   0  0  1  0  0  0  0  0  0  0  0  0
   38.2598   -9.7620   -7.5726 C   0  0  0  0  0  0  0  0  0  0  0  0
   37.8200  -11.1457   -7.8009 C   0  0  0  0  0  0  0  0  0  0  0  0
   37.7123  -11.6586   -9.0980 C   0  0  0  0  0  0  0  0  0  0  0  0
   37.3285  -12.9463   -9.3408 C   0  0  0  0  0  0  0  0  0  0  0  0
   37.0268  -13.8066   -8.2978 C   0  0  0  0  0  0  0  0  0  0  0  0
   37.1232  -13.3314   -7.0076 C   0  0  0  0  0  0  0  0  0  0  0  0
   37.5128  -12.0278   -6.7899 C   0  0  0  0  0  0  0  0  0  0  0  0
   39.4252   -7.8698   -8.7434 C   0  0  0  0  0  0  0  0  0  0  0  0
   39.5404   -7.0140   -7.8109 O   0  0  0  0  0  0  0  0  0  0  0  0
   41.7703   -3.6427  -12.2056 C   0  0  0  0  0  0  0  0  0  0  0  0
   40.5530   -3.9938  -11.3340 C   0  0  0  0  0  0  0  0  0  0  0  0
   40.4957   -5.4590  -11.0950 C   0  0  2  0  0  0  0  0  0  0  0  0
   40.6581   -6.2743  -12.3517 C   0  0  0  0  0  0  0  0  0  0  0  0
   39.2800   -5.8888  -10.3013 C   0  0  2  0  0  0  0  0  0  0  0  0
   39.3167   -7.3132  -10.0378 N   0  0  0  0  0  0  0  0  0  0  0  0
   38.0115   -5.3984  -10.8234 C   0  0  0  0  0  0  0  0  0  0  0  0
   37.2167   -6.1677  -11.4422 O   0  0  0  0  0  0  0  0  0  0  0  0
   37.5553   -4.0956  -10.7049 O   0  0  0  0  0  0  0  0  0  0  0  0
  2  1  1  6
  2  3  1  0
  3  4  1  0
  5  2  1  0
  6  5  2  0
  7  5  1  0
  8  7  1  0
  8  9  1  1
  9 10  1  0
 10 15  2  0
 11 12  2  0
 11 10  1  0
 12 13  1  0
 13 14  2  0
 15 14  1  0
 16 23  1  0
 16  8  1  0
 17 16  2  0
 19 18  1  0
 20 22  1  0
 20 19  1  0
 20 21  1  6
 22 24  1  0
 22 23  1  6
 24 26  1  0
 25 24  2  0
M  END
$$$$
