CFI.pdb
     RDKit          3D

 26 26  0  0  1  0  0  0  0  0999 V2000
   28.7619  -22.5830  -17.9255 N   0  0  0  0  0  0  0  0  0  0  0  0
   28.5634  -21.3973  -17.1148 C   0  0  1  0  0  0  0  0  0  0  0  0
   27.9335  -20.2785  -17.9022 C   0  0  0  0  0  0  0  0  0  0  0  0
   26.2831  -20.6780  -18.4827 S   0  0  0  0  0  0  0  0  0  0  0  0
   27.6684  -21.7146  -15.9677 C   0  0  0  0  0  0  0  0  0  0  0  0
   26.9613  -22.7486  -15.9762 O   0  0  0  0  0  0  0  0  0  0  0  0
   27.6066  -20.8597  -14.8642 N   0  0  0  0  0  0  0  0  0  0  0  0
   26.8113  -21.1709  -13.6496 C   0  0  1  0  0  0  0  0  0  0  0  0
   27.5177  -20.4445  -12.5499 C   0  0  0  0  0  0  0  0  0  0  0  0
   26.8648  -20.4661  -11.2334 C   0  0  0  0  0  0  0  0  0  0  0  0
   26.2268  -19.3269  -10.7310 C   0  0  0  0  0  0  0  0  0  0  0  0
   25.5923  -19.3228   -9.5220 C   0  0  0  0  0  0  0  0  0  0  0  0
   25.5552  -20.4623   -8.7351 C   0  0  0  0  0  0  0  0  0  0  0  0
   26.1746  -21.6016   -9.2020 C   0  0  0  0  0  0  0  0  0  0  0  0
   26.8079  -21.5790  -10.4254 C   0  0  0  0  0  0  0  0  0  0  0  0
   25.4440  -20.7213  -13.9402 C   0  0  0  0  0  0  0  0  0  0  0  0
   25.2869  -19.6549  -14.6136 O   0  0  0  0  0  0  0  0  0  0  0  0
   20.5311  -21.5103  -16.7771 C   0  0  0  0  0  0  0  0  0  0  0  0
   21.0396  -20.8504  -15.4846 C   0  0  0  0  0  0  0  0  0  0  0  0
   22.3400  -21.4441  -15.0798 C   0  0  2  0  0  0  0  0  0  0  0  0
   22.3029  -22.9472  -14.9796 C   0  0  0  0  0  0  0  0  0  0  0  0
   22.9236  -20.8135  -13.8330 C   0  0  2  0  0  0  0  0  0  0  0  0
   24.2397  -21.3517  -13.5540 N   0  0  0  0  0  0  0  0  0  0  0  0
   22.0217  -20.7857  -12.6894 C   0  0  0  0  0  0  0  0  0  0  0  0
   20.9319  -20.1398  -12.7305 O   0  0  0  0  0  0  0  0  0  0  0  0
   22.2462  -21.4342  -11.4860 O   0  0  0  0  0  0  0  0  0  0  0  0
  2  1  1  6
  2  3  1  0
  3  4  1  0
  5  2  1  0
  6  5  2  0
  7  5  1  0
  8  7  1  0
  8  9  1  1
  9 10  1  0
 10 15  2  0
 11 12  2  0
 11 10  1  0
 12 13  1  0
 13 14  2  0
 15 14  1  0
 16 23  1  0
 16  8  1  0
 17 16  2  0
 19 18  1  0
 20 22  1  0
 20 19  1  0
 20 21  1  1
 22 24  1  0
 22 23  1  1
 24 26  1  0
 25 24  2  0
M  END
$$$$
