CFI.pdb
     RDKit          3D

 26 26  0  0  1  0  0  0  0  0999 V2000
   22.9218  -11.8759  -17.8631 N   0  0  0  0  0  0  0  0  0  0  0  0
   22.4541  -11.3447  -16.5976 C   0  0  1  0  0  0  0  0  0  0  0  0
   23.5840  -10.7921  -15.7692 C   0  0  0  0  0  0  0  0  0  0  0  0
   24.7466  -12.0549  -15.2454 S   0  0  0  0  0  0  0  0  0  0  0  0
   21.4802  -10.2448  -16.8414 C   0  0  0  0  0  0  0  0  0  0  0  0
   21.6202   -9.4724  -17.8176 O   0  0  0  0  0  0  0  0  0  0  0  0
   20.3948  -10.0606  -15.9809 N   0  0  0  0  0  0  0  0  0  0  0  0
   19.3578   -9.0221  -16.2059 C   0  0  1  0  0  0  0  0  0  0  0  0
   18.0697   -9.7119  -15.8880 C   0  0  0  0  0  0  0  0  0  0  0  0
   17.4442  -10.4587  -16.9885 C   0  0  0  0  0  0  0  0  0  0  0  0
   16.8721   -9.7886  -18.0751 C   0  0  0  0  0  0  0  0  0  0  0  0
   16.3042  -10.4550  -19.1229 C   0  0  0  0  0  0  0  0  0  0  0  0
   16.2722  -11.8396  -19.1509 C   0  0  0  0  0  0  0  0  0  0  0  0
   16.8278  -12.5295  -18.0949 C   0  0  0  0  0  0  0  0  0  0  0  0
   17.3945  -11.8329  -17.0499 C   0  0  0  0  0  0  0  0  0  0  0  0
   19.7176   -7.9003  -15.3293 C   0  0  0  0  0  0  0  0  0  0  0  0
   19.9314   -8.1369  -14.0991 O   0  0  0  0  0  0  0  0  0  0  0  0
   22.5717   -2.9470  -16.1564 C   0  0  0  0  0  0  0  0  0  0  0  0
   21.7057   -4.2024  -16.3537 C   0  0  0  0  0  0  0  0  0  0  0  0
   21.6423   -4.9880  -15.0943 C   0  0  2  0  0  0  0  0  0  0  0  0
   22.6679   -6.0899  -15.0274 C   0  0  0  0  0  0  0  0  0  0  0  0
   20.2521   -5.4962  -14.7753 C   0  0  2  0  0  0  0  0  0  0  0  0
   19.8648   -6.5441  -15.6981 N   0  0  0  0  0  0  0  0  0  0  0  0
   19.2543   -4.4519  -14.5858 C   0  0  0  0  0  0  0  0  0  0  0  0
   19.3542   -3.6147  -13.6395 O   0  0  0  0  0  0  0  0  0  0  0  0
   18.1373   -4.2675  -15.3844 O   0  0  0  0  0  0  0  0  0  0  0  0
  2  1  1  6
  2  3  1  0
  3  4  1  0
  5  2  1  0
  6  5  2  0
  7  5  1  0
  8  7  1  0
  8  9  1  1
  9 10  1  0
 10 15  2  0
 11 12  2  0
 11 10  1  0
 12 13  1  0
 13 14  2  0
 15 14  1  0
 16 23  1  0
 16  8  1  0
 17 16  2  0
 19 18  1  0
 20 22  1  0
 20 19  1  0
 20 21  1  6
 22 24  1  0
 22 23  1  6
 24 26  1  0
 25 24  2  0
M  END
$$$$
