QSD.pdb
     RDKit          3D

 24 23  0  0  1  0  0  0  0  0999 V2000
    8.3677  -19.7238   15.0003 N   0  0  0  0  0  0  0  0  0  0  0  0
    9.6022  -20.0937   15.5837 C   0  0  0  0  0  0  0  0  0  0  0  0
    9.9044  -21.3043   15.6375 O   0  0  0  0  0  0  0  0  0  0  0  0
   10.5341  -19.0876   16.1263 C   0  0  0  0  0  0  0  0  0  0  0  0
   10.3284  -18.9506   17.5987 C   0  0  0  0  0  0  0  0  0  0  0  0
    9.4098  -17.8431   17.9951 C   0  0  2  0  0  0  0  0  0  0  0  0
    9.0400  -17.0222   16.8818 N   0  0  0  0  0  0  0  0  0  0  0  0
    9.9107  -17.0684   19.1627 C   0  0  0  0  0  0  0  0  0  0  0  0
   11.1464  -16.9162   19.2676 O   0  0  0  0  0  0  0  0  0  0  0  0
    7.2558  -15.9141   22.3696 O   0  0  0  0  0  0  0  0  0  0  0  0
    8.2840  -15.0360   21.9470 C   0  0  0  0  0  0  0  0  0  0  0  0
    9.3943  -15.7683   21.2952 C   0  0  2  0  0  0  0  0  0  0  0  0
    9.0527  -16.5094   20.1389 N   0  0  0  0  0  0  0  0  0  0  0  0
   10.2127  -16.4870   22.3129 C   0  0  0  0  0  0  0  0  0  0  0  0
   10.1221  -17.7313   22.3908 O   0  0  0  0  0  0  0  0  0  0  0  0
   11.1000  -15.8534   23.2118 N   0  0  0  0  0  0  0  0  0  0  0  0
   11.8462  -16.5679   24.2249 C   0  0  1  0  0  0  0  0  0  0  0  0
   13.2456  -16.0217   24.3846 C   0  0  0  0  0  0  0  0  0  0  0  0
   14.0666  -16.2728   23.1729 C   0  0  0  0  0  0  0  0  0  0  0  0
   14.1675  -17.4115   22.6517 O   0  0  0  0  0  0  0  0  0  0  0  0
   11.1408  -16.3814   25.5190 C   0  0  0  0  0  0  0  0  0  0  0  0
   10.1686  -15.5894   25.6455 O   0  0  0  0  0  0  0  0  0  0  0  0
   14.7664  -15.2393   22.5592 O   0  0  0  0  0  0  0  0  0  0  0  0
   11.5126  -17.0719   26.6717 O   0  0  0  0  0  0  0  0  0  0  0  0
  2  1  1  0
  2  3  2  0
  4  5  1  0
  4  2  1  0
  5  6  1  0
  6  8  1  0
  6  7  1  6
  8 13  1  0
  9  8  2  0
 10 11  1  0
 12 11  1  1
 12 14  1  0
 13 12  1  0
 14 15  2  0
 14 16  1  0
 16 17  1  0
 17 21  1  0
 17 18  1  1
 19 18  1  0
 20 19  2  0
 21 22  2  0
 21 24  1  0
 23 19  1  0
M  END
$$$$
