QSD.pdb
     RDKit          3D

 24 23  0  0  1  0  0  0  0  0999 V2000
    7.0800  -12.6969   14.3682 N   0  0  0  0  0  0  0  0  0  0  0  0
    7.4239  -13.9882   14.8326 C   0  0  0  0  0  0  0  0  0  0  0  0
    7.6678  -14.8838   13.9970 O   0  0  0  0  0  0  0  0  0  0  0  0
    7.5001  -14.2978   16.2725 C   0  0  0  0  0  0  0  0  0  0  0  0
    8.9191  -14.5529   16.6600 C   0  0  0  0  0  0  0  0  0  0  0  0
    9.1044  -15.6710   17.6312 C   0  0  2  0  0  0  0  0  0  0  0  0
    8.0602  -16.6463   17.5390 N   0  0  0  0  0  0  0  0  0  0  0  0
    9.3497  -15.1943   19.0194 C   0  0  0  0  0  0  0  0  0  0  0  0
   10.4553  -14.6649   19.2612 O   0  0  0  0  0  0  0  0  0  0  0  0
    6.1873  -15.2994   21.4798 O   0  0  0  0  0  0  0  0  0  0  0  0
    7.3558  -15.2571   22.2795 C   0  0  0  0  0  0  0  0  0  0  0  0
    8.5826  -15.1980   21.4516 C   0  0  2  0  0  0  0  0  0  0  0  0
    8.3930  -15.3177   20.0542 N   0  0  0  0  0  0  0  0  0  0  0  0
    9.6507  -16.0546   22.0411 C   0  0  0  0  0  0  0  0  0  0  0  0
   10.3272  -16.7828   21.2829 O   0  0  0  0  0  0  0  0  0  0  0  0
    9.9606  -16.1043   23.4189 N   0  0  0  0  0  0  0  0  0  0  0  0
   11.1724  -16.7009   23.9378 C   0  0  1  0  0  0  0  0  0  0  0  0
   12.4072  -15.9675   23.4693 C   0  0  0  0  0  0  0  0  0  0  0  0
   13.5531  -16.8951   23.2908 C   0  0  0  0  0  0  0  0  0  0  0  0
   13.4750  -18.1208   23.5554 O   0  0  0  0  0  0  0  0  0  0  0  0
   11.1251  -16.6002   25.4193 C   0  0  0  0  0  0  0  0  0  0  0  0
   10.4294  -15.7317   26.0111 O   0  0  0  0  0  0  0  0  0  0  0  0
   14.7762  -16.4339   22.8158 O   0  0  0  0  0  0  0  0  0  0  0  0
   11.8481  -17.4611   26.2438 O   0  0  0  0  0  0  0  0  0  0  0  0
  2  1  1  0
  2  3  2  0
  4  5  1  0
  4  2  1  0
  5  6  1  0
  6  8  1  0
  6  7  1  1
  8 13  1  0
  9  8  2  0
 10 11  1  0
 12 11  1  1
 12 14  1  0
 13 12  1  0
 14 15  2  0
 14 16  1  0
 16 17  1  0
 17 21  1  0
 17 18  1  6
 19 18  1  0
 20 19  2  0
 21 22  2  0
 21 24  1  0
 23 19  1  0
M  END
$$$$
