QSD.pdb
     RDKit          3D

 24 23  0  0  1  0  0  0  0  0999 V2000
   10.3930  -20.7390   16.6594 N   0  0  0  0  0  0  0  0  0  0  0  0
   10.0844  -19.9012   15.5621 C   0  0  0  0  0  0  0  0  0  0  0  0
   10.2871  -20.3249   14.4049 O   0  0  0  0  0  0  0  0  0  0  0  0
    9.5323  -18.5471   15.7536 C   0  0  0  0  0  0  0  0  0  0  0  0
    9.3030  -18.2960   17.2073 C   0  0  0  0  0  0  0  0  0  0  0  0
    8.6005  -17.0146   17.5110 C   0  0  2  0  0  0  0  0  0  0  0  0
    8.4183  -16.2074   16.3425 N   0  0  0  0  0  0  0  0  0  0  0  0
    9.2108  -16.2784   18.6512 C   0  0  0  0  0  0  0  0  0  0  0  0
   10.4220  -15.9839   18.5663 O   0  0  0  0  0  0  0  0  0  0  0  0
    6.8935  -15.4503   22.2108 O   0  0  0  0  0  0  0  0  0  0  0  0
    7.9452  -14.5912   21.8076 C   0  0  0  0  0  0  0  0  0  0  0  0
    8.9556  -15.3081   20.9958 C   0  0  2  0  0  0  0  0  0  0  0  0
    8.4810  -15.9081   19.8052 N   0  0  0  0  0  0  0  0  0  0  0  0
    9.8076  -16.1683   21.8655 C   0  0  0  0  0  0  0  0  0  0  0  0
    9.6280  -17.4053   21.8521 O   0  0  0  0  0  0  0  0  0  0  0  0
   10.8222  -15.6791   22.7189 N   0  0  0  0  0  0  0  0  0  0  0  0
   11.6144  -16.5319   23.5783 C   0  0  1  0  0  0  0  0  0  0  0  0
   12.9568  -15.9177   23.8994 C   0  0  0  0  0  0  0  0  0  0  0  0
   13.8445  -15.9032   22.7089 C   0  0  0  0  0  0  0  0  0  0  0  0
   13.7583  -16.7599   21.7940 O   0  0  0  0  0  0  0  0  0  0  0  0
   10.8763  -16.6922   24.8576 C   0  0  0  0  0  0  0  0  0  0  0  0
   11.2855  -17.4495   25.7783 O   0  0  0  0  0  0  0  0  0  0  0  0
   14.8211  -14.9242   22.5599 O   0  0  0  0  0  0  0  0  0  0  0  0
    9.6861  -16.0139   25.1162 O   0  0  0  0  0  0  0  0  0  0  0  0
  2  1  1  0
  2  3  2  0
  4  5  1  0
  4  2  1  0
  5  6  1  0
  6  8  1  0
  6  7  1  6
  8 13  1  0
  9  8  2  0
 10 11  1  0
 12 11  1  1
 12 14  1  0
 13 12  1  0
 14 15  2  0
 14 16  1  0
 16 17  1  0
 17 21  1  0
 17 18  1  1
 19 18  1  0
 20 19  2  0
 21 22  2  0
 21 24  1  0
 23 19  1  0
M  END
$$$$
