QSD.pdb
     RDKit          3D

 24 23  0  0  1  0  0  0  0  0999 V2000
    9.7250  -12.1832   19.3413 N   0  0  0  0  0  0  0  0  0  0  0  0
    8.8161  -12.9098   18.5367 C   0  0  0  0  0  0  0  0  0  0  0  0
    9.0505  -13.0233   17.3153 O   0  0  0  0  0  0  0  0  0  0  0  0
    7.6059  -13.5319   19.1052 C   0  0  0  0  0  0  0  0  0  0  0  0
    7.8057  -13.7865   20.5626 C   0  0  0  0  0  0  0  0  0  0  0  0
    8.8393  -14.8169   20.8752 C   0  0  2  0  0  0  0  0  0  0  0  0
    9.0066  -15.7564   19.8079 N   0  0  0  0  0  0  0  0  0  0  0  0
    8.6320  -15.4575   22.2023 C   0  0  0  0  0  0  0  0  0  0  0  0
    8.2041  -14.7385   23.1301 O   0  0  0  0  0  0  0  0  0  0  0  0
   10.2932  -19.4153   23.2490 O   0  0  0  0  0  0  0  0  0  0  0  0
    8.9811  -18.9996   23.5842 C   0  0  0  0  0  0  0  0  0  0  0  0
    8.8818  -17.5246   23.6751 C   0  0  2  0  0  0  0  0  0  0  0  0
    8.8978  -16.8258   22.4445 N   0  0  0  0  0  0  0  0  0  0  0  0
    9.7951  -17.0051   24.7325 C   0  0  0  0  0  0  0  0  0  0  0  0
   10.8876  -16.5019   24.3922 O   0  0  0  0  0  0  0  0  0  0  0  0
    9.5111  -17.0400   26.1163 N   0  0  0  0  0  0  0  0  0  0  0  0
   10.3258  -16.3744   27.1097 C   0  0  1  0  0  0  0  0  0  0  0  0
    9.6012  -15.2114   27.7458 C   0  0  0  0  0  0  0  0  0  0  0  0
   10.4508  -14.5309   28.7560 C   0  0  0  0  0  0  0  0  0  0  0  0
   11.6117  -14.9229   29.0339 O   0  0  0  0  0  0  0  0  0  0  0  0
   10.6228  -17.3591   28.1817 C   0  0  0  0  0  0  0  0  0  0  0  0
    9.9983  -18.4491   28.2837 O   0  0  0  0  0  0  0  0  0  0  0  0
    9.9854  -13.4153   29.4440 O   0  0  0  0  0  0  0  0  0  0  0  0
   11.6110  -17.1360   29.1396 O   0  0  0  0  0  0  0  0  0  0  0  0
  2  1  1  0
  2  3  2  0
  4  5  1  0
  4  2  1  0
  5  6  1  0
  6  8  1  0
  6  7  1  6
  8 13  1  0
  9  8  2  0
 10 11  1  0
 12 11  1  6
 12 14  1  0
 13 12  1  0
 14 15  2  0
 14 16  1  0
 16 17  1  0
 17 21  1  0
 17 18  1  1
 19 18  1  0
 20 19  2  0
 21 22  2  0
 21 24  1  0
 23 19  1  0
M  END
$$$$
