QSD.pdb
     RDKit          3D

 24 23  0  0  1  0  0  0  0  0999 V2000
    9.3911  -14.9349   15.8174 N   0  0  0  0  0  0  0  0  0  0  0  0
    8.1405  -14.2739   15.7984 C   0  0  0  0  0  0  0  0  0  0  0  0
    7.3706  -14.4689   14.8347 O   0  0  0  0  0  0  0  0  0  0  0  0
    7.7288  -13.3656   16.8849 C   0  0  0  0  0  0  0  0  0  0  0  0
    8.8281  -13.2470   17.8881 C   0  0  0  0  0  0  0  0  0  0  0  0
    9.0322  -14.4627   18.7296 C   0  0  2  0  0  0  0  0  0  0  0  0
    8.0275  -15.4561   18.4977 N   0  0  0  0  0  0  0  0  0  0  0  0
    9.2272  -14.1413   20.1695 C   0  0  0  0  0  0  0  0  0  0  0  0
   10.1727  -13.3813   20.4686 O   0  0  0  0  0  0  0  0  0  0  0  0
    7.6403  -14.5094   24.7919 O   0  0  0  0  0  0  0  0  0  0  0  0
    7.3643  -14.7235   23.4191 C   0  0  0  0  0  0  0  0  0  0  0  0
    8.5888  -14.6166   22.5924 C   0  0  2  0  0  0  0  0  0  0  0  0
    8.3952  -14.6568   21.1911 N   0  0  0  0  0  0  0  0  0  0  0  0
    9.6589  -15.5046   23.1293 C   0  0  0  0  0  0  0  0  0  0  0  0
    9.8324  -15.5609   24.3660 O   0  0  0  0  0  0  0  0  0  0  0  0
   10.5066  -16.3026   22.3282 N   0  0  0  0  0  0  0  0  0  0  0  0
   11.4707  -17.2321   22.8760 C   0  0  1  0  0  0  0  0  0  0  0  0
   11.7162  -18.4004   21.9504 C   0  0  0  0  0  0  0  0  0  0  0  0
   10.5173  -19.2707   21.8467 C   0  0  0  0  0  0  0  0  0  0  0  0
    9.6505  -19.3339   22.7538 O   0  0  0  0  0  0  0  0  0  0  0  0
   12.7570  -16.5059   23.0337 C   0  0  0  0  0  0  0  0  0  0  0  0
   13.4791  -16.6343   24.0587 O   0  0  0  0  0  0  0  0  0  0  0  0
   10.3058  -20.0617   20.7224 O   0  0  0  0  0  0  0  0  0  0  0  0
   13.2426  -15.6383   22.0564 O   0  0  0  0  0  0  0  0  0  0  0  0
  2  1  1  0
  2  3  2  0
  4  5  1  0
  4  2  1  0
  5  6  1  0
  6  8  1  0
  6  7  1  1
  8 13  1  0
  9  8  2  0
 10 11  1  0
 12 11  1  1
 12 14  1  0
 13 12  1  0
 14 15  2  0
 14 16  1  0
 16 17  1  0
 17 21  1  0
 17 18  1  6
 19 18  1  0
 20 19  2  0
 21 22  2  0
 21 24  1  0
 23 19  1  0
M  END
$$$$
