QSD.pdb
     RDKit          3D

 24 23  0  0  1  0  0  0  0  0999 V2000
    8.5714  -13.9779   16.2463 N   0  0  0  0  0  0  0  0  0  0  0  0
    7.7344  -13.5334   17.2966 C   0  0  0  0  0  0  0  0  0  0  0  0
    7.1415  -12.4411   17.1733 O   0  0  0  0  0  0  0  0  0  0  0  0
    7.5479  -14.3264   18.5259 C   0  0  0  0  0  0  0  0  0  0  0  0
    8.3750  -15.5675   18.4568 C   0  0  0  0  0  0  0  0  0  0  0  0
    8.3176  -16.4188   19.6814 C   0  0  2  0  0  0  0  0  0  0  0  0
    6.9721  -16.6870   20.0912 N   0  0  0  0  0  0  0  0  0  0  0  0
    9.1815  -15.9078   20.7800 C   0  0  0  0  0  0  0  0  0  0  0  0
   10.3224  -15.4998   20.4753 O   0  0  0  0  0  0  0  0  0  0  0  0
    7.7567  -15.8681   24.8709 O   0  0  0  0  0  0  0  0  0  0  0  0
    8.7210  -14.9411   24.4045 C   0  0  0  0  0  0  0  0  0  0  0  0
    9.5060  -15.4909   23.2751 C   0  0  2  0  0  0  0  0  0  0  0  0
    8.7635  -15.8690   22.1311 N   0  0  0  0  0  0  0  0  0  0  0  0
   10.4992  -16.4875   23.7673 C   0  0  0  0  0  0  0  0  0  0  0  0
   10.2079  -17.7023   23.7226 O   0  0  0  0  0  0  0  0  0  0  0  0
   11.7691  -16.1537   24.2895 N   0  0  0  0  0  0  0  0  0  0  0  0
   12.6999  -17.1371   24.7995 C   0  0  1  0  0  0  0  0  0  0  0  0
   14.1289  -16.6529   24.7246 C   0  0  0  0  0  0  0  0  0  0  0  0
   14.5516  -16.4280   23.3188 C   0  0  0  0  0  0  0  0  0  0  0  0
   14.2178  -17.1977   22.3838 O   0  0  0  0  0  0  0  0  0  0  0  0
   12.3766  -17.3626   26.2319 C   0  0  0  0  0  0  0  0  0  0  0  0
   13.0125  -18.1874   26.9417 O   0  0  0  0  0  0  0  0  0  0  0  0
   15.3463  -15.3382   22.9791 O   0  0  0  0  0  0  0  0  0  0  0  0
   11.3497  -16.6748   26.8768 O   0  0  0  0  0  0  0  0  0  0  0  0
  2  1  1  0
  2  3  2  0
  4  5  1  0
  4  2  1  0
  5  6  1  0
  6  8  1  0
  6  7  1  1
  8 13  1  0
  9  8  2  0
 10 11  1  0
 12 11  1  1
 12 14  1  0
 13 12  1  0
 14 15  2  0
 14 16  1  0
 16 17  1  0
 17 21  1  0
 17 18  1  1
 19 18  1  0
 20 19  2  0
 21 22  2  0
 21 24  1  0
 23 19  1  0
M  END
$$$$
