QSD.pdb
     RDKit          3D

 24 23  0  0  1  0  0  0  0  0999 V2000
    8.5093  -12.2196   19.3324 N   0  0  0  0  0  0  0  0  0  0  0  0
    8.4264  -13.3740   18.5189 C   0  0  0  0  0  0  0  0  0  0  0  0
    8.0677  -13.2482   17.3292 O   0  0  0  0  0  0  0  0  0  0  0  0
    8.7521  -14.7140   19.0416 C   0  0  0  0  0  0  0  0  0  0  0  0
    9.1171  -14.6178   20.4860 C   0  0  0  0  0  0  0  0  0  0  0  0
    9.3451  -15.9320   21.1559 C   0  0  2  0  0  0  0  0  0  0  0  0
    8.6222  -16.9940   20.5237 N   0  0  0  0  0  0  0  0  0  0  0  0
    9.1425  -15.8713   22.6289 C   0  0  0  0  0  0  0  0  0  0  0  0
    9.7928  -15.0160   23.2665 O   0  0  0  0  0  0  0  0  0  0  0  0
    6.1590  -18.3427   24.5937 O   0  0  0  0  0  0  0  0  0  0  0  0
    6.5819  -17.0814   25.0807 C   0  0  0  0  0  0  0  0  0  0  0  0
    7.9859  -16.7939   24.7062 C   0  0  2  0  0  0  0  0  0  0  0  0
    8.2564  -16.7321   23.3185 N   0  0  0  0  0  0  0  0  0  0  0  0
    8.9217  -17.6237   25.5172 C   0  0  0  0  0  0  0  0  0  0  0  0
    9.6061  -18.4977   24.9423 O   0  0  0  0  0  0  0  0  0  0  0  0
    9.0955  -17.4921   26.9134 N   0  0  0  0  0  0  0  0  0  0  0  0
    9.9282  -18.3800   27.6957 C   0  0  1  0  0  0  0  0  0  0  0  0
   10.1886  -17.8346   29.0802 C   0  0  0  0  0  0  0  0  0  0  0  0
   11.2593  -16.8056   29.0646 C   0  0  0  0  0  0  0  0  0  0  0  0
   11.8565  -16.4709   28.0112 O   0  0  0  0  0  0  0  0  0  0  0  0
    9.1973  -19.6642   27.8490 C   0  0  0  0  0  0  0  0  0  0  0  0
    7.9859  -19.7899   27.5245 O   0  0  0  0  0  0  0  0  0  0  0  0
   11.6475  -16.1631   30.2355 O   0  0  0  0  0  0  0  0  0  0  0  0
    9.8083  -20.8079   28.3612 O   0  0  0  0  0  0  0  0  0  0  0  0
  2  1  1  0
  2  3  2  0
  4  5  1  0
  4  2  1  0
  5  6  1  0
  6  8  1  0
  6  7  1  6
  8 13  1  0
  9  8  2  0
 10 11  1  0
 12 11  1  6
 12 14  1  0
 13 12  1  0
 14 15  2  0
 14 16  1  0
 16 17  1  0
 17 21  1  0
 17 18  1  1
 19 18  1  0
 20 19  2  0
 21 22  2  0
 21 24  1  0
 23 19  1  0
M  END
$$$$
