EAQ.pdb
     RDKit          3D

 24 23  0  0  1  0  0  0  0  0999 V2000
    8.1891  -18.6175   21.3926 N   0  0  0  0  0  0  0  0  0  0  0  0
    7.1720  -17.7405   21.9168 C   0  0  1  0  0  0  0  0  0  0  0  0
    6.1416  -18.5607   22.6180 C   0  0  0  0  0  0  0  0  0  0  0  0
    6.7443  -19.8922   22.9965 C   0  0  0  0  0  0  0  0  0  0  0  0
    5.8106  -20.7845   23.7139 C   0  0  0  0  0  0  0  0  0  0  0  0
    5.8357  -20.8565   24.9685 O   0  0  0  0  0  0  0  0  0  0  0  0
    7.7362  -16.6672   22.7705 C   0  0  0  0  0  0  0  0  0  0  0  0
    8.7015  -16.9644   23.5197 O   0  0  0  0  0  0  0  0  0  0  0  0
    4.8803  -21.5694   23.0467 O   0  0  0  0  0  0  0  0  0  0  0  0
    7.0763  -12.9866   23.4902 C   0  0  0  0  0  0  0  0  0  0  0  0
    7.7874  -14.3090   23.6512 C   0  0  2  0  0  0  0  0  0  0  0  0
    7.2672  -15.3375   22.8018 N   0  0  0  0  0  0  0  0  0  0  0  0
    7.8121  -14.7321   25.0901 C   0  0  0  0  0  0  0  0  0  0  0  0
    6.8117  -15.3088   25.5712 O   0  0  0  0  0  0  0  0  0  0  0  0
   10.8384  -18.7934   29.8778 N   0  0  0  0  0  0  0  0  0  0  0  0
   10.6531  -18.0047   28.7221 C   0  0  0  0  0  0  0  0  0  0  0  0
   11.1302  -18.4054   27.6346 O   0  0  0  0  0  0  0  0  0  0  0  0
    9.9132  -16.7349   28.7567 C   0  0  0  0  0  0  0  0  0  0  0  0
    9.6984  -16.1121   27.4381 C   0  0  0  0  0  0  0  0  0  0  0  0
    8.9569  -14.8235   27.3489 C   0  0  2  0  0  0  0  0  0  0  0  0
    8.9333  -14.4973   25.9158 N   0  0  0  0  0  0  0  0  0  0  0  0
    9.4552  -13.7324   28.1604 C   0  0  0  0  0  0  0  0  0  0  0  0
    9.9458  -12.5402   27.6258 O   0  0  0  0  0  0  0  0  0  0  0  0
    9.4785  -13.7916   29.4393 O   0  0  0  0  0  0  0  0  0  0  0  0
  2  1  1  1
  3  2  1  0
  4  3  1  0
  4  5  1  0
  5  6  2  0
  5  9  1  0
  7  2  1  0
  8  7  2  0
 11 10  1  1
 11 13  1  0
 11 12  1  0
 12  7  1  0
 13 21  1  0
 14 13  2  0
 16 15  1  0
 17 16  2  0
 18 16  1  0
 19 18  1  0
 20 19  1  6
 21 20  1  0
 22 23  1  0
 22 20  1  0
 24 22  2  0
M  END
$$$$
