EAQ.pdb
     RDKit          3D

 24 23  0  0  1  0  0  0  0  0999 V2000
   10.6720  -13.8110   18.2310 N   0  0  0  0  0  0  0  0  0  0  0  0
   11.2565  -14.6991   19.2047 C   0  0  1  0  0  0  0  0  0  0  0  0
   12.6822  -14.3133   19.4159 C   0  0  0  0  0  0  0  0  0  0  0  0
   13.5109  -14.8386   18.2685 C   0  0  0  0  0  0  0  0  0  0  0  0
   14.9585  -14.5824   18.4150 C   0  0  0  0  0  0  0  0  0  0  0  0
   15.4182  -14.1232   19.4910 O   0  0  0  0  0  0  0  0  0  0  0  0
   10.4773  -14.7471   20.4655 C   0  0  0  0  0  0  0  0  0  0  0  0
   10.7469  -13.8957   21.3509 O   0  0  0  0  0  0  0  0  0  0  0  0
   15.8598  -14.8326   17.3895 O   0  0  0  0  0  0  0  0  0  0  0  0
    7.5501  -16.6976   21.9119 C   0  0  0  0  0  0  0  0  0  0  0  0
    8.7163  -15.7400   21.9665 C   0  0  2  0  0  0  0  0  0  0  0  0
    9.4558  -15.6794   20.7419 N   0  0  0  0  0  0  0  0  0  0  0  0
    9.6017  -16.0404   23.1395 C   0  0  0  0  0  0  0  0  0  0  0  0
   10.6945  -16.6171   22.9440 O   0  0  0  0  0  0  0  0  0  0  0  0
   10.2351  -14.1689   30.3317 N   0  0  0  0  0  0  0  0  0  0  0  0
    9.7575  -14.2104   29.0043 C   0  0  0  0  0  0  0  0  0  0  0  0
    8.9008  -13.3695   28.6441 O   0  0  0  0  0  0  0  0  0  0  0  0
   10.2400  -15.2040   28.0342 C   0  0  0  0  0  0  0  0  0  0  0  0
    9.6240  -15.1089   26.6984 C   0  0  0  0  0  0  0  0  0  0  0  0
   10.0211  -16.0768   25.6383 C   0  0  2  0  0  0  0  0  0  0  0  0
    9.2354  -15.6903   24.4575 N   0  0  0  0  0  0  0  0  0  0  0  0
    9.8864  -17.4821   25.9614 C   0  0  0  0  0  0  0  0  0  0  0  0
   10.9206  -18.2479   26.5017 O   0  0  0  0  0  0  0  0  0  0  0  0
    8.7942  -18.1223   25.7696 O   0  0  0  0  0  0  0  0  0  0  0  0
  2  1  1  6
  3  2  1  0
  4  3  1  0
  4  5  1  0
  5  6  2  0
  5  9  1  0
  7  2  1  0
  8  7  2  0
 11 10  1  6
 11 13  1  0
 11 12  1  0
 12  7  1  0
 13 21  1  0
 14 13  2  0
 16 15  1  0
 17 16  2  0
 18 16  1  0
 19 18  1  0
 20 19  1  1
 21 20  1  0
 22 23  1  0
 22 20  1  0
 24 22  2  0
M  END
$$$$
