EAQ.pdb
     RDKit          3D

 24 23  0  0  1  0  0  0  0  0999 V2000
    8.4885  -16.8403   20.9843 N   0  0  0  0  0  0  0  0  0  0  0  0
    9.0407  -17.2173   22.2616 C   0  0  1  0  0  0  0  0  0  0  0  0
   10.2660  -18.0378   22.0347 C   0  0  0  0  0  0  0  0  0  0  0  0
   10.8657  -17.6705   20.6987 C   0  0  0  0  0  0  0  0  0  0  0  0
   12.1264  -18.3798   20.3983 C   0  0  0  0  0  0  0  0  0  0  0  0
   12.6137  -19.1906   21.2259 O   0  0  0  0  0  0  0  0  0  0  0  0
    9.2823  -16.0475   23.1403 C   0  0  0  0  0  0  0  0  0  0  0  0
   10.3525  -16.0247   23.8005 O   0  0  0  0  0  0  0  0  0  0  0  0
   12.8169  -18.1863   19.2099 O   0  0  0  0  0  0  0  0  0  0  0  0
    7.2822  -13.0389   24.3396 C   0  0  0  0  0  0  0  0  0  0  0  0
    8.4121  -14.0396   24.3856 C   0  0  2  0  0  0  0  0  0  0  0  0
    8.3975  -14.9593   23.2883 N   0  0  0  0  0  0  0  0  0  0  0  0
    8.4471  -14.7475   25.7076 C   0  0  0  0  0  0  0  0  0  0  0  0
    7.6958  -15.7308   25.8903 O   0  0  0  0  0  0  0  0  0  0  0  0
   10.8469  -19.0066   26.8947 N   0  0  0  0  0  0  0  0  0  0  0  0
   11.7849  -17.9550   26.9735 C   0  0  0  0  0  0  0  0  0  0  0  0
   12.9910  -18.2026   26.7392 O   0  0  0  0  0  0  0  0  0  0  0  0
   11.3875  -16.5814   27.3146 C   0  0  0  0  0  0  0  0  0  0  0  0
    9.9559  -16.4139   27.6233 C   0  0  0  0  0  0  0  0  0  0  0  0
    9.4434  -15.0714   28.0148 C   0  0  2  0  0  0  0  0  0  0  0  0
    9.3046  -14.3343   26.7506 N   0  0  0  0  0  0  0  0  0  0  0  0
   10.2169  -14.3455   29.0008 C   0  0  0  0  0  0  0  0  0  0  0  0
   10.7711  -13.0862   28.7662 O   0  0  0  0  0  0  0  0  0  0  0  0
   10.4458  -14.8187   30.1684 O   0  0  0  0  0  0  0  0  0  0  0  0
  2  1  1  6
  3  2  1  0
  4  3  1  0
  4  5  1  0
  5  6  2  0
  5  9  1  0
  7  2  1  0
  8  7  2  0
 11 10  1  1
 11 13  1  0
 11 12  1  0
 12  7  1  0
 13 21  1  0
 14 13  2  0
 16 15  1  0
 17 16  2  0
 18 16  1  0
 19 18  1  0
 20 19  1  6
 21 20  1  0
 22 23  1  0
 22 20  1  0
 24 22  2  0
M  END
$$$$
