EAQ.pdb
     RDKit          3D

 24 23  0  0  1  0  0  0  0  0999 V2000
   10.5586  -13.7524   18.6787 N   0  0  0  0  0  0  0  0  0  0  0  0
   11.3282  -14.7785   19.3369 C   0  0  1  0  0  0  0  0  0  0  0  0
   12.7325  -14.3009   19.4974 C   0  0  0  0  0  0  0  0  0  0  0  0
   13.6738  -15.4685   19.3245 C   0  0  0  0  0  0  0  0  0  0  0  0
   15.0846  -15.1428   19.6186 C   0  0  0  0  0  0  0  0  0  0  0  0
   15.6250  -14.1310   19.1046 O   0  0  0  0  0  0  0  0  0  0  0  0
   10.7150  -15.2124   20.6155 C   0  0  0  0  0  0  0  0  0  0  0  0
   10.3543  -14.3181   21.4227 O   0  0  0  0  0  0  0  0  0  0  0  0
   15.8627  -15.9253   20.4605 O   0  0  0  0  0  0  0  0  0  0  0  0
    9.3052  -18.3867   22.1038 C   0  0  0  0  0  0  0  0  0  0  0  0
    9.8376  -16.9760   22.1839 C   0  0  2  0  0  0  0  0  0  0  0  0
   10.5077  -16.5561   20.9902 N   0  0  0  0  0  0  0  0  0  0  0  0
   10.6973  -16.7961   23.3999 C   0  0  0  0  0  0  0  0  0  0  0  0
   11.9342  -16.9525   23.2981 O   0  0  0  0  0  0  0  0  0  0  0  0
   10.2117  -13.8095   30.1837 N   0  0  0  0  0  0  0  0  0  0  0  0
   10.0695  -14.0040   28.7931 C   0  0  0  0  0  0  0  0  0  0  0  0
    9.3190  -13.2339   28.1492 O   0  0  0  0  0  0  0  0  0  0  0  0
   10.7793  -15.0761   28.0804 C   0  0  0  0  0  0  0  0  0  0  0  0
   10.2798  -15.3459   26.7201 C   0  0  0  0  0  0  0  0  0  0  0  0
   10.9469  -16.3855   25.8878 C   0  0  2  0  0  0  0  0  0  0  0  0
   10.1486  -16.4554   24.6556 N   0  0  0  0  0  0  0  0  0  0  0  0
   11.1372  -17.6829   26.5026 C   0  0  0  0  0  0  0  0  0  0  0  0
   12.3334  -18.0802   27.1019 O   0  0  0  0  0  0  0  0  0  0  0  0
   10.2071  -18.5623   26.5366 O   0  0  0  0  0  0  0  0  0  0  0  0
  2  1  1  1
  3  2  1  0
  4  3  1  0
  4  5  1  0
  5  6  2  0
  5  9  1  0
  7  2  1  0
  8  7  2  0
 11 10  1  6
 11 13  1  0
 11 12  1  0
 12  7  1  0
 13 21  1  0
 14 13  2  0
 16 15  1  0
 17 16  2  0
 18 16  1  0
 19 18  1  0
 20 19  1  1
 21 20  1  0
 22 23  1  0
 22 20  1  0
 24 22  2  0
M  END
$$$$
