EAQ.pdb
     RDKit          3D

 24 23  0  0  1  0  0  0  0  0999 V2000
    7.2514  -16.6056   21.5224 N   0  0  0  0  0  0  0  0  0  0  0  0
    6.6429  -16.4456   22.8195 C   0  0  1  0  0  0  0  0  0  0  0  0
    6.5927  -17.7742   23.4965 C   0  0  0  0  0  0  0  0  0  0  0  0
    5.8124  -18.7379   22.6352 C   0  0  0  0  0  0  0  0  0  0  0  0
    5.7448  -20.1068   23.1868 C   0  0  0  0  0  0  0  0  0  0  0  0
    4.6746  -20.7637   23.1311 O   0  0  0  0  0  0  0  0  0  0  0  0
    7.3157  -15.4058   23.6351 C   0  0  0  0  0  0  0  0  0  0  0  0
    8.5619  -15.4933   23.7796 O   0  0  0  0  0  0  0  0  0  0  0  0
    6.8403  -20.7182   23.7807 O   0  0  0  0  0  0  0  0  0  0  0  0
    6.2386  -12.5121   25.8631 C   0  0  0  0  0  0  0  0  0  0  0  0
    7.1855  -13.5744   25.3580 C   0  0  2  0  0  0  0  0  0  0  0  0
    6.6576  -14.3263   24.2599 N   0  0  0  0  0  0  0  0  0  0  0  0
    7.6389  -14.4640   26.4775 C   0  0  0  0  0  0  0  0  0  0  0  0
    6.9365  -15.4498   26.7928 O   0  0  0  0  0  0  0  0  0  0  0  0
    8.4405  -18.4943   28.1063 N   0  0  0  0  0  0  0  0  0  0  0  0
    9.7588  -18.4241   28.6054 C   0  0  0  0  0  0  0  0  0  0  0  0
   10.1755  -19.3480   29.3427 O   0  0  0  0  0  0  0  0  0  0  0  0
   10.6556  -17.3055   28.2804 C   0  0  0  0  0  0  0  0  0  0  0  0
   10.0262  -16.2155   27.5133 C   0  0  0  0  0  0  0  0  0  0  0  0
    9.3422  -15.1092   28.2391 C   0  0  2  0  0  0  0  0  0  0  0  0
    8.8364  -14.2188   27.1846 N   0  0  0  0  0  0  0  0  0  0  0  0
   10.1256  -14.4060   29.2337 C   0  0  0  0  0  0  0  0  0  0  0  0
   10.3709  -14.9077   30.5127 O   0  0  0  0  0  0  0  0  0  0  0  0
   10.6513  -13.2619   29.0008 O   0  0  0  0  0  0  0  0  0  0  0  0
  2  1  1  6
  3  2  1  0
  4  3  1  0
  4  5  1  0
  5  6  2  0
  5  9  1  0
  7  2  1  0
  8  7  2  0
 11 10  1  1
 11 13  1  0
 11 12  1  0
 12  7  1  0
 13 21  1  0
 14 13  2  0
 16 15  1  0
 17 16  2  0
 18 16  1  0
 19 18  1  0
 20 19  1  6
 21 20  1  0
 22 23  1  0
 22 20  1  0
 24 22  2  0
M  END
$$$$
