EAQ.pdb
     RDKit          3D

 24 23  0  0  1  0  0  0  0  0999 V2000
    8.3477  -14.7579   19.5531 N   0  0  0  0  0  0  0  0  0  0  0  0
    7.3247  -14.7266   20.5684 C   0  0  1  0  0  0  0  0  0  0  0  0
    6.3752  -15.8530   20.3322 C   0  0  0  0  0  0  0  0  0  0  0  0
    7.1216  -17.1603   20.4473 C   0  0  0  0  0  0  0  0  0  0  0  0
    6.2557  -18.3513   20.3282 C   0  0  0  0  0  0  0  0  0  0  0  0
    6.2678  -19.2390   21.2180 O   0  0  0  0  0  0  0  0  0  0  0  0
    7.8892  -14.7238   21.9397 C   0  0  0  0  0  0  0  0  0  0  0  0
    8.9977  -15.2912   22.1155 O   0  0  0  0  0  0  0  0  0  0  0  0
    5.4051  -18.5403   19.2477 O   0  0  0  0  0  0  0  0  0  0  0  0
    6.9808  -13.3333   25.3659 C   0  0  0  0  0  0  0  0  0  0  0  0
    7.8411  -14.0770   24.3726 C   0  0  2  0  0  0  0  0  0  0  0  0
    7.2715  -14.1303   23.0600 N   0  0  0  0  0  0  0  0  0  0  0  0
    8.1926  -15.4423   24.8849 C   0  0  0  0  0  0  0  0  0  0  0  0
    7.3582  -16.3673   24.7713 O   0  0  0  0  0  0  0  0  0  0  0  0
   13.3595  -18.2718   23.9035 N   0  0  0  0  0  0  0  0  0  0  0  0
   12.1213  -18.8397   23.5344 C   0  0  0  0  0  0  0  0  0  0  0  0
   12.0899  -19.6529   22.5812 O   0  0  0  0  0  0  0  0  0  0  0  0
   10.8733  -18.5107   24.2383 C   0  0  0  0  0  0  0  0  0  0  0  0
   11.0006  -17.4477   25.2515 C   0  0  0  0  0  0  0  0  0  0  0  0
    9.8012  -17.0306   26.0298 C   0  0  2  0  0  0  0  0  0  0  0  0
    9.4389  -15.7115   25.4916 N   0  0  0  0  0  0  0  0  0  0  0  0
    9.9347  -17.0262   27.4719 C   0  0  0  0  0  0  0  0  0  0  0  0
   10.0132  -18.1896   28.2389 O   0  0  0  0  0  0  0  0  0  0  0  0
    9.9902  -15.9392   28.1464 O   0  0  0  0  0  0  0  0  0  0  0  0
  2  1  1  6
  3  2  1  0
  4  3  1  0
  4  5  1  0
  5  6  2  0
  5  9  1  0
  7  2  1  0
  8  7  2  0
 11 10  1  1
 11 13  1  0
 11 12  1  0
 12  7  1  0
 13 21  1  0
 14 13  2  0
 16 15  1  0
 17 16  2  0
 18 16  1  0
 19 18  1  0
 20 19  1  6
 21 20  1  0
 22 23  1  0
 22 20  1  0
 24 22  2  0
M  END
$$$$
