EAQ.pdb
     RDKit          3D

 24 23  0  0  1  0  0  0  0  0999 V2000
    8.4394  -14.8023   20.8447 N   0  0  0  0  0  0  0  0  0  0  0  0
    7.6830  -15.1175   22.0310 C   0  0  1  0  0  0  0  0  0  0  0  0
    7.6380  -16.5997   22.1954 C   0  0  0  0  0  0  0  0  0  0  0  0
    7.3066  -17.2340   20.8660 C   0  0  0  0  0  0  0  0  0  0  0  0
    5.9358  -17.7803   20.7938 C   0  0  0  0  0  0  0  0  0  0  0  0
    5.4359  -18.3784   21.7798 O   0  0  0  0  0  0  0  0  0  0  0  0
    8.1984  -14.4175   23.2324 C   0  0  0  0  0  0  0  0  0  0  0  0
    9.4381  -14.4523   23.4411 O   0  0  0  0  0  0  0  0  0  0  0  0
    5.1524  -17.6599   19.6543 O   0  0  0  0  0  0  0  0  0  0  0  0
    6.8212  -12.4001   26.1505 C   0  0  0  0  0  0  0  0  0  0  0  0
    7.8460  -13.2455   25.4328 C   0  0  2  0  0  0  0  0  0  0  0  0
    7.3974  -13.7159   24.1571 N   0  0  0  0  0  0  0  0  0  0  0  0
    8.3212  -14.3682   26.3068 C   0  0  0  0  0  0  0  0  0  0  0  0
    7.5051  -15.2453   26.6666 O   0  0  0  0  0  0  0  0  0  0  0  0
   13.2361  -15.0922   25.0794 N   0  0  0  0  0  0  0  0  0  0  0  0
   12.2264  -15.9743   24.6383 C   0  0  0  0  0  0  0  0  0  0  0  0
   12.1753  -16.2740   23.4224 O   0  0  0  0  0  0  0  0  0  0  0  0
   11.2413  -16.5543   25.5624 C   0  0  0  0  0  0  0  0  0  0  0  0
   11.3497  -16.0804   26.9539 C   0  0  0  0  0  0  0  0  0  0  0  0
   10.1481  -15.5197   27.6323 C   0  0  2  0  0  0  0  0  0  0  0  0
    9.6638  -14.4618   26.7341 N   0  0  0  0  0  0  0  0  0  0  0  0
   10.3300  -15.0558   28.9922 C   0  0  0  0  0  0  0  0  0  0  0  0
   10.6709  -15.8983   30.0514 O   0  0  0  0  0  0  0  0  0  0  0  0
   10.1877  -13.8251   29.3155 O   0  0  0  0  0  0  0  0  0  0  0  0
  2  1  1  6
  3  2  1  0
  4  3  1  0
  4  5  1  0
  5  6  2  0
  5  9  1  0
  7  2  1  0
  8  7  2  0
 11 10  1  1
 11 13  1  0
 11 12  1  0
 12  7  1  0
 13 21  1  0
 14 13  2  0
 16 15  1  0
 17 16  2  0
 18 16  1  0
 19 18  1  0
 20 19  1  6
 21 20  1  0
 22 23  1  0
 22 20  1  0
 24 22  2  0
M  END
$$$$
