EAQ.pdb
     RDKit          3D

 24 23  0  0  1  0  0  0  0  0999 V2000
    9.0321  -15.6252   17.1755 N   0  0  0  0  0  0  0  0  0  0  0  0
    9.1759  -16.5079   18.3063 C   0  0  1  0  0  0  0  0  0  0  0  0
   10.4172  -17.3173   18.1322 C   0  0  0  0  0  0  0  0  0  0  0  0
   10.8089  -17.3128   16.6741 C   0  0  0  0  0  0  0  0  0  0  0  0
   12.0600  -18.0467   16.3929 C   0  0  0  0  0  0  0  0  0  0  0  0
   13.1703  -17.4612   16.4587 O   0  0  0  0  0  0  0  0  0  0  0  0
    9.1350  -15.7821   19.5987 C   0  0  0  0  0  0  0  0  0  0  0  0
   10.2129  -15.3001   20.0316 O   0  0  0  0  0  0  0  0  0  0  0  0
   12.0654  -19.3916   16.0496 O   0  0  0  0  0  0  0  0  0  0  0  0
    6.5369  -14.5917   22.0992 C   0  0  0  0  0  0  0  0  0  0  0  0
    7.9373  -14.9163   21.6372 C   0  0  2  0  0  0  0  0  0  0  0  0
    7.9738  -15.5942   20.3766 N   0  0  0  0  0  0  0  0  0  0  0  0
    8.6907  -15.6653   22.6963 C   0  0  0  0  0  0  0  0  0  0  0  0
    8.9828  -16.8657   22.5001 O   0  0  0  0  0  0  0  0  0  0  0  0
   10.7259  -12.8513   28.1879 N   0  0  0  0  0  0  0  0  0  0  0  0
   10.3194  -14.1732   28.4691 C   0  0  0  0  0  0  0  0  0  0  0  0
    9.9442  -14.4555   29.6312 O   0  0  0  0  0  0  0  0  0  0  0  0
   10.3172  -15.2226   27.4396 C   0  0  0  0  0  0  0  0  0  0  0  0
    9.7977  -14.7961   26.1277 C   0  0  0  0  0  0  0  0  0  0  0  0
    9.6585  -15.7979   25.0344 C   0  0  2  0  0  0  0  0  0  0  0  0
    9.0787  -15.0526   23.9079 N   0  0  0  0  0  0  0  0  0  0  0  0
    8.9145  -17.0000   25.3488 C   0  0  0  0  0  0  0  0  0  0  0  0
    9.5195  -18.2039   25.7130 O   0  0  0  0  0  0  0  0  0  0  0  0
    7.6351  -17.0369   25.3125 O   0  0  0  0  0  0  0  0  0  0  0  0
  2  1  1  6
  3  2  1  0
  4  3  1  0
  4  5  1  0
  5  6  2  0
  5  9  1  0
  7  2  1  0
  8  7  2  0
 11 10  1  1
 11 13  1  0
 11 12  1  0
 12  7  1  0
 13 21  1  0
 14 13  2  0
 16 15  1  0
 17 16  2  0
 18 16  1  0
 19 18  1  0
 20 19  1  1
 21 20  1  0
 22 23  1  0
 22 20  1  0
 24 22  2  0
M  END
$$$$
