EAQ.pdb
     RDKit          3D

 24 23  0  0  1  0  0  0  0  0999 V2000
    5.5217  -19.1796   19.6264 N   0  0  0  0  0  0  0  0  0  0  0  0
    6.7335  -18.7010   20.2436 C   0  0  1  0  0  0  0  0  0  0  0  0
    7.3111  -17.6169   19.3967 C   0  0  0  0  0  0  0  0  0  0  0  0
    7.7822  -18.2092   18.0903 C   0  0  0  0  0  0  0  0  0  0  0  0
    8.5199  -17.2548   17.2372 C   0  0  0  0  0  0  0  0  0  0  0  0
    9.5498  -16.6786   17.6696 O   0  0  0  0  0  0  0  0  0  0  0  0
    6.5247  -18.2859   21.6518 C   0  0  0  0  0  0  0  0  0  0  0  0
    5.9016  -17.2131   21.8577 O   0  0  0  0  0  0  0  0  0  0  0  0
    8.1161  -16.9570   15.9430 O   0  0  0  0  0  0  0  0  0  0  0  0
    7.0755  -19.6814   25.1371 C   0  0  0  0  0  0  0  0  0  0  0  0
    6.8256  -18.5805   24.1343 C   0  0  2  0  0  0  0  0  0  0  0  0
    6.9752  -19.0084   22.7761 N   0  0  0  0  0  0  0  0  0  0  0  0
    7.6695  -17.3780   24.4374 C   0  0  0  0  0  0  0  0  0  0  0  0
    8.7925  -17.2718   23.8966 O   0  0  0  0  0  0  0  0  0  0  0  0
    5.1171  -12.0087   26.0054 N   0  0  0  0  0  0  0  0  0  0  0  0
    6.4596  -11.7264   26.3368 C   0  0  0  0  0  0  0  0  0  0  0  0
    6.7550  -10.5738   26.7306 O   0  0  0  0  0  0  0  0  0  0  0  0
    7.5159  -12.7443   26.2398 C   0  0  0  0  0  0  0  0  0  0  0  0
    7.0470  -14.0800   25.8291 C   0  0  0  0  0  0  0  0  0  0  0  0
    8.0367  -15.1765   25.6371 C   0  0  2  0  0  0  0  0  0  0  0  0
    7.2311  -16.3633   25.3161 N   0  0  0  0  0  0  0  0  0  0  0  0
    8.9634  -15.4099   26.7253 C   0  0  0  0  0  0  0  0  0  0  0  0
   10.1558  -14.7020   26.8830 O   0  0  0  0  0  0  0  0  0  0  0  0
    8.7458  -16.2935   27.6260 O   0  0  0  0  0  0  0  0  0  0  0  0
  2  1  1  6
  3  2  1  0
  4  3  1  0
  4  5  1  0
  5  6  2  0
  5  9  1  0
  7  2  1  0
  8  7  2  0
 11 10  1  1
 11 13  1  0
 11 12  1  0
 12  7  1  0
 13 21  1  0
 14 13  2  0
 16 15  1  0
 17 16  2  0
 18 16  1  0
 19 18  1  0
 20 19  1  1
 21 20  1  0
 22 23  1  0
 22 20  1  0
 24 22  2  0
M  END
$$$$
