EAQ.pdb
     RDKit          3D

 24 23  0  0  1  0  0  0  0  0999 V2000
    9.2366  -16.7379   18.6881 N   0  0  0  0  0  0  0  0  0  0  0  0
   10.0015  -17.2637   19.7912 C   0  0  1  0  0  0  0  0  0  0  0  0
   11.3925  -17.5386   19.3268 C   0  0  0  0  0  0  0  0  0  0  0  0
   11.3864  -18.7678   18.4502 C   0  0  0  0  0  0  0  0  0  0  0  0
   12.7308  -19.1828   17.9997 C   0  0  0  0  0  0  0  0  0  0  0  0
   13.0813  -20.3880   18.0675 O   0  0  0  0  0  0  0  0  0  0  0  0
    9.9530  -16.3831   20.9833 C   0  0  0  0  0  0  0  0  0  0  0  0
   11.0347  -15.8806   21.3820 O   0  0  0  0  0  0  0  0  0  0  0  0
   13.6508  -18.2768   17.4904 O   0  0  0  0  0  0  0  0  0  0  0  0
    7.3347  -14.8521   23.2715 C   0  0  0  0  0  0  0  0  0  0  0  0
    8.7366  -15.2459   22.8719 C   0  0  2  0  0  0  0  0  0  0  0  0
    8.7804  -16.0693   21.7014 N   0  0  0  0  0  0  0  0  0  0  0  0
    9.4657  -15.8724   24.0234 C   0  0  0  0  0  0  0  0  0  0  0  0
    9.4258  -17.1147   24.1643 O   0  0  0  0  0  0  0  0  0  0  0  0
   10.2048  -15.4108   30.0034 N   0  0  0  0  0  0  0  0  0  0  0  0
    9.7080  -14.2869   29.3091 C   0  0  0  0  0  0  0  0  0  0  0  0
    9.4582  -13.2411   29.9530 O   0  0  0  0  0  0  0  0  0  0  0  0
    9.4826  -14.3064   27.8566 C   0  0  0  0  0  0  0  0  0  0  0  0
    9.7721  -15.5972   27.2065 C   0  0  0  0  0  0  0  0  0  0  0  0
   10.8230  -15.6674   26.1533 C   0  0  2  0  0  0  0  0  0  0  0  0
   10.1955  -15.0984   24.9520 N   0  0  0  0  0  0  0  0  0  0  0  0
   11.4111  -16.9686   25.9114 C   0  0  0  0  0  0  0  0  0  0  0  0
   10.6798  -18.0703   25.4650 O   0  0  0  0  0  0  0  0  0  0  0  0
   12.6579  -17.1959   26.0940 O   0  0  0  0  0  0  0  0  0  0  0  0
  2  1  1  6
  3  2  1  0
  4  3  1  0
  4  5  1  0
  5  6  2  0
  5  9  1  0
  7  2  1  0
  8  7  2  0
 11 10  1  1
 11 13  1  0
 11 12  1  0
 12  7  1  0
 13 21  1  0
 14 13  2  0
 16 15  1  0
 17 16  2  0
 18 16  1  0
 19 18  1  0
 20 19  1  1
 21 20  1  0
 22 23  1  0
 22 20  1  0
 24 22  2  0
M  END
$$$$
