EAQ.pdb
     RDKit          3D

 24 23  0  0  1  0  0  0  0  0999 V2000
    7.7691  -13.8051   14.7410 N   0  0  0  0  0  0  0  0  0  0  0  0
    7.8704  -14.8510   15.7281 C   0  0  1  0  0  0  0  0  0  0  0  0
    8.5893  -16.0128   15.1286 C   0  0  0  0  0  0  0  0  0  0  0  0
    7.7873  -16.5420   13.9641 C   0  0  0  0  0  0  0  0  0  0  0  0
    8.4630  -17.6255   13.2210 C   0  0  0  0  0  0  0  0  0  0  0  0
    7.9317  -18.1220   12.1957 O   0  0  0  0  0  0  0  0  0  0  0  0
    8.4869  -14.3783   16.9912 C   0  0  0  0  0  0  0  0  0  0  0  0
    9.7371  -14.2436   17.0156 O   0  0  0  0  0  0  0  0  0  0  0  0
    9.6928  -18.1348   13.6145 O   0  0  0  0  0  0  0  0  0  0  0  0
    7.3630  -13.2810   20.4575 C   0  0  0  0  0  0  0  0  0  0  0  0
    8.3705  -13.6948   19.4117 C   0  0  2  0  0  0  0  0  0  0  0  0
    7.7712  -14.0692   18.1664 N   0  0  0  0  0  0  0  0  0  0  0  0
    9.2801  -14.7651   19.9382 C   0  0  0  0  0  0  0  0  0  0  0  0
    9.0001  -15.9639   19.7162 O   0  0  0  0  0  0  0  0  0  0  0  0
   15.8457  -15.4195   19.6079 N   0  0  0  0  0  0  0  0  0  0  0  0
   14.6046  -14.8025   19.3415 C   0  0  0  0  0  0  0  0  0  0  0  0
   14.5963  -13.6632   18.8192 O   0  0  0  0  0  0  0  0  0  0  0  0
   13.3265  -15.4589   19.6521 C   0  0  0  0  0  0  0  0  0  0  0  0
   12.7066  -15.0300   20.9188 C   0  0  0  0  0  0  0  0  0  0  0  0
   11.3266  -15.4827   21.2489 C   0  0  2  0  0  0  0  0  0  0  0  0
   10.4432  -14.4564   20.6771 N   0  0  0  0  0  0  0  0  0  0  0  0
   11.0474  -15.7424   22.6460 C   0  0  0  0  0  0  0  0  0  0  0  0
   11.6199  -16.7960   23.3602 O   0  0  0  0  0  0  0  0  0  0  0  0
   10.2457  -15.0118   23.3265 O   0  0  0  0  0  0  0  0  0  0  0  0
  2  1  1  6
  3  2  1  0
  4  3  1  0
  4  5  1  0
  5  6  2  0
  5  9  1  0
  7  2  1  0
  8  7  2  0
 11 10  1  1
 11 13  1  0
 11 12  1  0
 12  7  1  0
 13 21  1  0
 14 13  2  0
 16 15  1  0
 17 16  2  0
 18 16  1  0
 19 18  1  0
 20 19  1  1
 21 20  1  0
 22 23  1  0
 22 20  1  0
 24 22  2  0
M  END
$$$$
