EAQ.pdb
     RDKit          3D

 24 23  0  0  1  0  0  0  0  0999 V2000
    6.8116  -15.5985   20.9922 N   0  0  0  0  0  0  0  0  0  0  0  0
    7.7249  -16.0331   22.0196 C   0  0  1  0  0  0  0  0  0  0  0  0
    8.8602  -16.7603   21.3805 C   0  0  0  0  0  0  0  0  0  0  0  0
    8.3580  -17.4746   20.1488 C   0  0  0  0  0  0  0  0  0  0  0  0
    9.4181  -18.1744   19.3943 C   0  0  0  0  0  0  0  0  0  0  0  0
   10.5944  -18.2128   19.8356 O   0  0  0  0  0  0  0  0  0  0  0  0
    8.1690  -14.9176   22.8899 C   0  0  0  0  0  0  0  0  0  0  0  0
    9.4040  -14.7892   23.0893 O   0  0  0  0  0  0  0  0  0  0  0  0
    9.1673  -18.8095   18.1858 O   0  0  0  0  0  0  0  0  0  0  0  0
    6.4847  -12.3689   25.1626 C   0  0  0  0  0  0  0  0  0  0  0  0
    7.5581  -13.3544   24.7668 C   0  0  2  0  0  0  0  0  0  0  0  0
    7.3051  -13.9910   23.5094 N   0  0  0  0  0  0  0  0  0  0  0  0
    7.7982  -14.3529   25.8602 C   0  0  0  0  0  0  0  0  0  0  0  0
    7.2197  -15.4608   25.8090 O   0  0  0  0  0  0  0  0  0  0  0  0
   11.5623  -16.9316   24.3145 N   0  0  0  0  0  0  0  0  0  0  0  0
   11.8593  -16.8221   25.6899 C   0  0  0  0  0  0  0  0  0  0  0  0
   12.6719  -17.6295   26.1984 O   0  0  0  0  0  0  0  0  0  0  0  0
   11.2499  -15.7874   26.5379 C   0  0  0  0  0  0  0  0  0  0  0  0
    9.8747  -16.0840   26.9777 C   0  0  0  0  0  0  0  0  0  0  0  0
    9.1615  -15.1148   27.8556 C   0  0  2  0  0  0  0  0  0  0  0  0
    8.6588  -14.0762   26.9449 N   0  0  0  0  0  0  0  0  0  0  0  0
    9.9173  -14.5667   28.9627 C   0  0  0  0  0  0  0  0  0  0  0  0
   10.2019  -13.2072   29.0992 O   0  0  0  0  0  0  0  0  0  0  0  0
   10.3800  -15.3043   29.9015 O   0  0  0  0  0  0  0  0  0  0  0  0
  2  1  1  6
  3  2  1  0
  4  3  1  0
  4  5  1  0
  5  6  2  0
  5  9  1  0
  7  2  1  0
  8  7  2  0
 11 10  1  1
 11 13  1  0
 11 12  1  0
 12  7  1  0
 13 21  1  0
 14 13  2  0
 16 15  1  0
 17 16  2  0
 18 16  1  0
 19 18  1  0
 20 19  1  6
 21 20  1  0
 22 23  1  0
 22 20  1  0
 24 22  2  0
M  END
$$$$
