QMA.pdb
     RDKit          3D

 23 22  0  0  1  0  0  0  0  0999 V2000
   27.0208  -11.1784  -15.4886 N   0  0  0  0  0  0  0  0  0  0  0  0
   27.3856  -12.2047  -16.3884 C   0  0  0  0  0  0  0  0  0  0  0  0
   28.2435  -13.0639  -16.1126 O   0  0  0  0  0  0  0  0  0  0  0  0
   26.7076  -12.2355  -17.7007 C   0  0  0  0  0  0  0  0  0  0  0  0
   25.6866  -11.1812  -17.9201 C   0  0  0  0  0  0  0  0  0  0  0  0
   24.2621  -11.5990  -17.7859 C   0  0  2  0  0  0  0  0  0  0  0  0
   23.9099  -12.5873  -18.8159 N   0  0  0  0  0  0  0  0  0  0  0  0
   23.3001  -10.4605  -17.8656 C   0  0  0  0  0  0  0  0  0  0  0  0
   22.8539  -10.0610  -18.9609 O   0  0  0  0  0  0  0  0  0  0  0  0
   16.5578   -8.6128  -15.3160 C   0  0  0  0  0  0  0  0  0  0  0  0
   18.0348   -9.6005  -15.6763 S   0  0  0  0  0  0  0  0  0  0  0  0
   19.4396   -8.4851  -16.1152 C   0  0  0  0  0  0  0  0  0  0  0  0
   20.6123   -9.3626  -16.3032 C   0  0  0  0  0  0  0  0  0  0  0  0
   21.9168   -8.7206  -16.6428 C   0  0  2  0  0  0  0  0  0  0  0  0
   22.8914   -9.8301  -16.6861 N   0  0  0  0  0  0  0  0  0  0  0  0
   22.3714   -7.6595  -15.7520 C   0  0  0  0  0  0  0  0  0  0  0  0
   22.9048   -7.8754  -14.6175 O   0  0  0  0  0  0  0  0  0  0  0  0
   22.4956   -3.8677  -15.8321 C   0  0  0  0  0  0  0  0  0  0  0  0
   22.6897   -5.2279  -15.1917 C   0  0  2  0  0  0  0  0  0  0  0  0
   22.2485   -6.2915  -16.1028 N   0  0  0  0  0  0  0  0  0  0  0  0
   21.9017   -5.2365  -13.9352 C   0  0  0  0  0  0  0  0  0  0  0  0
   22.2393   -4.4935  -12.9891 O   0  0  0  0  0  0  0  0  0  0  0  0
   20.7857   -6.0354  -13.7358 O   0  0  0  0  0  0  0  0  0  0  0  0
  2  1  1  0
  2  3  2  0
  4  2  1  0
  5  4  1  0
  6  5  1  0
  6  7  1  6
  8  6  1  0
  8 15  1  0
  9  8  2  0
 10 11  1  0
 11 12  1  0
 12 13  1  0
 14 13  1  1
 14 15  1  0
 16 14  1  0
 17 16  2  0
 19 18  1  6
 19 20  1  0
 19 21  1  0
 20 16  1  0
 21 23  1  0
 22 21  2  0
M  END
$$$$
