QMA.pdb
     RDKit          3D

 23 22  0  0  1  0  0  0  0  0999 V2000
   15.9384  -13.4183  -14.4709 N   0  0  0  0  0  0  0  0  0  0  0  0
   15.2847  -12.9906  -15.6480 C   0  0  0  0  0  0  0  0  0  0  0  0
   14.2299  -13.5116  -16.0557 O   0  0  0  0  0  0  0  0  0  0  0  0
   15.8987  -11.8807  -16.4056 C   0  0  0  0  0  0  0  0  0  0  0  0
   17.1996  -11.3915  -15.8855 C   0  0  0  0  0  0  0  0  0  0  0  0
   17.8519  -10.2947  -16.6558 C   0  0  2  0  0  0  0  0  0  0  0  0
   18.3386  -10.7873  -17.9528 N   0  0  0  0  0  0  0  0  0  0  0  0
   18.9880   -9.6544  -15.9297 C   0  0  0  0  0  0  0  0  0  0  0  0
   18.8418   -9.1742  -14.7867 O   0  0  0  0  0  0  0  0  0  0  0  0
   26.2498  -10.3461  -14.4725 C   0  0  0  0  0  0  0  0  0  0  0  0
   24.6032  -10.7492  -15.1154 S   0  0  0  0  0  0  0  0  0  0  0  0
   23.9562   -9.3318  -16.1067 C   0  0  0  0  0  0  0  0  0  0  0  0
   22.5965   -9.7201  -16.5321 C   0  0  0  0  0  0  0  0  0  0  0  0
   21.4408   -9.0071  -15.9113 C   0  0  2  0  0  0  0  0  0  0  0  0
   20.2421   -9.5931  -16.5455 N   0  0  0  0  0  0  0  0  0  0  0  0
   21.4353   -7.5535  -16.0254 C   0  0  0  0  0  0  0  0  0  0  0  0
   21.6685   -6.9334  -17.1115 O   0  0  0  0  0  0  0  0  0  0  0  0
   19.9231   -4.6439  -14.5103 C   0  0  0  0  0  0  0  0  0  0  0  0
   21.2117   -5.2584  -15.0202 C   0  0  2  0  0  0  0  0  0  0  0  0
   21.1604   -6.7218  -14.9109 N   0  0  0  0  0  0  0  0  0  0  0  0
   22.3166   -4.6977  -14.2049 C   0  0  0  0  0  0  0  0  0  0  0  0
   22.5767   -3.4775  -14.2727 O   0  0  0  0  0  0  0  0  0  0  0  0
   23.1003   -5.4579  -13.3498 O   0  0  0  0  0  0  0  0  0  0  0  0
  2  1  1  0
  2  3  2  0
  4  2  1  0
  5  4  1  0
  6  5  1  0
  6  7  1  6
  8  6  1  0
  8 15  1  0
  9  8  2  0
 10 11  1  0
 11 12  1  0
 12 13  1  0
 14 13  1  6
 14 15  1  0
 16 14  1  0
 17 16  2  0
 19 18  1  1
 19 20  1  0
 19 21  1  0
 20 16  1  0
 21 23  1  0
 22 21  2  0
M  END
$$$$
