QMA.pdb
     RDKit          3D

 23 22  0  0  1  0  0  0  0  0999 V2000
   26.2105  -14.5290  -18.8655 N   0  0  0  0  0  0  0  0  0  0  0  0
   27.0505  -14.7865  -19.9718 C   0  0  0  0  0  0  0  0  0  0  0  0
   27.0837  -15.8913  -20.5451 O   0  0  0  0  0  0  0  0  0  0  0  0
   27.9133  -13.6847  -20.4455 C   0  0  0  0  0  0  0  0  0  0  0  0
   27.8219  -12.4209  -19.6732 C   0  0  0  0  0  0  0  0  0  0  0  0
   28.7090  -11.3076  -20.1153 C   0  0  2  0  0  0  0  0  0  0  0  0
   29.9920  -11.8287  -20.6090 N   0  0  0  0  0  0  0  0  0  0  0  0
   28.9799  -10.3041  -19.0440 C   0  0  0  0  0  0  0  0  0  0  0  0
   28.0507   -9.7535  -18.4180 O   0  0  0  0  0  0  0  0  0  0  0  0
   35.4003   -8.6262  -14.7849 C   0  0  0  0  0  0  0  0  0  0  0  0
   34.3968   -9.5703  -15.9633 S   0  0  0  0  0  0  0  0  0  0  0  0
   32.7625   -8.7423  -16.1948 C   0  0  0  0  0  0  0  0  0  0  0  0
   32.0332   -9.5529  -17.1907 C   0  0  0  0  0  0  0  0  0  0  0  0
   30.6921   -9.0707  -17.6359 C   0  0  2  0  0  0  0  0  0  0  0  0
   30.3042   -9.9760  -18.7370 N   0  0  0  0  0  0  0  0  0  0  0  0
   30.6069   -7.6755  -18.0511 C   0  0  0  0  0  0  0  0  0  0  0  0
   30.6928   -6.6961  -17.2438 O   0  0  0  0  0  0  0  0  0  0  0  0
   31.5028   -5.7203  -20.9263 C   0  0  0  0  0  0  0  0  0  0  0  0
   30.4648   -5.9108  -19.8380 C   0  0  2  0  0  0  0  0  0  0  0  0
   30.4227   -7.3146  -19.4095 N   0  0  0  0  0  0  0  0  0  0  0  0
   29.1601   -5.4811  -20.3977 C   0  0  0  0  0  0  0  0  0  0  0  0
   28.4436   -6.3087  -20.9999 O   0  0  0  0  0  0  0  0  0  0  0  0
   28.6701   -4.1879  -20.2938 O   0  0  0  0  0  0  0  0  0  0  0  0
  2  1  1  0
  2  3  2  0
  4  2  1  0
  5  4  1  0
  6  5  1  0
  6  7  1  1
  8  6  1  0
  8 15  1  0
  9  8  2  0
 10 11  1  0
 11 12  1  0
 12 13  1  0
 14 13  1  6
 14 15  1  0
 16 14  1  0
 17 16  2  0
 19 18  1  6
 19 20  1  0
 19 21  1  0
 20 16  1  0
 21 23  1  0
 22 21  2  0
M  END
$$$$
