QMA.pdb
     RDKit          3D

 23 22  0  0  1  0  0  0  0  0999 V2000
   16.4052  -13.5929  -15.7108 N   0  0  0  0  0  0  0  0  0  0  0  0
   15.9611  -14.4327  -14.6653 C   0  0  0  0  0  0  0  0  0  0  0  0
   16.1656  -15.6610  -14.6596 O   0  0  0  0  0  0  0  0  0  0  0  0
   15.2273  -13.8031  -13.5481 C   0  0  0  0  0  0  0  0  0  0  0  0
   15.0618  -12.3312  -13.6381 C   0  0  0  0  0  0  0  0  0  0  0  0
   16.1229  -11.5038  -12.9969 C   0  0  2  0  0  0  0  0  0  0  0  0
   16.3757  -11.9561  -11.6210 N   0  0  0  0  0  0  0  0  0  0  0  0
   15.8034  -10.0460  -12.9708 C   0  0  0  0  0  0  0  0  0  0  0  0
   15.4417   -9.4405  -14.0008 O   0  0  0  0  0  0  0  0  0  0  0  0
   14.6854   -4.7293   -7.2164 C   0  0  0  0  0  0  0  0  0  0  0  0
   14.8490   -6.3952   -7.9129 S   0  0  0  0  0  0  0  0  0  0  0  0
   15.2374   -6.2828   -9.7148 C   0  0  0  0  0  0  0  0  0  0  0  0
   15.4070   -7.6733  -10.1819 C   0  0  0  0  0  0  0  0  0  0  0  0
   15.6763   -7.8937  -11.6339 C   0  0  2  0  0  0  0  0  0  0  0  0
   15.9122   -9.3462  -11.7649 N   0  0  0  0  0  0  0  0  0  0  0  0
   16.7746   -7.1309  -12.2153 C   0  0  0  0  0  0  0  0  0  0  0  0
   17.9895   -7.2702  -11.8645 O   0  0  0  0  0  0  0  0  0  0  0  0
   17.3368   -5.0123  -15.2472 C   0  0  0  0  0  0  0  0  0  0  0  0
   17.6669   -5.4145  -13.8234 C   0  0  2  0  0  0  0  0  0  0  0  0
   16.5539   -6.1681  -13.2322 N   0  0  0  0  0  0  0  0  0  0  0  0
   17.9321   -4.1668  -13.0665 C   0  0  0  0  0  0  0  0  0  0  0  0
   17.0809   -3.7431  -12.2560 O   0  0  0  0  0  0  0  0  0  0  0  0
   19.0928   -3.4200  -13.2024 O   0  0  0  0  0  0  0  0  0  0  0  0
  2  1  1  0
  2  3  2  0
  4  2  1  0
  5  4  1  0
  6  5  1  0
  6  7  1  1
  8  6  1  0
  8 15  1  0
  9  8  2  0
 10 11  1  0
 11 12  1  0
 12 13  1  0
 14 13  1  1
 14 15  1  0
 16 14  1  0
 17 16  2  0
 19 18  1  6
 19 20  1  0
 19 21  1  0
 20 16  1  0
 21 23  1  0
 22 21  2  0
M  END
$$$$
