QMA.pdb
     RDKit          3D

 23 22  0  0  1  0  0  0  0  0999 V2000
   14.2353  -13.8778  -15.8170 N   0  0  0  0  0  0  0  0  0  0  0  0
   13.8055  -13.2602  -14.6214 C   0  0  0  0  0  0  0  0  0  0  0  0
   13.0311  -13.8165  -13.8207 O   0  0  0  0  0  0  0  0  0  0  0  0
   14.3093  -11.9011  -14.3351 C   0  0  0  0  0  0  0  0  0  0  0  0
   15.1720  -11.3027  -15.3838 C   0  0  0  0  0  0  0  0  0  0  0  0
   16.5433  -10.8973  -14.9632 C   0  0  2  0  0  0  0  0  0  0  0  0
   17.0286  -11.7556  -13.8726 N   0  0  0  0  0  0  0  0  0  0  0  0
   16.6330   -9.4725  -14.5274 C   0  0  0  0  0  0  0  0  0  0  0  0
   16.2675   -8.5398  -15.2724 O   0  0  0  0  0  0  0  0  0  0  0  0
   16.4694   -5.5408   -7.7997 C   0  0  0  0  0  0  0  0  0  0  0  0
   16.2147   -6.9444   -8.9188 S   0  0  0  0  0  0  0  0  0  0  0  0
   16.9840   -6.5828  -10.5582 C   0  0  0  0  0  0  0  0  0  0  0  0
   16.8166   -7.8081  -11.3652 C   0  0  0  0  0  0  0  0  0  0  0  0
   17.3578   -7.8065  -12.7567 C   0  0  2  0  0  0  0  0  0  0  0  0
   17.1373   -9.1793  -13.2564 N   0  0  0  0  0  0  0  0  0  0  0  0
   18.7525   -7.4109  -12.9123 C   0  0  0  0  0  0  0  0  0  0  0  0
   19.7325   -8.1299  -12.5367 O   0  0  0  0  0  0  0  0  0  0  0  0
   20.6215   -4.6798  -14.7300 C   0  0  0  0  0  0  0  0  0  0  0  0
   20.5187   -5.8211  -13.7376 C   0  0  2  0  0  0  0  0  0  0  0  0
   19.1125   -6.1758  -13.5076 N   0  0  0  0  0  0  0  0  0  0  0  0
   21.1705   -5.3707  -12.4837 C   0  0  0  0  0  0  0  0  0  0  0  0
   20.4679   -4.9682  -11.5322 O   0  0  0  0  0  0  0  0  0  0  0  0
   22.5442   -5.3670  -12.2925 O   0  0  0  0  0  0  0  0  0  0  0  0
  2  1  1  0
  2  3  2  0
  4  2  1  0
  5  4  1  0
  6  5  1  0
  6  7  1  1
  8  6  1  0
  8 15  1  0
  9  8  2  0
 10 11  1  0
 11 12  1  0
 12 13  1  0
 14 13  1  1
 14 15  1  0
 16 14  1  0
 17 16  2  0
 19 18  1  6
 19 20  1  0
 19 21  1  0
 20 16  1  0
 21 23  1  0
 22 21  2  0
M  END
$$$$
