QMA.pdb
     RDKit          3D

 23 22  0  0  1  0  0  0  0  0999 V2000
   21.7700  -24.1310  -14.3825 N   0  0  0  0  0  0  0  0  0  0  0  0
   21.0900  -23.5232  -15.4614 C   0  0  0  0  0  0  0  0  0  0  0  0
   20.2529  -24.1315  -16.1539 O   0  0  0  0  0  0  0  0  0  0  0  0
   21.4041  -22.1103  -15.7580 C   0  0  0  0  0  0  0  0  0  0  0  0
   22.4121  -21.4775  -14.8715 C   0  0  0  0  0  0  0  0  0  0  0  0
   22.0187  -21.2925  -13.4458 C   0  0  2  0  0  0  0  0  0  0  0  0
   20.7419  -20.5702  -13.3473 N   0  0  0  0  0  0  0  0  0  0  0  0
   23.0428  -20.5674  -12.6374 C   0  0  0  0  0  0  0  0  0  0  0  0
   23.0438  -19.3218  -12.5541 O   0  0  0  0  0  0  0  0  0  0  0  0
   27.2137  -19.1527   -7.0313 C   0  0  0  0  0  0  0  0  0  0  0  0
   25.9037  -20.0395   -7.9171 S   0  0  0  0  0  0  0  0  0  0  0  0
   26.6394  -21.0286   -9.2921 C   0  0  0  0  0  0  0  0  0  0  0  0
   25.5061  -21.4594  -10.1350 C   0  0  0  0  0  0  0  0  0  0  0  0
   25.2536  -20.7096  -11.4012 C   0  0  2  0  0  0  0  0  0  0  0  0
   24.0208  -21.3021  -11.9595 N   0  0  0  0  0  0  0  0  0  0  0  0
   26.3289  -20.7146  -12.3861 C   0  0  0  0  0  0  0  0  0  0  0  0
   26.6858  -21.7516  -13.0308 O   0  0  0  0  0  0  0  0  0  0  0  0
   29.0274  -20.7108  -13.5657 C   0  0  0  0  0  0  0  0  0  0  0  0
   28.0880  -19.5342  -13.7426 C   0  0  2  0  0  0  0  0  0  0  0  0
   27.0574  -19.5389  -12.6966 N   0  0  0  0  0  0  0  0  0  0  0  0
   27.4838  -19.6557  -15.0918 C   0  0  0  0  0  0  0  0  0  0  0  0
   26.2495  -19.8127  -15.2041 O   0  0  0  0  0  0  0  0  0  0  0  0
   28.2176  -19.6049  -16.2675 O   0  0  0  0  0  0  0  0  0  0  0  0
  2  1  1  0
  2  3  2  0
  4  2  1  0
  5  4  1  0
  6  5  1  0
  6  7  1  6
  8  6  1  0
  8 15  1  0
  9  8  2  0
 10 11  1  0
 11 12  1  0
 12 13  1  0
 14 13  1  1
 14 15  1  0
 16 14  1  0
 17 16  2  0
 19 18  1  1
 19 20  1  0
 19 21  1  0
 20 16  1  0
 21 23  1  0
 22 21  2  0
M  END
$$$$
