QMA.pdb
     RDKit          3D

 23 22  0  0  1  0  0  0  0  0999 V2000
   18.6234  -14.5196  -18.2896 N   0  0  0  0  0  0  0  0  0  0  0  0
   19.8537  -14.8920  -17.7035 C   0  0  0  0  0  0  0  0  0  0  0  0
   20.2194  -16.0786  -17.6099 O   0  0  0  0  0  0  0  0  0  0  0  0
   20.7201  -13.8116  -17.1890 C   0  0  0  0  0  0  0  0  0  0  0  0
   20.2035  -12.4326  -17.3728 C   0  0  0  0  0  0  0  0  0  0  0  0
   19.5916  -11.7885  -16.1760 C   0  0  2  0  0  0  0  0  0  0  0  0
   18.3228  -12.4427  -15.8239 N   0  0  0  0  0  0  0  0  0  0  0  0
   19.3446  -10.3268  -16.3504 C   0  0  0  0  0  0  0  0  0  0  0  0
   18.8133   -9.8755  -17.3860 O   0  0  0  0  0  0  0  0  0  0  0  0
   13.9130   -8.0172  -15.2037 C   0  0  0  0  0  0  0  0  0  0  0  0
   15.4784   -7.9136  -14.2949 S   0  0  0  0  0  0  0  0  0  0  0  0
   16.8940   -8.0637  -15.4712 C   0  0  0  0  0  0  0  0  0  0  0  0
   18.1145   -7.8481  -14.6686 C   0  0  0  0  0  0  0  0  0  0  0  0
   19.4340   -7.9965  -15.3514 C   0  0  2  0  0  0  0  0  0  0  0  0
   19.7171   -9.4464  -15.3296 N   0  0  0  0  0  0  0  0  0  0  0  0
   20.5460   -7.2380  -14.7909 C   0  0  0  0  0  0  0  0  0  0  0  0
   21.2315   -7.6299  -13.7935 O   0  0  0  0  0  0  0  0  0  0  0  0
   22.4285   -4.0681  -15.6637 C   0  0  0  0  0  0  0  0  0  0  0  0
   22.0625   -5.2312  -14.7629 C   0  0  2  0  0  0  0  0  0  0  0  0
   20.9442   -5.9913  -15.3356 N   0  0  0  0  0  0  0  0  0  0  0  0
   21.7043   -4.6642  -13.4400 C   0  0  0  0  0  0  0  0  0  0  0  0
   20.5013   -4.5398  -13.1264 O   0  0  0  0  0  0  0  0  0  0  0  0
   22.6408   -4.2524  -12.5036 O   0  0  0  0  0  0  0  0  0  0  0  0
  2  1  1  0
  2  3  2  0
  4  2  1  0
  5  4  1  0
  6  5  1  0
  6  7  1  6
  8  6  1  0
  8 15  1  0
  9  8  2  0
 10 11  1  0
 11 12  1  0
 12 13  1  0
 14 13  1  1
 14 15  1  0
 16 14  1  0
 17 16  2  0
 19 18  1  6
 19 20  1  0
 19 21  1  0
 20 16  1  0
 21 23  1  0
 22 21  2  0
M  END
$$$$
