QMA.pdb
     RDKit          3D

 23 22  0  0  1  0  0  0  0  0999 V2000
   25.2400  -21.7462  -19.3934 N   0  0  0  0  0  0  0  0  0  0  0  0
   26.0901  -22.8708  -19.4842 C   0  0  0  0  0  0  0  0  0  0  0  0
   26.3908  -23.3974  -20.5717 O   0  0  0  0  0  0  0  0  0  0  0  0
   26.6286  -23.4238  -18.2244 C   0  0  0  0  0  0  0  0  0  0  0  0
   26.1813  -22.7447  -16.9830 C   0  0  0  0  0  0  0  0  0  0  0  0
   26.7545  -23.2542  -15.7048 C   0  0  2  0  0  0  0  0  0  0  0  0
   27.1881  -24.6516  -15.8489 N   0  0  0  0  0  0  0  0  0  0  0  0
   25.8097  -23.1621  -14.5529 C   0  0  0  0  0  0  0  0  0  0  0  0
   25.0308  -24.0968  -14.2737 O   0  0  0  0  0  0  0  0  0  0  0  0
   26.0347  -20.2066   -7.5144 C   0  0  0  0  0  0  0  0  0  0  0  0
   26.3017  -19.9776   -9.2930 S   0  0  0  0  0  0  0  0  0  0  0  0
   25.2404  -21.1553  -10.2400 C   0  0  0  0  0  0  0  0  0  0  0  0
   25.5949  -20.9697  -11.6614 C   0  0  0  0  0  0  0  0  0  0  0  0
   24.8363  -21.7569  -12.6783 C   0  0  2  0  0  0  0  0  0  0  0  0
   25.7997  -22.0025  -13.7712 N   0  0  0  0  0  0  0  0  0  0  0  0
   23.6107  -21.1529  -13.1873 C   0  0  0  0  0  0  0  0  0  0  0  0
   23.5846  -20.0630  -13.8429 O   0  0  0  0  0  0  0  0  0  0  0  0
   19.9730  -22.1430  -13.4689 C   0  0  0  0  0  0  0  0  0  0  0  0
   21.1156  -21.1474  -13.5073 C   0  0  2  0  0  0  0  0  0  0  0  0
   22.3444  -21.7565  -12.9827 N   0  0  0  0  0  0  0  0  0  0  0  0
   20.7052  -19.9788  -12.6913 C   0  0  0  0  0  0  0  0  0  0  0  0
   19.8471  -19.1863  -13.1349 O   0  0  0  0  0  0  0  0  0  0  0  0
   21.2243  -19.7004  -11.4358 O   0  0  0  0  0  0  0  0  0  0  0  0
  2  1  1  0
  2  3  2  0
  4  2  1  0
  5  4  1  0
  6  5  1  0
  6  7  1  6
  8  6  1  0
  8 15  1  0
  9  8  2  0
 10 11  1  0
 11 12  1  0
 12 13  1  0
 14 13  1  1
 14 15  1  0
 16 14  1  0
 17 16  2  0
 19 18  1  1
 19 20  1  0
 19 21  1  0
 20 16  1  0
 21 23  1  0
 22 21  2  0
M  END
$$$$
