QMA.pdb
     RDKit          3D

 23 22  0  0  1  0  0  0  0  0999 V2000
   19.7815  -20.2824  -12.9352 N   0  0  0  0  0  0  0  0  0  0  0  0
   19.7689  -21.6908  -12.8259 C   0  0  0  0  0  0  0  0  0  0  0  0
   18.7585  -22.3734  -13.0777 O   0  0  0  0  0  0  0  0  0  0  0  0
   21.0164  -22.3536  -12.3932 C   0  0  0  0  0  0  0  0  0  0  0  0
   22.1978  -21.4669  -12.2506 C   0  0  0  0  0  0  0  0  0  0  0  0
   22.8597  -21.0353  -13.5145 C   0  0  2  0  0  0  0  0  0  0  0  0
   23.4663  -22.1839  -14.2033 N   0  0  0  0  0  0  0  0  0  0  0  0
   23.9074  -19.9922  -13.3089 C   0  0  0  0  0  0  0  0  0  0  0  0
   23.6825  -18.9688  -12.6304 O   0  0  0  0  0  0  0  0  0  0  0  0
   29.8998  -21.6162  -10.4633 C   0  0  0  0  0  0  0  0  0  0  0  0
   29.4176  -21.1732  -12.1539 S   0  0  0  0  0  0  0  0  0  0  0  0
   27.7822  -20.3159  -12.1320 C   0  0  0  0  0  0  0  0  0  0  0  0
   27.4892  -19.9625  -13.5355 C   0  0  0  0  0  0  0  0  0  0  0  0
   26.2542  -19.1706  -13.8126 C   0  0  2  0  0  0  0  0  0  0  0  0
   25.1672  -20.1682  -13.8900 N   0  0  0  0  0  0  0  0  0  0  0  0
   26.2751  -18.3265  -15.0014 C   0  0  0  0  0  0  0  0  0  0  0  0
   26.0486  -18.7611  -16.1753 O   0  0  0  0  0  0  0  0  0  0  0  0
   26.8511  -14.6515  -15.7525 C   0  0  0  0  0  0  0  0  0  0  0  0
   26.5462  -16.0901  -16.1206 C   0  0  2  0  0  0  0  0  0  0  0  0
   26.5515  -16.9384  -14.9221 N   0  0  0  0  0  0  0  0  0  0  0  0
   27.5827  -16.5231  -17.0892 C   0  0  0  0  0  0  0  0  0  0  0  0
   28.6099  -17.1026  -16.6770 O   0  0  0  0  0  0  0  0  0  0  0  0
   27.4843  -16.3222  -18.4579 O   0  0  0  0  0  0  0  0  0  0  0  0
  2  1  1  0
  2  3  2  0
  4  2  1  0
  5  4  1  0
  6  5  1  0
  6  7  1  1
  8  6  1  0
  8 15  1  0
  9  8  2  0
 10 11  1  0
 11 12  1  0
 12 13  1  0
 14 13  1  6
 14 15  1  0
 16 14  1  0
 17 16  2  0
 19 18  1  1
 19 20  1  0
 19 21  1  0
 20 16  1  0
 21 23  1  0
 22 21  2  0
M  END
$$$$
