NPM.pdb
     RDKit          3D

 24 24  0  0  1  0  0  0  0  0999 V2000
    5.9235  -18.2414   24.3145 N   0  0  0  0  0  0  0  0  0  0  0  0
    6.6240  -18.3347   23.1012 C   0  0  0  0  0  0  0  0  0  0  0  0
    7.7813  -18.8142   23.1000 O   0  0  0  0  0  0  0  0  0  0  0  0
    6.0344  -17.8839   21.8406 C   0  0  0  0  0  0  0  0  0  0  0  0
    6.9575  -17.8874   20.6541 C   0  0  2  0  0  0  0  0  0  0  0  0
    7.5808  -19.1699   20.4266 N   0  0  0  0  0  0  0  0  0  0  0  0
    8.0102  -16.8401   20.7962 C   0  0  0  0  0  0  0  0  0  0  0  0
    9.2028  -17.3390   20.7630 O   0  0  0  0  0  0  0  0  0  0  0  0
    7.8085  -15.4613   20.9531 N   0  0  0  0  0  0  0  0  0  0  0  0
    6.6031  -14.7241   20.9701 C   0  0  0  0  0  0  0  0  0  0  0  0
    6.9543  -13.4131   20.2811 C   0  0  0  0  0  0  0  0  0  0  0  0
    8.4580  -13.3532   20.3267 C   0  0  0  0  0  0  0  0  0  0  0  0
    8.8892  -14.5204   21.1762 C   0  0  1  0  0  0  0  0  0  0  0  0
    8.9056  -14.2047   22.6368 C   0  0  0  0  0  0  0  0  0  0  0  0
    8.4657  -13.0907   23.0876 O   0  0  0  0  0  0  0  0  0  0  0  0
    6.4144  -11.7337   25.9214 C   0  0  0  0  0  0  0  0  0  0  0  0
    7.3653  -12.5584   27.1975 S   0  0  0  0  0  0  0  0  0  0  0  0
    7.6283  -14.3200   26.8709 C   0  0  0  0  0  0  0  0  0  0  0  0
    7.8020  -14.5873   25.4065 C   0  0  0  0  0  0  0  0  0  0  0  0
    9.2471  -14.8104   25.0294 C   0  0  2  0  0  0  0  0  0  0  0  0
    9.4048  -15.1024   23.6273 N   0  0  0  0  0  0  0  0  0  0  0  0
    9.7313  -16.0032   25.8076 C   0  0  0  0  0  0  0  0  0  0  0  0
   10.1899  -15.7942   27.0940 O   0  0  0  0  0  0  0  0  0  0  0  0
    9.7277  -17.1494   25.3293 O   0  0  0  0  0  0  0  0  0  0  0  0
  2  3  2  0
  2  1  1  0
  4  2  1  0
  5  7  1  0
  5  4  1  0
  5  6  1  1
  7  8  2  0
  9  7  1  0
 10  9  1  0
 11 12  1  0
 11 10  1  0
 12 13  1  0
 13  9  1  0
 13 14  1  1
 14 21  1  0
 15 14  2  0
 17 16  1  0
 18 19  1  0
 18 17  1  0
 20 19  1  6
 20 22  1  0
 21 20  1  0
 22 24  2  0
 22 23  1  0
M  END
$$$$
