NPM.pdb
     RDKit          3D

 24 24  0  0  1  0  0  0  0  0999 V2000
    8.7765  -19.5076   19.9438 N   0  0  0  0  0  0  0  0  0  0  0  0
    7.4386  -19.0944   19.8397 C   0  0  0  0  0  0  0  0  0  0  0  0
    6.5532  -19.7323   20.4549 O   0  0  0  0  0  0  0  0  0  0  0  0
    7.0557  -17.9385   19.0290 C   0  0  0  0  0  0  0  0  0  0  0  0
    8.1941  -17.1466   18.4486 C   0  0  2  0  0  0  0  0  0  0  0  0
    9.2014  -17.9755   17.8293 N   0  0  0  0  0  0  0  0  0  0  0  0
    8.8279  -16.2857   19.4889 C   0  0  0  0  0  0  0  0  0  0  0  0
   10.0189  -16.6861   19.7948 O   0  0  0  0  0  0  0  0  0  0  0  0
    8.2624  -15.1624   20.1092 N   0  0  0  0  0  0  0  0  0  0  0  0
    6.9505  -14.6462   20.0132 C   0  0  0  0  0  0  0  0  0  0  0  0
    7.1351  -13.1365   20.0732 C   0  0  0  0  0  0  0  0  0  0  0  0
    8.5153  -12.9469   20.6439 C   0  0  0  0  0  0  0  0  0  0  0  0
    8.9865  -14.3212   21.0426 C   0  0  1  0  0  0  0  0  0  0  0  0
    8.5511  -14.7113   22.4180 C   0  0  0  0  0  0  0  0  0  0  0  0
    7.4067  -15.2415   22.6345 O   0  0  0  0  0  0  0  0  0  0  0  0
    5.7299  -11.1329   27.2840 C   0  0  0  0  0  0  0  0  0  0  0  0
    7.1289  -12.1989   26.9391 S   0  0  0  0  0  0  0  0  0  0  0  0
    6.6680  -13.7426   26.1124 C   0  0  0  0  0  0  0  0  0  0  0  0
    7.3258  -13.8654   24.7715 C   0  0  0  0  0  0  0  0  0  0  0  0
    8.7563  -14.3383   24.8729 C   0  0  2  0  0  0  0  0  0  0  0  0
    9.3605  -14.5263   23.5785 N   0  0  0  0  0  0  0  0  0  0  0  0
    8.7365  -15.6701   25.5720 C   0  0  0  0  0  0  0  0  0  0  0  0
    9.4287  -15.7869   26.7620 O   0  0  0  0  0  0  0  0  0  0  0  0
    8.1233  -16.6477   25.1129 O   0  0  0  0  0  0  0  0  0  0  0  0
  2  3  2  0
  2  1  1  0
  4  2  1  0
  5  7  1  0
  5  4  1  0
  5  6  1  1
  7  8  2  0
  9  7  1  0
 10  9  1  0
 11 12  1  0
 11 10  1  0
 12 13  1  0
 13  9  1  0
 13 14  1  1
 14 21  1  0
 15 14  2  0
 17 16  1  0
 18 19  1  0
 18 17  1  0
 20 19  1  6
 20 22  1  0
 21 20  1  0
 22 24  2  0
 22 23  1  0
M  END
$$$$
