NPM.pdb
     RDKit          3D

 24 24  0  0  1  0  0  0  0  0999 V2000
    9.0456  -19.5862   20.1464 N   0  0  0  0  0  0  0  0  0  0  0  0
    7.9778  -19.1654   19.3375 C   0  0  0  0  0  0  0  0  0  0  0  0
    6.9009  -19.8048   19.3670 O   0  0  0  0  0  0  0  0  0  0  0  0
    8.0947  -18.0000   18.4611 C   0  0  0  0  0  0  0  0  0  0  0  0
    9.3535  -17.1933   18.6181 C   0  0  2  0  0  0  0  0  0  0  0  0
   10.5533  -17.9818   18.4630 N   0  0  0  0  0  0  0  0  0  0  0  0
    9.3800  -16.5004   19.9388 C   0  0  0  0  0  0  0  0  0  0  0  0
   10.4013  -16.8477   20.6520 O   0  0  0  0  0  0  0  0  0  0  0  0
    8.4446  -15.5735   20.4206 N   0  0  0  0  0  0  0  0  0  0  0  0
    7.2079  -15.1721   19.8673 C   0  0  0  0  0  0  0  0  0  0  0  0
    7.1080  -13.6911   20.2045 C   0  0  0  0  0  0  0  0  0  0  0  0
    8.1085  -13.4871   21.3110 C   0  0  0  0  0  0  0  0  0  0  0  0
    8.6036  -14.8627   21.6747 C   0  0  1  0  0  0  0  0  0  0  0  0
    7.7382  -15.5469   22.6829 C   0  0  0  0  0  0  0  0  0  0  0  0
    7.2227  -16.6958   22.4553 O   0  0  0  0  0  0  0  0  0  0  0  0
    6.1249  -11.1417   26.9501 C   0  0  0  0  0  0  0  0  0  0  0  0
    6.9745  -12.7160   27.0619 S   0  0  0  0  0  0  0  0  0  0  0  0
    8.1387  -13.0009   25.7045 C   0  0  0  0  0  0  0  0  0  0  0  0
    8.8334  -14.3214   25.8446 C   0  0  0  0  0  0  0  0  0  0  0  0
    8.0944  -15.4379   25.1465 C   0  0  2  0  0  0  0  0  0  0  0  0
    7.4222  -14.9843   23.9555 N   0  0  0  0  0  0  0  0  0  0  0  0
    7.0498  -15.9461   26.1021 C   0  0  0  0  0  0  0  0  0  0  0  0
    7.4780  -16.6000   27.2414 O   0  0  0  0  0  0  0  0  0  0  0  0
    5.8348  -15.7936   25.8944 O   0  0  0  0  0  0  0  0  0  0  0  0
  2  3  2  0
  2  1  1  0
  4  2  1  0
  5  7  1  0
  5  4  1  0
  5  6  1  1
  7  8  2  0
  9  7  1  0
 10  9  1  0
 11 12  1  0
 11 10  1  0
 12 13  1  0
 13  9  1  0
 13 14  1  1
 14 21  1  0
 15 14  2  0
 17 16  1  0
 18 19  1  0
 18 17  1  0
 20 19  1  1
 20 22  1  0
 21 20  1  0
 22 24  2  0
 22 23  1  0
M  END
$$$$
