NPM.pdb
     RDKit          3D

 24 24  0  0  1  0  0  0  0  0999 V2000
    6.6190  -20.6301   20.0055 N   0  0  0  0  0  0  0  0  0  0  0  0
    8.0045  -20.4021   20.0016 C   0  0  0  0  0  0  0  0  0  0  0  0
    8.7600  -21.2443   19.4638 O   0  0  0  0  0  0  0  0  0  0  0  0
    8.5848  -19.2060   20.6118 C   0  0  0  0  0  0  0  0  0  0  0  0
    9.0805  -18.1619   19.6505 C   0  0  2  0  0  0  0  0  0  0  0  0
   10.2483  -18.5822   18.9122 N   0  0  0  0  0  0  0  0  0  0  0  0
    9.3729  -16.8824   20.3592 C   0  0  0  0  0  0  0  0  0  0  0  0
   10.6337  -16.7397   20.6089 O   0  0  0  0  0  0  0  0  0  0  0  0
    8.4455  -15.9036   20.7439 N   0  0  0  0  0  0  0  0  0  0  0  0
    7.0418  -15.8810   20.5832 C   0  0  0  0  0  0  0  0  0  0  0  0
    6.7176  -14.4184   20.3138 C   0  0  0  0  0  0  0  0  0  0  0  0
    7.9349  -13.6684   20.7854 C   0  0  0  0  0  0  0  0  0  0  0  0
    8.8151  -14.6933   21.4522 C   0  0  1  0  0  0  0  0  0  0  0  0
    8.4774  -14.9040   22.8927 C   0  0  0  0  0  0  0  0  0  0  0  0
    7.4780  -15.6189   23.2500 O   0  0  0  0  0  0  0  0  0  0  0  0
    5.7510  -10.9229   26.9052 C   0  0  0  0  0  0  0  0  0  0  0  0
    6.8840  -12.1205   27.6086 S   0  0  0  0  0  0  0  0  0  0  0  0
    6.8044  -13.7415   26.8054 C   0  0  0  0  0  0  0  0  0  0  0  0
    7.3595  -13.6931   25.4142 C   0  0  0  0  0  0  0  0  0  0  0  0
    8.7136  -14.3532   25.3112 C   0  0  2  0  0  0  0  0  0  0  0  0
    9.2271  -14.3348   23.9650 N   0  0  0  0  0  0  0  0  0  0  0  0
    8.5407  -15.7903   25.7206 C   0  0  0  0  0  0  0  0  0  0  0  0
    8.9303  -16.1514   26.9960 O   0  0  0  0  0  0  0  0  0  0  0  0
    8.0643  -16.6428   24.9532 O   0  0  0  0  0  0  0  0  0  0  0  0
  2  3  2  0
  2  1  1  0
  4  2  1  0
  5  7  1  0
  5  4  1  0
  5  6  1  1
  7  8  2  0
  9  7  1  0
 10  9  1  0
 11 12  1  0
 11 10  1  0
 12 13  1  0
 13  9  1  0
 13 14  1  1
 14 21  1  0
 15 14  2  0
 17 16  1  0
 18 19  1  0
 18 17  1  0
 20 19  1  6
 20 22  1  0
 21 20  1  0
 22 24  2  0
 22 23  1  0
M  END
$$$$
