NPM.pdb
     RDKit          3D

 24 24  0  0  1  0  0  0  0  0999 V2000
   12.3997  -20.8705   20.5937 N   0  0  0  0  0  0  0  0  0  0  0  0
   11.3901  -20.0550   20.0577 C   0  0  0  0  0  0  0  0  0  0  0  0
   10.8835  -20.3577   18.9527 O   0  0  0  0  0  0  0  0  0  0  0  0
   10.9184  -18.8609   20.7586 C   0  0  0  0  0  0  0  0  0  0  0  0
   10.8807  -17.6002   19.9405 C   0  0  2  0  0  0  0  0  0  0  0  0
   12.1832  -17.1943   19.4672 N   0  0  0  0  0  0  0  0  0  0  0  0
   10.2608  -16.4840   20.7118 C   0  0  0  0  0  0  0  0  0  0  0  0
   11.1432  -15.7683   21.3294 O   0  0  0  0  0  0  0  0  0  0  0  0
    8.8941  -16.1847   20.8059 N   0  0  0  0  0  0  0  0  0  0  0  0
    7.7854  -16.8511   20.2370 C   0  0  0  0  0  0  0  0  0  0  0  0
    6.8145  -15.7329   19.8854 C   0  0  0  0  0  0  0  0  0  0  0  0
    7.2845  -14.5550   20.6968 C   0  0  0  0  0  0  0  0  0  0  0  0
    8.3741  -15.0833   21.5931 C   0  0  1  0  0  0  0  0  0  0  0  0
    7.8519  -15.6603   22.8690 C   0  0  0  0  0  0  0  0  0  0  0  0
    8.0865  -16.8733   23.2024 O   0  0  0  0  0  0  0  0  0  0  0  0
    5.6859  -11.0030   27.6896 C   0  0  0  0  0  0  0  0  0  0  0  0
    7.1680  -11.9779   27.9460 S   0  0  0  0  0  0  0  0  0  0  0  0
    7.0107  -13.6875   27.3703 C   0  0  0  0  0  0  0  0  0  0  0  0
    6.6660  -13.7470   25.9130 C   0  0  0  0  0  0  0  0  0  0  0  0
    7.4907  -14.7689   25.1674 C   0  0  2  0  0  0  0  0  0  0  0  0
    7.0637  -14.9196   23.7996 N   0  0  0  0  0  0  0  0  0  0  0  0
    7.2965  -16.0895   25.8609 C   0  0  0  0  0  0  0  0  0  0  0  0
    6.3095  -16.9313   25.3855 O   0  0  0  0  0  0  0  0  0  0  0  0
    7.9902  -16.4337   26.8319 O   0  0  0  0  0  0  0  0  0  0  0  0
  2  3  2  0
  2  1  1  0
  4  2  1  0
  5  7  1  0
  5  4  1  0
  5  6  1  1
  7  8  2  0
  9  7  1  0
 10  9  1  0
 11 12  1  0
 11 10  1  0
 12 13  1  0
 13  9  1  0
 13 14  1  1
 14 21  1  0
 15 14  2  0
 17 16  1  0
 18 19  1  0
 18 17  1  0
 20 19  1  1
 20 22  1  0
 21 20  1  0
 22 24  2  0
 22 23  1  0
M  END
$$$$
