NPM.pdb
     RDKit          3D

 24 24  0  0  1  0  0  0  0  0999 V2000
   13.6253  -17.7709   18.3396 N   0  0  0  0  0  0  0  0  0  0  0  0
   12.5684  -16.8905   18.0580 C   0  0  0  0  0  0  0  0  0  0  0  0
   12.2634  -16.6652   16.8641 O   0  0  0  0  0  0  0  0  0  0  0  0
   11.8175  -16.2301   19.1257 C   0  0  0  0  0  0  0  0  0  0  0  0
   11.8132  -14.7274   19.0828 C   0  0  2  0  0  0  0  0  0  0  0  0
   13.1377  -14.1561   19.1517 N   0  0  0  0  0  0  0  0  0  0  0  0
   10.9710  -14.1664   20.1787 C   0  0  0  0  0  0  0  0  0  0  0  0
   11.6836  -13.6656   21.1345 O   0  0  0  0  0  0  0  0  0  0  0  0
    9.5701  -14.1495   20.2376 N   0  0  0  0  0  0  0  0  0  0  0  0
    8.6246  -14.6800   19.3312 C   0  0  0  0  0  0  0  0  0  0  0  0
    7.4753  -13.6825   19.3600 C   0  0  0  0  0  0  0  0  0  0  0  0
    7.6903  -12.8944   20.6247 C   0  0  0  0  0  0  0  0  0  0  0  0
    8.8280  -13.5732   21.3422 C   0  0  1  0  0  0  0  0  0  0  0  0
    8.3789  -14.7038   22.2102 C   0  0  0  0  0  0  0  0  0  0  0  0
    8.6723  -15.9186   21.9349 O   0  0  0  0  0  0  0  0  0  0  0  0
    6.0805  -10.8736   27.3305 C   0  0  0  0  0  0  0  0  0  0  0  0
    5.9111  -12.6250   26.9887 S   0  0  0  0  0  0  0  0  0  0  0  0
    7.2705  -13.2977   25.9995 C   0  0  0  0  0  0  0  0  0  0  0  0
    7.1132  -14.7718   25.7801 C   0  0  0  0  0  0  0  0  0  0  0  0
    7.9025  -15.2644   24.5907 C   0  0  2  0  0  0  0  0  0  0  0  0
    7.6007  -14.5233   23.3925 N   0  0  0  0  0  0  0  0  0  0  0  0
    7.5103  -16.6981   24.3590 C   0  0  0  0  0  0  0  0  0  0  0  0
    7.9265  -17.6400   25.2800 O   0  0  0  0  0  0  0  0  0  0  0  0
    6.8336  -17.0471   23.3778 O   0  0  0  0  0  0  0  0  0  0  0  0
  2  3  2  0
  2  1  1  0
  4  2  1  0
  5  7  1  0
  5  4  1  0
  5  6  1  1
  7  8  2  0
  9  7  1  0
 10  9  1  0
 11 12  1  0
 11 10  1  0
 12 13  1  0
 13  9  1  0
 13 14  1  1
 14 21  1  0
 15 14  2  0
 17 16  1  0
 18 19  1  0
 18 17  1  0
 20 19  1  1
 20 22  1  0
 21 20  1  0
 22 24  2  0
 22 23  1  0
M  END
$$$$
