NPM.pdb
     RDKit          3D

 24 24  0  0  1  0  0  0  0  0999 V2000
    6.0790  -17.8932   23.4518 N   0  0  0  0  0  0  0  0  0  0  0  0
    6.3558  -18.3941   22.1697 C   0  0  0  0  0  0  0  0  0  0  0  0
    6.9245  -19.5047   22.0580 O   0  0  0  0  0  0  0  0  0  0  0  0
    5.9971  -17.6489   20.9631 C   0  0  0  0  0  0  0  0  0  0  0  0
    7.0764  -17.5399   19.9224 C   0  0  2  0  0  0  0  0  0  0  0  0
    7.6965  -18.8075   19.6160 N   0  0  0  0  0  0  0  0  0  0  0  0
    8.1221  -16.5620   20.3411 C   0  0  0  0  0  0  0  0  0  0  0  0
    9.2798  -17.1187   20.4894 O   0  0  0  0  0  0  0  0  0  0  0  0
    7.9466  -15.1895   20.5686 N   0  0  0  0  0  0  0  0  0  0  0  0
    6.7574  -14.4268   20.5983 C   0  0  0  0  0  0  0  0  0  0  0  0
    7.1535  -13.0888   19.9904 C   0  0  0  0  0  0  0  0  0  0  0  0
    8.6566  -13.0659   20.0735 C   0  0  0  0  0  0  0  0  0  0  0  0
    9.0418  -14.2870   20.8674 C   0  0  1  0  0  0  0  0  0  0  0  0
    9.0299  -14.0515   22.3431 C   0  0  0  0  0  0  0  0  0  0  0  0
    8.9688  -12.8711   22.8338 O   0  0  0  0  0  0  0  0  0  0  0  0
    6.9083  -11.2024   27.0422 C   0  0  0  0  0  0  0  0  0  0  0  0
    5.9974  -12.6617   26.5388 S   0  0  0  0  0  0  0  0  0  0  0  0
    7.0440  -14.1250   26.3324 C   0  0  0  0  0  0  0  0  0  0  0  0
    7.3683  -14.3694   24.8898 C   0  0  0  0  0  0  0  0  0  0  0  0
    8.7867  -14.8479   24.6915 C   0  0  2  0  0  0  0  0  0  0  0  0
    9.0861  -15.1035   23.3054 N   0  0  0  0  0  0  0  0  0  0  0  0
    8.9286  -16.1437   25.4420 C   0  0  0  0  0  0  0  0  0  0  0  0
    8.8723  -16.1021   26.8218 O   0  0  0  0  0  0  0  0  0  0  0  0
    9.0915  -17.2291   24.8606 O   0  0  0  0  0  0  0  0  0  0  0  0
  2  3  2  0
  2  1  1  0
  4  2  1  0
  5  7  1  0
  5  4  1  0
  5  6  1  1
  7  8  2  0
  9  7  1  0
 10  9  1  0
 11 12  1  0
 11 10  1  0
 12 13  1  0
 13  9  1  0
 13 14  1  1
 14 21  1  0
 15 14  2  0
 17 16  1  0
 18 19  1  0
 18 17  1  0
 20 19  1  6
 20 22  1  0
 21 20  1  0
 22 24  2  0
 22 23  1  0
M  END
$$$$
