NPM.pdb
     RDKit          3D

 24 24  0  0  1  0  0  0  0  0999 V2000
   11.4333  -19.8917   18.5666 N   0  0  0  0  0  0  0  0  0  0  0  0
   11.9301  -19.1320   19.6379 C   0  0  0  0  0  0  0  0  0  0  0  0
   12.9358  -19.5421   20.2622 O   0  0  0  0  0  0  0  0  0  0  0  0
   11.2999  -17.8752   20.0419 C   0  0  0  0  0  0  0  0  0  0  0  0
   10.0811  -17.4782   19.2565 C   0  0  2  0  0  0  0  0  0  0  0  0
   10.3988  -16.7620   18.0435 N   0  0  0  0  0  0  0  0  0  0  0  0
    9.1544  -16.6593   20.0906 C   0  0  0  0  0  0  0  0  0  0  0  0
    9.4925  -15.4113   20.1140 O   0  0  0  0  0  0  0  0  0  0  0  0
    8.0323  -17.1166   20.7963 N   0  0  0  0  0  0  0  0  0  0  0  0
    7.5746  -18.4377   21.0009 C   0  0  0  0  0  0  0  0  0  0  0  0
    6.0574  -18.3185   20.9736 C   0  0  0  0  0  0  0  0  0  0  0  0
    5.7893  -16.8535   21.1941 C   0  0  0  0  0  0  0  0  0  0  0  0
    7.1268  -16.2346   21.5071 C   0  0  1  0  0  0  0  0  0  0  0  0
    7.4812  -16.3128   22.9568 C   0  0  0  0  0  0  0  0  0  0  0  0
    8.2054  -17.2606   23.4203 O   0  0  0  0  0  0  0  0  0  0  0  0
    9.7853  -13.0799   29.1847 C   0  0  0  0  0  0  0  0  0  0  0  0
    8.5895  -12.7952   27.8802 S   0  0  0  0  0  0  0  0  0  0  0  0
    7.5847  -14.2522   27.4976 C   0  0  0  0  0  0  0  0  0  0  0  0
    7.0746  -14.2134   26.0890 C   0  0  0  0  0  0  0  0  0  0  0  0
    7.5811  -15.3701   25.2610 C   0  0  2  0  0  0  0  0  0  0  0  0
    7.0480  -15.3559   23.9225 N   0  0  0  0  0  0  0  0  0  0  0  0
    7.1162  -16.6343   25.9306 C   0  0  0  0  0  0  0  0  0  0  0  0
    7.9722  -17.2443   26.8273 O   0  0  0  0  0  0  0  0  0  0  0  0
    6.0018  -17.1320   25.7006 O   0  0  0  0  0  0  0  0  0  0  0  0
  2  3  2  0
  2  1  1  0
  4  2  1  0
  5  7  1  0
  5  4  1  0
  5  6  1  6
  7  8  2  0
  9  7  1  0
 10  9  1  0
 11 12  1  0
 11 10  1  0
 12 13  1  0
 13  9  1  0
 13 14  1  1
 14 21  1  0
 15 14  2  0
 17 16  1  0
 18 19  1  0
 18 17  1  0
 20 19  1  1
 20 22  1  0
 21 20  1  0
 22 24  2  0
 22 23  1  0
M  END
$$$$
