CFH.pdb
     RDKit          3D

 28 29  0  0  1  0  0  0  0  0999 V2000
   10.2116  -16.5963   19.2768 N   0  0  0  0  0  0  0  0  0  0  0  0
    9.2747  -16.9891   20.2888 C   0  0  1  0  0  0  0  0  0  0  0  0
    9.5691  -18.4147   20.6994 C   0  0  0  0  0  0  0  0  0  0  0  0
    8.8887  -19.5763   19.4930 S   0  0  0  0  0  0  0  0  0  0  0  0
    9.4219  -16.1422   21.4976 C   0  0  0  0  0  0  0  0  0  0  0  0
   10.5564  -15.7394   21.8067 O   0  0  0  0  0  0  0  0  0  0  0  0
    8.3234  -15.7833   22.2999 N   0  0  0  0  0  0  0  0  0  0  0  0
    8.4166  -14.9461   23.4669 C   0  0  1  0  0  0  0  0  0  0  0  0
    7.1193  -14.2951   23.8393 C   0  0  0  0  0  0  0  0  0  0  0  0
    7.2015  -13.4527   25.0539 C   0  0  0  0  0  0  0  0  0  0  0  0
    6.5188  -13.8637   26.1785 C   0  0  0  0  0  0  0  0  0  0  0  0
    6.5333  -13.1452   27.3583 C   0  0  0  0  0  0  0  0  0  0  0  0
    7.2474  -11.9730   27.4407 C   0  0  0  0  0  0  0  0  0  0  0  0
    7.9356  -11.5461   26.3285 C   0  0  0  0  0  0  0  0  0  0  0  0
    7.9180  -12.2774   25.1353 C   0  0  0  0  0  0  0  0  0  0  0  0
    8.9009  -15.7040   24.6327 C   0  0  0  0  0  0  0  0  0  0  0  0
    8.3126  -16.8054   24.9045 O   0  0  0  0  0  0  0  0  0  0  0  0
    9.9491  -15.3274   25.4725 N   0  0  0  0  0  0  0  0  0  0  0  0
   10.6115  -16.2655   26.4049 C   0  0  1  0  0  0  0  0  0  0  0  0
   12.0872  -15.9583   26.4483 C   0  0  0  0  0  0  0  0  0  0  0  0
   12.7806  -16.3171   25.1967 C   0  0  0  0  0  0  0  0  0  0  0  0
   12.2907  -17.2353   24.2581 C   0  0  0  0  0  0  0  0  0  0  0  0
   13.1730  -17.3151   23.2515 N   0  0  0  0  0  0  0  0  0  0  0  0
   14.2046  -16.4897   23.5039 C   0  0  0  0  0  0  0  0  0  0  0  0
   13.9458  -15.8985   24.6825 N   0  0  0  0  0  0  0  0  0  0  0  0
   10.0232  -15.9522   27.7163 C   0  0  0  0  0  0  0  0  0  0  0  0
   10.2060  -16.7896   28.7921 O   0  0  0  0  0  0  0  0  0  0  0  0
    9.3469  -14.9271   27.8909 O   0  0  0  0  0  0  0  0  0  0  0  0
  2  1  1  6
  2  5  1  0
  3  2  1  0
  4  3  1  0
  5  7  1  0
  5  6  2  0
  7  8  1  0
  8 16  1  0
  8  9  1  1
 10  9  1  0
 10 15  1  0
 11 10  2  0
 12 11  1  0
 12 13  2  0
 13 14  1  0
 15 14  2  0
 16 17  2  0
 18 19  1  0
 18 16  1  0
 19 20  1  1
 21 20  1  0
 22 21  2  0
 23 24  1  0
 23 22  1  0
 24 25  2  0
 25 21  1  0
 26 19  1  0
 26 27  1  0
 28 26  2  0
M  END
$$$$
