CFH.pdb
     RDKit          3D

 28 29  0  0  1  0  0  0  0  0999 V2000
   10.2776  -16.4494   19.1288 N   0  0  0  0  0  0  0  0  0  0  0  0
    9.3855  -16.9632   20.1270 C   0  0  1  0  0  0  0  0  0  0  0  0
    9.7999  -18.3767   20.4706 C   0  0  0  0  0  0  0  0  0  0  0  0
    8.6913  -19.0787   21.7140 S   0  0  0  0  0  0  0  0  0  0  0  0
    9.4739  -16.1623   21.3724 C   0  0  0  0  0  0  0  0  0  0  0  0
   10.5896  -15.7567   21.7404 O   0  0  0  0  0  0  0  0  0  0  0  0
    8.3404  -15.8497   22.1448 N   0  0  0  0  0  0  0  0  0  0  0  0
    8.3780  -15.0665   23.3517 C   0  0  1  0  0  0  0  0  0  0  0  0
    7.0924  -14.3526   23.6400 C   0  0  0  0  0  0  0  0  0  0  0  0
    7.1263  -13.5382   24.8758 C   0  0  0  0  0  0  0  0  0  0  0  0
    6.3868  -13.9656   25.9575 C   0  0  0  0  0  0  0  0  0  0  0  0
    6.3533  -13.2735   27.1526 C   0  0  0  0  0  0  0  0  0  0  0  0
    7.0755  -12.1121   27.2949 C   0  0  0  0  0  0  0  0  0  0  0  0
    7.8201  -11.6691   26.2261 C   0  0  0  0  0  0  0  0  0  0  0  0
    7.8509  -12.3737   25.0173 C   0  0  0  0  0  0  0  0  0  0  0  0
    8.7130  -15.8979   24.5198 C   0  0  0  0  0  0  0  0  0  0  0  0
    7.8758  -16.8022   24.8583 O   0  0  0  0  0  0  0  0  0  0  0  0
    9.8673  -15.7881   25.2953 N   0  0  0  0  0  0  0  0  0  0  0  0
   10.1978  -16.7307   26.3863 C   0  0  1  0  0  0  0  0  0  0  0  0
   11.6643  -17.0745   26.3139 C   0  0  0  0  0  0  0  0  0  0  0  0
   11.9999  -17.8917   25.1326 C   0  0  0  0  0  0  0  0  0  0  0  0
   11.4114  -19.1283   24.8352 C   0  0  0  0  0  0  0  0  0  0  0  0
   11.9515  -19.5851   23.6959 N   0  0  0  0  0  0  0  0  0  0  0  0
   12.8583  -18.6967   23.2516 C   0  0  0  0  0  0  0  0  0  0  0  0
   12.8703  -17.6837   24.1343 N   0  0  0  0  0  0  0  0  0  0  0  0
    9.9507  -15.9644   27.6175 C   0  0  0  0  0  0  0  0  0  0  0  0
   10.1045  -16.5447   28.8550 O   0  0  0  0  0  0  0  0  0  0  0  0
    9.5973  -14.7761   27.5769 O   0  0  0  0  0  0  0  0  0  0  0  0
  2  1  1  6
  2  5  1  0
  3  2  1  0
  4  3  1  0
  5  7  1  0
  5  6  2  0
  7  8  1  0
  8 16  1  0
  8  9  1  1
 10  9  1  0
 10 15  1  0
 11 10  2  0
 12 11  1  0
 12 13  2  0
 13 14  1  0
 15 14  2  0
 16 17  2  0
 18 19  1  0
 18 16  1  0
 19 20  1  6
 21 20  1  0
 22 21  2  0
 23 24  1  0
 23 22  1  0
 24 25  2  0
 25 21  1  0
 26 19  1  0
 26 27  1  0
 28 26  2  0
M  END
$$$$
