CFH.pdb
     RDKit          3D

 28 29  0  0  1  0  0  0  0  0999 V2000
    9.2634  -16.5215   18.8805 N   0  0  0  0  0  0  0  0  0  0  0  0
    8.3950  -16.9331   19.9447 C   0  0  1  0  0  0  0  0  0  0  0  0
    8.6675  -18.3865   20.2624 C   0  0  0  0  0  0  0  0  0  0  0  0
    7.5889  -19.4622   19.2891 S   0  0  0  0  0  0  0  0  0  0  0  0
    8.6681  -16.1533   21.1765 C   0  0  0  0  0  0  0  0  0  0  0  0
    9.8452  -15.8570   21.4438 O   0  0  0  0  0  0  0  0  0  0  0  0
    7.6418  -15.7414   22.0462 N   0  0  0  0  0  0  0  0  0  0  0  0
    7.8627  -15.0020   23.2611 C   0  0  1  0  0  0  0  0  0  0  0  0
    6.6143  -14.3947   23.8252 C   0  0  0  0  0  0  0  0  0  0  0  0
    6.8355  -13.6237   25.0696 C   0  0  0  0  0  0  0  0  0  0  0  0
    6.4342  -14.1847   26.2629 C   0  0  0  0  0  0  0  0  0  0  0  0
    6.5964  -13.5429   27.4753 C   0  0  0  0  0  0  0  0  0  0  0  0
    7.1771  -12.2973   27.5215 C   0  0  0  0  0  0  0  0  0  0  0  0
    7.5843  -11.7206   26.3406 C   0  0  0  0  0  0  0  0  0  0  0  0
    7.4178  -12.3748   25.1146 C   0  0  0  0  0  0  0  0  0  0  0  0
    8.4712  -15.8488   24.3005 C   0  0  0  0  0  0  0  0  0  0  0  0
    7.8007  -16.8591   24.7039 O   0  0  0  0  0  0  0  0  0  0  0  0
    9.7200  -15.6478   24.8887 N   0  0  0  0  0  0  0  0  0  0  0  0
   10.3818  -16.6600   25.7406 C   0  0  1  0  0  0  0  0  0  0  0  0
   11.8740  -16.5733   25.5410 C   0  0  0  0  0  0  0  0  0  0  0  0
   12.3093  -17.1358   24.2487 C   0  0  0  0  0  0  0  0  0  0  0  0
   11.7270  -18.2552   23.6387 C   0  0  0  0  0  0  0  0  0  0  0  0
   12.3692  -18.4833   22.4839 N   0  0  0  0  0  0  0  0  0  0  0  0
   13.3354  -17.5608   22.3280 C   0  0  0  0  0  0  0  0  0  0  0  0
   13.2803  -16.7588   23.4047 N   0  0  0  0  0  0  0  0  0  0  0  0
   10.0623  -16.2447   27.1152 C   0  0  0  0  0  0  0  0  0  0  0  0
    9.2264  -15.1793   27.3562 O   0  0  0  0  0  0  0  0  0  0  0  0
   10.5356  -16.8405   28.0948 O   0  0  0  0  0  0  0  0  0  0  0  0
  2  1  1  6
  2  5  1  0
  3  2  1  0
  4  3  1  0
  5  7  1  0
  5  6  2  0
  7  8  1  0
  8 16  1  0
  8  9  1  1
 10  9  1  0
 10 15  1  0
 11 10  2  0
 12 11  1  0
 12 13  2  0
 13 14  1  0
 15 14  2  0
 16 17  2  0
 18 19  1  0
 18 16  1  0
 19 20  1  1
 21 20  1  0
 22 21  2  0
 23 24  1  0
 23 22  1  0
 24 25  2  0
 25 21  1  0
 26 19  1  0
 26 27  1  0
 28 26  2  0
M  END
$$$$
