CFH.pdb
     RDKit          3D

 28 29  0  0  1  0  0  0  0  0999 V2000
   10.1996  -16.2502   18.8683 N   0  0  0  0  0  0  0  0  0  0  0  0
    9.0970  -16.5652   19.7293 C   0  0  1  0  0  0  0  0  0  0  0  0
    9.0904  -18.0553   19.9884 C   0  0  0  0  0  0  0  0  0  0  0  0
    7.7858  -18.4898   21.1619 S   0  0  0  0  0  0  0  0  0  0  0  0
    9.2461  -15.8897   21.0415 C   0  0  0  0  0  0  0  0  0  0  0  0
   10.3700  -15.8619   21.5715 O   0  0  0  0  0  0  0  0  0  0  0  0
    8.1610  -15.2833   21.7002 N   0  0  0  0  0  0  0  0  0  0  0  0
    8.2430  -14.6849   23.0066 C   0  0  1  0  0  0  0  0  0  0  0  0
    7.0145  -13.9167   23.3891 C   0  0  0  0  0  0  0  0  0  0  0  0
    7.0781  -13.3267   24.7454 C   0  0  0  0  0  0  0  0  0  0  0  0
    6.2352  -13.8285   25.7137 C   0  0  0  0  0  0  0  0  0  0  0  0
    6.2196  -13.3429   27.0069 C   0  0  0  0  0  0  0  0  0  0  0  0
    7.0661  -12.3213   27.3679 C   0  0  0  0  0  0  0  0  0  0  0  0
    7.9151  -11.8070   26.4152 C   0  0  0  0  0  0  0  0  0  0  0  0
    7.9274  -12.3022   25.1062 C   0  0  0  0  0  0  0  0  0  0  0  0
    8.4926  -15.6980   24.0454 C   0  0  0  0  0  0  0  0  0  0  0  0
    7.6134  -16.6126   24.1990 O   0  0  0  0  0  0  0  0  0  0  0  0
    9.6075  -15.7511   24.8820 N   0  0  0  0  0  0  0  0  0  0  0  0
    9.8204  -16.8281   25.8735 C   0  0  1  0  0  0  0  0  0  0  0  0
   11.2590  -17.2762   25.8138 C   0  0  0  0  0  0  0  0  0  0  0  0
   11.5239  -18.1918   24.6879 C   0  0  0  0  0  0  0  0  0  0  0  0
   10.5318  -18.7269   23.8553 C   0  0  0  0  0  0  0  0  0  0  0  0
   11.1277  -19.5119   22.9460 N   0  0  0  0  0  0  0  0  0  0  0  0
   12.4556  -19.5029   23.1595 C   0  0  0  0  0  0  0  0  0  0  0  0
   12.6709  -18.6999   24.2152 N   0  0  0  0  0  0  0  0  0  0  0  0
    9.5790  -16.1807   27.1723 C   0  0  0  0  0  0  0  0  0  0  0  0
    9.2848  -16.9258   28.2904 O   0  0  0  0  0  0  0  0  0  0  0  0
    9.6331  -14.9479   27.2977 O   0  0  0  0  0  0  0  0  0  0  0  0
  2  1  1  6
  2  5  1  0
  3  2  1  0
  4  3  1  0
  5  7  1  0
  5  6  2  0
  7  8  1  0
  8 16  1  0
  8  9  1  1
 10  9  1  0
 10 15  1  0
 11 10  2  0
 12 11  1  0
 12 13  2  0
 13 14  1  0
 15 14  2  0
 16 17  2  0
 18 19  1  0
 18 16  1  0
 19 20  1  1
 21 20  1  0
 22 21  2  0
 23 24  1  0
 23 22  1  0
 24 25  2  0
 25 21  1  0
 26 19  1  0
 26 27  1  0
 28 26  2  0
M  END
$$$$
