CFH.pdb
     RDKit          3D

 28 29  0  0  1  0  0  0  0  0999 V2000
    9.2893  -14.5819   19.8765 N   0  0  0  0  0  0  0  0  0  0  0  0
    8.3871  -15.4267   20.6036 C   0  0  1  0  0  0  0  0  0  0  0  0
    8.4820  -16.8316   20.0514 C   0  0  0  0  0  0  0  0  0  0  0  0
    7.3536  -17.9368   20.9306 S   0  0  0  0  0  0  0  0  0  0  0  0
    8.7657  -15.4891   22.0364 C   0  0  0  0  0  0  0  0  0  0  0  0
    9.9615  -15.3423   22.3422 O   0  0  0  0  0  0  0  0  0  0  0  0
    7.8187  -15.7078   23.0534 N   0  0  0  0  0  0  0  0  0  0  0  0
    8.1391  -15.7626   24.4554 C   0  0  1  0  0  0  0  0  0  0  0  0
    7.0109  -15.3317   25.3425 C   0  0  0  0  0  0  0  0  0  0  0  0
    7.0092  -13.8822   25.6442 C   0  0  0  0  0  0  0  0  0  0  0  0
    7.4029  -13.4787   26.9020 C   0  0  0  0  0  0  0  0  0  0  0  0
    7.4333  -12.1499   27.2784 C   0  0  0  0  0  0  0  0  0  0  0  0
    7.0621  -11.1734   26.3843 C   0  0  0  0  0  0  0  0  0  0  0  0
    6.6659  -11.5565   25.1237 C   0  0  0  0  0  0  0  0  0  0  0  0
    6.6367  -12.9040   24.7468 C   0  0  0  0  0  0  0  0  0  0  0  0
    8.5481  -17.1181   24.8591 C   0  0  0  0  0  0  0  0  0  0  0  0
    8.1591  -18.0923   24.1291 O   0  0  0  0  0  0  0  0  0  0  0  0
    9.3260  -17.4382   25.9718 N   0  0  0  0  0  0  0  0  0  0  0  0
   10.4167  -18.4367   25.9324 C   0  0  1  0  0  0  0  0  0  0  0  0
   11.4807  -17.9675   24.9724 C   0  0  0  0  0  0  0  0  0  0  0  0
   12.6507  -18.8652   24.9358 C   0  0  0  0  0  0  0  0  0  0  0  0
   12.7697  -20.0381   25.6935 C   0  0  0  0  0  0  0  0  0  0  0  0
   13.9545  -20.5994   25.4117 N   0  0  0  0  0  0  0  0  0  0  0  0
   14.5981  -19.8387   24.5084 C   0  0  0  0  0  0  0  0  0  0  0  0
   13.7924  -18.7983   24.2363 N   0  0  0  0  0  0  0  0  0  0  0  0
   10.9699  -18.4263   27.2954 C   0  0  0  0  0  0  0  0  0  0  0  0
   10.4904  -17.5566   28.2470 O   0  0  0  0  0  0  0  0  0  0  0  0
   11.8823  -19.1987   27.6265 O   0  0  0  0  0  0  0  0  0  0  0  0
  2  1  1  6
  2  5  1  0
  3  2  1  0
  4  3  1  0
  5  7  1  0
  5  6  2  0
  7  8  1  0
  8 16  1  0
  8  9  1  1
 10  9  1  0
 10 15  1  0
 11 10  2  0
 12 11  1  0
 12 13  2  0
 13 14  1  0
 15 14  2  0
 16 17  2  0
 18 19  1  0
 18 16  1  0
 19 20  1  6
 21 20  1  0
 22 21  2  0
 23 24  1  0
 23 22  1  0
 24 25  2  0
 25 21  1  0
 26 19  1  0
 26 27  1  0
 28 26  2  0
M  END
$$$$
