CFH.pdb
     RDKit          3D

 28 29  0  0  1  0  0  0  0  0999 V2000
   10.2328  -16.6702   19.1843 N   0  0  0  0  0  0  0  0  0  0  0  0
    8.9845  -16.5881   19.8851 C   0  0  1  0  0  0  0  0  0  0  0  0
    8.4903  -17.9895   20.1673 C   0  0  0  0  0  0  0  0  0  0  0  0
    9.7649  -18.9542   21.0114 S   0  0  0  0  0  0  0  0  0  0  0  0
    9.1602  -15.9104   21.1928 C   0  0  0  0  0  0  0  0  0  0  0  0
   10.3078  -15.8057   21.6586 O   0  0  0  0  0  0  0  0  0  0  0  0
    8.0744  -15.3858   21.9173 N   0  0  0  0  0  0  0  0  0  0  0  0
    8.1957  -14.7426   23.1991 C   0  0  1  0  0  0  0  0  0  0  0  0
    6.9710  -13.9786   23.6015 C   0  0  0  0  0  0  0  0  0  0  0  0
    7.1136  -13.2563   24.8860 C   0  0  0  0  0  0  0  0  0  0  0  0
    6.3748  -13.6938   25.9642 C   0  0  0  0  0  0  0  0  0  0  0  0
    6.4385  -13.0847   27.2025 C   0  0  0  0  0  0  0  0  0  0  0  0
    7.2616  -11.9999   27.3935 C   0  0  0  0  0  0  0  0  0  0  0  0
    8.0071  -11.5483   26.3290 C   0  0  0  0  0  0  0  0  0  0  0  0
    7.9393  -12.1686   25.0762 C   0  0  0  0  0  0  0  0  0  0  0  0
    8.4983  -15.7167   24.2609 C   0  0  0  0  0  0  0  0  0  0  0  0
    7.6889  -16.6942   24.4111 O   0  0  0  0  0  0  0  0  0  0  0  0
    9.5940  -15.6699   25.1229 N   0  0  0  0  0  0  0  0  0  0  0  0
    9.9264  -16.7620   26.0637 C   0  0  1  0  0  0  0  0  0  0  0  0
   11.4131  -17.0114   26.0246 C   0  0  0  0  0  0  0  0  0  0  0  0
   11.8461  -17.6783   24.7821 C   0  0  0  0  0  0  0  0  0  0  0  0
   11.0406  -18.5419   24.0277 C   0  0  0  0  0  0  0  0  0  0  0  0
   11.7522  -18.9613   22.9714 N   0  0  0  0  0  0  0  0  0  0  0  0
   12.9760  -18.4051   23.0163 C   0  0  0  0  0  0  0  0  0  0  0  0
   13.0094  -17.6352   24.1171 N   0  0  0  0  0  0  0  0  0  0  0  0
    9.5703  -16.2248   27.3861 C   0  0  0  0  0  0  0  0  0  0  0  0
    9.6928  -16.9951   28.5191 O   0  0  0  0  0  0  0  0  0  0  0  0
    9.1504  -15.0652   27.5188 O   0  0  0  0  0  0  0  0  0  0  0  0
  2  1  1  1
  2  5  1  0
  3  2  1  0
  4  3  1  0
  5  7  1  0
  5  6  2  0
  7  8  1  0
  8 16  1  0
  8  9  1  1
 10  9  1  0
 10 15  1  0
 11 10  2  0
 12 11  1  0
 12 13  2  0
 13 14  1  0
 15 14  2  0
 16 17  2  0
 18 19  1  0
 18 16  1  0
 19 20  1  1
 21 20  1  0
 22 21  2  0
 23 24  1  0
 23 22  1  0
 24 25  2  0
 25 21  1  0
 26 19  1  0
 26 27  1  0
 28 26  2  0
M  END
$$$$
