CFH.pdb
     RDKit          3D

 28 29  0  0  1  0  0  0  0  0999 V2000
    7.7776  -15.3229   20.2523 N   0  0  0  0  0  0  0  0  0  0  0  0
    7.0964  -16.0063   21.3129 C   0  0  1  0  0  0  0  0  0  0  0  0
    6.9458  -17.4636   20.9369 C   0  0  0  0  0  0  0  0  0  0  0  0
    5.9282  -17.6343   19.4527 S   0  0  0  0  0  0  0  0  0  0  0  0
    7.8888  -15.9534   22.5657 C   0  0  0  0  0  0  0  0  0  0  0  0
    9.1257  -15.8628   22.4834 O   0  0  0  0  0  0  0  0  0  0  0  0
    7.2869  -16.0023   23.8363 N   0  0  0  0  0  0  0  0  0  0  0  0
    8.0165  -15.9631   25.0763 C   0  0  1  0  0  0  0  0  0  0  0  0
    7.2226  -15.4051   26.2182 C   0  0  0  0  0  0  0  0  0  0  0  0
    7.1318  -13.9274   26.2159 C   0  0  0  0  0  0  0  0  0  0  0  0
    8.2790  -13.2044   26.4627 C   0  0  0  0  0  0  0  0  0  0  0  0
    8.2947  -11.8232   26.4830 C   0  0  0  0  0  0  0  0  0  0  0  0
    7.1366  -11.1190   26.2516 C   0  0  0  0  0  0  0  0  0  0  0  0
    5.9809  -11.8231   26.0033 C   0  0  0  0  0  0  0  0  0  0  0  0
    5.9698  -13.2225   25.9838 C   0  0  0  0  0  0  0  0  0  0  0  0
    8.4933  -17.3022   25.4600 C   0  0  0  0  0  0  0  0  0  0  0  0
    7.6121  -18.2057   25.6608 O   0  0  0  0  0  0  0  0  0  0  0  0
    9.8266  -17.6770   25.6254 N   0  0  0  0  0  0  0  0  0  0  0  0
   10.2436  -19.0678   25.9087 C   0  0  1  0  0  0  0  0  0  0  0  0
   10.7734  -19.6917   24.6422 C   0  0  0  0  0  0  0  0  0  0  0  0
   11.5838  -18.7546   23.8416 C   0  0  0  0  0  0  0  0  0  0  0  0
   12.9626  -18.5644   24.0054 C   0  0  0  0  0  0  0  0  0  0  0  0
   13.3666  -17.6460   23.1158 N   0  0  0  0  0  0  0  0  0  0  0  0
   12.3088  -17.2404   22.3909 C   0  0  0  0  0  0  0  0  0  0  0  0
   11.2446  -17.9227   22.8465 N   0  0  0  0  0  0  0  0  0  0  0  0
   11.3505  -18.9283   26.8676 C   0  0  0  0  0  0  0  0  0  0  0  0
   11.7842  -17.6872   27.2719 O   0  0  0  0  0  0  0  0  0  0  0  0
   11.9240  -19.9221   27.3387 O   0  0  0  0  0  0  0  0  0  0  0  0
  2  1  1  6
  2  5  1  0
  3  2  1  0
  4  3  1  0
  5  7  1  0
  5  6  2  0
  7  8  1  0
  8 16  1  0
  8  9  1  1
 10  9  1  0
 10 15  1  0
 11 10  2  0
 12 11  1  0
 12 13  2  0
 13 14  1  0
 15 14  2  0
 16 17  2  0
 18 19  1  0
 18 16  1  0
 19 20  1  6
 21 20  1  0
 22 21  2  0
 23 24  1  0
 23 22  1  0
 24 25  2  0
 25 21  1  0
 26 19  1  0
 26 27  1  0
 28 26  2  0
M  END
$$$$
