CFH.pdb
     RDKit          3D

 28 29  0  0  1  0  0  0  0  0999 V2000
    7.9023  -13.8497   19.6982 N   0  0  0  0  0  0  0  0  0  0  0  0
    7.1276  -14.4547   20.7422 C   0  0  1  0  0  0  0  0  0  0  0  0
    6.7389  -15.8523   20.3141 C   0  0  0  0  0  0  0  0  0  0  0  0
    8.2093  -16.8286   19.9237 S   0  0  0  0  0  0  0  0  0  0  0  0
    7.9281  -14.5803   21.9846 C   0  0  0  0  0  0  0  0  0  0  0  0
    9.1439  -14.3261   21.9367 O   0  0  0  0  0  0  0  0  0  0  0  0
    7.3569  -14.9758   23.2079 N   0  0  0  0  0  0  0  0  0  0  0  0
    8.0721  -15.0160   24.4562 C   0  0  1  0  0  0  0  0  0  0  0  0
    7.2021  -14.7667   25.6506 C   0  0  0  0  0  0  0  0  0  0  0  0
    7.0565  -13.3340   25.9941 C   0  0  0  0  0  0  0  0  0  0  0  0
    5.7867  -12.8409   26.2045 C   0  0  0  0  0  0  0  0  0  0  0  0
    5.5491  -11.5190   26.5277 C   0  0  0  0  0  0  0  0  0  0  0  0
    6.6006  -10.6415   26.6502 C   0  0  0  0  0  0  0  0  0  0  0  0
    7.8758  -11.1149   26.4439 C   0  0  0  0  0  0  0  0  0  0  0  0
    8.1117  -12.4551   26.1166 C   0  0  0  0  0  0  0  0  0  0  0  0
    8.7498  -16.3096   24.6441 C   0  0  0  0  0  0  0  0  0  0  0  0
    8.0551  -17.3684   24.4727 O   0  0  0  0  0  0  0  0  0  0  0  0
   10.0884  -16.4860   24.9942 N   0  0  0  0  0  0  0  0  0  0  0  0
   10.7116  -17.8185   25.1506 C   0  0  1  0  0  0  0  0  0  0  0  0
   12.1820  -17.7158   24.8324 C   0  0  0  0  0  0  0  0  0  0  0  0
   12.4358  -17.3216   23.4337 C   0  0  0  0  0  0  0  0  0  0  0  0
   11.5681  -17.5932   22.3672 C   0  0  0  0  0  0  0  0  0  0  0  0
   12.1123  -17.0939   21.2480 N   0  0  0  0  0  0  0  0  0  0  0  0
   13.2883  -16.5155   21.5506 C   0  0  0  0  0  0  0  0  0  0  0  0
   13.4623  -16.6653   22.8745 N   0  0  0  0  0  0  0  0  0  0  0  0
   10.5564  -18.1279   26.5804 C   0  0  0  0  0  0  0  0  0  0  0  0
   11.0147  -19.3156   27.1011 O   0  0  0  0  0  0  0  0  0  0  0  0
   10.0094  -17.3299   27.3567 O   0  0  0  0  0  0  0  0  0  0  0  0
  2  1  1  6
  2  5  1  0
  3  2  1  0
  4  3  1  0
  5  7  1  0
  5  6  2  0
  7  8  1  0
  8 16  1  0
  8  9  1  1
 10  9  1  0
 10 15  1  0
 11 10  2  0
 12 11  1  0
 12 13  2  0
 13 14  1  0
 15 14  2  0
 16 17  2  0
 18 19  1  0
 18 16  1  0
 19 20  1  1
 21 20  1  0
 22 21  2  0
 23 24  1  0
 23 22  1  0
 24 25  2  0
 25 21  1  0
 26 19  1  0
 26 27  1  0
 28 26  2  0
M  END
$$$$
