CFH.pdb
     RDKit          3D

 28 29  0  0  1  0  0  0  0  0999 V2000
   10.0273  -15.7975   18.9877 N   0  0  0  0  0  0  0  0  0  0  0  0
    8.8171  -15.9973   19.7306 C   0  0  1  0  0  0  0  0  0  0  0  0
    8.4775  -17.4711   19.7227 C   0  0  0  0  0  0  0  0  0  0  0  0
    6.9411  -17.7733   20.6259 S   0  0  0  0  0  0  0  0  0  0  0  0
    8.9975  -15.5935   21.1464 C   0  0  0  0  0  0  0  0  0  0  0  0
   10.1093  -15.7627   21.6758 O   0  0  0  0  0  0  0  0  0  0  0  0
    7.9552  -15.0285   21.9036 N   0  0  0  0  0  0  0  0  0  0  0  0
    8.1102  -14.5346   23.2466 C   0  0  1  0  0  0  0  0  0  0  0  0
    6.9177  -13.7758   23.7445 C   0  0  0  0  0  0  0  0  0  0  0  0
    7.0701  -13.2645   25.1255 C   0  0  0  0  0  0  0  0  0  0  0  0
    6.2801  -13.8125   26.1133 C   0  0  0  0  0  0  0  0  0  0  0  0
    6.3483  -13.4011   27.4302 C   0  0  0  0  0  0  0  0  0  0  0  0
    7.2282  -12.4099   27.7963 C   0  0  0  0  0  0  0  0  0  0  0  0
    8.0253  -11.8505   26.8244 C   0  0  0  0  0  0  0  0  0  0  0  0
    7.9528  -12.2705   25.4913 C   0  0  0  0  0  0  0  0  0  0  0  0
    8.3848  -15.6296   24.1918 C   0  0  0  0  0  0  0  0  0  0  0  0
    7.4579  -16.4882   24.3833 O   0  0  0  0  0  0  0  0  0  0  0  0
    9.5710  -15.8164   24.9015 N   0  0  0  0  0  0  0  0  0  0  0  0
    9.7671  -16.9199   25.8671 C   0  0  1  0  0  0  0  0  0  0  0  0
   11.1075  -17.5633   25.6154 C   0  0  0  0  0  0  0  0  0  0  0  0
   11.0705  -18.5441   24.5141 C   0  0  0  0  0  0  0  0  0  0  0  0
    9.9118  -18.8950   23.8081 C   0  0  0  0  0  0  0  0  0  0  0  0
   10.2457  -19.8074   22.8839 N   0  0  0  0  0  0  0  0  0  0  0  0
   11.5650  -20.0557   22.9671 C   0  0  0  0  0  0  0  0  0  0  0  0
   12.0412  -19.2823   23.9573 N   0  0  0  0  0  0  0  0  0  0  0  0
    9.7992  -16.2548   27.1789 C   0  0  0  0  0  0  0  0  0  0  0  0
    9.8387  -16.9871   28.3425 O   0  0  0  0  0  0  0  0  0  0  0  0
    9.7916  -15.0182   27.2748 O   0  0  0  0  0  0  0  0  0  0  0  0
  2  1  1  6
  2  5  1  0
  3  2  1  0
  4  3  1  0
  5  7  1  0
  5  6  2  0
  7  8  1  0
  8 16  1  0
  8  9  1  1
 10  9  1  0
 10 15  1  0
 11 10  2  0
 12 11  1  0
 12 13  2  0
 13 14  1  0
 15 14  2  0
 16 17  2  0
 18 19  1  0
 18 16  1  0
 19 20  1  6
 21 20  1  0
 22 21  2  0
 23 24  1  0
 23 22  1  0
 24 25  2  0
 25 21  1  0
 26 19  1  0
 26 27  1  0
 28 26  2  0
M  END
$$$$
