CDC.pdb
     RDKit          3D

 21 20  0  0  1  0  0  0  0  0999 V2000
   21.2576  -15.2802  -17.6705 N   0  0  0  0  0  0  0  0  0  0  0  0
   20.6453  -14.0803  -18.1347 C   0  0  1  0  0  0  0  0  0  0  0  0
   19.1555  -14.0648  -17.8223 C   0  0  0  0  0  0  0  0  0  0  0  0
   18.3664  -15.5195  -18.5265 S   0  0  0  0  0  0  0  0  0  0  0  0
   21.2108  -12.8390  -17.5426 C   0  0  0  0  0  0  0  0  0  0  0  0
   21.6511  -12.9441  -16.3602 O   0  0  0  0  0  0  0  0  0  0  0  0
   21.2761  -11.6161  -18.2012 N   0  0  0  0  0  0  0  0  0  0  0  0
   21.9334  -10.4077  -17.6019 C   0  0  1  0  0  0  0  0  0  0  0  0
   22.2804   -9.5193  -18.7522 C   0  0  0  0  0  0  0  0  0  0  0  0
   23.4617   -9.7715  -19.5321 C   0  0  0  0  0  0  0  0  0  0  0  0
   23.4826   -9.9990  -20.7512 O   0  0  0  0  0  0  0  0  0  0  0  0
   20.9047   -9.7876  -16.7225 C   0  0  0  0  0  0  0  0  0  0  0  0
   19.6960   -9.7574  -17.1558 O   0  0  0  0  0  0  0  0  0  0  0  0
   24.7523   -9.7770  -18.9213 O   0  0  0  0  0  0  0  0  0  0  0  0
   21.1056   -9.2301  -15.4545 N   0  0  0  0  0  0  0  0  0  0  0  0
   19.9658   -8.7350  -14.6783 C   0  0  1  0  0  0  0  0  0  0  0  0
   20.0060   -9.4267  -13.3219 C   0  0  0  0  0  0  0  0  0  0  0  0
   18.7533   -8.7155  -12.2190 S   0  0  0  0  0  0  0  0  0  0  0  0
   20.0319   -7.2737  -14.5637 C   0  0  0  0  0  0  0  0  0  0  0  0
   18.8549   -6.5481  -14.4667 O   0  0  0  0  0  0  0  0  0  0  0  0
   21.1144   -6.6387  -14.5492 O   0  0  0  0  0  0  0  0  0  0  0  0
  2  1  1  1
  2  3  1  0
  4  3  1  0
  5  2  1  0
  6  5  2  0
  7  5  1  0
  8 12  1  0
  8  7  1  0
  8  9  1  6
 10  9  1  0
 11 10  2  0
 12 15  1  0
 13 12  2  0
 14 10  1  0
 15 16  1  0
 16 17  1  1
 16 19  1  0
 17 18  1  0
 19 21  2  0
 19 20  1  0
M  END
$$$$
