CDC.pdb
     RDKit          3D

 21 20  0  0  1  0  0  0  0  0999 V2000
   16.2897  -12.2734  -14.9962 N   0  0  0  0  0  0  0  0  0  0  0  0
   15.8874  -10.9084  -14.9263 C   0  0  1  0  0  0  0  0  0  0  0  0
   14.4103  -10.7859  -14.5794 C   0  0  0  0  0  0  0  0  0  0  0  0
   13.4131  -11.5506  -15.8660 S   0  0  0  0  0  0  0  0  0  0  0  0
   16.6239  -10.1072  -13.9130 C   0  0  0  0  0  0  0  0  0  0  0  0
   16.9631  -10.7264  -12.8620 O   0  0  0  0  0  0  0  0  0  0  0  0
   16.9450   -8.7622  -14.0601 N   0  0  0  0  0  0  0  0  0  0  0  0
   17.7242   -7.9983  -13.0301 C   0  0  1  0  0  0  0  0  0  0  0  0
   18.4797   -6.9521  -13.7833 C   0  0  0  0  0  0  0  0  0  0  0  0
   19.2913   -5.9964  -13.0794 C   0  0  0  0  0  0  0  0  0  0  0  0
   19.3971   -5.9137  -11.8464 O   0  0  0  0  0  0  0  0  0  0  0  0
   16.7072   -7.3946  -12.1260 C   0  0  0  0  0  0  0  0  0  0  0  0
   15.6735   -6.8611  -12.6704 O   0  0  0  0  0  0  0  0  0  0  0  0
   20.0666   -5.0319  -13.7918 O   0  0  0  0  0  0  0  0  0  0  0  0
   16.7460   -7.3460  -10.7277 N   0  0  0  0  0  0  0  0  0  0  0  0
   15.7042   -6.6308   -9.9861 C   0  0  1  0  0  0  0  0  0  0  0  0
   15.5044   -7.3626   -8.6653 C   0  0  0  0  0  0  0  0  0  0  0  0
   14.3461   -6.4467   -7.6111 S   0  0  0  0  0  0  0  0  0  0  0  0
   16.0941   -5.2292   -9.7962 C   0  0  0  0  0  0  0  0  0  0  0  0
   17.4180   -4.8633   -9.9828 O   0  0  0  0  0  0  0  0  0  0  0  0
   15.2792   -4.3326   -9.4687 O   0  0  0  0  0  0  0  0  0  0  0  0
  2  1  1  1
  2  3  1  0
  4  3  1  0
  5  2  1  0
  6  5  2  0
  7  5  1  0
  8 12  1  0
  8  7  1  0
  8  9  1  6
 10  9  1  0
 11 10  2  0
 12 15  1  0
 13 12  2  0
 14 10  1  0
 15 16  1  0
 16 17  1  1
 16 19  1  0
 17 18  1  0
 19 21  2  0
 19 20  1  0
M  END
$$$$
