CDC.pdb
     RDKit          3D

 21 20  0  0  1  0  0  0  0  0999 V2000
   24.3694  -14.8388  -19.3564 N   0  0  0  0  0  0  0  0  0  0  0  0
   23.3060  -14.3545  -18.5412 C   0  0  1  0  0  0  0  0  0  0  0  0
   23.4750  -14.7964  -17.0943 C   0  0  0  0  0  0  0  0  0  0  0  0
   23.3904  -16.5898  -16.9874 S   0  0  0  0  0  0  0  0  0  0  0  0
   23.1842  -12.8727  -18.5155 C   0  0  0  0  0  0  0  0  0  0  0  0
   24.2669  -12.2290  -18.6434 O   0  0  0  0  0  0  0  0  0  0  0  0
   21.9836  -12.1878  -18.3635 N   0  0  0  0  0  0  0  0  0  0  0  0
   21.8936  -10.6907  -18.4120 C   0  0  1  0  0  0  0  0  0  0  0  0
   20.7792  -10.3794  -19.3573 C   0  0  0  0  0  0  0  0  0  0  0  0
   20.3620   -9.0188  -19.5630 C   0  0  0  0  0  0  0  0  0  0  0  0
   21.0906   -8.0205  -19.4586 O   0  0  0  0  0  0  0  0  0  0  0  0
   21.5682  -10.2646  -17.0231 C   0  0  0  0  0  0  0  0  0  0  0  0
   20.6152  -10.8816  -16.4226 O   0  0  0  0  0  0  0  0  0  0  0  0
   19.0128   -8.7147  -19.9181 O   0  0  0  0  0  0  0  0  0  0  0  0
   22.1957   -9.2562  -16.2825 N   0  0  0  0  0  0  0  0  0  0  0  0
   21.7468   -8.9543  -14.9209 C   0  0  1  0  0  0  0  0  0  0  0  0
   22.9891   -8.8582  -14.0447 C   0  0  0  0  0  0  0  0  0  0  0  0
   23.6241  -10.5169  -13.6746 S   0  0  0  0  0  0  0  0  0  0  0  0
   20.9595   -7.7162  -14.9136 C   0  0  0  0  0  0  0  0  0  0  0  0
   20.2030   -7.4014  -13.7956 O   0  0  0  0  0  0  0  0  0  0  0  0
   20.9354   -6.9173  -15.8812 O   0  0  0  0  0  0  0  0  0  0  0  0
  2  1  1  6
  2  3  1  0
  4  3  1  0
  5  2  1  0
  6  5  2  0
  7  5  1  0
  8 12  1  0
  8  7  1  0
  8  9  1  6
 10  9  1  0
 11 10  2  0
 12 15  1  0
 13 12  2  0
 14 10  1  0
 15 16  1  0
 16 17  1  1
 16 19  1  0
 17 18  1  0
 19 21  2  0
 19 20  1  0
M  END
$$$$
