CDC.pdb
     RDKit          3D

 21 20  0  0  1  0  0  0  0  0999 V2000
   17.8277  -11.8334  -17.5250 N   0  0  0  0  0  0  0  0  0  0  0  0
   17.9285  -11.8395  -16.1039 C   0  0  1  0  0  0  0  0  0  0  0  0
   18.7366  -13.0327  -15.6134 C   0  0  0  0  0  0  0  0  0  0  0  0
   17.9864  -14.5610  -16.1934 S   0  0  0  0  0  0  0  0  0  0  0  0
   18.5790  -10.6298  -15.5339 C   0  0  0  0  0  0  0  0  0  0  0  0
   18.6472  -10.5851  -14.2704 O   0  0  0  0  0  0  0  0  0  0  0  0
   19.0956   -9.5863  -16.2940 N   0  0  0  0  0  0  0  0  0  0  0  0
   19.6369   -8.3284  -15.6807 C   0  0  1  0  0  0  0  0  0  0  0  0
   20.9279   -8.0555  -16.3816 C   0  0  0  0  0  0  0  0  0  0  0  0
   21.6404   -6.8306  -16.1373 C   0  0  0  0  0  0  0  0  0  0  0  0
   21.9945   -6.0199  -17.0066 O   0  0  0  0  0  0  0  0  0  0  0  0
   18.6246   -7.2754  -15.9686 C   0  0  0  0  0  0  0  0  0  0  0  0
   18.1550   -7.2166  -17.1625 O   0  0  0  0  0  0  0  0  0  0  0  0
   22.0049   -6.4504  -14.8101 O   0  0  0  0  0  0  0  0  0  0  0  0
   18.1132   -6.3307  -15.0714 N   0  0  0  0  0  0  0  0  0  0  0  0
   17.1912   -5.2930  -15.5403 C   0  0  1  0  0  0  0  0  0  0  0  0
   15.9704   -5.3262  -14.6300 C   0  0  0  0  0  0  0  0  0  0  0  0
   15.1390   -3.7137  -14.6386 S   0  0  0  0  0  0  0  0  0  0  0  0
   17.8589   -3.9865  -15.5340 C   0  0  0  0  0  0  0  0  0  0  0  0
   17.5283   -3.0524  -16.5033 O   0  0  0  0  0  0  0  0  0  0  0  0
   18.7259   -3.6674  -14.6845 O   0  0  0  0  0  0  0  0  0  0  0  0
  2  1  1  6
  2  3  1  0
  4  3  1  0
  5  2  1  0
  6  5  2  0
  7  5  1  0
  8 12  1  0
  8  7  1  0
  8  9  1  6
 10  9  1  0
 11 10  2  0
 12 15  1  0
 13 12  2  0
 14 10  1  0
 15 16  1  0
 16 17  1  1
 16 19  1  0
 17 18  1  0
 19 21  2  0
 19 20  1  0
M  END
$$$$
