CDC.pdb
     RDKit          3D

 21 20  0  0  1  0  0  0  0  0999 V2000
   15.3037  -13.9900  -12.8557 N   0  0  0  0  0  0  0  0  0  0  0  0
   14.7198  -12.6929  -12.7747 C   0  0  1  0  0  0  0  0  0  0  0  0
   13.4653  -12.7057  -11.9125 C   0  0  0  0  0  0  0  0  0  0  0  0
   12.2247  -13.7778  -12.6514 S   0  0  0  0  0  0  0  0  0  0  0  0
   15.6155  -11.6564  -12.1963 C   0  0  0  0  0  0  0  0  0  0  0  0
   16.2782  -12.0084  -11.1765 O   0  0  0  0  0  0  0  0  0  0  0  0
   15.7539  -10.3690  -12.7033 N   0  0  0  0  0  0  0  0  0  0  0  0
   16.7519   -9.3882  -12.1615 C   0  0  1  0  0  0  0  0  0  0  0  0
   17.3112   -8.6764  -13.3502 C   0  0  0  0  0  0  0  0  0  0  0  0
   18.2813   -7.6292  -13.1778 C   0  0  0  0  0  0  0  0  0  0  0  0
   18.6946   -6.8781  -14.0740 O   0  0  0  0  0  0  0  0  0  0  0  0
   15.9739   -8.4671  -11.2882 C   0  0  0  0  0  0  0  0  0  0  0  0
   14.8556   -8.0262  -11.7406 O   0  0  0  0  0  0  0  0  0  0  0  0
   18.8610   -7.3748  -11.8979 O   0  0  0  0  0  0  0  0  0  0  0  0
   16.3240   -8.0240  -10.0075 N   0  0  0  0  0  0  0  0  0  0  0  0
   15.5067   -7.0157   -9.3278 C   0  0  1  0  0  0  0  0  0  0  0  0
   14.9800   -7.6478   -8.0460 C   0  0  0  0  0  0  0  0  0  0  0  0
   14.1165   -6.4058   -7.0443 S   0  0  0  0  0  0  0  0  0  0  0  0
   16.3042   -5.8111   -9.0713 C   0  0  0  0  0  0  0  0  0  0  0  0
   15.6746   -4.5767   -9.0376 O   0  0  0  0  0  0  0  0  0  0  0  0
   17.5440   -5.8419   -8.8787 O   0  0  0  0  0  0  0  0  0  0  0  0
  2  1  1  1
  2  3  1  0
  4  3  1  0
  5  2  1  0
  6  5  2  0
  7  5  1  0
  8 12  1  0
  8  7  1  0
  8  9  1  6
 10  9  1  0
 11 10  2  0
 12 15  1  0
 13 12  2  0
 14 10  1  0
 15 16  1  0
 16 17  1  1
 16 19  1  0
 17 18  1  0
 19 21  2  0
 19 20  1  0
M  END
$$$$
