CDC.pdb
     RDKit          3D

 21 20  0  0  1  0  0  0  0  0999 V2000
   18.8748  -16.1683  -17.1747 N   0  0  0  0  0  0  0  0  0  0  0  0
   18.8631  -15.2361  -16.0973 C   0  0  1  0  0  0  0  0  0  0  0  0
   19.8940  -15.6034  -15.0391 C   0  0  0  0  0  0  0  0  0  0  0  0
   19.3298  -17.0322  -14.1038 S   0  0  0  0  0  0  0  0  0  0  0  0
   19.1568  -13.8352  -16.5003 C   0  0  0  0  0  0  0  0  0  0  0  0
   19.9883  -13.6970  -17.4451 O   0  0  0  0  0  0  0  0  0  0  0  0
   18.5833  -12.7138  -15.9112 N   0  0  0  0  0  0  0  0  0  0  0  0
   18.8219  -11.3216  -16.4174 C   0  0  1  0  0  0  0  0  0  0  0  0
   17.4911  -10.6429  -16.3876 C   0  0  0  0  0  0  0  0  0  0  0  0
   17.3796   -9.2510  -16.7305 C   0  0  0  0  0  0  0  0  0  0  0  0
   16.5820   -8.4479  -16.2233 O   0  0  0  0  0  0  0  0  0  0  0  0
   19.7733  -10.7032  -15.4537 C   0  0  0  0  0  0  0  0  0  0  0  0
   19.4521  -10.7221  -14.2103 O   0  0  0  0  0  0  0  0  0  0  0  0
   18.2230   -8.6752  -17.7285 O   0  0  0  0  0  0  0  0  0  0  0  0
   21.0003  -10.0991  -15.7513 N   0  0  0  0  0  0  0  0  0  0  0  0
   21.7812   -9.4562  -14.6913 C   0  0  1  0  0  0  0  0  0  0  0  0
   23.2530   -9.6331  -15.0416 C   0  0  0  0  0  0  0  0  0  0  0  0
   23.7627  -11.3506  -14.7554 S   0  0  0  0  0  0  0  0  0  0  0  0
   21.4001   -8.0444  -14.5714 C   0  0  0  0  0  0  0  0  0  0  0  0
   21.5966   -7.3901  -13.3653 O   0  0  0  0  0  0  0  0  0  0  0  0
   20.8982   -7.3904  -15.5177 O   0  0  0  0  0  0  0  0  0  0  0  0
  2  1  1  6
  2  3  1  0
  4  3  1  0
  5  2  1  0
  6  5  2  0
  7  5  1  0
  8 12  1  0
  8  7  1  0
  8  9  1  1
 10  9  1  0
 11 10  2  0
 12 15  1  0
 13 12  2  0
 14 10  1  0
 15 16  1  0
 16 17  1  6
 16 19  1  0
 17 18  1  0
 19 21  2  0
 19 20  1  0
M  END
$$$$
