CDC.pdb
     RDKit          3D

 21 20  0  0  1  0  0  0  0  0999 V2000
   27.2759  -33.0999  -16.8987 N   0  0  0  0  0  0  0  0  0  0  0  0
   27.7079  -33.0963  -15.5410 C   0  0  1  0  0  0  0  0  0  0  0  0
   28.0832  -31.6931  -15.0854 C   0  0  0  0  0  0  0  0  0  0  0  0
   29.7528  -31.2993  -15.6257 S   0  0  0  0  0  0  0  0  0  0  0  0
   26.6906  -33.5922  -14.5765 C   0  0  0  0  0  0  0  0  0  0  0  0
   25.5012  -33.2128  -14.7872 O   0  0  0  0  0  0  0  0  0  0  0  0
   26.9734  -34.4209  -13.4963 N   0  0  0  0  0  0  0  0  0  0  0  0
   25.9054  -34.9792  -12.6024 C   0  0  1  0  0  0  0  0  0  0  0  0
   26.1320  -36.4557  -12.5688 C   0  0  0  0  0  0  0  0  0  0  0  0
   25.2432  -37.3087  -11.8272 C   0  0  0  0  0  0  0  0  0  0  0  0
   24.2465  -36.9302  -11.1936 O   0  0  0  0  0  0  0  0  0  0  0  0
   26.1361  -34.3596  -11.2685 C   0  0  0  0  0  0  0  0  0  0  0  0
   27.3378  -34.3606  -10.8153 O   0  0  0  0  0  0  0  0  0  0  0  0
   25.4633  -38.7184  -11.7696 O   0  0  0  0  0  0  0  0  0  0  0  0
   25.1792  -33.7612  -10.4407 N   0  0  0  0  0  0  0  0  0  0  0  0
   25.5824  -33.1461   -9.1735 C   0  0  1  0  0  0  0  0  0  0  0  0
   24.6700  -31.9490   -8.9400 C   0  0  0  0  0  0  0  0  0  0  0  0
   25.0319  -31.1901   -7.3323 S   0  0  0  0  0  0  0  0  0  0  0  0
   25.5030  -34.1307   -8.0886 C   0  0  0  0  0  0  0  0  0  0  0  0
   26.3944  -34.0457   -7.0305 O   0  0  0  0  0  0  0  0  0  0  0  0
   24.6580  -35.0584   -8.0696 O   0  0  0  0  0  0  0  0  0  0  0  0
  2  1  1  6
  2  3  1  0
  4  3  1  0
  5  2  1  0
  6  5  2  0
  7  5  1  0
  8 12  1  0
  8  7  1  0
  8  9  1  1
 10  9  1  0
 11 10  2  0
 12 15  1  0
 13 12  2  0
 14 10  1  0
 15 16  1  0
 16 17  1  1
 16 19  1  0
 17 18  1  0
 19 21  2  0
 19 20  1  0
M  END
$$$$
