HCI.pdb
     RDKit          3D

 25 25  0  0  1  0  0  0  0  0999 V2000
   28.2994  -22.8641  -18.2457 N   0  0  0  0  0  0  0  0  0  0  0  0
   27.7917  -23.1509  -16.9099 C   0  0  1  0  0  0  0  0  0  0  0  0
   28.6831  -24.1845  -16.2863 C   0  0  0  0  0  0  0  0  0  0  0  0
   28.3921  -25.5407  -16.7839 C   0  0  0  0  0  0  0  0  0  0  0  0
   27.2650  -26.3088  -16.7141 C   0  0  0  0  0  0  0  0  0  0  0  0
   27.5214  -27.4646  -17.3224 N   0  0  0  0  0  0  0  0  0  0  0  0
   28.7659  -27.4753  -17.7819 C   0  0  0  0  0  0  0  0  0  0  0  0
   29.3013  -26.2894  -17.4494 N   0  0  0  0  0  0  0  0  0  0  0  0
   27.7588  -21.9311  -16.0916 C   0  0  0  0  0  0  0  0  0  0  0  0
   28.7742  -21.1999  -15.9780 O   0  0  0  0  0  0  0  0  0  0  0  0
   26.5891  -21.5570  -15.4183 N   0  0  0  0  0  0  0  0  0  0  0  0
   26.4680  -20.5062  -14.4609 C   0  0  1  0  0  0  0  0  0  0  0  0
   26.0531  -19.1865  -15.0382 C   0  0  0  0  0  0  0  0  0  0  0  0
   26.1053  -17.9392  -13.7366 S   0  0  0  0  0  0  0  0  0  0  0  0
   25.5862  -20.9432  -13.3443 C   0  0  0  0  0  0  0  0  0  0  0  0
   24.5303  -21.5934  -13.5873 O   0  0  0  0  0  0  0  0  0  0  0  0
   26.0228  -19.2079   -7.7661 C   0  0  0  0  0  0  0  0  0  0  0  0
   25.3618  -19.4165   -9.1296 C   0  0  0  0  0  0  0  0  0  0  0  0
   25.5966  -20.8270   -9.6148 C   0  0  2  0  0  0  0  0  0  0  0  0
   27.0850  -21.0886   -9.5829 C   0  0  0  0  0  0  0  0  0  0  0  0
   24.9569  -21.1240  -10.9349 C   0  0  2  0  0  0  0  0  0  0  0  0
   25.8779  -20.6597  -11.9846 N   0  0  0  0  0  0  0  0  0  0  0  0
   23.6297  -20.4800  -11.1054 C   0  0  0  0  0  0  0  0  0  0  0  0
   23.4269  -19.4618  -12.0411 O   0  0  0  0  0  0  0  0  0  0  0  0
   22.6174  -20.7981  -10.4351 O   0  0  0  0  0  0  0  0  0  0  0  0
  2  1  1  6
  3  2  1  0
  4  3  1  0
  5  4  2  0
  6  5  1  0
  6  7  1  0
  7  8  2  0
  8  4  1  0
  9 10  2  0
  9  2  1  0
 11  9  1  0
 12 11  1  0
 13 14  1  0
 12 13  1  6
 15 12  1  0
 15 22  1  0
 16 15  2  0
 18 17  1  0
 19 18  1  0
 19 20  1  6
 21 19  1  0
 21 22  1  6
 21 23  1  0
 23 24  1  0
 25 23  2  0
M  END
$$$$
