HCI.pdb
     RDKit          3D

 25 25  0  0  1  0  0  0  0  0999 V2000
   27.0735  -18.8153  -20.1083 N   0  0  0  0  0  0  0  0  0  0  0  0
   25.9492  -18.9154  -19.1862 C   0  0  1  0  0  0  0  0  0  0  0  0
   25.2092  -20.1845  -19.4921 C   0  0  0  0  0  0  0  0  0  0  0  0
   24.2363  -20.0095  -20.5850 C   0  0  0  0  0  0  0  0  0  0  0  0
   23.9815  -20.7567  -21.6994 C   0  0  0  0  0  0  0  0  0  0  0  0
   22.9972  -20.1639  -22.3711 N   0  0  0  0  0  0  0  0  0  0  0  0
   22.6057  -19.0659  -21.7378 C   0  0  0  0  0  0  0  0  0  0  0  0
   23.3700  -18.9719  -20.6376 N   0  0  0  0  0  0  0  0  0  0  0  0
   26.4152  -18.9086  -17.7929 C   0  0  0  0  0  0  0  0  0  0  0  0
   27.5394  -19.3767  -17.4837 O   0  0  0  0  0  0  0  0  0  0  0  0
   25.6117  -18.3775  -16.7761 N   0  0  0  0  0  0  0  0  0  0  0  0
   25.9674  -18.2529  -15.4002 C   0  0  1  0  0  0  0  0  0  0  0  0
   25.7055  -16.8991  -14.8123 C   0  0  0  0  0  0  0  0  0  0  0  0
   27.2127  -15.9149  -14.9222 S   0  0  0  0  0  0  0  0  0  0  0  0
   25.3333  -19.3479  -14.6162 C   0  0  0  0  0  0  0  0  0  0  0  0
   24.3969  -20.0294  -15.1216 O   0  0  0  0  0  0  0  0  0  0  0  0
   26.0542  -22.3733   -9.2411 C   0  0  0  0  0  0  0  0  0  0  0  0
   25.1535  -22.0707  -10.4398 C   0  0  0  0  0  0  0  0  0  0  0  0
   25.7750  -21.0000  -11.3042 C   0  0  2  0  0  0  0  0  0  0  0  0
   26.0367  -19.7924  -10.4335 C   0  0  0  0  0  0  0  0  0  0  0  0
   24.9916  -20.6961  -12.5429 C   0  0  2  0  0  0  0  0  0  0  0  0
   25.7370  -19.6745  -13.2954 N   0  0  0  0  0  0  0  0  0  0  0  0
   23.6139  -20.2159  -12.2664 C   0  0  0  0  0  0  0  0  0  0  0  0
   22.5713  -21.1060  -11.9938 O   0  0  0  0  0  0  0  0  0  0  0  0
   23.2951  -19.0020  -12.2581 O   0  0  0  0  0  0  0  0  0  0  0  0
  2  1  1  6
  3  2  1  0
  4  3  1  0
  5  4  2  0
  6  5  1  0
  6  7  1  0
  7  8  2  0
  8  4  1  0
  9 10  2  0
  9  2  1  0
 11  9  1  0
 12 11  1  0
 13 14  1  0
 12 13  1  1
 15 12  1  0
 15 22  1  0
 16 15  2  0
 18 17  1  0
 19 18  1  0
 19 20  1  1
 21 19  1  0
 21 22  1  1
 21 23  1  0
 23 24  1  0
 25 23  2  0
M  END
$$$$
