HCI.pdb
     RDKit          3D

 25 25  0  0  1  0  0  0  0  0999 V2000
   20.3060  -14.4435  -18.4513 N   0  0  0  0  0  0  0  0  0  0  0  0
   19.3965  -13.3199  -18.2656 C   0  0  1  0  0  0  0  0  0  0  0  0
   18.4554  -13.6639  -17.1485 C   0  0  0  0  0  0  0  0  0  0  0  0
   17.5778  -14.7968  -17.4918 C   0  0  0  0  0  0  0  0  0  0  0  0
   16.6613  -14.9626  -18.4908 C   0  0  0  0  0  0  0  0  0  0  0  0
   16.1333  -16.1775  -18.3618 N   0  0  0  0  0  0  0  0  0  0  0  0
   16.6698  -16.8031  -17.3222 C   0  0  0  0  0  0  0  0  0  0  0  0
   17.5596  -15.9513  -16.7871 N   0  0  0  0  0  0  0  0  0  0  0  0
   20.1413  -12.0914  -17.9578 C   0  0  0  0  0  0  0  0  0  0  0  0
   21.0249  -12.0764  -17.0647 O   0  0  0  0  0  0  0  0  0  0  0  0
   19.8799  -10.9065  -18.6571 N   0  0  0  0  0  0  0  0  0  0  0  0
   20.5836   -9.6734  -18.5170 C   0  0  1  0  0  0  0  0  0  0  0  0
   20.4657   -8.7550  -19.6959 C   0  0  0  0  0  0  0  0  0  0  0  0
   21.1890   -9.5620  -21.1374 S   0  0  0  0  0  0  0  0  0  0  0  0
   20.1945   -9.0153  -17.2398 C   0  0  0  0  0  0  0  0  0  0  0  0
   19.0109   -9.1166  -16.8092 O   0  0  0  0  0  0  0  0  0  0  0  0
   19.7248   -9.0883  -12.0467 C   0  0  0  0  0  0  0  0  0  0  0  0
   20.7214   -8.1358  -12.7092 C   0  0  0  0  0  0  0  0  0  0  0  0
   21.0679   -8.6225  -14.0959 C   0  0  2  0  0  0  0  0  0  0  0  0
   22.5364   -8.9800  -14.1104 C   0  0  0  0  0  0  0  0  0  0  0  0
   20.6629   -7.6780  -15.1842 C   0  0  2  0  0  0  0  0  0  0  0  0
   21.1088   -8.2599  -16.4603 N   0  0  0  0  0  0  0  0  0  0  0  0
   21.2307   -6.3152  -15.0239 C   0  0  0  0  0  0  0  0  0  0  0  0
   22.3003   -5.8730  -15.8073 O   0  0  0  0  0  0  0  0  0  0  0  0
   20.7989   -5.4817  -14.1908 O   0  0  0  0  0  0  0  0  0  0  0  0
  2  1  1  1
  3  2  1  0
  4  3  1  0
  5  4  2  0
  6  5  1  0
  6  7  1  0
  7  8  2  0
  8  4  1  0
  9 10  2  0
  9  2  1  0
 11  9  1  0
 12 11  1  0
 13 14  1  0
 12 13  1  6
 15 12  1  0
 15 22  1  0
 16 15  2  0
 18 17  1  0
 19 18  1  0
 19 20  1  1
 21 19  1  0
 21 22  1  6
 21 23  1  0
 23 24  1  0
 25 23  2  0
M  END
$$$$
