HCI.pdb
     RDKit          3D

 25 25  0  0  1  0  0  0  0  0999 V2000
   23.1966  -19.4327  -17.5097 N   0  0  0  0  0  0  0  0  0  0  0  0
   23.3372  -18.0922  -16.9550 C   0  0  1  0  0  0  0  0  0  0  0  0
   22.2632  -17.2288  -17.5492 C   0  0  0  0  0  0  0  0  0  0  0  0
   22.3009  -17.2319  -19.0223 C   0  0  0  0  0  0  0  0  0  0  0  0
   21.5351  -17.8831  -19.9468 C   0  0  0  0  0  0  0  0  0  0  0  0
   21.9799  -17.5454  -21.1549 N   0  0  0  0  0  0  0  0  0  0  0  0
   23.0001  -16.7039  -21.0498 C   0  0  0  0  0  0  0  0  0  0  0  0
   23.1969  -16.5116  -19.7353 N   0  0  0  0  0  0  0  0  0  0  0  0
   23.2301  -18.1202  -15.4899 C   0  0  0  0  0  0  0  0  0  0  0  0
   23.2004  -17.0562  -14.8223 O   0  0  0  0  0  0  0  0  0  0  0  0
   23.1587  -19.3395  -14.8046 N   0  0  0  0  0  0  0  0  0  0  0  0
   23.0237  -19.5060  -13.3942 C   0  0  1  0  0  0  0  0  0  0  0  0
   21.8042  -20.2699  -12.9741 C   0  0  0  0  0  0  0  0  0  0  0  0
   20.3461  -19.4658  -13.6668 S   0  0  0  0  0  0  0  0  0  0  0  0
   24.2776  -20.0798  -12.8337 C   0  0  0  0  0  0  0  0  0  0  0  0
   25.0585  -20.7417  -13.5745 O   0  0  0  0  0  0  0  0  0  0  0  0
   28.3662  -19.3328   -8.3634 C   0  0  0  0  0  0  0  0  0  0  0  0
   27.7301  -20.3306   -9.3325 C   0  0  0  0  0  0  0  0  0  0  0  0
   26.4724  -19.7486   -9.9323 C   0  0  2  0  0  0  0  0  0  0  0  0
   25.5527  -19.3593   -8.7977 C   0  0  0  0  0  0  0  0  0  0  0  0
   25.8308  -20.6298  -10.9579 C   0  0  2  0  0  0  0  0  0  0  0  0
   24.6511  -19.9173  -11.4742 N   0  0  0  0  0  0  0  0  0  0  0  0
   25.4280  -21.9567  -10.4266 C   0  0  0  0  0  0  0  0  0  0  0  0
   24.0835  -22.2941  -10.2479 O   0  0  0  0  0  0  0  0  0  0  0  0
   26.2494  -22.8503  -10.1073 O   0  0  0  0  0  0  0  0  0  0  0  0
  2  1  1  6
  3  2  1  0
  4  3  1  0
  5  4  2  0
  6  5  1  0
  6  7  1  0
  7  8  2  0
  8  4  1  0
  9 10  2  0
  9  2  1  0
 11  9  1  0
 12 11  1  0
 13 14  1  0
 12 13  1  6
 15 12  1  0
 15 22  1  0
 16 15  2  0
 18 17  1  0
 19 18  1  0
 19 20  1  1
 21 19  1  0
 21 22  1  1
 21 23  1  0
 23 24  1  0
 25 23  2  0
M  END
$$$$
