HCI.pdb
     RDKit          3D

 25 25  0  0  1  0  0  0  0  0999 V2000
   28.1459  -20.8630  -15.8277 N   0  0  0  0  0  0  0  0  0  0  0  0
   27.3448  -20.0675  -14.9059 C   0  0  1  0  0  0  0  0  0  0  0  0
   26.6316  -19.0134  -15.7011 C   0  0  0  0  0  0  0  0  0  0  0  0
   27.5668  -18.0539  -16.3144 C   0  0  0  0  0  0  0  0  0  0  0  0
   28.0822  -17.9715  -17.5764 C   0  0  0  0  0  0  0  0  0  0  0  0
   28.8867  -16.9121  -17.6197 N   0  0  0  0  0  0  0  0  0  0  0  0
   28.9126  -16.3070  -16.4394 C   0  0  0  0  0  0  0  0  0  0  0  0
   28.0990  -17.0115  -15.6361 N   0  0  0  0  0  0  0  0  0  0  0  0
   26.3839  -20.9141  -14.1858 C   0  0  0  0  0  0  0  0  0  0  0  0
   25.8156  -21.8784  -14.7565 O   0  0  0  0  0  0  0  0  0  0  0  0
   26.0805  -20.6620  -12.8420 N   0  0  0  0  0  0  0  0  0  0  0  0
   25.0965  -21.3368  -12.0600 C   0  0  1  0  0  0  0  0  0  0  0  0
   25.3692  -21.3368  -10.5859 C   0  0  0  0  0  0  0  0  0  0  0  0
   24.8762  -19.7423   -9.9025 S   0  0  0  0  0  0  0  0  0  0  0  0
   23.7443  -20.8096  -12.3901 C   0  0  0  0  0  0  0  0  0  0  0  0
   23.5859  -19.5807  -12.6382 O   0  0  0  0  0  0  0  0  0  0  0  0
   19.3264  -21.5363  -16.0686 C   0  0  0  0  0  0  0  0  0  0  0  0
   19.6002  -21.0194  -14.6553 C   0  0  0  0  0  0  0  0  0  0  0  0
   20.9231  -21.5458  -14.1525 C   0  0  2  0  0  0  0  0  0  0  0  0
   20.8980  -23.0528  -14.2665 C   0  0  0  0  0  0  0  0  0  0  0  0
   21.2913  -21.0467  -12.7904 C   0  0  2  0  0  0  0  0  0  0  0  0
   22.5931  -21.6381  -12.4421 N   0  0  0  0  0  0  0  0  0  0  0  0
   20.2881  -21.3823  -11.7482 C   0  0  0  0  0  0  0  0  0  0  0  0
   19.0506  -20.7353  -11.6906 O   0  0  0  0  0  0  0  0  0  0  0  0
   20.4769  -22.2527  -10.8638 O   0  0  0  0  0  0  0  0  0  0  0  0
  2  1  1  6
  3  2  1  0
  4  3  1  0
  5  4  2  0
  6  5  1  0
  6  7  1  0
  7  8  2  0
  8  4  1  0
  9 10  2  0
  9  2  1  0
 11  9  1  0
 12 11  1  0
 13 14  1  0
 12 13  1  1
 15 12  1  0
 15 22  1  0
 16 15  2  0
 18 17  1  0
 19 18  1  0
 19 20  1  1
 21 19  1  0
 21 22  1  1
 21 23  1  0
 23 24  1  0
 25 23  2  0
M  END
$$$$
