HCI.pdb
     RDKit          3D

 25 25  0  0  1  0  0  0  0  0999 V2000
   18.8932  -14.4649  -15.7960 N   0  0  0  0  0  0  0  0  0  0  0  0
   18.3846  -13.2333  -16.3867 C   0  0  1  0  0  0  0  0  0  0  0  0
   16.8915  -13.2282  -16.2365 C   0  0  0  0  0  0  0  0  0  0  0  0
   16.2581  -14.3476  -16.9557 C   0  0  0  0  0  0  0  0  0  0  0  0
   15.3631  -15.2955  -16.5484 C   0  0  0  0  0  0  0  0  0  0  0  0
   15.1043  -16.0849  -17.5882 N   0  0  0  0  0  0  0  0  0  0  0  0
   15.7939  -15.6872  -18.6493 C   0  0  0  0  0  0  0  0  0  0  0  0
   16.5044  -14.6167  -18.2583 N   0  0  0  0  0  0  0  0  0  0  0  0
   18.9766  -12.0582  -15.7332 C   0  0  0  0  0  0  0  0  0  0  0  0
   18.6427  -11.7285  -14.5677 O   0  0  0  0  0  0  0  0  0  0  0  0
   19.9299  -11.2779  -16.3995 N   0  0  0  0  0  0  0  0  0  0  0  0
   20.6532  -10.1790  -15.8476 C   0  0  1  0  0  0  0  0  0  0  0  0
   22.1434  -10.3022  -15.9530 C   0  0  0  0  0  0  0  0  0  0  0  0
   22.7030  -11.5884  -14.8194 S   0  0  0  0  0  0  0  0  0  0  0  0
   20.1440   -8.9035  -16.4218 C   0  0  0  0  0  0  0  0  0  0  0  0
   20.0456   -8.7664  -17.6741 O   0  0  0  0  0  0  0  0  0  0  0  0
   15.5580   -6.8296  -16.0693 C   0  0  0  0  0  0  0  0  0  0  0  0
   16.9602   -7.0625  -16.6340 C   0  0  0  0  0  0  0  0  0  0  0  0
   17.9718   -6.2302  -15.8830 C   0  0  2  0  0  0  0  0  0  0  0  0
   17.5901   -4.7766  -16.0439 C   0  0  0  0  0  0  0  0  0  0  0  0
   19.3910   -6.5291  -16.2527 C   0  0  2  0  0  0  0  0  0  0  0  0
   19.7530   -7.8043  -15.6136 N   0  0  0  0  0  0  0  0  0  0  0  0
   20.3441   -5.4678  -15.8398 C   0  0  0  0  0  0  0  0  0  0  0  0
   20.6673   -4.4059  -16.6891 O   0  0  0  0  0  0  0  0  0  0  0  0
   20.9147   -5.4499  -14.7221 O   0  0  0  0  0  0  0  0  0  0  0  0
  2  1  1  1
  3  2  1  0
  4  3  1  0
  5  4  2  0
  6  5  1  0
  6  7  1  0
  7  8  2  0
  8  4  1  0
  9 10  2  0
  9  2  1  0
 11  9  1  0
 12 11  1  0
 13 14  1  0
 12 13  1  6
 15 12  1  0
 15 22  1  0
 16 15  2  0
 18 17  1  0
 19 18  1  0
 19 20  1  6
 21 19  1  0
 21 22  1  1
 21 23  1  0
 23 24  1  0
 25 23  2  0
M  END
$$$$
