HCI.pdb
     RDKit          3D

 25 25  0  0  1  0  0  0  0  0999 V2000
   22.6389  -16.7254  -16.7660 N   0  0  0  0  0  0  0  0  0  0  0  0
   22.0047  -15.4687  -17.1441 C   0  0  1  0  0  0  0  0  0  0  0  0
   20.6363  -15.7805  -17.6751 C   0  0  0  0  0  0  0  0  0  0  0  0
   20.6858  -16.6795  -18.8418 C   0  0  0  0  0  0  0  0  0  0  0  0
   20.0775  -17.8770  -19.0892 C   0  0  0  0  0  0  0  0  0  0  0  0
   20.4531  -18.2823  -20.3000 N   0  0  0  0  0  0  0  0  0  0  0  0
   21.2780  -17.3975  -20.8447 C   0  0  0  0  0  0  0  0  0  0  0  0
   21.4205  -16.4105  -19.9453 N   0  0  0  0  0  0  0  0  0  0  0  0
   21.9207  -14.5598  -15.9928 C   0  0  0  0  0  0  0  0  0  0  0  0
   21.5929  -14.9831  -14.8562 O   0  0  0  0  0  0  0  0  0  0  0  0
   22.2057  -13.1965  -16.1399 N   0  0  0  0  0  0  0  0  0  0  0  0
   22.2425  -12.2264  -15.0946 C   0  0  1  0  0  0  0  0  0  0  0  0
   23.5016  -12.2389  -14.2813 C   0  0  0  0  0  0  0  0  0  0  0  0
   24.9062  -11.9619  -15.3782 S   0  0  0  0  0  0  0  0  0  0  0  0
   21.9341  -10.8795  -15.6481 C   0  0  0  0  0  0  0  0  0  0  0  0
   22.4650  -10.5022  -16.7309 O   0  0  0  0  0  0  0  0  0  0  0  0
   17.2338   -9.0486  -16.6624 C   0  0  0  0  0  0  0  0  0  0  0  0
   18.7529   -9.2121  -16.7346 C   0  0  0  0  0  0  0  0  0  0  0  0
   19.4217   -8.3584  -15.6840 C   0  0  2  0  0  0  0  0  0  0  0  0
   19.0755   -6.9146  -15.9676 C   0  0  0  0  0  0  0  0  0  0  0  0
   20.8899   -8.6140  -15.5456 C   0  0  2  0  0  0  0  0  0  0  0  0
   21.0510   -9.9733  -15.0053 N   0  0  0  0  0  0  0  0  0  0  0  0
   21.5787   -7.6353  -14.6663 C   0  0  0  0  0  0  0  0  0  0  0  0
   22.1783   -6.4840  -15.1843 O   0  0  0  0  0  0  0  0  0  0  0  0
   21.6689   -7.7702  -13.4218 O   0  0  0  0  0  0  0  0  0  0  0  0
  2  1  1  1
  3  2  1  0
  4  3  1  0
  5  4  2  0
  6  5  1  0
  6  7  1  0
  7  8  2  0
  8  4  1  0
  9 10  2  0
  9  2  1  0
 11  9  1  0
 12 11  1  0
 13 14  1  0
 12 13  1  6
 15 12  1  0
 15 22  1  0
 16 15  2  0
 18 17  1  0
 19 18  1  0
 19 20  1  6
 21 19  1  0
 21 22  1  1
 21 23  1  0
 23 24  1  0
 25 23  2  0
M  END
$$$$
