HCI.pdb
     RDKit          3D

 25 25  0  0  1  0  0  0  0  0999 V2000
   29.1462  -24.6152  -16.9574 N   0  0  0  0  0  0  0  0  0  0  0  0
   27.8582  -24.0382  -17.3214 C   0  0  1  0  0  0  0  0  0  0  0  0
   26.8258  -25.1249  -17.2509 C   0  0  0  0  0  0  0  0  0  0  0  0
   27.4294  -26.4488  -17.0172 C   0  0  0  0  0  0  0  0  0  0  0  0
   27.5197  -27.2175  -15.8919 C   0  0  0  0  0  0  0  0  0  0  0  0
   28.1659  -28.3358  -16.2132 N   0  0  0  0  0  0  0  0  0  0  0  0
   28.4967  -28.3218  -17.4978 C   0  0  0  0  0  0  0  0  0  0  0  0
   28.0424  -27.1587  -17.9920 N   0  0  0  0  0  0  0  0  0  0  0  0
   27.5095  -22.9309  -16.4209 C   0  0  0  0  0  0  0  0  0  0  0  0
   28.0863  -22.7907  -15.3135 O   0  0  0  0  0  0  0  0  0  0  0  0
   26.5222  -22.0049  -16.7804 N   0  0  0  0  0  0  0  0  0  0  0  0
   26.1748  -20.8227  -16.0614 C   0  0  1  0  0  0  0  0  0  0  0  0
   25.6841  -19.6965  -16.9205 C   0  0  0  0  0  0  0  0  0  0  0  0
   24.4944  -18.7215  -15.9789 S   0  0  0  0  0  0  0  0  0  0  0  0
   25.2247  -21.1613  -14.9669 C   0  0  0  0  0  0  0  0  0  0  0  0
   24.2877  -21.9839  -15.1724 O   0  0  0  0  0  0  0  0  0  0  0  0
   26.7442  -20.8919   -9.6602 C   0  0  0  0  0  0  0  0  0  0  0  0
   26.1179  -21.4184  -10.9525 C   0  0  0  0  0  0  0  0  0  0  0  0
   24.9005  -20.6017  -11.3146 C   0  0  2  0  0  0  0  0  0  0  0  0
   23.9150  -20.7039  -10.1730 C   0  0  0  0  0  0  0  0  0  0  0  0
   24.3193  -20.9468  -12.6500 C   0  0  2  0  0  0  0  0  0  0  0  0
   25.3195  -20.5930  -13.6699 N   0  0  0  0  0  0  0  0  0  0  0  0
   23.0390  -20.2500  -12.9339 C   0  0  0  0  0  0  0  0  0  0  0  0
   21.8084  -20.8971  -12.7917 O   0  0  0  0  0  0  0  0  0  0  0  0
   22.9731  -19.0556  -13.3138 O   0  0  0  0  0  0  0  0  0  0  0  0
  2  1  1  1
  3  2  1  0
  4  3  1  0
  5  4  2  0
  6  5  1  0
  6  7  1  0
  7  8  2  0
  8  4  1  0
  9 10  2  0
  9  2  1  0
 11  9  1  0
 12 11  1  0
 13 14  1  0
 12 13  1  6
 15 12  1  0
 15 22  1  0
 16 15  2  0
 18 17  1  0
 19 18  1  0
 19 20  1  1
 21 19  1  0
 21 22  1  6
 21 23  1  0
 23 24  1  0
 25 23  2  0
M  END
$$$$
