HCI.pdb
     RDKit          3D

 25 25  0  0  1  0  0  0  0  0999 V2000
   18.0698  -10.9043  -14.7208 N   0  0  0  0  0  0  0  0  0  0  0  0
   17.0561   -9.9116  -14.3873 C   0  0  1  0  0  0  0  0  0  0  0  0
   15.7184  -10.5916  -14.3997 C   0  0  0  0  0  0  0  0  0  0  0  0
   15.3257  -11.0182  -15.7544 C   0  0  0  0  0  0  0  0  0  0  0  0
   15.0250  -12.2485  -16.2653 C   0  0  0  0  0  0  0  0  0  0  0  0
   14.7313  -12.0939  -17.5542 N   0  0  0  0  0  0  0  0  0  0  0  0
   14.8297  -10.8161  -17.8972 C   0  0  0  0  0  0  0  0  0  0  0  0
   15.1959  -10.1544  -16.7874 N   0  0  0  0  0  0  0  0  0  0  0  0
   17.3235   -9.3148  -13.0717 C   0  0  0  0  0  0  0  0  0  0  0  0
   17.2953  -10.0116  -12.0267 O   0  0  0  0  0  0  0  0  0  0  0  0
   17.6166   -7.9502  -12.9555 N   0  0  0  0  0  0  0  0  0  0  0  0
   18.0496   -7.2797  -11.7729 C   0  0  1  0  0  0  0  0  0  0  0  0
   19.2910   -6.4576  -11.9458 C   0  0  0  0  0  0  0  0  0  0  0  0
   20.7157   -7.5613  -12.0139 S   0  0  0  0  0  0  0  0  0  0  0  0
   16.9219   -6.4965  -11.1981 C   0  0  0  0  0  0  0  0  0  0  0  0
   16.1503   -5.8449  -11.9575 O   0  0  0  0  0  0  0  0  0  0  0  0
   13.2685   -8.1841   -7.8583 C   0  0  0  0  0  0  0  0  0  0  0  0
   14.0417   -7.4205   -8.9347 C   0  0  0  0  0  0  0  0  0  0  0  0
   14.7949   -6.2660   -8.3184 C   0  0  2  0  0  0  0  0  0  0  0  0
   13.7994   -5.4037   -7.5767 C   0  0  0  0  0  0  0  0  0  0  0  0
   15.6430   -5.5112   -9.2936 C   0  0  2  0  0  0  0  0  0  0  0  0
   16.6617   -6.4426   -9.8039 N   0  0  0  0  0  0  0  0  0  0  0  0
   16.2996   -4.3171   -8.7034 C   0  0  0  0  0  0  0  0  0  0  0  0
   15.7331   -3.0441   -8.8115 O   0  0  0  0  0  0  0  0  0  0  0  0
   17.3872   -4.3659   -8.0789 O   0  0  0  0  0  0  0  0  0  0  0  0
  2  1  1  1
  3  2  1  0
  4  3  1  0
  5  4  2  0
  6  5  1  0
  6  7  1  0
  7  8  2  0
  8  4  1  0
  9 10  2  0
  9  2  1  0
 11  9  1  0
 12 11  1  0
 13 14  1  0
 12 13  1  6
 15 12  1  0
 15 22  1  0
 16 15  2  0
 18 17  1  0
 19 18  1  0
 19 20  1  6
 21 19  1  0
 21 22  1  1
 21 23  1  0
 23 24  1  0
 25 23  2  0
M  END
$$$$
