HCI.pdb
     RDKit          3D

 25 25  0  0  1  0  0  0  0  0999 V2000
   22.0313  -12.5382  -19.4549 N   0  0  0  0  0  0  0  0  0  0  0  0
   22.3157  -11.1163  -19.3077 C   0  0  1  0  0  0  0  0  0  0  0  0
   21.6296  -10.3874  -20.4257 C   0  0  0  0  0  0  0  0  0  0  0  0
   22.1946  -10.7332  -21.7421 C   0  0  0  0  0  0  0  0  0  0  0  0
   21.6087  -11.1927  -22.8870 C   0  0  0  0  0  0  0  0  0  0  0  0
   22.5649  -11.3492  -23.7995 N   0  0  0  0  0  0  0  0  0  0  0  0
   23.7430  -11.0103  -23.2925 C   0  0  0  0  0  0  0  0  0  0  0  0
   23.5135  -10.6309  -22.0248 N   0  0  0  0  0  0  0  0  0  0  0  0
   21.8508  -10.6238  -18.0039 C   0  0  0  0  0  0  0  0  0  0  0  0
   20.6821  -10.8535  -17.6040 O   0  0  0  0  0  0  0  0  0  0  0  0
   22.7054   -9.8846  -17.1763 N   0  0  0  0  0  0  0  0  0  0  0  0
   22.4051   -9.4103  -15.8648 C   0  0  1  0  0  0  0  0  0  0  0  0
   23.0144  -10.2182  -14.7589 C   0  0  0  0  0  0  0  0  0  0  0  0
   22.6061   -9.4464  -13.1808 S   0  0  0  0  0  0  0  0  0  0  0  0
   22.7391   -7.9632  -15.7653 C   0  0  0  0  0  0  0  0  0  0  0  0
   23.8591   -7.5416  -16.1706 O   0  0  0  0  0  0  0  0  0  0  0  0
   20.8385   -2.6481  -17.1808 C   0  0  0  0  0  0  0  0  0  0  0  0
   21.6996   -3.3461  -16.1269 C   0  0  0  0  0  0  0  0  0  0  0  0
   21.4075   -4.8275  -16.1098 C   0  0  2  0  0  0  0  0  0  0  0  0
   19.9206   -5.0064  -15.9058 C   0  0  0  0  0  0  0  0  0  0  0  0
   22.2495   -5.5961  -15.1401 C   0  0  2  0  0  0  0  0  0  0  0  0
   21.8404   -7.0073  -15.2242 N   0  0  0  0  0  0  0  0  0  0  0  0
   22.1245   -5.1157  -13.7405 C   0  0  0  0  0  0  0  0  0  0  0  0
   22.7538   -3.9437  -13.3118 O   0  0  0  0  0  0  0  0  0  0  0  0
   21.4586   -5.7158  -12.8620 O   0  0  0  0  0  0  0  0  0  0  0  0
  2  1  1  6
  3  2  1  0
  4  3  1  0
  5  4  2  0
  6  5  1  0
  6  7  1  0
  7  8  2  0
  8  4  1  0
  9 10  2  0
  9  2  1  0
 11  9  1  0
 12 11  1  0
 13 14  1  0
 12 13  1  1
 15 12  1  0
 15 22  1  0
 16 15  2  0
 18 17  1  0
 19 18  1  0
 19 20  1  1
 21 19  1  0
 21 22  1  1
 21 23  1  0
 23 24  1  0
 25 23  2  0
M  END
$$$$
