HCI.pdb
     RDKit          3D

 25 25  0  0  1  0  0  0  0  0999 V2000
   23.1232  -21.4446  -16.1420 N   0  0  0  0  0  0  0  0  0  0  0  0
   23.5949  -20.3672  -15.2813 C   0  0  1  0  0  0  0  0  0  0  0  0
   22.3961  -19.6974  -14.6762 C   0  0  0  0  0  0  0  0  0  0  0  0
   21.6503  -18.8976  -15.6639 C   0  0  0  0  0  0  0  0  0  0  0  0
   20.3893  -19.0308  -16.1712 C   0  0  0  0  0  0  0  0  0  0  0  0
   20.1932  -18.0420  -17.0403 N   0  0  0  0  0  0  0  0  0  0  0  0
   21.2739  -17.2762  -17.1157 C   0  0  0  0  0  0  0  0  0  0  0  0
   22.1708  -17.8045  -16.2672 N   0  0  0  0  0  0  0  0  0  0  0  0
   24.4834  -20.8879  -14.2334 C   0  0  0  0  0  0  0  0  0  0  0  0
   24.0940  -21.7793  -13.4382 O   0  0  0  0  0  0  0  0  0  0  0  0
   25.7888  -20.3985  -14.0990 N   0  0  0  0  0  0  0  0  0  0  0  0
   26.7508  -20.8201  -13.1336 C   0  0  1  0  0  0  0  0  0  0  0  0
   28.1761  -20.5934  -13.5389 C   0  0  0  0  0  0  0  0  0  0  0  0
   28.6215  -21.8011  -14.8021 S   0  0  0  0  0  0  0  0  0  0  0  0
   26.4313  -20.2186  -11.8101 C   0  0  0  0  0  0  0  0  0  0  0  0
   26.0680  -19.0107  -11.7337 O   0  0  0  0  0  0  0  0  0  0  0  0
   22.4829  -20.6583   -9.1250 C   0  0  0  0  0  0  0  0  0  0  0  0
   23.8216  -20.1807   -9.6900 C   0  0  0  0  0  0  0  0  0  0  0  0
   24.9569  -20.6447   -8.8091 C   0  0  2  0  0  0  0  0  0  0  0  0
   24.6738  -20.1768   -7.3999 C   0  0  0  0  0  0  0  0  0  0  0  0
   26.3103  -20.2563   -9.3167 C   0  0  2  0  0  0  0  0  0  0  0  0
   26.5159  -20.9511  -10.5975 N   0  0  0  0  0  0  0  0  0  0  0  0
   27.4108  -20.5908   -8.3773 C   0  0  0  0  0  0  0  0  0  0  0  0
   27.7479  -19.7452   -7.3168 O   0  0  0  0  0  0  0  0  0  0  0  0
   28.1014  -21.6349   -8.4677 O   0  0  0  0  0  0  0  0  0  0  0  0
  2  1  1  6
  3  2  1  0
  4  3  1  0
  5  4  2  0
  6  5  1  0
  6  7  1  0
  7  8  2  0
  8  4  1  0
  9 10  2  0
  9  2  1  0
 11  9  1  0
 12 11  1  0
 13 14  1  0
 12 13  1  6
 15 12  1  0
 15 22  1  0
 16 15  2  0
 18 17  1  0
 19 18  1  0
 19 20  1  1
 21 19  1  0
 21 22  1  6
 21 23  1  0
 23 24  1  0
 25 23  2  0
M  END
$$$$
