EPC.pdb
     RDKit          3D

 23 23  0  0  1  0  0  0  0  0999 V2000
   10.4507  -15.3259   15.7375 N   0  0  0  0  0  0  0  0  0  0  0  0
    9.2806  -15.6077   16.5849 C   0  0  1  0  0  0  0  0  0  0  0  0
    9.0319  -17.0878   16.4771 C   0  0  0  0  0  0  0  0  0  0  0  0
    7.9471  -17.6117   17.3549 C   0  0  0  0  0  0  0  0  0  0  0  0
    7.7640  -19.0924   17.1163 C   0  0  0  0  0  0  0  0  0  0  0  0
    6.8252  -19.7176   17.6713 O   0  0  0  0  0  0  0  0  0  0  0  0
    9.6444  -15.2887   17.9835 C   0  0  0  0  0  0  0  0  0  0  0  0
   10.8208  -15.6218   18.3744 O   0  0  0  0  0  0  0  0  0  0  0  0
    8.6203  -19.7957   16.2851 O   0  0  0  0  0  0  0  0  0  0  0  0
    8.8206  -14.6512   18.9351 N   0  0  0  0  0  0  0  0  0  0  0  0
    7.4755  -14.2349   18.7102 C   0  0  0  0  0  0  0  0  0  0  0  0
    7.1064  -13.3744   19.8851 C   0  0  0  0  0  0  0  0  0  0  0  0
    8.4372  -13.0625   20.5670 C   0  0  0  0  0  0  0  0  0  0  0  0
    9.2202  -14.3275   20.2659 C   0  0  1  0  0  0  0  0  0  0  0  0
    8.8730  -15.3638   21.2656 C   0  0  0  0  0  0  0  0  0  0  0  0
    8.0751  -16.2873   20.9714 O   0  0  0  0  0  0  0  0  0  0  0  0
    9.4114  -15.3661   22.5760 N   0  0  0  0  0  0  0  0  0  0  0  0
   10.2612  -16.3819   23.1167 C   0  0  1  0  0  0  0  0  0  0  0  0
   11.5317  -16.3960   22.2594 C   0  0  0  0  0  0  0  0  0  0  0  0
   12.7239  -17.6022   22.8383 S   0  0  0  0  0  0  0  0  0  0  0  0
   10.6789  -16.1407   24.4990 C   0  0  0  0  0  0  0  0  0  0  0  0
   10.6682  -17.1922   25.3995 O   0  0  0  0  0  0  0  0  0  0  0  0
   11.0395  -14.9928   24.8506 O   0  0  0  0  0  0  0  0  0  0  0  0
  2  1  1  6
  3  2  1  0
  4  5  1  0
  4  3  1  0
  5  9  1  0
  6  5  2  0
  7 10  1  0
  7  2  1  0
  8  7  2  0
 10 14  1  0
 11 12  1  0
 11 10  1  0
 12 13  1  0
 13 14  1  0
 14 15  1  1
 15 17  1  0
 16 15  2  0
 18 17  1  0
 18 19  1  6
 20 19  1  0
 21 18  1  0
 21 22  1  0
 23 21  2  0
M  END
$$$$
