EPC.pdb
     RDKit          3D

 23 23  0  0  1  0  0  0  0  0999 V2000
   10.1400  -17.3877   17.3598 N   0  0  0  0  0  0  0  0  0  0  0  0
    8.9721  -16.6672   17.8921 C   0  0  1  0  0  0  0  0  0  0  0  0
    7.9159  -17.7091   18.1435 C   0  0  0  0  0  0  0  0  0  0  0  0
    8.3487  -18.8555   18.9922 C   0  0  0  0  0  0  0  0  0  0  0  0
    7.1927  -19.8061   19.1991 C   0  0  0  0  0  0  0  0  0  0  0  0
    6.7021  -20.4360   18.2282 O   0  0  0  0  0  0  0  0  0  0  0  0
    9.3606  -16.0640   19.1864 C   0  0  0  0  0  0  0  0  0  0  0  0
   10.4695  -16.4507   19.7046 O   0  0  0  0  0  0  0  0  0  0  0  0
    6.6464  -20.0074   20.4560 O   0  0  0  0  0  0  0  0  0  0  0  0
    8.6279  -15.1006   19.9112 N   0  0  0  0  0  0  0  0  0  0  0  0
    7.3175  -14.6456   19.5813 C   0  0  0  0  0  0  0  0  0  0  0  0
    7.0643  -13.4465   20.4504 C   0  0  0  0  0  0  0  0  0  0  0  0
    8.4393  -13.0730   21.0010 C   0  0  0  0  0  0  0  0  0  0  0  0
    9.0986  -14.4378   21.0836 C   0  0  1  0  0  0  0  0  0  0  0  0
    8.6960  -15.0964   22.3479 C   0  0  0  0  0  0  0  0  0  0  0  0
    7.6222  -15.7434   22.4123 O   0  0  0  0  0  0  0  0  0  0  0  0
    9.4844  -15.0314   23.5231 N   0  0  0  0  0  0  0  0  0  0  0  0
    9.8061  -16.1438   24.3629 C   0  0  1  0  0  0  0  0  0  0  0  0
   10.7326  -17.0558   23.5508 C   0  0  0  0  0  0  0  0  0  0  0  0
   11.2785  -18.4776   24.4952 S   0  0  0  0  0  0  0  0  0  0  0  0
   10.5241  -15.7830   25.5867 C   0  0  0  0  0  0  0  0  0  0  0  0
   11.5376  -14.8421   25.5210 O   0  0  0  0  0  0  0  0  0  0  0  0
   10.2161  -16.3258   26.6738 O   0  0  0  0  0  0  0  0  0  0  0  0
  2  1  1  1
  3  2  1  0
  4  5  1  0
  4  3  1  0
  5  9  1  0
  6  5  2  0
  7 10  1  0
  7  2  1  0
  8  7  2  0
 10 14  1  0
 11 12  1  0
 11 10  1  0
 12 13  1  0
 13 14  1  0
 14 15  1  1
 15 17  1  0
 16 15  2  0
 18 17  1  0
 18 19  1  6
 20 19  1  0
 21 18  1  0
 21 22  1  0
 23 21  2  0
M  END
$$$$
