EPC.pdb
     RDKit          3D

 23 23  0  0  1  0  0  0  0  0999 V2000
    9.1140  -14.2756   20.1478 N   0  0  0  0  0  0  0  0  0  0  0  0
    8.6480  -15.3349   21.0573 C   0  0  1  0  0  0  0  0  0  0  0  0
    9.4923  -16.5443   20.7592 C   0  0  0  0  0  0  0  0  0  0  0  0
    9.1966  -17.7427   21.5949 C   0  0  0  0  0  0  0  0  0  0  0  0
   10.0501  -18.9054   21.1449 C   0  0  0  0  0  0  0  0  0  0  0  0
   10.5433  -19.6989   21.9859 O   0  0  0  0  0  0  0  0  0  0  0  0
    8.9208  -14.8964   22.4442 C   0  0  0  0  0  0  0  0  0  0  0  0
   10.0864  -14.4183   22.6899 O   0  0  0  0  0  0  0  0  0  0  0  0
   10.3102  -19.1263   19.8024 O   0  0  0  0  0  0  0  0  0  0  0  0
    8.0208  -14.9528   23.5292 N   0  0  0  0  0  0  0  0  0  0  0  0
    6.7450  -15.5890   23.5065 C   0  0  0  0  0  0  0  0  0  0  0  0
    6.0454  -15.1595   24.7647 C   0  0  0  0  0  0  0  0  0  0  0  0
    6.8706  -13.9824   25.2813 C   0  0  0  0  0  0  0  0  0  0  0  0
    8.2597  -14.3744   24.8113 C   0  0  1  0  0  0  0  0  0  0  0  0
    8.8578  -15.3113   25.7903 C   0  0  0  0  0  0  0  0  0  0  0  0
    8.8874  -16.5437   25.5529 O   0  0  0  0  0  0  0  0  0  0  0  0
    9.4148  -14.8748   27.0176 N   0  0  0  0  0  0  0  0  0  0  0  0
   10.4360  -15.5587   27.7495 C   0  0  1  0  0  0  0  0  0  0  0  0
   10.7086  -14.7271   29.0079 C   0  0  0  0  0  0  0  0  0  0  0  0
   10.8601  -12.9791   28.6428 S   0  0  0  0  0  0  0  0  0  0  0  0
   10.0570  -16.9006   28.1957 C   0  0  0  0  0  0  0  0  0  0  0  0
    8.7395  -17.3063   28.0678 O   0  0  0  0  0  0  0  0  0  0  0  0
   10.9231  -17.6630   28.6855 O   0  0  0  0  0  0  0  0  0  0  0  0
  2  1  1  6
  3  2  1  0
  4  5  1  0
  4  3  1  0
  5  9  1  0
  6  5  2  0
  7 10  1  0
  7  2  1  0
  8  7  2  0
 10 14  1  0
 11 12  1  0
 11 10  1  0
 12 13  1  0
 13 14  1  0
 14 15  1  1
 15 17  1  0
 16 15  2  0
 18 17  1  0
 18 19  1  1
 20 19  1  0
 21 18  1  0
 21 22  1  0
 23 21  2  0
M  END
$$$$
