EPC.pdb
     RDKit          3D

 23 23  0  0  1  0  0  0  0  0999 V2000
    8.4520  -14.9158   20.5844 N   0  0  0  0  0  0  0  0  0  0  0  0
    7.5958  -14.9997   21.7788 C   0  0  1  0  0  0  0  0  0  0  0  0
    7.3056  -16.4619   21.9843 C   0  0  0  0  0  0  0  0  0  0  0  0
    8.0080  -17.3832   21.0463 C   0  0  0  0  0  0  0  0  0  0  0  0
    8.4823  -18.6096   21.7906 C   0  0  0  0  0  0  0  0  0  0  0  0
    8.1331  -19.7581   21.4175 O   0  0  0  0  0  0  0  0  0  0  0  0
    8.3768  -14.5044   22.9342 C   0  0  0  0  0  0  0  0  0  0  0  0
    9.6536  -14.4678   22.8070 O   0  0  0  0  0  0  0  0  0  0  0  0
    9.3091  -18.5016   22.8967 O   0  0  0  0  0  0  0  0  0  0  0  0
    7.8532  -14.0664   24.1688 N   0  0  0  0  0  0  0  0  0  0  0  0
    6.4700  -14.0474   24.5146 C   0  0  0  0  0  0  0  0  0  0  0  0
    6.3725  -13.2585   25.7894 C   0  0  0  0  0  0  0  0  0  0  0  0
    7.7240  -12.5573   25.9125 C   0  0  0  0  0  0  0  0  0  0  0  0
    8.6386  -13.5738   25.2533 C   0  0  1  0  0  0  0  0  0  0  0  0
    9.0090  -14.6097   26.2451 C   0  0  0  0  0  0  0  0  0  0  0  0
    8.4385  -15.7279   26.2379 O   0  0  0  0  0  0  0  0  0  0  0  0
   10.0040  -14.3967   27.2308 N   0  0  0  0  0  0  0  0  0  0  0  0
   10.9206  -15.3872   27.7050 C   0  0  1  0  0  0  0  0  0  0  0  0
   11.6141  -14.7927   28.9359 C   0  0  0  0  0  0  0  0  0  0  0  0
   10.4513  -14.0195   30.0590 S   0  0  0  0  0  0  0  0  0  0  0  0
   10.2861  -16.6359   28.1312 C   0  0  0  0  0  0  0  0  0  0  0  0
   11.0829  -17.7235   28.4457 O   0  0  0  0  0  0  0  0  0  0  0  0
    9.0369  -16.7070   28.2066 O   0  0  0  0  0  0  0  0  0  0  0  0
  2  1  1  6
  3  2  1  0
  4  5  1  0
  4  3  1  0
  5  9  1  0
  6  5  2  0
  7 10  1  0
  7  2  1  0
  8  7  2  0
 10 14  1  0
 11 12  1  0
 11 10  1  0
 12 13  1  0
 13 14  1  0
 14 15  1  1
 15 17  1  0
 16 15  2  0
 18 17  1  0
 18 19  1  1
 20 19  1  0
 21 18  1  0
 21 22  1  0
 23 21  2  0
M  END
$$$$
