EPC.pdb
     RDKit          3D

 23 23  0  0  1  0  0  0  0  0999 V2000
    6.3684  -19.7272   21.4050 N   0  0  0  0  0  0  0  0  0  0  0  0
    6.2758  -18.3961   22.0263 C   0  0  1  0  0  0  0  0  0  0  0  0
    6.3383  -18.6223   23.5126 C   0  0  0  0  0  0  0  0  0  0  0  0
    7.4811  -19.4593   23.9768 C   0  0  0  0  0  0  0  0  0  0  0  0
    7.4769  -19.5422   25.4854 C   0  0  0  0  0  0  0  0  0  0  0  0
    6.5585  -19.0020   26.1523 O   0  0  0  0  0  0  0  0  0  0  0  0
    7.4655  -17.6181   21.6147 C   0  0  0  0  0  0  0  0  0  0  0  0
    8.4753  -18.2781   21.1761 O   0  0  0  0  0  0  0  0  0  0  0  0
    8.4787  -20.2113   26.1692 O   0  0  0  0  0  0  0  0  0  0  0  0
    7.6001  -16.2144   21.6574 N   0  0  0  0  0  0  0  0  0  0  0  0
    6.5705  -15.3011   22.0302 C   0  0  0  0  0  0  0  0  0  0  0  0
    7.0765  -13.9346   21.6645 C   0  0  0  0  0  0  0  0  0  0  0  0
    8.2738  -14.1987   20.7533 C   0  0  0  0  0  0  0  0  0  0  0  0
    8.7928  -15.5040   21.3284 C   0  0  1  0  0  0  0  0  0  0  0  0
    9.6582  -15.2116   22.4944 C   0  0  0  0  0  0  0  0  0  0  0  0
    9.1569  -14.8004   23.5694 O   0  0  0  0  0  0  0  0  0  0  0  0
   11.0647  -15.3772   22.4574 N   0  0  0  0  0  0  0  0  0  0  0  0
   11.8742  -15.8028   23.5573 C   0  0  1  0  0  0  0  0  0  0  0  0
   11.2519  -17.0997   24.0867 C   0  0  0  0  0  0  0  0  0  0  0  0
   11.2935  -17.1878   25.8761 S   0  0  0  0  0  0  0  0  0  0  0  0
   13.2605  -16.1073   23.1986 C   0  0  0  0  0  0  0  0  0  0  0  0
   14.2792  -15.7104   24.0481 O   0  0  0  0  0  0  0  0  0  0  0  0
   13.5094  -16.7200   22.1337 O   0  0  0  0  0  0  0  0  0  0  0  0
  2  1  1  6
  3  2  1  0
  4  5  1  0
  4  3  1  0
  5  9  1  0
  6  5  2  0
  7 10  1  0
  7  2  1  0
  8  7  2  0
 10 14  1  0
 11 12  1  0
 11 10  1  0
 12 13  1  0
 13 14  1  0
 14 15  1  1
 15 17  1  0
 16 15  2  0
 18 17  1  0
 18 19  1  6
 20 19  1  0
 21 18  1  0
 21 22  1  0
 23 21  2  0
M  END
$$$$
