EPC.pdb
     RDKit          3D

 23 23  0  0  1  0  0  0  0  0999 V2000
    8.7109  -17.4006   16.6081 N   0  0  0  0  0  0  0  0  0  0  0  0
    7.7993  -16.6816   17.5128 C   0  0  1  0  0  0  0  0  0  0  0  0
    6.8445  -17.7123   18.0514 C   0  0  0  0  0  0  0  0  0  0  0  0
    7.3160  -19.1230   17.9528 C   0  0  0  0  0  0  0  0  0  0  0  0
    6.3019  -20.0483   18.5839 C   0  0  0  0  0  0  0  0  0  0  0  0
    5.1268  -19.6570   18.7988 O   0  0  0  0  0  0  0  0  0  0  0  0
    8.6013  -16.1458   18.6352 C   0  0  0  0  0  0  0  0  0  0  0  0
    9.7705  -16.6452   18.8119 O   0  0  0  0  0  0  0  0  0  0  0  0
    6.6381  -21.3440   18.9403 O   0  0  0  0  0  0  0  0  0  0  0  0
    8.2049  -15.1346   19.5356 N   0  0  0  0  0  0  0  0  0  0  0  0
    6.9191  -14.5192   19.5661 C   0  0  0  0  0  0  0  0  0  0  0  0
    7.0481  -13.3350   20.4816 C   0  0  0  0  0  0  0  0  0  0  0  0
    8.5538  -13.1443   20.6542 C   0  0  0  0  0  0  0  0  0  0  0  0
    9.0412  -14.5779   20.5487 C   0  0  1  0  0  0  0  0  0  0  0  0
    8.9045  -15.2363   21.8685 C   0  0  0  0  0  0  0  0  0  0  0  0
    7.8473  -15.8432   22.1684 O   0  0  0  0  0  0  0  0  0  0  0  0
    9.9366  -15.2155   22.8387 N   0  0  0  0  0  0  0  0  0  0  0  0
   10.2749  -16.3012   23.7064 C   0  0  1  0  0  0  0  0  0  0  0  0
   10.7579  -17.4474   22.8106 C   0  0  0  0  0  0  0  0  0  0  0  0
   11.3077  -18.8629   23.7622 S   0  0  0  0  0  0  0  0  0  0  0  0
   11.3589  -16.0036   24.6443 C   0  0  0  0  0  0  0  0  0  0  0  0
   11.2735  -16.4731   25.9439 O   0  0  0  0  0  0  0  0  0  0  0  0
   12.3462  -15.3315   24.2639 O   0  0  0  0  0  0  0  0  0  0  0  0
  2  1  1  6
  3  2  1  0
  4  5  1  0
  4  3  1  0
  5  9  1  0
  6  5  2  0
  7 10  1  0
  7  2  1  0
  8  7  2  0
 10 14  1  0
 11 12  1  0
 11 10  1  0
 12 13  1  0
 13 14  1  0
 14 15  1  1
 15 17  1  0
 16 15  2  0
 18 17  1  0
 18 19  1  6
 20 19  1  0
 21 18  1  0
 21 22  1  0
 23 21  2  0
M  END
$$$$
