EPC.pdb
     RDKit          3D

 23 23  0  0  1  0  0  0  0  0999 V2000
    7.9048  -14.5959   21.1185 N   0  0  0  0  0  0  0  0  0  0  0  0
    7.0992  -14.4761   22.3445 C   0  0  1  0  0  0  0  0  0  0  0  0
    6.4271  -15.8087   22.5361 C   0  0  0  0  0  0  0  0  0  0  0  0
    7.3387  -16.9287   22.9057 C   0  0  0  0  0  0  0  0  0  0  0  0
    6.5368  -18.1883   23.1362 C   0  0  0  0  0  0  0  0  0  0  0  0
    5.2885  -18.1868   22.9887 O   0  0  0  0  0  0  0  0  0  0  0  0
    8.0244  -14.2447   23.4761 C   0  0  0  0  0  0  0  0  0  0  0  0
    9.2727  -14.4585   23.2666 O   0  0  0  0  0  0  0  0  0  0  0  0
    7.1520  -19.3706   23.5138 O   0  0  0  0  0  0  0  0  0  0  0  0
    7.6676  -13.8101   24.7700 N   0  0  0  0  0  0  0  0  0  0  0  0
    6.3325  -13.6401   25.2408 C   0  0  0  0  0  0  0  0  0  0  0  0
    6.4445  -12.9119   26.5501 C   0  0  0  0  0  0  0  0  0  0  0  0
    7.8793  -12.3885   26.5779 C   0  0  0  0  0  0  0  0  0  0  0  0
    8.5985  -13.4738   25.7976 C   0  0  1  0  0  0  0  0  0  0  0  0
    8.9184  -14.5970   26.7087 C   0  0  0  0  0  0  0  0  0  0  0  0
    8.0166  -15.3849   27.0855 O   0  0  0  0  0  0  0  0  0  0  0  0
   10.2290  -14.8346   27.1911 N   0  0  0  0  0  0  0  0  0  0  0  0
   10.6247  -15.9563   27.9857 C   0  0  1  0  0  0  0  0  0  0  0  0
   12.1349  -16.1270   27.7861 C   0  0  0  0  0  0  0  0  0  0  0  0
   12.8105  -17.4251   28.8205 S   0  0  0  0  0  0  0  0  0  0  0  0
   10.3985  -15.7833   29.4217 C   0  0  0  0  0  0  0  0  0  0  0  0
   10.2434  -16.9042   30.2193 O   0  0  0  0  0  0  0  0  0  0  0  0
   10.3479  -14.6303   29.9109 O   0  0  0  0  0  0  0  0  0  0  0  0
  2  1  1  6
  3  2  1  0
  4  5  1  0
  4  3  1  0
  5  9  1  0
  6  5  2  0
  7 10  1  0
  7  2  1  0
  8  7  2  0
 10 14  1  0
 11 12  1  0
 11 10  1  0
 12 13  1  0
 13 14  1  0
 14 15  1  1
 15 17  1  0
 16 15  2  0
 18 17  1  0
 18 19  1  1
 20 19  1  0
 21 18  1  0
 21 22  1  0
 23 21  2  0
M  END
$$$$
