EPC.pdb
     RDKit          3D

 23 23  0  0  1  0  0  0  0  0999 V2000
    9.8189  -15.5764   15.1053 N   0  0  0  0  0  0  0  0  0  0  0  0
    8.7648  -15.4376   16.1232 C   0  0  1  0  0  0  0  0  0  0  0  0
    8.1541  -16.8035   16.2828 C   0  0  0  0  0  0  0  0  0  0  0  0
    7.3528  -17.2773   15.1186 C   0  0  0  0  0  0  0  0  0  0  0  0
    6.7510  -18.6287   15.4257 C   0  0  0  0  0  0  0  0  0  0  0  0
    6.6828  -19.5146   14.5365 O   0  0  0  0  0  0  0  0  0  0  0  0
    9.4112  -15.0552   17.3984 C   0  0  0  0  0  0  0  0  0  0  0  0
   10.6574  -15.3327   17.5308 O   0  0  0  0  0  0  0  0  0  0  0  0
    6.2615  -18.9254   16.6871 O   0  0  0  0  0  0  0  0  0  0  0  0
    8.7889  -14.4124   18.4892 N   0  0  0  0  0  0  0  0  0  0  0  0
    7.4126  -14.0445   18.5501 C   0  0  0  0  0  0  0  0  0  0  0  0
    7.2738  -13.1579   19.7550 C   0  0  0  0  0  0  0  0  0  0  0  0
    8.7079  -12.7838   20.1248 C   0  0  0  0  0  0  0  0  0  0  0  0
    9.4535  -14.0336   19.6934 C   0  0  1  0  0  0  0  0  0  0  0  0
    9.3678  -15.0469   20.7704 C   0  0  0  0  0  0  0  0  0  0  0  0
    8.3244  -15.7290   20.9184 O   0  0  0  0  0  0  0  0  0  0  0  0
   10.4351  -15.2930   21.6690 N   0  0  0  0  0  0  0  0  0  0  0  0
   10.5740  -16.4598   22.4848 C   0  0  1  0  0  0  0  0  0  0  0  0
   12.0426  -16.8891   22.3935 C   0  0  0  0  0  0  0  0  0  0  0  0
   13.1632  -15.5616   22.8333 S   0  0  0  0  0  0  0  0  0  0  0  0
   10.2788  -16.2391   23.9016 C   0  0  0  0  0  0  0  0  0  0  0  0
   10.3005  -17.3169   24.7703 O   0  0  0  0  0  0  0  0  0  0  0  0
   10.0112  -15.0849   24.3108 O   0  0  0  0  0  0  0  0  0  0  0  0
  2  1  1  6
  3  2  1  0
  4  5  1  0
  4  3  1  0
  5  9  1  0
  6  5  2  0
  7 10  1  0
  7  2  1  0
  8  7  2  0
 10 14  1  0
 11 12  1  0
 11 10  1  0
 12 13  1  0
 13 14  1  0
 14 15  1  1
 15 17  1  0
 16 15  2  0
 18 17  1  0
 18 19  1  1
 20 19  1  0
 21 18  1  0
 21 22  1  0
 23 21  2  0
M  END
$$$$
