EPC.pdb
     RDKit          3D

 23 23  0  0  1  0  0  0  0  0999 V2000
   11.9021  -17.3674   21.1902 N   0  0  0  0  0  0  0  0  0  0  0  0
   10.4331  -17.3470   21.0990 C   0  0  1  0  0  0  0  0  0  0  0  0
    9.9559  -18.6222   21.7396 C   0  0  0  0  0  0  0  0  0  0  0  0
   10.3898  -18.8205   23.1519 C   0  0  0  0  0  0  0  0  0  0  0  0
    9.8380  -20.1242   23.6799 C   0  0  0  0  0  0  0  0  0  0  0  0
    9.9098  -21.1737   22.9918 O   0  0  0  0  0  0  0  0  0  0  0  0
    9.9433  -16.2023   21.8990 C   0  0  0  0  0  0  0  0  0  0  0  0
   10.7440  -15.7135   22.7751 O   0  0  0  0  0  0  0  0  0  0  0  0
    9.2422  -20.1970   24.9283 O   0  0  0  0  0  0  0  0  0  0  0  0
    8.6757  -15.5922   21.7931 N   0  0  0  0  0  0  0  0  0  0  0  0
    7.5743  -16.1093   21.0498 C   0  0  0  0  0  0  0  0  0  0  0  0
    6.5542  -15.0075   21.0002 C   0  0  0  0  0  0  0  0  0  0  0  0
    7.3136  -13.7595   21.4464 C   0  0  0  0  0  0  0  0  0  0  0  0
    8.3142  -14.3610   22.4166 C   0  0  1  0  0  0  0  0  0  0  0  0
    7.6697  -14.5250   23.7402 C   0  0  0  0  0  0  0  0  0  0  0  0
    7.3245  -15.6634   24.1411 O   0  0  0  0  0  0  0  0  0  0  0  0
    7.4154  -13.4301   24.6025 N   0  0  0  0  0  0  0  0  0  0  0  0
    7.8214  -13.3470   25.9716 C   0  0  1  0  0  0  0  0  0  0  0  0
    7.0339  -12.1893   26.5954 C   0  0  0  0  0  0  0  0  0  0  0  0
    5.2740  -12.3250   26.2855 S   0  0  0  0  0  0  0  0  0  0  0  0
    7.5215  -14.5438   26.7596 C   0  0  0  0  0  0  0  0  0  0  0  0
    8.0912  -14.6855   28.0134 O   0  0  0  0  0  0  0  0  0  0  0  0
    6.7572  -15.4218   26.2943 O   0  0  0  0  0  0  0  0  0  0  0  0
  2  1  1  1
  3  2  1  0
  4  5  1  0
  4  3  1  0
  5  9  1  0
  6  5  2  0
  7 10  1  0
  7  2  1  0
  8  7  2  0
 10 14  1  0
 11 12  1  0
 11 10  1  0
 12 13  1  0
 13 14  1  0
 14 15  1  1
 15 17  1  0
 16 15  2  0
 18 17  1  0
 18 19  1  1
 20 19  1  0
 21 18  1  0
 21 22  1  0
 23 21  2  0
M  END
$$$$
