MGP.pdb
     RDKit          3D

 20 20  0  0  1  0  0  0  0  0999 V2000
    5.5282  -11.3515   26.5452 C   0  0  0  0  0  0  0  0  0  0  0  0
    6.9632  -12.1404   25.7541 S   0  0  0  0  0  0  0  0  0  0  0  0
    6.4894  -12.7165   24.1072 C   0  0  0  0  0  0  0  0  0  0  0  0
    7.6377  -13.3558   23.3909 C   0  0  0  0  0  0  0  0  0  0  0  0
    7.8191  -14.7933   23.8518 C   0  0  2  0  0  0  0  0  0  0  0  0
    7.9121  -14.7970   25.2793 N   0  0  0  0  0  0  0  0  0  0  0  0
    9.0243  -15.3742   23.1981 C   0  0  0  0  0  0  0  0  0  0  0  0
    9.1144  -15.4232   21.9452 O   0  0  0  0  0  0  0  0  0  0  0  0
   10.1154  -15.8944   23.9369 N   0  0  0  0  0  0  0  0  0  0  0  0
    9.9054  -16.9191   24.9829 C   0  0  0  0  0  0  0  0  0  0  0  0
   10.9490  -16.7598   26.0066 C   0  0  0  0  0  0  0  0  0  0  0  0
   11.9788  -17.5476   25.9659 O   0  0  0  0  0  0  0  0  0  0  0  0
   10.9169  -15.8112   27.0423 N   0  0  0  0  0  0  0  0  0  0  0  0
   10.5894  -14.4175   26.8224 C   0  0  0  0  0  0  0  0  0  0  0  0
    9.9164  -14.0005   28.0899 C   0  0  0  0  0  0  0  0  0  0  0  0
   10.1145  -15.1072   29.0803 C   0  0  0  0  0  0  0  0  0  0  0  0
   11.2006  -15.9768   28.4121 C   0  0  1  0  0  0  0  0  0  0  0  0
   11.0882  -17.3554   28.9597 C   0  0  0  0  0  0  0  0  0  0  0  0
   10.2354  -18.1859   28.5500 O   0  0  0  0  0  0  0  0  0  0  0  0
   11.9520  -17.7512   29.9620 O   0  0  0  0  0  0  0  0  0  0  0  0
  2  1  1  0
  3  2  1  0
  4  5  1  0
  4  3  1  0
  5  6  1  1
  7  8  2  0
  7  5  1  0
  9  7  1  0
 10  9  1  0
 10 11  1  0
 11 13  1  0
 12 11  2  0
 13 14  1  0
 13 17  1  0
 14 15  1  0
 15 16  1  0
 17 18  1  1
 17 16  1  0
 18 20  1  0
 19 18  2  0
M  END
$$$$
