MGP.pdb
     RDKit          3D

 20 20  0  0  1  0  0  0  0  0999 V2000
    5.8857  -11.9981   27.2197 C   0  0  0  0  0  0  0  0  0  0  0  0
    7.4705  -12.8562   27.4632 S   0  0  0  0  0  0  0  0  0  0  0  0
    7.2834  -14.5913   26.9911 C   0  0  0  0  0  0  0  0  0  0  0  0
    7.4268  -14.7833   25.5136 C   0  0  0  0  0  0  0  0  0  0  0  0
    7.0910  -16.2151   25.1276 C   0  0  2  0  0  0  0  0  0  0  0  0
    7.9594  -17.0897   25.8538 N   0  0  0  0  0  0  0  0  0  0  0  0
    7.2217  -16.3736   23.6528 C   0  0  0  0  0  0  0  0  0  0  0  0
    8.0788  -17.1527   23.1643 O   0  0  0  0  0  0  0  0  0  0  0  0
    6.4039  -15.6690   22.7355 N   0  0  0  0  0  0  0  0  0  0  0  0
    6.4808  -15.9418   21.2835 C   0  0  0  0  0  0  0  0  0  0  0  0
    7.8154  -15.5499   20.8065 C   0  0  0  0  0  0  0  0  0  0  0  0
    8.8283  -16.2948   21.1259 O   0  0  0  0  0  0  0  0  0  0  0  0
    8.0851  -14.4143   20.0245 N   0  0  0  0  0  0  0  0  0  0  0  0
    7.0454  -13.5373   19.5268 C   0  0  0  0  0  0  0  0  0  0  0  0
    7.6941  -12.1914   19.4926 C   0  0  0  0  0  0  0  0  0  0  0  0
    9.1582  -12.4003   19.7330 C   0  0  0  0  0  0  0  0  0  0  0  0
    9.3215  -13.9252   19.5594 C   0  0  1  0  0  0  0  0  0  0  0  0
   10.5356  -14.3468   20.3084 C   0  0  0  0  0  0  0  0  0  0  0  0
   11.6506  -14.5319   19.7539 O   0  0  0  0  0  0  0  0  0  0  0  0
   10.4464  -14.5472   21.6720 O   0  0  0  0  0  0  0  0  0  0  0  0
  2  1  1  0
  3  2  1  0
  4  5  1  0
  4  3  1  0
  5  6  1  1
  7  8  2  0
  7  5  1  0
  9  7  1  0
 10  9  1  0
 10 11  1  0
 11 13  1  0
 12 11  2  0
 13 14  1  0
 13 17  1  0
 14 15  1  0
 15 16  1  0
 17 18  1  1
 17 16  1  0
 18 20  1  0
 19 18  2  0
M  END
$$$$
