MGP.pdb
     RDKit          3D

 20 20  0  0  1  0  0  0  0  0999 V2000
    8.0232  -12.0391   17.8530 C   0  0  0  0  0  0  0  0  0  0  0  0
    7.8463  -13.5805   18.8019 S   0  0  0  0  0  0  0  0  0  0  0  0
    7.0928  -13.2077   20.4024 C   0  0  0  0  0  0  0  0  0  0  0  0
    6.8414  -14.4489   21.2004 C   0  0  0  0  0  0  0  0  0  0  0  0
    8.0722  -14.8180   22.0130 C   0  0  2  0  0  0  0  0  0  0  0  0
    8.6921  -15.9505   21.3968 N   0  0  0  0  0  0  0  0  0  0  0  0
    7.6734  -15.0806   23.4234 C   0  0  0  0  0  0  0  0  0  0  0  0
    7.2075  -14.1596   24.1411 O   0  0  0  0  0  0  0  0  0  0  0  0
    7.7947  -16.3579   24.0241 N   0  0  0  0  0  0  0  0  0  0  0  0
    7.4149  -16.5722   25.4377 C   0  0  0  0  0  0  0  0  0  0  0  0
    8.6176  -16.4232   26.2704 C   0  0  0  0  0  0  0  0  0  0  0  0
    9.3355  -17.4763   26.5118 O   0  0  0  0  0  0  0  0  0  0  0  0
    9.0550  -15.2142   26.8369 N   0  0  0  0  0  0  0  0  0  0  0  0
    8.5011  -13.9275   26.4687 C   0  0  0  0  0  0  0  0  0  0  0  0
    8.6005  -13.1198   27.7221 C   0  0  0  0  0  0  0  0  0  0  0  0
    9.4415  -13.9005   28.6855 C   0  0  0  0  0  0  0  0  0  0  0  0
   10.0673  -14.9913   27.7906 C   0  0  1  0  0  0  0  0  0  0  0  0
   10.4386  -16.1415   28.6578 C   0  0  0  0  0  0  0  0  0  0  0  0
    9.6913  -17.1408   28.8244 O   0  0  0  0  0  0  0  0  0  0  0  0
   11.6538  -16.1219   29.3139 O   0  0  0  0  0  0  0  0  0  0  0  0
  2  1  1  0
  3  2  1  0
  4  5  1  0
  4  3  1  0
  5  6  1  6
  7  8  2  0
  7  5  1  0
  9  7  1  0
 10  9  1  0
 10 11  1  0
 11 13  1  0
 12 11  2  0
 13 14  1  0
 13 17  1  0
 14 15  1  0
 15 16  1  0
 17 18  1  1
 17 16  1  0
 18 20  1  0
 19 18  2  0
M  END
$$$$
