MGP.pdb
     RDKit          3D

 20 20  0  0  1  0  0  0  0  0999 V2000
    7.0327  -10.8551   26.4041 C   0  0  0  0  0  0  0  0  0  0  0  0
    6.1435  -12.1106   27.3741 S   0  0  0  0  0  0  0  0  0  0  0  0
    6.8728  -13.7334   27.0529 C   0  0  0  0  0  0  0  0  0  0  0  0
    6.4699  -14.2681   25.7141 C   0  0  0  0  0  0  0  0  0  0  0  0
    7.2414  -15.5385   25.3939 C   0  0  2  0  0  0  0  0  0  0  0  0
    8.2624  -15.7031   26.3824 N   0  0  0  0  0  0  0  0  0  0  0  0
    7.7909  -15.4489   24.0129 C   0  0  0  0  0  0  0  0  0  0  0  0
    7.0520  -15.6405   23.0141 O   0  0  0  0  0  0  0  0  0  0  0  0
    9.1507  -15.1489   23.7521 N   0  0  0  0  0  0  0  0  0  0  0  0
    9.6944  -15.2186   22.3780 C   0  0  0  0  0  0  0  0  0  0  0  0
    8.5685  -15.2373   21.4325 C   0  0  0  0  0  0  0  0  0  0  0  0
    7.8001  -16.2821   21.4084 O   0  0  0  0  0  0  0  0  0  0  0  0
    8.2567  -14.2002   20.5374 N   0  0  0  0  0  0  0  0  0  0  0  0
    8.0946  -12.8229   20.9555 C   0  0  0  0  0  0  0  0  0  0  0  0
    8.5621  -12.0308   19.7776 C   0  0  0  0  0  0  0  0  0  0  0  0
    8.7339  -12.9904   18.6397 C   0  0  0  0  0  0  0  0  0  0  0  0
    8.0210  -14.2607   19.1500 C   0  0  1  0  0  0  0  0  0  0  0  0
    8.5854  -15.4292   18.4228 C   0  0  0  0  0  0  0  0  0  0  0  0
    9.6768  -15.9700   18.7412 O   0  0  0  0  0  0  0  0  0  0  0  0
    7.8900  -15.9509   17.3497 O   0  0  0  0  0  0  0  0  0  0  0  0
  2  1  1  0
  3  2  1  0
  4  5  1  0
  4  3  1  0
  5  6  1  1
  7  8  2  0
  7  5  1  0
  9  7  1  0
 10  9  1  0
 10 11  1  0
 11 13  1  0
 12 11  2  0
 13 14  1  0
 13 17  1  0
 14 15  1  0
 15 16  1  0
 17 18  1  6
 17 16  1  0
 18 20  1  0
 19 18  2  0
M  END
$$$$
