MGP.pdb
     RDKit          3D

 20 20  0  0  1  0  0  0  0  0999 V2000
    9.3483  -13.6137   29.2170 C   0  0  0  0  0  0  0  0  0  0  0  0
    9.3225  -13.9534   27.4305 S   0  0  0  0  0  0  0  0  0  0  0  0
    9.4095  -15.7397   27.1658 C   0  0  0  0  0  0  0  0  0  0  0  0
    8.0489  -16.3626   27.1299 C   0  0  0  0  0  0  0  0  0  0  0  0
    7.7728  -16.9604   25.7595 C   0  0  2  0  0  0  0  0  0  0  0  0
    8.9880  -17.5336   25.2683 N   0  0  0  0  0  0  0  0  0  0  0  0
    7.2330  -15.9046   24.8588 C   0  0  0  0  0  0  0  0  0  0  0  0
    6.4315  -15.0387   25.2927 O   0  0  0  0  0  0  0  0  0  0  0  0
    7.5851  -15.8185   23.4893 N   0  0  0  0  0  0  0  0  0  0  0  0
    8.2255  -14.6015   22.9442 C   0  0  0  0  0  0  0  0  0  0  0  0
    8.7086  -14.8978   21.5874 C   0  0  0  0  0  0  0  0  0  0  0  0
    9.4093  -15.9738   21.4030 O   0  0  0  0  0  0  0  0  0  0  0  0
    8.4715  -14.0946   20.4593 N   0  0  0  0  0  0  0  0  0  0  0  0
    7.4126  -13.1079   20.4051 C   0  0  0  0  0  0  0  0  0  0  0  0
    7.9615  -12.0376   19.5182 C   0  0  0  0  0  0  0  0  0  0  0  0
    9.2141  -12.5771   18.8977 C   0  0  0  0  0  0  0  0  0  0  0  0
    9.1341  -14.0852   19.2164 C   0  0  1  0  0  0  0  0  0  0  0  0
   10.5157  -14.6359   19.1872 C   0  0  0  0  0  0  0  0  0  0  0  0
   10.9474  -15.3486   18.2434 O   0  0  0  0  0  0  0  0  0  0  0  0
   11.3700  -14.3600   20.2367 O   0  0  0  0  0  0  0  0  0  0  0  0
  2  1  1  0
  3  2  1  0
  4  5  1  0
  4  3  1  0
  5  6  1  6
  7  8  2  0
  7  5  1  0
  9  7  1  0
 10  9  1  0
 10 11  1  0
 11 13  1  0
 12 11  2  0
 13 14  1  0
 13 17  1  0
 14 15  1  0
 15 16  1  0
 17 18  1  1
 17 16  1  0
 18 20  1  0
 19 18  2  0
M  END
$$$$
