MGP.pdb
     RDKit          3D

 20 20  0  0  1  0  0  0  0  0999 V2000
    6.1951  -11.6228   26.6293 C   0  0  0  0  0  0  0  0  0  0  0  0
    7.3729  -12.4062   27.7724 S   0  0  0  0  0  0  0  0  0  0  0  0
    8.0903  -13.8629   26.9776 C   0  0  0  0  0  0  0  0  0  0  0  0
    7.0379  -14.7463   26.3837 C   0  0  0  0  0  0  0  0  0  0  0  0
    7.6752  -15.9271   25.6687 C   0  0  2  0  0  0  0  0  0  0  0  0
    9.0376  -15.5959   25.3846 N   0  0  0  0  0  0  0  0  0  0  0  0
    6.8946  -16.2416   24.4403 C   0  0  0  0  0  0  0  0  0  0  0  0
    5.6757  -16.5408   24.5131 O   0  0  0  0  0  0  0  0  0  0  0  0
    7.4703  -16.2223   23.1461 N   0  0  0  0  0  0  0  0  0  0  0  0
    7.6860  -14.9463   22.4291 C   0  0  0  0  0  0  0  0  0  0  0  0
    8.4283  -15.2278   21.1914 C   0  0  0  0  0  0  0  0  0  0  0  0
    9.1017  -16.3338   21.1135 O   0  0  0  0  0  0  0  0  0  0  0  0
    8.4699  -14.3800   20.0719 N   0  0  0  0  0  0  0  0  0  0  0  0
    7.4085  -13.4481   19.7513 C   0  0  0  0  0  0  0  0  0  0  0  0
    8.1162  -12.3058   19.0973 C   0  0  0  0  0  0  0  0  0  0  0  0
    9.5256  -12.7464   18.8432 C   0  0  0  0  0  0  0  0  0  0  0  0
    9.4562  -14.2711   19.0721 C   0  0  1  0  0  0  0  0  0  0  0  0
   10.8218  -14.7472   19.4207 C   0  0  0  0  0  0  0  0  0  0  0  0
   11.5456  -15.3933   18.6185 O   0  0  0  0  0  0  0  0  0  0  0  0
   11.3267  -14.4744   20.6769 O   0  0  0  0  0  0  0  0  0  0  0  0
  2  1  1  0
  3  2  1  0
  4  5  1  0
  4  3  1  0
  5  6  1  6
  7  8  2  0
  7  5  1  0
  9  7  1  0
 10  9  1  0
 10 11  1  0
 11 13  1  0
 12 11  2  0
 13 14  1  0
 13 17  1  0
 14 15  1  0
 15 16  1  0
 17 18  1  1
 17 16  1  0
 18 20  1  0
 19 18  2  0
M  END
$$$$
