QPL.pdb
     RDKit          3D

 25 25  0  0  1  0  0  0  0  0999 V2000
   12.7291  -14.9298   19.0161 N   0  0  0  0  0  0  0  0  0  0  0  0
   12.3919  -13.7563   19.7666 C   0  0  0  0  0  0  0  0  0  0  0  0
   13.3488  -13.1595   20.3211 O   0  0  0  0  0  0  0  0  0  0  0  0
   10.9748  -13.3356   19.8348 C   0  0  0  0  0  0  0  0  0  0  0  0
   10.0986  -14.3108   19.1376 C   0  0  0  0  0  0  0  0  0  0  0  0
    8.6224  -14.0228   19.2220 C   0  0  2  0  0  0  0  0  0  0  0  0
    8.4359  -12.6540   18.8210 N   0  0  0  0  0  0  0  0  0  0  0  0
    8.1226  -14.2980   20.5889 C   0  0  0  0  0  0  0  0  0  0  0  0
    7.9293  -13.3057   21.3373 O   0  0  0  0  0  0  0  0  0  0  0  0
    7.8523  -15.5829   21.1006 N   0  0  0  0  0  0  0  0  0  0  0  0
    8.1624  -16.7983   20.3829 C   0  0  0  0  0  0  0  0  0  0  0  0
    7.7424  -17.9514   21.2454 C   0  0  0  0  0  0  0  0  0  0  0  0
    6.8369  -17.3688   22.2675 C   0  0  0  0  0  0  0  0  0  0  0  0
    7.2486  -15.9151   22.3663 C   0  0  1  0  0  0  0  0  0  0  0  0
    8.1506  -15.6703   23.5179 C   0  0  0  0  0  0  0  0  0  0  0  0
    9.3653  -15.9925   23.4399 O   0  0  0  0  0  0  0  0  0  0  0  0
    7.9211  -11.8570   25.0243 C   0  0  0  0  0  0  0  0  0  0  0  0
    7.2248  -12.8653   25.9333 C   0  0  2  0  0  0  0  0  0  0  0  0
    6.3349  -12.1068   26.9002 C   0  0  0  0  0  0  0  0  0  0  0  0
    8.2282  -13.6995   26.6790 C   0  0  0  0  0  0  0  0  0  0  0  0
    8.6251  -14.8923   25.8872 C   0  0  2  0  0  0  0  0  0  0  0  0
    7.7266  -15.0803   24.7373 N   0  0  0  0  0  0  0  0  0  0  0  0
    8.6933  -16.1067   26.6958 C   0  0  0  0  0  0  0  0  0  0  0  0
    7.9758  -17.1130   26.6169 O   0  0  0  0  0  0  0  0  0  0  0  0
    9.6932  -16.1607   27.6961 O   0  0  0  0  0  0  0  0  0  0  0  0
  2  3  2  0
  2  1  1  0
  4  2  1  0
  5  4  1  0
  6  5  1  0
  6  7  1  1
  8 10  1  0
  8  6  1  0
  9  8  2  0
 10 14  1  0
 11 10  1  0
 11 12  1  0
 12 13  1  0
 14 13  1  0
 14 15  1  1
 15 16  2  0
 18 17  1  6
 18 19  1  0
 20 18  1  0
 21 20  1  1
 22 21  1  0
 22 15  1  0
 23 25  1  0
 23 21  1  0
 24 23  2  0
M  END
$$$$
