QPL.pdb
     RDKit          3D

 25 25  0  0  1  0  0  0  0  0999 V2000
   11.8496  -19.2782   24.3360 N   0  0  0  0  0  0  0  0  0  0  0  0
   11.1819  -19.8265   23.1924 C   0  0  0  0  0  0  0  0  0  0  0  0
   10.2928  -20.6828   23.4280 O   0  0  0  0  0  0  0  0  0  0  0  0
   11.5734  -19.3575   21.8446 C   0  0  0  0  0  0  0  0  0  0  0  0
   10.3779  -19.1402   20.9913 C   0  0  0  0  0  0  0  0  0  0  0  0
   10.4820  -17.9938   20.0197 C   0  0  2  0  0  0  0  0  0  0  0  0
   11.8545  -17.9240   19.5948 N   0  0  0  0  0  0  0  0  0  0  0  0
   10.0079  -16.7406   20.6510 C   0  0  0  0  0  0  0  0  0  0  0  0
   10.8791  -15.9985   21.1732 O   0  0  0  0  0  0  0  0  0  0  0  0
    8.6612  -16.3290   20.7048 N   0  0  0  0  0  0  0  0  0  0  0  0
    7.5834  -17.0783   20.1002 C   0  0  0  0  0  0  0  0  0  0  0  0
    6.3087  -16.3372   20.3754 C   0  0  0  0  0  0  0  0  0  0  0  0
    6.7273  -14.9741   20.7888 C   0  0  0  0  0  0  0  0  0  0  0  0
    8.1279  -15.1487   21.3368 C   0  0  1  0  0  0  0  0  0  0  0  0
    8.1387  -15.2322   22.8176 C   0  0  0  0  0  0  0  0  0  0  0  0
    8.4545  -16.3133   23.3804 O   0  0  0  0  0  0  0  0  0  0  0  0
    5.9686  -12.6395   27.7992 C   0  0  0  0  0  0  0  0  0  0  0  0
    7.3186  -13.1000   27.2576 C   0  0  2  0  0  0  0  0  0  0  0  0
    8.4062  -12.2576   27.8976 C   0  0  0  0  0  0  0  0  0  0  0  0
    7.3665  -12.9796   25.7603 C   0  0  0  0  0  0  0  0  0  0  0  0
    7.8172  -14.2504   25.1364 C   0  0  2  0  0  0  0  0  0  0  0  0
    7.8080  -14.1454   23.6688 N   0  0  0  0  0  0  0  0  0  0  0  0
    7.0355  -15.4021   25.5786 C   0  0  0  0  0  0  0  0  0  0  0  0
    5.9115  -15.7506   25.1927 O   0  0  0  0  0  0  0  0  0  0  0  0
    7.6139  -16.2337   26.5672 O   0  0  0  0  0  0  0  0  0  0  0  0
  2  3  2  0
  2  1  1  0
  4  2  1  0
  5  4  1  0
  6  5  1  0
  6  7  1  1
  8 10  1  0
  8  6  1  0
  9  8  2  0
 10 14  1  0
 11 10  1  0
 11 12  1  0
 12 13  1  0
 14 13  1  0
 14 15  1  1
 15 16  2  0
 18 17  1  1
 18 19  1  0
 20 18  1  0
 21 20  1  1
 22 21  1  0
 22 15  1  0
 23 25  1  0
 23 21  1  0
 24 23  2  0
M  END
$$$$
