QPL.pdb
     RDKit          3D

 25 25  0  0  1  0  0  0  0  0999 V2000
    5.9032  -19.9634   21.0607 N   0  0  0  0  0  0  0  0  0  0  0  0
    7.1895  -19.5660   21.5524 C   0  0  0  0  0  0  0  0  0  0  0  0
    7.3013  -19.4749   22.8008 O   0  0  0  0  0  0  0  0  0  0  0  0
    8.2731  -19.2979   20.5809 C   0  0  0  0  0  0  0  0  0  0  0  0
    7.8304  -18.3273   19.5481 C   0  0  0  0  0  0  0  0  0  0  0  0
    8.8966  -17.3856   19.0527 C   0  0  2  0  0  0  0  0  0  0  0  0
   10.0352  -18.1883   18.6942 N   0  0  0  0  0  0  0  0  0  0  0  0
    9.2069  -16.3712   20.0865 C   0  0  0  0  0  0  0  0  0  0  0  0
   10.2419  -16.5568   20.7769 O   0  0  0  0  0  0  0  0  0  0  0  0
    8.4287  -15.2251   20.3448 N   0  0  0  0  0  0  0  0  0  0  0  0
    7.2116  -14.9208   19.6275 C   0  0  0  0  0  0  0  0  0  0  0  0
    6.6670  -13.6396   20.1859 C   0  0  0  0  0  0  0  0  0  0  0  0
    7.7917  -13.0285   20.9379 C   0  0  0  0  0  0  0  0  0  0  0  0
    8.6812  -14.1932   21.3187 C   0  0  1  0  0  0  0  0  0  0  0  0
    8.4415  -14.6431   22.7115 C   0  0  0  0  0  0  0  0  0  0  0  0
    7.4379  -15.3567   22.9738 O   0  0  0  0  0  0  0  0  0  0  0  0
    5.7656  -12.1428   26.4627 C   0  0  0  0  0  0  0  0  0  0  0  0
    7.1232  -12.8376   26.5091 C   0  0  2  0  0  0  0  0  0  0  0  0
    8.0949  -11.9448   27.2579 C   0  0  0  0  0  0  0  0  0  0  0  0
    7.6275  -13.1253   25.1229 C   0  0  0  0  0  0  0  0  0  0  0  0
    8.7833  -14.0583   25.1579 C   0  0  2  0  0  0  0  0  0  0  0  0
    9.2904  -14.3150   23.8008 N   0  0  0  0  0  0  0  0  0  0  0  0
    8.4738  -15.3113   25.8414 C   0  0  0  0  0  0  0  0  0  0  0  0
    8.8700  -15.6883   26.9526 O   0  0  0  0  0  0  0  0  0  0  0  0
    7.6197  -16.2188   25.1704 O   0  0  0  0  0  0  0  0  0  0  0  0
  2  3  2  0
  2  1  1  0
  4  2  1  0
  5  4  1  0
  6  5  1  0
  6  7  1  1
  8 10  1  0
  8  6  1  0
  9  8  2  0
 10 14  1  0
 11 10  1  0
 11 12  1  0
 12 13  1  0
 14 13  1  0
 14 15  1  1
 15 16  2  0
 18 17  1  6
 18 19  1  0
 20 18  1  0
 21 20  1  6
 22 21  1  0
 22 15  1  0
 23 25  1  0
 23 21  1  0
 24 23  2  0
M  END
$$$$
