QPL.pdb
     RDKit          3D

 25 25  0  0  1  0  0  0  0  0999 V2000
    5.0615  -19.3823   23.6119 N   0  0  0  0  0  0  0  0  0  0  0  0
    6.3947  -19.2796   24.1278 C   0  0  0  0  0  0  0  0  0  0  0  0
    6.5595  -19.6559   25.3154 O   0  0  0  0  0  0  0  0  0  0  0  0
    7.4615  -18.7519   23.2483 C   0  0  0  0  0  0  0  0  0  0  0  0
    6.9219  -18.4095   21.9080 C   0  0  0  0  0  0  0  0  0  0  0  0
    7.9180  -17.8140   20.9477 C   0  0  2  0  0  0  0  0  0  0  0  0
    8.8624  -18.8494   20.6231 N   0  0  0  0  0  0  0  0  0  0  0  0
    8.5547  -16.6171   21.5444 C   0  0  0  0  0  0  0  0  0  0  0  0
    9.6505  -16.7885   22.1377 O   0  0  0  0  0  0  0  0  0  0  0  0
    8.0206  -15.3141   21.4919 N   0  0  0  0  0  0  0  0  0  0  0  0
    6.6961  -15.0248   20.9913 C   0  0  0  0  0  0  0  0  0  0  0  0
    6.4844  -13.5442   21.1042 C   0  0  0  0  0  0  0  0  0  0  0  0
    7.8385  -12.9665   21.2962 C   0  0  0  0  0  0  0  0  0  0  0  0
    8.6552  -14.0874   21.9038 C   0  0  1  0  0  0  0  0  0  0  0  0
    8.7633  -13.9602   23.3775 C   0  0  0  0  0  0  0  0  0  0  0  0
    8.6471  -12.8287   23.9174 O   0  0  0  0  0  0  0  0  0  0  0  0
    7.9340  -12.2351   26.6523 C   0  0  0  0  0  0  0  0  0  0  0  0
    7.1494  -13.1738   25.7406 C   0  0  2  0  0  0  0  0  0  0  0  0
    5.6702  -12.8784   25.9049 C   0  0  0  0  0  0  0  0  0  0  0  0
    7.4429  -14.6109   26.0680 C   0  0  0  0  0  0  0  0  0  0  0  0
    8.8394  -14.9666   25.7067 C   0  0  2  0  0  0  0  0  0  0  0  0
    8.9955  -15.0582   24.2466 N   0  0  0  0  0  0  0  0  0  0  0  0
    9.2923  -16.1947   26.3546 C   0  0  0  0  0  0  0  0  0  0  0  0
    9.6046  -17.2661   25.8176 O   0  0  0  0  0  0  0  0  0  0  0  0
    9.3939  -16.1802   27.7662 O   0  0  0  0  0  0  0  0  0  0  0  0
  2  3  2  0
  2  1  1  0
  4  2  1  0
  5  4  1  0
  6  5  1  0
  6  7  1  1
  8 10  1  0
  8  6  1  0
  9  8  2  0
 10 14  1  0
 11 10  1  0
 11 12  1  0
 12 13  1  0
 14 13  1  0
 14 15  1  1
 15 16  2  0
 18 17  1  1
 18 19  1  0
 20 18  1  0
 21 20  1  6
 22 21  1  0
 22 15  1  0
 23 25  1  0
 23 21  1  0
 24 23  2  0
M  END
$$$$
