QPL.pdb
     RDKit          3D

 25 25  0  0  1  0  0  0  0  0999 V2000
   12.6275  -15.2210   18.5124 N   0  0  0  0  0  0  0  0  0  0  0  0
   12.3991  -14.1493   19.4362 C   0  0  0  0  0  0  0  0  0  0  0  0
   13.4102  -13.7180   20.0452 O   0  0  0  0  0  0  0  0  0  0  0  0
   11.0221  -13.6342   19.6052 C   0  0  0  0  0  0  0  0  0  0  0  0
   10.0662  -14.3892   18.7561 C   0  0  0  0  0  0  0  0  0  0  0  0
    8.6216  -13.9881   18.9027 C   0  0  2  0  0  0  0  0  0  0  0  0
    8.5360  -12.5906   18.5729 N   0  0  0  0  0  0  0  0  0  0  0  0
    8.1410  -14.2897   20.2709 C   0  0  0  0  0  0  0  0  0  0  0  0
    8.0475  -13.3227   21.0700 O   0  0  0  0  0  0  0  0  0  0  0  0
    7.7855  -15.5732   20.7316 N   0  0  0  0  0  0  0  0  0  0  0  0
    8.0205  -16.7776   19.9683 C   0  0  0  0  0  0  0  0  0  0  0  0
    7.5222  -17.9334   20.7841 C   0  0  0  0  0  0  0  0  0  0  0  0
    6.6506  -17.3333   21.8254 C   0  0  0  0  0  0  0  0  0  0  0  0
    7.1547  -15.9142   21.9817 C   0  0  1  0  0  0  0  0  0  0  0  0
    8.0644  -15.7727   23.1446 C   0  0  0  0  0  0  0  0  0  0  0  0
    9.2737  -16.1061   23.0363 O   0  0  0  0  0  0  0  0  0  0  0  0
    5.9003  -13.1413   25.8075 C   0  0  0  0  0  0  0  0  0  0  0  0
    7.0788  -13.4422   26.7287 C   0  0  2  0  0  0  0  0  0  0  0  0
    7.1602  -12.3493   27.7780 C   0  0  0  0  0  0  0  0  0  0  0  0
    8.3616  -13.5268   25.9503 C   0  0  0  0  0  0  0  0  0  0  0  0
    8.6050  -14.9117   25.4706 C   0  0  2  0  0  0  0  0  0  0  0  0
    7.6536  -15.2727   24.4080 N   0  0  0  0  0  0  0  0  0  0  0  0
    8.5736  -15.8945   26.5505 C   0  0  0  0  0  0  0  0  0  0  0  0
    7.7226  -16.7707   26.7555 O   0  0  0  0  0  0  0  0  0  0  0  0
    9.6343  -15.8589   27.4868 O   0  0  0  0  0  0  0  0  0  0  0  0
  2  3  2  0
  2  1  1  0
  4  2  1  0
  5  4  1  0
  6  5  1  0
  6  7  1  1
  8 10  1  0
  8  6  1  0
  9  8  2  0
 10 14  1  0
 11 10  1  0
 11 12  1  0
 12 13  1  0
 14 13  1  0
 14 15  1  1
 15 16  2  0
 18 17  1  6
 18 19  1  0
 20 18  1  0
 21 20  1  1
 22 21  1  0
 22 15  1  0
 23 25  1  0
 23 21  1  0
 24 23  2  0
M  END
$$$$
