QPL.pdb
     RDKit          3D

 25 25  0  0  1  0  0  0  0  0999 V2000
   10.4055  -19.7050   22.8680 N   0  0  0  0  0  0  0  0  0  0  0  0
   11.3362  -20.0354   21.8294 C   0  0  0  0  0  0  0  0  0  0  0  0
   12.3824  -20.6300   22.1917 O   0  0  0  0  0  0  0  0  0  0  0  0
   11.0099  -19.6649   20.4344 C   0  0  0  0  0  0  0  0  0  0  0  0
    9.8090  -18.7930   20.3850 C   0  0  0  0  0  0  0  0  0  0  0  0
   10.0402  -17.4122   19.8292 C   0  0  2  0  0  0  0  0  0  0  0  0
   11.3080  -17.4375   19.1501 N   0  0  0  0  0  0  0  0  0  0  0  0
    9.9856  -16.4057   20.9145 C   0  0  0  0  0  0  0  0  0  0  0  0
   11.0838  -15.9626   21.3389 O   0  0  0  0  0  0  0  0  0  0  0  0
    8.7988  -15.9169   21.4963 N   0  0  0  0  0  0  0  0  0  0  0  0
    7.4835  -16.3631   21.0971 C   0  0  0  0  0  0  0  0  0  0  0  0
    6.4831  -15.6314   21.9419 C   0  0  0  0  0  0  0  0  0  0  0  0
    7.2262  -14.4895   22.5317 C   0  0  0  0  0  0  0  0  0  0  0  0
    8.6737  -14.9335   22.5425 C   0  0  1  0  0  0  0  0  0  0  0  0
    9.0870  -15.4482   23.8706 C   0  0  0  0  0  0  0  0  0  0  0  0
    8.8902  -16.6573   24.1613 O   0  0  0  0  0  0  0  0  0  0  0  0
    9.6659  -15.6113   29.0905 C   0  0  0  0  0  0  0  0  0  0  0  0
   10.6507  -14.5983   28.5146 C   0  0  2  0  0  0  0  0  0  0  0  0
   10.8074  -13.4619   29.5078 C   0  0  0  0  0  0  0  0  0  0  0  0
   10.1743  -14.0802   27.1868 C   0  0  0  0  0  0  0  0  0  0  0  0
   10.0956  -15.1736   26.1839 C   0  0  2  0  0  0  0  0  0  0  0  0
    9.7075  -14.6481   24.8656 N   0  0  0  0  0  0  0  0  0  0  0  0
    9.2006  -16.2515   26.5963 C   0  0  0  0  0  0  0  0  0  0  0  0
    9.5022  -17.3241   27.1371 O   0  0  0  0  0  0  0  0  0  0  0  0
    7.8174  -16.0686   26.3585 O   0  0  0  0  0  0  0  0  0  0  0  0
  2  3  2  0
  2  1  1  0
  4  2  1  0
  5  4  1  0
  6  5  1  0
  6  7  1  1
  8 10  1  0
  8  6  1  0
  9  8  2  0
 10 14  1  0
 11 10  1  0
 11 12  1  0
 12 13  1  0
 14 13  1  0
 14 15  1  1
 15 16  2  0
 18 17  1  1
 18 19  1  0
 20 18  1  0
 21 20  1  1
 22 21  1  0
 22 15  1  0
 23 25  1  0
 23 21  1  0
 24 23  2  0
M  END
$$$$
