RET.pdb
     RDKit          3D

 28 27  0  0  1  0  0  0  0  0999 V2000
   22.6145  -21.6399  -12.9098 N   0  0  0  0  0  0  0  0  0  0  0  0
   21.2907  -22.0626  -13.1945 C   0  0  0  0  0  0  0  0  0  0  0  0
   20.9055  -23.2780  -13.0091 N   0  0  0  0  0  0  0  0  0  0  0  0
   20.3430  -21.1328  -13.7007 N   0  0  0  0  0  0  0  0  0  0  0  0
   20.7239  -19.7569  -13.9274 C   0  0  0  0  0  0  0  0  0  0  0  0
   21.7459  -19.7390  -15.0441 C   0  0  0  0  0  0  0  0  0  0  0  0
   22.7711  -18.6517  -14.8817 C   0  0  0  0  0  0  0  0  0  0  0  0
   22.9663  -18.0410  -16.2729 C   0  0  2  0  0  0  0  0  0  0  0  0
   21.7209  -17.8664  -16.9528 N   0  0  0  0  0  0  0  0  0  0  0  0
   23.8245  -18.9806  -17.0799 C   0  0  0  0  0  0  0  0  0  0  0  0
   23.3370  -19.6209  -18.0577 O   0  0  0  0  0  0  0  0  0  0  0  0
   19.9214  -23.5850  -13.1447 N   0  0  0  0  0  0  0  0  0  0  0  0
   25.1808  -19.1889  -16.7939 C   0  0  2  0  0  0  0  0  0  0  0  0
   26.0059  -20.0359  -17.6694 C   0  0  0  0  0  0  0  0  0  0  0  0
   27.3061  -19.3590  -17.9237 C   0  0  0  0  0  0  0  0  0  0  0  0
   27.2984  -18.5234  -19.1574 C   0  0  0  0  0  0  0  0  0  0  0  0
   28.5493  -17.8456  -19.4914 O   0  0  0  0  0  0  0  0  0  0  0  0
   29.5638  -17.9868  -18.7906 C   0  0  0  0  0  0  0  0  0  0  0  0
   26.2439  -21.2785  -16.8931 O   0  0  0  0  0  0  0  0  0  0  0  0
   25.9715  -21.2491  -15.6643 O   0  0  0  0  0  0  0  0  0  0  0  0
   28.6299  -17.0217  -20.6105 C   0  0  0  0  0  0  0  0  0  0  0  0
   24.3732  -24.1271  -16.6932 C   0  0  2  0  0  0  0  0  0  0  0  0
   25.5548  -23.8802  -15.8177 O   0  0  0  0  0  0  0  0  0  0  0  0
   25.6786  -24.9680  -14.9556 C   0  0  1  0  0  0  0  0  0  0  0  0
   26.8248  -23.6368  -16.5557 N   0  0  0  0  0  0  0  0  0  0  0  0
   26.7463  -22.4893  -17.4265 C   0  0  0  0  0  0  0  0  0  0  0  0
   27.4054  -24.8456  -17.1930 O   0  0  0  0  0  0  0  0  0  0  0  0
   28.0779  -25.8600  -16.5572 O   0  0  0  0  0  0  0  0  0  0  0  0
  2  4  1  0
  2  1  1  0
  3  2  2  0
  5  4  1  0
  6  5  1  0
  7  8  1  0
  7  6  1  0
  8  9  1  6
 10 11  2  0
 10  8  1  0
 12 10  1  0
 13 12  1  0
 13 14  1  1
 15 14  1  0
 16 15  1  0
 17 16  2  0
 18 13  1  0
 18 25  1  0
 19 18  2  0
 20 16  1  0
 22 21  1  1
 22 24  1  0
 22 23  1  0
 24 25  1  1
 24 26  1  0
 26 27  1  0
 28 26  2  0
M  END
$$$$
