RET.pdb
     RDKit          3D

 28 27  0  0  1  0  0  0  0  0999 V2000
   18.5293  -15.1352  -15.3146 N   0  0  0  0  0  0  0  0  0  0  0  0
   18.4052  -15.8584  -16.5287 C   0  0  0  0  0  0  0  0  0  0  0  0
   18.3133  -17.1432  -16.5537 N   0  0  0  0  0  0  0  0  0  0  0  0
   18.3790  -15.1639  -17.7680 N   0  0  0  0  0  0  0  0  0  0  0  0
   18.8368  -13.7948  -17.8442 C   0  0  0  0  0  0  0  0  0  0  0  0
   17.6924  -12.9011  -17.4159 C   0  0  0  0  0  0  0  0  0  0  0  0
   18.0348  -11.4390  -17.4838 C   0  0  0  0  0  0  0  0  0  0  0  0
   18.8681  -11.1396  -16.2338 C   0  0  2  0  0  0  0  0  0  0  0  0
   18.3334  -11.7847  -15.0754 N   0  0  0  0  0  0  0  0  0  0  0  0
   18.8485   -9.6506  -16.0041 C   0  0  0  0  0  0  0  0  0  0  0  0
   17.7755   -9.0617  -15.6792 O   0  0  0  0  0  0  0  0  0  0  0  0
   18.1823  -17.6826  -17.4329 N   0  0  0  0  0  0  0  0  0  0  0  0
   19.9965   -8.8571  -16.1364 C   0  0  1  0  0  0  0  0  0  0  0  0
   19.9301   -7.4054  -15.9059 C   0  0  0  0  0  0  0  0  0  0  0  0
   21.0422   -7.0002  -15.0047 C   0  0  0  0  0  0  0  0  0  0  0  0
   21.0281   -5.5470  -14.6759 C   0  0  0  0  0  0  0  0  0  0  0  0
   22.0621   -5.0785  -13.7555 O   0  0  0  0  0  0  0  0  0  0  0  0
   22.6028   -5.8515  -12.9490 C   0  0  0  0  0  0  0  0  0  0  0  0
   20.1336   -6.7918  -17.2421 O   0  0  0  0  0  0  0  0  0  0  0  0
   20.9364   -7.3678  -18.0223 O   0  0  0  0  0  0  0  0  0  0  0  0
   22.4652   -3.7462  -13.7641 C   0  0  0  0  0  0  0  0  0  0  0  0
   18.8650   -4.2843  -21.1868 C   0  0  2  0  0  0  0  0  0  0  0  0
   18.5987   -4.7026  -19.7804 O   0  0  0  0  0  0  0  0  0  0  0  0
   17.6306   -5.7045  -19.8120 C   0  0  1  0  0  0  0  0  0  0  0  0
   19.8067   -5.1510  -19.0346 N   0  0  0  0  0  0  0  0  0  0  0  0
   19.4939   -5.6177  -17.7059 C   0  0  0  0  0  0  0  0  0  0  0  0
   20.9503   -4.2057  -19.0938 O   0  0  0  0  0  0  0  0  0  0  0  0
   21.7358   -3.9429  -20.1891 O   0  0  0  0  0  0  0  0  0  0  0  0
  2  4  1  0
  2  1  1  0
  3  2  2  0
  5  4  1  0
  6  5  1  0
  7  8  1  0
  7  6  1  0
  8  9  1  1
 10 11  2  0
 10  8  1  0
 12 10  1  0
 13 12  1  0
 13 14  1  1
 15 14  1  0
 16 15  1  0
 17 16  2  0
 18 13  1  0
 18 25  1  0
 19 18  2  0
 20 16  1  0
 22 21  1  1
 22 24  1  0
 22 23  1  0
 24 25  1  1
 24 26  1  0
 26 27  1  0
 28 26  2  0
M  END
$$$$
