RET.pdb
     RDKit          3D

 28 27  0  0  1  0  0  0  0  0999 V2000
    9.1223  -14.2796  -12.1275 N   0  0  0  0  0  0  0  0  0  0  0  0
    9.8658  -14.5953  -10.9614 C   0  0  0  0  0  0  0  0  0  0  0  0
    9.4449  -15.4467  -10.0908 N   0  0  0  0  0  0  0  0  0  0  0  0
   11.1172  -13.9646  -10.7261 N   0  0  0  0  0  0  0  0  0  0  0  0
   11.5429  -12.8612  -11.5572 C   0  0  0  0  0  0  0  0  0  0  0  0
   12.9069  -12.4179  -11.0727 C   0  0  0  0  0  0  0  0  0  0  0  0
   13.4628  -11.2663  -11.8630 C   0  0  0  0  0  0  0  0  0  0  0  0
   14.9156  -11.6324  -12.1820 C   0  0  2  0  0  0  0  0  0  0  0  0
   15.2740  -12.9016  -11.6304 N   0  0  0  0  0  0  0  0  0  0  0  0
   15.8071  -10.5788  -11.5773 C   0  0  0  0  0  0  0  0  0  0  0  0
   15.8905  -10.4478  -10.3205 O   0  0  0  0  0  0  0  0  0  0  0  0
   10.0061  -15.7321   -9.2635 N   0  0  0  0  0  0  0  0  0  0  0  0
   16.5747   -9.7067  -12.3617 C   0  0  2  0  0  0  0  0  0  0  0  0
   17.4991   -8.7528  -11.7289 C   0  0  0  0  0  0  0  0  0  0  0  0
   18.5298   -8.3382  -12.7185 C   0  0  0  0  0  0  0  0  0  0  0  0
   19.4768   -7.3197  -12.1840 C   0  0  0  0  0  0  0  0  0  0  0  0
   20.5385   -6.8815  -13.0876 O   0  0  0  0  0  0  0  0  0  0  0  0
   20.5296   -5.7451  -13.5864 C   0  0  0  0  0  0  0  0  0  0  0  0
   16.6614   -7.5802  -11.3733 O   0  0  0  0  0  0  0  0  0  0  0  0
   15.7604   -7.2497  -12.1881 O   0  0  0  0  0  0  0  0  0  0  0  0
   21.5897   -7.7353  -13.4099 C   0  0  0  0  0  0  0  0  0  0  0  0
   15.9357   -6.0306   -7.4858 C   0  0  2  0  0  0  0  0  0  0  0  0
   15.0899   -5.8989   -8.7069 O   0  0  0  0  0  0  0  0  0  0  0  0
   14.2220   -4.8269   -8.5080 C   0  0  1  0  0  0  0  0  0  0  0  0
   15.8591   -5.7355   -9.9711 N   0  0  0  0  0  0  0  0  0  0  0  0
   16.7937   -6.8120  -10.1920 C   0  0  0  0  0  0  0  0  0  0  0  0
   16.4338   -4.3808  -10.1690 O   0  0  0  0  0  0  0  0  0  0  0  0
   15.7464   -3.1922  -10.1501 O   0  0  0  0  0  0  0  0  0  0  0  0
  2  4  1  0
  2  1  1  0
  3  2  2  0
  5  4  1  0
  6  5  1  0
  7  8  1  0
  7  6  1  0
  8  9  1  1
 10 11  2  0
 10  8  1  0
 12 10  1  0
 13 12  1  0
 13 14  1  6
 15 14  1  0
 16 15  1  0
 17 16  2  0
 18 13  1  0
 18 25  1  0
 19 18  2  0
 20 16  1  0
 22 21  1  1
 22 24  1  0
 22 23  1  0
 24 25  1  1
 24 26  1  0
 26 27  1  0
 28 26  2  0
M  END
$$$$
