RET.pdb
     RDKit          3D

 28 27  0  0  1  0  0  0  0  0999 V2000
   18.6916  -24.4036   -9.2227 N   0  0  0  0  0  0  0  0  0  0  0  0
   19.0728  -23.8763   -7.9621 C   0  0  0  0  0  0  0  0  0  0  0  0
   18.6333  -24.3656   -6.8543 N   0  0  0  0  0  0  0  0  0  0  0  0
   19.9666  -22.7738   -7.8959 N   0  0  0  0  0  0  0  0  0  0  0  0
   20.4128  -22.1256   -9.1084 C   0  0  0  0  0  0  0  0  0  0  0  0
   21.4327  -21.0756   -8.7221 C   0  0  0  0  0  0  0  0  0  0  0  0
   21.7928  -20.1627   -9.8607 C   0  0  0  0  0  0  0  0  0  0  0  0
   23.0020  -20.8013  -10.5508 C   0  0  2  0  0  0  0  0  0  0  0  0
   24.1987  -20.6265   -9.7884 N   0  0  0  0  0  0  0  0  0  0  0  0
   23.1848  -20.1319  -11.8883 C   0  0  0  0  0  0  0  0  0  0  0  0
   23.7656  -19.0099  -11.9745 O   0  0  0  0  0  0  0  0  0  0  0  0
   18.9216  -24.0031   -5.9235 N   0  0  0  0  0  0  0  0  0  0  0  0
   22.7291  -20.7075  -13.0826 C   0  0  2  0  0  0  0  0  0  0  0  0
   22.9413  -20.0240  -14.3681 C   0  0  0  0  0  0  0  0  0  0  0  0
   23.2732  -21.0318  -15.4109 C   0  0  0  0  0  0  0  0  0  0  0  0
   23.5005  -20.4295  -16.7546 C   0  0  0  0  0  0  0  0  0  0  0  0
   23.7897  -21.3599  -17.8438 O   0  0  0  0  0  0  0  0  0  0  0  0
   23.7953  -22.5867  -17.6566 C   0  0  0  0  0  0  0  0  0  0  0  0
   21.6363  -19.3952  -14.6920 O   0  0  0  0  0  0  0  0  0  0  0  0
   20.5985  -19.9948  -14.3069 O   0  0  0  0  0  0  0  0  0  0  0  0
   24.0667  -20.8864  -19.1232 C   0  0  0  0  0  0  0  0  0  0  0  0
   19.7999  -16.3235  -13.5577 C   0  0  2  0  0  0  0  0  0  0  0  0
   19.8955  -16.3484  -15.0456 O   0  0  0  0  0  0  0  0  0  0  0  0
   20.9059  -15.4650  -15.4206 C   0  0  2  0  0  0  0  0  0  0  0  0
   20.1277  -17.7010  -15.6228 N   0  0  0  0  0  0  0  0  0  0  0  0
   21.4701  -18.1767  -15.3925 C   0  0  0  0  0  0  0  0  0  0  0  0
   19.6579  -17.8598  -17.0224 O   0  0  0  0  0  0  0  0  0  0  0  0
   20.4159  -18.2526  -18.0979 O   0  0  0  0  0  0  0  0  0  0  0  0
  2  4  1  0
  2  1  1  0
  3  2  2  0
  5  4  1  0
  6  5  1  0
  7  8  1  0
  7  6  1  0
  8  9  1  1
 10 11  2  0
 10  8  1  0
 12 10  1  0
 13 12  1  0
 13 14  1  1
 15 14  1  0
 16 15  1  0
 17 16  2  0
 18 13  1  0
 18 25  1  0
 19 18  2  0
 20 16  1  0
 22 21  1  6
 22 24  1  0
 22 23  1  0
 24 25  1  6
 24 26  1  0
 26 27  1  0
 28 26  2  0
M  END
$$$$
