RET.pdb
     RDKit          3D

 28 27  0  0  1  0  0  0  0  0999 V2000
   24.9752  -19.3280  -16.9110 N   0  0  0  0  0  0  0  0  0  0  0  0
   26.1901  -19.6451  -16.2508 C   0  0  0  0  0  0  0  0  0  0  0  0
   26.8932  -20.6765  -16.5695 N   0  0  0  0  0  0  0  0  0  0  0  0
   26.6654  -18.8123  -15.2022 N   0  0  0  0  0  0  0  0  0  0  0  0
   27.6262  -19.3202  -14.2491 C   0  0  0  0  0  0  0  0  0  0  0  0
   26.8774  -20.1782  -13.2516 C   0  0  0  0  0  0  0  0  0  0  0  0
   26.3774  -19.3982  -12.0678 C   0  0  0  0  0  0  0  0  0  0  0  0
   25.6935  -20.4143  -11.1480 C   0  0  2  0  0  0  0  0  0  0  0  0
   26.4295  -21.6375  -11.0722 N   0  0  0  0  0  0  0  0  0  0  0  0
   24.3283  -20.7113  -11.7122 C   0  0  0  0  0  0  0  0  0  0  0  0
   24.0157  -21.8884  -12.0593 O   0  0  0  0  0  0  0  0  0  0  0  0
   27.7378  -20.9696  -16.0386 N   0  0  0  0  0  0  0  0  0  0  0  0
   23.3537  -19.7175  -11.8780 C   0  0  1  0  0  0  0  0  0  0  0  0
   22.0019  -20.0687  -12.3405 C   0  0  0  0  0  0  0  0  0  0  0  0
   21.0193  -19.1209  -11.7494 C   0  0  0  0  0  0  0  0  0  0  0  0
   20.2628  -19.7017  -10.6046 C   0  0  0  0  0  0  0  0  0  0  0  0
   19.2897  -20.7425  -10.9294 O   0  0  0  0  0  0  0  0  0  0  0  0
   18.4084  -20.5546  -11.7828 C   0  0  0  0  0  0  0  0  0  0  0  0
   22.0365  -19.8839  -13.8129 O   0  0  0  0  0  0  0  0  0  0  0  0
   22.4586  -18.7786  -14.2432 O   0  0  0  0  0  0  0  0  0  0  0  0
   19.3310  -21.9752  -10.2840 C   0  0  0  0  0  0  0  0  0  0  0  0
   23.6983  -22.1821  -16.4313 C   0  0  2  0  0  0  0  0  0  0  0  0
   22.3797  -21.6951  -16.9292 O   0  0  0  0  0  0  0  0  0  0  0  0
   21.4991  -22.7751  -16.9235 C   0  0  2  0  0  0  0  0  0  0  0  0
   21.8210  -20.5468  -16.1638 N   0  0  0  0  0  0  0  0  0  0  0  0
   21.6383  -20.8517  -14.7656 C   0  0  0  0  0  0  0  0  0  0  0  0
   20.6495  -19.8955  -16.8025 O   0  0  0  0  0  0  0  0  0  0  0  0
   20.5868  -19.4044  -18.0833 O   0  0  0  0  0  0  0  0  0  0  0  0
  2  4  1  0
  2  1  1  0
  3  2  2  0
  5  4  1  0
  6  5  1  0
  7  8  1  0
  7  6  1  0
  8  9  1  6
 10 11  2  0
 10  8  1  0
 12 10  1  0
 13 12  1  0
 13 14  1  6
 15 14  1  0
 16 15  1  0
 17 16  2  0
 18 13  1  0
 18 25  1  0
 19 18  2  0
 20 16  1  0
 22 21  1  6
 22 24  1  0
 22 23  1  0
 24 25  1  6
 24 26  1  0
 26 27  1  0
 28 26  2  0
M  END
$$$$
