RET.pdb
     RDKit          3D

 28 27  0  0  1  0  0  0  0  0999 V2000
   11.7571  -10.0340  -11.6838 N   0  0  0  0  0  0  0  0  0  0  0  0
   11.7315  -11.4301  -11.4338 C   0  0  0  0  0  0  0  0  0  0  0  0
   10.6958  -12.0187  -10.9430 N   0  0  0  0  0  0  0  0  0  0  0  0
   12.8731  -12.2238  -11.7266 N   0  0  0  0  0  0  0  0  0  0  0  0
   14.1929  -11.6343  -11.7071 C   0  0  0  0  0  0  0  0  0  0  0  0
   14.4966  -11.1365  -13.1042 C   0  0  0  0  0  0  0  0  0  0  0  0
   15.8782  -10.5582  -13.2319 C   0  0  0  0  0  0  0  0  0  0  0  0
   16.5551  -11.3237  -14.3730 C   0  0  2  0  0  0  0  0  0  0  0  0
   16.6239  -12.7255  -14.1011 N   0  0  0  0  0  0  0  0  0  0  0  0
   17.9584  -10.7958  -14.5226 C   0  0  0  0  0  0  0  0  0  0  0  0
   18.9066  -11.2800  -13.8368 O   0  0  0  0  0  0  0  0  0  0  0  0
   10.6742  -13.0354  -10.7266 N   0  0  0  0  0  0  0  0  0  0  0  0
   18.2787   -9.7611  -15.4124 C   0  0  1  0  0  0  0  0  0  0  0  0
   19.6819   -9.3826  -15.6418 C   0  0  0  0  0  0  0  0  0  0  0  0
   19.9330   -9.2931  -17.1054 C   0  0  0  0  0  0  0  0  0  0  0  0
   21.3116   -8.8335  -17.4348 C   0  0  0  0  0  0  0  0  0  0  0  0
   21.6126   -8.6442  -18.8523 O   0  0  0  0  0  0  0  0  0  0  0  0
   20.7406   -8.8021  -19.7212 C   0  0  0  0  0  0  0  0  0  0  0  0
   19.8229   -8.0345  -15.0369 O   0  0  0  0  0  0  0  0  0  0  0  0
   18.8377   -7.2564  -15.1320 O   0  0  0  0  0  0  0  0  0  0  0  0
   22.8925   -8.2800  -19.2607 C   0  0  0  0  0  0  0  0  0  0  0  0
   20.0632   -6.9751  -11.5948 C   0  0  2  0  0  0  0  0  0  0  0  0
   21.1040   -6.2074  -12.3371 O   0  0  0  0  0  0  0  0  0  0  0  0
   22.3487   -6.7125  -11.9662 C   0  0  2  0  0  0  0  0  0  0  0  0
   20.9403   -6.2247  -13.8168 N   0  0  0  0  0  0  0  0  0  0  0  0
   20.9721   -7.5607  -14.3604 C   0  0  0  0  0  0  0  0  0  0  0  0
   21.7987   -5.2529  -14.5405 O   0  0  0  0  0  0  0  0  0  0  0  0
   21.8449   -3.8957  -14.3372 O   0  0  0  0  0  0  0  0  0  0  0  0
  2  4  1  0
  2  1  1  0
  3  2  2  0
  5  4  1  0
  6  5  1  0
  7  8  1  0
  7  6  1  0
  8  9  1  1
 10 11  2  0
 10  8  1  0
 12 10  1  0
 13 12  1  0
 13 14  1  1
 15 14  1  0
 16 15  1  0
 17 16  2  0
 18 13  1  0
 18 25  1  0
 19 18  2  0
 20 16  1  0
 22 21  1  1
 22 24  1  0
 22 23  1  0
 24 25  1  6
 24 26  1  0
 26 27  1  0
 28 26  2  0
M  END
$$$$
