TKE.pdb
     RDKit          3D

 26 25  0  0  1  0  0  0  0  0999 V2000
    8.0936  -21.6766   19.6728 C   0  0  0  0  0  0  0  0  0  0  0  0
    8.8860  -20.4863   20.1725 C   0  0  1  0  0  0  0  0  0  0  0  0
   10.2332  -20.9456   20.1853 O   0  0  0  0  0  0  0  0  0  0  0  0
    8.8436  -19.3150   19.1830 C   0  0  2  0  0  0  0  0  0  0  0  0
    9.4578  -19.8260   17.9398 N   0  0  0  0  0  0  0  0  0  0  0  0
    9.6944  -18.1816   19.5943 C   0  0  0  0  0  0  0  0  0  0  0  0
   10.9441  -18.2019   19.4048 O   0  0  0  0  0  0  0  0  0  0  0  0
    9.2200  -16.9794   20.2244 N   0  0  0  0  0  0  0  0  0  0  0  0
   10.1072  -15.9405   20.6556 C   0  0  1  0  0  0  0  0  0  0  0  0
    9.3060  -14.6229   20.6824 C   0  0  0  0  0  0  0  0  0  0  0  0
    8.8065  -14.2867   19.3113 C   0  0  0  0  0  0  0  0  0  0  0  0
    7.8430  -13.1533   19.3785 C   0  0  0  0  0  0  0  0  0  0  0  0
    7.2257  -12.8222   18.0409 C   0  0  0  0  0  0  0  0  0  0  0  0
    6.3233  -11.7027   18.2760 N   0  0  0  0  0  0  0  0  0  0  0  0
   10.7622  -16.1702   21.9678 C   0  0  0  0  0  0  0  0  0  0  0  0
   10.0874  -16.6751   22.9067 O   0  0  0  0  0  0  0  0  0  0  0  0
   12.1078  -15.8593   22.2459 N   0  0  0  0  0  0  0  0  0  0  0  0
   12.9863  -16.3632   23.2116 C   0  0  1  0  0  0  0  0  0  0  0  0
   13.0006  -17.8301   23.4343 C   0  0  0  0  0  0  0  0  0  0  0  0
   12.2968  -18.2306   24.7028 C   0  0  0  0  0  0  0  0  0  0  0  0
   12.3085  -19.6956   24.8967 C   0  0  0  0  0  0  0  0  0  0  0  0
   13.3346  -20.3963   24.7369 O   0  0  0  0  0  0  0  0  0  0  0  0
   14.3644  -15.8135   23.2025 C   0  0  0  0  0  0  0  0  0  0  0  0
   15.2235  -16.1225   24.2390 O   0  0  0  0  0  0  0  0  0  0  0  0
   11.1398  -20.3338   25.2716 O   0  0  0  0  0  0  0  0  0  0  0  0
   14.7658  -15.0864   22.2931 O   0  0  0  0  0  0  0  0  0  0  0  0
  2  3  1  0
  2  1  1  6
  4  2  1  0
  4  5  1  6
  6  4  1  0
  7  6  2  0
  8  6  1  0
  9 10  1  1
  9  8  1  0
 11 10  1  0
 11 12  1  0
 13 14  1  0
 13 12  1  0
 15  9  1  0
 16 15  2  0
 17 15  1  0
 18 17  1  0
 19 20  1  0
 18 19  1  6
 20 21  1  0
 21 25  1  0
 21 22  2  0
 23 18  1  0
 23 24  1  0
 26 23  2  0
M  END
$$$$
