TKE.pdb
     RDKit          3D

 26 25  0  0  1  0  0  0  0  0999 V2000
   12.4406  -19.7383   18.8238 C   0  0  0  0  0  0  0  0  0  0  0  0
   11.9412  -18.3602   18.4415 C   0  0  1  0  0  0  0  0  0  0  0  0
   11.9761  -18.3598   17.0185 O   0  0  0  0  0  0  0  0  0  0  0  0
   10.4723  -18.1554   18.8327 C   0  0  2  0  0  0  0  0  0  0  0  0
   10.1094  -16.8184   18.3182 N   0  0  0  0  0  0  0  0  0  0  0  0
   10.2702  -18.0734   20.2922 C   0  0  0  0  0  0  0  0  0  0  0  0
   10.7683  -17.1277   20.9673 O   0  0  0  0  0  0  0  0  0  0  0  0
    9.5155  -19.0139   21.0752 N   0  0  0  0  0  0  0  0  0  0  0  0
    9.5324  -19.0041   22.5077 C   0  0  1  0  0  0  0  0  0  0  0  0
    8.6018  -20.1339   22.9938 C   0  0  0  0  0  0  0  0  0  0  0  0
    8.6635  -20.2571   24.4848 C   0  0  0  0  0  0  0  0  0  0  0  0
    7.7453  -21.3330   24.9505 C   0  0  0  0  0  0  0  0  0  0  0  0
    7.7656  -21.5199   26.4487 C   0  0  0  0  0  0  0  0  0  0  0  0
    6.7220  -22.4906   26.7510 N   0  0  0  0  0  0  0  0  0  0  0  0
   10.8744  -19.1417   23.1270 C   0  0  0  0  0  0  0  0  0  0  0  0
   11.6266  -20.0821   22.7508 O   0  0  0  0  0  0  0  0  0  0  0  0
   11.3784  -18.2823   24.1231 N   0  0  0  0  0  0  0  0  0  0  0  0
   12.5905  -18.2975   24.8221 C   0  0  1  0  0  0  0  0  0  0  0  0
   13.6119  -17.2854   24.4560 C   0  0  0  0  0  0  0  0  0  0  0  0
   13.8898  -17.2512   22.9773 C   0  0  0  0  0  0  0  0  0  0  0  0
   14.8683  -16.2003   22.6279 C   0  0  0  0  0  0  0  0  0  0  0  0
   15.2602  -15.9962   21.4556 O   0  0  0  0  0  0  0  0  0  0  0  0
   12.5023  -18.4550   26.2947 C   0  0  0  0  0  0  0  0  0  0  0  0
   13.6478  -18.7293   27.0162 O   0  0  0  0  0  0  0  0  0  0  0  0
   15.3823  -15.3993   23.6318 O   0  0  0  0  0  0  0  0  0  0  0  0
   11.4321  -18.3475   26.8948 O   0  0  0  0  0  0  0  0  0  0  0  0
  2  3  1  0
  2  1  1  6
  4  2  1  0
  4  5  1  6
  6  4  1  0
  7  6  2  0
  8  6  1  0
  9 10  1  1
  9  8  1  0
 11 10  1  0
 11 12  1  0
 13 14  1  0
 13 12  1  0
 15  9  1  0
 16 15  2  0
 17 15  1  0
 18 17  1  0
 19 20  1  0
 18 19  1  1
 20 21  1  0
 21 25  1  0
 21 22  2  0
 23 18  1  0
 23 24  1  0
 26 23  2  0
M  END
$$$$
