TKE.pdb
     RDKit          3D

 26 25  0  0  1  0  0  0  0  0999 V2000
    8.8597  -21.5904   18.0830 C   0  0  0  0  0  0  0  0  0  0  0  0
    9.4766  -20.5292   18.9705 C   0  0  1  0  0  0  0  0  0  0  0  0
   10.8326  -20.9387   19.1116 O   0  0  0  0  0  0  0  0  0  0  0  0
    9.5137  -19.1589   18.2823 C   0  0  2  0  0  0  0  0  0  0  0  0
   10.3650  -19.3399   17.0879 N   0  0  0  0  0  0  0  0  0  0  0  0
   10.1958  -18.1274   19.0875 C   0  0  0  0  0  0  0  0  0  0  0  0
   11.4235  -17.8765   18.9212 O   0  0  0  0  0  0  0  0  0  0  0  0
    9.5694  -17.3250   20.1030 N   0  0  0  0  0  0  0  0  0  0  0  0
   10.2777  -16.3043   20.8163 C   0  0  1  0  0  0  0  0  0  0  0  0
    9.2525  -15.2322   21.2389 C   0  0  0  0  0  0  0  0  0  0  0  0
    8.7576  -14.4813   20.0417 C   0  0  0  0  0  0  0  0  0  0  0  0
    7.6622  -13.5520   20.4341 C   0  0  0  0  0  0  0  0  0  0  0  0
    7.2166  -12.6535   19.3053 C   0  0  0  0  0  0  0  0  0  0  0  0
    6.1357  -11.8357   19.8397 N   0  0  0  0  0  0  0  0  0  0  0  0
   11.0470  -16.7729   21.9963 C   0  0  0  0  0  0  0  0  0  0  0  0
   10.4944  -17.5622   22.8108 O   0  0  0  0  0  0  0  0  0  0  0  0
   12.3739  -16.3928   22.2778 N   0  0  0  0  0  0  0  0  0  0  0  0
   13.2374  -16.7693   23.3127 C   0  0  1  0  0  0  0  0  0  0  0  0
   14.6726  -16.4178   23.1772 C   0  0  0  0  0  0  0  0  0  0  0  0
   15.5201  -17.0106   24.2704 C   0  0  0  0  0  0  0  0  0  0  0  0
   16.9486  -16.6714   24.1011 C   0  0  0  0  0  0  0  0  0  0  0  0
   17.7820  -17.4612   23.6002 O   0  0  0  0  0  0  0  0  0  0  0  0
   12.7584  -16.5242   24.6953 C   0  0  0  0  0  0  0  0  0  0  0  0
   13.1868  -17.3496   25.7166 O   0  0  0  0  0  0  0  0  0  0  0  0
   17.3979  -15.4287   24.5104 O   0  0  0  0  0  0  0  0  0  0  0  0
   11.9863  -15.6018   24.9595 O   0  0  0  0  0  0  0  0  0  0  0  0
  2  3  1  0
  2  1  1  6
  4  2  1  0
  4  5  1  6
  6  4  1  0
  7  6  2  0
  8  6  1  0
  9 10  1  1
  9  8  1  0
 11 10  1  0
 11 12  1  0
 13 14  1  0
 13 12  1  0
 15  9  1  0
 16 15  2  0
 17 15  1  0
 18 17  1  0
 19 20  1  0
 18 19  1  6
 20 21  1  0
 21 25  1  0
 21 22  2  0
 23 18  1  0
 23 24  1  0
 26 23  2  0
M  END
$$$$
