TKE.pdb
     RDKit          3D

 26 25  0  0  1  0  0  0  0  0999 V2000
   15.5021  -16.3240   15.3366 C   0  0  0  0  0  0  0  0  0  0  0  0
   14.6225  -16.0697   16.5433 C   0  0  1  0  0  0  0  0  0  0  0  0
   15.4711  -16.3355   17.6548 O   0  0  0  0  0  0  0  0  0  0  0  0
   14.2200  -14.5939   16.6567 C   0  0  2  0  0  0  0  0  0  0  0  0
   15.4861  -13.8516   16.8300 N   0  0  0  0  0  0  0  0  0  0  0  0
   13.4342  -14.3022   17.8712 C   0  0  0  0  0  0  0  0  0  0  0  0
   13.9995  -14.1385   18.9900 O   0  0  0  0  0  0  0  0  0  0  0  0
   12.0029  -14.1730   17.9171 N   0  0  0  0  0  0  0  0  0  0  0  0
   11.2767  -14.1446   19.1516 C   0  0  1  0  0  0  0  0  0  0  0  0
    9.7779  -14.0197   18.8094 C   0  0  0  0  0  0  0  0  0  0  0  0
    8.9600  -13.9464   20.0616 C   0  0  0  0  0  0  0  0  0  0  0  0
    7.5088  -13.9300   19.7278 C   0  0  0  0  0  0  0  0  0  0  0  0
    6.6231  -13.8318   20.9467 C   0  0  0  0  0  0  0  0  0  0  0  0
    5.2536  -13.7908   20.4513 N   0  0  0  0  0  0  0  0  0  0  0  0
   11.5040  -15.3059   20.0479 C   0  0  0  0  0  0  0  0  0  0  0  0
   11.3684  -16.4710   19.5833 O   0  0  0  0  0  0  0  0  0  0  0  0
   11.8667  -15.1993   21.4049 N   0  0  0  0  0  0  0  0  0  0  0  0
   12.1381  -16.1824   22.3632 C   0  0  1  0  0  0  0  0  0  0  0  0
   13.5097  -16.2380   22.9264 C   0  0  0  0  0  0  0  0  0  0  0  0
   14.5688  -16.3493   21.8630 C   0  0  0  0  0  0  0  0  0  0  0  0
   15.8810  -15.8689   22.3442 C   0  0  0  0  0  0  0  0  0  0  0  0
   16.9243  -15.9294   21.6534 O   0  0  0  0  0  0  0  0  0  0  0  0
   11.1194  -16.3690   23.4254 C   0  0  0  0  0  0  0  0  0  0  0  0
   11.2741  -17.3929   24.3396 O   0  0  0  0  0  0  0  0  0  0  0  0
   15.9743  -15.3259   23.6131 O   0  0  0  0  0  0  0  0  0  0  0  0
   10.1354  -15.6338   23.5158 O   0  0  0  0  0  0  0  0  0  0  0  0
  2  3  1  0
  2  1  1  6
  4  2  1  0
  4  5  1  1
  6  4  1  0
  7  6  2  0
  8  6  1  0
  9 10  1  6
  9  8  1  0
 11 10  1  0
 11 12  1  0
 13 14  1  0
 13 12  1  0
 15  9  1  0
 16 15  2  0
 17 15  1  0
 18 17  1  0
 19 20  1  0
 18 19  1  1
 20 21  1  0
 21 25  1  0
 21 22  2  0
 23 18  1  0
 23 24  1  0
 26 23  2  0
M  END
$$$$
