TKE.pdb
     RDKit          3D

 26 25  0  0  1  0  0  0  0  0999 V2000
    7.6529  -14.6948   17.2033 C   0  0  0  0  0  0  0  0  0  0  0  0
    7.8868  -14.8145   18.6952 C   0  0  1  0  0  0  0  0  0  0  0  0
    9.1883  -15.3814   18.7990 O   0  0  0  0  0  0  0  0  0  0  0  0
    7.9637  -13.4412   19.3739 C   0  0  2  0  0  0  0  0  0  0  0  0
    9.0690  -12.7288   18.6994 N   0  0  0  0  0  0  0  0  0  0  0  0
    8.3660  -13.5202   20.7915 C   0  0  0  0  0  0  0  0  0  0  0  0
    9.5796  -13.6564   21.1183 O   0  0  0  0  0  0  0  0  0  0  0  0
    7.4655  -13.4506   21.9103 N   0  0  0  0  0  0  0  0  0  0  0  0
    7.9059  -13.6439   23.2597 C   0  0  1  0  0  0  0  0  0  0  0  0
    6.8680  -12.9824   24.1893 C   0  0  0  0  0  0  0  0  0  0  0  0
    7.3345  -13.0298   25.6114 C   0  0  0  0  0  0  0  0  0  0  0  0
    6.3521  -12.3467   26.4980 C   0  0  0  0  0  0  0  0  0  0  0  0
    6.7909  -12.3015   27.9421 C   0  0  0  0  0  0  0  0  0  0  0  0
    5.6857  -11.7092   28.6839 N   0  0  0  0  0  0  0  0  0  0  0  0
    8.1261  -15.0567   23.6586 C   0  0  0  0  0  0  0  0  0  0  0  0
    7.6632  -15.9761   22.9290 O   0  0  0  0  0  0  0  0  0  0  0  0
    8.8273  -15.4527   24.8145 N   0  0  0  0  0  0  0  0  0  0  0  0
    9.8018  -16.4388   25.0050 C   0  0  1  0  0  0  0  0  0  0  0  0
   10.9038  -16.5214   24.0149 C   0  0  0  0  0  0  0  0  0  0  0  0
   10.6691  -17.5825   22.9738 C   0  0  0  0  0  0  0  0  0  0  0  0
   11.8003  -17.6816   22.0279 C   0  0  0  0  0  0  0  0  0  0  0  0
   11.6460  -17.7763   20.7883 O   0  0  0  0  0  0  0  0  0  0  0  0
   10.3158  -16.6017   26.3872 C   0  0  0  0  0  0  0  0  0  0  0  0
   10.5590  -17.8713   26.8740 O   0  0  0  0  0  0  0  0  0  0  0  0
   13.0926  -17.6706   22.5213 O   0  0  0  0  0  0  0  0  0  0  0  0
   10.5327  -15.6329   27.1161 O   0  0  0  0  0  0  0  0  0  0  0  0
  2  3  1  0
  2  1  1  6
  4  2  1  0
  4  5  1  6
  6  4  1  0
  7  6  2  0
  8  6  1  0
  9 10  1  1
  9  8  1  0
 11 10  1  0
 11 12  1  0
 13 14  1  0
 13 12  1  0
 15  9  1  0
 16 15  2  0
 17 15  1  0
 18 17  1  0
 19 20  1  0
 18 19  1  6
 20 21  1  0
 21 25  1  0
 21 22  2  0
 23 18  1  0
 23 24  1  0
 26 23  2  0
M  END
$$$$
