TKE.pdb
     RDKit          3D

 26 25  0  0  1  0  0  0  0  0999 V2000
   16.2926  -20.9054   17.6101 C   0  0  0  0  0  0  0  0  0  0  0  0
   16.1166  -19.8750   16.5137 C   0  0  1  0  0  0  0  0  0  0  0  0
   16.5135  -20.5565   15.3287 O   0  0  0  0  0  0  0  0  0  0  0  0
   14.6434  -19.4967   16.3156 C   0  0  2  0  0  0  0  0  0  0  0  0
   14.6270  -18.5569   15.1752 N   0  0  0  0  0  0  0  0  0  0  0  0
   14.0862  -18.7345   17.4497 C   0  0  0  0  0  0  0  0  0  0  0  0
   14.6021  -17.6401   17.8161 O   0  0  0  0  0  0  0  0  0  0  0  0
   12.9438  -19.1297   18.2283 N   0  0  0  0  0  0  0  0  0  0  0  0
   12.5253  -18.4082   19.3930 C   0  0  1  0  0  0  0  0  0  0  0  0
   11.1518  -18.9654   19.8195 C   0  0  0  0  0  0  0  0  0  0  0  0
   10.0820  -18.4909   18.8853 C   0  0  0  0  0  0  0  0  0  0  0  0
    8.7894  -19.1592   19.2016 C   0  0  0  0  0  0  0  0  0  0  0  0
    7.6813  -18.7846   18.2469 C   0  0  0  0  0  0  0  0  0  0  0  0
    6.5477  -19.6343   18.5872 N   0  0  0  0  0  0  0  0  0  0  0  0
   13.4720  -18.4449   20.5358 C   0  0  0  0  0  0  0  0  0  0  0  0
   13.8548  -19.5638   20.9755 O   0  0  0  0  0  0  0  0  0  0  0  0
   13.9834  -17.2996   21.1771 N   0  0  0  0  0  0  0  0  0  0  0  0
   14.8811  -17.1670   22.2424 C   0  0  1  0  0  0  0  0  0  0  0  0
   16.1067  -16.3616   22.0169 C   0  0  0  0  0  0  0  0  0  0  0  0
   17.0816  -16.4575   23.1594 C   0  0  0  0  0  0  0  0  0  0  0  0
   18.3292  -15.7169   22.8786 C   0  0  0  0  0  0  0  0  0  0  0  0
   18.3626  -14.6779   22.1796 O   0  0  0  0  0  0  0  0  0  0  0  0
   14.2906  -16.8754   23.5719 C   0  0  0  0  0  0  0  0  0  0  0  0
   12.9907  -16.4145   23.6491 O   0  0  0  0  0  0  0  0  0  0  0  0
   19.5206  -16.1820   23.4058 O   0  0  0  0  0  0  0  0  0  0  0  0
   14.9292  -17.0332   24.6131 O   0  0  0  0  0  0  0  0  0  0  0  0
  2  3  1  0
  2  1  1  1
  4  2  1  0
  4  5  1  6
  6  4  1  0
  7  6  2  0
  8  6  1  0
  9 10  1  1
  9  8  1  0
 11 10  1  0
 11 12  1  0
 13 14  1  0
 13 12  1  0
 15  9  1  0
 16 15  2  0
 17 15  1  0
 18 17  1  0
 19 20  1  0
 18 19  1  6
 20 21  1  0
 21 25  1  0
 21 22  2  0
 23 18  1  0
 23 24  1  0
 26 23  2  0
M  END
$$$$
