TKE.pdb
     RDKit          3D

 26 25  0  0  1  0  0  0  0  0999 V2000
    4.8023  -21.1238   24.6927 C   0  0  0  0  0  0  0  0  0  0  0  0
    5.7653  -20.0622   24.2026 C   0  0  1  0  0  0  0  0  0  0  0  0
    7.0420  -20.6862   24.2841 O   0  0  0  0  0  0  0  0  0  0  0  0
    5.5456  -19.7310   22.7211 C   0  0  2  0  0  0  0  0  0  0  0  0
    5.7393  -21.0056   21.9987 N   0  0  0  0  0  0  0  0  0  0  0  0
    6.5708  -18.8205   22.1756 C   0  0  0  0  0  0  0  0  0  0  0  0
    7.6265  -19.2702   21.6452 O   0  0  0  0  0  0  0  0  0  0  0  0
    6.4874  -17.3851   22.1816 N   0  0  0  0  0  0  0  0  0  0  0  0
    7.5933  -16.5532   21.8114 C   0  0  1  0  0  0  0  0  0  0  0  0
    7.0211  -15.2781   21.1589 C   0  0  0  0  0  0  0  0  0  0  0  0
    8.1227  -14.4533   20.5686 C   0  0  0  0  0  0  0  0  0  0  0  0
    7.5548  -13.3127   19.7978 C   0  0  0  0  0  0  0  0  0  0  0  0
    8.5967  -12.5536   19.0116 C   0  0  0  0  0  0  0  0  0  0  0  0
    7.8656  -11.6265   18.1581 N   0  0  0  0  0  0  0  0  0  0  0  0
    8.5153  -16.1945   22.9181 C   0  0  0  0  0  0  0  0  0  0  0  0
    8.0491  -15.6151   23.9373 O   0  0  0  0  0  0  0  0  0  0  0  0
    9.8990  -16.4591   22.9127 N   0  0  0  0  0  0  0  0  0  0  0  0
   10.8826  -16.2262   23.8805 C   0  0  1  0  0  0  0  0  0  0  0  0
   10.9015  -17.1095   25.0726 C   0  0  0  0  0  0  0  0  0  0  0  0
   11.0467  -18.5639   24.7139 C   0  0  0  0  0  0  0  0  0  0  0  0
   11.1040  -19.4216   25.9161 C   0  0  0  0  0  0  0  0  0  0  0  0
   11.0958  -18.9629   27.0818 O   0  0  0  0  0  0  0  0  0  0  0  0
   12.2572  -15.9796   23.3798 C   0  0  0  0  0  0  0  0  0  0  0  0
   13.2356  -15.5667   24.2631 O   0  0  0  0  0  0  0  0  0  0  0  0
   11.1700  -20.7945   25.7602 O   0  0  0  0  0  0  0  0  0  0  0  0
   12.5520  -16.1332   22.1940 O   0  0  0  0  0  0  0  0  0  0  0  0
  2  3  1  0
  2  1  1  6
  4  2  1  0
  4  5  1  6
  6  4  1  0
  7  6  2  0
  8  6  1  0
  9 10  1  1
  9  8  1  0
 11 10  1  0
 11 12  1  0
 13 14  1  0
 13 12  1  0
 15  9  1  0
 16 15  2  0
 17 15  1  0
 18 17  1  0
 19 20  1  0
 18 19  1  1
 20 21  1  0
 21 25  1  0
 21 22  2  0
 23 18  1  0
 23 24  1  0
 26 23  2  0
M  END
$$$$
