IQK.pdb
     RDKit          3D

 27 26  0  0  1  0  0  0  0  0999 V2000
   27.8706  -17.5619  -16.1549 C   0  0  0  0  0  0  0  0  0  0  0  0
   26.5512  -17.1685  -15.5332 C   0  0  0  0  0  0  0  0  0  0  0  0
   25.9537  -15.9334  -16.1704 C   0  0  2  0  0  0  0  0  0  0  0  0
   26.6763  -14.6921  -15.6232 C   0  0  0  0  0  0  0  0  0  0  0  0
   24.5329  -15.8025  -15.7757 C   0  0  2  0  0  0  0  0  0  0  0  0
   23.8394  -17.0724  -15.9893 N   0  0  0  0  0  0  0  0  0  0  0  0
   23.7665  -14.7089  -16.3484 C   0  0  0  0  0  0  0  0  0  0  0  0
   24.1521  -13.5302  -16.1373 O   0  0  0  0  0  0  0  0  0  0  0  0
   19.6618  -15.5609  -20.7075 N   0  0  0  0  0  0  0  0  0  0  0  0
   19.3314  -14.1881  -20.5065 C   0  0  0  0  0  0  0  0  0  0  0  0
   18.4058  -13.6966  -21.1887 O   0  0  0  0  0  0  0  0  0  0  0  0
   20.1003  -13.3811  -19.4901 C   0  0  0  0  0  0  0  0  0  0  0  0
   21.0427  -14.3194  -18.8270 C   0  0  0  0  0  0  0  0  0  0  0  0
   21.8864  -13.7629  -17.7374 C   0  0  2  0  0  0  0  0  0  0  0  0
   22.6034  -14.8544  -17.1387 N   0  0  0  0  0  0  0  0  0  0  0  0
   21.1998  -12.8938  -16.7750 C   0  0  0  0  0  0  0  0  0  0  0  0
   20.6491  -13.4184  -15.7470 O   0  0  0  0  0  0  0  0  0  0  0  0
   21.1099  -11.4952  -16.9186 N   0  0  0  0  0  0  0  0  0  0  0  0
   20.4644  -10.6431  -15.8488 C   0  0  1  0  0  0  0  0  0  0  0  0
   21.2467   -9.4128  -15.7465 C   0  0  0  0  0  0  0  0  0  0  0  0
   20.8750   -8.3290  -14.8736 C   0  0  0  0  0  0  0  0  0  0  0  0
   21.6322   -7.0592  -14.8466 C   0  0  0  0  0  0  0  0  0  0  0  0
   21.2084   -6.0866  -13.7640 C   0  0  0  0  0  0  0  0  0  0  0  0
   21.7690   -4.7826  -13.8739 N   0  0  0  0  0  0  0  0  0  0  0  0
   19.0511  -10.6609  -16.1642 C   0  0  0  0  0  0  0  0  0  0  0  0
   18.1758  -10.4102  -15.2425 O   0  0  0  0  0  0  0  0  0  0  0  0
   18.4812  -10.9151  -17.3844 O   0  0  0  0  0  0  0  0  0  0  0  0
  2  1  1  0
  3  5  1  0
  3  2  1  0
  3  4  1  1
  5  6  1  6
  7  8  2  0
  7  5  1  0
  9 10  1  0
 10 11  2  0
 10 12  1  0
 12 13  1  0
 14 13  1  6
 14 15  1  0
 15  7  1  0
 16 14  1  0
 17 16  2  0
 18 16  1  0
 19 18  1  0
 19 25  1  0
 20 21  1  0
 19 20  1  6
 22 21  1  0
 23 24  1  0
 23 22  1  0
 25 27  1  0
 26 25  2  0
M  END
$$$$
