IQK.pdb
     RDKit          3D

 27 26  0  0  1  0  0  0  0  0999 V2000
   30.3236  -25.1340  -16.5401 C   0  0  0  0  0  0  0  0  0  0  0  0
   28.9022  -24.6817  -16.7789 C   0  0  0  0  0  0  0  0  0  0  0  0
   27.9348  -25.8394  -16.8899 C   0  0  2  0  0  0  0  0  0  0  0  0
   28.2982  -26.6745  -18.1281 C   0  0  0  0  0  0  0  0  0  0  0  0
   26.5637  -25.3278  -17.1138 C   0  0  2  0  0  0  0  0  0  0  0  0
   26.1844  -24.4306  -16.0228 N   0  0  0  0  0  0  0  0  0  0  0  0
   25.5083  -26.2965  -17.3578 C   0  0  0  0  0  0  0  0  0  0  0  0
   25.0871  -26.9820  -16.3907 O   0  0  0  0  0  0  0  0  0  0  0  0
   21.6812  -26.0102  -21.9613 N   0  0  0  0  0  0  0  0  0  0  0  0
   21.2448  -27.3016  -21.5416 C   0  0  0  0  0  0  0  0  0  0  0  0
   20.2675  -27.8153  -22.1286 O   0  0  0  0  0  0  0  0  0  0  0  0
   21.9665  -27.9987  -20.4153 C   0  0  0  0  0  0  0  0  0  0  0  0
   23.0545  -27.0860  -19.9779 C   0  0  0  0  0  0  0  0  0  0  0  0
   23.8990  -27.5451  -18.8444 C   0  0  2  0  0  0  0  0  0  0  0  0
   24.8996  -26.5412  -18.6100 N   0  0  0  0  0  0  0  0  0  0  0  0
   24.4284  -28.9093  -18.9507 C   0  0  0  0  0  0  0  0  0  0  0  0
   25.6903  -29.0785  -19.0709 O   0  0  0  0  0  0  0  0  0  0  0  0
   23.6171  -30.0608  -18.9280 N   0  0  0  0  0  0  0  0  0  0  0  0
   24.1623  -31.3874  -18.4482 C   0  0  1  0  0  0  0  0  0  0  0  0
   24.8283  -31.1437  -17.1702 C   0  0  0  0  0  0  0  0  0  0  0  0
   25.3027  -32.2116  -16.3280 C   0  0  0  0  0  0  0  0  0  0  0  0
   26.7396  -32.3796  -16.0225 C   0  0  0  0  0  0  0  0  0  0  0  0
   27.0826  -33.6280  -15.2343 C   0  0  0  0  0  0  0  0  0  0  0  0
   28.4753  -33.8620  -15.0543 N   0  0  0  0  0  0  0  0  0  0  0  0
   23.0637  -32.3177  -18.6058 C   0  0  0  0  0  0  0  0  0  0  0  0
   23.2885  -33.5936  -18.6181 O   0  0  0  0  0  0  0  0  0  0  0  0
   21.7353  -32.0100  -18.7438 O   0  0  0  0  0  0  0  0  0  0  0  0
  2  1  1  0
  3  5  1  0
  3  2  1  0
  3  4  1  6
  5  6  1  1
  7  8  2  0
  7  5  1  0
  9 10  1  0
 10 11  2  0
 10 12  1  0
 12 13  1  0
 14 13  1  6
 14 15  1  0
 15  7  1  0
 16 14  1  0
 17 16  2  0
 18 16  1  0
 19 18  1  0
 19 25  1  0
 20 21  1  0
 19 20  1  1
 22 21  1  0
 23 24  1  0
 23 22  1  0
 25 27  1  0
 26 25  2  0
M  END
$$$$
