IQK.pdb
     RDKit          3D

 27 26  0  0  1  0  0  0  0  0999 V2000
   26.4264  -18.3080  -16.0082 C   0  0  0  0  0  0  0  0  0  0  0  0
   25.5457  -17.2090  -16.5546 C   0  0  0  0  0  0  0  0  0  0  0  0
   26.0523  -15.8282  -16.2006 C   0  0  2  0  0  0  0  0  0  0  0  0
   25.9617  -15.6403  -14.6778 C   0  0  0  0  0  0  0  0  0  0  0  0
   25.1740  -14.8012  -16.8053 C   0  0  2  0  0  0  0  0  0  0  0  0
   25.1873  -14.9320  -18.2619 N   0  0  0  0  0  0  0  0  0  0  0  0
   25.3860  -13.4153  -16.4232 C   0  0  0  0  0  0  0  0  0  0  0  0
   25.1149  -13.0691  -15.2446 O   0  0  0  0  0  0  0  0  0  0  0  0
   29.6414   -9.8699  -18.4355 N   0  0  0  0  0  0  0  0  0  0  0  0
   28.8919   -8.7849  -17.8921 C   0  0  0  0  0  0  0  0  0  0  0  0
   29.3867   -7.6379  -17.9478 O   0  0  0  0  0  0  0  0  0  0  0  0
   27.5422   -9.0517  -17.2737 C   0  0  0  0  0  0  0  0  0  0  0  0
   27.2698  -10.5010  -17.4563 C   0  0  0  0  0  0  0  0  0  0  0  0
   25.9861  -11.0153  -16.9117 C   0  0  2  0  0  0  0  0  0  0  0  0
   25.8811  -12.4013  -17.2748 N   0  0  0  0  0  0  0  0  0  0  0  0
   24.7932  -10.2196  -17.2223 C   0  0  0  0  0  0  0  0  0  0  0  0
   24.4783  -10.0239  -18.4462 O   0  0  0  0  0  0  0  0  0  0  0  0
   23.9620   -9.6499  -16.2378 N   0  0  0  0  0  0  0  0  0  0  0  0
   22.7390   -8.8472  -16.6213 C   0  0  1  0  0  0  0  0  0  0  0  0
   21.5987   -9.7612  -16.6006 C   0  0  0  0  0  0  0  0  0  0  0  0
   20.2487   -9.3209  -16.8419 C   0  0  0  0  0  0  0  0  0  0  0  0
   19.0998  -10.2456  -16.7360 C   0  0  0  0  0  0  0  0  0  0  0  0
   17.7578   -9.6397  -17.0960 C   0  0  0  0  0  0  0  0  0  0  0  0
   16.6316  -10.4657  -16.8201 N   0  0  0  0  0  0  0  0  0  0  0  0
   22.8119   -7.6507  -15.8086 C   0  0  0  0  0  0  0  0  0  0  0  0
   21.9344   -6.7091  -15.9572 O   0  0  0  0  0  0  0  0  0  0  0  0
   23.7371   -7.3677  -14.8379 O   0  0  0  0  0  0  0  0  0  0  0  0
  2  1  1  0
  3  5  1  0
  3  2  1  0
  3  4  1  1
  5  6  1  6
  7  8  2  0
  7  5  1  0
  9 10  1  0
 10 11  2  0
 10 12  1  0
 12 13  1  0
 14 13  1  6
 14 15  1  0
 15  7  1  0
 16 14  1  0
 17 16  2  0
 18 16  1  0
 19 18  1  0
 19 25  1  0
 20 21  1  0
 19 20  1  1
 22 21  1  0
 23 24  1  0
 23 22  1  0
 25 27  1  0
 26 25  2  0
M  END
$$$$
