IQK.pdb
     RDKit          3D

 27 26  0  0  1  0  0  0  0  0999 V2000
   29.0597  -18.7729  -18.9651 C   0  0  0  0  0  0  0  0  0  0  0  0
   28.1669  -18.2025  -17.8882 C   0  0  0  0  0  0  0  0  0  0  0  0
   27.5230  -19.2756  -17.0384 C   0  0  2  0  0  0  0  0  0  0  0  0
   26.6711  -20.1814  -17.9419 C   0  0  0  0  0  0  0  0  0  0  0  0
   26.5940  -18.6558  -16.0665 C   0  0  2  0  0  0  0  0  0  0  0  0
   27.3143  -17.6887  -15.2388 N   0  0  0  0  0  0  0  0  0  0  0  0
   25.7972  -19.5377  -15.2305 C   0  0  0  0  0  0  0  0  0  0  0  0
   25.0866  -20.4135  -15.7878 O   0  0  0  0  0  0  0  0  0  0  0  0
   26.5869  -20.1632   -9.2640 N   0  0  0  0  0  0  0  0  0  0  0  0
   25.3237  -20.8252   -9.2824 C   0  0  0  0  0  0  0  0  0  0  0  0
   24.8856  -21.2931   -8.2087 O   0  0  0  0  0  0  0  0  0  0  0  0
   24.5651  -20.9399  -10.5811 C   0  0  0  0  0  0  0  0  0  0  0  0
   25.4093  -20.3022  -11.6245 C   0  0  0  0  0  0  0  0  0  0  0  0
   24.8783  -20.3093  -13.0126 C   0  0  2  0  0  0  0  0  0  0  0  0
   25.7494  -19.4992  -13.8182 N   0  0  0  0  0  0  0  0  0  0  0  0
   23.4539  -19.9878  -13.1559 C   0  0  0  0  0  0  0  0  0  0  0  0
   23.0876  -18.7629  -13.1278 O   0  0  0  0  0  0  0  0  0  0  0  0
   22.4511  -20.9627  -13.3251 N   0  0  0  0  0  0  0  0  0  0  0  0
   20.9949  -20.5700  -13.4362 C   0  0  1  0  0  0  0  0  0  0  0  0
   20.3528  -21.5389  -14.3224 C   0  0  0  0  0  0  0  0  0  0  0  0
   18.9597  -21.4579  -14.6790 C   0  0  0  0  0  0  0  0  0  0  0  0
   18.3284  -22.4511  -15.5742 C   0  0  0  0  0  0  0  0  0  0  0  0
   16.8706  -22.1861  -15.8939 C   0  0  0  0  0  0  0  0  0  0  0  0
   16.2120  -23.2282  -16.6061 N   0  0  0  0  0  0  0  0  0  0  0  0
   20.5688  -20.3389  -12.0715 C   0  0  0  0  0  0  0  0  0  0  0  0
   21.1094  -21.0039  -11.0999 O   0  0  0  0  0  0  0  0  0  0  0  0
   19.6175  -19.4500  -11.6435 O   0  0  0  0  0  0  0  0  0  0  0  0
  2  1  1  0
  3  5  1  0
  3  2  1  0
  3  4  1  6
  5  6  1  1
  7  8  2  0
  7  5  1  0
  9 10  1  0
 10 11  2  0
 10 12  1  0
 12 13  1  0
 14 13  1  1
 14 15  1  0
 15  7  1  0
 16 14  1  0
 17 16  2  0
 18 16  1  0
 19 18  1  0
 19 25  1  0
 20 21  1  0
 19 20  1  1
 22 21  1  0
 23 24  1  0
 23 22  1  0
 25 27  1  0
 26 25  2  0
M  END
$$$$
