IQK.pdb
     RDKit          3D

 27 26  0  0  1  0  0  0  0  0999 V2000
   19.7461  -23.3619  -12.8403 C   0  0  0  0  0  0  0  0  0  0  0  0
   18.8922  -23.4193  -11.5955 C   0  0  0  0  0  0  0  0  0  0  0  0
   19.2430  -24.5898  -10.7035 C   0  0  2  0  0  0  0  0  0  0  0  0
   18.9650  -25.8960  -11.4644 C   0  0  0  0  0  0  0  0  0  0  0  0
   18.3597  -24.5976   -9.5154 C   0  0  2  0  0  0  0  0  0  0  0  0
   18.4501  -23.3134   -8.8213 N   0  0  0  0  0  0  0  0  0  0  0  0
   18.5029  -25.6913   -8.5695 C   0  0  0  0  0  0  0  0  0  0  0  0
   19.4890  -26.4632   -8.6887 O   0  0  0  0  0  0  0  0  0  0  0  0
   18.3568  -28.0452   -3.4466 N   0  0  0  0  0  0  0  0  0  0  0  0
   18.5134  -26.6281   -3.4851 C   0  0  0  0  0  0  0  0  0  0  0  0
   19.3004  -26.0977   -2.6709 O   0  0  0  0  0  0  0  0  0  0  0  0
   17.7332  -25.8227   -4.4941 C   0  0  0  0  0  0  0  0  0  0  0  0
   17.0376  -26.7994   -5.3716 C   0  0  0  0  0  0  0  0  0  0  0  0
   17.6978  -27.1301   -6.6614 C   0  0  2  0  0  0  0  0  0  0  0  0
   17.6156  -25.9699   -7.5048 N   0  0  0  0  0  0  0  0  0  0  0  0
   17.2609  -28.3742   -7.3049 C   0  0  0  0  0  0  0  0  0  0  0  0
   16.2506  -28.3469   -8.0884 O   0  0  0  0  0  0  0  0  0  0  0  0
   17.8978  -29.6153   -7.1078 N   0  0  0  0  0  0  0  0  0  0  0  0
   17.4619  -30.8440   -7.8744 C   0  0  1  0  0  0  0  0  0  0  0  0
   18.6460  -31.6810   -8.0577 C   0  0  0  0  0  0  0  0  0  0  0  0
   19.8001  -31.2388   -8.7973 C   0  0  0  0  0  0  0  0  0  0  0  0
   20.9743  -32.1143   -9.0006 C   0  0  0  0  0  0  0  0  0  0  0  0
   22.0770  -31.5154   -9.8509 C   0  0  0  0  0  0  0  0  0  0  0  0
   23.3023  -32.2401   -9.8443 N   0  0  0  0  0  0  0  0  0  0  0  0
   16.2661  -31.2986   -7.1958 C   0  0  0  0  0  0  0  0  0  0  0  0
   16.2009  -31.2682   -5.9022 O   0  0  0  0  0  0  0  0  0  0  0  0
   15.1205  -31.7785   -7.7753 O   0  0  0  0  0  0  0  0  0  0  0  0
  2  1  1  0
  3  5  1  0
  3  2  1  0
  3  4  1  6
  5  6  1  1
  7  8  2  0
  7  5  1  0
  9 10  1  0
 10 11  2  0
 10 12  1  0
 12 13  1  0
 14 13  1  1
 14 15  1  0
 15  7  1  0
 16 14  1  0
 17 16  2  0
 18 16  1  0
 19 18  1  0
 19 25  1  0
 20 21  1  0
 19 20  1  1
 22 21  1  0
 23 24  1  0
 23 22  1  0
 25 27  1  0
 26 25  2  0
M  END
$$$$
