IQK.pdb
     RDKit          3D

 27 26  0  0  1  0  0  0  0  0999 V2000
   22.8679  -15.2132  -21.6438 C   0  0  0  0  0  0  0  0  0  0  0  0
   23.1479  -14.4129  -20.3936 C   0  0  0  0  0  0  0  0  0  0  0  0
   22.1852  -13.2600  -20.2137 C   0  0  2  0  0  0  0  0  0  0  0  0
   22.3785  -12.2654  -21.3694 C   0  0  0  0  0  0  0  0  0  0  0  0
   22.5071  -12.5272  -18.9682 C   0  0  2  0  0  0  0  0  0  0  0  0
   22.5437  -13.4575  -17.8403 N   0  0  0  0  0  0  0  0  0  0  0  0
   21.7001  -11.3655  -18.6354 C   0  0  0  0  0  0  0  0  0  0  0  0
   21.7228  -10.3760  -19.4119 O   0  0  0  0  0  0  0  0  0  0  0  0
   17.2123  -11.4691  -14.5905 N   0  0  0  0  0  0  0  0  0  0  0  0
   17.0992  -10.0743  -14.8663 C   0  0  0  0  0  0  0  0  0  0  0  0
   16.1436   -9.4468  -14.3597 O   0  0  0  0  0  0  0  0  0  0  0  0
   18.1232   -9.4076  -15.7509 C   0  0  0  0  0  0  0  0  0  0  0  0
   19.0194  -10.4831  -16.2492 C   0  0  0  0  0  0  0  0  0  0  0  0
   20.1230  -10.0696  -17.1548 C   0  0  2  0  0  0  0  0  0  0  0  0
   20.8740  -11.2463  -17.4944 N   0  0  0  0  0  0  0  0  0  0  0  0
   20.9434   -8.9441  -16.6934 C   0  0  0  0  0  0  0  0  0  0  0  0
   21.9291   -9.1732  -15.9115 O   0  0  0  0  0  0  0  0  0  0  0  0
   20.7062   -7.6064  -17.0660 N   0  0  0  0  0  0  0  0  0  0  0  0
   21.6117   -6.4933  -16.5882 C   0  0  1  0  0  0  0  0  0  0  0  0
   21.7441   -5.5417  -17.6897 C   0  0  0  0  0  0  0  0  0  0  0  0
   22.5287   -4.3385  -17.5835 C   0  0  0  0  0  0  0  0  0  0  0  0
   22.8020   -3.4835  -18.7586 C   0  0  0  0  0  0  0  0  0  0  0  0
   23.6011   -2.2298  -18.4635 C   0  0  0  0  0  0  0  0  0  0  0  0
   24.0755   -1.5346  -19.6117 N   0  0  0  0  0  0  0  0  0  0  0  0
   21.0964   -6.1310  -15.2842 C   0  0  0  0  0  0  0  0  0  0  0  0
   19.8258   -6.2069  -15.0430 O   0  0  0  0  0  0  0  0  0  0  0  0
   21.8188   -5.7000  -14.2022 O   0  0  0  0  0  0  0  0  0  0  0  0
  2  1  1  0
  3  5  1  0
  3  2  1  0
  3  4  1  6
  5  6  1  1
  7  8  2  0
  7  5  1  0
  9 10  1  0
 10 11  2  0
 10 12  1  0
 12 13  1  0
 14 13  1  1
 14 15  1  0
 15  7  1  0
 16 14  1  0
 17 16  2  0
 18 16  1  0
 19 18  1  0
 19 25  1  0
 20 21  1  0
 19 20  1  6
 22 21  1  0
 23 24  1  0
 23 22  1  0
 25 27  1  0
 26 25  2  0
M  END
$$$$
