LNI.pdb
     RDKit          3D

 25 24  0  0  1  0  0  0  0  0999 V2000
    8.8874  -12.4525   18.5842 C   0  0  0  0  0  0  0  0  0  0  0  0
    7.8102  -13.5148   18.5533 C   0  0  2  0  0  0  0  0  0  0  0  0
    6.5152  -12.8061   18.2006 C   0  0  0  0  0  0  0  0  0  0  0  0
    7.6507  -14.2101   19.8730 C   0  0  0  0  0  0  0  0  0  0  0  0
    8.9418  -14.6640   20.4644 C   0  0  2  0  0  0  0  0  0  0  0  0
    9.5855  -15.6940   19.6892 N   0  0  0  0  0  0  0  0  0  0  0  0
    8.7318  -15.1868   21.8689 C   0  0  0  0  0  0  0  0  0  0  0  0
    8.0223  -14.5287   22.6717 O   0  0  0  0  0  0  0  0  0  0  0  0
   11.1443  -17.8269   21.6753 N   0  0  0  0  0  0  0  0  0  0  0  0
   10.7094  -18.7777   22.6234 C   0  0  0  0  0  0  0  0  0  0  0  0
   11.2714  -19.9305   22.5888 O   0  0  0  0  0  0  0  0  0  0  0  0
    9.6452  -18.4790   23.6307 C   0  0  0  0  0  0  0  0  0  0  0  0
    9.2624  -17.0179   23.5634 C   0  0  2  0  0  0  0  0  0  0  0  0
    9.3122  -16.3918   22.2967 N   0  0  0  0  0  0  0  0  0  0  0  0
    9.7025  -16.2033   24.6966 C   0  0  0  0  0  0  0  0  0  0  0  0
   10.9364  -15.9494   24.7705 O   0  0  0  0  0  0  0  0  0  0  0  0
    6.4294  -12.3163   26.5385 C   0  0  0  0  0  0  0  0  0  0  0  0
    7.5928  -13.1516   26.0711 C   0  0  0  0  0  0  0  0  0  0  0  0
    8.3679  -13.7708   27.2039 C   0  0  2  0  0  0  0  0  0  0  0  0
    8.9923  -12.7018   28.0911 C   0  0  0  0  0  0  0  0  0  0  0  0
    9.3508  -14.8046   26.7792 C   0  0  2  0  0  0  0  0  0  0  0  0
    8.8931  -15.6651   25.7239 N   0  0  0  0  0  0  0  0  0  0  0  0
   10.0032  -15.5013   27.8926 C   0  0  0  0  0  0  0  0  0  0  0  0
   11.1036  -15.0244   28.5833 O   0  0  0  0  0  0  0  0  0  0  0  0
    9.5478  -16.6209   28.2679 O   0  0  0  0  0  0  0  0  0  0  0  0
  2  1  1  1
  3  2  1  0
  4  2  1  0
  5  4  1  0
  5  6  1  6
  7  5  1  0
  7  8  2  0
 10 12  1  0
 10  9  1  0
 11 10  2  0
 13 12  1  6
 13 14  1  0
 14  7  1  0
 15 13  1  0
 16 15  2  0
 18 19  1  0
 18 17  1  0
 19 21  1  0
 19 20  1  6
 21 22  1  6
 21 23  1  0
 22 15  1  0
 23 24  1  0
 25 23  2  0
M  END
$$$$
