LNI.pdb
     RDKit          3D

 25 24  0  0  1  0  0  0  0  0999 V2000
    9.2099  -13.4090   19.2036 C   0  0  0  0  0  0  0  0  0  0  0  0
    7.7334  -13.3917   19.5341 C   0  0  2  0  0  0  0  0  0  0  0  0
    7.3574  -11.9379   19.7547 C   0  0  0  0  0  0  0  0  0  0  0  0
    7.4118  -14.1793   20.7698 C   0  0  0  0  0  0  0  0  0  0  0  0
    7.8663  -15.5978   20.7044 C   0  0  2  0  0  0  0  0  0  0  0  0
    6.8974  -16.4723   20.0939 N   0  0  0  0  0  0  0  0  0  0  0  0
    8.1764  -16.1240   22.0889 C   0  0  0  0  0  0  0  0  0  0  0  0
    7.2416  -16.2663   22.9177 O   0  0  0  0  0  0  0  0  0  0  0  0
   11.3809  -19.3943   21.6270 N   0  0  0  0  0  0  0  0  0  0  0  0
   10.6840  -19.0850   22.8147 C   0  0  0  0  0  0  0  0  0  0  0  0
    9.6844  -19.8322   23.1123 O   0  0  0  0  0  0  0  0  0  0  0  0
   11.0733  -17.9449   23.7008 C   0  0  0  0  0  0  0  0  0  0  0  0
    9.9773  -16.9036   23.7183 C   0  0  2  0  0  0  0  0  0  0  0  0
    9.4862  -16.4575   22.4698 N   0  0  0  0  0  0  0  0  0  0  0  0
   10.1023  -15.8814   24.7579 C   0  0  0  0  0  0  0  0  0  0  0  0
   11.0123  -15.0207   24.6042 O   0  0  0  0  0  0  0  0  0  0  0  0
    6.5315  -12.5621   26.4439 C   0  0  0  0  0  0  0  0  0  0  0  0
    7.7762  -13.3416   26.1078 C   0  0  0  0  0  0  0  0  0  0  0  0
    8.4610  -13.9126   27.3213 C   0  0  2  0  0  0  0  0  0  0  0  0
    8.8779  -12.8104   28.2862 C   0  0  0  0  0  0  0  0  0  0  0  0
    9.5747  -14.8498   27.0106 C   0  0  2  0  0  0  0  0  0  0  0  0
    9.3110  -15.7500   25.9228 N   0  0  0  0  0  0  0  0  0  0  0  0
   10.1706  -15.4815   28.1924 C   0  0  0  0  0  0  0  0  0  0  0  0
   10.1862  -16.8443   28.4331 O   0  0  0  0  0  0  0  0  0  0  0  0
   10.7149  -14.7508   29.0707 O   0  0  0  0  0  0  0  0  0  0  0  0
  2  1  1  1
  3  2  1  0
  4  2  1  0
  5  4  1  0
  5  6  1  1
  7  5  1  0
  7  8  2  0
 10 12  1  0
 10  9  1  0
 11 10  2  0
 13 12  1  6
 13 14  1  0
 14  7  1  0
 15 13  1  0
 16 15  2  0
 18 19  1  0
 18 17  1  0
 19 21  1  0
 19 20  1  6
 21 22  1  6
 21 23  1  0
 22 15  1  0
 23 24  1  0
 25 23  2  0
M  END
$$$$
