LNI.pdb
     RDKit          3D

 25 24  0  0  1  0  0  0  0  0999 V2000
    8.9943  -12.6101   18.7640 C   0  0  0  0  0  0  0  0  0  0  0  0
    7.8057  -13.5398   18.8764 C   0  0  2  0  0  0  0  0  0  0  0  0
    6.5678  -12.6834   18.6812 C   0  0  0  0  0  0  0  0  0  0  0  0
    7.7320  -14.2196   20.2117 C   0  0  0  0  0  0  0  0  0  0  0  0
    9.0506  -14.7177   20.6975 C   0  0  2  0  0  0  0  0  0  0  0  0
    9.6277  -15.7177   19.8353 N   0  0  0  0  0  0  0  0  0  0  0  0
    8.9215  -15.3043   22.0865 C   0  0  0  0  0  0  0  0  0  0  0  0
    8.1170  -14.7859   22.9020 O   0  0  0  0  0  0  0  0  0  0  0  0
   10.7659  -19.5078   21.4842 N   0  0  0  0  0  0  0  0  0  0  0  0
    9.8674  -19.2127   22.5320 C   0  0  0  0  0  0  0  0  0  0  0  0
    8.6554  -19.6068   22.3852 O   0  0  0  0  0  0  0  0  0  0  0  0
   10.2851  -18.4765   23.7649 C   0  0  0  0  0  0  0  0  0  0  0  0
    9.7360  -17.0681   23.7392 C   0  0  2  0  0  0  0  0  0  0  0  0
    9.6810  -16.4158   22.4861 N   0  0  0  0  0  0  0  0  0  0  0  0
   10.1090  -16.2306   24.8797 C   0  0  0  0  0  0  0  0  0  0  0  0
   11.2654  -15.7257   24.8617 O   0  0  0  0  0  0  0  0  0  0  0  0
    6.9075  -12.4706   26.6523 C   0  0  0  0  0  0  0  0  0  0  0  0
    8.0580  -13.3647   26.2690 C   0  0  0  0  0  0  0  0  0  0  0  0
    8.7137  -14.0237   27.4537 C   0  0  2  0  0  0  0  0  0  0  0  0
    9.2810  -12.9870   28.4145 C   0  0  0  0  0  0  0  0  0  0  0  0
    9.7060  -15.0742   27.0973 C   0  0  2  0  0  0  0  0  0  0  0  0
    9.3119  -15.9217   26.0065 N   0  0  0  0  0  0  0  0  0  0  0  0
   10.2610  -15.7875   28.2523 C   0  0  0  0  0  0  0  0  0  0  0  0
   11.2210  -15.2748   29.1073 O   0  0  0  0  0  0  0  0  0  0  0  0
    9.8508  -16.9573   28.5069 O   0  0  0  0  0  0  0  0  0  0  0  0
  2  1  1  1
  3  2  1  0
  4  2  1  0
  5  4  1  0
  5  6  1  6
  7  5  1  0
  7  8  2  0
 10 12  1  0
 10  9  1  0
 11 10  2  0
 13 12  1  6
 13 14  1  0
 14  7  1  0
 15 13  1  0
 16 15  2  0
 18 19  1  0
 18 17  1  0
 19 21  1  0
 19 20  1  6
 21 22  1  6
 21 23  1  0
 22 15  1  0
 23 24  1  0
 25 23  2  0
M  END
$$$$
