LNI.pdb
     RDKit          3D

 25 24  0  0  1  0  0  0  0  0999 V2000
    8.9993  -12.3338   18.4903 C   0  0  0  0  0  0  0  0  0  0  0  0
    7.8499  -13.3163   18.4341 C   0  0  2  0  0  0  0  0  0  0  0  0
    6.6157  -12.5159   18.0601 C   0  0  0  0  0  0  0  0  0  0  0  0
    7.6158  -14.0026   19.7474 C   0  0  0  0  0  0  0  0  0  0  0  0
    8.8521  -14.5896   20.3389 C   0  0  2  0  0  0  0  0  0  0  0  0
    9.4039  -15.6582   19.5452 N   0  0  0  0  0  0  0  0  0  0  0  0
    8.5790  -15.1216   21.7289 C   0  0  0  0  0  0  0  0  0  0  0  0
    7.7336  -14.5406   22.4560 O   0  0  0  0  0  0  0  0  0  0  0  0
   11.1786  -19.1713   21.8789 N   0  0  0  0  0  0  0  0  0  0  0  0
   10.8235  -18.6498   23.1415 C   0  0  0  0  0  0  0  0  0  0  0  0
   11.7813  -18.4123   23.9613 O   0  0  0  0  0  0  0  0  0  0  0  0
    9.4047  -18.3786   23.5285 C   0  0  0  0  0  0  0  0  0  0  0  0
    9.1285  -16.8929   23.4801 C   0  0  2  0  0  0  0  0  0  0  0  0
    9.2493  -16.2510   22.2262 N   0  0  0  0  0  0  0  0  0  0  0  0
    9.6017  -16.1308   24.6362 C   0  0  0  0  0  0  0  0  0  0  0  0
   10.7782  -15.6782   24.5774 O   0  0  0  0  0  0  0  0  0  0  0  0
    6.2163  -12.9721   27.8556 C   0  0  0  0  0  0  0  0  0  0  0  0
    7.0232  -14.1460   27.3650 C   0  0  0  0  0  0  0  0  0  0  0  0
    8.4773  -13.8162   27.1544 C   0  0  2  0  0  0  0  0  0  0  0  0
    8.6466  -12.7226   26.1079 C   0  0  0  0  0  0  0  0  0  0  0  0
    9.3401  -14.9992   26.8875 C   0  0  2  0  0  0  0  0  0  0  0  0
    8.8819  -15.8431   25.8192 N   0  0  0  0  0  0  0  0  0  0  0  0
    9.7567  -15.7190   28.0955 C   0  0  0  0  0  0  0  0  0  0  0  0
   10.4305  -15.1464   29.1602 O   0  0  0  0  0  0  0  0  0  0  0  0
    9.4946  -16.9530   28.1963 O   0  0  0  0  0  0  0  0  0  0  0  0
  2  1  1  1
  3  2  1  0
  4  2  1  0
  5  4  1  0
  5  6  1  6
  7  5  1  0
  7  8  2  0
 10 12  1  0
 10  9  1  0
 11 10  2  0
 13 12  1  6
 13 14  1  0
 14  7  1  0
 15 13  1  0
 16 15  2  0
 18 19  1  0
 18 17  1  0
 19 21  1  0
 19 20  1  6
 21 22  1  6
 21 23  1  0
 22 15  1  0
 23 24  1  0
 25 23  2  0
M  END
$$$$
