LNI.pdb
     RDKit          3D

 25 24  0  0  1  0  0  0  0  0999 V2000
    9.1333  -12.9092   18.7983 C   0  0  0  0  0  0  0  0  0  0  0  0
    7.7271  -13.4628   18.8749 C   0  0  2  0  0  0  0  0  0  0  0  0
    6.7959  -12.3326   18.4756 C   0  0  0  0  0  0  0  0  0  0  0  0
    7.3697  -13.9353   20.2532 C   0  0  0  0  0  0  0  0  0  0  0  0
    8.2931  -14.9805   20.7802 C   0  0  2  0  0  0  0  0  0  0  0  0
    8.3135  -16.1735   19.9724 N   0  0  0  0  0  0  0  0  0  0  0  0
    7.9112  -15.3684   22.1921 C   0  0  0  0  0  0  0  0  0  0  0  0
    7.3161  -14.5341   22.9207 O   0  0  0  0  0  0  0  0  0  0  0  0
    6.2899  -19.0565   26.1761 N   0  0  0  0  0  0  0  0  0  0  0  0
    7.5325  -19.0756   25.5071 C   0  0  0  0  0  0  0  0  0  0  0  0
    8.5500  -19.4661   26.1841 O   0  0  0  0  0  0  0  0  0  0  0  0
    7.6813  -18.6645   24.0770 C   0  0  0  0  0  0  0  0  0  0  0  0
    7.9447  -17.1784   23.9890 C   0  0  2  0  0  0  0  0  0  0  0  0
    8.2068  -16.6406   22.7079 N   0  0  0  0  0  0  0  0  0  0  0  0
    8.7265  -16.6154   25.0905 C   0  0  0  0  0  0  0  0  0  0  0  0
    9.9821  -16.7046   25.0017 O   0  0  0  0  0  0  0  0  0  0  0  0
    7.0664  -11.9742   26.7902 C   0  0  0  0  0  0  0  0  0  0  0  0
    7.9802  -13.1036   26.3912 C   0  0  0  0  0  0  0  0  0  0  0  0
    8.4672  -13.9117   27.5648 C   0  0  2  0  0  0  0  0  0  0  0  0
    9.4243  -13.1021   28.4298 C   0  0  0  0  0  0  0  0  0  0  0  0
    9.0166  -15.2466   27.2022 C   0  0  2  0  0  0  0  0  0  0  0  0
    8.2277  -15.9780   26.2503 N   0  0  0  0  0  0  0  0  0  0  0  0
    9.4715  -16.0370   28.3507 C   0  0  0  0  0  0  0  0  0  0  0  0
   10.6297  -15.7903   29.0671 O   0  0  0  0  0  0  0  0  0  0  0  0
    8.7741  -17.0210   28.7340 O   0  0  0  0  0  0  0  0  0  0  0  0
  2  1  1  1
  3  2  1  0
  4  2  1  0
  5  4  1  0
  5  6  1  6
  7  5  1  0
  7  8  2  0
 10 12  1  0
 10  9  1  0
 11 10  2  0
 13 12  1  6
 13 14  1  0
 14  7  1  0
 15 13  1  0
 16 15  2  0
 18 19  1  0
 18 17  1  0
 19 21  1  0
 19 20  1  6
 21 22  1  1
 21 23  1  0
 22 15  1  0
 23 24  1  0
 25 23  2  0
M  END
$$$$
