EVG.pdb
     RDKit          3D

 21 20  0  0  1  0  0  0  0  0999 V2000
    8.6952  -15.5400   21.0027 N   0  0  0  0  0  0  0  0  0  0  0  0
    7.8575  -15.7680   22.1326 C   0  0  1  0  0  0  0  0  0  0  0  0
    7.4742  -17.1740   22.3981 C   0  0  0  0  0  0  0  0  0  0  0  0
    6.7791  -17.9131   21.3206 C   0  0  0  0  0  0  0  0  0  0  0  0
    6.3937  -19.3018   21.6434 C   0  0  0  0  0  0  0  0  0  0  0  0
    6.8698  -20.2434   20.9592 O   0  0  0  0  0  0  0  0  0  0  0  0
    8.3975  -15.0686   23.3327 C   0  0  0  0  0  0  0  0  0  0  0  0
    9.6282  -15.1095   23.5345 O   0  0  0  0  0  0  0  0  0  0  0  0
    5.5273  -19.6546   22.6658 O   0  0  0  0  0  0  0  0  0  0  0  0
    5.8832  -12.9845   26.3459 C   0  0  0  0  0  0  0  0  0  0  0  0
    7.2838  -12.5794   25.9039 C   0  0  1  0  0  0  0  0  0  0  0  0
    7.8981  -11.8738   27.0906 C   0  0  0  0  0  0  0  0  0  0  0  0
    8.0590  -13.7840   25.4743 C   0  0  2  0  0  0  0  0  0  0  0  0
    7.5752  -14.3622   24.2509 N   0  0  0  0  0  0  0  0  0  0  0  0
    8.1354  -14.7999   26.5683 C   0  0  0  0  0  0  0  0  0  0  0  0
    7.1005  -15.4617   26.9251 O   0  0  0  0  0  0  0  0  0  0  0  0
    9.3451  -15.0786   27.2582 N   0  0  0  0  0  0  0  0  0  0  0  0
    9.4075  -16.0993   28.3100 C   0  0  0  0  0  0  0  0  0  0  0  0
   10.7719  -16.0351   28.8913 C   0  0  0  0  0  0  0  0  0  0  0  0
   11.2016  -16.7991   29.9605 O   0  0  0  0  0  0  0  0  0  0  0  0
   11.5890  -15.2320   28.3757 O   0  0  0  0  0  0  0  0  0  0  0  0
  2  1  1  6
  3  2  1  0
  3  4  1  0
  4  5  1  0
  5  9  1  0
  5  6  2  0
  7  2  1  0
  8  7  2  0
 11 12  1  1
 11 10  1  0
 13 11  1  0
 13 14  1  6
 14  7  1  0
 15 17  1  0
 15 13  1  0
 16 15  2  0
 18 17  1  0
 19 18  1  0
 20 19  1  0
 21 19  2  0
M  END
$$$$
