EVG.pdb
     RDKit          3D

 21 20  0  0  1  0  0  0  0  0999 V2000
    9.0376  -17.5237   16.7489 N   0  0  0  0  0  0  0  0  0  0  0  0
    8.2822  -17.6148   17.9536 C   0  0  1  0  0  0  0  0  0  0  0  0
    8.1147  -18.9700   18.5277 C   0  0  0  0  0  0  0  0  0  0  0  0
    9.3377  -19.7168   18.8978 C   0  0  0  0  0  0  0  0  0  0  0  0
    9.1225  -21.0910   19.3939 C   0  0  0  0  0  0  0  0  0  0  0  0
   10.1171  -21.7818   19.7328 O   0  0  0  0  0  0  0  0  0  0  0  0
    8.7583  -16.6101   18.9460 C   0  0  0  0  0  0  0  0  0  0  0  0
    9.9886  -16.4438   19.0723 O   0  0  0  0  0  0  0  0  0  0  0  0
    7.8796  -21.6914   19.5171 O   0  0  0  0  0  0  0  0  0  0  0  0
    7.8666  -12.7151   21.8714 C   0  0  0  0  0  0  0  0  0  0  0  0
    7.3085  -13.7617   20.9152 C   0  0  1  0  0  0  0  0  0  0  0  0
    6.9519  -13.0122   19.6526 C   0  0  0  0  0  0  0  0  0  0  0  0
    8.3157  -14.8438   20.6882 C   0  0  2  0  0  0  0  0  0  0  0  0
    7.8762  -15.8388   19.7492 N   0  0  0  0  0  0  0  0  0  0  0  0
    8.7504  -15.4613   21.9783 C   0  0  0  0  0  0  0  0  0  0  0  0
    7.9201  -16.0940   22.7175 O   0  0  0  0  0  0  0  0  0  0  0  0
   10.0899  -15.3782   22.4430 N   0  0  0  0  0  0  0  0  0  0  0  0
   10.5249  -16.0862   23.6519 C   0  0  0  0  0  0  0  0  0  0  0  0
   11.9804  -15.8337   23.7979 C   0  0  0  0  0  0  0  0  0  0  0  0
   12.7152  -16.1349   24.9297 O   0  0  0  0  0  0  0  0  0  0  0  0
   12.5827  -15.3113   22.8269 O   0  0  0  0  0  0  0  0  0  0  0  0
  2  1  1  6
  3  2  1  0
  3  4  1  0
  4  5  1  0
  5  9  1  0
  5  6  2  0
  7  2  1  0
  8  7  2  0
 11 12  1  6
 11 10  1  0
 13 11  1  0
 13 14  1  6
 14  7  1  0
 15 17  1  0
 15 13  1  0
 16 15  2  0
 18 17  1  0
 19 18  1  0
 20 19  1  0
 21 19  2  0
M  END
$$$$
