EVG.pdb
     RDKit          3D

 21 20  0  0  1  0  0  0  0  0999 V2000
    9.9804  -17.8331   17.0789 N   0  0  0  0  0  0  0  0  0  0  0  0
    9.2188  -17.7620   18.2811 C   0  0  1  0  0  0  0  0  0  0  0  0
    9.2704  -18.9479   19.1673 C   0  0  0  0  0  0  0  0  0  0  0  0
   10.5289  -19.7259   19.2034 C   0  0  0  0  0  0  0  0  0  0  0  0
   10.5311  -20.8972   20.1029 C   0  0  0  0  0  0  0  0  0  0  0  0
   11.3402  -20.9280   21.0650 O   0  0  0  0  0  0  0  0  0  0  0  0
    9.4880  -16.4818   18.9951 C   0  0  0  0  0  0  0  0  0  0  0  0
   10.6508  -16.0294   18.9754 O   0  0  0  0  0  0  0  0  0  0  0  0
    9.6906  -21.9902   19.9642 O   0  0  0  0  0  0  0  0  0  0  0  0
    7.8039  -12.3963   21.2683 C   0  0  0  0  0  0  0  0  0  0  0  0
    7.5026  -13.6500   20.4568 C   0  0  1  0  0  0  0  0  0  0  0  0
    7.0295  -13.1592   19.1082 C   0  0  0  0  0  0  0  0  0  0  0  0
    8.7197  -14.5147   20.3703 C   0  0  2  0  0  0  0  0  0  0  0  0
    8.4831  -15.7597   19.6928 N   0  0  0  0  0  0  0  0  0  0  0  0
    9.3298  -14.7311   21.7178 C   0  0  0  0  0  0  0  0  0  0  0  0
    9.6959  -13.7414   22.4408 O   0  0  0  0  0  0  0  0  0  0  0  0
    9.5311  -16.0294   22.2571 N   0  0  0  0  0  0  0  0  0  0  0  0
   10.0002  -16.2211   23.6337 C   0  0  0  0  0  0  0  0  0  0  0  0
   11.4756  -16.3711   23.5685 C   0  0  0  0  0  0  0  0  0  0  0  0
   12.2993  -16.4748   24.6741 O   0  0  0  0  0  0  0  0  0  0  0  0
   12.0092  -16.4059   22.4316 O   0  0  0  0  0  0  0  0  0  0  0  0
  2  1  1  6
  3  2  1  0
  3  4  1  0
  4  5  1  0
  5  9  1  0
  5  6  2  0
  7  2  1  0
  8  7  2  0
 11 12  1  6
 11 10  1  0
 13 11  1  0
 13 14  1  1
 14  7  1  0
 15 17  1  0
 15 13  1  0
 16 15  2  0
 18 17  1  0
 19 18  1  0
 20 19  1  0
 21 19  2  0
M  END
$$$$
