EVG.pdb
     RDKit          3D

 21 20  0  0  1  0  0  0  0  0999 V2000
    8.7989  -15.5431   20.7239 N   0  0  0  0  0  0  0  0  0  0  0  0
    7.8271  -16.0208   21.6501 C   0  0  1  0  0  0  0  0  0  0  0  0
    7.5136  -17.4674   21.5917 C   0  0  0  0  0  0  0  0  0  0  0  0
    6.7774  -17.9650   20.4082 C   0  0  0  0  0  0  0  0  0  0  0  0
    6.4561  -19.4065   20.4143 C   0  0  0  0  0  0  0  0  0  0  0  0
    5.3346  -19.7813   20.8423 O   0  0  0  0  0  0  0  0  0  0  0  0
    8.1371  -15.5409   23.0265 C   0  0  0  0  0  0  0  0  0  0  0  0
    9.3306  -15.5267   23.3907 O   0  0  0  0  0  0  0  0  0  0  0  0
    7.3159  -20.4004   19.9747 O   0  0  0  0  0  0  0  0  0  0  0  0
    7.0818  -13.0674   27.1100 C   0  0  0  0  0  0  0  0  0  0  0  0
    6.5933  -13.5506   25.7502 C   0  0  1  0  0  0  0  0  0  0  0  0
    6.7050  -12.3582   24.8290 C   0  0  0  0  0  0  0  0  0  0  0  0
    7.4067  -14.7200   25.2944 C   0  0  2  0  0  0  0  0  0  0  0  0
    7.1375  -15.1020   23.9356 N   0  0  0  0  0  0  0  0  0  0  0  0
    7.2641  -15.8785   26.2284 C   0  0  0  0  0  0  0  0  0  0  0  0
    6.1162  -16.2308   26.6691 O   0  0  0  0  0  0  0  0  0  0  0  0
    8.3813  -16.6372   26.6681 N   0  0  0  0  0  0  0  0  0  0  0  0
    8.2132  -17.8323   27.5021 C   0  0  0  0  0  0  0  0  0  0  0  0
    9.2966  -17.8048   28.5164 C   0  0  0  0  0  0  0  0  0  0  0  0
    9.4274  -18.7208   29.5438 O   0  0  0  0  0  0  0  0  0  0  0  0
   10.1506  -16.8870   28.4339 O   0  0  0  0  0  0  0  0  0  0  0  0
  2  1  1  6
  3  2  1  0
  3  4  1  0
  4  5  1  0
  5  9  1  0
  5  6  2  0
  7  2  1  0
  8  7  2  0
 11 12  1  6
 11 10  1  0
 13 11  1  0
 13 14  1  6
 14  7  1  0
 15 17  1  0
 15 13  1  0
 16 15  2  0
 18 17  1  0
 19 18  1  0
 20 19  1  0
 21 19  2  0
M  END
$$$$
