EVG.pdb
     RDKit          3D

 21 20  0  0  1  0  0  0  0  0999 V2000
    8.9142  -14.9553   20.6280 N   0  0  0  0  0  0  0  0  0  0  0  0
    7.9351  -15.2224   21.6281 C   0  0  1  0  0  0  0  0  0  0  0  0
    7.3555  -16.5857   21.6380 C   0  0  0  0  0  0  0  0  0  0  0  0
    7.9305  -17.5848   20.7098 C   0  0  0  0  0  0  0  0  0  0  0  0
    8.1184  -18.9401   21.2654 C   0  0  0  0  0  0  0  0  0  0  0  0
    7.4579  -19.8957   20.7837 O   0  0  0  0  0  0  0  0  0  0  0  0
    8.4203  -14.7796   22.9658 C   0  0  0  0  0  0  0  0  0  0  0  0
    9.6348  -14.9057   23.2234 O   0  0  0  0  0  0  0  0  0  0  0  0
    8.9868  -19.2464   22.3010 O   0  0  0  0  0  0  0  0  0  0  0  0
    5.8159  -13.0140   26.0835 C   0  0  0  0  0  0  0  0  0  0  0  0
    7.2567  -12.6224   25.7805 C   0  0  1  0  0  0  0  0  0  0  0  0
    7.8185  -12.0957   27.0806 C   0  0  0  0  0  0  0  0  0  0  0  0
    8.0121  -13.7999   25.2515 C   0  0  2  0  0  0  0  0  0  0  0  0
    7.5640  -14.2237   23.9536 N   0  0  0  0  0  0  0  0  0  0  0  0
    8.0097  -14.9311   26.2288 C   0  0  0  0  0  0  0  0  0  0  0  0
    6.9450  -15.6030   26.4547 O   0  0  0  0  0  0  0  0  0  0  0  0
    9.1741  -15.3124   26.9469 N   0  0  0  0  0  0  0  0  0  0  0  0
    9.1694  -16.4651   27.8543 C   0  0  0  0  0  0  0  0  0  0  0  0
   10.4683  -16.4523   28.5727 C   0  0  0  0  0  0  0  0  0  0  0  0
   10.8224  -17.3517   29.5613 O   0  0  0  0  0  0  0  0  0  0  0  0
   11.2998  -15.5639   28.2600 O   0  0  0  0  0  0  0  0  0  0  0  0
  2  1  1  6
  3  2  1  0
  3  4  1  0
  4  5  1  0
  5  9  1  0
  5  6  2  0
  7  2  1  0
  8  7  2  0
 11 12  1  1
 11 10  1  0
 13 11  1  0
 13 14  1  6
 14  7  1  0
 15 17  1  0
 15 13  1  0
 16 15  2  0
 18 17  1  0
 19 18  1  0
 20 19  1  0
 21 19  2  0
M  END
$$$$
