EVG.pdb
     RDKit          3D

 21 20  0  0  1  0  0  0  0  0999 V2000
    7.0556  -16.5163   22.2407 N   0  0  0  0  0  0  0  0  0  0  0  0
    8.4618  -16.2931   22.2969 C   0  0  1  0  0  0  0  0  0  0  0  0
    9.1376  -16.0083   21.0098 C   0  0  0  0  0  0  0  0  0  0  0  0
    9.1285  -17.0693   19.9780 C   0  0  0  0  0  0  0  0  0  0  0  0
   10.4126  -17.2989   19.2855 C   0  0  0  0  0  0  0  0  0  0  0  0
   10.7053  -16.5902   18.2888 O   0  0  0  0  0  0  0  0  0  0  0  0
    8.7921  -15.3083   23.3655 C   0  0  0  0  0  0  0  0  0  0  0  0
    9.9899  -15.0023   23.5351 O   0  0  0  0  0  0  0  0  0  0  0  0
   11.3408  -18.2579   19.6586 O   0  0  0  0  0  0  0  0  0  0  0  0
    5.7690  -13.5149   26.0238 C   0  0  0  0  0  0  0  0  0  0  0  0
    7.0402  -12.8198   25.5527 C   0  0  1  0  0  0  0  0  0  0  0  0
    7.4025  -11.8450   26.6489 C   0  0  0  0  0  0  0  0  0  0  0  0
    8.1130  -13.8279   25.2886 C   0  0  2  0  0  0  0  0  0  0  0  0
    7.8070  -14.7071   24.1940 N   0  0  0  0  0  0  0  0  0  0  0  0
    8.4572  -14.5923   26.5263 C   0  0  0  0  0  0  0  0  0  0  0  0
    8.8833  -13.9927   27.5728 O   0  0  0  0  0  0  0  0  0  0  0  0
    8.3303  -16.0048   26.6025 N   0  0  0  0  0  0  0  0  0  0  0  0
    8.5294  -16.7232   27.8659 C   0  0  0  0  0  0  0  0  0  0  0  0
    9.9200  -17.2422   27.8512 C   0  0  0  0  0  0  0  0  0  0  0  0
   10.5086  -17.9273   28.8980 O   0  0  0  0  0  0  0  0  0  0  0  0
   10.6061  -17.0445   26.8175 O   0  0  0  0  0  0  0  0  0  0  0  0
  2  1  1  6
  3  2  1  0
  3  4  1  0
  4  5  1  0
  5  9  1  0
  5  6  2  0
  7  2  1  0
  8  7  2  0
 11 12  1  1
 11 10  1  0
 13 11  1  0
 13 14  1  6
 14  7  1  0
 15 17  1  0
 15 13  1  0
 16 15  2  0
 18 17  1  0
 19 18  1  0
 20 19  1  0
 21 19  2  0
M  END
$$$$
