EVG.pdb
     RDKit          3D

 21 20  0  0  1  0  0  0  0  0999 V2000
    8.6361  -15.1935   21.6542 N   0  0  0  0  0  0  0  0  0  0  0  0
    8.4711  -15.6638   22.9891 C   0  0  1  0  0  0  0  0  0  0  0  0
    9.0805  -16.9759   23.3075 C   0  0  0  0  0  0  0  0  0  0  0  0
    8.8944  -18.0755   22.3344 C   0  0  0  0  0  0  0  0  0  0  0  0
    9.4654  -19.3798   22.7265 C   0  0  0  0  0  0  0  0  0  0  0  0
    9.3820  -20.3486   21.9289 O   0  0  0  0  0  0  0  0  0  0  0  0
    8.8276  -14.5968   23.9666 C   0  0  0  0  0  0  0  0  0  0  0  0
    9.8830  -13.9572   23.7821 O   0  0  0  0  0  0  0  0  0  0  0  0
   10.1003  -19.6235   23.9339 O   0  0  0  0  0  0  0  0  0  0  0  0
    6.4088  -11.7459   25.1706 C   0  0  0  0  0  0  0  0  0  0  0  0
    7.0301  -12.4435   26.3741 C   0  0  1  0  0  0  0  0  0  0  0  0
    5.9589  -13.3649   26.9096 C   0  0  0  0  0  0  0  0  0  0  0  0
    8.2739  -13.1673   25.9668 C   0  0  2  0  0  0  0  0  0  0  0  0
    8.0215  -14.2794   25.0926 N   0  0  0  0  0  0  0  0  0  0  0  0
    9.0788  -13.5775   27.1579 C   0  0  0  0  0  0  0  0  0  0  0  0
    9.4089  -12.7263   28.0537 O   0  0  0  0  0  0  0  0  0  0  0  0
    9.5122  -14.9159   27.3530 N   0  0  0  0  0  0  0  0  0  0  0  0
   10.1136  -15.3477   28.6194 C   0  0  0  0  0  0  0  0  0  0  0  0
   10.5716  -16.7460   28.4235 C   0  0  0  0  0  0  0  0  0  0  0  0
   10.6483  -17.3774   27.1959 O   0  0  0  0  0  0  0  0  0  0  0  0
   10.9116  -17.3973   29.4426 O   0  0  0  0  0  0  0  0  0  0  0  0
  2  1  1  6
  3  2  1  0
  3  4  1  0
  4  5  1  0
  5  9  1  0
  5  6  2  0
  7  2  1  0
  8  7  2  0
 11 12  1  6
 11 10  1  0
 13 11  1  0
 13 14  1  1
 14  7  1  0
 15 17  1  0
 15 13  1  0
 16 15  2  0
 18 17  1  0
 19 18  1  0
 20 19  1  0
 21 19  2  0
M  END
$$$$
