EVG.pdb
     RDKit          3D

 21 20  0  0  1  0  0  0  0  0999 V2000
   11.4826  -16.4288   18.7936 N   0  0  0  0  0  0  0  0  0  0  0  0
   10.9697  -16.9366   20.0223 C   0  0  1  0  0  0  0  0  0  0  0  0
   11.8255  -17.9059   20.7452 C   0  0  0  0  0  0  0  0  0  0  0  0
   11.8947  -19.2881   20.2206 C   0  0  0  0  0  0  0  0  0  0  0  0
   12.6549  -20.2481   21.0461 C   0  0  0  0  0  0  0  0  0  0  0  0
   13.1568  -19.8585   22.1313 O   0  0  0  0  0  0  0  0  0  0  0  0
   10.4832  -15.8232   20.8852 C   0  0  0  0  0  0  0  0  0  0  0  0
   11.3149  -14.9872   21.2931 O   0  0  0  0  0  0  0  0  0  0  0  0
   12.8624  -21.5760   20.7084 O   0  0  0  0  0  0  0  0  0  0  0  0
    7.8139  -13.2922   20.0673 C   0  0  0  0  0  0  0  0  0  0  0  0
    7.4327  -13.9074   21.4080 C   0  0  1  0  0  0  0  0  0  0  0  0
    6.3087  -14.8721   21.1096 C   0  0  0  0  0  0  0  0  0  0  0  0
    8.6213  -14.5687   22.0299 C   0  0  2  0  0  0  0  0  0  0  0  0
    9.1211  -15.6747   21.2606 N   0  0  0  0  0  0  0  0  0  0  0  0
    8.3446  -14.9652   23.4445 C   0  0  0  0  0  0  0  0  0  0  0  0
    7.9551  -14.1029   24.3052 O   0  0  0  0  0  0  0  0  0  0  0  0
    8.4980  -16.3020   23.8989 N   0  0  0  0  0  0  0  0  0  0  0  0
    8.1872  -16.6797   25.2819 C   0  0  0  0  0  0  0  0  0  0  0  0
    9.4844  -16.8525   25.9825 C   0  0  0  0  0  0  0  0  0  0  0  0
   10.7202  -16.6375   25.4010 O   0  0  0  0  0  0  0  0  0  0  0  0
    9.4549  -17.2189   27.1839 O   0  0  0  0  0  0  0  0  0  0  0  0
  2  1  1  6
  3  2  1  0
  3  4  1  0
  4  5  1  0
  5  9  1  0
  5  6  2  0
  7  2  1  0
  8  7  2  0
 11 12  1  6
 11 10  1  0
 13 11  1  0
 13 14  1  6
 14  7  1  0
 15 17  1  0
 15 13  1  0
 16 15  2  0
 18 17  1  0
 19 18  1  0
 20 19  1  0
 21 19  2  0
M  END
$$$$
