EVG.pdb
     RDKit          3D

 21 20  0  0  1  0  0  0  0  0999 V2000
    7.8167  -17.0351   22.2732 N   0  0  0  0  0  0  0  0  0  0  0  0
    7.1135  -16.6735   23.4586 C   0  0  1  0  0  0  0  0  0  0  0  0
    6.8579  -17.7599   24.4327 C   0  0  0  0  0  0  0  0  0  0  0  0
    7.5838  -19.0362   24.2464 C   0  0  0  0  0  0  0  0  0  0  0  0
    7.3217  -20.0752   25.2627 C   0  0  0  0  0  0  0  0  0  0  0  0
    6.4897  -19.8412   26.1762 O   0  0  0  0  0  0  0  0  0  0  0  0
    7.7197  -15.4602   24.0761 C   0  0  0  0  0  0  0  0  0  0  0  0
    8.8922  -15.1651   23.7674 O   0  0  0  0  0  0  0  0  0  0  0  0
    7.9369  -21.3167   25.2874 O   0  0  0  0  0  0  0  0  0  0  0  0
    5.5186  -12.9222   26.8517 C   0  0  0  0  0  0  0  0  0  0  0  0
    6.4767  -12.3825   25.7972 C   0  0  1  0  0  0  0  0  0  0  0  0
    7.0237  -11.0933   26.3644 C   0  0  0  0  0  0  0  0  0  0  0  0
    7.5419  -13.3902   25.5025 C   0  0  2  0  0  0  0  0  0  0  0  0
    7.0233  -14.6308   24.9955 N   0  0  0  0  0  0  0  0  0  0  0  0
    8.4262  -13.6089   26.6878 C   0  0  0  0  0  0  0  0  0  0  0  0
    9.0330  -12.6307   27.2453 O   0  0  0  0  0  0  0  0  0  0  0  0
    8.6348  -14.8972   27.2480 N   0  0  0  0  0  0  0  0  0  0  0  0
    9.3734  -15.0746   28.5030 C   0  0  0  0  0  0  0  0  0  0  0  0
   10.5444  -15.9334   28.1952 C   0  0  0  0  0  0  0  0  0  0  0  0
   11.5953  -16.1611   29.0644 O   0  0  0  0  0  0  0  0  0  0  0  0
   10.5810  -16.4892   27.0691 O   0  0  0  0  0  0  0  0  0  0  0  0
  2  1  1  6
  3  2  1  0
  3  4  1  0
  4  5  1  0
  5  9  1  0
  5  6  2  0
  7  2  1  0
  8  7  2  0
 11 12  1  1
 11 10  1  0
 13 11  1  0
 13 14  1  1
 14  7  1  0
 15 17  1  0
 15 13  1  0
 16 15  2  0
 18 17  1  0
 19 18  1  0
 20 19  1  0
 21 19  2  0
M  END
$$$$
