EVG.pdb
     RDKit          3D

 21 20  0  0  1  0  0  0  0  0999 V2000
    8.1764  -15.7041   21.3061 N   0  0  0  0  0  0  0  0  0  0  0  0
    7.5926  -15.8510   22.5976 C   0  0  1  0  0  0  0  0  0  0  0  0
    7.5346  -17.2268   23.1439 C   0  0  0  0  0  0  0  0  0  0  0  0
    7.5731  -18.3513   22.1824 C   0  0  0  0  0  0  0  0  0  0  0  0
    8.4473  -19.4817   22.5552 C   0  0  0  0  0  0  0  0  0  0  0  0
    9.0540  -19.4486   23.6563 O   0  0  0  0  0  0  0  0  0  0  0  0
    8.1756  -14.8639   23.5498 C   0  0  0  0  0  0  0  0  0  0  0  0
    9.3756  -14.5504   23.4124 O   0  0  0  0  0  0  0  0  0  0  0  0
    8.6551  -20.6018   21.7662 O   0  0  0  0  0  0  0  0  0  0  0  0
    5.8151  -12.9421   26.6992 C   0  0  0  0  0  0  0  0  0  0  0  0
    6.8899  -12.2468   25.8729 C   0  0  1  0  0  0  0  0  0  0  0  0
    7.4331  -11.1457   26.7535 C   0  0  0  0  0  0  0  0  0  0  0  0
    7.9360  -13.2299   25.4534 C   0  0  2  0  0  0  0  0  0  0  0  0
    7.4275  -14.2689   24.6008 N   0  0  0  0  0  0  0  0  0  0  0  0
    8.6570  -13.7940   26.6352 C   0  0  0  0  0  0  0  0  0  0  0  0
    9.2487  -13.0285   27.4719 O   0  0  0  0  0  0  0  0  0  0  0  0
    8.7208  -15.1905   26.8862 N   0  0  0  0  0  0  0  0  0  0  0  0
    9.2734  -15.7176   28.1387 C   0  0  0  0  0  0  0  0  0  0  0  0
   10.5655  -16.3650   27.8000 C   0  0  0  0  0  0  0  0  0  0  0  0
   11.2565  -17.2162   28.6424 O   0  0  0  0  0  0  0  0  0  0  0  0
   11.0627  -16.1215   26.6722 O   0  0  0  0  0  0  0  0  0  0  0  0
  2  1  1  6
  3  2  1  0
  3  4  1  0
  4  5  1  0
  5  9  1  0
  5  6  2  0
  7  2  1  0
  8  7  2  0
 11 12  1  1
 11 10  1  0
 13 11  1  0
 13 14  1  1
 14  7  1  0
 15 17  1  0
 15 13  1  0
 16 15  2  0
 18 17  1  0
 19 18  1  0
 20 19  1  0
 21 19  2  0
M  END
$$$$
