EKS.pdb
     RDKit          3D

 25 24  0  0  1  0  0  0  0  0999 V2000
   15.1177  -19.0565   16.7063 N   0  0  0  0  0  0  0  0  0  0  0  0
   15.3602  -20.0519   17.6994 C   0  0  1  0  0  0  0  0  0  0  0  0
   16.7676  -20.1036   18.2095 C   0  0  0  0  0  0  0  0  0  0  0  0
   17.3096  -18.8026   18.7211 C   0  0  0  0  0  0  0  0  0  0  0  0
   18.6966  -18.9051   19.2004 C   0  0  0  0  0  0  0  0  0  0  0  0
   19.6651  -18.6533   18.4185 O   0  0  0  0  0  0  0  0  0  0  0  0
   14.3632  -20.0536   18.8209 C   0  0  0  0  0  0  0  0  0  0  0  0
   13.9859  -18.9498   19.3040 O   0  0  0  0  0  0  0  0  0  0  0  0
   19.0274  -19.2687   20.4966 O   0  0  0  0  0  0  0  0  0  0  0  0
   13.8277  -21.2446   19.3614 N   0  0  0  0  0  0  0  0  0  0  0  0
   12.8498  -21.3836   20.3822 C   0  0  1  0  0  0  0  0  0  0  0  0
   11.8666  -22.5269   20.2306 C   0  0  0  0  0  0  0  0  0  0  0  0
   11.1284  -22.4718   18.9176 C   0  0  0  0  0  0  0  0  0  0  0  0
   10.2203  -23.6442   18.6833 C   0  0  0  0  0  0  0  0  0  0  0  0
    9.5410  -23.5350   17.3445 C   0  0  0  0  0  0  0  0  0  0  0  0
    8.7056  -24.7307   17.1762 N   0  0  0  0  0  0  0  0  0  0  0  0
   13.3007  -21.1550   21.7577 C   0  0  0  0  0  0  0  0  0  0  0  0
   14.5023  -21.3842   22.0382 O   0  0  0  0  0  0  0  0  0  0  0  0
   12.2271  -19.4992   26.2139 O   0  0  0  0  0  0  0  0  0  0  0  0
   11.7972  -19.6915   24.9232 C   0  0  0  0  0  0  0  0  0  0  0  0
   12.8903  -20.3860   24.1368 C   0  0  2  0  0  0  0  0  0  0  0  0
   12.4564  -20.6901   22.7866 N   0  0  0  0  0  0  0  0  0  0  0  0
   13.3137  -21.6398   24.8116 C   0  0  0  0  0  0  0  0  0  0  0  0
   13.9275  -21.5998   25.8996 O   0  0  0  0  0  0  0  0  0  0  0  0
   13.0336  -22.8640   24.2442 O   0  0  0  0  0  0  0  0  0  0  0  0
  2  7  1  0
  2  1  1  1
  3  2  1  0
  4  3  1  0
  5  4  1  0
  6  5  2  0
  7  8  2  0
  9  5  1  0
 10 11  1  0
 10  7  1  0
 11 12  1  1
 13 12  1  0
 13 14  1  0
 14 15  1  0
 15 16  1  0
 17 18  2  0
 17 11  1  0
 19 20  1  0
 21 20  1  1
 21 22  1  0
 21 23  1  0
 22 17  1  0
 23 25  1  0
 24 23  2  0
M  END
$$$$
