EKS.pdb
     RDKit          3D

 25 24  0  0  1  0  0  0  0  0999 V2000
    9.3606  -13.3136   17.9942 N   0  0  0  0  0  0  0  0  0  0  0  0
   10.0761  -14.2979   18.7393 C   0  0  1  0  0  0  0  0  0  0  0  0
   11.5257  -13.9914   18.9592 C   0  0  0  0  0  0  0  0  0  0  0  0
   12.4835  -15.0050   18.4086 C   0  0  0  0  0  0  0  0  0  0  0  0
   13.8917  -14.6656   18.6650 C   0  0  0  0  0  0  0  0  0  0  0  0
   14.5289  -15.2397   19.6016 O   0  0  0  0  0  0  0  0  0  0  0  0
    9.3982  -14.7155   20.0112 C   0  0  0  0  0  0  0  0  0  0  0  0
    8.9672  -13.8239   20.7944 O   0  0  0  0  0  0  0  0  0  0  0  0
   14.5946  -13.7291   17.9231 O   0  0  0  0  0  0  0  0  0  0  0  0
    9.2224  -16.0711   20.3704 N   0  0  0  0  0  0  0  0  0  0  0  0
    8.6148  -16.5975   21.5414 C   0  0  1  0  0  0  0  0  0  0  0  0
    8.0865  -18.0153   21.4547 C   0  0  0  0  0  0  0  0  0  0  0  0
    7.2660  -18.2412   20.2107 C   0  0  0  0  0  0  0  0  0  0  0  0
    6.9138  -19.6807   19.9701 C   0  0  0  0  0  0  0  0  0  0  0  0
    6.1451  -19.8355   18.6853 C   0  0  0  0  0  0  0  0  0  0  0  0
    5.9777  -21.2740   18.4433 N   0  0  0  0  0  0  0  0  0  0  0  0
    9.2580  -16.2711   22.8172 C   0  0  0  0  0  0  0  0  0  0  0  0
   10.5067  -16.3674   22.8983 O   0  0  0  0  0  0  0  0  0  0  0  0
    7.0260  -14.7870   25.9452 O   0  0  0  0  0  0  0  0  0  0  0  0
    8.3373  -14.3788   25.9055 C   0  0  0  0  0  0  0  0  0  0  0  0
    9.1641  -15.4402   25.2089 C   0  0  2  0  0  0  0  0  0  0  0  0
    8.5492  -15.8534   23.9620 N   0  0  0  0  0  0  0  0  0  0  0  0
    9.3487  -16.6268   26.0834 C   0  0  0  0  0  0  0  0  0  0  0  0
    8.9370  -17.7509   25.7244 O   0  0  0  0  0  0  0  0  0  0  0  0
    9.9774  -16.5010   27.3032 O   0  0  0  0  0  0  0  0  0  0  0  0
  2  7  1  0
  2  1  1  1
  3  2  1  0
  4  3  1  0
  5  4  1  0
  6  5  2  0
  7  8  2  0
  9  5  1  0
 10 11  1  0
 10  7  1  0
 11 12  1  6
 13 12  1  0
 13 14  1  0
 14 15  1  0
 15 16  1  0
 17 18  2  0
 17 11  1  0
 19 20  1  0
 21 20  1  1
 21 22  1  0
 21 23  1  0
 22 17  1  0
 23 25  1  0
 24 23  2  0
M  END
$$$$
