EKS.pdb
     RDKit          3D

 25 24  0  0  1  0  0  0  0  0999 V2000
    9.2485  -15.9452   13.8373 N   0  0  0  0  0  0  0  0  0  0  0  0
    9.2865  -17.2803   14.3396 C   0  0  1  0  0  0  0  0  0  0  0  0
   10.2442  -18.1915   13.6354 C   0  0  0  0  0  0  0  0  0  0  0  0
   11.3552  -17.5047   12.8992 C   0  0  0  0  0  0  0  0  0  0  0  0
   12.2165  -18.4374   12.1560 C   0  0  0  0  0  0  0  0  0  0  0  0
   13.1328  -19.0802   12.7560 O   0  0  0  0  0  0  0  0  0  0  0  0
    9.4300  -17.3695   15.8307 C   0  0  0  0  0  0  0  0  0  0  0  0
   10.3705  -16.7415   16.3921 O   0  0  0  0  0  0  0  0  0  0  0  0
   12.0869  -18.6711   10.7958 O   0  0  0  0  0  0  0  0  0  0  0  0
    8.5530  -18.1314   16.6355 N   0  0  0  0  0  0  0  0  0  0  0  0
    8.5822  -18.3049   18.0449 C   0  0  1  0  0  0  0  0  0  0  0  0
    7.2688  -18.6575   18.7138 C   0  0  0  0  0  0  0  0  0  0  0  0
    6.3771  -19.4789   17.8183 C   0  0  0  0  0  0  0  0  0  0  0  0
    5.0900  -19.9003   18.4663 C   0  0  0  0  0  0  0  0  0  0  0  0
    4.2876  -20.7760   17.5418 C   0  0  0  0  0  0  0  0  0  0  0  0
    3.0336  -21.1090   18.2293 N   0  0  0  0  0  0  0  0  0  0  0  0
    9.7459  -19.0053   18.5954 C   0  0  0  0  0  0  0  0  0  0  0  0
   10.1306  -20.0586   18.0319 O   0  0  0  0  0  0  0  0  0  0  0  0
   13.0827  -17.5774   19.4471 O   0  0  0  0  0  0  0  0  0  0  0  0
   12.7234  -18.2316   20.6006 C   0  0  0  0  0  0  0  0  0  0  0  0
   11.6226  -19.2233   20.2836 C   0  0  2  0  0  0  0  0  0  0  0  0
   10.4595  -18.5596   19.7266 N   0  0  0  0  0  0  0  0  0  0  0  0
   11.2232  -19.9781   21.4992 C   0  0  0  0  0  0  0  0  0  0  0  0
   12.0537  -20.6851   22.1096 O   0  0  0  0  0  0  0  0  0  0  0  0
    9.9294  -19.9071   21.9684 O   0  0  0  0  0  0  0  0  0  0  0  0
  2  7  1  0
  2  1  1  6
  3  2  1  0
  4  3  1  0
  5  4  1  0
  6  5  2  0
  7  8  2  0
  9  5  1  0
 10 11  1  0
 10  7  1  0
 11 12  1  6
 13 12  1  0
 13 14  1  0
 14 15  1  0
 15 16  1  0
 17 18  2  0
 17 11  1  0
 19 20  1  0
 21 20  1  1
 21 22  1  0
 21 23  1  0
 22 17  1  0
 23 25  1  0
 24 23  2  0
M  END
$$$$
