EKS.pdb
     RDKit          3D

 25 24  0  0  1  0  0  0  0  0999 V2000
    9.0331  -13.1532   17.9534 N   0  0  0  0  0  0  0  0  0  0  0  0
    9.2349  -14.5278   18.2788 C   0  0  1  0  0  0  0  0  0  0  0  0
   10.5694  -15.0800   17.8817 C   0  0  0  0  0  0  0  0  0  0  0  0
   11.7522  -14.4042   18.5080 C   0  0  0  0  0  0  0  0  0  0  0  0
   13.0372  -14.9771   18.0782 C   0  0  0  0  0  0  0  0  0  0  0  0
   14.1302  -14.4908   18.5043 O   0  0  0  0  0  0  0  0  0  0  0  0
    8.8886  -14.8787   19.6961 C   0  0  0  0  0  0  0  0  0  0  0  0
    9.0603  -14.0127   20.5988 O   0  0  0  0  0  0  0  0  0  0  0  0
   13.1366  -16.0533   17.2101 O   0  0  0  0  0  0  0  0  0  0  0  0
    8.3770  -16.1438   20.0637 N   0  0  0  0  0  0  0  0  0  0  0  0
    7.8730  -16.5539   21.3267 C   0  0  1  0  0  0  0  0  0  0  0  0
    6.9869  -17.7833   21.3385 C   0  0  0  0  0  0  0  0  0  0  0  0
    5.7170  -17.5765   20.5534 C   0  0  0  0  0  0  0  0  0  0  0  0
    4.8785  -18.8147   20.4201 C   0  0  0  0  0  0  0  0  0  0  0  0
    3.5847  -18.5107   19.7135 C   0  0  0  0  0  0  0  0  0  0  0  0
    2.8328  -19.7678   19.6121 N   0  0  0  0  0  0  0  0  0  0  0  0
    8.7965  -16.4658   22.4613 C   0  0  0  0  0  0  0  0  0  0  0  0
   10.0029  -16.7560   22.2733 O   0  0  0  0  0  0  0  0  0  0  0  0
    9.4883  -15.3148   27.1433 O   0  0  0  0  0  0  0  0  0  0  0  0
    8.6381  -15.2875   26.0644 C   0  0  0  0  0  0  0  0  0  0  0  0
    9.2834  -16.0238   24.9082 C   0  0  2  0  0  0  0  0  0  0  0  0
    8.4032  -16.0715   23.7564 N   0  0  0  0  0  0  0  0  0  0  0  0
    9.6540  -17.4075   25.3018 C   0  0  0  0  0  0  0  0  0  0  0  0
    8.9665  -18.3809   24.9253 O   0  0  0  0  0  0  0  0  0  0  0  0
   10.7627  -17.6336   26.0884 O   0  0  0  0  0  0  0  0  0  0  0  0
  2  7  1  0
  2  1  1  1
  3  2  1  0
  4  3  1  0
  5  4  1  0
  6  5  2  0
  7  8  2  0
  9  5  1  0
 10 11  1  0
 10  7  1  0
 11 12  1  6
 13 12  1  0
 13 14  1  0
 14 15  1  0
 15 16  1  0
 17 18  2  0
 17 11  1  0
 19 20  1  0
 21 20  1  1
 21 22  1  0
 21 23  1  0
 22 17  1  0
 23 25  1  0
 24 23  2  0
M  END
$$$$
