EKS.pdb
     RDKit          3D

 25 24  0  0  1  0  0  0  0  0999 V2000
   11.4225  -19.2434   14.4201 N   0  0  0  0  0  0  0  0  0  0  0  0
   11.8194  -20.3340   15.2502 C   0  0  1  0  0  0  0  0  0  0  0  0
   13.2560  -20.7368   15.1175 C   0  0  0  0  0  0  0  0  0  0  0  0
   14.2409  -19.6065   15.1413 C   0  0  0  0  0  0  0  0  0  0  0  0
   15.6370  -20.0568   15.0301 C   0  0  0  0  0  0  0  0  0  0  0  0
   16.0471  -21.0472   15.7111 O   0  0  0  0  0  0  0  0  0  0  0  0
   11.4146  -20.1881   16.6878 C   0  0  0  0  0  0  0  0  0  0  0  0
   11.4965  -19.0522   17.2328 O   0  0  0  0  0  0  0  0  0  0  0  0
   16.5665  -19.4512   14.1989 O   0  0  0  0  0  0  0  0  0  0  0  0
   10.9445  -21.2744   17.4601 N   0  0  0  0  0  0  0  0  0  0  0  0
   10.5360  -21.2728   18.8205 C   0  0  1  0  0  0  0  0  0  0  0  0
    9.4314  -22.2386   19.1998 C   0  0  0  0  0  0  0  0  0  0  0  0
    8.1519  -21.9606   18.4533 C   0  0  0  0  0  0  0  0  0  0  0  0
    7.0099  -22.8481   18.8562 C   0  0  0  0  0  0  0  0  0  0  0  0
    5.7895  -22.5601   18.0238 C   0  0  0  0  0  0  0  0  0  0  0  0
    4.6829  -23.3511   18.5770 N   0  0  0  0  0  0  0  0  0  0  0  0
   11.5970  -21.1468   19.8237 C   0  0  0  0  0  0  0  0  0  0  0  0
   12.7051  -21.6885   19.5922 O   0  0  0  0  0  0  0  0  0  0  0  0
   10.8092  -19.2891   23.3811 O   0  0  0  0  0  0  0  0  0  0  0  0
   12.1429  -19.2477   23.0539 C   0  0  0  0  0  0  0  0  0  0  0  0
   12.4475  -20.3672   22.0794 C   0  0  2  0  0  0  0  0  0  0  0  0
   11.4410  -20.4482   21.0382 N   0  0  0  0  0  0  0  0  0  0  0  0
   12.5340  -21.6729   22.7826 C   0  0  0  0  0  0  0  0  0  0  0  0
   11.7426  -22.5989   22.5029 O   0  0  0  0  0  0  0  0  0  0  0  0
   13.4902  -21.8781   23.7536 O   0  0  0  0  0  0  0  0  0  0  0  0
  2  7  1  0
  2  1  1  6
  3  2  1  0
  4  3  1  0
  5  4  1  0
  6  5  2  0
  7  8  2  0
  9  5  1  0
 10 11  1  0
 10  7  1  0
 11 12  1  1
 13 12  1  0
 13 14  1  0
 14 15  1  0
 15 16  1  0
 17 18  2  0
 17 11  1  0
 19 20  1  0
 21 20  1  1
 21 22  1  0
 21 23  1  0
 22 17  1  0
 23 25  1  0
 24 23  2  0
M  END
$$$$
