EKS.pdb
     RDKit          3D

 25 24  0  0  1  0  0  0  0  0999 V2000
   11.9717  -14.0383   17.8378 N   0  0  0  0  0  0  0  0  0  0  0  0
   12.6820  -14.9618   18.6616 C   0  0  1  0  0  0  0  0  0  0  0  0
   14.0492  -14.5131   19.0774 C   0  0  0  0  0  0  0  0  0  0  0  0
   15.0833  -14.5259   17.9917 C   0  0  0  0  0  0  0  0  0  0  0  0
   16.4520  -14.6997   18.5021 C   0  0  0  0  0  0  0  0  0  0  0  0
   16.9723  -13.8180   19.2537 O   0  0  0  0  0  0  0  0  0  0  0  0
   11.8894  -15.4784   19.8264 C   0  0  0  0  0  0  0  0  0  0  0  0
   11.2318  -14.6603   20.5282 O   0  0  0  0  0  0  0  0  0  0  0  0
   17.2378  -15.8032   18.2085 O   0  0  0  0  0  0  0  0  0  0  0  0
   11.8493  -16.8481   20.1722 N   0  0  0  0  0  0  0  0  0  0  0  0
   11.0885  -17.4734   21.1958 C   0  0  1  0  0  0  0  0  0  0  0  0
   10.6955  -18.9186   20.9643 C   0  0  0  0  0  0  0  0  0  0  0  0
    9.8708  -19.0904   19.7145 C   0  0  0  0  0  0  0  0  0  0  0  0
    9.4900  -20.5146   19.4305 C   0  0  0  0  0  0  0  0  0  0  0  0
    8.5686  -20.5951   18.2431 C   0  0  0  0  0  0  0  0  0  0  0  0
    8.2238  -22.0091   18.0488 N   0  0  0  0  0  0  0  0  0  0  0  0
   11.4706  -17.1667   22.5771 C   0  0  0  0  0  0  0  0  0  0  0  0
   12.6919  -17.0916   22.8562 O   0  0  0  0  0  0  0  0  0  0  0  0
    8.6387  -15.9491   24.8906 O   0  0  0  0  0  0  0  0  0  0  0  0
    9.6825  -16.1474   25.7618 C   0  0  0  0  0  0  0  0  0  0  0  0
   10.8879  -16.6368   24.9852 C   0  0  2  0  0  0  0  0  0  0  0  0
   10.5390  -16.9506   23.6128 N   0  0  0  0  0  0  0  0  0  0  0  0
   11.4812  -17.8371   25.6287 C   0  0  0  0  0  0  0  0  0  0  0  0
   11.4987  -18.9350   25.0318 O   0  0  0  0  0  0  0  0  0  0  0  0
   12.0204  -17.7530   26.8942 O   0  0  0  0  0  0  0  0  0  0  0  0
  2  7  1  0
  2  1  1  1
  3  2  1  0
  4  3  1  0
  5  4  1  0
  6  5  2  0
  7  8  2  0
  9  5  1  0
 10 11  1  0
 10  7  1  0
 11 12  1  6
 13 12  1  0
 13 14  1  0
 14 15  1  0
 15 16  1  0
 17 18  2  0
 17 11  1  0
 19 20  1  0
 21 20  1  1
 21 22  1  0
 21 23  1  0
 22 17  1  0
 23 25  1  0
 24 23  2  0
M  END
$$$$
