LKT.pdb
     RDKit          3D

 25 24  0  0  1  0  0  0  0  0999 V2000
    8.9133  -13.7644   18.9866 C   0  0  0  0  0  0  0  0  0  0  0  0
    7.5838  -13.2905   19.5195 C   0  0  2  0  0  0  0  0  0  0  0  0
    7.8510  -12.5188   20.7887 C   0  0  0  0  0  0  0  0  0  0  0  0
    6.7055  -14.4782   19.8556 C   0  0  0  0  0  0  0  0  0  0  0  0
    7.5296  -15.6925   20.2142 C   0  0  2  0  0  0  0  0  0  0  0  0
    7.0299  -16.8001   19.4328 N   0  0  0  0  0  0  0  0  0  0  0  0
    7.3019  -15.9226   21.6894 C   0  0  0  0  0  0  0  0  0  0  0  0
    6.1061  -15.9182   22.0506 O   0  0  0  0  0  0  0  0  0  0  0  0
    8.3717  -16.1247   22.5722 N   0  0  0  0  0  0  0  0  0  0  0  0
    8.1325  -16.4759   23.9739 C   0  0  1  0  0  0  0  0  0  0  0  0
    8.9139  -17.7154   24.2428 C   0  0  0  0  0  0  0  0  0  0  0  0
    8.9428  -18.2110   25.6473 C   0  0  0  0  0  0  0  0  0  0  0  0
    7.9769  -19.3400   25.9172 C   0  0  0  0  0  0  0  0  0  0  0  0
    8.1306  -19.7316   27.3811 C   0  0  0  0  0  0  0  0  0  0  0  0
    7.2275  -20.8255   27.6887 N   0  0  0  0  0  0  0  0  0  0  0  0
    8.4727  -15.3036   24.8120 C   0  0  0  0  0  0  0  0  0  0  0  0
    9.5222  -14.6266   24.4954 O   0  0  0  0  0  0  0  0  0  0  0  0
    6.8422  -11.8428   25.8109 C   0  0  0  0  0  0  0  0  0  0  0  0
    7.1895  -12.7011   26.9811 C   0  0  1  0  0  0  0  0  0  0  0  0
    6.0507  -13.4047   27.3711 O   0  0  0  0  0  0  0  0  0  0  0  0
    8.2696  -13.7147   26.6908 C   0  0  2  0  0  0  0  0  0  0  0  0
    7.7629  -14.8417   25.9279 N   0  0  0  0  0  0  0  0  0  0  0  0
    8.8126  -14.2191   27.9654 C   0  0  0  0  0  0  0  0  0  0  0  0
    9.3924  -13.3371   28.8561 O   0  0  0  0  0  0  0  0  0  0  0  0
    8.7288  -15.4624   28.2057 O   0  0  0  0  0  0  0  0  0  0  0  0
  2  1  1  1
  2  3  1  0
  4  5  1  0
  4  2  1  0
  5  7  1  0
  5  6  1  6
  7  8  2  0
  9 10  1  0
  9  7  1  0
 11 12  1  0
 10 11  1  1
 13 14  1  0
 13 12  1  0
 15 14  1  0
 16 10  1  0
 17 16  2  0
 19 18  1  6
 19 21  1  0
 20 19  1  0
 21 23  1  0
 21 22  1  1
 22 16  1  0
 23 24  1  0
 25 23  2  0
M  END
$$$$
