LKT.pdb
     RDKit          3D

 25 24  0  0  1  0  0  0  0  0999 V2000
    9.5497  -13.4404   19.2017 C   0  0  0  0  0  0  0  0  0  0  0  0
    8.0469  -13.4941   19.0800 C   0  0  2  0  0  0  0  0  0  0  0  0
    7.5350  -12.0753   19.1301 C   0  0  0  0  0  0  0  0  0  0  0  0
    7.4579  -14.2586   20.2478 C   0  0  0  0  0  0  0  0  0  0  0  0
    8.1080  -15.6129   20.4074 C   0  0  2  0  0  0  0  0  0  0  0  0
    7.3464  -16.5536   19.6188 N   0  0  0  0  0  0  0  0  0  0  0  0
    8.0186  -15.9407   21.8790 C   0  0  0  0  0  0  0  0  0  0  0  0
    6.8671  -15.9108   22.3622 O   0  0  0  0  0  0  0  0  0  0  0  0
    9.1602  -16.2534   22.6298 N   0  0  0  0  0  0  0  0  0  0  0  0
    9.0500  -16.6405   24.0381 C   0  0  1  0  0  0  0  0  0  0  0  0
   10.1295  -17.6348   24.2934 C   0  0  0  0  0  0  0  0  0  0  0  0
   10.3742  -18.0259   25.7097 C   0  0  0  0  0  0  0  0  0  0  0  0
    9.9045  -19.4207   26.0486 C   0  0  0  0  0  0  0  0  0  0  0  0
   10.0432  -19.5951   27.5554 C   0  0  0  0  0  0  0  0  0  0  0  0
    9.3635  -20.8093   27.9684 N   0  0  0  0  0  0  0  0  0  0  0  0
    9.0953  -15.4119   24.8634 C   0  0  0  0  0  0  0  0  0  0  0  0
   10.1318  -14.6547   24.7520 O   0  0  0  0  0  0  0  0  0  0  0  0
    6.7522  -12.1084   25.6635 C   0  0  0  0  0  0  0  0  0  0  0  0
    7.1030  -12.9991   26.8082 C   0  0  1  0  0  0  0  0  0  0  0  0
    6.0590  -13.9016   27.0068 O   0  0  0  0  0  0  0  0  0  0  0  0
    8.3605  -13.8043   26.5871 C   0  0  2  0  0  0  0  0  0  0  0  0
    8.1152  -14.9754   25.7641 N   0  0  0  0  0  0  0  0  0  0  0  0
    8.8828  -14.2507   27.8917 C   0  0  0  0  0  0  0  0  0  0  0  0
    9.2669  -13.3123   28.8294 O   0  0  0  0  0  0  0  0  0  0  0  0
    8.9635  -15.4975   28.1134 O   0  0  0  0  0  0  0  0  0  0  0  0
  2  1  1  1
  2  3  1  0
  4  5  1  0
  4  2  1  0
  5  7  1  0
  5  6  1  6
  7  8  2  0
  9 10  1  0
  9  7  1  0
 11 12  1  0
 10 11  1  1
 13 14  1  0
 13 12  1  0
 15 14  1  0
 16 10  1  0
 17 16  2  0
 19 18  1  6
 19 21  1  0
 20 19  1  0
 21 23  1  0
 21 22  1  6
 22 16  1  0
 23 24  1  0
 25 23  2  0
M  END
$$$$
