LKT.pdb
     RDKit          3D

 25 24  0  0  1  0  0  0  0  0999 V2000
    9.6546  -13.9584   19.6172 C   0  0  0  0  0  0  0  0  0  0  0  0
    8.2315  -13.7824   19.1481 C   0  0  2  0  0  0  0  0  0  0  0  0
    7.9821  -12.3018   18.9957 C   0  0  0  0  0  0  0  0  0  0  0  0
    7.2712  -14.3268   20.1856 C   0  0  0  0  0  0  0  0  0  0  0  0
    7.5534  -15.7787   20.4935 C   0  0  2  0  0  0  0  0  0  0  0  0
    6.7120  -16.5750   19.6304 N   0  0  0  0  0  0  0  0  0  0  0  0
    7.1795  -15.9712   21.9440 C   0  0  0  0  0  0  0  0  0  0  0  0
    5.9646  -15.8399   22.2027 O   0  0  0  0  0  0  0  0  0  0  0  0
    8.1443  -16.2754   22.9143 N   0  0  0  0  0  0  0  0  0  0  0  0
    7.7579  -16.5274   24.3044 C   0  0  1  0  0  0  0  0  0  0  0  0
    8.4253  -17.7961   24.7097 C   0  0  0  0  0  0  0  0  0  0  0  0
    8.2496  -18.2370   26.1217 C   0  0  0  0  0  0  0  0  0  0  0  0
    9.0750  -19.4464   26.4917 C   0  0  0  0  0  0  0  0  0  0  0  0
    8.8156  -19.7428   27.9631 C   0  0  0  0  0  0  0  0  0  0  0  0
    9.5373  -20.9406   28.3518 N   0  0  0  0  0  0  0  0  0  0  0  0
    8.1019  -15.3317   25.1071 C   0  0  0  0  0  0  0  0  0  0  0  0
    9.2370  -14.7658   24.8806 O   0  0  0  0  0  0  0  0  0  0  0  0
    6.2881  -11.6639   26.0662 C   0  0  0  0  0  0  0  0  0  0  0  0
    6.6532  -12.6210   27.1513 C   0  0  1  0  0  0  0  0  0  0  0  0
    5.5421  -13.4122   27.4400 O   0  0  0  0  0  0  0  0  0  0  0  0
    7.7862  -13.5490   26.7858 C   0  0  2  0  0  0  0  0  0  0  0  0
    7.3118  -14.7379   26.0998 N   0  0  0  0  0  0  0  0  0  0  0  0
    8.4837  -13.9661   28.0160 C   0  0  0  0  0  0  0  0  0  0  0  0
    9.0775  -13.0126   28.8196 O   0  0  0  0  0  0  0  0  0  0  0  0
    8.5164  -15.2024   28.3002 O   0  0  0  0  0  0  0  0  0  0  0  0
  2  1  1  1
  2  3  1  0
  4  5  1  0
  4  2  1  0
  5  7  1  0
  5  6  1  6
  7  8  2  0
  9 10  1  0
  9  7  1  0
 11 12  1  0
 10 11  1  1
 13 14  1  0
 13 12  1  0
 15 14  1  0
 16 10  1  0
 17 16  2  0
 19 18  1  6
 19 21  1  0
 20 19  1  0
 21 23  1  0
 21 22  1  1
 22 16  1  0
 23 24  1  0
 25 23  2  0
M  END
$$$$
