LKT.pdb
     RDKit          3D

 25 24  0  0  1  0  0  0  0  0999 V2000
    5.4863  -12.2680   26.4402 C   0  0  0  0  0  0  0  0  0  0  0  0
    6.4907  -12.9072   27.3668 C   0  0  2  0  0  0  0  0  0  0  0  0
    7.4643  -11.8355   27.7920 C   0  0  0  0  0  0  0  0  0  0  0  0
    7.2575  -13.9896   26.6352 C   0  0  0  0  0  0  0  0  0  0  0  0
    6.3315  -14.8939   25.8560 C   0  0  2  0  0  0  0  0  0  0  0  0
    6.0032  -16.0137   26.7077 N   0  0  0  0  0  0  0  0  0  0  0  0
    7.1174  -15.3435   24.6472 C   0  0  0  0  0  0  0  0  0  0  0  0
    7.6025  -16.4920   24.7244 O   0  0  0  0  0  0  0  0  0  0  0  0
    7.2780  -14.5140   23.5288 N   0  0  0  0  0  0  0  0  0  0  0  0
    7.8428  -15.0353   22.2820 C   0  0  1  0  0  0  0  0  0  0  0  0
    7.6736  -13.9675   21.2572 C   0  0  0  0  0  0  0  0  0  0  0  0
    8.1858  -14.2508   19.8874 C   0  0  0  0  0  0  0  0  0  0  0  0
    7.9363  -13.1367   18.8989 C   0  0  0  0  0  0  0  0  0  0  0  0
    8.9797  -13.2631   17.7964 C   0  0  0  0  0  0  0  0  0  0  0  0
    8.8086  -14.5298   17.1086 N   0  0  0  0  0  0  0  0  0  0  0  0
    9.2358  -15.4629   22.5451 C   0  0  0  0  0  0  0  0  0  0  0  0
    9.9267  -14.7677   23.3814 O   0  0  0  0  0  0  0  0  0  0  0  0
   12.8224  -18.8550   22.6931 C   0  0  0  0  0  0  0  0  0  0  0  0
   11.4246  -18.4345   22.3836 C   0  0  1  0  0  0  0  0  0  0  0  0
   10.5664  -19.0233   23.3114 O   0  0  0  0  0  0  0  0  0  0  0  0
   11.2105  -16.9420   22.4535 C   0  0  2  0  0  0  0  0  0  0  0  0
    9.8927  -16.5616   21.9762 N   0  0  0  0  0  0  0  0  0  0  0  0
   12.2224  -16.2701   21.6176 C   0  0  0  0  0  0  0  0  0  0  0  0
   13.4725  -16.0052   22.1414 O   0  0  0  0  0  0  0  0  0  0  0  0
   11.9082  -15.9532   20.4297 O   0  0  0  0  0  0  0  0  0  0  0  0
  2  1  1  6
  2  3  1  0
  4  5  1  0
  4  2  1  0
  5  7  1  0
  5  6  1  1
  7  8  2  0
  9 10  1  0
  9  7  1  0
 11 12  1  0
 10 11  1  6
 13 14  1  0
 13 12  1  0
 15 14  1  0
 16 10  1  0
 17 16  2  0
 19 18  1  1
 19 21  1  0
 20 19  1  0
 21 23  1  0
 21 22  1  6
 22 16  1  0
 23 24  1  0
 25 23  2  0
M  END
$$$$
