LKT.pdb
     RDKit          3D

 25 24  0  0  1  0  0  0  0  0999 V2000
    9.5114  -13.4772   19.0178 C   0  0  0  0  0  0  0  0  0  0  0  0
    8.0094  -13.5613   19.1325 C   0  0  2  0  0  0  0  0  0  0  0  0
    7.4742  -12.1503   19.1454 C   0  0  0  0  0  0  0  0  0  0  0  0
    7.6244  -14.2329   20.4346 C   0  0  0  0  0  0  0  0  0  0  0  0
    8.1238  -15.6575   20.4917 C   0  0  2  0  0  0  0  0  0  0  0  0
    7.1358  -16.4883   19.8431 N   0  0  0  0  0  0  0  0  0  0  0  0
    8.2373  -15.9946   21.9595 C   0  0  0  0  0  0  0  0  0  0  0  0
    7.1551  -16.0329   22.5822 O   0  0  0  0  0  0  0  0  0  0  0  0
    9.4795  -16.2432   22.5594 N   0  0  0  0  0  0  0  0  0  0  0  0
    9.5641  -16.7150   23.9434 C   0  0  1  0  0  0  0  0  0  0  0  0
   10.7642  -17.5942   24.0221 C   0  0  0  0  0  0  0  0  0  0  0  0
   11.0533  -18.2358   25.3350 C   0  0  0  0  0  0  0  0  0  0  0  0
   12.2876  -19.1059   25.3315 C   0  0  0  0  0  0  0  0  0  0  0  0
   12.4352  -19.6937   26.7289 C   0  0  0  0  0  0  0  0  0  0  0  0
   13.5580  -20.6134   26.7529 N   0  0  0  0  0  0  0  0  0  0  0  0
    9.5682  -15.5351   24.8379 C   0  0  0  0  0  0  0  0  0  0  0  0
   10.4970  -14.6587   24.6673 O   0  0  0  0  0  0  0  0  0  0  0  0
    7.4758  -12.3613   25.5058 C   0  0  0  0  0  0  0  0  0  0  0  0
    7.6174  -13.2120   26.7235 C   0  0  1  0  0  0  0  0  0  0  0  0
    6.5027  -14.0441   26.8178 O   0  0  0  0  0  0  0  0  0  0  0  0
    8.8410  -14.0957   26.7074 C   0  0  2  0  0  0  0  0  0  0  0  0
    8.6541  -15.2630   25.8639 N   0  0  0  0  0  0  0  0  0  0  0  0
    9.1246  -14.5516   28.0805 C   0  0  0  0  0  0  0  0  0  0  0  0
    9.1178  -15.9030   28.3653 O   0  0  0  0  0  0  0  0  0  0  0  0
    9.3688  -13.6771   28.9671 O   0  0  0  0  0  0  0  0  0  0  0  0
  2  1  1  1
  2  3  1  0
  4  5  1  0
  4  2  1  0
  5  7  1  0
  5  6  1  6
  7  8  2  0
  9 10  1  0
  9  7  1  0
 11 12  1  0
 10 11  1  6
 13 14  1  0
 13 12  1  0
 15 14  1  0
 16 10  1  0
 17 16  2  0
 19 18  1  6
 19 21  1  0
 20 19  1  0
 21 23  1  0
 21 22  1  6
 22 16  1  0
 23 24  1  0
 25 23  2  0
M  END
$$$$
