LDV.pdb
     RDKit          3D

 24 23  0  0  1  0  0  0  0  0999 V2000
   16.5057  -14.8963  -16.7070 C   0  0  0  0  0  0  0  0  0  0  0  0
   17.9712  -14.5929  -16.6059 C   0  0  2  0  0  0  0  0  0  0  0  0
   18.7266  -15.7046  -15.8981 C   0  0  0  0  0  0  0  0  0  0  0  0
   18.1471  -13.2866  -15.8576 C   0  0  0  0  0  0  0  0  0  0  0  0
   17.6082  -12.1069  -16.6036 C   0  0  2  0  0  0  0  0  0  0  0  0
   18.1084  -11.9590  -17.9405 N   0  0  0  0  0  0  0  0  0  0  0  0
   17.8568  -10.8861  -15.7693 C   0  0  0  0  0  0  0  0  0  0  0  0
   17.3882  -10.9100  -14.5994 O   0  0  0  0  0  0  0  0  0  0  0  0
   18.5702   -9.7770  -16.2593 N   0  0  0  0  0  0  0  0  0  0  0  0
   18.7695   -8.6244  -15.3176 C   0  0  1  0  0  0  0  0  0  0  0  0
   20.2169   -8.7258  -14.8987 C   0  0  0  0  0  0  0  0  0  0  0  0
   20.6522   -7.6946  -13.9935 C   0  0  0  0  0  0  0  0  0  0  0  0
   20.0544   -6.6941  -13.5501 O   0  0  0  0  0  0  0  0  0  0  0  0
   18.4533   -7.4039  -16.0667 C   0  0  0  0  0  0  0  0  0  0  0  0
   18.9772   -7.2718  -17.2302 O   0  0  0  0  0  0  0  0  0  0  0  0
   21.9866   -7.8024  -13.4999 O   0  0  0  0  0  0  0  0  0  0  0  0
   15.4038   -6.0056  -17.7115 C   0  0  0  0  0  0  0  0  0  0  0  0
   15.9501   -4.9896  -16.7526 C   0  0  1  0  0  0  0  0  0  0  0  0
   15.1339   -4.9819  -15.4967 C   0  0  0  0  0  0  0  0  0  0  0  0
   17.4208   -5.1640  -16.4761 C   0  0  2  0  0  0  0  0  0  0  0  0
   17.6314   -6.3678  -15.6474 N   0  0  0  0  0  0  0  0  0  0  0  0
   17.9106   -4.0150  -15.6475 C   0  0  0  0  0  0  0  0  0  0  0  0
   18.0619   -4.1969  -14.4198 O   0  0  0  0  0  0  0  0  0  0  0  0
   18.2000   -2.7745  -16.1724 O   0  0  0  0  0  0  0  0  0  0  0  0
  2  1  1  1
  3  2  1  0
  4  5  1  0
  4  2  1  0
  5  6  1  6
  5  7  1  0
  7  8  2  0
  9  7  1  0
  9 10  1  0
 10 14  1  0
 10 11  1  6
 12 16  1  0
 12 11  1  0
 13 12  2  0
 14 15  2  0
 18 17  1  6
 18 20  1  0
 19 18  1  0
 20 22  1  0
 20 21  1  1
 21 14  1  0
 22 23  2  0
 22 24  1  0
M  END
$$$$
