LDV.pdb
     RDKit          3D

 24 23  0  0  1  0  0  0  0  0999 V2000
   30.1612  -23.4266  -18.1989 C   0  0  0  0  0  0  0  0  0  0  0  0
   30.8062  -24.3422  -17.2011 C   0  0  2  0  0  0  0  0  0  0  0  0
   32.3215  -24.2981  -17.2970 C   0  0  0  0  0  0  0  0  0  0  0  0
   30.3107  -25.7538  -17.4449 C   0  0  0  0  0  0  0  0  0  0  0  0
   28.8311  -25.8934  -17.2720 C   0  0  2  0  0  0  0  0  0  0  0  0
   28.3246  -25.4287  -16.0123 N   0  0  0  0  0  0  0  0  0  0  0  0
   28.4740  -27.3265  -17.5303 C   0  0  0  0  0  0  0  0  0  0  0  0
   28.8287  -27.7932  -18.6462 O   0  0  0  0  0  0  0  0  0  0  0  0
   27.7836  -28.1079  -16.5859 N   0  0  0  0  0  0  0  0  0  0  0  0
   27.5434  -29.5480  -16.9375 C   0  0  1  0  0  0  0  0  0  0  0  0
   27.7294  -30.2900  -15.6354 C   0  0  0  0  0  0  0  0  0  0  0  0
   27.5987  -31.7200  -15.7369 C   0  0  0  0  0  0  0  0  0  0  0  0
   27.2969  -32.4438  -16.7063 O   0  0  0  0  0  0  0  0  0  0  0  0
   26.1829  -29.6322  -17.4786 C   0  0  0  0  0  0  0  0  0  0  0  0
   25.2274  -29.1859  -16.7483 O   0  0  0  0  0  0  0  0  0  0  0  0
   27.8490  -32.4681  -14.5479 O   0  0  0  0  0  0  0  0  0  0  0  0
   25.2719  -30.5403  -21.5032 C   0  0  0  0  0  0  0  0  0  0  0  0
   24.3762  -29.7079  -20.6343 C   0  0  1  0  0  0  0  0  0  0  0  0
   22.9833  -29.7110  -21.1852 C   0  0  0  0  0  0  0  0  0  0  0  0
   24.4165  -30.1090  -19.1826 C   0  0  2  0  0  0  0  0  0  0  0  0
   25.8168  -30.1436  -18.7153 N   0  0  0  0  0  0  0  0  0  0  0  0
   23.9106  -31.5127  -19.0403 C   0  0  0  0  0  0  0  0  0  0  0  0
   24.7211  -32.4502  -19.2057 O   0  0  0  0  0  0  0  0  0  0  0  0
   22.6013  -31.8167  -18.7380 O   0  0  0  0  0  0  0  0  0  0  0  0
  2  1  1  6
  3  2  1  0
  4  5  1  0
  4  2  1  0
  5  6  1  1
  5  7  1  0
  7  8  2  0
  9  7  1  0
  9 10  1  0
 10 14  1  0
 10 11  1  1
 12 16  1  0
 12 11  1  0
 13 12  2  0
 14 15  2  0
 18 17  1  6
 18 20  1  0
 19 18  1  0
 20 22  1  0
 20 21  1  6
 21 14  1  0
 22 23  2  0
 22 24  1  0
M  END
$$$$
