LDV.pdb
     RDKit          3D

 24 23  0  0  1  0  0  0  0  0999 V2000
   21.7535  -13.8922  -14.6707 C   0  0  0  0  0  0  0  0  0  0  0  0
   22.6071  -13.1894  -15.6842 C   0  0  2  0  0  0  0  0  0  0  0  0
   24.0586  -13.1180  -15.2423 C   0  0  0  0  0  0  0  0  0  0  0  0
   22.0590  -11.7924  -15.8971 C   0  0  0  0  0  0  0  0  0  0  0  0
   20.6213  -11.7837  -16.3113 C   0  0  2  0  0  0  0  0  0  0  0  0
   20.3508  -12.4294  -17.5640 N   0  0  0  0  0  0  0  0  0  0  0  0
   20.1498  -10.3605  -16.2961 C   0  0  0  0  0  0  0  0  0  0  0  0
   20.3624   -9.6954  -17.3456 O   0  0  0  0  0  0  0  0  0  0  0  0
   19.5079   -9.7964  -15.1786 N   0  0  0  0  0  0  0  0  0  0  0  0
   19.0947   -8.3566  -15.2845 C   0  0  1  0  0  0  0  0  0  0  0  0
   17.7690   -8.2909  -14.5643 C   0  0  0  0  0  0  0  0  0  0  0  0
   16.6793   -8.9287  -15.2559 C   0  0  0  0  0  0  0  0  0  0  0  0
   15.9891   -9.9209  -14.9493 O   0  0  0  0  0  0  0  0  0  0  0  0
   20.1532   -7.5630  -14.6515 C   0  0  0  0  0  0  0  0  0  0  0  0
   20.5668   -7.9421  -13.4979 O   0  0  0  0  0  0  0  0  0  0  0  0
   16.2970   -8.3568  -16.5059 O   0  0  0  0  0  0  0  0  0  0  0  0
   23.5748   -6.6277  -16.2654 C   0  0  0  0  0  0  0  0  0  0  0  0
   22.9576   -5.4435  -15.5821 C   0  0  1  0  0  0  0  0  0  0  0  0
   22.3923   -4.5028  -16.6014 C   0  0  0  0  0  0  0  0  0  0  0  0
   21.9453   -5.8237  -14.5331 C   0  0  2  0  0  0  0  0  0  0  0  0
   20.7667   -6.4358  -15.1785 N   0  0  0  0  0  0  0  0  0  0  0  0
   21.4368   -4.5844  -13.8605 C   0  0  0  0  0  0  0  0  0  0  0  0
   20.2948   -4.1760  -14.1644 O   0  0  0  0  0  0  0  0  0  0  0  0
   22.1650   -3.8779  -12.9285 O   0  0  0  0  0  0  0  0  0  0  0  0
  2  1  1  1
  3  2  1  0
  4  5  1  0
  4  2  1  0
  5  6  1  6
  5  7  1  0
  7  8  2  0
  9  7  1  0
  9 10  1  0
 10 14  1  0
 10 11  1  1
 12 16  1  0
 12 11  1  0
 13 12  2  0
 14 15  2  0
 18 17  1  6
 18 20  1  0
 19 18  1  0
 20 22  1  0
 20 21  1  6
 21 14  1  0
 22 23  2  0
 22 24  1  0
M  END
$$$$
