LDV.pdb
     RDKit          3D

 24 23  0  0  1  0  0  0  0  0999 V2000
   15.8594  -14.7904  -17.0016 C   0  0  0  0  0  0  0  0  0  0  0  0
   17.0148  -15.4398  -16.2992 C   0  0  2  0  0  0  0  0  0  0  0  0
   16.6951  -15.7285  -14.8426 C   0  0  0  0  0  0  0  0  0  0  0  0
   18.2193  -14.5247  -16.3957 C   0  0  0  0  0  0  0  0  0  0  0  0
   18.6664  -14.2912  -17.8042 C   0  0  2  0  0  0  0  0  0  0  0  0
   19.3084  -15.4134  -18.4270 N   0  0  0  0  0  0  0  0  0  0  0  0
   19.5343  -13.0685  -17.8115 C   0  0  0  0  0  0  0  0  0  0  0  0
   20.7748  -13.2693  -17.7141 O   0  0  0  0  0  0  0  0  0  0  0  0
   18.9998  -11.7717  -17.9202 N   0  0  0  0  0  0  0  0  0  0  0  0
   19.9783  -10.6352  -17.9966 C   0  0  1  0  0  0  0  0  0  0  0  0
   19.2881   -9.6005  -18.8532 C   0  0  0  0  0  0  0  0  0  0  0  0
   20.0511   -8.3998  -19.0737 C   0  0  0  0  0  0  0  0  0  0  0  0
   21.2045   -8.0901  -18.7152 O   0  0  0  0  0  0  0  0  0  0  0  0
   20.2268  -10.1950  -16.6199 C   0  0  0  0  0  0  0  0  0  0  0  0
   19.2294  -10.1845  -15.8133 O   0  0  0  0  0  0  0  0  0  0  0  0
   19.4122   -7.3686  -19.8249 O   0  0  0  0  0  0  0  0  0  0  0  0
   22.9131  -11.4491  -14.0060 C   0  0  0  0  0  0  0  0  0  0  0  0
   22.8884   -9.9546  -14.1320 C   0  0  1  0  0  0  0  0  0  0  0  0
   24.0617   -9.4906  -14.9393 C   0  0  0  0  0  0  0  0  0  0  0  0
   21.5831   -9.4246  -14.6660 C   0  0  2  0  0  0  0  0  0  0  0  0
   21.4434   -9.7905  -16.0897 N   0  0  0  0  0  0  0  0  0  0  0  0
   21.6055   -7.9262  -14.6365 C   0  0  0  0  0  0  0  0  0  0  0  0
   21.8441   -7.3199  -15.7036 O   0  0  0  0  0  0  0  0  0  0  0  0
   21.3770   -7.1897  -13.4948 O   0  0  0  0  0  0  0  0  0  0  0  0
  2  1  1  1
  3  2  1  0
  4  5  1  0
  4  2  1  0
  5  6  1  1
  5  7  1  0
  7  8  2  0
  9  7  1  0
  9 10  1  0
 10 14  1  0
 10 11  1  6
 12 16  1  0
 12 11  1  0
 13 12  2  0
 14 15  2  0
 18 17  1  6
 18 20  1  0
 19 18  1  0
 20 22  1  0
 20 21  1  6
 21 14  1  0
 22 23  2  0
 22 24  1  0
M  END
$$$$
