LDV.pdb
     RDKit          3D

 24 23  0  0  1  0  0  0  0  0999 V2000
   26.3194  -11.7802  -15.2377 C   0  0  0  0  0  0  0  0  0  0  0  0
   25.9165  -11.8645  -16.6800 C   0  0  2  0  0  0  0  0  0  0  0  0
   27.1085  -11.6952  -17.6062 C   0  0  0  0  0  0  0  0  0  0  0  0
   24.8838  -10.7910  -16.9602 C   0  0  0  0  0  0  0  0  0  0  0  0
   23.6820  -10.8886  -16.0744 C   0  0  2  0  0  0  0  0  0  0  0  0
   22.9614  -12.1259  -16.1698 N   0  0  0  0  0  0  0  0  0  0  0  0
   22.8085   -9.7031  -16.3568 C   0  0  0  0  0  0  0  0  0  0  0  0
   23.3980   -8.6641  -16.7590 O   0  0  0  0  0  0  0  0  0  0  0  0
   21.4129   -9.7435  -16.1843 N   0  0  0  0  0  0  0  0  0  0  0  0
   20.6325   -8.5516  -16.6593 C   0  0  1  0  0  0  0  0  0  0  0  0
   19.2263   -9.0707  -16.8429 C   0  0  0  0  0  0  0  0  0  0  0  0
   19.0399   -9.8967  -18.0071 C   0  0  0  0  0  0  0  0  0  0  0  0
   19.4777   -9.7784  -19.1686 O   0  0  0  0  0  0  0  0  0  0  0  0
   20.7538   -7.5229  -15.6211 C   0  0  0  0  0  0  0  0  0  0  0  0
   20.7315   -7.9110  -14.3986 O   0  0  0  0  0  0  0  0  0  0  0  0
   18.2226  -11.0546  -17.8419 O   0  0  0  0  0  0  0  0  0  0  0  0
   22.2107   -3.0811  -14.0323 C   0  0  0  0  0  0  0  0  0  0  0  0
   21.9898   -4.0957  -15.1149 C   0  0  1  0  0  0  0  0  0  0  0  0
   23.3073   -4.5886  -15.6296 C   0  0  0  0  0  0  0  0  0  0  0  0
   21.0828   -5.2235  -14.6963 C   0  0  2  0  0  0  0  0  0  0  0  0
   20.8990   -6.1583  -15.8245 N   0  0  0  0  0  0  0  0  0  0  0  0
   19.7181   -4.6797  -14.3986 C   0  0  0  0  0  0  0  0  0  0  0  0
   18.9090   -4.5692  -15.3454 O   0  0  0  0  0  0  0  0  0  0  0  0
   19.3159   -4.2975  -13.1376 O   0  0  0  0  0  0  0  0  0  0  0  0
  2  1  1  1
  3  2  1  0
  4  5  1  0
  4  2  1  0
  5  6  1  6
  5  7  1  0
  7  8  2  0
  9  7  1  0
  9 10  1  0
 10 14  1  0
 10 11  1  1
 12 16  1  0
 12 11  1  0
 13 12  2  0
 14 15  2  0
 18 17  1  1
 18 20  1  0
 19 18  1  0
 20 22  1  0
 20 21  1  6
 21 14  1  0
 22 23  2  0
 22 24  1  0
M  END
$$$$
