LDV.pdb
     RDKit          3D

 24 23  0  0  1  0  0  0  0  0999 V2000
   26.3267  -22.0900  -15.5656 C   0  0  0  0  0  0  0  0  0  0  0  0
   25.2779  -21.2393  -14.9129 C   0  0  2  0  0  0  0  0  0  0  0  0
   24.4907  -20.4369  -15.9347 C   0  0  0  0  0  0  0  0  0  0  0  0
   25.9524  -20.3063  -13.9270 C   0  0  0  0  0  0  0  0  0  0  0  0
   26.6980  -21.0307  -12.8508 C   0  0  2  0  0  0  0  0  0  0  0  0
   26.5014  -22.4521  -12.8331 N   0  0  0  0  0  0  0  0  0  0  0  0
   26.3417  -20.3948  -11.5406 C   0  0  0  0  0  0  0  0  0  0  0  0
   26.4546  -19.1407  -11.4848 O   0  0  0  0  0  0  0  0  0  0  0  0
   25.9069  -21.1496  -10.4359 N   0  0  0  0  0  0  0  0  0  0  0  0
   25.5147  -20.3886   -9.2021 C   0  0  1  0  0  0  0  0  0  0  0  0
   24.1349  -20.9018   -8.8653 C   0  0  0  0  0  0  0  0  0  0  0  0
   23.0625  -20.2344   -9.5559 C   0  0  0  0  0  0  0  0  0  0  0  0
   23.0487  -19.1685  -10.2029 O   0  0  0  0  0  0  0  0  0  0  0  0
   26.5237  -20.6864   -8.1803 C   0  0  0  0  0  0  0  0  0  0  0  0
   27.1020  -21.8301   -8.2361 O   0  0  0  0  0  0  0  0  0  0  0  0
   21.7859  -20.8704   -9.5150 O   0  0  0  0  0  0  0  0  0  0  0  0
   29.7038  -18.6843   -6.8329 C   0  0  0  0  0  0  0  0  0  0  0  0
   28.7811  -19.1299   -5.7373 C   0  0  1  0  0  0  0  0  0  0  0  0
   27.9874  -17.9644   -5.2323 C   0  0  0  0  0  0  0  0  0  0  0  0
   27.9038  -20.2888   -6.1338 C   0  0  2  0  0  0  0  0  0  0  0  0
   26.9287  -19.8484   -7.1515 N   0  0  0  0  0  0  0  0  0  0  0  0
   27.0863  -20.7201   -4.9539 C   0  0  0  0  0  0  0  0  0  0  0  0
   25.8490  -20.5459   -4.9997 O   0  0  0  0  0  0  0  0  0  0  0  0
   27.6313  -21.2959   -3.8272 O   0  0  0  0  0  0  0  0  0  0  0  0
  2  1  1  6
  3  2  1  0
  4  5  1  0
  4  2  1  0
  5  6  1  1
  5  7  1  0
  7  8  2  0
  9  7  1  0
  9 10  1  0
 10 14  1  0
 10 11  1  1
 12 16  1  0
 12 11  1  0
 13 12  2  0
 14 15  2  0
 18 17  1  6
 18 20  1  0
 19 18  1  0
 20 22  1  0
 20 21  1  6
 21 14  1  0
 22 23  2  0
 22 24  1  0
M  END
$$$$
