LDV.pdb
     RDKit          3D

 24 23  0  0  1  0  0  0  0  0999 V2000
   25.7517  -16.5842  -18.2496 C   0  0  0  0  0  0  0  0  0  0  0  0
   24.5005  -17.4032  -18.1342 C   0  0  2  0  0  0  0  0  0  0  0  0
   23.3030  -16.5480  -17.7577 C   0  0  0  0  0  0  0  0  0  0  0  0
   24.7187  -18.4805  -17.0906 C   0  0  0  0  0  0  0  0  0  0  0  0
   25.9775  -19.2598  -17.3071 C   0  0  2  0  0  0  0  0  0  0  0  0
   25.9468  -20.1557  -18.4277 N   0  0  0  0  0  0  0  0  0  0  0  0
   26.3025  -19.9682  -16.0263 C   0  0  0  0  0  0  0  0  0  0  0  0
   25.6109  -20.9898  -15.7676 O   0  0  0  0  0  0  0  0  0  0  0  0
   27.3184  -19.5225  -15.1612 N   0  0  0  0  0  0  0  0  0  0  0  0
   27.5884  -20.3549  -13.9408 C   0  0  1  0  0  0  0  0  0  0  0  0
   29.0354  -20.0784  -13.6086 C   0  0  0  0  0  0  0  0  0  0  0  0
   29.4876  -20.6598  -12.3717 C   0  0  0  0  0  0  0  0  0  0  0  0
   28.8806  -21.3405  -11.5214 O   0  0  0  0  0  0  0  0  0  0  0  0
   26.6476  -19.9111  -12.9070 C   0  0  0  0  0  0  0  0  0  0  0  0
   26.5438  -18.6487  -12.7045 O   0  0  0  0  0  0  0  0  0  0  0  0
   30.8552  -20.4413  -12.0281 O   0  0  0  0  0  0  0  0  0  0  0  0
   23.0143  -19.9448  -12.5657 C   0  0  0  0  0  0  0  0  0  0  0  0
   23.5573  -20.5240  -11.2930 C   0  0  1  0  0  0  0  0  0  0  0  0
   23.3288  -22.0041  -11.2670 C   0  0  0  0  0  0  0  0  0  0  0  0
   24.9992  -20.1649  -11.0444 C   0  0  2  0  0  0  0  0  0  0  0  0
   25.8429  -20.7225  -12.1203 N   0  0  0  0  0  0  0  0  0  0  0  0
   25.4663  -20.8271   -9.7834 C   0  0  0  0  0  0  0  0  0  0  0  0
   25.0263  -20.3972   -8.6950 O   0  0  0  0  0  0  0  0  0  0  0  0
   26.3532  -21.8813   -9.7677 O   0  0  0  0  0  0  0  0  0  0  0  0
  2  1  1  1
  3  2  1  0
  4  5  1  0
  4  2  1  0
  5  6  1  6
  5  7  1  0
  7  8  2  0
  9  7  1  0
  9 10  1  0
 10 14  1  0
 10 11  1  1
 12 16  1  0
 12 11  1  0
 13 12  2  0
 14 15  2  0
 18 17  1  6
 18 20  1  0
 19 18  1  0
 20 22  1  0
 20 21  1  6
 21 14  1  0
 22 23  2  0
 22 24  1  0
M  END
$$$$
