TNR.pdb
     RDKit          3D

 27 26  0  0  1  0  0  0  0  0999 V2000
   12.7765  -13.8308   19.0690 C   0  0  0  0  0  0  0  0  0  0  0  0
   13.9951  -14.5793   18.5723 C   0  0  1  0  0  0  0  0  0  0  0  0
   14.7033  -14.9550   19.7342 O   0  0  0  0  0  0  0  0  0  0  0  0
   13.5475  -15.8680   17.9162 C   0  0  2  0  0  0  0  0  0  0  0  0
   12.9536  -15.6405   16.6259 N   0  0  0  0  0  0  0  0  0  0  0  0
   12.5844  -16.6131   18.7573 C   0  0  0  0  0  0  0  0  0  0  0  0
   11.3451  -16.6739   18.4967 O   0  0  0  0  0  0  0  0  0  0  0  0
   14.8271  -20.7046   20.2091 N   0  0  0  0  0  0  0  0  0  0  0  0
   13.4778  -20.3210   20.4457 C   0  0  0  0  0  0  0  0  0  0  0  0
   12.5797  -21.0014   19.9134 O   0  0  0  0  0  0  0  0  0  0  0  0
   13.1523  -19.1778   21.2759 C   0  0  0  0  0  0  0  0  0  0  0  0
   12.2027  -18.1710   20.7254 C   0  0  2  0  0  0  0  0  0  0  0  0
   13.0415  -17.2851   19.8906 N   0  0  0  0  0  0  0  0  0  0  0  0
   11.6360  -17.3244   21.7886 C   0  0  0  0  0  0  0  0  0  0  0  0
   12.4421  -16.4782   22.3325 O   0  0  0  0  0  0  0  0  0  0  0  0
    9.3298  -12.4889   19.8064 N   0  0  0  0  0  0  0  0  0  0  0  0
    8.1348  -13.1774   19.4508 C   0  0  0  0  0  0  0  0  0  0  0  0
    7.7044  -13.1132   18.2428 N   0  0  0  0  0  0  0  0  0  0  0  0
    7.4715  -13.9114   20.4614 N   0  0  0  0  0  0  0  0  0  0  0  0
    7.6180  -13.5686   21.8545 C   0  0  0  0  0  0  0  0  0  0  0  0
    8.8794  -14.2205   22.4174 C   0  0  0  0  0  0  0  0  0  0  0  0
    8.6405  -15.6538   22.7721 C   0  0  0  0  0  0  0  0  0  0  0  0
    9.8914  -16.3292   23.2108 C   0  0  2  0  0  0  0  0  0  0  0  0
   10.2879  -17.3639   22.2507 N   0  0  0  0  0  0  0  0  0  0  0  0
    9.7444  -16.9522   24.5303 C   0  0  0  0  0  0  0  0  0  0  0  0
    9.4160  -18.1600   24.7246 O   0  0  0  0  0  0  0  0  0  0  0  0
    9.9727  -16.1977   25.6971 O   0  0  0  0  0  0  0  0  0  0  0  0
  2  1  1  1
  2  4  1  0
  3  2  1  0
  4  6  1  0
  4  5  1  6
  6  7  2  0
  8  9  1  0
  9 11  1  0
 10  9  2  0
 12 11  1  1
 13 12  1  0
 13  6  1  0
 14 15  2  0
 14 12  1  0
 16 17  1  0
 17 19  1  0
 18 17  2  0
 19 20  1  0
 21 20  1  0
 21 22  1  0
 23 22  1  6
 23 25  1  0
 23 24  1  0
 24 14  1  0
 25 27  1  0
 26 25  2  0
M  END
$$$$
