TNR.pdb
     RDKit          3D

 27 26  0  0  1  0  0  0  0  0999 V2000
    6.3826  -15.5881   20.8793 C   0  0  0  0  0  0  0  0  0  0  0  0
    7.6038  -14.9334   20.2694 C   0  0  1  0  0  0  0  0  0  0  0  0
    7.3374  -14.8598   18.8850 O   0  0  0  0  0  0  0  0  0  0  0  0
    7.6914  -13.5035   20.7585 C   0  0  2  0  0  0  0  0  0  0  0  0
    8.5281  -12.6931   19.9144 N   0  0  0  0  0  0  0  0  0  0  0  0
    8.1975  -13.4223   22.1469 C   0  0  0  0  0  0  0  0  0  0  0  0
    9.4260  -13.2783   22.4251 O   0  0  0  0  0  0  0  0  0  0  0  0
    7.8886  -12.0919   27.2505 N   0  0  0  0  0  0  0  0  0  0  0  0
    6.6158  -12.2551   26.6363 C   0  0  0  0  0  0  0  0  0  0  0  0
    5.6049  -12.0137   27.3239 O   0  0  0  0  0  0  0  0  0  0  0  0
    6.4924  -12.6883   25.2581 C   0  0  0  0  0  0  0  0  0  0  0  0
    7.6742  -13.3418   24.6300 C   0  0  2  0  0  0  0  0  0  0  0  0
    7.2984  -13.5054   23.2096 N   0  0  0  0  0  0  0  0  0  0  0  0
    7.8876  -14.6984   25.1613 C   0  0  0  0  0  0  0  0  0  0  0  0
    7.2136  -15.0094   26.2152 O   0  0  0  0  0  0  0  0  0  0  0  0
    5.9670  -21.8751   22.6486 N   0  0  0  0  0  0  0  0  0  0  0  0
    5.7290  -20.7133   21.8599 C   0  0  0  0  0  0  0  0  0  0  0  0
    4.8657  -20.7602   20.9106 N   0  0  0  0  0  0  0  0  0  0  0  0
    6.4656  -19.5458   22.1673 N   0  0  0  0  0  0  0  0  0  0  0  0
    7.4286  -19.5288   23.2406 C   0  0  0  0  0  0  0  0  0  0  0  0
    7.9983  -18.1208   23.4016 C   0  0  0  0  0  0  0  0  0  0  0  0
    9.0747  -18.0837   24.4396 C   0  0  0  0  0  0  0  0  0  0  0  0
    8.9126  -16.9270   25.3610 C   0  0  2  0  0  0  0  0  0  0  0  0
    8.7621  -15.6786   24.6070 N   0  0  0  0  0  0  0  0  0  0  0  0
   10.0551  -16.7854   26.2697 C   0  0  0  0  0  0  0  0  0  0  0  0
   10.1893  -17.4123   27.3621 O   0  0  0  0  0  0  0  0  0  0  0  0
   11.1050  -15.9023   25.9522 O   0  0  0  0  0  0  0  0  0  0  0  0
  2  1  1  1
  2  4  1  0
  3  2  1  0
  4  6  1  0
  4  5  1  6
  6  7  2  0
  8  9  1  0
  9 11  1  0
 10  9  2  0
 12 11  1  1
 13 12  1  0
 13  6  1  0
 14 15  2  0
 14 12  1  0
 16 17  1  0
 17 19  1  0
 18 17  2  0
 19 20  1  0
 21 20  1  0
 21 22  1  0
 23 22  1  6
 23 25  1  0
 23 24  1  0
 24 14  1  0
 25 27  1  0
 26 25  2  0
M  END
$$$$
