TNR.pdb
     RDKit          3D

 27 26  0  0  1  0  0  0  0  0999 V2000
    7.8872  -17.0925   19.2503 C   0  0  0  0  0  0  0  0  0  0  0  0
    6.9464  -15.9189   19.4218 C   0  0  1  0  0  0  0  0  0  0  0  0
    6.3818  -15.7019   18.1462 O   0  0  0  0  0  0  0  0  0  0  0  0
    5.8033  -16.3323   20.3240 C   0  0  2  0  0  0  0  0  0  0  0  0
    4.7230  -15.3828   20.2984 N   0  0  0  0  0  0  0  0  0  0  0  0
    6.2415  -16.5150   21.7258 C   0  0  0  0  0  0  0  0  0  0  0  0
    6.4601  -15.5442   22.5114 O   0  0  0  0  0  0  0  0  0  0  0  0
    7.4951  -21.5040   25.0177 N   0  0  0  0  0  0  0  0  0  0  0  0
    7.0995  -20.1375   25.0299 C   0  0  0  0  0  0  0  0  0  0  0  0
    7.2292  -19.5059   26.0963 O   0  0  0  0  0  0  0  0  0  0  0  0
    6.5622  -19.4964   23.8457 C   0  0  0  0  0  0  0  0  0  0  0  0
    7.0118  -18.1084   23.5462 C   0  0  2  0  0  0  0  0  0  0  0  0
    6.4269  -17.8047   22.2229 N   0  0  0  0  0  0  0  0  0  0  0  0
    8.4731  -18.0376   23.3798 C   0  0  0  0  0  0  0  0  0  0  0  0
    8.9839  -18.8241   22.4954 O   0  0  0  0  0  0  0  0  0  0  0  0
   11.1010  -13.8873   18.9686 N   0  0  0  0  0  0  0  0  0  0  0  0
    9.9467  -13.2424   19.4979 C   0  0  0  0  0  0  0  0  0  0  0  0
    9.3377  -12.3587   18.7929 N   0  0  0  0  0  0  0  0  0  0  0  0
    9.5198  -13.6145   20.7938 N   0  0  0  0  0  0  0  0  0  0  0  0
   10.4637  -14.0226   21.8048 C   0  0  0  0  0  0  0  0  0  0  0  0
   10.3446  -15.5261   22.0464 C   0  0  0  0  0  0  0  0  0  0  0  0
   11.2379  -15.9717   23.1604 C   0  0  0  0  0  0  0  0  0  0  0  0
   10.7737  -17.2510   23.7613 C   0  0  2  0  0  0  0  0  0  0  0  0
    9.3500  -17.1781   24.1043 N   0  0  0  0  0  0  0  0  0  0  0  0
   11.5261  -17.5924   24.9730 C   0  0  0  0  0  0  0  0  0  0  0  0
   11.0292  -17.6545   26.1365 O   0  0  0  0  0  0  0  0  0  0  0  0
   12.9022  -17.8801   24.8925 O   0  0  0  0  0  0  0  0  0  0  0  0
  2  1  1  6
  2  4  1  0
  3  2  1  0
  4  6  1  0
  4  5  1  1
  6  7  2  0
  8  9  1  0
  9 11  1  0
 10  9  2  0
 12 11  1  6
 13 12  1  0
 13  6  1  0
 14 15  2  0
 14 12  1  0
 16 17  1  0
 17 19  1  0
 18 17  2  0
 19 20  1  0
 21 20  1  0
 21 22  1  0
 23 22  1  1
 23 25  1  0
 23 24  1  0
 24 14  1  0
 25 27  1  0
 26 25  2  0
M  END
$$$$
