TNR.pdb
     RDKit          3D

 27 26  0  0  1  0  0  0  0  0999 V2000
    8.4970  -19.3123   18.4433 C   0  0  0  0  0  0  0  0  0  0  0  0
    9.3637  -18.7810   17.3214 C   0  0  1  0  0  0  0  0  0  0  0  0
    8.9684  -19.4977   16.1712 O   0  0  0  0  0  0  0  0  0  0  0  0
    9.0009  -17.3344   17.0622 C   0  0  2  0  0  0  0  0  0  0  0  0
    9.5262  -16.8608   15.8096 N   0  0  0  0  0  0  0  0  0  0  0  0
    9.4745  -16.4416   18.1434 C   0  0  0  0  0  0  0  0  0  0  0  0
   10.7005  -16.3038   18.4356 O   0  0  0  0  0  0  0  0  0  0  0  0
    6.3946  -12.3201   18.7575 N   0  0  0  0  0  0  0  0  0  0  0  0
    7.6553  -12.8441   19.1575 C   0  0  0  0  0  0  0  0  0  0  0  0
    8.6765  -12.3675   18.6257 O   0  0  0  0  0  0  0  0  0  0  0  0
    7.7549  -13.8975   20.1488 C   0  0  0  0  0  0  0  0  0  0  0  0
    8.8944  -14.8496   20.0343 C   0  0  2  0  0  0  0  0  0  0  0  0
    8.5462  -15.7109   18.8843 N   0  0  0  0  0  0  0  0  0  0  0  0
    8.9776  -15.7368   21.2066 C   0  0  0  0  0  0  0  0  0  0  0  0
    8.3466  -16.8573   21.1180 O   0  0  0  0  0  0  0  0  0  0  0  0
   14.3625  -14.1365   20.3884 N   0  0  0  0  0  0  0  0  0  0  0  0
   14.7620  -15.4350   19.9607 C   0  0  0  0  0  0  0  0  0  0  0  0
   15.3471  -15.5742   18.8262 N   0  0  0  0  0  0  0  0  0  0  0  0
   14.4923  -16.5243   20.8213 N   0  0  0  0  0  0  0  0  0  0  0  0
   13.8157  -16.3343   22.0805 C   0  0  0  0  0  0  0  0  0  0  0  0
   12.3412  -16.0221   21.8331 C   0  0  0  0  0  0  0  0  0  0  0  0
   11.4603  -17.1273   22.3230 C   0  0  0  0  0  0  0  0  0  0  0  0
   10.2983  -16.6064   23.0923 C   0  0  2  0  0  0  0  0  0  0  0  0
    9.6935  -15.4595   22.4079 N   0  0  0  0  0  0  0  0  0  0  0  0
   10.6791  -16.1908   24.4463 C   0  0  0  0  0  0  0  0  0  0  0  0
   10.5939  -15.0066   24.8877 O   0  0  0  0  0  0  0  0  0  0  0  0
   11.1817  -17.1368   25.3604 O   0  0  0  0  0  0  0  0  0  0  0  0
  2  1  1  1
  2  4  1  0
  3  2  1  0
  4  6  1  0
  4  5  1  6
  6  7  2  0
  8  9  1  0
  9 11  1  0
 10  9  2  0
 12 11  1  1
 13 12  1  0
 13  6  1  0
 14 15  2  0
 14 12  1  0
 16 17  1  0
 17 19  1  0
 18 17  2  0
 19 20  1  0
 21 20  1  0
 21 22  1  0
 23 22  1  6
 23 25  1  0
 23 24  1  0
 24 14  1  0
 25 27  1  0
 26 25  2  0
M  END
$$$$
