TNR.pdb
     RDKit          3D

 27 26  0  0  1  0  0  0  0  0999 V2000
   15.3352  -14.2321   20.0843 C   0  0  0  0  0  0  0  0  0  0  0  0
   14.9748  -14.0131   18.6303 C   0  0  1  0  0  0  0  0  0  0  0  0
   16.1475  -13.5117   18.0251 O   0  0  0  0  0  0  0  0  0  0  0  0
   14.7064  -15.3547   17.9824 C   0  0  2  0  0  0  0  0  0  0  0  0
   14.4381  -15.2318   16.5745 N   0  0  0  0  0  0  0  0  0  0  0  0
   13.5746  -16.0625   18.6213 C   0  0  0  0  0  0  0  0  0  0  0  0
   12.4983  -16.3345   18.0090 O   0  0  0  0  0  0  0  0  0  0  0  0
   11.1021  -19.9288   21.1201 N   0  0  0  0  0  0  0  0  0  0  0  0
   12.4542  -19.6292   21.4458 C   0  0  0  0  0  0  0  0  0  0  0  0
   12.9767  -20.2573   22.3868 O   0  0  0  0  0  0  0  0  0  0  0  0
   13.2035  -18.6278   20.7125 C   0  0  0  0  0  0  0  0  0  0  0  0
   12.6522  -17.2448   20.6701 C   0  0  2  0  0  0  0  0  0  0  0  0
   13.6781  -16.4565   19.9551 N   0  0  0  0  0  0  0  0  0  0  0  0
   12.5476  -16.6630   22.0187 C   0  0  0  0  0  0  0  0  0  0  0  0
   13.3051  -17.1828   22.9230 O   0  0  0  0  0  0  0  0  0  0  0  0
    8.7349  -12.4668   18.9568 N   0  0  0  0  0  0  0  0  0  0  0  0
    8.3884  -13.8318   18.7441 C   0  0  0  0  0  0  0  0  0  0  0  0
    8.2206  -14.2617   17.5458 N   0  0  0  0  0  0  0  0  0  0  0  0
    8.2458  -14.6605   19.8812 N   0  0  0  0  0  0  0  0  0  0  0  0
    8.6548  -14.2133   21.1898 C   0  0  0  0  0  0  0  0  0  0  0  0
    8.3202  -15.2814   22.2291 C   0  0  0  0  0  0  0  0  0  0  0  0
    9.3820  -16.3332   22.2912 C   0  0  0  0  0  0  0  0  0  0  0  0
   10.5050  -15.9313   23.1803 C   0  0  2  0  0  0  0  0  0  0  0  0
   11.6928  -15.5853   22.3935 N   0  0  0  0  0  0  0  0  0  0  0  0
   10.8663  -16.9955   24.1225 C   0  0  0  0  0  0  0  0  0  0  0  0
   11.0913  -18.1992   23.7988 O   0  0  0  0  0  0  0  0  0  0  0  0
   10.9843  -16.7121   25.4968 O   0  0  0  0  0  0  0  0  0  0  0  0
  2  1  1  1
  2  4  1  0
  3  2  1  0
  4  6  1  0
  4  5  1  6
  6  7  2  0
  8  9  1  0
  9 11  1  0
 10  9  2  0
 12 11  1  1
 13 12  1  0
 13  6  1  0
 14 15  2  0
 14 12  1  0
 16 17  1  0
 17 19  1  0
 18 17  2  0
 19 20  1  0
 21 20  1  0
 21 22  1  0
 23 22  1  6
 23 25  1  0
 23 24  1  0
 24 14  1  0
 25 27  1  0
 26 25  2  0
M  END
$$$$
