TYN.pdb
     RDKit          3D

 28 28  0  0  1  0  0  0  0  0999 V2000
    6.4311  -14.6387   18.3818 C   0  0  0  0  0  0  0  0  0  0  0  0
    7.1536  -14.9039   19.6861 C   0  0  1  0  0  0  0  0  0  0  0  0
    8.3661  -15.5152   19.3445 O   0  0  0  0  0  0  0  0  0  0  0  0
    7.5083  -13.5761   20.3235 C   0  0  2  0  0  0  0  0  0  0  0  0
    8.2049  -12.7897   19.3386 N   0  0  0  0  0  0  0  0  0  0  0  0
    8.2985  -13.7548   21.5666 C   0  0  0  0  0  0  0  0  0  0  0  0
    9.5526  -13.7285   21.5139 O   0  0  0  0  0  0  0  0  0  0  0  0
   10.5258  -14.9771   30.0065 O   0  0  0  0  0  0  0  0  0  0  0  0
    9.7782  -14.8370   28.8595 C   0  0  0  0  0  0  0  0  0  0  0  0
    9.7922  -13.5981   28.2452 C   0  0  0  0  0  0  0  0  0  0  0  0
    9.0636  -13.3959   27.0936 C   0  0  0  0  0  0  0  0  0  0  0  0
    8.3061  -14.3933   26.5150 C   0  0  0  0  0  0  0  0  0  0  0  0
    7.5279  -14.1492   25.2715 C   0  0  0  0  0  0  0  0  0  0  0  0
    8.4252  -14.2662   24.0444 C   0  0  2  0  0  0  0  0  0  0  0  0
    7.7046  -13.9589   22.8428 N   0  0  0  0  0  0  0  0  0  0  0  0
    9.0123  -15.6226   24.0434 C   0  0  0  0  0  0  0  0  0  0  0  0
    8.2902  -16.6171   23.7731 O   0  0  0  0  0  0  0  0  0  0  0  0
    8.2997  -15.6364   27.1425 C   0  0  0  0  0  0  0  0  0  0  0  0
    9.0260  -15.8445   28.2937 C   0  0  0  0  0  0  0  0  0  0  0  0
   12.2216  -16.2774   21.2223 N   0  0  0  0  0  0  0  0  0  0  0  0
   11.7506  -17.3473   22.0234 C   0  0  0  0  0  0  0  0  0  0  0  0
   11.0642  -18.2409   21.5009 O   0  0  0  0  0  0  0  0  0  0  0  0
   12.0874  -17.3671   23.4428 C   0  0  0  0  0  0  0  0  0  0  0  0
   10.9219  -17.2572   24.3950 C   0  0  2  0  0  0  0  0  0  0  0  0
   10.3739  -15.8856   24.3351 N   0  0  0  0  0  0  0  0  0  0  0  0
   11.3059  -17.4500   25.8019 C   0  0  0  0  0  0  0  0  0  0  0  0
   10.9227  -18.5787   26.4900 O   0  0  0  0  0  0  0  0  0  0  0  0
   11.9843  -16.6010   26.4041 O   0  0  0  0  0  0  0  0  0  0  0  0
  2  1  1  6
  2  4  1  0
  3  2  1  0
  4  5  1  6
  6  4  1  0
  7  6  2  0
  9  8  1  0
  9 10  2  0
 10 11  1  0
 12 13  1  0
 12 11  2  0
 14 15  1  0
 14 13  1  1
 15  6  1  0
 16 14  1  0
 17 16  2  0
 18 12  1  0
 19 18  2  0
 19  9  1  0
 20 21  1  0
 21 22  2  0
 23 21  1  0
 24 23  1  6
 24 25  1  0
 25 16  1  0
 26 24  1  0
 26 27  1  0
 28 26  2  0
M  END
$$$$
