TYN.pdb
     RDKit          3D

 28 28  0  0  1  0  0  0  0  0999 V2000
    6.9773  -14.4439   17.4124 C   0  0  0  0  0  0  0  0  0  0  0  0
    7.4942  -14.7182   18.8092 C   0  0  1  0  0  0  0  0  0  0  0  0
    8.7650  -15.2846   18.6519 O   0  0  0  0  0  0  0  0  0  0  0  0
    7.6998  -13.3959   19.5193 C   0  0  2  0  0  0  0  0  0  0  0  0
    8.5367  -12.5751   18.6829 N   0  0  0  0  0  0  0  0  0  0  0  0
    8.2668  -13.5819   20.8779 C   0  0  0  0  0  0  0  0  0  0  0  0
    9.4771  -13.8891   21.0084 O   0  0  0  0  0  0  0  0  0  0  0  0
    9.0856  -13.7320   29.6652 O   0  0  0  0  0  0  0  0  0  0  0  0
    8.6198  -13.6426   28.3731 C   0  0  0  0  0  0  0  0  0  0  0  0
    7.2525  -13.7346   28.1881 C   0  0  0  0  0  0  0  0  0  0  0  0
    6.7258  -13.6523   26.9178 C   0  0  0  0  0  0  0  0  0  0  0  0
    7.5167  -13.4789   25.8008 C   0  0  0  0  0  0  0  0  0  0  0  0
    6.9234  -13.3935   24.4399 C   0  0  0  0  0  0  0  0  0  0  0  0
    7.9461  -13.7921   23.3818 C   0  0  2  0  0  0  0  0  0  0  0  0
    7.5019  -13.4289   22.0672 N   0  0  0  0  0  0  0  0  0  0  0  0
    8.2085  -15.2389   23.5315 C   0  0  0  0  0  0  0  0  0  0  0  0
    7.5689  -16.0668   22.8320 O   0  0  0  0  0  0  0  0  0  0  0  0
    8.8919  -13.3876   25.9995 C   0  0  0  0  0  0  0  0  0  0  0  0
    9.4242  -13.4692   27.2668 C   0  0  0  0  0  0  0  0  0  0  0  0
   10.5103  -19.6754   22.4063 N   0  0  0  0  0  0  0  0  0  0  0  0
   11.1810  -18.4815   22.7711 C   0  0  0  0  0  0  0  0  0  0  0  0
   12.4146  -18.4975   22.9155 O   0  0  0  0  0  0  0  0  0  0  0  0
   10.3995  -17.2650   22.9668 C   0  0  0  0  0  0  0  0  0  0  0  0
    9.7054  -17.1389   24.3007 C   0  0  2  0  0  0  0  0  0  0  0  0
    9.1600  -15.7716   24.4366 N   0  0  0  0  0  0  0  0  0  0  0  0
   10.6179  -17.2973   25.4435 C   0  0  0  0  0  0  0  0  0  0  0  0
   10.5449  -18.4052   26.2570 O   0  0  0  0  0  0  0  0  0  0  0  0
   11.4762  -16.4374   25.7035 O   0  0  0  0  0  0  0  0  0  0  0  0
  2  1  1  6
  2  4  1  0
  3  2  1  0
  4  5  1  6
  6  4  1  0
  7  6  2  0
  9  8  1  0
  9 10  2  0
 10 11  1  0
 12 13  1  0
 12 11  2  0
 14 15  1  0
 14 13  1  1
 15  6  1  0
 16 14  1  0
 17 16  2  0
 18 12  1  0
 19 18  2  0
 19  9  1  0
 20 21  1  0
 21 22  2  0
 23 21  1  0
 24 23  1  6
 24 25  1  0
 25 16  1  0
 26 24  1  0
 26 27  1  0
 28 26  2  0
M  END
$$$$
