TYN.pdb
     RDKit          3D

 28 28  0  0  1  0  0  0  0  0999 V2000
    9.3149  -20.8536   20.4027 C   0  0  0  0  0  0  0  0  0  0  0  0
    9.3088  -20.1823   19.0452 C   0  0  1  0  0  0  0  0  0  0  0  0
    8.5252  -20.9904   18.2126 O   0  0  0  0  0  0  0  0  0  0  0  0
    8.5835  -18.8574   19.1619 C   0  0  2  0  0  0  0  0  0  0  0  0
    8.3619  -18.3606   17.8285 N   0  0  0  0  0  0  0  0  0  0  0  0
    9.3292  -17.8932   20.0080 C   0  0  0  0  0  0  0  0  0  0  0  0
   10.4600  -17.4903   19.6405 O   0  0  0  0  0  0  0  0  0  0  0  0
    6.9426  -11.7835   18.6891 O   0  0  0  0  0  0  0  0  0  0  0  0
    7.2838  -12.6992   19.6583 C   0  0  0  0  0  0  0  0  0  0  0  0
    8.5573  -12.6096   20.1899 C   0  0  0  0  0  0  0  0  0  0  0  0
    8.9575  -13.4982   21.1636 C   0  0  0  0  0  0  0  0  0  0  0  0
    8.1287  -14.4924   21.6409 C   0  0  0  0  0  0  0  0  0  0  0  0
    8.5851  -15.4397   22.6924 C   0  0  0  0  0  0  0  0  0  0  0  0
    9.5276  -16.4833   22.1032 C   0  0  2  0  0  0  0  0  0  0  0  0
    8.8261  -17.3876   21.2386 N   0  0  0  0  0  0  0  0  0  0  0  0
   10.2100  -17.1592   23.2266 C   0  0  0  0  0  0  0  0  0  0  0  0
    9.6327  -18.0959   23.8374 O   0  0  0  0  0  0  0  0  0  0  0  0
    6.8489  -14.5729   21.0982 C   0  0  0  0  0  0  0  0  0  0  0  0
    6.4432  -13.6875   20.1247 C   0  0  0  0  0  0  0  0  0  0  0  0
   15.0602  -16.1872   22.8659 N   0  0  0  0  0  0  0  0  0  0  0  0
   14.3803  -17.3195   23.3795 C   0  0  0  0  0  0  0  0  0  0  0  0
   14.3807  -18.3762   22.7266 O   0  0  0  0  0  0  0  0  0  0  0  0
   13.6977  -17.2097   24.6643 C   0  0  0  0  0  0  0  0  0  0  0  0
   12.2451  -17.6181   24.6724 C   0  0  2  0  0  0  0  0  0  0  0  0
   11.5090  -16.8129   23.6748 N   0  0  0  0  0  0  0  0  0  0  0  0
   11.5745  -17.3404   25.9518 C   0  0  0  0  0  0  0  0  0  0  0  0
   10.7872  -16.2223   26.1082 O   0  0  0  0  0  0  0  0  0  0  0  0
   11.7011  -18.1059   26.9222 O   0  0  0  0  0  0  0  0  0  0  0  0
  2  1  1  1
  2  4  1  0
  3  2  1  0
  4  5  1  6
  6  4  1  0
  7  6  2  0
  9  8  1  0
  9 10  2  0
 10 11  1  0
 12 13  1  0
 12 11  2  0
 14 15  1  0
 14 13  1  1
 15  6  1  0
 16 14  1  0
 17 16  2  0
 18 12  1  0
 19 18  2  0
 19  9  1  0
 20 21  1  0
 21 22  2  0
 23 21  1  0
 24 23  1  1
 24 25  1  0
 25 16  1  0
 26 24  1  0
 26 27  1  0
 28 26  2  0
M  END
$$$$
