TYN.pdb
     RDKit          3D

 28 28  0  0  1  0  0  0  0  0999 V2000
    6.9965  -16.0687   19.9427 C   0  0  0  0  0  0  0  0  0  0  0  0
    7.6532  -14.8782   19.2756 C   0  0  1  0  0  0  0  0  0  0  0  0
    6.9433  -14.6534   18.0898 O   0  0  0  0  0  0  0  0  0  0  0  0
    7.4367  -13.6550   20.1427 C   0  0  2  0  0  0  0  0  0  0  0  0
    7.7505  -12.4948   19.3496 N   0  0  0  0  0  0  0  0  0  0  0  0
    8.2332  -13.7176   21.3931 C   0  0  0  0  0  0  0  0  0  0  0  0
    9.4870  -13.7176   21.3307 O   0  0  0  0  0  0  0  0  0  0  0  0
   10.3761  -14.9944   29.8558 O   0  0  0  0  0  0  0  0  0  0  0  0
    9.6434  -14.7996   28.7072 C   0  0  0  0  0  0  0  0  0  0  0  0
    9.7381  -13.5599   28.1017 C   0  0  0  0  0  0  0  0  0  0  0  0
    9.0283  -13.3042   26.9490 C   0  0  0  0  0  0  0  0  0  0  0  0
    8.2117  -14.2478   26.3607 C   0  0  0  0  0  0  0  0  0  0  0  0
    7.4554  -13.9466   25.1163 C   0  0  0  0  0  0  0  0  0  0  0  0
    8.3439  -14.1271   23.8905 C   0  0  2  0  0  0  0  0  0  0  0  0
    7.6455  -13.7789   22.6869 N   0  0  0  0  0  0  0  0  0  0  0  0
    8.8416  -15.5187   23.8960 C   0  0  0  0  0  0  0  0  0  0  0  0
    8.0366  -16.4721   23.7325 O   0  0  0  0  0  0  0  0  0  0  0  0
    8.1243  -15.4922   26.9793 C   0  0  0  0  0  0  0  0  0  0  0  0
    8.8314  -15.7537   28.1316 C   0  0  0  0  0  0  0  0  0  0  0  0
   11.7312  -16.4851   20.9729 N   0  0  0  0  0  0  0  0  0  0  0  0
   11.2872  -17.5338   21.8163 C   0  0  0  0  0  0  0  0  0  0  0  0
   10.5388  -18.4103   21.3532 O   0  0  0  0  0  0  0  0  0  0  0  0
   11.7241  -17.5525   23.2082 C   0  0  0  0  0  0  0  0  0  0  0  0
   10.6573  -17.2597   24.2345 C   0  0  2  0  0  0  0  0  0  0  0  0
   10.2046  -15.8611   24.0784 N   0  0  0  0  0  0  0  0  0  0  0  0
   11.1485  -17.3459   25.6184 C   0  0  0  0  0  0  0  0  0  0  0  0
   11.6403  -18.5293   26.1206 O   0  0  0  0  0  0  0  0  0  0  0  0
   11.1323  -16.3553   26.3681 O   0  0  0  0  0  0  0  0  0  0  0  0
  2  1  1  1
  2  4  1  0
  3  2  1  0
  4  5  1  6
  6  4  1  0
  7  6  2  0
  9  8  1  0
  9 10  2  0
 10 11  1  0
 12 13  1  0
 12 11  2  0
 14 15  1  0
 14 13  1  1
 15  6  1  0
 16 14  1  0
 17 16  2  0
 18 12  1  0
 19 18  2  0
 19  9  1  0
 20 21  1  0
 21 22  2  0
 23 21  1  0
 24 23  1  6
 24 25  1  0
 25 16  1  0
 26 24  1  0
 26 27  1  0
 28 26  2  0
M  END
$$$$
