TYN.pdb
     RDKit          3D

 28 28  0  0  1  0  0  0  0  0999 V2000
    9.5982  -19.6520   19.8808 C   0  0  0  0  0  0  0  0  0  0  0  0
    9.7619  -18.7121   21.0569 C   0  0  1  0  0  0  0  0  0  0  0  0
   10.9896  -19.0347   21.6477 O   0  0  0  0  0  0  0  0  0  0  0  0
    9.8978  -17.2973   20.5326 C   0  0  2  0  0  0  0  0  0  0  0  0
   11.1564  -17.2064   19.8387 N   0  0  0  0  0  0  0  0  0  0  0  0
    9.7767  -16.2929   21.6181 C   0  0  0  0  0  0  0  0  0  0  0  0
   10.8061  -15.7179   22.0491 O   0  0  0  0  0  0  0  0  0  0  0  0
    6.4760  -11.2262   28.0317 O   0  0  0  0  0  0  0  0  0  0  0  0
    6.5563  -12.0835   26.9580 C   0  0  0  0  0  0  0  0  0  0  0  0
    7.3010  -11.6642   25.8708 C   0  0  0  0  0  0  0  0  0  0  0  0
    7.4187  -12.4784   24.7657 C   0  0  0  0  0  0  0  0  0  0  0  0
    6.8152  -13.7169   24.6941 C   0  0  0  0  0  0  0  0  0  0  0  0
    6.9574  -14.5768   23.4892 C   0  0  0  0  0  0  0  0  0  0  0  0
    8.3866  -15.0927   23.3628 C   0  0  2  0  0  0  0  0  0  0  0  0
    8.5345  -15.9360   22.2119 N   0  0  0  0  0  0  0  0  0  0  0  0
    8.7357  -15.7672   24.6307 C   0  0  0  0  0  0  0  0  0  0  0  0
    8.8447  -15.0942   25.6884 O   0  0  0  0  0  0  0  0  0  0  0  0
    6.0681  -14.1284   25.7948 C   0  0  0  0  0  0  0  0  0  0  0  0
    5.9468  -13.3189   26.9021 C   0  0  0  0  0  0  0  0  0  0  0  0
    6.6518  -19.7230   24.8110 N   0  0  0  0  0  0  0  0  0  0  0  0
    7.2961  -19.3252   26.0089 C   0  0  0  0  0  0  0  0  0  0  0  0
    6.6101  -19.0780   27.0145 O   0  0  0  0  0  0  0  0  0  0  0  0
    8.7511  -19.2175   26.0251 C   0  0  0  0  0  0  0  0  0  0  0  0
    9.3050  -17.8138   26.0197 C   0  0  2  0  0  0  0  0  0  0  0  0
    8.9626  -17.1619   24.7379 N   0  0  0  0  0  0  0  0  0  0  0  0
   10.7740  -17.7728   26.0843 C   0  0  0  0  0  0  0  0  0  0  0  0
   11.5365  -17.9888   24.9590 O   0  0  0  0  0  0  0  0  0  0  0  0
   11.3632  -17.5429   27.1537 O   0  0  0  0  0  0  0  0  0  0  0  0
  2  1  1  6
  2  4  1  0
  3  2  1  0
  4  5  1  1
  6  4  1  0
  7  6  2  0
  9  8  1  0
  9 10  2  0
 10 11  1  0
 12 13  1  0
 12 11  2  0
 14 15  1  0
 14 13  1  1
 15  6  1  0
 16 14  1  0
 17 16  2  0
 18 12  1  0
 19 18  2  0
 19  9  1  0
 20 21  1  0
 21 22  2  0
 23 21  1  0
 24 23  1  6
 24 25  1  0
 25 16  1  0
 26 24  1  0
 26 27  1  0
 28 26  2  0
M  END
$$$$
