TYN.pdb
     RDKit          3D

 28 28  0  0  1  0  0  0  0  0999 V2000
    8.2151  -18.7993   18.2463 C   0  0  0  0  0  0  0  0  0  0  0  0
    8.4228  -18.1550   19.6010 C   0  0  1  0  0  0  0  0  0  0  0  0
    9.4419  -18.8822   20.2280 O   0  0  0  0  0  0  0  0  0  0  0  0
    8.9611  -16.7540   19.3951 C   0  0  2  0  0  0  0  0  0  0  0  0
   10.1586  -16.8571   18.6021 N   0  0  0  0  0  0  0  0  0  0  0  0
    9.1948  -16.0581   20.6846 C   0  0  0  0  0  0  0  0  0  0  0  0
   10.2468  -16.2858   21.3308 O   0  0  0  0  0  0  0  0  0  0  0  0
    7.0373  -12.1609   28.3240 O   0  0  0  0  0  0  0  0  0  0  0  0
    7.0806  -12.5306   26.9989 C   0  0  0  0  0  0  0  0  0  0  0  0
    6.2311  -13.5460   26.5996 C   0  0  0  0  0  0  0  0  0  0  0  0
    6.2284  -13.9604   25.2857 C   0  0  0  0  0  0  0  0  0  0  0  0
    7.0512  -13.3967   24.3326 C   0  0  0  0  0  0  0  0  0  0  0  0
    7.0295  -13.8624   22.9205 C   0  0  0  0  0  0  0  0  0  0  0  0
    8.2527  -14.7210   22.6189 C   0  0  2  0  0  0  0  0  0  0  0  0
    8.2759  -15.1274   21.2435 N   0  0  0  0  0  0  0  0  0  0  0  0
    8.2497  -15.8571   23.5643 C   0  0  0  0  0  0  0  0  0  0  0  0
    7.5100  -16.8514   23.3457 O   0  0  0  0  0  0  0  0  0  0  0  0
    7.9022  -12.3751   24.7464 C   0  0  0  0  0  0  0  0  0  0  0  0
    7.9093  -11.9567   26.0582 C   0  0  0  0  0  0  0  0  0  0  0  0
   11.8185  -19.7471   24.9605 N   0  0  0  0  0  0  0  0  0  0  0  0
   10.4640  -19.3738   25.1455 C   0  0  0  0  0  0  0  0  0  0  0  0
    9.7206  -20.1014   25.8243 O   0  0  0  0  0  0  0  0  0  0  0  0
    9.9817  -18.1416   24.5309 C   0  0  0  0  0  0  0  0  0  0  0  0
    9.3153  -17.1604   25.4638 C   0  0  2  0  0  0  0  0  0  0  0  0
    9.0474  -15.9027   24.7347 N   0  0  0  0  0  0  0  0  0  0  0  0
   10.1701  -16.7674   26.5946 C   0  0  0  0  0  0  0  0  0  0  0  0
   10.5728  -15.4610   26.7546 O   0  0  0  0  0  0  0  0  0  0  0  0
   10.5499  -17.6024   27.4326 O   0  0  0  0  0  0  0  0  0  0  0  0
  2  1  1  6
  2  4  1  0
  3  2  1  0
  4  5  1  1
  6  4  1  0
  7  6  2  0
  9  8  1  0
  9 10  2  0
 10 11  1  0
 12 13  1  0
 12 11  2  0
 14 15  1  0
 14 13  1  6
 15  6  1  0
 16 14  1  0
 17 16  2  0
 18 12  1  0
 19 18  2  0
 19  9  1  0
 20 21  1  0
 21 22  2  0
 23 21  1  0
 24 23  1  6
 24 25  1  0
 25 16  1  0
 26 24  1  0
 26 27  1  0
 28 26  2  0
M  END
$$$$
