TYN.pdb
     RDKit          3D

 28 28  0  0  1  0  0  0  0  0999 V2000
    6.3795  -14.8734   18.6492 C   0  0  0  0  0  0  0  0  0  0  0  0
    7.1947  -15.1209   19.9012 C   0  0  1  0  0  0  0  0  0  0  0  0
    8.4507  -15.5638   19.4690 O   0  0  0  0  0  0  0  0  0  0  0  0
    7.4250  -13.7969   20.6005 C   0  0  2  0  0  0  0  0  0  0  0  0
    8.0006  -12.8896   19.6418 N   0  0  0  0  0  0  0  0  0  0  0  0
    8.2698  -13.9520   21.8104 C   0  0  0  0  0  0  0  0  0  0  0  0
    9.5141  -13.8120   21.7205 O   0  0  0  0  0  0  0  0  0  0  0  0
   10.9642  -14.8905   30.1306 O   0  0  0  0  0  0  0  0  0  0  0  0
   10.1531  -14.8184   29.0210 C   0  0  0  0  0  0  0  0  0  0  0  0
   10.0996  -13.6066   28.3569 C   0  0  0  0  0  0  0  0  0  0  0  0
    9.3054  -13.4722   27.2393 C   0  0  0  0  0  0  0  0  0  0  0  0
    8.5466  -14.5124   26.7438 C   0  0  0  0  0  0  0  0  0  0  0  0
    7.6969  -14.3413   25.5354 C   0  0  0  0  0  0  0  0  0  0  0  0
    8.5252  -14.5144   24.2671 C   0  0  2  0  0  0  0  0  0  0  0  0
    7.7399  -14.2567   23.0947 N   0  0  0  0  0  0  0  0  0  0  0  0
    9.1098  -15.8715   24.2927 C   0  0  0  0  0  0  0  0  0  0  0  0
    8.3747  -16.8737   24.0955 O   0  0  0  0  0  0  0  0  0  0  0  0
    8.6085  -15.7276   27.4208 C   0  0  0  0  0  0  0  0  0  0  0  0
    9.4005  -15.8680   28.5384 C   0  0  0  0  0  0  0  0  0  0  0  0
   12.5994  -16.6155   21.4085 N   0  0  0  0  0  0  0  0  0  0  0  0
   12.0105  -17.5981   22.2428 C   0  0  0  0  0  0  0  0  0  0  0  0
   11.2931  -18.4756   21.7348 O   0  0  0  0  0  0  0  0  0  0  0  0
   12.2655  -17.5492   23.6785 C   0  0  0  0  0  0  0  0  0  0  0  0
   11.0423  -17.4952   24.5605 C   0  0  2  0  0  0  0  0  0  0  0  0
   10.4832  -16.1271   24.5315 N   0  0  0  0  0  0  0  0  0  0  0  0
   11.3409  -17.7518   25.9778 C   0  0  0  0  0  0  0  0  0  0  0  0
   11.0858  -18.9812   26.5417 O   0  0  0  0  0  0  0  0  0  0  0  0
   11.8297  -16.8677   26.7010 O   0  0  0  0  0  0  0  0  0  0  0  0
  2  1  1  6
  2  4  1  0
  3  2  1  0
  4  5  1  6
  6  4  1  0
  7  6  2  0
  9  8  1  0
  9 10  2  0
 10 11  1  0
 12 13  1  0
 12 11  2  0
 14 15  1  0
 14 13  1  1
 15  6  1  0
 16 14  1  0
 17 16  2  0
 18 12  1  0
 19 18  2  0
 19  9  1  0
 20 21  1  0
 21 22  2  0
 23 21  1  0
 24 23  1  6
 24 25  1  0
 25 16  1  0
 26 24  1  0
 26 27  1  0
 28 26  2  0
M  END
$$$$
