WPN.pdb
     RDKit          3D

 30 32  0  0  1  0  0  0  0  0999 V2000
   27.1208  -22.7173  -12.3577 N   0  0  0  0  0  0  0  0  0  0  0  0
   26.2608  -21.7556  -11.7553 C   0  0  1  0  0  0  0  0  0  0  0  0
   27.0004  -20.4903  -11.4539 C   0  0  0  0  0  0  0  0  0  0  0  0
   27.9880  -20.5652  -10.3738 C   0  0  0  0  0  0  0  0  0  0  0  0
   29.3081  -20.9256  -10.5559 C   0  0  0  0  0  0  0  0  0  0  0  0
   29.9299  -20.8609   -9.3878 N   0  0  0  0  0  0  0  0  0  0  0  0
   29.0792  -20.4704   -8.4212 C   0  0  0  0  0  0  0  0  0  0  0  0
   29.2543  -20.2693   -7.0722 C   0  0  0  0  0  0  0  0  0  0  0  0
   28.1664  -19.8670   -6.3059 C   0  0  0  0  0  0  0  0  0  0  0  0
   26.9474  -19.6765   -6.8876 C   0  0  0  0  0  0  0  0  0  0  0  0
   26.8146  -19.8897   -8.2478 C   0  0  0  0  0  0  0  0  0  0  0  0
   27.8424  -20.2820   -9.0457 C   0  0  0  0  0  0  0  0  0  0  0  0
   25.0477  -21.4153  -12.5400 C   0  0  0  0  0  0  0  0  0  0  0  0
   25.1661  -21.4604  -13.8197 O   0  0  0  0  0  0  0  0  0  0  0  0
   23.7956  -21.0515  -12.0359 N   0  0  0  0  0  0  0  0  0  0  0  0
   23.4916  -20.6866  -10.6746 C   0  0  0  0  0  0  0  0  0  0  0  0
   22.0780  -20.1128  -10.6827 C   0  0  0  0  0  0  0  0  0  0  0  0
   21.4495  -20.9954  -11.7598 C   0  0  0  0  0  0  0  0  0  0  0  0
   22.5717  -20.9757  -12.7920 C   0  0  1  0  0  0  0  0  0  0  0  0
   22.4854  -19.7200  -13.5853 C   0  0  0  0  0  0  0  0  0  0  0  0
   22.8074  -18.6304  -13.0470 O   0  0  0  0  0  0  0  0  0  0  0  0
   23.4917  -17.1490  -18.8196 N   0  0  0  0  0  0  0  0  0  0  0  0
   22.3759  -17.6199  -18.0812 C   0  0  0  0  0  0  0  0  0  0  0  0
   21.2775  -17.0259  -18.1979 O   0  0  0  0  0  0  0  0  0  0  0  0
   22.4591  -18.7826  -17.1813 C   0  0  0  0  0  0  0  0  0  0  0  0
   22.0705  -18.4899  -15.7581 C   0  0  2  0  0  0  0  0  0  0  0  0
   22.0557  -19.6766  -14.9336 N   0  0  0  0  0  0  0  0  0  0  0  0
   20.8476  -17.6956  -15.6480 C   0  0  0  0  0  0  0  0  0  0  0  0
   20.7627  -16.4686  -15.8192 O   0  0  0  0  0  0  0  0  0  0  0  0
   19.6594  -18.3775  -15.3193 O   0  0  0  0  0  0  0  0  0  0  0  0
  2  1  1  6
  2  3  1  0
  3  4  1  0
  4 12  1  0
  4  5  2  0
  5  6  1  0
  7  8  2  0
  7  6  1  0
  9  8  1  0
 10  9  2  0
 11 10  1  0
 11 12  2  0
 12  7  1  0
 13 15  1  0
 13  2  1  0
 14 13  2  0
 15 19  1  0
 16 17  1  0
 16 15  1  0
 17 18  1  0
 18 19  1  0
 19 20  1  1
 20 21  2  0
 22 23  1  0
 23 24  2  0
 23 25  1  0
 26 25  1  6
 26 28  1  0
 27 26  1  0
 27 20  1  0
 28 29  2  0
 28 30  1  0
M  END
$$$$
