WPN.pdb
     RDKit          3D

 30 32  0  0  1  0  0  0  0  0999 V2000
   23.9221  -20.1916  -11.7085 N   0  0  0  0  0  0  0  0  0  0  0  0
   25.3157  -20.2868  -11.9849 C   0  0  1  0  0  0  0  0  0  0  0  0
   25.9660  -21.3124  -11.1108 C   0  0  0  0  0  0  0  0  0  0  0  0
   26.0134  -20.9999   -9.6798 C   0  0  0  0  0  0  0  0  0  0  0  0
   24.8959  -20.8364   -8.8861 C   0  0  0  0  0  0  0  0  0  0  0  0
   25.2899  -20.5953   -7.6443 N   0  0  0  0  0  0  0  0  0  0  0  0
   26.6333  -20.5891   -7.5681 C   0  0  0  0  0  0  0  0  0  0  0  0
   27.4908  -20.3803   -6.5136 C   0  0  0  0  0  0  0  0  0  0  0  0
   28.8613  -20.4251   -6.7427 C   0  0  0  0  0  0  0  0  0  0  0  0
   29.3421  -20.6722   -7.9951 C   0  0  0  0  0  0  0  0  0  0  0  0
   28.4451  -20.8769   -9.0277 C   0  0  0  0  0  0  0  0  0  0  0  0
   27.0965  -20.8458   -8.8623 C   0  0  0  0  0  0  0  0  0  0  0  0
   25.6591  -20.5872  -13.3974 C   0  0  0  0  0  0  0  0  0  0  0  0
   24.8265  -21.3262  -14.0411 O   0  0  0  0  0  0  0  0  0  0  0  0
   26.7885  -20.1537  -14.0979 N   0  0  0  0  0  0  0  0  0  0  0  0
   27.8939  -19.3995  -13.5614 C   0  0  0  0  0  0  0  0  0  0  0  0
   28.9871  -19.4120  -14.6255 C   0  0  0  0  0  0  0  0  0  0  0  0
   28.1209  -19.3655  -15.8831 C   0  0  0  0  0  0  0  0  0  0  0  0
   27.0537  -20.3834  -15.4951 C   0  0  1  0  0  0  0  0  0  0  0  0
   27.5721  -21.7555  -15.7443 C   0  0  0  0  0  0  0  0  0  0  0  0
   28.4616  -22.2223  -14.9882 O   0  0  0  0  0  0  0  0  0  0  0  0
   24.9346  -24.6529  -14.5326 N   0  0  0  0  0  0  0  0  0  0  0  0
   25.5332  -24.7986  -15.8103 C   0  0  0  0  0  0  0  0  0  0  0  0
   24.7952  -24.8473  -16.8232 O   0  0  0  0  0  0  0  0  0  0  0  0
   26.9913  -24.8949  -15.9922 C   0  0  0  0  0  0  0  0  0  0  0  0
   27.5492  -23.9441  -17.0154 C   0  0  2  0  0  0  0  0  0  0  0  0
   27.1162  -22.5825  -16.7990 N   0  0  0  0  0  0  0  0  0  0  0  0
   27.3533  -24.4002  -18.3909 C   0  0  0  0  0  0  0  0  0  0  0  0
   26.6840  -23.8169  -19.2593 O   0  0  0  0  0  0  0  0  0  0  0  0
   27.9763  -25.6060  -18.7688 O   0  0  0  0  0  0  0  0  0  0  0  0
  2  1  1  6
  2  3  1  0
  3  4  1  0
  4 12  1  0
  4  5  2  0
  5  6  1  0
  7  8  2  0
  7  6  1  0
  9  8  1  0
 10  9  2  0
 11 10  1  0
 11 12  2  0
 12  7  1  0
 13 15  1  0
 13  2  1  0
 14 13  2  0
 15 19  1  0
 16 17  1  0
 16 15  1  0
 17 18  1  0
 18 19  1  0
 19 20  1  1
 20 21  2  0
 22 23  1  0
 23 24  2  0
 23 25  1  0
 26 25  1  1
 26 28  1  0
 27 26  1  0
 27 20  1  0
 28 29  2  0
 28 30  1  0
M  END
$$$$
