WPN.pdb
     RDKit          3D

 30 32  0  0  1  0  0  0  0  0999 V2000
   25.5535  -20.6035  -16.3418 N   0  0  0  0  0  0  0  0  0  0  0  0
   26.3217  -19.8940  -15.3753 C   0  0  1  0  0  0  0  0  0  0  0  0
   25.7576  -18.5281  -15.1409 C   0  0  0  0  0  0  0  0  0  0  0  0
   25.7706  -17.6214  -16.2921 C   0  0  0  0  0  0  0  0  0  0  0  0
   24.6511  -16.9834  -16.7873 C   0  0  0  0  0  0  0  0  0  0  0  0
   25.0155  -16.2176  -17.8053 N   0  0  0  0  0  0  0  0  0  0  0  0
   26.3406  -16.3142  -18.0180 C   0  0  0  0  0  0  0  0  0  0  0  0
   27.1651  -15.7254  -18.9477 C   0  0  0  0  0  0  0  0  0  0  0  0
   28.5217  -16.0292  -18.9312 C   0  0  0  0  0  0  0  0  0  0  0  0
   29.0212  -16.8981  -18.0058 C   0  0  0  0  0  0  0  0  0  0  0  0
   28.1572  -17.4680  -17.0884 C   0  0  0  0  0  0  0  0  0  0  0  0
   26.8239  -17.2073  -17.0568 C   0  0  0  0  0  0  0  0  0  0  0  0
   26.4679  -20.5735  -14.0638 C   0  0  0  0  0  0  0  0  0  0  0  0
   25.4784  -21.3035  -13.6872 O   0  0  0  0  0  0  0  0  0  0  0  0
   27.5634  -20.5026  -13.1983 N   0  0  0  0  0  0  0  0  0  0  0  0
   28.7862  -19.7716  -13.4198 C   0  0  0  0  0  0  0  0  0  0  0  0
   29.5417  -19.7745  -12.0945 C   0  0  0  0  0  0  0  0  0  0  0  0
   29.1576  -21.1622  -11.5838 C   0  0  0  0  0  0  0  0  0  0  0  0
   27.6697  -21.1537  -11.9176 C   0  0  1  0  0  0  0  0  0  0  0  0
   26.9338  -20.4155  -10.8559 C   0  0  0  0  0  0  0  0  0  0  0  0
   26.9174  -19.1586  -10.8811 O   0  0  0  0  0  0  0  0  0  0  0  0
   23.6876  -20.2035  -10.9820 N   0  0  0  0  0  0  0  0  0  0  0  0
   23.2363  -20.7765   -9.7655 C   0  0  0  0  0  0  0  0  0  0  0  0
   22.0501  -21.1761   -9.6872 O   0  0  0  0  0  0  0  0  0  0  0  0
   24.1103  -20.9203   -8.5890 C   0  0  0  0  0  0  0  0  0  0  0  0
   25.4931  -20.3589   -8.7757 C   0  0  2  0  0  0  0  0  0  0  0  0
   26.2380  -21.0535   -9.8009 N   0  0  0  0  0  0  0  0  0  0  0  0
   26.2310  -20.2192   -7.5210 C   0  0  0  0  0  0  0  0  0  0  0  0
   27.1396  -20.9686   -7.1273 O   0  0  0  0  0  0  0  0  0  0  0  0
   25.8845  -19.1417   -6.6819 O   0  0  0  0  0  0  0  0  0  0  0  0
  2  1  1  6
  2  3  1  0
  3  4  1  0
  4 12  1  0
  4  5  2  0
  5  6  1  0
  7  8  2  0
  7  6  1  0
  9  8  1  0
 10  9  2  0
 11 10  1  0
 11 12  2  0
 12  7  1  0
 13 15  1  0
 13  2  1  0
 14 13  2  0
 15 19  1  0
 16 17  1  0
 16 15  1  0
 17 18  1  0
 18 19  1  0
 19 20  1  1
 20 21  2  0
 22 23  1  0
 23 24  2  0
 23 25  1  0
 26 25  1  1
 26 28  1  0
 27 26  1  0
 27 20  1  0
 28 29  2  0
 28 30  1  0
M  END
$$$$
