WPN.pdb
     RDKit          3D

 30 32  0  0  1  0  0  0  0  0999 V2000
   26.5846  -18.5034  -15.0281 N   0  0  0  0  0  0  0  0  0  0  0  0
   26.3741  -19.7718  -14.4163 C   0  0  1  0  0  0  0  0  0  0  0  0
   26.1240  -19.6233  -12.9486 C   0  0  0  0  0  0  0  0  0  0  0  0
   27.1512  -20.1781  -12.0626 C   0  0  0  0  0  0  0  0  0  0  0  0
   28.4181  -20.5375  -12.4764 C   0  0  0  0  0  0  0  0  0  0  0  0
   29.0999  -20.9703  -11.4261 N   0  0  0  0  0  0  0  0  0  0  0  0
   28.3410  -20.9177  -10.3163 C   0  0  0  0  0  0  0  0  0  0  0  0
   28.6013  -21.2612   -9.0105 C   0  0  0  0  0  0  0  0  0  0  0  0
   27.5980  -21.1036   -8.0612 C   0  0  0  0  0  0  0  0  0  0  0  0
   26.3770  -20.6161   -8.4246 C   0  0  0  0  0  0  0  0  0  0  0  0
   26.1569  -20.2825   -9.7487 C   0  0  0  0  0  0  0  0  0  0  0  0
   27.0999  -20.4143  -10.7184 C   0  0  0  0  0  0  0  0  0  0  0  0
   25.2744  -20.5791  -15.0011 C   0  0  0  0  0  0  0  0  0  0  0  0
   24.2669  -19.9231  -15.4574 O   0  0  0  0  0  0  0  0  0  0  0  0
   25.2189  -21.9720  -15.1065 N   0  0  0  0  0  0  0  0  0  0  0  0
   26.1952  -22.9097  -14.6102 C   0  0  0  0  0  0  0  0  0  0  0  0
   25.5631  -24.2941  -14.7171 C   0  0  0  0  0  0  0  0  0  0  0  0
   24.7577  -24.1094  -16.0021 C   0  0  0  0  0  0  0  0  0  0  0  0
   24.1673  -22.7288  -15.7364 C   0  0  1  0  0  0  0  0  0  0  0  0
   22.9769  -22.8666  -14.8548 C   0  0  0  0  0  0  0  0  0  0  0  0
   23.1430  -23.1133  -13.6332 O   0  0  0  0  0  0  0  0  0  0  0  0
   18.2295  -25.1625  -15.1664 N   0  0  0  0  0  0  0  0  0  0  0  0
   19.5131  -25.7659  -15.1449 C   0  0  0  0  0  0  0  0  0  0  0  0
   19.6015  -27.0078  -15.2955 O   0  0  0  0  0  0  0  0  0  0  0  0
   20.7479  -24.9870  -14.9523 C   0  0  0  0  0  0  0  0  0  0  0  0
   20.5279  -23.5050  -14.8198 C   0  0  2  0  0  0  0  0  0  0  0  0
   21.6448  -22.7337  -15.3156 N   0  0  0  0  0  0  0  0  0  0  0  0
   20.1000  -23.1050  -13.4799 C   0  0  0  0  0  0  0  0  0  0  0  0
   20.6452  -23.4390  -12.4153 O   0  0  0  0  0  0  0  0  0  0  0  0
   18.9711  -22.2677  -13.3831 O   0  0  0  0  0  0  0  0  0  0  0  0
  2  1  1  6
  2  3  1  0
  3  4  1  0
  4 12  1  0
  4  5  2  0
  5  6  1  0
  7  8  2  0
  7  6  1  0
  9  8  1  0
 10  9  2  0
 11 10  1  0
 11 12  2  0
 12  7  1  0
 13 15  1  0
 13  2  1  0
 14 13  2  0
 15 19  1  0
 16 17  1  0
 16 15  1  0
 17 18  1  0
 18 19  1  0
 19 20  1  1
 20 21  2  0
 22 23  1  0
 23 24  2  0
 23 25  1  0
 26 25  1  1
 26 28  1  0
 27 26  1  0
 27 20  1  0
 28 29  2  0
 28 30  1  0
M  END
$$$$
