WPN.pdb
     RDKit          3D

 30 32  0  0  1  0  0  0  0  0999 V2000
   25.2523  -19.1222  -17.9200 N   0  0  0  0  0  0  0  0  0  0  0  0
   26.0366  -18.8337  -16.7671 C   0  0  1  0  0  0  0  0  0  0  0  0
   25.6894  -17.4910  -16.2056 C   0  0  0  0  0  0  0  0  0  0  0  0
   25.8684  -16.3510  -17.1090 C   0  0  0  0  0  0  0  0  0  0  0  0
   24.9766  -15.3031  -17.2188 C   0  0  0  0  0  0  0  0  0  0  0  0
   25.4527  -14.4317  -18.0958 N   0  0  0  0  0  0  0  0  0  0  0  0
   26.6341  -14.8513  -18.5844 C   0  0  0  0  0  0  0  0  0  0  0  0
   27.4918  -14.3011  -19.5077 C   0  0  0  0  0  0  0  0  0  0  0  0
   28.6604  -14.9822  -19.8291 C   0  0  0  0  0  0  0  0  0  0  0  0
   28.9465  -16.1765  -19.2354 C   0  0  0  0  0  0  0  0  0  0  0  0
   28.0567  -16.6945  -18.3118 C   0  0  0  0  0  0  0  0  0  0  0  0
   26.9010  -16.0729  -17.9585 C   0  0  0  0  0  0  0  0  0  0  0  0
   25.9471  -19.8366  -15.6766 C   0  0  0  0  0  0  0  0  0  0  0  0
   24.9311  -20.6243  -15.7093 O   0  0  0  0  0  0  0  0  0  0  0  0
   26.8471  -20.0133  -14.6216 N   0  0  0  0  0  0  0  0  0  0  0  0
   28.0053  -19.2033  -14.3369 C   0  0  0  0  0  0  0  0  0  0  0  0
   28.4949  -19.6147  -12.9518 C   0  0  0  0  0  0  0  0  0  0  0  0
   28.1711  -21.1070  -12.9987 C   0  0  0  0  0  0  0  0  0  0  0  0
   26.7798  -21.0464  -13.6199 C   0  0  1  0  0  0  0  0  0  0  0  0
   25.7840  -20.7299  -12.5609 C   0  0  0  0  0  0  0  0  0  0  0  0
   25.3242  -19.5625  -12.4798 O   0  0  0  0  0  0  0  0  0  0  0  0
   24.3875  -20.5991   -7.5658 N   0  0  0  0  0  0  0  0  0  0  0  0
   25.6444  -20.2730   -8.1366 C   0  0  0  0  0  0  0  0  0  0  0  0
   26.4579  -19.5955   -7.4641 O   0  0  0  0  0  0  0  0  0  0  0  0
   26.0306  -20.7012   -9.4916 C   0  0  0  0  0  0  0  0  0  0  0  0
   24.9263  -21.3665  -10.2663 C   0  0  2  0  0  0  0  0  0  0  0  0
   25.3136  -21.6801  -11.6227 N   0  0  0  0  0  0  0  0  0  0  0  0
   23.6530  -20.6526  -10.1802 C   0  0  0  0  0  0  0  0  0  0  0  0
   23.3800  -19.5862  -10.7551 O   0  0  0  0  0  0  0  0  0  0  0  0
   22.6448  -21.2201   -9.3762 O   0  0  0  0  0  0  0  0  0  0  0  0
  2  1  1  6
  2  3  1  0
  3  4  1  0
  4 12  1  0
  4  5  2  0
  5  6  1  0
  7  8  2  0
  7  6  1  0
  9  8  1  0
 10  9  2  0
 11 10  1  0
 11 12  2  0
 12  7  1  0
 13 15  1  0
 13  2  1  0
 14 13  2  0
 15 19  1  0
 16 17  1  0
 16 15  1  0
 17 18  1  0
 18 19  1  0
 19 20  1  1
 20 21  2  0
 22 23  1  0
 23 24  2  0
 23 25  1  0
 26 25  1  6
 26 28  1  0
 27 26  1  0
 27 20  1  0
 28 29  2  0
 28 30  1  0
M  END
$$$$
