SWN.pdb
     RDKit          3D

 29 30  0  0  1  0  0  0  0  0999 V2000
   10.3305  -18.3236   21.2418 O   0  0  0  0  0  0  0  0  0  0  0  0
    8.9384  -18.3370   21.3552 C   0  0  0  0  0  0  0  0  0  0  0  0
    8.4676  -16.8959   21.4197 C   0  0  2  0  0  0  0  0  0  0  0  0
    8.7019  -16.2089   20.1672 N   0  0  0  0  0  0  0  0  0  0  0  0
    9.2042  -16.1767   22.4854 C   0  0  0  0  0  0  0  0  0  0  0  0
   10.0678  -15.3144   22.1382 O   0  0  0  0  0  0  0  0  0  0  0  0
    8.9564  -16.4391   23.8446 N   0  0  0  0  0  0  0  0  0  0  0  0
    9.7769  -15.7596   24.8581 C   0  0  1  0  0  0  0  0  0  0  0  0
    8.9601  -15.7834   26.1002 C   0  0  0  0  0  0  0  0  0  0  0  0
    7.6837  -15.0638   26.0632 C   0  0  0  0  0  0  0  0  0  0  0  0
    6.4226  -15.6388   25.9013 C   0  0  0  0  0  0  0  0  0  0  0  0
    5.4940  -14.6690   25.8883 N   0  0  0  0  0  0  0  0  0  0  0  0
    6.0983  -13.4799   26.0362 C   0  0  0  0  0  0  0  0  0  0  0  0
    5.5603  -12.1944   26.0968 C   0  0  0  0  0  0  0  0  0  0  0  0
    6.3738  -11.0973   26.2716 C   0  0  0  0  0  0  0  0  0  0  0  0
    7.7213  -11.3312   26.3816 C   0  0  0  0  0  0  0  0  0  0  0  0
    8.2478  -12.6035   26.3204 C   0  0  0  0  0  0  0  0  0  0  0  0
    7.4598  -13.7116   26.1463 C   0  0  0  0  0  0  0  0  0  0  0  0
   11.0798  -16.4136   24.8933 C   0  0  0  0  0  0  0  0  0  0  0  0
   12.0103  -16.0402   25.6464 O   0  0  0  0  0  0  0  0  0  0  0  0
   13.3583  -20.4346   26.2909 N   0  0  0  0  0  0  0  0  0  0  0  0
   12.1520  -20.7577   25.6164 C   0  0  0  0  0  0  0  0  0  0  0  0
   11.6721  -21.9008   25.8913 O   0  0  0  0  0  0  0  0  0  0  0  0
   11.4867  -19.8586   24.6715 C   0  0  0  0  0  0  0  0  0  0  0  0
   12.2720  -18.5674   24.5122 C   0  0  2  0  0  0  0  0  0  0  0  0
   11.3374  -17.5236   24.0511 N   0  0  0  0  0  0  0  0  0  0  0  0
   13.2290  -18.7468   23.3997 C   0  0  0  0  0  0  0  0  0  0  0  0
   14.5548  -18.4133   23.5565 O   0  0  0  0  0  0  0  0  0  0  0  0
   12.8311  -19.2041   22.3113 O   0  0  0  0  0  0  0  0  0  0  0  0
  2  1  1  0
  3  5  1  0
  3  2  1  0
  3  4  1  6
  5  6  2  0
  7  8  1  0
  7  5  1  0
  8  9  1  1
 10 18  1  0
 10  9  1  0
 11 10  2  0
 12 11  1  0
 12 13  1  0
 13 18  2  0
 14 13  1  0
 14 15  2  0
 15 16  1  0
 16 17  2  0
 18 17  1  0
 19 26  1  0
 19  8  1  0
 20 19  2  0
 22 21  1  0
 23 22  2  0
 24 22  1  0
 25 24  1  6
 25 26  1  0
 27 25  1  0
 27 28  1  0
 29 27  2  0
M  END
$$$$
