SWN.pdb
     RDKit          3D

 29 30  0  0  1  0  0  0  0  0999 V2000
    9.6416  -14.8583   17.7228 O   0  0  0  0  0  0  0  0  0  0  0  0
    8.2608  -15.0626   17.6721 C   0  0  0  0  0  0  0  0  0  0  0  0
    7.5978  -13.9135   18.4086 C   0  0  2  0  0  0  0  0  0  0  0  0
    7.9506  -12.6383   17.8215 N   0  0  0  0  0  0  0  0  0  0  0  0
    8.0370  -13.9072   19.8238 C   0  0  0  0  0  0  0  0  0  0  0  0
    9.0231  -13.1744   20.1409 O   0  0  0  0  0  0  0  0  0  0  0  0
    7.3824  -14.6897   20.7917 N   0  0  0  0  0  0  0  0  0  0  0  0
    7.8743  -14.6604   22.1771 C   0  0  1  0  0  0  0  0  0  0  0  0
    6.6557  -14.7449   23.0248 C   0  0  0  0  0  0  0  0  0  0  0  0
    6.8588  -14.7080   24.4759 C   0  0  0  0  0  0  0  0  0  0  0  0
    6.8508  -15.8090   25.3332 C   0  0  0  0  0  0  0  0  0  0  0  0
    7.0419  -15.3879   26.5938 N   0  0  0  0  0  0  0  0  0  0  0  0
    7.1755  -14.0524   26.5955 C   0  0  0  0  0  0  0  0  0  0  0  0
    7.4012  -13.1685   27.6506 C   0  0  0  0  0  0  0  0  0  0  0  0
    7.5237  -11.8160   27.4231 C   0  0  0  0  0  0  0  0  0  0  0  0
    7.4140  -11.3896   26.1236 C   0  0  0  0  0  0  0  0  0  0  0  0
    7.1903  -12.2674   25.0848 C   0  0  0  0  0  0  0  0  0  0  0  0
    7.0639  -13.6176   25.2849 C   0  0  0  0  0  0  0  0  0  0  0  0
    8.8724  -15.7136   22.3216 C   0  0  0  0  0  0  0  0  0  0  0  0
    8.8220  -16.7931   21.6855 O   0  0  0  0  0  0  0  0  0  0  0  0
   13.7474  -17.8163   22.2348 N   0  0  0  0  0  0  0  0  0  0  0  0
   13.4743  -16.7765   23.1616 C   0  0  0  0  0  0  0  0  0  0  0  0
   14.2817  -16.7021   24.1390 O   0  0  0  0  0  0  0  0  0  0  0  0
   12.3546  -15.8430   23.0248 C   0  0  0  0  0  0  0  0  0  0  0  0
   11.0298  -16.5557   23.2394 C   0  0  2  0  0  0  0  0  0  0  0  0
    9.9604  -15.5400   23.2126 N   0  0  0  0  0  0  0  0  0  0  0  0
   11.0160  -17.0937   24.6164 C   0  0  0  0  0  0  0  0  0  0  0  0
   11.7171  -18.2359   24.9285 O   0  0  0  0  0  0  0  0  0  0  0  0
   10.3640  -16.5073   25.5014 O   0  0  0  0  0  0  0  0  0  0  0  0
  2  1  1  0
  3  5  1  0
  3  2  1  0
  3  4  1  6
  5  6  2  0
  7  8  1  0
  7  5  1  0
  8  9  1  1
 10 18  1  0
 10  9  1  0
 11 10  2  0
 12 11  1  0
 12 13  1  0
 13 18  2  0
 14 13  1  0
 14 15  2  0
 15 16  1  0
 16 17  2  0
 18 17  1  0
 19 26  1  0
 19  8  1  0
 20 19  2  0
 22 21  1  0
 23 22  2  0
 24 22  1  0
 25 24  1  1
 25 26  1  0
 27 25  1  0
 27 28  1  0
 29 27  2  0
M  END
$$$$
