SWN.pdb
     RDKit          3D

 29 30  0  0  1  0  0  0  0  0999 V2000
    8.9335  -15.6846   19.0079 O   0  0  0  0  0  0  0  0  0  0  0  0
    7.6615  -15.9097   19.5392 C   0  0  0  0  0  0  0  0  0  0  0  0
    7.3073  -14.7169   20.4078 C   0  0  2  0  0  0  0  0  0  0  0  0
    7.3815  -13.4800   19.6594 N   0  0  0  0  0  0  0  0  0  0  0  0
    8.2549  -14.6267   21.5434 C   0  0  0  0  0  0  0  0  0  0  0  0
    9.1749  -13.7547   21.4869 O   0  0  0  0  0  0  0  0  0  0  0  0
    8.1417  -15.4814   22.6543 N   0  0  0  0  0  0  0  0  0  0  0  0
    9.1494  -15.3929   23.7216 C   0  0  1  0  0  0  0  0  0  0  0  0
    8.4394  -15.8020   24.9623 C   0  0  0  0  0  0  0  0  0  0  0  0
    7.3648  -14.9203   25.4275 C   0  0  0  0  0  0  0  0  0  0  0  0
    6.0124  -15.2525   25.5165 C   0  0  0  0  0  0  0  0  0  0  0  0
    5.3244  -14.1864   25.9559 N   0  0  0  0  0  0  0  0  0  0  0  0
    6.1744  -13.1679   26.1590 C   0  0  0  0  0  0  0  0  0  0  0  0
    5.9387  -11.8727   26.6198 C   0  0  0  0  0  0  0  0  0  0  0  0
    6.9752  -10.9790   26.7713 C   0  0  0  0  0  0  0  0  0  0  0  0
    8.2333  -11.4225   26.4502 C   0  0  0  0  0  0  0  0  0  0  0  0
    8.4605  -12.7033   25.9946 C   0  0  0  0  0  0  0  0  0  0  0  0
    7.4462  -13.6114   25.8345 C   0  0  0  0  0  0  0  0  0  0  0  0
   10.3061  -16.1815   23.3135 C   0  0  0  0  0  0  0  0  0  0  0  0
   10.2169  -17.1929   22.5776 O   0  0  0  0  0  0  0  0  0  0  0  0
   15.4937  -16.8191   21.5457 N   0  0  0  0  0  0  0  0  0  0  0  0
   15.1707  -16.4369   22.8740 C   0  0  0  0  0  0  0  0  0  0  0  0
   16.0147  -16.7895   23.7549 O   0  0  0  0  0  0  0  0  0  0  0  0
   13.9634  -15.6892   23.2307 C   0  0  0  0  0  0  0  0  0  0  0  0
   12.7594  -16.6134   23.3043 C   0  0  2  0  0  0  0  0  0  0  0  0
   11.6028  -15.8146   23.7513 N   0  0  0  0  0  0  0  0  0  0  0  0
   12.9961  -17.5896   24.3891 C   0  0  0  0  0  0  0  0  0  0  0  0
   13.7299  -18.7301   24.1565 O   0  0  0  0  0  0  0  0  0  0  0  0
   12.5269  -17.3770   25.5236 O   0  0  0  0  0  0  0  0  0  0  0  0
  2  1  1  0
  3  5  1  0
  3  2  1  0
  3  4  1  6
  5  6  2  0
  7  8  1  0
  7  5  1  0
  8  9  1  1
 10 18  1  0
 10  9  1  0
 11 10  2  0
 12 11  1  0
 12 13  1  0
 13 18  2  0
 14 13  1  0
 14 15  2  0
 15 16  1  0
 16 17  2  0
 18 17  1  0
 19 26  1  0
 19  8  1  0
 20 19  2  0
 22 21  1  0
 23 22  2  0
 24 22  1  0
 25 24  1  1
 25 26  1  0
 27 25  1  0
 27 28  1  0
 29 27  2  0
M  END
$$$$
