SWN.pdb
     RDKit          3D

 29 30  0  0  1  0  0  0  0  0999 V2000
    9.5110  -18.3400   19.5569 O   0  0  0  0  0  0  0  0  0  0  0  0
   10.1060  -17.5754   20.5631 C   0  0  0  0  0  0  0  0  0  0  0  0
    9.0963  -16.5337   21.0080 C   0  0  2  0  0  0  0  0  0  0  0  0
    9.0670  -15.4071   20.0994 N   0  0  0  0  0  0  0  0  0  0  0  0
    9.4571  -16.0312   22.3545 C   0  0  0  0  0  0  0  0  0  0  0  0
   10.1685  -14.9834   22.4312 O   0  0  0  0  0  0  0  0  0  0  0  0
    9.0252  -16.6937   23.5174 N   0  0  0  0  0  0  0  0  0  0  0  0
    9.4204  -16.1551   24.8274 C   0  0  1  0  0  0  0  0  0  0  0  0
    8.2482  -16.3855   25.7127 C   0  0  0  0  0  0  0  0  0  0  0  0
    7.2843  -15.2873   25.8286 C   0  0  0  0  0  0  0  0  0  0  0  0
    5.8971  -15.4185   25.9036 C   0  0  0  0  0  0  0  0  0  0  0  0
    5.3417  -14.1979   25.9725 N   0  0  0  0  0  0  0  0  0  0  0  0
    6.3123  -13.2713   25.9461 C   0  0  0  0  0  0  0  0  0  0  0  0
    6.2347  -11.8800   26.0057 C   0  0  0  0  0  0  0  0  0  0  0  0
    7.3751  -11.1087   25.9791 C   0  0  0  0  0  0  0  0  0  0  0  0
    8.5738  -11.7705   25.8922 C   0  0  0  0  0  0  0  0  0  0  0  0
    8.6447  -13.1457   25.8329 C   0  0  0  0  0  0  0  0  0  0  0  0
    7.5247  -13.9357   25.8570 C   0  0  0  0  0  0  0  0  0  0  0  0
   10.6848  -16.7755   25.2050 C   0  0  0  0  0  0  0  0  0  0  0  0
   11.2249  -16.5978   26.3227 O   0  0  0  0  0  0  0  0  0  0  0  0
   10.6222  -21.4244   24.4748 N   0  0  0  0  0  0  0  0  0  0  0  0
   11.6171  -20.5698   25.0176 C   0  0  0  0  0  0  0  0  0  0  0  0
   11.6862  -20.5632   26.2856 O   0  0  0  0  0  0  0  0  0  0  0  0
   12.5127  -19.7485   24.2009 C   0  0  0  0  0  0  0  0  0  0  0  0
   12.5761  -18.3270   24.7342 C   0  0  2  0  0  0  0  0  0  0  0  0
   11.3584  -17.6227   24.2905 N   0  0  0  0  0  0  0  0  0  0  0  0
   13.6917  -17.6323   24.0570 C   0  0  0  0  0  0  0  0  0  0  0  0
   14.6717  -17.0026   24.7895 O   0  0  0  0  0  0  0  0  0  0  0  0
   13.7445  -17.6174   22.8123 O   0  0  0  0  0  0  0  0  0  0  0  0
  2  1  1  0
  3  5  1  0
  3  2  1  0
  3  4  1  6
  5  6  2  0
  7  8  1  0
  7  5  1  0
  8  9  1  1
 10 18  1  0
 10  9  1  0
 11 10  2  0
 12 11  1  0
 12 13  1  0
 13 18  2  0
 14 13  1  0
 14 15  2  0
 15 16  1  0
 16 17  2  0
 18 17  1  0
 19 26  1  0
 19  8  1  0
 20 19  2  0
 22 21  1  0
 23 22  2  0
 24 22  1  0
 25 24  1  6
 25 26  1  0
 27 25  1  0
 27 28  1  0
 29 27  2  0
M  END
$$$$
