SWN.pdb
     RDKit          3D

 29 30  0  0  1  0  0  0  0  0999 V2000
    8.9088  -17.1349   19.3400 O   0  0  0  0  0  0  0  0  0  0  0  0
    7.7502  -17.3644   20.0856 C   0  0  0  0  0  0  0  0  0  0  0  0
    7.2797  -16.0279   20.6288 C   0  0  2  0  0  0  0  0  0  0  0  0
    7.2359  -15.0226   19.5882 N   0  0  0  0  0  0  0  0  0  0  0  0
    8.2109  -15.5610   21.6827 C   0  0  0  0  0  0  0  0  0  0  0  0
    9.0211  -14.6280   21.3945 O   0  0  0  0  0  0  0  0  0  0  0  0
    8.2005  -16.1329   22.9674 N   0  0  0  0  0  0  0  0  0  0  0  0
    9.2245  -15.7155   23.9367 C   0  0  1  0  0  0  0  0  0  0  0  0
    8.5916  -15.8895   25.2708 C   0  0  0  0  0  0  0  0  0  0  0  0
    7.4561  -15.0158   25.5803 C   0  0  0  0  0  0  0  0  0  0  0  0
    6.1154  -15.3997   25.6281 C   0  0  0  0  0  0  0  0  0  0  0  0
    5.3595  -14.3274   25.9141 N   0  0  0  0  0  0  0  0  0  0  0  0
    6.1538  -13.2550   26.0563 C   0  0  0  0  0  0  0  0  0  0  0  0
    5.8385  -11.9318   26.3647 C   0  0  0  0  0  0  0  0  0  0  0  0
    6.8270  -10.9800   26.4791 C   0  0  0  0  0  0  0  0  0  0  0  0
    8.1190  -11.3950   26.2770 C   0  0  0  0  0  0  0  0  0  0  0  0
    8.4250  -12.7038   25.9717 C   0  0  0  0  0  0  0  0  0  0  0  0
    7.4598  -13.6697   25.8515 C   0  0  0  0  0  0  0  0  0  0  0  0
   10.4393  -16.4735   23.6608 C   0  0  0  0  0  0  0  0  0  0  0  0
   10.4490  -17.5175   22.9662 O   0  0  0  0  0  0  0  0  0  0  0  0
   16.3172  -16.3754   23.8260 N   0  0  0  0  0  0  0  0  0  0  0  0
   15.1824  -16.4343   22.9754 C   0  0  0  0  0  0  0  0  0  0  0  0
   15.3424  -17.1097   21.9120 O   0  0  0  0  0  0  0  0  0  0  0  0
   13.9089  -15.7780   23.2776 C   0  0  0  0  0  0  0  0  0  0  0  0
   12.9060  -16.7766   23.8308 C   0  0  2  0  0  0  0  0  0  0  0  0
   11.6805  -16.0370   24.1867 N   0  0  0  0  0  0  0  0  0  0  0  0
   13.4314  -17.2920   25.1130 C   0  0  0  0  0  0  0  0  0  0  0  0
   14.4317  -18.2367   25.1304 O   0  0  0  0  0  0  0  0  0  0  0  0
   12.9642  -16.8665   26.1868 O   0  0  0  0  0  0  0  0  0  0  0  0
  2  1  1  0
  3  5  1  0
  3  2  1  0
  3  4  1  6
  5  6  2  0
  7  8  1  0
  7  5  1  0
  8  9  1  1
 10 18  1  0
 10  9  1  0
 11 10  2  0
 12 11  1  0
 12 13  1  0
 13 18  2  0
 14 13  1  0
 14 15  2  0
 15 16  1  0
 16 17  2  0
 18 17  1  0
 19 26  1  0
 19  8  1  0
 20 19  2  0
 22 21  1  0
 23 22  2  0
 24 22  1  0
 25 24  1  1
 25 26  1  0
 27 25  1  0
 27 28  1  0
 29 27  2  0
M  END
$$$$
