SWN.pdb
     RDKit          3D

 29 30  0  0  1  0  0  0  0  0999 V2000
   12.0216  -18.8598   21.8060 O   0  0  0  0  0  0  0  0  0  0  0  0
   11.0739  -18.6549   20.8006 C   0  0  0  0  0  0  0  0  0  0  0  0
   11.0253  -17.1663   20.5100 C   0  0  2  0  0  0  0  0  0  0  0  0
   12.3048  -16.6796   20.0394 N   0  0  0  0  0  0  0  0  0  0  0  0
   10.6764  -16.4270   21.7459 C   0  0  0  0  0  0  0  0  0  0  0  0
   11.6030  -15.8117   22.3565 O   0  0  0  0  0  0  0  0  0  0  0  0
    9.3570  -16.4050   22.2319 N   0  0  0  0  0  0  0  0  0  0  0  0
    9.0505  -15.5827   23.4118 C   0  0  1  0  0  0  0  0  0  0  0  0
    7.5929  -15.3031   23.3236 C   0  0  0  0  0  0  0  0  0  0  0  0
    6.9788  -14.6375   24.4762 C   0  0  0  0  0  0  0  0  0  0  0  0
    6.1303  -15.2327   25.4104 C   0  0  0  0  0  0  0  0  0  0  0  0
    5.7424  -14.3095   26.3050 N   0  0  0  0  0  0  0  0  0  0  0  0
    6.3049  -13.1316   25.9930 C   0  0  0  0  0  0  0  0  0  0  0  0
    6.2141  -11.8916   26.6251 C   0  0  0  0  0  0  0  0  0  0  0  0
    6.8977  -10.8002   26.1376 C   0  0  0  0  0  0  0  0  0  0  0  0
    7.6616  -10.9935   25.0143 C   0  0  0  0  0  0  0  0  0  0  0  0
    7.7472  -12.2209   24.3933 C   0  0  0  0  0  0  0  0  0  0  0  0
    7.0763  -13.3222   24.8581 C   0  0  0  0  0  0  0  0  0  0  0  0
    9.5324  -16.2923   24.5911 C   0  0  0  0  0  0  0  0  0  0  0  0
    9.6437  -15.7493   25.7159 O   0  0  0  0  0  0  0  0  0  0  0  0
    8.3588  -18.5943   27.7981 N   0  0  0  0  0  0  0  0  0  0  0  0
    8.4351  -19.6422   26.8438 C   0  0  0  0  0  0  0  0  0  0  0  0
    7.5892  -20.5760   27.0023 O   0  0  0  0  0  0  0  0  0  0  0  0
    9.4042  -19.6694   25.7465 C   0  0  0  0  0  0  0  0  0  0  0  0
   10.2325  -18.3956   25.7276 C   0  0  2  0  0  0  0  0  0  0  0  0
    9.8992  -17.6576   24.4948 N   0  0  0  0  0  0  0  0  0  0  0  0
   11.6536  -18.7747   25.5777 C   0  0  0  0  0  0  0  0  0  0  0  0
   12.5455  -18.5669   26.6048 O   0  0  0  0  0  0  0  0  0  0  0  0
   12.0464  -19.2869   24.5120 O   0  0  0  0  0  0  0  0  0  0  0  0
  2  1  1  0
  3  5  1  0
  3  2  1  0
  3  4  1  1
  5  6  2  0
  7  8  1  0
  7  5  1  0
  8  9  1  1
 10 18  1  0
 10  9  1  0
 11 10  2  0
 12 11  1  0
 12 13  1  0
 13 18  2  0
 14 13  1  0
 14 15  2  0
 15 16  1  0
 16 17  2  0
 18 17  1  0
 19 26  1  0
 19  8  1  0
 20 19  2  0
 22 21  1  0
 23 22  2  0
 24 22  1  0
 25 24  1  6
 25 26  1  0
 27 25  1  0
 27 28  1  0
 29 27  2  0
M  END
$$$$
