SWN.pdb
     RDKit          3D

 29 30  0  0  1  0  0  0  0  0999 V2000
    7.6601  -17.0247   18.7755 O   0  0  0  0  0  0  0  0  0  0  0  0
    8.1492  -17.1283   20.0797 C   0  0  0  0  0  0  0  0  0  0  0  0
    7.4978  -16.0336   20.9042 C   0  0  2  0  0  0  0  0  0  0  0  0
    7.1782  -14.8804   20.0896 N   0  0  0  0  0  0  0  0  0  0  0  0
    8.4227  -15.5986   21.9771 C   0  0  0  0  0  0  0  0  0  0  0  0
    9.1047  -14.5453   21.7883 O   0  0  0  0  0  0  0  0  0  0  0  0
    8.5445  -16.3293   23.1724 N   0  0  0  0  0  0  0  0  0  0  0  0
    9.5483  -15.9080   24.1609 C   0  0  1  0  0  0  0  0  0  0  0  0
    8.8689  -16.0217   25.4785 C   0  0  0  0  0  0  0  0  0  0  0  0
    7.6983  -15.1658   25.6921 C   0  0  0  0  0  0  0  0  0  0  0  0
    6.3641  -15.5676   25.6170 C   0  0  0  0  0  0  0  0  0  0  0  0
    5.5710  -14.5079   25.8427 N   0  0  0  0  0  0  0  0  0  0  0  0
    6.3345  -13.4266   26.0636 C   0  0  0  0  0  0  0  0  0  0  0  0
    5.9747  -12.1104   26.3530 C   0  0  0  0  0  0  0  0  0  0  0  0
    6.9357  -11.1468   26.5627 C   0  0  0  0  0  0  0  0  0  0  0  0
    8.2462  -11.5431   26.4735 C   0  0  0  0  0  0  0  0  0  0  0  0
    8.5963  -12.8449   26.1866 C   0  0  0  0  0  0  0  0  0  0  0  0
    7.6591  -13.8223   25.9731 C   0  0  0  0  0  0  0  0  0  0  0  0
   10.7499  -16.7065   23.9489 C   0  0  0  0  0  0  0  0  0  0  0  0
   10.7161  -17.9258   23.6579 O   0  0  0  0  0  0  0  0  0  0  0  0
   14.2545  -14.1357   21.7342 N   0  0  0  0  0  0  0  0  0  0  0  0
   14.1931  -15.5094   22.0861 C   0  0  0  0  0  0  0  0  0  0  0  0
   13.9756  -16.3028   21.1187 O   0  0  0  0  0  0  0  0  0  0  0  0
   14.3668  -16.0038   23.4534 C   0  0  0  0  0  0  0  0  0  0  0  0
   13.2282  -16.9334   23.8388 C   0  0  2  0  0  0  0  0  0  0  0  0
   12.0282  -16.1074   24.0698 N   0  0  0  0  0  0  0  0  0  0  0  0
   13.5465  -17.5275   25.1547 C   0  0  0  0  0  0  0  0  0  0  0  0
   13.1066  -16.9336   26.3154 O   0  0  0  0  0  0  0  0  0  0  0  0
   14.2185  -18.5750   25.2124 O   0  0  0  0  0  0  0  0  0  0  0  0
  2  1  1  0
  3  5  1  0
  3  2  1  0
  3  4  1  6
  5  6  2  0
  7  8  1  0
  7  5  1  0
  8  9  1  1
 10 18  1  0
 10  9  1  0
 11 10  2  0
 12 11  1  0
 12 13  1  0
 13 18  2  0
 14 13  1  0
 14 15  2  0
 15 16  1  0
 16 17  2  0
 18 17  1  0
 19 26  1  0
 19  8  1  0
 20 19  2  0
 22 21  1  0
 23 22  2  0
 24 22  1  0
 25 24  1  1
 25 26  1  0
 27 25  1  0
 27 28  1  0
 29 27  2  0
M  END
$$$$
