SWN.pdb
     RDKit          3D

 29 30  0  0  1  0  0  0  0  0999 V2000
    9.2296  -17.9166   20.9517 O   0  0  0  0  0  0  0  0  0  0  0  0
    8.9478  -16.8002   20.1610 C   0  0  0  0  0  0  0  0  0  0  0  0
    8.0806  -15.8625   20.9803 C   0  0  2  0  0  0  0  0  0  0  0  0
    7.7174  -14.6839   20.2223 N   0  0  0  0  0  0  0  0  0  0  0  0
    8.8200  -15.4249   22.1876 C   0  0  0  0  0  0  0  0  0  0  0  0
    9.4439  -14.3211   22.1396 O   0  0  0  0  0  0  0  0  0  0  0  0
    8.8324  -16.2076   23.3559 N   0  0  0  0  0  0  0  0  0  0  0  0
    9.6817  -15.7878   24.4805 C   0  0  1  0  0  0  0  0  0  0  0  0
    8.8596  -16.0207   25.6973 C   0  0  0  0  0  0  0  0  0  0  0  0
    7.6429  -15.2148   25.8345 C   0  0  0  0  0  0  0  0  0  0  0  0
    6.3327  -15.6894   25.7618 C   0  0  0  0  0  0  0  0  0  0  0  0
    5.4822  -14.6601   25.9045 N   0  0  0  0  0  0  0  0  0  0  0  0
    6.1852  -13.5287   26.0686 C   0  0  0  0  0  0  0  0  0  0  0  0
    5.7531  -12.2173   26.2660 C   0  0  0  0  0  0  0  0  0  0  0  0
    6.6594  -11.1937   26.4300 C   0  0  0  0  0  0  0  0  0  0  0  0
    7.9899  -11.5262   26.3899 C   0  0  0  0  0  0  0  0  0  0  0  0
    8.4115  -12.8237   26.1939 C   0  0  0  0  0  0  0  0  0  0  0  0
    7.5298  -13.8600   26.0274 C   0  0  0  0  0  0  0  0  0  0  0  0
   10.9501  -16.4995   24.3754 C   0  0  0  0  0  0  0  0  0  0  0  0
   11.5761  -16.9288   25.3736 O   0  0  0  0  0  0  0  0  0  0  0  0
   14.3971  -20.0099   21.3621 N   0  0  0  0  0  0  0  0  0  0  0  0
   14.2601  -18.5974   21.3889 C   0  0  0  0  0  0  0  0  0  0  0  0
   15.3428  -17.9496   21.2445 O   0  0  0  0  0  0  0  0  0  0  0  0
   12.9787  -17.9112   21.5652 C   0  0  0  0  0  0  0  0  0  0  0  0
   12.7761  -17.5132   23.0176 C   0  0  2  0  0  0  0  0  0  0  0  0
   11.5275  -16.7325   23.1027 N   0  0  0  0  0  0  0  0  0  0  0  0
   13.8491  -16.5658   23.3876 C   0  0  0  0  0  0  0  0  0  0  0  0
   13.5623  -15.2407   23.6231 O   0  0  0  0  0  0  0  0  0  0  0  0
   15.0230  -16.9713   23.4871 O   0  0  0  0  0  0  0  0  0  0  0  0
  2  1  1  0
  3  5  1  0
  3  2  1  0
  3  4  1  6
  5  6  2  0
  7  8  1  0
  7  5  1  0
  8  9  1  1
 10 18  1  0
 10  9  1  0
 11 10  2  0
 12 11  1  0
 12 13  1  0
 13 18  2  0
 14 13  1  0
 14 15  2  0
 15 16  1  0
 16 17  2  0
 18 17  1  0
 19 26  1  0
 19  8  1  0
 20 19  2  0
 22 21  1  0
 23 22  2  0
 24 22  1  0
 25 24  1  6
 25 26  1  0
 27 25  1  0
 27 28  1  0
 29 27  2  0
M  END
$$$$
