RYL.pdb
     RDKit          3D

 32 32  0  0  1  0  0  0  0  0999 V2000
    8.0754  -14.9464   15.4468 N   0  0  0  0  0  0  0  0  0  0  0  0
    7.4661  -13.6557   15.3587 C   0  0  0  0  0  0  0  0  0  0  0  0
    7.0136  -13.2670   14.2324 N   0  0  0  0  0  0  0  0  0  0  0  0
    7.3592  -12.8081   16.5025 N   0  0  0  0  0  0  0  0  0  0  0  0
    8.0550  -13.1552   17.7587 C   0  0  0  0  0  0  0  0  0  0  0  0
    7.0906  -13.9537   18.5638 C   0  0  0  0  0  0  0  0  0  0  0  0
    7.6042  -14.5355   19.8298 C   0  0  0  0  0  0  0  0  0  0  0  0
    8.9500  -15.1577   19.7074 C   0  0  2  0  0  0  0  0  0  0  0  0
    8.9972  -16.2648   18.7652 N   0  0  0  0  0  0  0  0  0  0  0  0
    9.4222  -15.7294   21.0047 C   0  0  0  0  0  0  0  0  0  0  0  0
    8.9774  -16.8557   21.3269 O   0  0  0  0  0  0  0  0  0  0  0  0
    6.5767  -12.3572   14.0138 O   0  0  0  0  0  0  0  0  0  0  0  0
   15.1945  -15.8211   17.9529 C   0  0  0  0  0  0  0  0  0  0  0  0
   14.5341  -15.7394   19.1689 C   0  0  0  0  0  0  0  0  0  0  0  0
   14.1455  -14.5173   19.6745 C   0  0  0  0  0  0  0  0  0  0  0  0
   13.4799  -14.4706   20.9066 C   0  0  0  0  0  0  0  0  0  0  0  0
   13.2125  -15.6200   21.6106 C   0  0  0  0  0  0  0  0  0  0  0  0
   12.5213  -15.5810   22.8909 C   0  0  2  0  0  0  0  0  0  0  0  0
   11.0541  -15.8398   22.8381 N   0  0  0  0  0  0  0  0  0  0  0  0
   10.3262  -15.0894   21.8798 C   0  0  0  0  0  0  0  0  0  0  0  0
   10.5089  -15.6434   24.2228 O   0  0  0  0  0  0  0  0  0  0  0  0
   11.0421  -14.7766   24.9438 C   0  0  0  0  0  0  0  0  0  0  0  0
   13.6143  -16.8192   21.0763 C   0  0  0  0  0  0  0  0  0  0  0  0
   14.2769  -16.8967   19.8552 C   0  0  0  0  0  0  0  0  0  0  0  0
    8.4582  -13.1244   26.6867 C   0  0  2  0  0  0  0  0  0  0  0  0
    7.6908  -13.9768   25.7508 C   0  0  0  0  0  0  0  0  0  0  0  0
    6.2373  -13.5058   25.6176 C   0  0  0  0  0  0  0  0  0  0  0  0
    7.6713  -15.4195   26.0098 C   0  0  2  0  0  0  0  0  0  0  0  0
    8.9315  -16.1735   26.1248 N   0  0  0  0  0  0  0  0  0  0  0  0
    9.4313  -16.3976   24.7218 C   0  0  0  0  0  0  0  0  0  0  0  0
    8.9536  -17.5003   26.7194 O   0  0  0  0  0  0  0  0  0  0  0  0
    9.2849  -18.6651   25.9955 O   0  0  0  0  0  0  0  0  0  0  0  0
  2  3  2  0
  2  1  1  0
  4  2  1  0
  5  4  1  0
  6  5  1  0
  7  6  1  0
  8 10  1  0
  8  7  1  0
  8  9  1  6
 10 11  2  0
 13 14  2  0
 13 12  1  0
 15 14  1  0
 16 15  2  0
 17 16  1  0
 18 17  1  6
 18 20  1  0
 19 10  1  0
 19 18  1  0
 20 29  1  0
 20 21  2  0
 22 16  1  0
 22 23  2  0
 23 13  1  0
 25 24  1  6
 25 27  1  0
 26 25  1  0
 28 27  1  1
 28 30  1  0
 29 28  1  0
 30 32  2  0
 30 31  1  0
M  END
$$$$
