RYL.pdb
     RDKit          3D

 32 32  0  0  1  0  0  0  0  0999 V2000
    8.1595  -15.3535   16.2926 N   0  0  0  0  0  0  0  0  0  0  0  0
    8.1430  -13.9343   16.1172 C   0  0  0  0  0  0  0  0  0  0  0  0
    8.1017  -13.4633   14.9335 N   0  0  0  0  0  0  0  0  0  0  0  0
    8.1711  -13.0497   17.2374 N   0  0  0  0  0  0  0  0  0  0  0  0
    8.5248  -13.5539   18.5803 C   0  0  0  0  0  0  0  0  0  0  0  0
    7.3068  -14.2278   19.1079 C   0  0  0  0  0  0  0  0  0  0  0  0
    7.4279  -14.8689   20.4418 C   0  0  0  0  0  0  0  0  0  0  0  0
    8.2777  -16.0900   20.4512 C   0  0  2  0  0  0  0  0  0  0  0  0
    7.6462  -17.2449   19.8322 N   0  0  0  0  0  0  0  0  0  0  0  0
    8.6137  -16.5271   21.8400 C   0  0  0  0  0  0  0  0  0  0  0  0
    7.6604  -16.6595   22.6424 O   0  0  0  0  0  0  0  0  0  0  0  0
    8.1216  -12.4693   14.6546 O   0  0  0  0  0  0  0  0  0  0  0  0
   12.0054  -20.3604   28.9236 C   0  0  0  0  0  0  0  0  0  0  0  0
   11.8376  -19.7786   27.6766 C   0  0  0  0  0  0  0  0  0  0  0  0
   10.6008  -19.7707   27.0679 C   0  0  0  0  0  0  0  0  0  0  0  0
   10.4661  -19.1742   25.8072 C   0  0  0  0  0  0  0  0  0  0  0  0
   11.5444  -18.6018   25.1762 C   0  0  0  0  0  0  0  0  0  0  0  0
   11.4138  -17.9797   23.8669 C   0  0  2  0  0  0  0  0  0  0  0  0
   10.1382  -17.2460   23.6277 N   0  0  0  0  0  0  0  0  0  0  0  0
    9.9207  -16.7971   22.3001 C   0  0  0  0  0  0  0  0  0  0  0  0
   10.0756  -16.1133   24.6106 O   0  0  0  0  0  0  0  0  0  0  0  0
   10.9580  -15.2341   24.5470 C   0  0  0  0  0  0  0  0  0  0  0  0
   12.7607  -18.6285   25.8125 C   0  0  0  0  0  0  0  0  0  0  0  0
   12.9248  -19.2134   27.0643 C   0  0  0  0  0  0  0  0  0  0  0  0
    7.9173  -11.9842   25.9909 C   0  0  1  0  0  0  0  0  0  0  0  0
    7.1875  -13.2630   25.8379 C   0  0  0  0  0  0  0  0  0  0  0  0
    5.6846  -13.0913   26.0910 C   0  0  0  0  0  0  0  0  0  0  0  0
    7.6474  -14.4045   26.6342 C   0  0  2  0  0  0  0  0  0  0  0  0
    9.0460  -14.8588   26.5480 N   0  0  0  0  0  0  0  0  0  0  0  0
    9.0661  -16.0173   25.5857 C   0  0  0  0  0  0  0  0  0  0  0  0
    9.7372  -15.3677   27.7216 O   0  0  0  0  0  0  0  0  0  0  0  0
    9.6270  -16.7030   28.1638 O   0  0  0  0  0  0  0  0  0  0  0  0
  2  3  2  0
  2  1  1  0
  4  2  1  0
  5  4  1  0
  6  5  1  0
  7  6  1  0
  8 10  1  0
  8  7  1  0
  8  9  1  1
 10 11  2  0
 13 14  2  0
 13 12  1  0
 15 14  1  0
 16 15  2  0
 17 16  1  0
 18 17  1  6
 18 20  1  0
 19 10  1  0
 19 18  1  0
 20 29  1  0
 20 21  2  0
 22 16  1  0
 22 23  2  0
 23 13  1  0
 25 24  1  6
 25 27  1  0
 26 25  1  0
 28 27  1  6
 28 30  1  0
 29 28  1  0
 30 32  2  0
 30 31  1  0
M  END
$$$$
