RYL.pdb
     RDKit          3D

 32 32  0  0  1  0  0  0  0  0999 V2000
    9.3526  -13.5270   20.1483 N   0  0  0  0  0  0  0  0  0  0  0  0
    8.7177  -13.6511   18.8730 C   0  0  0  0  0  0  0  0  0  0  0  0
    8.3582  -12.5921   18.2615 N   0  0  0  0  0  0  0  0  0  0  0  0
    8.4848  -14.9303   18.2835 N   0  0  0  0  0  0  0  0  0  0  0  0
    8.0644  -16.0739   19.1189 C   0  0  0  0  0  0  0  0  0  0  0  0
    6.6126  -15.8840   19.3877 C   0  0  0  0  0  0  0  0  0  0  0  0
    5.9526  -16.9146   20.2286 C   0  0  0  0  0  0  0  0  0  0  0  0
    6.9008  -17.8245   20.9259 C   0  0  2  0  0  0  0  0  0  0  0  0
    6.5699  -19.2335   20.7819 N   0  0  0  0  0  0  0  0  0  0  0  0
    6.9299  -17.5795   22.3996 C   0  0  0  0  0  0  0  0  0  0  0  0
    5.8988  -17.0899   22.9166 O   0  0  0  0  0  0  0  0  0  0  0  0
    7.8615  -12.5291   17.3584 O   0  0  0  0  0  0  0  0  0  0  0  0
    5.9439  -23.3821   26.1176 C   0  0  0  0  0  0  0  0  0  0  0  0
    6.6001  -22.1671   25.9968 C   0  0  0  0  0  0  0  0  0  0  0  0
    6.5276  -21.2285   27.0038 C   0  0  0  0  0  0  0  0  0  0  0  0
    7.2029  -20.0106   26.8493 C   0  0  0  0  0  0  0  0  0  0  0  0
    7.9306  -19.7436   25.7145 C   0  0  0  0  0  0  0  0  0  0  0  0
    8.6355  -18.4815   25.5456 C   0  0  2  0  0  0  0  0  0  0  0  0
    8.0002  -17.5100   24.6101 N   0  0  0  0  0  0  0  0  0  0  0  0
    8.0314  -17.8609   23.2363 C   0  0  0  0  0  0  0  0  0  0  0  0
    8.6306  -16.1694   24.8519 O   0  0  0  0  0  0  0  0  0  0  0  0
    9.6801  -15.8968   24.2356 C   0  0  0  0  0  0  0  0  0  0  0  0
    7.9803  -20.7019   24.7325 C   0  0  0  0  0  0  0  0  0  0  0  0
    7.3201  -21.9204   24.8579 C   0  0  0  0  0  0  0  0  0  0  0  0
    5.3539  -12.1403   26.4145 C   0  0  2  0  0  0  0  0  0  0  0  0
    6.7536  -12.4781   26.7581 C   0  0  0  0  0  0  0  0  0  0  0  0
    7.4393  -11.3398   27.5239 C   0  0  0  0  0  0  0  0  0  0  0  0
    7.6418  -12.8788   25.6630 C   0  0  1  0  0  0  0  0  0  0  0  0
    8.7093  -13.8676   25.8925 N   0  0  0  0  0  0  0  0  0  0  0  0
    8.0797  -15.2273   25.7397 C   0  0  0  0  0  0  0  0  0  0  0  0
    9.3930  -13.9413   27.1736 O   0  0  0  0  0  0  0  0  0  0  0  0
   10.4642  -13.0937   27.5268 O   0  0  0  0  0  0  0  0  0  0  0  0
  2  3  2  0
  2  1  1  0
  4  2  1  0
  5  4  1  0
  6  5  1  0
  7  6  1  0
  8 10  1  0
  8  7  1  0
  8  9  1  1
 10 11  2  0
 13 14  2  0
 13 12  1  0
 15 14  1  0
 16 15  2  0
 17 16  1  0
 18 17  1  1
 18 20  1  0
 19 10  1  0
 19 18  1  0
 20 29  1  0
 20 21  2  0
 22 16  1  0
 22 23  2  0
 23 13  1  0
 25 24  1  1
 25 27  1  0
 26 25  1  0
 28 27  1  6
 28 30  1  0
 29 28  1  0
 30 32  2  0
 30 31  1  0
M  END
$$$$
