RYL.pdb
     RDKit          3D

 32 32  0  0  1  0  0  0  0  0999 V2000
   14.2668  -17.0403   16.6239 N   0  0  0  0  0  0  0  0  0  0  0  0
   13.3022  -17.3404   15.6117 C   0  0  0  0  0  0  0  0  0  0  0  0
   13.5582  -17.0170   14.4058 N   0  0  0  0  0  0  0  0  0  0  0  0
   12.0718  -17.9902   15.9312 N   0  0  0  0  0  0  0  0  0  0  0  0
   11.7471  -18.3307   17.3316 C   0  0  0  0  0  0  0  0  0  0  0  0
   12.3150  -17.2394   18.1698 C   0  0  0  0  0  0  0  0  0  0  0  0
   11.4011  -16.6211   19.1634 C   0  0  0  0  0  0  0  0  0  0  0  0
   11.2333  -17.4175   20.4087 C   0  0  2  0  0  0  0  0  0  0  0  0
   10.3473  -18.5607   20.2550 N   0  0  0  0  0  0  0  0  0  0  0  0
   10.6373  -16.6083   21.5144 C   0  0  0  0  0  0  0  0  0  0  0  0
   11.3321  -15.6724   21.9743 O   0  0  0  0  0  0  0  0  0  0  0  0
   12.9769  -17.1996   13.5721 O   0  0  0  0  0  0  0  0  0  0  0  0
    5.7281  -11.8742   26.8423 C   0  0  0  0  0  0  0  0  0  0  0  0
    6.1351  -12.8576   25.9541 C   0  0  0  0  0  0  0  0  0  0  0  0
    5.8167  -14.1799   26.1787 C   0  0  0  0  0  0  0  0  0  0  0  0
    6.2438  -15.1485   25.2608 C   0  0  0  0  0  0  0  0  0  0  0  0
    6.9706  -14.7978   24.1484 C   0  0  0  0  0  0  0  0  0  0  0  0
    7.4181  -15.7971   23.1895 C   0  0  2  0  0  0  0  0  0  0  0  0
    8.8900  -16.0290   23.1416 N   0  0  0  0  0  0  0  0  0  0  0  0
    9.3572  -16.8282   22.0672 C   0  0  0  0  0  0  0  0  0  0  0  0
    9.3034  -16.5933   24.4697 O   0  0  0  0  0  0  0  0  0  0  0  0
    9.5586  -17.8125   24.5334 C   0  0  0  0  0  0  0  0  0  0  0  0
    7.2692  -13.4714   23.9574 C   0  0  0  0  0  0  0  0  0  0  0  0
    6.8586  -12.4874   24.8514 C   0  0  0  0  0  0  0  0  0  0  0  0
   10.7837  -13.3770   27.3024 C   0  0  2  0  0  0  0  0  0  0  0  0
    9.5314  -14.0185   27.7622 C   0  0  0  0  0  0  0  0  0  0  0  0
    8.9895  -13.3555   29.0347 C   0  0  0  0  0  0  0  0  0  0  0  0
    9.5558  -15.4666   27.9882 C   0  0  2  0  0  0  0  0  0  0  0  0
    9.9481  -16.3839   26.9045 N   0  0  0  0  0  0  0  0  0  0  0  0
    9.4092  -15.7984   25.6256 C   0  0  0  0  0  0  0  0  0  0  0  0
    9.4756  -17.7589   26.8853 O   0  0  0  0  0  0  0  0  0  0  0  0
    8.3361  -18.1736   26.1640 O   0  0  0  0  0  0  0  0  0  0  0  0
  2  3  2  0
  2  1  1  0
  4  2  1  0
  5  4  1  0
  6  5  1  0
  7  6  1  0
  8 10  1  0
  8  7  1  0
  8  9  1  6
 10 11  2  0
 13 14  2  0
 13 12  1  0
 15 14  1  0
 16 15  2  0
 17 16  1  0
 18 17  1  6
 18 20  1  0
 19 10  1  0
 19 18  1  0
 20 29  1  0
 20 21  2  0
 22 16  1  0
 22 23  2  0
 23 13  1  0
 25 24  1  6
 25 27  1  0
 26 25  1  0
 28 27  1  6
 28 30  1  0
 29 28  1  0
 30 32  2  0
 30 31  1  0
M  END
$$$$
