RYL.pdb
     RDKit          3D

 32 32  0  0  1  0  0  0  0  0999 V2000
   10.4390  -13.5830   19.3711 N   0  0  0  0  0  0  0  0  0  0  0  0
    9.2773  -13.1875   18.6370 C   0  0  0  0  0  0  0  0  0  0  0  0
    8.8889  -11.9757   18.7100 N   0  0  0  0  0  0  0  0  0  0  0  0
    8.5565  -14.1213   17.8329 N   0  0  0  0  0  0  0  0  0  0  0  0
    7.1548  -14.4601   18.1543 C   0  0  0  0  0  0  0  0  0  0  0  0
    7.1862  -15.8019   18.7982 C   0  0  0  0  0  0  0  0  0  0  0  0
    7.6339  -15.8492   20.2132 C   0  0  0  0  0  0  0  0  0  0  0  0
    7.6928  -17.2220   20.7835 C   0  0  2  0  0  0  0  0  0  0  0  0
    6.7322  -18.1407   20.1931 N   0  0  0  0  0  0  0  0  0  0  0  0
    7.3939  -17.2330   22.2475 C   0  0  0  0  0  0  0  0  0  0  0  0
    6.2184  -16.9679   22.5913 O   0  0  0  0  0  0  0  0  0  0  0  0
    8.0273  -11.5697   18.3113 O   0  0  0  0  0  0  0  0  0  0  0  0
    5.4565  -23.2707   23.9223 C   0  0  0  0  0  0  0  0  0  0  0  0
    6.1240  -22.1190   24.3092 C   0  0  0  0  0  0  0  0  0  0  0  0
    5.4615  -21.1209   24.9911 C   0  0  0  0  0  0  0  0  0  0  0  0
    6.1663  -19.9698   25.3673 C   0  0  0  0  0  0  0  0  0  0  0  0
    7.4994  -19.8260   25.0663 C   0  0  0  0  0  0  0  0  0  0  0  0
    8.2395  -18.6340   25.4533 C   0  0  2  0  0  0  0  0  0  0  0  0
    7.9842  -17.4211   24.6250 N   0  0  0  0  0  0  0  0  0  0  0  0
    8.3396  -17.5193   23.2555 C   0  0  0  0  0  0  0  0  0  0  0  0
    8.6702  -16.2643   25.2917 O   0  0  0  0  0  0  0  0  0  0  0  0
    9.8621  -16.0430   24.9982 C   0  0  0  0  0  0  0  0  0  0  0  0
    8.1263  -20.8406   24.3860 C   0  0  0  0  0  0  0  0  0  0  0  0
    7.4526  -21.9951   23.9996 C   0  0  0  0  0  0  0  0  0  0  0  0
    7.4639  -12.1509   24.8776 C   0  0  2  0  0  0  0  0  0  0  0  0
    6.8239  -12.7395   26.0756 C   0  0  0  0  0  0  0  0  0  0  0  0
    5.8300  -11.7669   26.7225 C   0  0  0  0  0  0  0  0  0  0  0  0
    7.7034  -13.2484   27.1321 C   0  0  2  0  0  0  0  0  0  0  0  0
    8.7332  -14.2557   26.8243 N   0  0  0  0  0  0  0  0  0  0  0  0
    8.0172  -15.4366   26.2231 C   0  0  0  0  0  0  0  0  0  0  0  0
    9.5430  -14.8396   27.8814 O   0  0  0  0  0  0  0  0  0  0  0  0
   10.6333  -14.1709   28.4771 O   0  0  0  0  0  0  0  0  0  0  0  0
  2  3  2  0
  2  1  1  0
  4  2  1  0
  5  4  1  0
  6  5  1  0
  7  6  1  0
  8 10  1  0
  8  7  1  0
  8  9  1  6
 10 11  2  0
 13 14  2  0
 13 12  1  0
 15 14  1  0
 16 15  2  0
 17 16  1  0
 18 17  1  6
 18 20  1  0
 19 10  1  0
 19 18  1  0
 20 29  1  0
 20 21  2  0
 22 16  1  0
 22 23  2  0
 23 13  1  0
 25 24  1  6
 25 27  1  0
 26 25  1  0
 28 27  1  6
 28 30  1  0
 29 28  1  0
 30 32  2  0
 30 31  1  0
M  END
$$$$
