RYL.pdb
     RDKit          3D

 32 32  0  0  1  0  0  0  0  0999 V2000
    9.6590  -13.4522   12.9235 N   0  0  0  0  0  0  0  0  0  0  0  0
    8.9102  -14.6402   13.1931 C   0  0  0  0  0  0  0  0  0  0  0  0
    8.8982  -15.5687   12.3200 N   0  0  0  0  0  0  0  0  0  0  0  0
    8.1855  -14.7976   14.4130 N   0  0  0  0  0  0  0  0  0  0  0  0
    7.3751  -16.0096   14.6509 C   0  0  0  0  0  0  0  0  0  0  0  0
    8.3300  -17.0793   15.0507 C   0  0  0  0  0  0  0  0  0  0  0  0
    7.7931  -18.4627   15.1045 C   0  0  0  0  0  0  0  0  0  0  0  0
    8.7561  -19.4653   15.6343 C   0  0  2  0  0  0  0  0  0  0  0  0
    8.2359  -20.8235   15.6476 N   0  0  0  0  0  0  0  0  0  0  0  0
    9.1382  -19.1801   17.0504 C   0  0  0  0  0  0  0  0  0  0  0  0
    8.2983  -19.4643   17.9357 O   0  0  0  0  0  0  0  0  0  0  0  0
    9.3722  -15.5711   11.4026 O   0  0  0  0  0  0  0  0  0  0  0  0
   13.5266  -24.0931   19.1189 C   0  0  0  0  0  0  0  0  0  0  0  0
   13.1581  -22.7569   19.1348 C   0  0  0  0  0  0  0  0  0  0  0  0
   13.0374  -22.0493   17.9580 C   0  0  0  0  0  0  0  0  0  0  0  0
   12.6630  -20.7001   18.0101 C   0  0  0  0  0  0  0  0  0  0  0  0
   12.4170  -20.0796   19.2113 C   0  0  0  0  0  0  0  0  0  0  0  0
   12.0273  -18.6787   19.2749 C   0  0  2  0  0  0  0  0  0  0  0  0
   10.6402  -18.3756   18.8205 N   0  0  0  0  0  0  0  0  0  0  0  0
   10.3699  -18.6179   17.4495 C   0  0  0  0  0  0  0  0  0  0  0  0
   10.3393  -16.9547   19.1996 O   0  0  0  0  0  0  0  0  0  0  0  0
   10.3762  -16.0894   18.3021 C   0  0  0  0  0  0  0  0  0  0  0  0
   12.5471  -20.8157   20.3630 C   0  0  0  0  0  0  0  0  0  0  0  0
   12.9172  -22.1569   20.3425 C   0  0  0  0  0  0  0  0  0  0  0  0
    8.0588  -12.5459   20.5280 C   0  0  1  0  0  0  0  0  0  0  0  0
    7.5870  -13.8621   20.0417 C   0  0  0  0  0  0  0  0  0  0  0  0
    6.0625  -13.9920   20.1482 C   0  0  0  0  0  0  0  0  0  0  0  0
    8.1809  -15.0592   20.6441 C   0  0  2  0  0  0  0  0  0  0  0  0
    9.6389  -15.1553   20.8303 N   0  0  0  0  0  0  0  0  0  0  0  0
   10.0223  -16.5779   20.5174 C   0  0  0  0  0  0  0  0  0  0  0  0
   10.2413  -14.9092   22.1306 O   0  0  0  0  0  0  0  0  0  0  0  0
    9.4962  -14.5307   23.2673 O   0  0  0  0  0  0  0  0  0  0  0  0
  2  3  2  0
  2  1  1  0
  4  2  1  0
  5  4  1  0
  6  5  1  0
  7  6  1  0
  8 10  1  0
  8  7  1  0
  8  9  1  1
 10 11  2  0
 13 14  2  0
 13 12  1  0
 15 14  1  0
 16 15  2  0
 17 16  1  0
 18 17  1  1
 18 20  1  0
 19 10  1  0
 19 18  1  0
 20 29  1  0
 20 21  2  0
 22 16  1  0
 22 23  2  0
 23 13  1  0
 25 24  1  6
 25 27  1  0
 26 25  1  0
 28 27  1  6
 28 30  1  0
 29 28  1  0
 30 32  2  0
 30 31  1  0
M  END
$$$$
