RYL.pdb
     RDKit          3D

 32 32  0  0  1  0  0  0  0  0999 V2000
    7.7061  -22.6433   24.1539 N   0  0  0  0  0  0  0  0  0  0  0  0
    8.3056  -23.1568   22.9615 C   0  0  0  0  0  0  0  0  0  0  0  0
    9.2129  -24.0460   23.0654 N   0  0  0  0  0  0  0  0  0  0  0  0
    7.9052  -22.6922   21.6724 N   0  0  0  0  0  0  0  0  0  0  0  0
    6.8931  -21.6238   21.5432 C   0  0  0  0  0  0  0  0  0  0  0  0
    7.6297  -20.3348   21.6521 C   0  0  0  0  0  0  0  0  0  0  0  0
    6.8188  -19.0955   21.5443 C   0  0  0  0  0  0  0  0  0  0  0  0
    7.3054  -18.1422   20.5110 C   0  0  2  0  0  0  0  0  0  0  0  0
    7.8124  -18.7906   19.3118 N   0  0  0  0  0  0  0  0  0  0  0  0
    8.4382  -17.3057   21.0105 C   0  0  0  0  0  0  0  0  0  0  0  0
    9.5838  -17.8111   20.9641 O   0  0  0  0  0  0  0  0  0  0  0  0
    9.7171  -24.5182   22.2979 O   0  0  0  0  0  0  0  0  0  0  0  0
    6.8969  -13.5449   16.2903 C   0  0  0  0  0  0  0  0  0  0  0  0
    7.5734  -13.6479   17.4959 C   0  0  0  0  0  0  0  0  0  0  0  0
    7.0449  -13.0997   18.6449 C   0  0  0  0  0  0  0  0  0  0  0  0
    7.7549  -13.2219   19.8467 C   0  0  0  0  0  0  0  0  0  0  0  0
    8.9622  -13.8768   19.8921 C   0  0  0  0  0  0  0  0  0  0  0  0
    9.7065  -14.0089   21.1359 C   0  0  2  0  0  0  0  0  0  0  0  0
    9.4451  -15.2541   21.9127 N   0  0  0  0  0  0  0  0  0  0  0  0
    8.3017  -15.9983   21.5252 C   0  0  0  0  0  0  0  0  0  0  0  0
    9.3936  -14.8798   23.3655 O   0  0  0  0  0  0  0  0  0  0  0  0
    9.6791  -13.7065   23.6776 C   0  0  0  0  0  0  0  0  0  0  0  0
    9.4577  -14.4101   18.7280 C   0  0  0  0  0  0  0  0  0  0  0  0
    8.7753  -14.3046   17.5200 C   0  0  0  0  0  0  0  0  0  0  0  0
    5.6966  -13.2520   26.7646 C   0  0  1  0  0  0  0  0  0  0  0  0
    7.0989  -13.7163   26.8605 C   0  0  0  0  0  0  0  0  0  0  0  0
    8.0290  -12.6081   27.3696 C   0  0  0  0  0  0  0  0  0  0  0  0
    7.7057  -14.2912   25.6564 C   0  0  2  0  0  0  0  0  0  0  0  0
    8.7482  -15.3258   25.7679 N   0  0  0  0  0  0  0  0  0  0  0  0
    9.0384  -15.8004   24.3682 C   0  0  0  0  0  0  0  0  0  0  0  0
    8.5033  -16.5527   26.5088 O   0  0  0  0  0  0  0  0  0  0  0  0
    7.7369  -17.6222   25.9992 O   0  0  0  0  0  0  0  0  0  0  0  0
  2  3  2  0
  2  1  1  0
  4  2  1  0
  5  4  1  0
  6  5  1  0
  7  6  1  0
  8 10  1  0
  8  7  1  0
  8  9  1  6
 10 11  2  0
 13 14  2  0
 13 12  1  0
 15 14  1  0
 16 15  2  0
 17 16  1  0
 18 17  1  6
 18 20  1  0
 19 10  1  0
 19 18  1  0
 20 29  1  0
 20 21  2  0
 22 16  1  0
 22 23  2  0
 23 13  1  0
 25 24  1  1
 25 27  1  0
 26 25  1  0
 28 27  1  6
 28 30  1  0
 29 28  1  0
 30 32  2  0
 30 31  1  0
M  END
$$$$
