RYL.pdb
     RDKit          3D

 32 32  0  0  1  0  0  0  0  0999 V2000
    8.3463  -14.4241   17.6375 N   0  0  0  0  0  0  0  0  0  0  0  0
    7.9939  -13.2621   18.3929 C   0  0  0  0  0  0  0  0  0  0  0  0
    8.2594  -12.1130   17.9098 N   0  0  0  0  0  0  0  0  0  0  0  0
    7.3558  -13.3720   19.6653 N   0  0  0  0  0  0  0  0  0  0  0  0
    7.2027  -14.6903   20.3143 C   0  0  0  0  0  0  0  0  0  0  0  0
    8.5727  -15.2613   20.4293 C   0  0  0  0  0  0  0  0  0  0  0  0
    8.6966  -16.5482   21.1598 C   0  0  0  0  0  0  0  0  0  0  0  0
   10.1015  -16.9765   21.3966 C   0  0  2  0  0  0  0  0  0  0  0  0
   10.4482  -18.2276   20.7406 N   0  0  0  0  0  0  0  0  0  0  0  0
   10.3795  -17.2065   22.8465 C   0  0  0  0  0  0  0  0  0  0  0  0
   10.0530  -18.3197   23.3201 O   0  0  0  0  0  0  0  0  0  0  0  0
    8.0926  -11.1947   18.3516 O   0  0  0  0  0  0  0  0  0  0  0  0
   11.7321  -16.3606   31.4717 C   0  0  0  0  0  0  0  0  0  0  0  0
   11.8043  -16.2224   30.0943 C   0  0  0  0  0  0  0  0  0  0  0  0
   12.3957  -17.1992   29.3221 C   0  0  0  0  0  0  0  0  0  0  0  0
   12.4519  -17.0277   27.9326 C   0  0  0  0  0  0  0  0  0  0  0  0
   11.9283  -15.9059   27.3362 C   0  0  0  0  0  0  0  0  0  0  0  0
   11.9818  -15.7196   25.8937 C   0  0  2  0  0  0  0  0  0  0  0  0
   10.9336  -16.4367   25.1131 N   0  0  0  0  0  0  0  0  0  0  0  0
   10.9790  -16.2611   23.7064 C   0  0  0  0  0  0  0  0  0  0  0  0
    9.5993  -16.0413   25.6758 O   0  0  0  0  0  0  0  0  0  0  0  0
    9.4579  -16.0614   26.9148 C   0  0  0  0  0  0  0  0  0  0  0  0
   11.3470  -14.9540   28.1368 C   0  0  0  0  0  0  0  0  0  0  0  0
   11.2765  -15.0968   29.5191 C   0  0  0  0  0  0  0  0  0  0  0  0
    5.8185  -11.7181   25.4837 C   0  0  1  0  0  0  0  0  0  0  0  0
    6.1837  -13.0619   25.9858 C   0  0  0  0  0  0  0  0  0  0  0  0
    7.0734  -12.9784   27.2323 C   0  0  0  0  0  0  0  0  0  0  0  0
    6.8200  -13.9870   25.0435 C   0  0  2  0  0  0  0  0  0  0  0  0
    7.1768  -15.3526   25.4651 N   0  0  0  0  0  0  0  0  0  0  0  0
    8.5217  -15.6553   24.8581 C   0  0  0  0  0  0  0  0  0  0  0  0
    6.3560  -16.4892   25.0797 O   0  0  0  0  0  0  0  0  0  0  0  0
    5.3819  -17.0600   25.9259 O   0  0  0  0  0  0  0  0  0  0  0  0
  2  3  2  0
  2  1  1  0
  4  2  1  0
  5  4  1  0
  6  5  1  0
  7  6  1  0
  8 10  1  0
  8  7  1  0
  8  9  1  6
 10 11  2  0
 13 14  2  0
 13 12  1  0
 15 14  1  0
 16 15  2  0
 17 16  1  0
 18 17  1  6
 18 20  1  0
 19 10  1  0
 19 18  1  0
 20 29  1  0
 20 21  2  0
 22 16  1  0
 22 23  2  0
 23 13  1  0
 25 24  1  1
 25 27  1  0
 26 25  1  0
 28 27  1  1
 28 30  1  0
 29 28  1  0
 30 32  2  0
 30 31  1  0
M  END
$$$$
