VFI.pdb
     RDKit          3D

 27 27  0  0  1  0  0  0  0  0999 V2000
   27.3473  -18.7942  -13.3051 C   0  0  0  0  0  0  0  0  0  0  0  0
   27.6465  -20.0209  -14.1237 C   0  0  1  0  0  0  0  0  0  0  0  0
   28.2295  -19.6056  -15.4522 C   0  0  0  0  0  0  0  0  0  0  0  0
   28.5884  -20.8993  -13.3203 C   0  0  2  0  0  0  0  0  0  0  0  0
   28.9291  -22.0769  -14.0613 N   0  0  0  0  0  0  0  0  0  0  0  0
   28.0706  -21.1840  -11.9720 C   0  0  0  0  0  0  0  0  0  0  0  0
   27.1150  -21.9714  -11.8450 O   0  0  0  0  0  0  0  0  0  0  0  0
   28.6607  -20.5655  -10.8466 N   0  0  0  0  0  0  0  0  0  0  0  0
   28.2431  -20.6795   -9.4899 C   0  0  1  0  0  0  0  0  0  0  0  0
   29.2115  -20.2067   -8.4530 C   0  0  0  0  0  0  0  0  0  0  0  0
   28.6040  -20.1670   -7.0912 C   0  0  0  0  0  0  0  0  0  0  0  0
   28.7692  -21.1498   -6.1586 C   0  0  0  0  0  0  0  0  0  0  0  0
   28.1581  -21.1195   -4.8952 C   0  0  0  0  0  0  0  0  0  0  0  0
   27.3604  -20.0036   -4.6535 C   0  0  0  0  0  0  0  0  0  0  0  0
   27.1919  -19.0112   -5.5871 C   0  0  0  0  0  0  0  0  0  0  0  0
   27.8001  -19.0693   -6.8112 C   0  0  0  0  0  0  0  0  0  0  0  0
   26.8526  -20.2305   -9.3086 C   0  0  0  0  0  0  0  0  0  0  0  0
   26.5272  -19.0152   -9.4746 O   0  0  0  0  0  0  0  0  0  0  0  0
   23.3934  -20.5052  -12.5673 C   0  0  0  0  0  0  0  0  0  0  0  0
   24.1749  -20.1046  -11.3231 C   0  0  0  0  0  0  0  0  0  0  0  0
   23.6156  -20.8642  -10.1289 C   0  0  2  0  0  0  0  0  0  0  0  0
   22.1782  -20.4198   -9.9110 C   0  0  0  0  0  0  0  0  0  0  0  0
   24.4004  -20.6385   -8.8887 C   0  0  2  0  0  0  0  0  0  0  0  0
   25.7722  -21.1005   -8.9384 N   0  0  0  0  0  0  0  0  0  0  0  0
   23.7034  -21.2406   -7.6963 C   0  0  0  0  0  0  0  0  0  0  0  0
   22.5304  -20.8622   -7.4742 O   0  0  0  0  0  0  0  0  0  0  0  0
   24.2847  -22.1542   -6.8727 O   0  0  0  0  0  0  0  0  0  0  0  0
  2  3  1  6
  2  1  1  0
  4  2  1  0
  4  5  1  6
  6  7  2  0
  6  4  1  0
  8  6  1  0
  9  8  1  0
  9 10  1  1
 10 11  1  0
 11 12  2  0
 11 16  1  0
 12 13  1  0
 13 14  2  0
 15 14  1  0
 16 15  2  0
 17 18  2  0
 17  9  1  0
 20 19  1  0
 20 21  1  0
 21 23  1  0
 21 22  1  1
 23 24  1  6
 24 17  1  0
 25 23  1  0
 26 25  2  0
 27 25  1  0
M  END
$$$$
