VFI.pdb
     RDKit          3D

 27 27  0  0  1  0  0  0  0  0999 V2000
   26.0287  -19.6560  -14.6515 C   0  0  0  0  0  0  0  0  0  0  0  0
   25.6691  -19.9683  -13.2240 C   0  0  1  0  0  0  0  0  0  0  0  0
   24.2179  -20.3754  -13.1515 C   0  0  0  0  0  0  0  0  0  0  0  0
   26.6074  -21.0563  -12.7341 C   0  0  2  0  0  0  0  0  0  0  0  0
   26.4184  -22.2582  -13.4903 N   0  0  0  0  0  0  0  0  0  0  0  0
   26.5149  -21.2583  -11.2789 C   0  0  0  0  0  0  0  0  0  0  0  0
   25.8559  -22.2198  -10.8425 O   0  0  0  0  0  0  0  0  0  0  0  0
   27.1710  -20.3655  -10.4016 N   0  0  0  0  0  0  0  0  0  0  0  0
   27.1381  -20.3851   -8.9780 C   0  0  1  0  0  0  0  0  0  0  0  0
   28.2378  -19.6537   -8.2762 C   0  0  0  0  0  0  0  0  0  0  0  0
   28.1192  -19.7475   -6.7923 C   0  0  0  0  0  0  0  0  0  0  0  0
   28.5249  -20.8299   -6.0664 C   0  0  0  0  0  0  0  0  0  0  0  0
   28.3699  -20.9221   -4.6743 C   0  0  0  0  0  0  0  0  0  0  0  0
   27.7658  -19.8196   -4.0747 C   0  0  0  0  0  0  0  0  0  0  0  0
   27.3573  -18.7275   -4.7995 C   0  0  0  0  0  0  0  0  0  0  0  0
   27.5209  -18.6671   -6.1564 C   0  0  0  0  0  0  0  0  0  0  0  0
   25.7821  -20.1362   -8.4611 C   0  0  0  0  0  0  0  0  0  0  0  0
   25.2285  -19.0013   -8.5875 O   0  0  0  0  0  0  0  0  0  0  0  0
   21.8215  -20.4305  -10.7455 C   0  0  0  0  0  0  0  0  0  0  0  0
   22.7648  -20.0492   -9.6123 C   0  0  0  0  0  0  0  0  0  0  0  0
   22.6158  -21.0656   -8.4895 C   0  0  2  0  0  0  0  0  0  0  0  0
   21.2126  -20.9431   -7.9178 C   0  0  0  0  0  0  0  0  0  0  0  0
   23.6136  -20.8724   -7.4068 C   0  0  2  0  0  0  0  0  0  0  0  0
   24.9881  -21.1245   -7.7874 N   0  0  0  0  0  0  0  0  0  0  0  0
   23.2602  -21.6998   -6.1982 C   0  0  0  0  0  0  0  0  0  0  0  0
   22.3424  -21.2676   -5.4637 O   0  0  0  0  0  0  0  0  0  0  0  0
   23.8842  -22.8665   -5.8820 O   0  0  0  0  0  0  0  0  0  0  0  0
  2  3  1  6
  2  1  1  0
  4  2  1  0
  4  5  1  6
  6  7  2  0
  6  4  1  0
  8  6  1  0
  9  8  1  0
  9 10  1  1
 10 11  1  0
 11 12  2  0
 11 16  1  0
 12 13  1  0
 13 14  2  0
 15 14  1  0
 16 15  2  0
 17 18  2  0
 17  9  1  0
 20 19  1  0
 20 21  1  0
 21 23  1  0
 21 22  1  1
 23 24  1  6
 24 17  1  0
 25 23  1  0
 26 25  2  0
 27 25  1  0
M  END
$$$$
