VFI.pdb
     RDKit          3D

 27 27  0  0  1  0  0  0  0  0999 V2000
   21.8494  -20.2604  -12.9800 C   0  0  0  0  0  0  0  0  0  0  0  0
   22.4301  -21.2411  -13.9627 C   0  0  1  0  0  0  0  0  0  0  0  0
   21.8951  -20.9430  -15.3419 C   0  0  0  0  0  0  0  0  0  0  0  0
   23.9426  -21.1372  -13.8866 C   0  0  2  0  0  0  0  0  0  0  0  0
   24.5518  -21.9575  -14.8906 N   0  0  0  0  0  0  0  0  0  0  0  0
   24.4513  -21.3960  -12.5297 C   0  0  0  0  0  0  0  0  0  0  0  0
   24.2994  -22.5269  -12.0325 O   0  0  0  0  0  0  0  0  0  0  0  0
   25.1016  -20.3656  -11.8138 N   0  0  0  0  0  0  0  0  0  0  0  0
   25.6286  -20.4418  -10.4930 C   0  0  1  0  0  0  0  0  0  0  0  0
   26.8443  -19.6171  -10.2123 C   0  0  0  0  0  0  0  0  0  0  0  0
   27.3374  -19.7976   -8.8162 C   0  0  0  0  0  0  0  0  0  0  0  0
   28.1024  -20.8538   -8.4132 C   0  0  0  0  0  0  0  0  0  0  0  0
   28.5254  -21.0330   -7.0868 C   0  0  0  0  0  0  0  0  0  0  0  0
   28.1065  -20.0470   -6.1967 C   0  0  0  0  0  0  0  0  0  0  0  0
   27.3385  -18.9816   -6.5967 C   0  0  0  0  0  0  0  0  0  0  0  0
   26.9404  -18.8346   -7.8972 C   0  0  0  0  0  0  0  0  0  0  0  0
   24.5652  -20.3676   -9.4772 C   0  0  0  0  0  0  0  0  0  0  0  0
   23.6752  -19.4642   -9.5222 O   0  0  0  0  0  0  0  0  0  0  0  0
   19.8380  -22.5578   -7.1135 C   0  0  0  0  0  0  0  0  0  0  0  0
   21.0521  -21.7431   -6.6877 C   0  0  0  0  0  0  0  0  0  0  0  0
   22.1855  -22.0059   -7.6687 C   0  0  2  0  0  0  0  0  0  0  0  0
   22.5635  -23.4756   -7.5787 C   0  0  0  0  0  0  0  0  0  0  0  0
   23.3807  -21.1666   -7.4002 C   0  0  2  0  0  0  0  0  0  0  0  0
   24.4434  -21.2822   -8.3774 N   0  0  0  0  0  0  0  0  0  0  0  0
   23.9256  -21.4353   -6.0214 C   0  0  0  0  0  0  0  0  0  0  0  0
   25.0774  -21.9222   -5.9517 O   0  0  0  0  0  0  0  0  0  0  0  0
   23.2322  -21.1775   -4.8797 O   0  0  0  0  0  0  0  0  0  0  0  0
  2  3  1  6
  2  1  1  0
  4  2  1  0
  4  5  1  6
  6  7  2  0
  6  4  1  0
  8  6  1  0
  9  8  1  0
  9 10  1  1
 10 11  1  0
 11 12  2  0
 11 16  1  0
 12 13  1  0
 13 14  2  0
 15 14  1  0
 16 15  2  0
 17 18  2  0
 17  9  1  0
 20 19  1  0
 20 21  1  0
 21 23  1  0
 21 22  1  1
 23 24  1  6
 24 17  1  0
 25 23  1  0
 26 25  2  0
 27 25  1  0
M  END
$$$$
