VFI.pdb
     RDKit          3D

 27 27  0  0  1  0  0  0  0  0999 V2000
   19.6223   -9.6150  -20.0891 C   0  0  0  0  0  0  0  0  0  0  0  0
   19.2403   -8.7417  -18.9247 C   0  0  1  0  0  0  0  0  0  0  0  0
   17.7886   -8.9714  -18.5825 C   0  0  0  0  0  0  0  0  0  0  0  0
   20.1721   -9.0681  -17.7717 C   0  0  2  0  0  0  0  0  0  0  0  0
   20.1315  -10.4692  -17.4764 N   0  0  0  0  0  0  0  0  0  0  0  0
   19.9267   -8.2140  -16.5980 C   0  0  0  0  0  0  0  0  0  0  0  0
   19.0473   -8.5458  -15.7820 O   0  0  0  0  0  0  0  0  0  0  0  0
   20.6872   -7.0373  -16.4130 N   0  0  0  0  0  0  0  0  0  0  0  0
   20.5908   -6.1172  -15.3303 C   0  0  1  0  0  0  0  0  0  0  0  0
   21.7491   -6.0771  -14.3851 C   0  0  0  0  0  0  0  0  0  0  0  0
   21.9367   -7.3720  -13.6688 C   0  0  0  0  0  0  0  0  0  0  0  0
   21.2935   -7.6971  -12.5097 C   0  0  0  0  0  0  0  0  0  0  0  0
   21.5102   -8.9025  -11.8238 C   0  0  0  0  0  0  0  0  0  0  0  0
   22.4388   -9.7569  -12.4136 C   0  0  0  0  0  0  0  0  0  0  0  0
   23.0875   -9.4360  -13.5802 C   0  0  0  0  0  0  0  0  0  0  0  0
   22.8560   -8.2521  -14.2255 C   0  0  0  0  0  0  0  0  0  0  0  0
   20.0899   -4.8054  -15.7735 C   0  0  0  0  0  0  0  0  0  0  0  0
   20.7923   -4.0487  -16.5113 O   0  0  0  0  0  0  0  0  0  0  0  0
   16.1434   -3.7372  -18.8810 C   0  0  0  0  0  0  0  0  0  0  0  0
   17.4449   -3.6639  -18.0935 C   0  0  0  0  0  0  0  0  0  0  0  0
   17.1711   -2.9851  -16.7592 C   0  0  2  0  0  0  0  0  0  0  0  0
   16.7262   -1.5573  -17.0324 C   0  0  0  0  0  0  0  0  0  0  0  0
   18.3589   -2.9751  -15.8680 C   0  0  2  0  0  0  0  0  0  0  0  0
   18.8013   -4.2797  -15.4211 N   0  0  0  0  0  0  0  0  0  0  0  0
   18.1284   -2.0805  -14.6778 C   0  0  0  0  0  0  0  0  0  0  0  0
   17.5602   -2.5917  -13.6856 O   0  0  0  0  0  0  0  0  0  0  0  0
   18.5026   -0.7730  -14.6412 O   0  0  0  0  0  0  0  0  0  0  0  0
  2  3  1  1
  2  1  1  0
  4  2  1  0
  4  5  1  1
  6  7  2  0
  6  4  1  0
  8  6  1  0
  9  8  1  0
  9 10  1  6
 10 11  1  0
 11 12  2  0
 11 16  1  0
 12 13  1  0
 13 14  2  0
 15 14  1  0
 16 15  2  0
 17 18  2  0
 17  9  1  0
 20 19  1  0
 20 21  1  0
 21 23  1  0
 21 22  1  6
 23 24  1  1
 24 17  1  0
 25 23  1  0
 26 25  2  0
 27 25  1  0
M  END
$$$$
