VFI.pdb
     RDKit          3D

 27 27  0  0  1  0  0  0  0  0999 V2000
   23.3468  -17.0992  -18.8387 C   0  0  0  0  0  0  0  0  0  0  0  0
   22.9689  -18.2131  -17.9001 C   0  0  1  0  0  0  0  0  0  0  0  0
   22.1816  -19.2567  -18.6539 C   0  0  0  0  0  0  0  0  0  0  0  0
   24.2465  -18.7671  -17.2958 C   0  0  2  0  0  0  0  0  0  0  0  0
   25.1325  -19.2198  -18.3264 N   0  0  0  0  0  0  0  0  0  0  0  0
   23.9801  -19.7824  -16.2636 C   0  0  0  0  0  0  0  0  0  0  0  0
   23.9771  -20.9849  -16.5848 O   0  0  0  0  0  0  0  0  0  0  0  0
   23.7337  -19.3826  -14.9307 N   0  0  0  0  0  0  0  0  0  0  0  0
   23.5349  -20.2320  -13.8051 C   0  0  1  0  0  0  0  0  0  0  0  0
   24.4084  -19.9796  -12.6177 C   0  0  0  0  0  0  0  0  0  0  0  0
   25.8585  -20.0455  -12.9610 C   0  0  0  0  0  0  0  0  0  0  0  0
   26.5635  -18.9970  -13.4773 C   0  0  0  0  0  0  0  0  0  0  0  0
   27.9182  -19.0848  -13.8344 C   0  0  0  0  0  0  0  0  0  0  0  0
   28.5032  -20.3312  -13.6236 C   0  0  0  0  0  0  0  0  0  0  0  0
   27.7995  -21.3888  -13.1030 C   0  0  0  0  0  0  0  0  0  0  0  0
   26.4789  -21.2729  -12.7654 C   0  0  0  0  0  0  0  0  0  0  0  0
   22.1045  -20.4193  -13.5101 C   0  0  0  0  0  0  0  0  0  0  0  0
   21.3496  -19.4300  -13.2613 O   0  0  0  0  0  0  0  0  0  0  0  0
   18.6826  -20.4003  -15.5860 C   0  0  0  0  0  0  0  0  0  0  0  0
   19.4249  -21.7244  -15.7082 C   0  0  0  0  0  0  0  0  0  0  0  0
   19.2933  -22.4815  -14.3946 C   0  0  2  0  0  0  0  0  0  0  0  0
   17.8168  -22.5801  -14.0464 C   0  0  0  0  0  0  0  0  0  0  0  0
   20.0253  -21.8265  -13.2810 C   0  0  2  0  0  0  0  0  0  0  0  0
   21.4545  -21.6990  -13.4777 N   0  0  0  0  0  0  0  0  0  0  0  0
   19.7517  -22.5261  -11.9749 C   0  0  0  0  0  0  0  0  0  0  0  0
   18.8088  -22.0822  -11.2804 O   0  0  0  0  0  0  0  0  0  0  0  0
   20.4715  -23.5924  -11.5324 O   0  0  0  0  0  0  0  0  0  0  0  0
  2  3  1  6
  2  1  1  0
  4  2  1  0
  4  5  1  6
  6  7  2  0
  6  4  1  0
  8  6  1  0
  9  8  1  0
  9 10  1  1
 10 11  1  0
 11 12  2  0
 11 16  1  0
 12 13  1  0
 13 14  2  0
 15 14  1  0
 16 15  2  0
 17 18  2  0
 17  9  1  0
 20 19  1  0
 20 21  1  0
 21 23  1  0
 21 22  1  1
 23 24  1  6
 24 17  1  0
 25 23  1  0
 26 25  2  0
 27 25  1  0
M  END
$$$$
