VFI.pdb
     RDKit          3D

 27 27  0  0  1  0  0  0  0  0999 V2000
   25.5610  -22.4536  -10.9931 C   0  0  0  0  0  0  0  0  0  0  0  0
   25.3980  -21.3511  -12.0043 C   0  0  1  0  0  0  0  0  0  0  0  0
   24.2074  -21.6497  -12.8821 C   0  0  0  0  0  0  0  0  0  0  0  0
   25.2543  -20.0426  -11.2483 C   0  0  2  0  0  0  0  0  0  0  0  0
   25.1268  -18.9475  -12.1629 N   0  0  0  0  0  0  0  0  0  0  0  0
   26.3221  -19.8541  -10.2527 C   0  0  0  0  0  0  0  0  0  0  0  0
   27.4900  -19.6767  -10.6449 O   0  0  0  0  0  0  0  0  0  0  0  0
   26.0107  -19.8758   -8.8745 N   0  0  0  0  0  0  0  0  0  0  0  0
   26.9179  -19.7108   -7.7891 C   0  0  1  0  0  0  0  0  0  0  0  0
   26.3450  -19.1681   -6.5188 C   0  0  0  0  0  0  0  0  0  0  0  0
   27.3835  -18.9914   -5.4627 C   0  0  0  0  0  0  0  0  0  0  0  0
   28.2075  -17.9061   -5.3840 C   0  0  0  0  0  0  0  0  0  0  0  0
   29.2085  -17.7717   -4.4091 C   0  0  0  0  0  0  0  0  0  0  0  0
   29.3061  -18.8350   -3.5147 C   0  0  0  0  0  0  0  0  0  0  0  0
   28.4790  -19.9282   -3.5880 C   0  0  0  0  0  0  0  0  0  0  0  0
   27.5127  -20.0314   -4.5509 C   0  0  0  0  0  0  0  0  0  0  0  0
   27.8025  -20.8780   -7.6366 C   0  0  0  0  0  0  0  0  0  0  0  0
   27.3388  -22.0592   -7.6409 O   0  0  0  0  0  0  0  0  0  0  0  0
   33.3563  -23.0032   -9.0604 C   0  0  0  0  0  0  0  0  0  0  0  0
   32.1136  -23.1787   -8.1977 C   0  0  0  0  0  0  0  0  0  0  0  0
   31.3131  -21.8847   -8.2248 C   0  0  2  0  0  0  0  0  0  0  0  0
   32.1933  -20.7675   -7.6879 C   0  0  0  0  0  0  0  0  0  0  0  0
   30.0664  -21.9663   -7.4223 C   0  0  2  0  0  0  0  0  0  0  0  0
   29.2260  -20.7879   -7.4733 N   0  0  0  0  0  0  0  0  0  0  0  0
   30.3738  -22.3104   -5.9880 C   0  0  0  0  0  0  0  0  0  0  0  0
   30.3575  -21.3686   -5.1627 O   0  0  0  0  0  0  0  0  0  0  0  0
   30.6622  -23.5714   -5.5666 O   0  0  0  0  0  0  0  0  0  0  0  0
  2  3  1  1
  2  1  1  0
  4  2  1  0
  4  5  1  6
  6  7  2  0
  6  4  1  0
  8  6  1  0
  9  8  1  0
  9 10  1  1
 10 11  1  0
 11 12  2  0
 11 16  1  0
 12 13  1  0
 13 14  2  0
 15 14  1  0
 16 15  2  0
 17 18  2  0
 17  9  1  0
 20 19  1  0
 20 21  1  0
 21 23  1  0
 21 22  1  1
 23 24  1  1
 24 17  1  0
 25 23  1  0
 26 25  2  0
 27 25  1  0
M  END
$$$$
