VFI.pdb
     RDKit          3D

 27 27  0  0  1  0  0  0  0  0999 V2000
   27.5190  -11.8089  -19.2452 C   0  0  0  0  0  0  0  0  0  0  0  0
   27.0314  -10.6854  -18.3708 C   0  0  1  0  0  0  0  0  0  0  0  0
   27.0877  -11.1159  -16.9256 C   0  0  0  0  0  0  0  0  0  0  0  0
   27.8928   -9.4676  -18.6528 C   0  0  2  0  0  0  0  0  0  0  0  0
   29.2611   -9.7354  -18.3243 N   0  0  0  0  0  0  0  0  0  0  0  0
   27.3636   -8.2511  -18.0147 C   0  0  0  0  0  0  0  0  0  0  0  0
   27.8030   -7.9128  -16.9004 O   0  0  0  0  0  0  0  0  0  0  0  0
   26.3716   -7.4875  -18.6703 N   0  0  0  0  0  0  0  0  0  0  0  0
   25.7039   -6.3360  -18.1640 C   0  0  1  0  0  0  0  0  0  0  0  0
   25.6572   -5.1432  -19.0650 C   0  0  0  0  0  0  0  0  0  0  0  0
   24.9428   -3.9926  -18.4397 C   0  0  0  0  0  0  0  0  0  0  0  0
   23.6694   -3.6240  -18.7647 C   0  0  0  0  0  0  0  0  0  0  0  0
   23.0236   -2.5139  -18.1981 C   0  0  0  0  0  0  0  0  0  0  0  0
   23.7798   -1.8036  -17.2688 C   0  0  0  0  0  0  0  0  0  0  0  0
   25.0603   -2.1708  -16.9366 C   0  0  0  0  0  0  0  0  0  0  0  0
   25.6640   -3.2578  -17.5072 C   0  0  0  0  0  0  0  0  0  0  0  0
   24.4311   -6.6871  -17.5124 C   0  0  0  0  0  0  0  0  0  0  0  0
   23.5295   -7.3285  -18.1337 O   0  0  0  0  0  0  0  0  0  0  0  0
   23.5180  -10.2726  -14.2672 C   0  0  0  0  0  0  0  0  0  0  0  0
   23.3735   -9.1748  -15.3128 C   0  0  0  0  0  0  0  0  0  0  0  0
   22.9372   -7.8929  -14.6184 C   0  0  2  0  0  0  0  0  0  0  0  0
   21.5800   -8.1350  -13.9778 C   0  0  0  0  0  0  0  0  0  0  0  0
   22.8503   -6.7391  -15.5492 C   0  0  2  0  0  0  0  0  0  0  0  0
   24.1046   -6.3454  -16.1567 N   0  0  0  0  0  0  0  0  0  0  0  0
   22.2174   -5.5510  -14.8724 C   0  0  0  0  0  0  0  0  0  0  0  0
   22.9604   -4.8469  -14.1509 O   0  0  0  0  0  0  0  0  0  0  0  0
   20.9042   -5.2234  -15.0104 O   0  0  0  0  0  0  0  0  0  0  0  0
  2  3  1  1
  2  1  1  0
  4  2  1  0
  4  5  1  1
  6  7  2  0
  6  4  1  0
  8  6  1  0
  9  8  1  0
  9 10  1  6
 10 11  1  0
 11 12  2  0
 11 16  1  0
 12 13  1  0
 13 14  2  0
 15 14  1  0
 16 15  2  0
 17 18  2  0
 17  9  1  0
 20 19  1  0
 20 21  1  0
 21 23  1  0
 21 22  1  6
 23 24  1  1
 24 17  1  0
 25 23  1  0
 26 25  2  0
 27 25  1  0
M  END
$$$$
