VFI.pdb
     RDKit          3D

 27 27  0  0  1  0  0  0  0  0999 V2000
   29.3306  -19.3487  -12.9538 C   0  0  0  0  0  0  0  0  0  0  0  0
   28.4043  -19.2005  -14.1305 C   0  0  1  0  0  0  0  0  0  0  0  0
   29.1555  -19.5151  -15.4009 C   0  0  0  0  0  0  0  0  0  0  0  0
   27.2180  -20.1213  -13.9088 C   0  0  2  0  0  0  0  0  0  0  0  0
   26.3784  -20.1442  -15.0692 N   0  0  0  0  0  0  0  0  0  0  0  0
   26.4933  -19.8071  -12.6666 C   0  0  0  0  0  0  0  0  0  0  0  0
   25.9767  -18.6822  -12.5359 O   0  0  0  0  0  0  0  0  0  0  0  0
   26.3928  -20.7791  -11.6457 N   0  0  0  0  0  0  0  0  0  0  0  0
   25.7178  -20.6445  -10.3990 C   0  0  1  0  0  0  0  0  0  0  0  0
   24.3619  -21.2683  -10.3049 C   0  0  0  0  0  0  0  0  0  0  0  0
   23.4100  -20.7000  -11.3029 C   0  0  0  0  0  0  0  0  0  0  0  0
   23.3034  -21.1464  -12.5883 C   0  0  0  0  0  0  0  0  0  0  0  0
   22.4323  -20.5754  -13.5293 C   0  0  0  0  0  0  0  0  0  0  0  0
   21.6730  -19.5076  -13.0568 C   0  0  0  0  0  0  0  0  0  0  0  0
   21.7746  -19.0554  -11.7646 C   0  0  0  0  0  0  0  0  0  0  0  0
   22.6343  -19.6320  -10.8701 C   0  0  0  0  0  0  0  0  0  0  0  0
   26.6159  -20.9081   -9.2623 C   0  0  0  0  0  0  0  0  0  0  0  0
   27.3341  -21.9535   -9.2207 O   0  0  0  0  0  0  0  0  0  0  0  0
   29.3470  -17.5222   -5.6885 C   0  0  0  0  0  0  0  0  0  0  0  0
   28.9483  -18.6617   -6.6169 C   0  0  0  0  0  0  0  0  0  0  0  0
   27.8102  -19.4407   -5.9737 C   0  0  2  0  0  0  0  0  0  0  0  0
   28.3267  -20.0665   -4.6881 C   0  0  0  0  0  0  0  0  0  0  0  0
   27.2690  -20.5009   -6.8616 C   0  0  2  0  0  0  0  0  0  0  0  0
   26.7556  -20.0333   -8.1325 N   0  0  0  0  0  0  0  0  0  0  0  0
   26.2128  -21.3073   -6.1515 C   0  0  0  0  0  0  0  0  0  0  0  0
   25.0196  -20.9926   -6.3655 O   0  0  0  0  0  0  0  0  0  0  0  0
   26.4982  -22.3358   -5.3080 O   0  0  0  0  0  0  0  0  0  0  0  0
  2  3  1  6
  2  1  1  0
  4  2  1  0
  4  5  1  6
  6  7  2  0
  6  4  1  0
  8  6  1  0
  9  8  1  0
  9 10  1  6
 10 11  1  0
 11 12  2  0
 11 16  1  0
 12 13  1  0
 13 14  2  0
 15 14  1  0
 16 15  2  0
 17 18  2  0
 17  9  1  0
 20 19  1  0
 20 21  1  0
 21 23  1  0
 21 22  1  1
 23 24  1  6
 24 17  1  0
 25 23  1  0
 26 25  2  0
 27 25  1  0
M  END
$$$$
