GVV.pdb
     RDKit          3D

 19 18  0  0  1  0  0  0  0  0999 V2000
    8.3870  -17.8924   16.5999 N   0  0  0  0  0  0  0  0  0  0  0  0
    7.4867  -17.4405   17.6376 C   0  0  0  0  0  0  0  0  0  0  0  0
    8.2606  -16.6742   18.6948 C   0  0  0  0  0  0  0  0  0  0  0  0
    9.4315  -17.0196   18.8445 O   0  0  0  0  0  0  0  0  0  0  0  0
    7.4106  -12.7875   19.5405 C   0  0  0  0  0  0  0  0  0  0  0  0
    7.5353  -13.5688   20.8102 C   0  0  2  0  0  0  0  0  0  0  0  0
    8.3938  -12.8131   21.7700 C   0  0  0  0  0  0  0  0  0  0  0  0
    8.1226  -14.9220   20.5342 C   0  0  2  0  0  0  0  0  0  0  0  0
    7.6347  -15.6504   19.4233 N   0  0  0  0  0  0  0  0  0  0  0  0
    8.4078  -15.7347   21.7272 C   0  0  0  0  0  0  0  0  0  0  0  0
    7.5179  -16.2701   22.4573 O   0  0  0  0  0  0  0  0  0  0  0  0
   10.3546  -18.8385   21.8552 C   0  0  0  0  0  0  0  0  0  0  0  0
   10.9872  -17.9383   22.8704 C   0  0  1  0  0  0  0  0  0  0  0  0
   12.2512  -17.3454   22.2895 C   0  0  0  0  0  0  0  0  0  0  0  0
   10.0746  -16.8028   23.2824 C   0  0  2  0  0  0  0  0  0  0  0  0
    9.7420  -15.9713   22.1376 N   0  0  0  0  0  0  0  0  0  0  0  0
   10.7408  -16.0202   24.3459 C   0  0  0  0  0  0  0  0  0  0  0  0
   10.7184  -16.4580   25.6437 O   0  0  0  0  0  0  0  0  0  0  0  0
   11.3288  -14.9524   24.0626 O   0  0  0  0  0  0  0  0  0  0  0  0
  1  2  1  0
  3  2  1  0
  3  4  2  0
  6  5  1  6
  6  8  1  0
  7  6  1  0
  8  9  1  6
  9  3  1  0
 10  8  1  0
 11 10  2  0
 13 12  1  6
 13 14  1  0
 15 16  1  6
 15 13  1  0
 16 10  1  0
 17 15  1  0
 18 17  1  0
 19 17  2  0
M  END
$$$$
