GVV.pdb
     RDKit          3D

 19 18  0  0  1  0  0  0  0  0999 V2000
    6.9374  -18.3128   16.9781 N   0  0  0  0  0  0  0  0  0  0  0  0
    6.4119  -17.7924   18.2209 C   0  0  0  0  0  0  0  0  0  0  0  0
    7.4940  -17.0244   18.9577 C   0  0  0  0  0  0  0  0  0  0  0  0
    8.6441  -17.4117   18.7578 O   0  0  0  0  0  0  0  0  0  0  0  0
    7.1293  -13.0449   19.8180 C   0  0  0  0  0  0  0  0  0  0  0  0
    7.5368  -13.8121   21.0360 C   0  0  2  0  0  0  0  0  0  0  0  0
    8.6383  -13.0822   21.7311 C   0  0  0  0  0  0  0  0  0  0  0  0
    7.9810  -15.1946   20.6569 C   0  0  2  0  0  0  0  0  0  0  0  0
    7.1511  -15.9532   19.7977 N   0  0  0  0  0  0  0  0  0  0  0  0
    8.6178  -15.9646   21.7371 C   0  0  0  0  0  0  0  0  0  0  0  0
    7.9891  -16.4932   22.7051 O   0  0  0  0  0  0  0  0  0  0  0  0
   12.6113  -18.5429   23.1295 C   0  0  0  0  0  0  0  0  0  0  0  0
   11.8910  -17.6820   22.1390 C   0  0  1  0  0  0  0  0  0  0  0  0
   11.4258  -18.5380   20.9825 C   0  0  0  0  0  0  0  0  0  0  0  0
   10.6822  -16.9979   22.7412 C   0  0  2  0  0  0  0  0  0  0  0  0
   10.0193  -16.1642   21.7522 N   0  0  0  0  0  0  0  0  0  0  0  0
   11.1185  -16.2072   23.9125 C   0  0  0  0  0  0  0  0  0  0  0  0
   10.8870  -16.6666   25.1820 O   0  0  0  0  0  0  0  0  0  0  0  0
   11.7022  -15.1126   23.7468 O   0  0  0  0  0  0  0  0  0  0  0  0
  1  2  1  0
  3  2  1  0
  3  4  2  0
  6  5  1  6
  6  8  1  0
  7  6  1  0
  8  9  1  1
  9  3  1  0
 10  8  1  0
 11 10  2  0
 13 12  1  1
 13 14  1  0
 15 16  1  6
 15 13  1  0
 16 10  1  0
 17 15  1  0
 18 17  1  0
 19 17  2  0
M  END
$$$$
