GVV.pdb
     RDKit          3D

 19 18  0  0  1  0  0  0  0  0999 V2000
    8.0445  -17.9409   16.5076 N   0  0  0  0  0  0  0  0  0  0  0  0
    7.2287  -17.5187   17.6246 C   0  0  0  0  0  0  0  0  0  0  0  0
    8.0808  -16.7685   18.6319 C   0  0  0  0  0  0  0  0  0  0  0  0
    9.2210  -17.2034   18.7851 O   0  0  0  0  0  0  0  0  0  0  0  0
    7.3483  -12.7866   19.4750 C   0  0  0  0  0  0  0  0  0  0  0  0
    7.5284  -13.5914   20.7233 C   0  0  2  0  0  0  0  0  0  0  0  0
    8.4235  -12.8506   21.6610 C   0  0  0  0  0  0  0  0  0  0  0  0
    8.1082  -14.9366   20.3972 C   0  0  2  0  0  0  0  0  0  0  0  0
    7.5545  -15.6605   19.3146 N   0  0  0  0  0  0  0  0  0  0  0  0
    8.4789  -15.7564   21.5615 C   0  0  0  0  0  0  0  0  0  0  0  0
    7.6444  -16.3331   22.3249 O   0  0  0  0  0  0  0  0  0  0  0  0
   11.9123  -18.6713   23.5098 C   0  0  0  0  0  0  0  0  0  0  0  0
   11.4284  -17.7181   22.4617 C   0  0  1  0  0  0  0  0  0  0  0  0
   10.9860  -18.5001   21.2453 C   0  0  0  0  0  0  0  0  0  0  0  0
   10.2613  -16.8802   22.9391 C   0  0  2  0  0  0  0  0  0  0  0  0
    9.8388  -15.9524   21.9030 N   0  0  0  0  0  0  0  0  0  0  0  0
   10.6603  -16.1698   24.1734 C   0  0  0  0  0  0  0  0  0  0  0  0
   10.2906  -16.6542   25.4002 O   0  0  0  0  0  0  0  0  0  0  0  0
   11.3390  -15.1208   24.1007 O   0  0  0  0  0  0  0  0  0  0  0  0
  1  2  1  0
  3  2  1  0
  3  4  2  0
  6  5  1  6
  6  8  1  0
  7  6  1  0
  8  9  1  1
  9  3  1  0
 10  8  1  0
 11 10  2  0
 13 12  1  1
 13 14  1  0
 15 16  1  6
 15 13  1  0
 16 10  1  0
 17 15  1  0
 18 17  1  0
 19 17  2  0
M  END
$$$$
