GVV.pdb
     RDKit          3D

 19 18  0  0  1  0  0  0  0  0999 V2000
    4.3221  -18.4874   19.6279 N   0  0  0  0  0  0  0  0  0  0  0  0
    4.2530  -17.3210   20.4801 C   0  0  0  0  0  0  0  0  0  0  0  0
    5.6540  -16.8506   20.8260 C   0  0  0  0  0  0  0  0  0  0  0  0
    6.5160  -17.7277   20.8397 O   0  0  0  0  0  0  0  0  0  0  0  0
    7.1879  -13.2812   19.7598 C   0  0  0  0  0  0  0  0  0  0  0  0
    7.3523  -13.4647   21.2355 C   0  0  2  0  0  0  0  0  0  0  0  0
    8.7446  -13.0920   21.6250 C   0  0  0  0  0  0  0  0  0  0  0  0
    7.0629  -14.8863   21.6195 C   0  0  2  0  0  0  0  0  0  0  0  0
    5.8947  -15.4956   21.1030 N   0  0  0  0  0  0  0  0  0  0  0  0
    7.3724  -15.2319   23.0159 C   0  0  0  0  0  0  0  0  0  0  0  0
    6.7282  -14.7975   24.0198 O   0  0  0  0  0  0  0  0  0  0  0  0
    9.0863  -18.3826   26.2661 C   0  0  0  0  0  0  0  0  0  0  0  0
    8.6863  -17.9605   24.8866 C   0  0  1  0  0  0  0  0  0  0  0  0
    7.2515  -18.3688   24.6387 C   0  0  0  0  0  0  0  0  0  0  0  0
    8.7965  -16.4639   24.6868 C   0  0  2  0  0  0  0  0  0  0  0  0
    8.4464  -16.1017   23.3234 N   0  0  0  0  0  0  0  0  0  0  0  0
   10.1726  -16.0398   25.0244 C   0  0  0  0  0  0  0  0  0  0  0  0
   10.5032  -15.7302   26.3171 O   0  0  0  0  0  0  0  0  0  0  0  0
   11.0418  -15.9623   24.1273 O   0  0  0  0  0  0  0  0  0  0  0  0
  1  2  1  0
  3  2  1  0
  3  4  2  0
  6  5  1  6
  6  8  1  0
  7  6  1  0
  8  9  1  1
  9  3  1  0
 10  8  1  0
 11 10  2  0
 13 12  1  1
 13 14  1  0
 15 16  1  6
 15 13  1  0
 16 10  1  0
 17 15  1  0
 18 17  1  0
 19 17  2  0
M  END
$$$$
