GVV.pdb
     RDKit          3D

 19 18  0  0  1  0  0  0  0  0999 V2000
    7.3300  -13.9500   20.2668 N   0  0  0  0  0  0  0  0  0  0  0  0
    6.4582  -13.8871   21.4190 C   0  0  0  0  0  0  0  0  0  0  0  0
    7.2814  -13.9430   22.6930 C   0  0  0  0  0  0  0  0  0  0  0  0
    8.4689  -14.2245   22.5411 O   0  0  0  0  0  0  0  0  0  0  0  0
    6.5229  -11.4409   25.7009 C   0  0  0  0  0  0  0  0  0  0  0  0
    6.7246  -12.8062   26.2783 C   0  0  2  0  0  0  0  0  0  0  0  0
    7.6801  -12.7198   27.4223 C   0  0  0  0  0  0  0  0  0  0  0  0
    7.2458  -13.7442   25.2291 C   0  0  2  0  0  0  0  0  0  0  0  0
    6.6789  -13.6828   23.9340 N   0  0  0  0  0  0  0  0  0  0  0  0
    7.5547  -15.1025   25.7030 C   0  0  0  0  0  0  0  0  0  0  0  0
    6.6798  -15.9809   25.9765 O   0  0  0  0  0  0  0  0  0  0  0  0
    9.6182  -17.6176   23.9553 C   0  0  0  0  0  0  0  0  0  0  0  0
   10.2084  -17.4969   25.3257 C   0  0  1  0  0  0  0  0  0  0  0  0
   11.4565  -16.6458   25.2558 C   0  0  0  0  0  0  0  0  0  0  0  0
    9.2522  -16.8593   26.3112 C   0  0  2  0  0  0  0  0  0  0  0  0
    8.8965  -15.5162   25.8845 N   0  0  0  0  0  0  0  0  0  0  0  0
    9.8827  -16.8543   27.6491 C   0  0  0  0  0  0  0  0  0  0  0  0
   10.0215  -18.0215   28.3524 O   0  0  0  0  0  0  0  0  0  0  0  0
   10.2925  -15.7804   28.1442 O   0  0  0  0  0  0  0  0  0  0  0  0
  1  2  1  0
  3  2  1  0
  3  4  2  0
  6  5  1  6
  6  8  1  0
  7  6  1  0
  8  9  1  6
  9  3  1  0
 10  8  1  0
 11 10  2  0
 13 12  1  6
 13 14  1  0
 15 16  1  6
 15 13  1  0
 16 10  1  0
 17 15  1  0
 18 17  1  0
 19 17  2  0
M  END
$$$$
