GVV.pdb
     RDKit          3D

 19 18  0  0  1  0  0  0  0  0999 V2000
   -5.9463  -23.5845   21.5435 N   0  0  0  0  0  0  0  0  0  0  0  0
   -5.3160  -22.6431   20.6446 C   0  0  0  0  0  0  0  0  0  0  0  0
   -3.8183  -22.8863   20.6094 C   0  0  0  0  0  0  0  0  0  0  0  0
   -3.3663  -23.5279   21.5564 O   0  0  0  0  0  0  0  0  0  0  0  0
   -1.8098  -24.2580   17.6215 C   0  0  0  0  0  0  0  0  0  0  0  0
   -1.1736  -22.9535   17.9846 C   0  0  2  0  0  0  0  0  0  0  0  0
    0.3107  -23.1141   17.9862 C   0  0  0  0  0  0  0  0  0  0  0  0
   -1.6533  -22.4965   19.3312 C   0  0  2  0  0  0  0  0  0  0  0  0
   -3.0481  -22.3908   19.5455 N   0  0  0  0  0  0  0  0  0  0  0  0
   -0.8518  -21.4296   19.9512 C   0  0  0  0  0  0  0  0  0  0  0  0
   -0.6166  -20.3055   19.4101 O   0  0  0  0  0  0  0  0  0  0  0  0
   -1.2742  -19.8808   23.4312 C   0  0  0  0  0  0  0  0  0  0  0  0
    0.1263  -20.3961   23.3127 C   0  0  1  0  0  0  0  0  0  0  0  0
    0.2292  -21.7243   24.0283 C   0  0  0  0  0  0  0  0  0  0  0  0
    0.5465  -20.5978   21.8723 C   0  0  2  0  0  0  0  0  0  0  0  0
   -0.2801  -21.6087   21.2340 N   0  0  0  0  0  0  0  0  0  0  0  0
    1.9777  -20.9695   21.8428 C   0  0  0  0  0  0  0  0  0  0  0  0
    2.9449  -20.0029   21.9236 O   0  0  0  0  0  0  0  0  0  0  0  0
    2.3105  -22.1719   21.7435 O   0  0  0  0  0  0  0  0  0  0  0  0
  1  2  1  0
  3  2  1  0
  3  4  2  0
  6  5  1  1
  6  8  1  0
  7  6  1  0
  8  9  1  6
  9  3  1  0
 10  8  1  0
 11 10  2  0
 13 12  1  6
 13 14  1  0
 15 16  1  1
 15 13  1  0
 16 10  1  0
 17 15  1  0
 18 17  1  0
 19 17  2  0
M  END
$$$$
