IWL.pdb
     RDKit          3D

 31 32  0  0  1  0  0  0  0  0999 V2000
   29.6228  -16.1114  -19.3682 C   0  0  0  0  0  0  0  0  0  0  0  0
   29.3825  -17.5355  -18.8530 C   0  0  0  0  0  0  0  0  0  0  0  0
   28.6024  -17.4490  -17.5607 C   0  0  2  0  0  0  0  0  0  0  0  0
   29.2581  -16.5206  -16.5709 C   0  0  0  0  0  0  0  0  0  0  0  0
   28.2493  -18.7841  -16.9971 C   0  0  2  0  0  0  0  0  0  0  0  0
   27.8456  -19.6409  -18.1064 N   0  0  0  0  0  0  0  0  0  0  0  0
   27.2684  -18.7729  -15.9117 C   0  0  0  0  0  0  0  0  0  0  0  0
   27.5509  -18.1182  -14.8702 O   0  0  0  0  0  0  0  0  0  0  0  0
   26.0260  -19.4346  -15.9273 N   0  0  0  0  0  0  0  0  0  0  0  0
   25.0666  -19.3405  -14.8049 C   0  0  1  0  0  0  0  0  0  0  0  0
   23.7618  -19.9401  -15.2539 C   0  0  0  0  0  0  0  0  0  0  0  0
   22.7226  -20.0473  -14.2296 C   0  0  0  0  0  0  0  0  0  0  0  0
   22.3272  -19.1074  -13.2875 C   0  0  0  0  0  0  0  0  0  0  0  0
   21.3525  -19.6116  -12.5206 N   0  0  0  0  0  0  0  0  0  0  0  0
   21.0768  -20.8654  -12.9163 C   0  0  0  0  0  0  0  0  0  0  0  0
   20.1609  -21.7794  -12.4384 C   0  0  0  0  0  0  0  0  0  0  0  0
   20.1018  -23.0084  -13.0529 C   0  0  0  0  0  0  0  0  0  0  0  0
   20.9349  -23.3092  -14.1119 C   0  0  0  0  0  0  0  0  0  0  0  0
   21.8393  -22.3937  -14.5767 C   0  0  0  0  0  0  0  0  0  0  0  0
   21.9238  -21.1580  -13.9857 C   0  0  0  0  0  0  0  0  0  0  0  0
   25.6197  -20.1915  -13.7189 C   0  0  0  0  0  0  0  0  0  0  0  0
   26.2052  -21.2738  -14.0165 O   0  0  0  0  0  0  0  0  0  0  0  0
   27.8971  -19.7119   -8.1834 C   0  0  0  0  0  0  0  0  0  0  0  0
   27.5711  -20.6857   -9.3092 C   0  0  2  0  0  0  0  0  0  0  0  0
   28.6830  -21.6371   -9.5089 C   0  0  0  0  0  0  0  0  0  0  0  0
   26.9825  -20.0276  -10.4927 C   0  0  0  0  0  0  0  0  0  0  0  0
   25.9752  -20.7435  -11.3042 C   0  0  2  0  0  0  0  0  0  0  0  0
   25.5162  -19.8314  -12.3703 N   0  0  0  0  0  0  0  0  0  0  0  0
   24.7930  -21.2703  -10.6294 C   0  0  0  0  0  0  0  0  0  0  0  0
   23.8200  -20.5420  -10.2625 O   0  0  0  0  0  0  0  0  0  0  0  0
   24.7120  -22.6507  -10.3632 O   0  0  0  0  0  0  0  0  0  0  0  0
  2  1  1  0
  3  2  1  0
  3  4  1  1
  5  3  1  0
  5  6  1  6
  7  5  1  0
  8  7  2  0
  9  7  1  0
 10 21  1  0
 10  9  1  0
 10 11  1  6
 12 11  1  0
 13 12  2  0
 14 13  1  0
 15 14  1  0
 15 20  2  0
 16 15  1  0
 17 16  2  0
 17 18  1  0
 18 19  2  0
 19 20  1  0
 20 12  1  0
 21 28  1  0
 22 21  2  0
 24 23  1  1
 24 25  1  0
 24 26  1  0
 27 26  1  1
 27 29  1  0
 28 27  1  0
 29 30  2  0
 29 31  1  0
M  END
$$$$
