IWL.pdb
     RDKit          3D

 31 32  0  0  1  0  0  0  0  0999 V2000
   30.5844  -18.4319  -21.2268 C   0  0  0  0  0  0  0  0  0  0  0  0
   30.1037  -19.5517  -20.2961 C   0  0  0  0  0  0  0  0  0  0  0  0
   29.3913  -18.9212  -19.1209 C   0  0  2  0  0  0  0  0  0  0  0  0
   30.2348  -17.8646  -18.4549 C   0  0  0  0  0  0  0  0  0  0  0  0
   28.8167  -19.9222  -18.1762 C   0  0  2  0  0  0  0  0  0  0  0  0
   28.4855  -21.1174  -18.9441 N   0  0  0  0  0  0  0  0  0  0  0  0
   27.6970  -19.4519  -17.3604 C   0  0  0  0  0  0  0  0  0  0  0  0
   27.8934  -18.4564  -16.6096 O   0  0  0  0  0  0  0  0  0  0  0  0
   26.4082  -20.0177  -17.3392 N   0  0  0  0  0  0  0  0  0  0  0  0
   25.3146  -19.4613  -16.5124 C   0  0  1  0  0  0  0  0  0  0  0  0
   24.0373  -19.5559  -17.3017 C   0  0  0  0  0  0  0  0  0  0  0  0
   22.8214  -19.1433  -16.6003 C   0  0  0  0  0  0  0  0  0  0  0  0
   22.4426  -17.8738  -16.1858 C   0  0  0  0  0  0  0  0  0  0  0  0
   21.2614  -17.9316  -15.5585 N   0  0  0  0  0  0  0  0  0  0  0  0
   20.8296  -19.2034  -15.5364 C   0  0  0  0  0  0  0  0  0  0  0  0
   19.6809  -19.7552  -15.0085 C   0  0  0  0  0  0  0  0  0  0  0  0
   19.5041  -21.1130  -15.1383 C   0  0  0  0  0  0  0  0  0  0  0  0
   20.4496  -21.8904  -15.7769 C   0  0  0  0  0  0  0  0  0  0  0  0
   21.5851  -21.3309  -16.2964 C   0  0  0  0  0  0  0  0  0  0  0  0
   21.7921  -19.9789  -16.1838 C   0  0  0  0  0  0  0  0  0  0  0  0
   25.1976  -20.3551  -15.3303 C   0  0  0  0  0  0  0  0  0  0  0  0
   25.4302  -21.5924  -15.4630 O   0  0  0  0  0  0  0  0  0  0  0  0
   24.7398  -21.2617   -9.9149 C   0  0  0  0  0  0  0  0  0  0  0  0
   26.0184  -21.2439  -10.7436 C   0  0  2  0  0  0  0  0  0  0  0  0
   27.1884  -20.9718   -9.8843 C   0  0  0  0  0  0  0  0  0  0  0  0
   25.8797  -20.4935  -12.0076 C   0  0  0  0  0  0  0  0  0  0  0  0
   24.7402  -20.7759  -12.9064 C   0  0  2  0  0  0  0  0  0  0  0  0
   24.8394  -19.8696  -14.0673 N   0  0  0  0  0  0  0  0  0  0  0  0
   23.3895  -20.6605  -12.3655 C   0  0  0  0  0  0  0  0  0  0  0  0
   22.6274  -21.6590  -12.1805 O   0  0  0  0  0  0  0  0  0  0  0  0
   22.8908  -19.3875  -12.0285 O   0  0  0  0  0  0  0  0  0  0  0  0
  2  1  1  0
  3  2  1  0
  3  4  1  1
  5  3  1  0
  5  6  1  6
  7  5  1  0
  8  7  2  0
  9  7  1  0
 10 21  1  0
 10  9  1  0
 10 11  1  6
 12 11  1  0
 13 12  2  0
 14 13  1  0
 15 14  1  0
 15 20  2  0
 16 15  1  0
 17 16  2  0
 17 18  1  0
 18 19  2  0
 19 20  1  0
 20 12  1  0
 21 28  1  0
 22 21  2  0
 24 23  1  1
 24 25  1  0
 24 26  1  0
 27 26  1  1
 27 29  1  0
 28 27  1  0
 29 30  2  0
 29 31  1  0
M  END
$$$$
