IWL.pdb
     RDKit          3D

 31 32  0  0  1  0  0  0  0  0999 V2000
   26.4906  -18.3623  -16.7777 C   0  0  0  0  0  0  0  0  0  0  0  0
   27.4298  -19.2628  -15.9664 C   0  0  0  0  0  0  0  0  0  0  0  0
   26.7338  -19.6385  -14.6777 C   0  0  2  0  0  0  0  0  0  0  0  0
   26.2237  -18.4263  -13.9418 C   0  0  0  0  0  0  0  0  0  0  0  0
   27.5311  -20.5711  -13.8297 C   0  0  2  0  0  0  0  0  0  0  0  0
   27.8383  -21.7488  -14.6337 N   0  0  0  0  0  0  0  0  0  0  0  0
   26.9380  -20.9141  -12.5370 C   0  0  0  0  0  0  0  0  0  0  0  0
   26.0588  -21.8196  -12.5148 O   0  0  0  0  0  0  0  0  0  0  0  0
   27.2647  -20.3171  -11.3047 N   0  0  0  0  0  0  0  0  0  0  0  0
   26.6360  -20.7358  -10.0326 C   0  0  1  0  0  0  0  0  0  0  0  0
   27.4561  -20.1796   -8.9005 C   0  0  0  0  0  0  0  0  0  0  0  0
   26.9455  -20.4399   -7.5543 C   0  0  0  0  0  0  0  0  0  0  0  0
   25.8461  -21.1955   -7.1702 C   0  0  0  0  0  0  0  0  0  0  0  0
   25.7114  -21.1616   -5.8387 N   0  0  0  0  0  0  0  0  0  0  0  0
   26.6876  -20.4050   -5.3105 C   0  0  0  0  0  0  0  0  0  0  0  0
   26.9629  -20.0771   -3.9992 C   0  0  0  0  0  0  0  0  0  0  0  0
   28.0490  -19.2693   -3.7552 C   0  0  0  0  0  0  0  0  0  0  0  0
   28.8322  -18.8063   -4.7936 C   0  0  0  0  0  0  0  0  0  0  0  0
   28.5485  -19.1388   -6.0902 C   0  0  0  0  0  0  0  0  0  0  0  0
   27.4718  -19.9431   -6.3680 C   0  0  0  0  0  0  0  0  0  0  0  0
   25.2995  -20.0859  -10.0012 C   0  0  0  0  0  0  0  0  0  0  0  0
   25.2046  -18.8503  -10.2601 O   0  0  0  0  0  0  0  0  0  0  0  0
   21.1457  -21.6864  -13.1323 C   0  0  0  0  0  0  0  0  0  0  0  0
   21.8420  -20.4083  -12.6811 C   0  0  2  0  0  0  0  0  0  0  0  0
   22.0169  -19.4844  -13.8200 C   0  0  0  0  0  0  0  0  0  0  0  0
   22.9928  -20.6585  -11.7904 C   0  0  0  0  0  0  0  0  0  0  0  0
   22.8477  -20.4609  -10.3324 C   0  0  2  0  0  0  0  0  0  0  0  0
   24.1353  -20.8005   -9.6957 N   0  0  0  0  0  0  0  0  0  0  0  0
   21.7984  -21.1996   -9.6369 C   0  0  0  0  0  0  0  0  0  0  0  0
   21.8035  -22.4631   -9.5130 O   0  0  0  0  0  0  0  0  0  0  0  0
   20.7199  -20.4926   -9.0713 O   0  0  0  0  0  0  0  0  0  0  0  0
  2  1  1  0
  3  2  1  0
  3  4  1  1
  5  3  1  0
  5  6  1  6
  7  5  1  0
  8  7  2  0
  9  7  1  0
 10 21  1  0
 10  9  1  0
 10 11  1  1
 12 11  1  0
 13 12  2  0
 14 13  1  0
 15 14  1  0
 15 20  2  0
 16 15  1  0
 17 16  2  0
 17 18  1  0
 18 19  2  0
 19 20  1  0
 20 12  1  0
 21 28  1  0
 22 21  2  0
 24 23  1  6
 24 25  1  0
 24 26  1  0
 27 26  1  6
 27 29  1  0
 28 27  1  0
 29 30  2  0
 29 31  1  0
M  END
$$$$
