IWL.pdb
     RDKit          3D

 31 32  0  0  1  0  0  0  0  0999 V2000
   25.0616  -25.6759  -19.7869 C   0  0  0  0  0  0  0  0  0  0  0  0
   26.0702  -25.1624  -18.7526 C   0  0  0  0  0  0  0  0  0  0  0  0
   25.3089  -24.7234  -17.5222 C   0  0  2  0  0  0  0  0  0  0  0  0
   24.1527  -23.8215  -17.8703 C   0  0  0  0  0  0  0  0  0  0  0  0
   26.1913  -24.1890  -16.4449 C   0  0  2  0  0  0  0  0  0  0  0  0
   27.0839  -25.2649  -16.0285 N   0  0  0  0  0  0  0  0  0  0  0  0
   25.5027  -23.5633  -15.3158 C   0  0  0  0  0  0  0  0  0  0  0  0
   25.0256  -24.3199  -14.4251 O   0  0  0  0  0  0  0  0  0  0  0  0
   25.3238  -22.1789  -15.1342 N   0  0  0  0  0  0  0  0  0  0  0  0
   24.6494  -21.6190  -13.9423 C   0  0  1  0  0  0  0  0  0  0  0  0
   25.3930  -20.3800  -13.5233 C   0  0  0  0  0  0  0  0  0  0  0  0
   26.4860  -20.5824  -12.5720 C   0  0  0  0  0  0  0  0  0  0  0  0
   27.8319  -20.8086  -12.8261 C   0  0  0  0  0  0  0  0  0  0  0  0
   28.4947  -20.9627  -11.6732 N   0  0  0  0  0  0  0  0  0  0  0  0
   27.6365  -20.8473  -10.6462 C   0  0  0  0  0  0  0  0  0  0  0  0
   27.8450  -20.9290   -9.2851 C   0  0  0  0  0  0  0  0  0  0  0  0
   26.7571  -20.7668   -8.4594 C   0  0  0  0  0  0  0  0  0  0  0  0
   25.5019  -20.5303   -8.9833 C   0  0  0  0  0  0  0  0  0  0  0  0
   25.3082  -20.4515  -10.3355 C   0  0  0  0  0  0  0  0  0  0  0  0
   26.3727  -20.6088  -11.1872 C   0  0  0  0  0  0  0  0  0  0  0  0
   23.2905  -21.2161  -14.3902 C   0  0  0  0  0  0  0  0  0  0  0  0
   23.1518  -20.6392  -15.5086 O   0  0  0  0  0  0  0  0  0  0  0  0
   17.8664  -20.3868  -13.8143 C   0  0  0  0  0  0  0  0  0  0  0  0
   18.3887  -21.8161  -13.7362 C   0  0  2  0  0  0  0  0  0  0  0  0
   17.4244  -22.6817  -13.0273 C   0  0  0  0  0  0  0  0  0  0  0  0
   19.8151  -21.8925  -13.3622 C   0  0  0  0  0  0  0  0  0  0  0  0
   20.8094  -21.0799  -14.0948 C   0  0  2  0  0  0  0  0  0  0  0  0
   22.1522  -21.4580  -13.6124 N   0  0  0  0  0  0  0  0  0  0  0  0
   20.7024  -19.6261  -14.0202 C   0  0  0  0  0  0  0  0  0  0  0  0
   20.2636  -18.9118  -14.9737 O   0  0  0  0  0  0  0  0  0  0  0  0
   21.1023  -18.9674  -12.8416 O   0  0  0  0  0  0  0  0  0  0  0  0
  2  1  1  0
  3  2  1  0
  3  4  1  6
  5  3  1  0
  5  6  1  1
  7  5  1  0
  8  7  2  0
  9  7  1  0
 10 21  1  0
 10  9  1  0
 10 11  1  6
 12 11  1  0
 13 12  2  0
 14 13  1  0
 15 14  1  0
 15 20  2  0
 16 15  1  0
 17 16  2  0
 17 18  1  0
 18 19  2  0
 19 20  1  0
 20 12  1  0
 21 28  1  0
 22 21  2  0
 24 23  1  1
 24 25  1  0
 24 26  1  0
 27 26  1  1
 27 29  1  0
 28 27  1  0
 29 30  2  0
 29 31  1  0
M  END
$$$$
