IWL.pdb
     RDKit          3D

 31 32  0  0  1  0  0  0  0  0999 V2000
   27.5902  -21.0440  -18.4629 C   0  0  0  0  0  0  0  0  0  0  0  0
   28.3760  -22.0378  -17.5993 C   0  0  0  0  0  0  0  0  0  0  0  0
   27.5020  -22.4543  -16.4379 C   0  0  2  0  0  0  0  0  0  0  0  0
   26.2595  -23.1712  -16.9000 C   0  0  0  0  0  0  0  0  0  0  0  0
   27.2396  -21.3473  -15.4735 C   0  0  2  0  0  0  0  0  0  0  0  0
   28.5274  -20.7837  -15.0841 N   0  0  0  0  0  0  0  0  0  0  0  0
   26.4090  -21.6964  -14.3208 C   0  0  0  0  0  0  0  0  0  0  0  0
   25.9802  -22.8810  -14.2418 O   0  0  0  0  0  0  0  0  0  0  0  0
   26.0427  -20.8190  -13.2827 N   0  0  0  0  0  0  0  0  0  0  0  0
   25.2087  -21.2516  -12.1398 C   0  0  1  0  0  0  0  0  0  0  0  0
   25.6096  -20.4430  -10.9361 C   0  0  0  0  0  0  0  0  0  0  0  0
   26.8602  -20.8393  -10.2884 C   0  0  0  0  0  0  0  0  0  0  0  0
   27.8801  -21.6423  -10.7804 C   0  0  0  0  0  0  0  0  0  0  0  0
   28.8419  -21.7749   -9.8587 N   0  0  0  0  0  0  0  0  0  0  0  0
   28.5027  -21.0849   -8.7572 C   0  0  0  0  0  0  0  0  0  0  0  0
   29.1643  -20.9213   -7.5580 C   0  0  0  0  0  0  0  0  0  0  0  0
   28.5631  -20.1445   -6.5953 C   0  0  0  0  0  0  0  0  0  0  0  0
   27.3382  -19.5520   -6.8295 C   0  0  0  0  0  0  0  0  0  0  0  0
   26.6920  -19.7222   -8.0235 C   0  0  0  0  0  0  0  0  0  0  0  0
   27.2646  -20.4913   -9.0053 C   0  0  0  0  0  0  0  0  0  0  0  0
   23.8096  -20.8955  -12.4939 C   0  0  0  0  0  0  0  0  0  0  0  0
   23.5758  -19.7864  -13.0578 O   0  0  0  0  0  0  0  0  0  0  0  0
   18.6947  -24.1420  -13.5443 C   0  0  0  0  0  0  0  0  0  0  0  0
   19.3280  -22.7562  -13.5281 C   0  0  2  0  0  0  0  0  0  0  0  0
   19.1035  -22.0692  -14.8161 C   0  0  0  0  0  0  0  0  0  0  0  0
   20.6862  -22.7462  -12.9488 C   0  0  0  0  0  0  0  0  0  0  0  0
   21.3841  -21.4598  -12.7392 C   0  0  2  0  0  0  0  0  0  0  0  0
   22.7364  -21.7529  -12.2252 N   0  0  0  0  0  0  0  0  0  0  0  0
   20.7717  -20.4795  -11.8480 C   0  0  0  0  0  0  0  0  0  0  0  0
   20.9497  -20.4766  -10.5909 O   0  0  0  0  0  0  0  0  0  0  0  0
   19.9390  -19.4826  -12.3916 O   0  0  0  0  0  0  0  0  0  0  0  0
  2  1  1  0
  3  2  1  0
  3  4  1  6
  5  3  1  0
  5  6  1  1
  7  5  1  0
  8  7  2  0
  9  7  1  0
 10 21  1  0
 10  9  1  0
 10 11  1  1
 12 11  1  0
 13 12  2  0
 14 13  1  0
 15 14  1  0
 15 20  2  0
 16 15  1  0
 17 16  2  0
 17 18  1  0
 18 19  2  0
 19 20  1  0
 20 12  1  0
 21 28  1  0
 22 21  2  0
 24 23  1  6
 24 25  1  0
 24 26  1  0
 27 26  1  1
 27 29  1  0
 28 27  1  0
 29 30  2  0
 29 31  1  0
M  END
$$$$
