MVY.pdb
     RDKit          3D

 28 28  0  0  1  0  0  0  0  0999 V2000
   27.9959  -21.8801   -3.6808 C   0  0  0  0  0  0  0  0  0  0  0  0
   28.4367  -20.1330   -3.6338 S   0  0  0  0  0  0  0  0  0  0  0  0
   28.7470  -19.4527   -5.2633 C   0  0  0  0  0  0  0  0  0  0  0  0
   27.7174  -19.9057   -6.2795 C   0  0  0  0  0  0  0  0  0  0  0  0
   27.9827  -19.3373   -7.6435 C   0  0  2  0  0  0  0  0  0  0  0  0
   27.9696  -17.8973   -7.5136 N   0  0  0  0  0  0  0  0  0  0  0  0
   26.9516  -19.7973   -8.6283 C   0  0  0  0  0  0  0  0  0  0  0  0
   25.7902  -19.3282   -8.6218 O   0  0  0  0  0  0  0  0  0  0  0  0
   29.0661  -20.7902  -11.7808 C   0  0  0  0  0  0  0  0  0  0  0  0
   27.7308  -21.4552  -11.8126 C   0  0  2  0  0  0  0  0  0  0  0  0
   27.2303  -21.6637  -13.2284 C   0  0  0  0  0  0  0  0  0  0  0  0
   26.7352  -20.8500  -10.9140 C   0  0  2  0  0  0  0  0  0  0  0  0
   27.2935  -20.7746   -9.5786 N   0  0  0  0  0  0  0  0  0  0  0  0
   25.3431  -21.2453  -10.9849 C   0  0  0  0  0  0  0  0  0  0  0  0
   24.9458  -22.2442  -10.2881 O   0  0  0  0  0  0  0  0  0  0  0  0
   16.6145  -21.7199  -11.8297 O   0  0  0  0  0  0  0  0  0  0  0  0
   17.9310  -21.3189  -11.7387 C   0  0  0  0  0  0  0  0  0  0  0  0
   18.5756  -21.4377  -10.5266 C   0  0  0  0  0  0  0  0  0  0  0  0
   19.8917  -21.0468  -10.3993 C   0  0  0  0  0  0  0  0  0  0  0  0
   20.6341  -20.5213  -11.4580 C   0  0  0  0  0  0  0  0  0  0  0  0
   22.0332  -20.0857  -11.2901 C   0  0  0  0  0  0  0  0  0  0  0  0
   22.9700  -21.1092  -11.8201 C   0  0  2  0  0  0  0  0  0  0  0  0
   24.3642  -20.6311  -11.7551 N   0  0  0  0  0  0  0  0  0  0  0  0
   22.6850  -21.3978  -13.2306 C   0  0  0  0  0  0  0  0  0  0  0  0
   23.1801  -20.7146  -14.1488 O   0  0  0  0  0  0  0  0  0  0  0  0
   19.9468  -20.4166  -12.6681 C   0  0  0  0  0  0  0  0  0  0  0  0
   18.6334  -20.8043  -12.8042 C   0  0  0  0  0  0  0  0  0  0  0  0
   21.8529  -22.4431  -13.5871 O   0  0  0  0  0  0  0  0  0  0  0  0
  1  2  1  0
  3  2  1  0
  4  3  1  0
  5  4  1  0
  5  6  1  1
  7  5  1  0
  8  7  2  0
 10  9  1  6
 10 12  1  0
 11 10  1  0
 12 14  1  0
 12 13  1  1
 13  7  1  0
 14 23  1  0
 15 14  2  0
 17 16  1  0
 17 18  2  0
 19 18  1  0
 20 19  2  0
 21 20  1  0
 22 24  1  0
 22 21  1  6
 23 22  1  0
 24 25  2  0
 24 28  1  0
 26 27  2  0
 26 20  1  0
 27 17  1  0
M  END
$$$$
