MVY.pdb
     RDKit          3D

 28 28  0  0  1  0  0  0  0  0999 V2000
   21.3966  -19.0678  -14.0668 C   0  0  0  0  0  0  0  0  0  0  0  0
   19.9294  -18.8358  -13.0458 S   0  0  0  0  0  0  0  0  0  0  0  0
   18.7525  -17.6954  -13.7730 C   0  0  0  0  0  0  0  0  0  0  0  0
   19.3896  -16.8047  -14.8213 C   0  0  0  0  0  0  0  0  0  0  0  0
   18.3969  -15.8654  -15.4427 C   0  0  2  0  0  0  0  0  0  0  0  0
   17.3979  -16.6776  -16.1009 N   0  0  0  0  0  0  0  0  0  0  0  0
   19.0650  -14.9424  -16.4154 C   0  0  0  0  0  0  0  0  0  0  0  0
   19.3726  -15.3233  -17.5684 O   0  0  0  0  0  0  0  0  0  0  0  0
   17.8247  -11.8088  -17.6737 C   0  0  0  0  0  0  0  0  0  0  0  0
   19.1388  -11.4862  -17.0447 C   0  0  2  0  0  0  0  0  0  0  0  0
   19.8133  -10.3011  -17.7072 C   0  0  0  0  0  0  0  0  0  0  0  0
   20.0225  -12.6491  -16.8664 C   0  0  2  0  0  0  0  0  0  0  0  0
   19.3526  -13.6226  -16.0273 N   0  0  0  0  0  0  0  0  0  0  0  0
   21.4351  -12.4662  -16.6012 C   0  0  0  0  0  0  0  0  0  0  0  0
   21.7935  -11.9184  -15.5002 O   0  0  0  0  0  0  0  0  0  0  0  0
   30.2277  -12.2628  -16.9841 O   0  0  0  0  0  0  0  0  0  0  0  0
   28.8968  -12.6236  -17.0099 C   0  0  0  0  0  0  0  0  0  0  0  0
   28.2737  -12.7635  -18.2310 C   0  0  0  0  0  0  0  0  0  0  0  0
   26.9442  -13.1231  -18.2945 C   0  0  0  0  0  0  0  0  0  0  0  0
   26.1665  -13.3616  -17.1604 C   0  0  0  0  0  0  0  0  0  0  0  0
   24.7386  -13.7196  -17.2537 C   0  0  0  0  0  0  0  0  0  0  0  0
   23.8863  -12.5052  -17.1826 C   0  0  2  0  0  0  0  0  0  0  0  0
   22.4732  -12.8377  -17.4458 N   0  0  0  0  0  0  0  0  0  0  0  0
   24.2884  -11.5245  -18.1978 C   0  0  0  0  0  0  0  0  0  0  0  0
   23.9131  -11.6217  -19.3829 O   0  0  0  0  0  0  0  0  0  0  0  0
   26.8326  -13.2096  -15.9434 C   0  0  0  0  0  0  0  0  0  0  0  0
   28.1593  -12.8511  -15.8707 C   0  0  0  0  0  0  0  0  0  0  0  0
   25.1014  -10.4554  -17.8688 O   0  0  0  0  0  0  0  0  0  0  0  0
  1  2  1  0
  3  2  1  0
  4  3  1  0
  5  4  1  0
  5  6  1  6
  7  5  1  0
  8  7  2  0
 10  9  1  6
 10 12  1  0
 11 10  1  0
 12 14  1  0
 12 13  1  1
 13  7  1  0
 14 23  1  0
 15 14  2  0
 17 16  1  0
 17 18  2  0
 19 18  1  0
 20 19  2  0
 21 20  1  0
 22 24  1  0
 22 21  1  6
 23 22  1  0
 24 25  2  0
 24 28  1  0
 26 27  2  0
 26 20  1  0
 27 17  1  0
M  END
$$$$
