MVY.pdb
     RDKit          3D

 28 28  0  0  1  0  0  0  0  0999 V2000
   30.2866  -15.7948  -18.3373 C   0  0  0  0  0  0  0  0  0  0  0  0
   29.3240  -14.3342  -18.7723 S   0  0  0  0  0  0  0  0  0  0  0  0
   28.6466  -14.4194  -20.4301 C   0  0  0  0  0  0  0  0  0  0  0  0
   27.2452  -14.9974  -20.4480 C   0  0  0  0  0  0  0  0  0  0  0  0
   27.0335  -15.9979  -19.3489 C   0  0  2  0  0  0  0  0  0  0  0  0
   27.9231  -17.1080  -19.6077 N   0  0  0  0  0  0  0  0  0  0  0  0
   25.6067  -16.4524  -19.3022 C   0  0  0  0  0  0  0  0  0  0  0  0
   24.6683  -15.6368  -19.1498 O   0  0  0  0  0  0  0  0  0  0  0  0
   24.6179  -20.7315  -19.9235 C   0  0  0  0  0  0  0  0  0  0  0  0
   23.9401  -19.4943  -20.4097 C   0  0  2  0  0  0  0  0  0  0  0  0
   24.3764  -19.1177  -21.8119 C   0  0  0  0  0  0  0  0  0  0  0  0
   23.9751  -18.3743  -19.4561 C   0  0  2  0  0  0  0  0  0  0  0  0
   25.3145  -17.8210  -19.4318 N   0  0  0  0  0  0  0  0  0  0  0  0
   23.3243  -18.4851  -18.1664 C   0  0  0  0  0  0  0  0  0  0  0  0
   23.9970  -18.9226  -17.1678 O   0  0  0  0  0  0  0  0  0  0  0  0
   17.7803  -17.9840  -11.3070 O   0  0  0  0  0  0  0  0  0  0  0  0
   18.3527  -17.8791  -12.5574 C   0  0  0  0  0  0  0  0  0  0  0  0
   19.3142  -16.9141  -12.7652 C   0  0  0  0  0  0  0  0  0  0  0  0
   19.9077  -16.7809  -14.0024 C   0  0  0  0  0  0  0  0  0  0  0  0
   19.5830  -17.5904  -15.0921 C   0  0  0  0  0  0  0  0  0  0  0  0
   20.2134  -17.4109  -16.4135 C   0  0  0  0  0  0  0  0  0  0  0  0
   21.3930  -18.3017  -16.5588 C   0  0  2  0  0  0  0  0  0  0  0  0
   22.0035  -18.1534  -17.8937 N   0  0  0  0  0  0  0  0  0  0  0  0
   21.0038  -19.7103  -16.4235 C   0  0  0  0  0  0  0  0  0  0  0  0
   20.5109  -20.3450  -17.3770 O   0  0  0  0  0  0  0  0  0  0  0  0
   18.6056  -18.5548  -14.8424 C   0  0  0  0  0  0  0  0  0  0  0  0
   18.0081  -18.6949  -13.6106 C   0  0  0  0  0  0  0  0  0  0  0  0
   21.1728  -20.3814  -15.2263 O   0  0  0  0  0  0  0  0  0  0  0  0
  1  2  1  0
  3  2  1  0
  4  3  1  0
  5  4  1  0
  5  6  1  6
  7  5  1  0
  8  7  2  0
 10  9  1  1
 10 12  1  0
 11 10  1  0
 12 14  1  0
 12 13  1  1
 13  7  1  0
 14 23  1  0
 15 14  2  0
 17 16  1  0
 17 18  2  0
 19 18  1  0
 20 19  2  0
 21 20  1  0
 22 24  1  0
 22 21  1  6
 23 22  1  0
 24 25  2  0
 24 28  1  0
 26 27  2  0
 26 20  1  0
 27 17  1  0
M  END
$$$$
