MVY.pdb
     RDKit          3D

 28 28  0  0  1  0  0  0  0  0999 V2000
   29.2149  -18.0490   -5.6793 C   0  0  0  0  0  0  0  0  0  0  0  0
   29.0645  -19.7030   -6.3799 S   0  0  0  0  0  0  0  0  0  0  0  0
   27.3640  -20.2632   -6.4746 C   0  0  0  0  0  0  0  0  0  0  0  0
   26.6748  -19.7924   -7.7402 C   0  0  0  0  0  0  0  0  0  0  0  0
   26.5918  -20.8774   -8.7745 C   0  0  2  0  0  0  0  0  0  0  0  0
   27.9481  -21.2224   -9.1382 N   0  0  0  0  0  0  0  0  0  0  0  0
   25.8140  -20.4221   -9.9712 C   0  0  0  0  0  0  0  0  0  0  0  0
   24.7961  -19.7021   -9.8507 O   0  0  0  0  0  0  0  0  0  0  0  0
   26.0507  -20.0352  -14.9001 C   0  0  0  0  0  0  0  0  0  0  0  0
   26.5120  -20.6194  -13.6069 C   0  0  2  0  0  0  0  0  0  0  0  0
   26.9723  -22.0556  -13.7612 C   0  0  0  0  0  0  0  0  0  0  0  0
   25.5816  -20.4111  -12.4862 C   0  0  2  0  0  0  0  0  0  0  0  0
   26.2341  -20.8099  -11.2550 N   0  0  0  0  0  0  0  0  0  0  0  0
   24.1893  -20.7938  -12.6047 C   0  0  0  0  0  0  0  0  0  0  0  0
   23.8542  -22.0027  -12.3454 O   0  0  0  0  0  0  0  0  0  0  0  0
   15.4470  -21.1615  -12.6919 O   0  0  0  0  0  0  0  0  0  0  0  0
   16.7593  -20.7514  -12.5838 C   0  0  0  0  0  0  0  0  0  0  0  0
   17.2647  -19.8950  -13.5377 C   0  0  0  0  0  0  0  0  0  0  0  0
   18.5723  -19.4645  -13.4610 C   0  0  0  0  0  0  0  0  0  0  0  0
   19.4428  -19.8563  -12.4427 C   0  0  0  0  0  0  0  0  0  0  0  0
   20.8455  -19.4028  -12.3970 C   0  0  0  0  0  0  0  0  0  0  0  0
   21.7406  -20.3957  -13.0445 C   0  0  2  0  0  0  0  0  0  0  0  0
   23.1475  -19.9561  -12.9815 N   0  0  0  0  0  0  0  0  0  0  0  0
   21.4072  -20.5514  -14.4653 C   0  0  0  0  0  0  0  0  0  0  0  0
   21.9285  -19.8316  -15.3399 O   0  0  0  0  0  0  0  0  0  0  0  0
   18.8945  -20.7235  -11.4966 C   0  0  0  0  0  0  0  0  0  0  0  0
   17.5905  -21.1581  -11.5653 C   0  0  0  0  0  0  0  0  0  0  0  0
   20.4984  -21.5074  -14.8803 O   0  0  0  0  0  0  0  0  0  0  0  0
  1  2  1  0
  3  2  1  0
  4  3  1  0
  5  4  1  0
  5  6  1  6
  7  5  1  0
  8  7  2  0
 10  9  1  6
 10 12  1  0
 11 10  1  0
 12 14  1  0
 12 13  1  1
 13  7  1  0
 14 23  1  0
 15 14  2  0
 17 16  1  0
 17 18  2  0
 19 18  1  0
 20 19  2  0
 21 20  1  0
 22 24  1  0
 22 21  1  6
 23 22  1  0
 24 25  2  0
 24 28  1  0
 26 27  2  0
 26 20  1  0
 27 17  1  0
M  END
$$$$
