MVY.pdb
     RDKit          3D

 28 28  0  0  1  0  0  0  0  0999 V2000
   17.0319  -16.2283  -23.3211 C   0  0  0  0  0  0  0  0  0  0  0  0
   17.9305  -15.0761  -22.2656 S   0  0  0  0  0  0  0  0  0  0  0  0
   19.6272  -14.8336  -22.7918 C   0  0  0  0  0  0  0  0  0  0  0  0
   20.4253  -14.0158  -21.7955 C   0  0  0  0  0  0  0  0  0  0  0  0
   21.8169  -13.7338  -22.2831 C   0  0  2  0  0  0  0  0  0  0  0  0
   22.5252  -14.9943  -22.2987 N   0  0  0  0  0  0  0  0  0  0  0  0
   22.5065  -12.7410  -21.3981 C   0  0  0  0  0  0  0  0  0  0  0  0
   23.2952  -13.1093  -20.4973 O   0  0  0  0  0  0  0  0  0  0  0  0
   24.5238   -9.9400  -22.6924 C   0  0  0  0  0  0  0  0  0  0  0  0
   23.5040   -9.3512  -21.7760 C   0  0  2  0  0  0  0  0  0  0  0  0
   23.9934   -8.0738  -21.1225 C   0  0  0  0  0  0  0  0  0  0  0  0
   22.9162  -10.3140  -20.8312 C   0  0  2  0  0  0  0  0  0  0  0  0
   22.2644  -11.3688  -21.5816 N   0  0  0  0  0  0  0  0  0  0  0  0
   22.2017   -9.8519  -19.6585 C   0  0  0  0  0  0  0  0  0  0  0  0
   21.0121   -9.3970  -19.7964 O   0  0  0  0  0  0  0  0  0  0  0  0
   19.4637   -7.9363  -11.5266 O   0  0  0  0  0  0  0  0  0  0  0  0
   20.2100   -8.4145  -12.5832 C   0  0  0  0  0  0  0  0  0  0  0  0
   20.9899   -7.5295  -13.2955 C   0  0  0  0  0  0  0  0  0  0  0  0
   21.7490   -7.9727  -14.3577 C   0  0  0  0  0  0  0  0  0  0  0  0
   21.7758   -9.3063  -14.7683 C   0  0  0  0  0  0  0  0  0  0  0  0
   22.5759   -9.7514  -15.9248 C   0  0  0  0  0  0  0  0  0  0  0  0
   21.9024   -9.3933  -17.1993 C   0  0  2  0  0  0  0  0  0  0  0  0
   22.6906   -9.8532  -18.3586 N   0  0  0  0  0  0  0  0  0  0  0  0
   21.7673   -7.9375  -17.3278 C   0  0  0  0  0  0  0  0  0  0  0  0
   20.6627   -7.3720  -17.2060 O   0  0  0  0  0  0  0  0  0  0  0  0
   20.9733  -10.1713  -14.0230 C   0  0  0  0  0  0  0  0  0  0  0  0
   20.2126   -9.7376  -12.9612 C   0  0  0  0  0  0  0  0  0  0  0  0
   22.8684   -7.1431  -17.5897 O   0  0  0  0  0  0  0  0  0  0  0  0
  1  2  1  0
  3  2  1  0
  4  3  1  0
  5  4  1  0
  5  6  1  1
  7  5  1  0
  8  7  2  0
 10  9  1  1
 10 12  1  0
 11 10  1  0
 12 14  1  0
 12 13  1  6
 13  7  1  0
 14 23  1  0
 15 14  2  0
 17 16  1  0
 17 18  2  0
 19 18  1  0
 20 19  2  0
 21 20  1  0
 22 24  1  0
 22 21  1  1
 23 22  1  0
 24 25  2  0
 24 28  1  0
 26 27  2  0
 26 20  1  0
 27 17  1  0
M  END
$$$$
