MVY.pdb
     RDKit          3D

 28 28  0  0  1  0  0  0  0  0999 V2000
   27.2797  -16.7381  -14.8237 C   0  0  0  0  0  0  0  0  0  0  0  0
   27.9832  -17.1472  -16.4321 S   0  0  0  0  0  0  0  0  0  0  0  0
   28.1024  -18.9149  -16.7068 C   0  0  0  0  0  0  0  0  0  0  0  0
   27.0430  -19.6864  -15.9448 C   0  0  0  0  0  0  0  0  0  0  0  0
   27.6415  -20.5964  -14.9115 C   0  0  2  0  0  0  0  0  0  0  0  0
   28.4246  -21.5851  -15.6186 N   0  0  0  0  0  0  0  0  0  0  0  0
   26.5750  -21.2469  -14.0845 C   0  0  0  0  0  0  0  0  0  0  0  0
   25.8554  -22.1599  -14.5511 O   0  0  0  0  0  0  0  0  0  0  0  0
   25.3665  -19.7666   -9.9080 C   0  0  0  0  0  0  0  0  0  0  0  0
   25.6156  -21.1020  -10.5252 C   0  0  2  0  0  0  0  0  0  0  0  0
   27.0123  -21.6144  -10.2332 C   0  0  0  0  0  0  0  0  0  0  0  0
   25.2355  -21.1899  -11.9439 C   0  0  2  0  0  0  0  0  0  0  0  0
   26.3773  -20.8249  -12.7586 N   0  0  0  0  0  0  0  0  0  0  0  0
   23.9585  -20.6770  -12.3970 C   0  0  0  0  0  0  0  0  0  0  0  0
   23.9377  -19.6340  -13.1405 O   0  0  0  0  0  0  0  0  0  0  0  0
   16.4260  -19.0711  -16.1786 O   0  0  0  0  0  0  0  0  0  0  0  0
   17.6333  -19.5243  -15.6897 C   0  0  0  0  0  0  0  0  0  0  0  0
   17.6890  -20.7817  -15.1287 C   0  0  0  0  0  0  0  0  0  0  0  0
   18.8792  -21.2671  -14.6301 C   0  0  0  0  0  0  0  0  0  0  0  0
   20.0692  -20.5384  -14.6602 C   0  0  0  0  0  0  0  0  0  0  0  0
   21.3245  -21.0693  -14.0963 C   0  0  0  0  0  0  0  0  0  0  0  0
   21.4532  -20.7032  -12.6625 C   0  0  2  0  0  0  0  0  0  0  0  0
   22.7151  -21.2191  -12.0986 N   0  0  0  0  0  0  0  0  0  0  0  0
   20.3637  -21.2905  -11.8736 C   0  0  0  0  0  0  0  0  0  0  0  0
   20.4008  -22.4773  -11.4931 O   0  0  0  0  0  0  0  0  0  0  0  0
   19.9723  -19.2705  -15.2354 C   0  0  0  0  0  0  0  0  0  0  0  0
   18.7886  -18.7781  -15.7356 C   0  0  0  0  0  0  0  0  0  0  0  0
   19.2552  -20.5405  -11.5259 O   0  0  0  0  0  0  0  0  0  0  0  0
  1  2  1  0
  3  2  1  0
  4  3  1  0
  5  4  1  0
  5  6  1  6
  7  5  1  0
  8  7  2  0
 10  9  1  6
 10 12  1  0
 11 10  1  0
 12 14  1  0
 12 13  1  6
 13  7  1  0
 14 23  1  0
 15 14  2  0
 17 16  1  0
 17 18  2  0
 19 18  1  0
 20 19  2  0
 21 20  1  0
 22 24  1  0
 22 21  1  6
 23 22  1  0
 24 25  2  0
 24 28  1  0
 26 27  2  0
 26 20  1  0
 27 17  1  0
M  END
$$$$
