MVY.pdb
     RDKit          3D

 28 28  0  0  1  0  0  0  0  0999 V2000
   28.5147  -18.3669  -17.0763 C   0  0  0  0  0  0  0  0  0  0  0  0
   29.3358  -16.8006  -17.4248 S   0  0  0  0  0  0  0  0  0  0  0  0
   28.2561  -15.3872  -17.1992 C   0  0  0  0  0  0  0  0  0  0  0  0
   27.0349  -15.7254  -16.3670 C   0  0  0  0  0  0  0  0  0  0  0  0
   25.9388  -16.3322  -17.1942 C   0  0  2  0  0  0  0  0  0  0  0  0
   25.4126  -15.2824  -18.0379 N   0  0  0  0  0  0  0  0  0  0  0  0
   24.8653  -16.9110  -16.3242 C   0  0  0  0  0  0  0  0  0  0  0  0
   24.1717  -16.1846  -15.5756 O   0  0  0  0  0  0  0  0  0  0  0  0
   22.9963  -20.7687  -17.0910 C   0  0  0  0  0  0  0  0  0  0  0  0
   22.6054  -19.5382  -16.3431 C   0  0  2  0  0  0  0  0  0  0  0  0
   21.9358  -18.5144  -17.2385 C   0  0  0  0  0  0  0  0  0  0  0  0
   23.6749  -18.9807  -15.5002 C   0  0  2  0  0  0  0  0  0  0  0  0
   24.6311  -18.2966  -16.3477 N   0  0  0  0  0  0  0  0  0  0  0  0
   24.2464  -19.7631  -14.4230 C   0  0  0  0  0  0  0  0  0  0  0  0
   25.3900  -20.3138  -14.5957 O   0  0  0  0  0  0  0  0  0  0  0  0
   27.5204  -20.9651   -6.5046 O   0  0  0  0  0  0  0  0  0  0  0  0
   27.0602  -20.6532   -7.7667 C   0  0  0  0  0  0  0  0  0  0  0  0
   26.1208  -19.6538   -7.8993 C   0  0  0  0  0  0  0  0  0  0  0  0
   25.6386  -19.3155   -9.1458 C   0  0  0  0  0  0  0  0  0  0  0  0
   26.0579  -19.9444  -10.3191 C   0  0  0  0  0  0  0  0  0  0  0  0
   25.5074  -19.5825  -11.6388 C   0  0  0  0  0  0  0  0  0  0  0  0
   24.4069  -20.5042  -12.0204 C   0  0  2  0  0  0  0  0  0  0  0  0
   23.6622  -19.9826  -13.1822 N   0  0  0  0  0  0  0  0  0  0  0  0
   23.4405  -20.6458  -10.9248 C   0  0  0  0  0  0  0  0  0  0  0  0
   22.4088  -19.9476  -10.8713 O   0  0  0  0  0  0  0  0  0  0  0  0
   27.0090  -20.9506  -10.1438 C   0  0  0  0  0  0  0  0  0  0  0  0
   27.4959  -21.2947   -8.9034 C   0  0  0  0  0  0  0  0  0  0  0  0
   23.6460  -21.5640   -9.9115 O   0  0  0  0  0  0  0  0  0  0  0  0
  1  2  1  0
  3  2  1  0
  4  3  1  0
  5  4  1  0
  5  6  1  6
  7  5  1  0
  8  7  2  0
 10  9  1  6
 10 12  1  0
 11 10  1  0
 12 14  1  0
 12 13  1  6
 13  7  1  0
 14 23  1  0
 15 14  2  0
 17 16  1  0
 17 18  2  0
 19 18  1  0
 20 19  2  0
 21 20  1  0
 22 24  1  0
 22 21  1  1
 23 22  1  0
 24 25  2  0
 24 28  1  0
 26 27  2  0
 26 20  1  0
 27 17  1  0
M  END
$$$$
