MVY.pdb
     RDKit          3D

 28 28  0  0  1  0  0  0  0  0999 V2000
   28.4095  -20.0693   -6.7726 C   0  0  0  0  0  0  0  0  0  0  0  0
   26.6316  -20.3310   -6.6330 S   0  0  0  0  0  0  0  0  0  0  0  0
   25.9853  -21.3990   -7.9200 C   0  0  0  0  0  0  0  0  0  0  0  0
   25.7552  -20.6550   -9.2207 C   0  0  0  0  0  0  0  0  0  0  0  0
   26.5984  -21.1977  -10.3379 C   0  0  2  0  0  0  0  0  0  0  0  0
   27.9320  -21.3848   -9.8114 N   0  0  0  0  0  0  0  0  0  0  0  0
   26.6091  -20.2619  -11.5078 C   0  0  0  0  0  0  0  0  0  0  0  0
   26.8625  -19.0435  -11.3646 O   0  0  0  0  0  0  0  0  0  0  0  0
   27.5546  -21.5193  -15.4426 C   0  0  0  0  0  0  0  0  0  0  0  0
   27.5040  -20.1855  -14.7756 C   0  0  2  0  0  0  0  0  0  0  0  0
   28.7822  -19.8753  -14.0215 C   0  0  0  0  0  0  0  0  0  0  0  0
   26.2807  -19.9499  -13.9926 C   0  0  2  0  0  0  0  0  0  0  0  0
   26.3294  -20.7601  -12.7918 N   0  0  0  0  0  0  0  0  0  0  0  0
   24.9896  -19.8839  -14.6466 C   0  0  0  0  0  0  0  0  0  0  0  0
   24.3025  -20.9577  -14.7725 O   0  0  0  0  0  0  0  0  0  0  0  0
   17.5464  -17.3838  -18.6344 O   0  0  0  0  0  0  0  0  0  0  0  0
   18.7303  -17.3888  -17.9269 C   0  0  0  0  0  0  0  0  0  0  0  0
   19.8723  -16.9297  -18.5466 C   0  0  0  0  0  0  0  0  0  0  0  0
   21.0733  -16.9202  -17.8695 C   0  0  0  0  0  0  0  0  0  0  0  0
   21.2064  -17.3616  -16.5522 C   0  0  0  0  0  0  0  0  0  0  0  0
   22.5078  -17.3662  -15.8578 C   0  0  0  0  0  0  0  0  0  0  0  0
   23.0821  -18.7356  -15.8260 C   0  0  2  0  0  0  0  0  0  0  0  0
   24.4018  -18.7379  -15.1664 N   0  0  0  0  0  0  0  0  0  0  0  0
   23.2859  -19.2485  -17.1860 C   0  0  0  0  0  0  0  0  0  0  0  0
   24.3023  -18.9575  -17.8470 O   0  0  0  0  0  0  0  0  0  0  0  0
   20.0286  -17.8190  -15.9594 C   0  0  0  0  0  0  0  0  0  0  0  0
   18.8256  -17.8319  -16.6277 C   0  0  0  0  0  0  0  0  0  0  0  0
   22.3504  -20.0755  -17.7800 O   0  0  0  0  0  0  0  0  0  0  0  0
  1  2  1  0
  3  2  1  0
  4  3  1  0
  5  4  1  0
  5  6  1  1
  7  5  1  0
  8  7  2  0
 10  9  1  1
 10 12  1  0
 11 10  1  0
 12 14  1  0
 12 13  1  1
 13  7  1  0
 14 23  1  0
 15 14  2  0
 17 16  1  0
 17 18  2  0
 19 18  1  0
 20 19  2  0
 21 20  1  0
 22 24  1  0
 22 21  1  6
 23 22  1  0
 24 25  2  0
 24 28  1  0
 26 27  2  0
 26 20  1  0
 27 17  1  0
M  END
$$$$
