MVY.pdb
     RDKit          3D

 28 28  0  0  1  0  0  0  0  0999 V2000
   21.6909  -14.9264  -14.2003 C   0  0  0  0  0  0  0  0  0  0  0  0
   20.4067  -14.6831  -15.4414 S   0  0  0  0  0  0  0  0  0  0  0  0
   20.2337  -16.0864  -16.5437 C   0  0  0  0  0  0  0  0  0  0  0  0
   21.4536  -16.9862  -16.5224 C   0  0  0  0  0  0  0  0  0  0  0  0
   22.4260  -16.6444  -17.6140 C   0  0  2  0  0  0  0  0  0  0  0  0
   21.7789  -16.9498  -18.8704 N   0  0  0  0  0  0  0  0  0  0  0  0
   23.6991  -17.4196  -17.4630 C   0  0  0  0  0  0  0  0  0  0  0  0
   23.7324  -18.6585  -17.6448 O   0  0  0  0  0  0  0  0  0  0  0  0
   27.0061  -16.4287  -18.9704 C   0  0  0  0  0  0  0  0  0  0  0  0
   27.2198  -16.6356  -17.5083 C   0  0  2  0  0  0  0  0  0  0  0  0
   28.6128  -17.1495  -17.2019 C   0  0  0  0  0  0  0  0  0  0  0  0
   26.1478  -17.3941  -16.8445 C   0  0  2  0  0  0  0  0  0  0  0  0
   24.8800  -16.7441  -17.1103 N   0  0  0  0  0  0  0  0  0  0  0  0
   26.3230  -17.8872  -15.4935 C   0  0  0  0  0  0  0  0  0  0  0  0
   25.9371  -17.1591  -14.5127 O   0  0  0  0  0  0  0  0  0  0  0  0
   25.9145  -20.9480   -7.6096 O   0  0  0  0  0  0  0  0  0  0  0  0
   25.8325  -20.6721   -8.9584 C   0  0  0  0  0  0  0  0  0  0  0  0
   26.2024  -19.4205   -9.4006 C   0  0  0  0  0  0  0  0  0  0  0  0
   26.1333  -19.1099  -10.7421 C   0  0  0  0  0  0  0  0  0  0  0  0
   25.6973  -20.0157  -11.7103 C   0  0  0  0  0  0  0  0  0  0  0  0
   25.6072  -19.6510  -13.1366 C   0  0  0  0  0  0  0  0  0  0  0  0
   26.9583  -19.5923  -13.7508 C   0  0  2  0  0  0  0  0  0  0  0  0
   26.8834  -19.1086  -15.1426 N   0  0  0  0  0  0  0  0  0  0  0  0
   27.5697  -20.9258  -13.7967 C   0  0  0  0  0  0  0  0  0  0  0  0
   27.3856  -21.6946  -14.7610 O   0  0  0  0  0  0  0  0  0  0  0  0
   25.3314  -21.2715  -11.2237 C   0  0  0  0  0  0  0  0  0  0  0  0
   25.3973  -21.5902   -9.8865 C   0  0  0  0  0  0  0  0  0  0  0  0
   28.3741  -21.3735  -12.7648 O   0  0  0  0  0  0  0  0  0  0  0  0
  1  2  1  0
  3  2  1  0
  4  3  1  0
  5  4  1  0
  5  6  1  6
  7  5  1  0
  8  7  2  0
 10  9  1  6
 10 12  1  0
 11 10  1  0
 12 14  1  0
 12 13  1  1
 13  7  1  0
 14 23  1  0
 15 14  2  0
 17 16  1  0
 17 18  2  0
 19 18  1  0
 20 19  2  0
 21 20  1  0
 22 24  1  0
 22 21  1  6
 23 22  1  0
 24 25  2  0
 24 28  1  0
 26 27  2  0
 26 20  1  0
 27 17  1  0
M  END
$$$$
