MVY.pdb
     RDKit          3D

 28 28  0  0  1  0  0  0  0  0999 V2000
   27.7709  -19.3286   -7.1950 C   0  0  0  0  0  0  0  0  0  0  0  0
   28.1744  -21.0486   -7.5524 S   0  0  0  0  0  0  0  0  0  0  0  0
   27.9731  -21.4618   -9.2854 C   0  0  0  0  0  0  0  0  0  0  0  0
   26.6474  -20.9787   -9.8398 C   0  0  0  0  0  0  0  0  0  0  0  0
   26.4941  -21.3019  -11.2979 C   0  0  2  0  0  0  0  0  0  0  0  0
   27.6920  -20.8407  -11.9635 N   0  0  0  0  0  0  0  0  0  0  0  0
   25.2750  -20.6452  -11.8697 C   0  0  0  0  0  0  0  0  0  0  0  0
   24.9167  -19.5033  -11.4999 O   0  0  0  0  0  0  0  0  0  0  0  0
   23.8153  -21.7299  -15.7058 C   0  0  0  0  0  0  0  0  0  0  0  0
   23.5880  -20.5139  -14.8715 C   0  0  2  0  0  0  0  0  0  0  0  0
   24.6599  -19.4640  -15.0884 C   0  0  0  0  0  0  0  0  0  0  0  0
   23.3141  -20.7988  -13.4542 C   0  0  2  0  0  0  0  0  0  0  0  0
   24.5178  -21.3231  -12.8404 N   0  0  0  0  0  0  0  0  0  0  0  0
   22.0806  -21.4480  -13.0589 C   0  0  0  0  0  0  0  0  0  0  0  0
   22.0693  -22.7204  -12.9110 O   0  0  0  0  0  0  0  0  0  0  0  0
   13.9999  -23.5710  -10.3745 O   0  0  0  0  0  0  0  0  0  0  0  0
   15.2204  -22.9601  -10.5731 C   0  0  0  0  0  0  0  0  0  0  0  0
   15.2716  -21.8233  -11.3503 C   0  0  0  0  0  0  0  0  0  0  0  0
   16.4746  -21.1864  -11.5699 C   0  0  0  0  0  0  0  0  0  0  0  0
   17.6822  -21.6381  -11.0353 C   0  0  0  0  0  0  0  0  0  0  0  0
   18.9605  -20.9541  -11.3064 C   0  0  0  0  0  0  0  0  0  0  0  0
   19.6254  -21.5358  -12.5004 C   0  0  2  0  0  0  0  0  0  0  0  0
   20.8710  -20.8106  -12.8151 N   0  0  0  0  0  0  0  0  0  0  0  0
   18.7619  -21.4303  -13.6825 C   0  0  0  0  0  0  0  0  0  0  0  0
   18.1226  -22.4107  -14.1124 O   0  0  0  0  0  0  0  0  0  0  0  0
   17.5893  -22.7912  -10.2547 C   0  0  0  0  0  0  0  0  0  0  0  0
   16.3929  -23.4333  -10.0302 C   0  0  0  0  0  0  0  0  0  0  0  0
   18.6301  -20.2323  -14.3604 O   0  0  0  0  0  0  0  0  0  0  0  0
  1  2  1  0
  3  2  1  0
  4  3  1  0
  5  4  1  0
  5  6  1  6
  7  5  1  0
  8  7  2  0
 10  9  1  6
 10 12  1  0
 11 10  1  0
 12 14  1  0
 12 13  1  6
 13  7  1  0
 14 23  1  0
 15 14  2  0
 17 16  1  0
 17 18  2  0
 19 18  1  0
 20 19  2  0
 21 20  1  0
 22 24  1  0
 22 21  1  1
 23 22  1  0
 24 25  2  0
 24 28  1  0
 26 27  2  0
 26 20  1  0
 27 17  1  0
M  END
$$$$
