MVY.pdb
     RDKit          3D

 28 28  0  0  1  0  0  0  0  0999 V2000
   26.4131  -28.4049  -21.3197 C   0  0  0  0  0  0  0  0  0  0  0  0
   27.6822  -29.6632  -21.5541 S   0  0  0  0  0  0  0  0  0  0  0  0
   29.1542  -29.3527  -20.5787 C   0  0  0  0  0  0  0  0  0  0  0  0
   28.8301  -28.7388  -19.2310 C   0  0  0  0  0  0  0  0  0  0  0  0
   29.9300  -27.8425  -18.7401 C   0  0  2  0  0  0  0  0  0  0  0  0
   30.9816  -28.6974  -18.2361 N   0  0  0  0  0  0  0  0  0  0  0  0
   29.4332  -26.9157  -17.6730 C   0  0  0  0  0  0  0  0  0  0  0  0
   29.4508  -27.2452  -16.4646 O   0  0  0  0  0  0  0  0  0  0  0  0
   30.6279  -23.5464  -17.0154 C   0  0  0  0  0  0  0  0  0  0  0  0
   29.1601  -23.4190  -17.2511 C   0  0  2  0  0  0  0  0  0  0  0  0
   28.5586  -22.2540  -16.4900 C   0  0  0  0  0  0  0  0  0  0  0  0
   28.4140  -24.6778  -17.0965 C   0  0  2  0  0  0  0  0  0  0  0  0
   28.9376  -25.6512  -18.0341 N   0  0  0  0  0  0  0  0  0  0  0  0
   26.9724  -24.6660  -16.9520 C   0  0  0  0  0  0  0  0  0  0  0  0
   26.2524  -24.3025  -17.9472 O   0  0  0  0  0  0  0  0  0  0  0  0
   18.6523  -25.4091  -14.1723 O   0  0  0  0  0  0  0  0  0  0  0  0
   20.0277  -25.4788  -14.2474 C   0  0  0  0  0  0  0  0  0  0  0  0
   20.7724  -24.4653  -13.6843 C   0  0  0  0  0  0  0  0  0  0  0  0
   22.1495  -24.5023  -13.7405 C   0  0  0  0  0  0  0  0  0  0  0  0
   22.8574  -25.5376  -14.3529 C   0  0  0  0  0  0  0  0  0  0  0  0
   24.3307  -25.5413  -14.4232 C   0  0  0  0  0  0  0  0  0  0  0  0
   24.7962  -25.0103  -15.7300 C   0  0  2  0  0  0  0  0  0  0  0  0
   26.2694  -25.0213  -15.8081 N   0  0  0  0  0  0  0  0  0  0  0  0
   24.3714  -23.6169  -15.9089 C   0  0  0  0  0  0  0  0  0  0  0  0
   24.9645  -22.6768  -15.3438 O   0  0  0  0  0  0  0  0  0  0  0  0
   22.0686  -26.5444  -14.9114 C   0  0  0  0  0  0  0  0  0  0  0  0
   20.6937  -26.5156  -14.8598 C   0  0  0  0  0  0  0  0  0  0  0  0
   23.2931  -23.3017  -16.7152 O   0  0  0  0  0  0  0  0  0  0  0  0
  1  2  1  0
  3  2  1  0
  4  3  1  0
  5  4  1  0
  5  6  1  1
  7  5  1  0
  8  7  2  0
 10  9  1  1
 10 12  1  0
 11 10  1  0
 12 14  1  0
 12 13  1  6
 13  7  1  0
 14 23  1  0
 15 14  2  0
 17 16  1  0
 17 18  2  0
 19 18  1  0
 20 19  2  0
 21 20  1  0
 22 24  1  0
 22 21  1  1
 23 22  1  0
 24 25  2  0
 24 28  1  0
 26 27  2  0
 26 20  1  0
 27 17  1  0
M  END
$$$$
