SIG.pdb
     RDKit          3D

 19 18  0  0  1  0  0  0  0  0999 V2000
   16.3196  -12.3272  -20.3460 O   0  0  0  0  0  0  0  0  0  0  0  0
   16.6823  -12.0375  -19.0136 C   0  0  0  0  0  0  0  0  0  0  0  0
   18.0557  -12.6918  -18.8093 C   0  0  2  0  0  0  0  0  0  0  0  0
   17.8393  -14.0793  -18.6015 N   0  0  0  0  0  0  0  0  0  0  0  0
   18.6371  -12.1276  -17.5602 C   0  0  0  0  0  0  0  0  0  0  0  0
   18.1426  -12.3731  -16.4152 O   0  0  0  0  0  0  0  0  0  0  0  0
   23.7911  -11.5742  -14.8355 C   0  0  0  0  0  0  0  0  0  0  0  0
   22.4105  -10.9557  -14.9063 C   0  0  0  0  0  0  0  0  0  0  0  0
   21.8115  -11.3273  -16.2413 C   0  0  2  0  0  0  0  0  0  0  0  0
   22.6784  -10.7409  -17.3307 C   0  0  0  0  0  0  0  0  0  0  0  0
   20.4034  -10.8223  -16.4014 C   0  0  2  0  0  0  0  0  0  0  0  0
   19.7810  -11.2840  -17.6133 N   0  0  0  0  0  0  0  0  0  0  0  0
   20.4065   -9.3412  -16.3049 C   0  0  0  0  0  0  0  0  0  0  0  0
   20.8859   -8.6586  -17.2449 O   0  0  0  0  0  0  0  0  0  0  0  0
   19.8714   -8.6816  -15.1567 N   0  0  0  0  0  0  0  0  0  0  0  0
   19.7535   -7.2404  -15.2110 C   0  0  0  0  0  0  0  0  0  0  0  0
   21.0122   -6.5902  -14.7637 C   0  0  0  0  0  0  0  0  0  0  0  0
   22.1068   -7.3859  -14.4946 O   0  0  0  0  0  0  0  0  0  0  0  0
   21.1155   -5.3487  -14.6222 O   0  0  0  0  0  0  0  0  0  0  0  0
  2  1  1  0
  3  4  1  1
  3  2  1  0
  5  6  2  0
  5  3  1  0
  8  7  1  0
  8  9  1  0
  9 11  1  0
  9 10  1  6
 11 13  1  0
 11 12  1  6
 12  5  1  0
 13 15  1  0
 14 13  2  0
 15 16  1  0
 16 17  1  0
 17 19  2  0
 17 18  1  0
M  END
$$$$
