SIG.pdb
     RDKit          3D

 19 18  0  0  1  0  0  0  0  0999 V2000
   17.4629  -22.5833  -11.8679 O   0  0  0  0  0  0  0  0  0  0  0  0
   18.2884  -23.4395  -11.1086 C   0  0  0  0  0  0  0  0  0  0  0  0
   18.7981  -22.5879   -9.9377 C   0  0  2  0  0  0  0  0  0  0  0  0
   17.6714  -21.9562   -9.3489 N   0  0  0  0  0  0  0  0  0  0  0  0
   19.6727  -21.5256  -10.5064 C   0  0  0  0  0  0  0  0  0  0  0  0
   19.3078  -20.3090  -10.5607 O   0  0  0  0  0  0  0  0  0  0  0  0
   24.6421  -20.8656   -8.9840 C   0  0  0  0  0  0  0  0  0  0  0  0
   23.2182  -20.6695   -9.4608 C   0  0  0  0  0  0  0  0  0  0  0  0
   23.2069  -20.8645  -10.9578 C   0  0  2  0  0  0  0  0  0  0  0  0
   24.0465  -19.7764  -11.5849 C   0  0  0  0  0  0  0  0  0  0  0  0
   21.8183  -20.8151  -11.5347 C   0  0  2  0  0  0  0  0  0  0  0  0
   20.9620  -21.8468  -11.0134 N   0  0  0  0  0  0  0  0  0  0  0  0
   21.9077  -20.8594  -13.0157 C   0  0  0  0  0  0  0  0  0  0  0  0
   22.3148  -21.9048  -13.5822 O   0  0  0  0  0  0  0  0  0  0  0  0
   21.5369  -19.7286  -13.8053 N   0  0  0  0  0  0  0  0  0  0  0  0
   21.4806  -19.9078  -15.2401 C   0  0  0  0  0  0  0  0  0  0  0  0
   22.7466  -19.4633  -15.8780 C   0  0  0  0  0  0  0  0  0  0  0  0
   23.8755  -19.3460  -15.0934 O   0  0  0  0  0  0  0  0  0  0  0  0
   22.8262  -19.1918  -17.0995 O   0  0  0  0  0  0  0  0  0  0  0  0
  2  1  1  0
  3  4  1  6
  3  2  1  0
  5  6  2  0
  5  3  1  0
  8  7  1  0
  8  9  1  0
  9 11  1  0
  9 10  1  6
 11 13  1  0
 11 12  1  1
 12  5  1  0
 13 15  1  0
 14 13  2  0
 15 16  1  0
 16 17  1  0
 17 19  2  0
 17 18  1  0
M  END
$$$$
