SIG.pdb
     RDKit          3D

 19 18  0  0  1  0  0  0  0  0999 V2000
   21.3180  -10.1681  -22.2237 O   0  0  0  0  0  0  0  0  0  0  0  0
   21.1954  -10.3321  -20.8276 C   0  0  0  0  0  0  0  0  0  0  0  0
   22.5479  -10.8856  -20.3580 C   0  0  2  0  0  0  0  0  0  0  0  0
   22.4987  -12.2981  -20.4904 N   0  0  0  0  0  0  0  0  0  0  0  0
   22.6818  -10.5664  -18.9100 C   0  0  0  0  0  0  0  0  0  0  0  0
   21.9909  -11.1584  -18.0221 O   0  0  0  0  0  0  0  0  0  0  0  0
   26.7169  -10.3348  -14.7792 C   0  0  0  0  0  0  0  0  0  0  0  0
   25.3691   -9.7356  -15.1226 C   0  0  0  0  0  0  0  0  0  0  0  0
   25.1539   -9.9153  -16.6060 C   0  0  2  0  0  0  0  0  0  0  0  0
   26.2718   -9.2094  -17.3370 C   0  0  0  0  0  0  0  0  0  0  0  0
   23.8326   -9.3635  -17.0674 C   0  0  2  0  0  0  0  0  0  0  0  0
   23.6014   -9.5739  -18.4716 N   0  0  0  0  0  0  0  0  0  0  0  0
   23.7517   -7.9283  -16.6975 C   0  0  0  0  0  0  0  0  0  0  0  0
   24.7655   -7.1964  -16.8239 O   0  0  0  0  0  0  0  0  0  0  0  0
   22.5359   -7.3684  -16.1995 N   0  0  0  0  0  0  0  0  0  0  0  0
   22.5314   -5.9550  -15.8894 C   0  0  0  0  0  0  0  0  0  0  0  0
   22.4494   -5.7363  -14.4222 C   0  0  0  0  0  0  0  0  0  0  0  0
   22.4289   -4.4407  -13.9480 O   0  0  0  0  0  0  0  0  0  0  0  0
   22.3982   -6.6831  -13.6020 O   0  0  0  0  0  0  0  0  0  0  0  0
  2  1  1  0
  3  4  1  1
  3  2  1  0
  5  6  2  0
  5  3  1  0
  8  7  1  0
  8  9  1  0
  9 11  1  0
  9 10  1  6
 11 13  1  0
 11 12  1  6
 12  5  1  0
 13 15  1  0
 14 13  2  0
 15 16  1  0
 16 17  1  0
 17 19  2  0
 17 18  1  0
M  END
$$$$
