SIG.pdb
     RDKit          3D

 19 18  0  0  1  0  0  0  0  0999 V2000
   24.0795  -19.6894  -14.3774 O   0  0  0  0  0  0  0  0  0  0  0  0
   24.1330  -20.5788  -13.2833 C   0  0  0  0  0  0  0  0  0  0  0  0
   25.5933  -20.5622  -12.8105 C   0  0  2  0  0  0  0  0  0  0  0  0
   26.3180  -21.4615  -13.6358 N   0  0  0  0  0  0  0  0  0  0  0  0
   25.6181  -21.0957  -11.4207 C   0  0  0  0  0  0  0  0  0  0  0  0
   25.6267  -22.3434  -11.1773 O   0  0  0  0  0  0  0  0  0  0  0  0
   27.8643  -19.7771   -5.9785 C   0  0  0  0  0  0  0  0  0  0  0  0
   26.7960  -20.5562   -6.7168 C   0  0  0  0  0  0  0  0  0  0  0  0
   26.6909  -19.9812   -8.1087 C   0  0  2  0  0  0  0  0  0  0  0  0
   26.2621  -18.5371   -7.9949 C   0  0  0  0  0  0  0  0  0  0  0  0
   25.7049  -20.7261   -8.9668 C   0  0  2  0  0  0  0  0  0  0  0  0
   25.6332  -20.2104  -10.3078 N   0  0  0  0  0  0  0  0  0  0  0  0
   24.3807  -20.7229   -8.2962 C   0  0  0  0  0  0  0  0  0  0  0  0
   23.5498  -19.8196   -8.5666 O   0  0  0  0  0  0  0  0  0  0  0  0
   24.0387  -21.7340   -7.3473 N   0  0  0  0  0  0  0  0  0  0  0  0
   22.7531  -21.6250   -6.6920 C   0  0  0  0  0  0  0  0  0  0  0  0
   21.7180  -22.3959   -7.4279 C   0  0  0  0  0  0  0  0  0  0  0  0
   20.9675  -23.3228   -6.7340 O   0  0  0  0  0  0  0  0  0  0  0  0
   21.5025  -22.2354   -8.6525 O   0  0  0  0  0  0  0  0  0  0  0  0
  2  1  1  0
  3  4  1  6
  3  2  1  0
  5  6  2  0
  5  3  1  0
  8  7  1  0
  8  9  1  0
  9 11  1  0
  9 10  1  1
 11 13  1  0
 11 12  1  6
 12  5  1  0
 13 15  1  0
 14 13  2  0
 15 16  1  0
 16 17  1  0
 17 19  2  0
 17 18  1  0
M  END
$$$$
