SIG.pdb
     RDKit          3D

 19 18  0  0  1  0  0  0  0  0999 V2000
   14.8752   -5.6862   -9.2641 O   0  0  0  0  0  0  0  0  0  0  0  0
   16.1938   -6.1829   -9.3382 C   0  0  0  0  0  0  0  0  0  0  0  0
   16.1290   -7.3816  -10.2948 C   0  0  2  0  0  0  0  0  0  0  0  0
   15.7354   -8.5130   -9.5332 N   0  0  0  0  0  0  0  0  0  0  0  0
   17.5089   -7.6262  -10.7974 C   0  0  0  0  0  0  0  0  0  0  0  0
   18.3876   -8.2181  -10.0949 O   0  0  0  0  0  0  0  0  0  0  0  0
   21.3428   -9.7105  -13.3423 C   0  0  0  0  0  0  0  0  0  0  0  0
   20.6803   -8.6587  -14.2073 C   0  0  0  0  0  0  0  0  0  0  0  0
   19.2807   -8.4499  -13.6813 C   0  0  2  0  0  0  0  0  0  0  0  0
   18.4053   -7.9978  -14.8265 C   0  0  0  0  0  0  0  0  0  0  0  0
   19.2259   -7.4263  -12.5801 C   0  0  2  0  0  0  0  0  0  0  0  0
   17.8897   -7.1975  -12.0990 N   0  0  0  0  0  0  0  0  0  0  0  0
   19.8717   -6.1751  -13.0499 C   0  0  0  0  0  0  0  0  0  0  0  0
   19.2018   -5.3396  -13.7077 O   0  0  0  0  0  0  0  0  0  0  0  0
   21.2453   -5.9087  -12.7638 N   0  0  0  0  0  0  0  0  0  0  0  0
   21.7546   -4.5979  -13.1049 C   0  0  0  0  0  0  0  0  0  0  0  0
   21.9910   -4.4871  -14.5675 C   0  0  0  0  0  0  0  0  0  0  0  0
   22.2911   -3.2483  -15.0957 O   0  0  0  0  0  0  0  0  0  0  0  0
   21.9279   -5.4752  -15.3366 O   0  0  0  0  0  0  0  0  0  0  0  0
  2  1  1  0
  3  4  1  1
  3  2  1  0
  5  6  2  0
  5  3  1  0
  8  7  1  0
  8  9  1  0
  9 11  1  0
  9 10  1  6
 11 13  1  0
 11 12  1  6
 12  5  1  0
 13 15  1  0
 14 13  2  0
 15 16  1  0
 16 17  1  0
 17 19  2  0
 17 18  1  0
M  END
$$$$
