SIG.pdb
     RDKit          3D

 19 18  0  0  1  0  0  0  0  0999 V2000
   16.0591  -10.8836  -17.8082 O   0  0  0  0  0  0  0  0  0  0  0  0
   16.9915  -10.3939  -16.8691 C   0  0  0  0  0  0  0  0  0  0  0  0
   17.8814  -11.5918  -16.5097 C   0  0  2  0  0  0  0  0  0  0  0  0
   17.1115  -12.4654  -15.6977 N   0  0  0  0  0  0  0  0  0  0  0  0
   19.0100  -11.0777  -15.6858 C   0  0  0  0  0  0  0  0  0  0  0  0
   18.9044  -10.9035  -14.4310 O   0  0  0  0  0  0  0  0  0  0  0  0
   23.7563  -13.2388  -15.8928 C   0  0  0  0  0  0  0  0  0  0  0  0
   22.4361  -12.5693  -15.5728 C   0  0  0  0  0  0  0  0  0  0  0  0
   22.6260  -11.0811  -15.7413 C   0  0  2  0  0  0  0  0  0  0  0  0
   23.6938  -10.6260  -14.7743 C   0  0  0  0  0  0  0  0  0  0  0  0
   21.3618  -10.3065  -15.4859 C   0  0  2  0  0  0  0  0  0  0  0  0
   20.2585  -10.7615  -16.2891 N   0  0  0  0  0  0  0  0  0  0  0  0
   21.6333   -8.8600  -15.6788 C   0  0  0  0  0  0  0  0  0  0  0  0
   22.0745   -8.4528  -16.7829 O   0  0  0  0  0  0  0  0  0  0  0  0
   21.3994   -7.9248  -14.6251 N   0  0  0  0  0  0  0  0  0  0  0  0
   21.5895   -6.5220  -14.9252 C   0  0  0  0  0  0  0  0  0  0  0  0
   21.2926   -5.6824  -13.7360 C   0  0  0  0  0  0  0  0  0  0  0  0
   20.7388   -6.2842  -12.6247 O   0  0  0  0  0  0  0  0  0  0  0  0
   21.5262   -4.4510  -13.7056 O   0  0  0  0  0  0  0  0  0  0  0  0
  2  1  1  0
  3  4  1  1
  3  2  1  0
  5  6  2  0
  5  3  1  0
  8  7  1  0
  8  9  1  0
  9 11  1  0
  9 10  1  1
 11 13  1  0
 11 12  1  6
 12  5  1  0
 13 15  1  0
 14 13  2  0
 15 16  1  0
 16 17  1  0
 17 19  2  0
 17 18  1  0
M  END
$$$$
