RHD.pdb
     RDKit          3D

 30 30  0  0  1  0  0  0  0  0999 V2000
    9.2293  -10.6257  -12.1872 N   0  0  0  0  0  0  0  0  0  0  0  0
    9.4822   -9.2755  -11.7966 C   0  0  0  0  0  0  0  0  0  0  0  0
    8.6844   -8.6393  -11.0097 N   0  0  0  0  0  0  0  0  0  0  0  0
   10.6357   -8.6131  -12.2822 N   0  0  0  0  0  0  0  0  0  0  0  0
   11.3039   -9.1936  -13.4510 C   0  0  0  0  0  0  0  0  0  0  0  0
   12.4141   -8.2683  -13.8535 C   0  0  0  0  0  0  0  0  0  0  0  0
   13.2303   -8.8680  -14.9624 C   0  0  0  0  0  0  0  0  0  0  0  0
   14.2521   -9.8166  -14.3940 C   0  0  2  0  0  0  0  0  0  0  0  0
   15.1690   -9.0863  -13.5379 N   0  0  0  0  0  0  0  0  0  0  0  0
   15.0287  -10.4755  -15.4909 C   0  0  0  0  0  0  0  0  0  0  0  0
   14.5004  -10.4927  -16.6203 O   0  0  0  0  0  0  0  0  0  0  0  0
    8.9076   -7.6984  -10.6437 N   0  0  0  0  0  0  0  0  0  0  0  0
   16.2925  -11.0381  -15.2230 C   0  0  2  0  0  0  0  0  0  0  0  0
   17.0275  -11.6966  -16.3199 C   0  0  0  0  0  0  0  0  0  0  0  0
   18.4577  -11.7642  -15.8789 C   0  0  0  0  0  0  0  0  0  0  0  0
   19.3600  -12.4104  -16.8445 C   0  0  0  0  0  0  0  0  0  0  0  0
   19.7746  -12.0814  -18.0996 N   0  0  0  0  0  0  0  0  0  0  0  0
   20.6601  -13.0211  -18.5063 C   0  0  0  0  0  0  0  0  0  0  0  0
   20.7989  -13.9138  -17.5349 N   0  0  0  0  0  0  0  0  0  0  0  0
   20.0152  -13.5588  -16.5143 C   0  0  0  0  0  0  0  0  0  0  0  0
   16.4685  -13.1009  -16.3264 O   0  0  0  0  0  0  0  0  0  0  0  0
   16.0931  -13.7052  -15.2972 N   0  0  0  0  0  0  0  0  0  0  0  0
   16.3469  -13.8055  -17.5418 C   0  0  1  0  0  0  0  0  0  0  0  0
   15.8243  -15.1838  -17.5509 C   0  0  0  0  0  0  0  0  0  0  0  0
   15.1119  -15.3328  -18.8461 C   0  0  0  0  0  0  0  0  0  0  0  0
   14.4692  -16.5974  -19.1337 O   0  0  0  0  0  0  0  0  0  0  0  0
   13.9263  -17.2996  -18.2626 C   0  0  0  0  0  0  0  0  0  0  0  0
   16.8933  -16.1354  -17.2746 O   0  0  0  0  0  0  0  0  0  0  0  0
   18.0402  -15.9968  -17.7239 O   0  0  0  0  0  0  0  0  0  0  0  0
   14.4460  -17.0687  -20.4397 O   0  0  0  0  0  0  0  0  0  0  0  0
  2  3  2  0
  2  1  1  0
  4  2  1  0
  5  4  1  0
  6  5  1  0
  7  6  1  0
  8  7  1  0
  8  9  1  1
 10 11  2  0
 10  8  1  0
 12 10  1  0
 13 20  1  0
 13 12  1  0
 13 14  1  1
 15 14  1  0
 16 15  2  0
 17 18  1  0
 17 16  1  0
 18 19  2  0
 19 15  1  0
 20 21  2  0
 22 23  1  0
 22 20  1  0
 23 24  1  1
 24 25  1  0
 25 26  2  0
 25 29  1  0
 27 23  1  0
 28 27  2  0
 30 27  1  0
M  END
$$$$
