RHD.pdb
     RDKit          3D

 30 30  0  0  1  0  0  0  0  0999 V2000
   29.2596  -20.2158  -18.5622 N   0  0  0  0  0  0  0  0  0  0  0  0
   28.7729  -19.3113  -19.5544 C   0  0  0  0  0  0  0  0  0  0  0  0
   29.4341  -19.0737  -20.6344 N   0  0  0  0  0  0  0  0  0  0  0  0
   27.5340  -18.6555  -19.3530 N   0  0  0  0  0  0  0  0  0  0  0  0
   26.9811  -18.6624  -17.9950 C   0  0  0  0  0  0  0  0  0  0  0  0
   25.7579  -19.5308  -18.0003 C   0  0  0  0  0  0  0  0  0  0  0  0
   24.8416  -19.1653  -16.8679 C   0  0  0  0  0  0  0  0  0  0  0  0
   25.3534  -19.7561  -15.5809 C   0  0  2  0  0  0  0  0  0  0  0  0
   26.4806  -20.6266  -15.8610 N   0  0  0  0  0  0  0  0  0  0  0  0
   24.2814  -20.5494  -14.9011 C   0  0  0  0  0  0  0  0  0  0  0  0
   24.1166  -21.7216  -15.2935 O   0  0  0  0  0  0  0  0  0  0  0  0
   29.1243  -18.3696  -21.3253 N   0  0  0  0  0  0  0  0  0  0  0  0
   23.5158  -19.9669  -13.8716 C   0  0  1  0  0  0  0  0  0  0  0  0
   22.6293  -20.8287  -13.0665 C   0  0  0  0  0  0  0  0  0  0  0  0
   22.8382  -20.4211  -11.6400 C   0  0  0  0  0  0  0  0  0  0  0  0
   24.1009  -20.8951  -11.0527 C   0  0  0  0  0  0  0  0  0  0  0  0
   25.1689  -21.5731  -11.5577 N   0  0  0  0  0  0  0  0  0  0  0  0
   26.0878  -21.6986  -10.5715 C   0  0  0  0  0  0  0  0  0  0  0  0
   25.6118  -21.1155   -9.4792 N   0  0  0  0  0  0  0  0  0  0  0  0
   24.4029  -20.6199   -9.7526 C   0  0  0  0  0  0  0  0  0  0  0  0
   21.2424  -20.3957  -13.4830 O   0  0  0  0  0  0  0  0  0  0  0  0
   20.9182  -19.2054  -13.6912 N   0  0  0  0  0  0  0  0  0  0  0  0
   20.2263  -21.3578  -13.6576 C   0  0  1  0  0  0  0  0  0  0  0  0
   18.8663  -20.9388  -14.0418 C   0  0  0  0  0  0  0  0  0  0  0  0
   18.2844  -22.0927  -14.7747 C   0  0  0  0  0  0  0  0  0  0  0  0
   17.3987  -21.8224  -15.8871 O   0  0  0  0  0  0  0  0  0  0  0  0
   17.1077  -20.6732  -16.2630 C   0  0  0  0  0  0  0  0  0  0  0  0
   18.1324  -20.4615  -12.8765 O   0  0  0  0  0  0  0  0  0  0  0  0
   18.3669  -20.8691  -11.7295 O   0  0  0  0  0  0  0  0  0  0  0  0
   16.8350  -22.8837  -16.5830 O   0  0  0  0  0  0  0  0  0  0  0  0
  2  3  2  0
  2  1  1  0
  4  2  1  0
  5  4  1  0
  6  5  1  0
  7  6  1  0
  8  7  1  0
  8  9  1  6
 10 11  2  0
 10  8  1  0
 12 10  1  0
 13 20  1  0
 13 12  1  0
 13 14  1  6
 15 14  1  0
 16 15  2  0
 17 18  1  0
 17 16  1  0
 18 19  2  0
 19 15  1  0
 20 21  2  0
 22 23  1  0
 22 20  1  0
 23 24  1  1
 24 25  1  0
 25 26  2  0
 25 29  1  0
 27 23  1  0
 28 27  2  0
 30 27  1  0
M  END
$$$$
