RHD.pdb
     RDKit          3D

 30 30  0  0  1  0  0  0  0  0999 V2000
   15.3271  -12.9987  -13.9667 N   0  0  0  0  0  0  0  0  0  0  0  0
   14.5687  -13.6285  -15.0001 C   0  0  0  0  0  0  0  0  0  0  0  0
   13.6017  -14.4365  -14.7316 N   0  0  0  0  0  0  0  0  0  0  0  0
   14.8818  -13.3635  -16.3555 N   0  0  0  0  0  0  0  0  0  0  0  0
   16.0054  -12.4603  -16.6232 C   0  0  0  0  0  0  0  0  0  0  0  0
   17.2389  -13.2973  -16.7917 C   0  0  0  0  0  0  0  0  0  0  0  0
   18.4348  -12.4319  -17.0683 C   0  0  0  0  0  0  0  0  0  0  0  0
   19.6687  -13.2853  -17.1959 C   0  0  2  0  0  0  0  0  0  0  0  0
   19.4367  -14.5715  -16.5644 N   0  0  0  0  0  0  0  0  0  0  0  0
   20.8391  -12.6231  -16.5383 C   0  0  0  0  0  0  0  0  0  0  0  0
   21.0207  -12.8751  -15.3306 O   0  0  0  0  0  0  0  0  0  0  0  0
   13.0495  -14.8991  -15.4733 N   0  0  0  0  0  0  0  0  0  0  0  0
   21.6732  -11.7629  -17.2796 C   0  0  1  0  0  0  0  0  0  0  0  0
   22.7984  -11.0963  -16.5965 C   0  0  0  0  0  0  0  0  0  0  0  0
   24.0187  -11.4057  -17.4086 C   0  0  0  0  0  0  0  0  0  0  0  0
   25.2554  -10.7894  -16.9036 C   0  0  0  0  0  0  0  0  0  0  0  0
   26.0912   -9.8338  -17.3971 N   0  0  0  0  0  0  0  0  0  0  0  0
   27.0591   -9.6107  -16.4773 C   0  0  0  0  0  0  0  0  0  0  0  0
   26.8374  -10.4019  -15.4359 N   0  0  0  0  0  0  0  0  0  0  0  0
   25.7429  -11.1272  -15.6767 C   0  0  0  0  0  0  0  0  0  0  0  0
   22.4863   -9.6258  -16.7547 O   0  0  0  0  0  0  0  0  0  0  0  0
   21.9712   -9.1304  -17.7817 N   0  0  0  0  0  0  0  0  0  0  0  0
   22.7774   -8.7269  -15.7080 C   0  0  1  0  0  0  0  0  0  0  0  0
   22.6204   -7.2755  -15.9117 C   0  0  0  0  0  0  0  0  0  0  0  0
   21.4596   -6.8774  -15.0743 C   0  0  0  0  0  0  0  0  0  0  0  0
   21.1372   -5.4699  -14.9738 O   0  0  0  0  0  0  0  0  0  0  0  0
   20.7566   -4.7871  -15.9410 C   0  0  0  0  0  0  0  0  0  0  0  0
   23.8802   -6.5869  -15.6603 O   0  0  0  0  0  0  0  0  0  0  0  0
   24.0077   -5.3615  -15.7971 O   0  0  0  0  0  0  0  0  0  0  0  0
   21.2515   -4.8305  -13.7464 O   0  0  0  0  0  0  0  0  0  0  0  0
  2  3  2  0
  2  1  1  0
  4  2  1  0
  5  4  1  0
  6  5  1  0
  7  6  1  0
  8  7  1  0
  8  9  1  1
 10 11  2  0
 10  8  1  0
 12 10  1  0
 13 20  1  0
 13 12  1  0
 13 14  1  1
 15 14  1  0
 16 15  2  0
 17 18  1  0
 17 16  1  0
 18 19  2  0
 19 15  1  0
 20 21  2  0
 22 23  1  0
 22 20  1  0
 23 24  1  6
 24 25  1  0
 25 26  2  0
 25 29  1  0
 27 23  1  0
 28 27  2  0
 30 27  1  0
M  END
$$$$
