RHD.pdb
     RDKit          3D

 30 30  0  0  1  0  0  0  0  0999 V2000
   18.7334  -24.3536   -7.1802 N   0  0  0  0  0  0  0  0  0  0  0  0
   18.1173  -25.4401   -7.8727 C   0  0  0  0  0  0  0  0  0  0  0  0
   17.0964  -26.0585   -7.3872 N   0  0  0  0  0  0  0  0  0  0  0  0
   18.6358  -25.8538   -9.1238 N   0  0  0  0  0  0  0  0  0  0  0  0
   19.0900  -24.8067  -10.0442 C   0  0  0  0  0  0  0  0  0  0  0  0
   17.8938  -23.9946  -10.4442 C   0  0  0  0  0  0  0  0  0  0  0  0
   18.3087  -22.6235  -10.8952 C   0  0  0  0  0  0  0  0  0  0  0  0
   18.6871  -22.6539  -12.3523 C   0  0  2  0  0  0  0  0  0  0  0  0
   19.2293  -23.9585  -12.6858 N   0  0  0  0  0  0  0  0  0  0  0  0
   19.7142  -21.6074  -12.6531 C   0  0  0  0  0  0  0  0  0  0  0  0
   19.4498  -20.4425  -12.2952 O   0  0  0  0  0  0  0  0  0  0  0  0
   16.6980  -26.8998   -7.8372 N   0  0  0  0  0  0  0  0  0  0  0  0
   20.9100  -21.9586  -13.3104 C   0  0  1  0  0  0  0  0  0  0  0  0
   21.8667  -20.8940  -13.6685 C   0  0  0  0  0  0  0  0  0  0  0  0
   23.1016  -21.5914  -14.1518 C   0  0  0  0  0  0  0  0  0  0  0  0
   24.1816  -20.6872  -14.5761 C   0  0  0  0  0  0  0  0  0  0  0  0
   24.4278  -19.3640  -14.3667 N   0  0  0  0  0  0  0  0  0  0  0  0
   25.6105  -19.0619  -14.9521 C   0  0  0  0  0  0  0  0  0  0  0  0
   26.0940  -20.1631  -15.5118 N   0  0  0  0  0  0  0  0  0  0  0  0
   25.2379  -21.1638  -15.2932 C   0  0  0  0  0  0  0  0  0  0  0  0
   21.2140  -20.2159  -14.8511 O   0  0  0  0  0  0  0  0  0  0  0  0
   20.5087  -20.8138  -15.6940 N   0  0  0  0  0  0  0  0  0  0  0  0
   21.3853  -18.8307  -15.0522 C   0  0  1  0  0  0  0  0  0  0  0  0
   20.7755  -18.1700  -16.2203 C   0  0  0  0  0  0  0  0  0  0  0  0
   20.1706  -16.9166  -15.7001 C   0  0  0  0  0  0  0  0  0  0  0  0
   19.5058  -16.0359  -16.6367 O   0  0  0  0  0  0  0  0  0  0  0  0
   19.3952  -16.2889  -17.8493 C   0  0  0  0  0  0  0  0  0  0  0  0
   21.7509  -18.0334  -17.2947 O   0  0  0  0  0  0  0  0  0  0  0  0
   21.5003  -18.3537  -18.4657 O   0  0  0  0  0  0  0  0  0  0  0  0
   18.9572  -14.8446  -16.1804 O   0  0  0  0  0  0  0  0  0  0  0  0
  2  3  2  0
  2  1  1  0
  4  2  1  0
  5  4  1  0
  6  5  1  0
  7  6  1  0
  8  7  1  0
  8  9  1  1
 10 11  2  0
 10  8  1  0
 12 10  1  0
 13 20  1  0
 13 12  1  0
 13 14  1  1
 15 14  1  0
 16 15  2  0
 17 18  1  0
 17 16  1  0
 18 19  2  0
 19 15  1  0
 20 21  2  0
 22 23  1  0
 22 20  1  0
 23 24  1  6
 24 25  1  0
 25 26  2  0
 25 29  1  0
 27 23  1  0
 28 27  2  0
 30 27  1  0
M  END
$$$$
