RHD.pdb
     RDKit          3D

 30 30  0  0  1  0  0  0  0  0999 V2000
   18.8065  -14.5253  -16.3096 N   0  0  0  0  0  0  0  0  0  0  0  0
   19.4899  -14.8686  -15.1035 C   0  0  0  0  0  0  0  0  0  0  0  0
   19.0586  -14.4874  -13.9507 N   0  0  0  0  0  0  0  0  0  0  0  0
   20.6713  -15.6466  -15.1683 N   0  0  0  0  0  0  0  0  0  0  0  0
   21.1222  -16.0775  -16.4953 C   0  0  0  0  0  0  0  0  0  0  0  0
   22.2948  -16.9943  -16.3079 C   0  0  0  0  0  0  0  0  0  0  0  0
   21.9497  -18.1135  -15.3677 C   0  0  0  0  0  0  0  0  0  0  0  0
   23.1401  -19.0172  -15.1850 C   0  0  2  0  0  0  0  0  0  0  0  0
   23.5532  -19.5422  -16.4737 N   0  0  0  0  0  0  0  0  0  0  0  0
   22.8018  -20.1594  -14.2787 C   0  0  0  0  0  0  0  0  0  0  0  0
   22.4025  -21.2081  -14.8227 O   0  0  0  0  0  0  0  0  0  0  0  0
   19.5953  -14.6489  -13.0819 N   0  0  0  0  0  0  0  0  0  0  0  0
   22.9401  -20.0199  -12.8834 C   0  0  2  0  0  0  0  0  0  0  0  0
   22.6908  -21.1908  -12.0210 C   0  0  0  0  0  0  0  0  0  0  0  0
   23.4927  -20.9667  -10.7754 C   0  0  0  0  0  0  0  0  0  0  0  0
   24.9442  -21.1291  -10.9514 C   0  0  0  0  0  0  0  0  0  0  0  0
   25.7217  -21.4889  -12.0104 N   0  0  0  0  0  0  0  0  0  0  0  0
   27.0161  -21.4204  -11.6199 C   0  0  0  0  0  0  0  0  0  0  0  0
   27.0511  -21.0279  -10.3532 N   0  0  0  0  0  0  0  0  0  0  0  0
   25.7988  -20.8451   -9.9287 C   0  0  0  0  0  0  0  0  0  0  0  0
   21.2264  -21.0645  -11.6688 O   0  0  0  0  0  0  0  0  0  0  0  0
   20.6722  -19.9820  -11.3750 N   0  0  0  0  0  0  0  0  0  0  0  0
   20.4027  -22.2090  -11.6589 C   0  0  1  0  0  0  0  0  0  0  0  0
   18.9462  -22.0729  -11.4775 C   0  0  0  0  0  0  0  0  0  0  0  0
   18.3742  -22.0359  -12.8481 C   0  0  0  0  0  0  0  0  0  0  0  0
   16.9348  -21.9798  -12.9892 O   0  0  0  0  0  0  0  0  0  0  0  0
   16.1640  -21.7736  -12.0352 C   0  0  0  0  0  0  0  0  0  0  0  0
   18.4455  -23.1093  -10.5832 O   0  0  0  0  0  0  0  0  0  0  0  0
   18.9874  -24.2195  -10.4819 O   0  0  0  0  0  0  0  0  0  0  0  0
   16.3651  -22.1623  -14.2424 O   0  0  0  0  0  0  0  0  0  0  0  0
  2  3  2  0
  2  1  1  0
  4  2  1  0
  5  4  1  0
  6  5  1  0
  7  6  1  0
  8  7  1  0
  8  9  1  6
 10 11  2  0
 10  8  1  0
 12 10  1  0
 13 20  1  0
 13 12  1  0
 13 14  1  6
 15 14  1  0
 16 15  2  0
 17 18  1  0
 17 16  1  0
 18 19  2  0
 19 15  1  0
 20 21  2  0
 22 23  1  0
 22 20  1  0
 23 24  1  1
 24 25  1  0
 25 26  2  0
 25 29  1  0
 27 23  1  0
 28 27  2  0
 30 27  1  0
M  END
$$$$
