RHD.pdb
     RDKit          3D

 30 30  0  0  1  0  0  0  0  0999 V2000
   19.4866  -17.2399  -17.2409 N   0  0  0  0  0  0  0  0  0  0  0  0
   20.3165  -17.0821  -18.3924 C   0  0  0  0  0  0  0  0  0  0  0  0
   20.1291  -17.7780  -19.4606 N   0  0  0  0  0  0  0  0  0  0  0  0
   21.3734  -16.1400  -18.3669 N   0  0  0  0  0  0  0  0  0  0  0  0
   21.5237  -15.3289  -17.1548 C   0  0  0  0  0  0  0  0  0  0  0  0
   21.1275  -13.9215  -17.4904 C   0  0  0  0  0  0  0  0  0  0  0  0
   21.3237  -13.0174  -16.3073 C   0  0  0  0  0  0  0  0  0  0  0  0
   20.9494  -11.6052  -16.6715 C   0  0  2  0  0  0  0  0  0  0  0  0
   21.0478  -11.4325  -18.1094 N   0  0  0  0  0  0  0  0  0  0  0  0
   21.8616  -10.6271  -15.9993 C   0  0  0  0  0  0  0  0  0  0  0  0
   21.8973  -10.6582  -14.7531 O   0  0  0  0  0  0  0  0  0  0  0  0
   20.7458  -17.6949  -20.2862 N   0  0  0  0  0  0  0  0  0  0  0  0
   22.6275   -9.7298  -16.7697 C   0  0  1  0  0  0  0  0  0  0  0  0
   23.4387   -8.7088  -16.0793 C   0  0  0  0  0  0  0  0  0  0  0  0
   24.8020   -8.7748  -16.6970 C   0  0  0  0  0  0  0  0  0  0  0  0
   25.6472   -9.8649  -16.1855 C   0  0  0  0  0  0  0  0  0  0  0  0
   25.4626  -10.8210  -15.2331 N   0  0  0  0  0  0  0  0  0  0  0  0
   26.5642  -11.6076  -15.2125 C   0  0  0  0  0  0  0  0  0  0  0  0
   27.4155  -11.1597  -16.1260 N   0  0  0  0  0  0  0  0  0  0  0  0
   26.8746  -10.0989  -16.7293 C   0  0  0  0  0  0  0  0  0  0  0  0
   22.7947   -7.4060  -16.4947 O   0  0  0  0  0  0  0  0  0  0  0  0
   22.4208   -7.1558  -17.6621 N   0  0  0  0  0  0  0  0  0  0  0  0
   22.5858   -6.3878  -15.5417 C   0  0  1  0  0  0  0  0  0  0  0  0
   21.9978   -5.0992  -15.9501 C   0  0  0  0  0  0  0  0  0  0  0  0
   21.2706   -4.5953  -14.7566 C   0  0  0  0  0  0  0  0  0  0  0  0
   20.5761   -3.3296  -14.8606 O   0  0  0  0  0  0  0  0  0  0  0  0
   20.5789   -2.6333  -15.8910 C   0  0  0  0  0  0  0  0  0  0  0  0
   23.0219   -4.2281  -16.5131 O   0  0  0  0  0  0  0  0  0  0  0  0
   22.8456   -3.5811  -17.5557 O   0  0  0  0  0  0  0  0  0  0  0  0
   19.8655   -2.8503  -13.7680 O   0  0  0  0  0  0  0  0  0  0  0  0
  2  3  2  0
  2  1  1  0
  4  2  1  0
  5  4  1  0
  6  5  1  0
  7  6  1  0
  8  7  1  0
  8  9  1  6
 10 11  2  0
 10  8  1  0
 12 10  1  0
 13 20  1  0
 13 12  1  0
 13 14  1  1
 15 14  1  0
 16 15  2  0
 17 18  1  0
 17 16  1  0
 18 19  2  0
 19 15  1  0
 20 21  2  0
 22 23  1  0
 22 20  1  0
 23 24  1  6
 24 25  1  0
 25 26  2  0
 25 29  1  0
 27 23  1  0
 28 27  2  0
 30 27  1  0
M  END
$$$$
