RHD.pdb
     RDKit          3D

 30 30  0  0  1  0  0  0  0  0999 V2000
   24.3903  -17.3728  -24.1664 N   0  0  0  0  0  0  0  0  0  0  0  0
   25.2228  -18.4175  -23.6612 C   0  0  0  0  0  0  0  0  0  0  0  0
   26.4565  -18.5294  -24.0159 N   0  0  0  0  0  0  0  0  0  0  0  0
   24.6861  -19.3572  -22.7479 N   0  0  0  0  0  0  0  0  0  0  0  0
   23.2730  -19.2123  -22.3848 C   0  0  0  0  0  0  0  0  0  0  0  0
   23.1863  -18.2293  -21.2550 C   0  0  0  0  0  0  0  0  0  0  0  0
   23.5677  -18.8781  -19.9553 C   0  0  0  0  0  0  0  0  0  0  0  0
   22.3820  -18.9073  -19.0276 C   0  0  2  0  0  0  0  0  0  0  0  0
   22.0297  -17.5514  -18.6476 N   0  0  0  0  0  0  0  0  0  0  0  0
   22.6965  -19.6937  -17.7934 C   0  0  0  0  0  0  0  0  0  0  0  0
   23.0849  -20.8669  -17.9594 O   0  0  0  0  0  0  0  0  0  0  0  0
   27.0503  -19.3147  -23.7003 N   0  0  0  0  0  0  0  0  0  0  0  0
   22.5488  -19.1037  -16.5223 C   0  0  1  0  0  0  0  0  0  0  0  0
   22.8813  -19.8977  -15.3240 C   0  0  0  0  0  0  0  0  0  0  0  0
   23.9267  -19.1179  -14.5867 C   0  0  0  0  0  0  0  0  0  0  0  0
   25.2700  -19.1910  -15.1820 C   0  0  0  0  0  0  0  0  0  0  0  0
   25.7631  -19.7869  -16.3032 N   0  0  0  0  0  0  0  0  0  0  0  0
   27.0787  -19.4808  -16.3942 C   0  0  0  0  0  0  0  0  0  0  0  0
   27.4025  -18.7142  -15.3612 N   0  0  0  0  0  0  0  0  0  0  0  0
   26.3140  -18.5263  -14.6117 C   0  0  0  0  0  0  0  0  0  0  0  0
   21.6066  -19.8632  -14.5126 O   0  0  0  0  0  0  0  0  0  0  0  0
   21.0827  -18.8109  -14.0843 N   0  0  0  0  0  0  0  0  0  0  0  0
   20.9385  -21.0646  -14.1983 C   0  0  1  0  0  0  0  0  0  0  0  0
   19.7091  -21.0386  -13.3854 C   0  0  0  0  0  0  0  0  0  0  0  0
   18.5996  -20.8064  -14.3458 C   0  0  0  0  0  0  0  0  0  0  0  0
   17.7234  -19.6764  -14.1211 O   0  0  0  0  0  0  0  0  0  0  0  0
   17.9056  -18.8418  -13.2174 C   0  0  0  0  0  0  0  0  0  0  0  0
   19.6220  -22.2338  -12.5558 O   0  0  0  0  0  0  0  0  0  0  0  0
   18.8918  -22.2983  -11.5562 O   0  0  0  0  0  0  0  0  0  0  0  0
   16.6189  -19.4963  -14.9434 O   0  0  0  0  0  0  0  0  0  0  0  0
  2  3  2  0
  2  1  1  0
  4  2  1  0
  5  4  1  0
  6  5  1  0
  7  6  1  0
  8  7  1  0
  8  9  1  1
 10 11  2  0
 10  8  1  0
 12 10  1  0
 13 20  1  0
 13 12  1  0
 13 14  1  1
 15 14  1  0
 16 15  2  0
 17 18  1  0
 17 16  1  0
 18 19  2  0
 19 15  1  0
 20 21  2  0
 22 23  1  0
 22 20  1  0
 23 24  1  1
 24 25  1  0
 25 26  2  0
 25 29  1  0
 27 23  1  0
 28 27  2  0
 30 27  1  0
M  END
$$$$
