RHD.pdb
     RDKit          3D

 30 30  0  0  1  0  0  0  0  0999 V2000
    9.8315  -15.4929   -0.9655 N   0  0  0  0  0  0  0  0  0  0  0  0
    9.5622  -16.7022   -0.2549 C   0  0  0  0  0  0  0  0  0  0  0  0
    8.9548  -17.6923   -0.8124 N   0  0  0  0  0  0  0  0  0  0  0  0
    9.9696  -16.8230    1.0959 N   0  0  0  0  0  0  0  0  0  0  0  0
   10.7369  -15.7133    1.6701 C   0  0  0  0  0  0  0  0  0  0  0  0
   11.0757  -16.0722    3.0867 C   0  0  0  0  0  0  0  0  0  0  0  0
   12.3619  -16.8454    3.1462 C   0  0  0  0  0  0  0  0  0  0  0  0
   12.7706  -17.0541    4.5803 C   0  0  2  0  0  0  0  0  0  0  0  0
   12.3057  -15.9389    5.3847 N   0  0  0  0  0  0  0  0  0  0  0  0
   14.2598  -17.1517    4.6961 C   0  0  0  0  0  0  0  0  0  0  0  0
   14.8178  -18.0410    4.0232 O   0  0  0  0  0  0  0  0  0  0  0  0
    8.7323  -18.5611   -0.2979 N   0  0  0  0  0  0  0  0  0  0  0  0
   14.9634  -16.2646    5.5347 C   0  0  1  0  0  0  0  0  0  0  0  0
   16.4165  -16.4504    5.7111 C   0  0  0  0  0  0  0  0  0  0  0  0
   17.0419  -15.1177    5.4329 C   0  0  0  0  0  0  0  0  0  0  0  0
   17.6358  -14.9947    4.0926 C   0  0  0  0  0  0  0  0  0  0  0  0
   17.7410  -15.8481    3.0362 N   0  0  0  0  0  0  0  0  0  0  0  0
   18.3440  -15.1843    2.0221 C   0  0  0  0  0  0  0  0  0  0  0  0
   18.6090  -13.9498    2.4289 N   0  0  0  0  0  0  0  0  0  0  0  0
   18.1847  -13.8151    3.6873 C   0  0  0  0  0  0  0  0  0  0  0  0
   16.5586  -16.7397    7.1879 O   0  0  0  0  0  0  0  0  0  0  0  0
   15.7577  -16.3302    8.0574 N   0  0  0  0  0  0  0  0  0  0  0  0
   17.6429  -17.5116    7.6536 C   0  0  1  0  0  0  0  0  0  0  0  0
   17.7815  -17.8039    9.0918 C   0  0  0  0  0  0  0  0  0  0  0  0
   18.0163  -19.2681    9.1814 C   0  0  0  0  0  0  0  0  0  0  0  0
   18.1826  -19.8569   10.4932 O   0  0  0  0  0  0  0  0  0  0  0  0
   18.0837  -19.2075   11.5492 C   0  0  0  0  0  0  0  0  0  0  0  0
   18.7884  -16.9379    9.6925 O   0  0  0  0  0  0  0  0  0  0  0  0
   18.9629  -16.8708   10.9179 O   0  0  0  0  0  0  0  0  0  0  0  0
   18.4669  -21.2118   10.6011 O   0  0  0  0  0  0  0  0  0  0  0  0
  2  3  2  0
  2  1  1  0
  4  2  1  0
  5  4  1  0
  6  5  1  0
  7  6  1  0
  8  7  1  0
  8  9  1  1
 10 11  2  0
 10  8  1  0
 12 10  1  0
 13 20  1  0
 13 12  1  0
 13 14  1  6
 15 14  1  0
 16 15  2  0
 17 18  1  0
 17 16  1  0
 18 19  2  0
 19 15  1  0
 20 21  2  0
 22 23  1  0
 22 20  1  0
 23 24  1  1
 24 25  1  0
 25 26  2  0
 25 29  1  0
 27 23  1  0
 28 27  2  0
 30 27  1  0
M  END
$$$$
