WKV.pdb
     RDKit          3D

 31 32  0  0  1  0  0  0  0  0999 V2000
    5.6890  -18.0119   25.4851 N   0  0  0  0  0  0  0  0  0  0  0  0
    6.5552  -16.9969   24.9799 C   0  0  1  0  0  0  0  0  0  0  0  0
    7.2451  -16.2025   26.0669 C   0  0  0  0  0  0  0  0  0  0  0  0
    6.4165  -15.0084   26.3431 C   0  0  0  0  0  0  0  0  0  0  0  0
    5.0615  -15.0258   26.6183 C   0  0  0  0  0  0  0  0  0  0  0  0
    4.6222  -13.7660   26.8181 N   0  0  0  0  0  0  0  0  0  0  0  0
    5.6916  -12.9432   26.6719 C   0  0  0  0  0  0  0  0  0  0  0  0
    5.8456  -11.5695   26.7652 C   0  0  0  0  0  0  0  0  0  0  0  0
    7.0836  -10.9465   26.5710 C   0  0  0  0  0  0  0  0  0  0  0  0
    8.1699  -11.7423   26.2782 C   0  0  0  0  0  0  0  0  0  0  0  0
    8.0632  -13.1228   26.1745 C   0  0  0  0  0  0  0  0  0  0  0  0
    6.8095  -13.6904   26.3781 C   0  0  0  0  0  0  0  0  0  0  0  0
    7.5583  -17.5979   24.0249 C   0  0  0  0  0  0  0  0  0  0  0  0
    8.1883  -18.5550   24.4591 O   0  0  0  0  0  0  0  0  0  0  0  0
    7.7669  -17.1130   22.7379 N   0  0  0  0  0  0  0  0  0  0  0  0
    8.7120  -16.2598   22.1589 C   0  0  1  0  0  0  0  0  0  0  0  0
    8.3724  -15.1522   21.2531 C   0  0  0  0  0  0  0  0  0  0  0  0
    9.4392  -14.4790   20.4797 C   0  0  0  0  0  0  0  0  0  0  0  0
    8.8113  -13.8145   19.2375 C   0  0  0  0  0  0  0  0  0  0  0  0
    9.9095  -13.5266   18.2172 C   0  0  0  0  0  0  0  0  0  0  0  0
    9.3630  -13.0617   16.9628 N   0  0  0  0  0  0  0  0  0  0  0  0
    9.8136  -15.8509   23.0994 C   0  0  0  0  0  0  0  0  0  0  0  0
   10.9519  -15.5089   22.6400 O   0  0  0  0  0  0  0  0  0  0  0  0
    9.1158  -13.8149   26.4915 C   0  0  0  0  0  0  0  0  0  0  0  0
   10.1009  -14.9499   26.7200 C   0  0  2  0  0  0  0  0  0  0  0  0
   11.1213  -14.5832   27.7548 C   0  0  0  0  0  0  0  0  0  0  0  0
   10.7277  -15.3529   25.3992 C   0  0  2  0  0  0  0  0  0  0  0  0
    9.6798  -15.8120   24.5078 N   0  0  0  0  0  0  0  0  0  0  0  0
   11.8253  -16.3233   25.5545 C   0  0  0  0  0  0  0  0  0  0  0  0
   11.5935  -17.5587   25.6066 O   0  0  0  0  0  0  0  0  0  0  0  0
   13.1669  -15.9638   25.6537 O   0  0  0  0  0  0  0  0  0  0  0  0
  2  1  1  1
  3  2  1  0
  4  3  1  0
  4  5  2  0
  6  5  1  0
  7  6  1  0
  8  7  2  0
  9  8  1  0
 10  9  2  0
 10 11  1  0
 11 12  2  0
 12  7  1  0
 12  4  1  0
 13  2  1  0
 14 13  2  0
 15 13  1  0
 16 22  1  0
 16 15  1  0
 16 17  1  1
 18 17  1  0
 19 18  1  0
 20 19  1  0
 21 20  1  0
 22 28  1  0
 23 22  2  0
 25 24  1  6
 25 27  1  0
 25 26  1  0
 27 29  1  0
 27 28  1  6
 29 30  2  0
 29 31  1  0
M  END
$$$$
