WKV.pdb
     RDKit          3D

 31 32  0  0  1  0  0  0  0  0999 V2000
    6.5731  -18.6124   24.7779 N   0  0  0  0  0  0  0  0  0  0  0  0
    6.7969  -17.2493   24.4208 C   0  0  1  0  0  0  0  0  0  0  0  0
    7.6943  -16.5151   25.3926 C   0  0  0  0  0  0  0  0  0  0  0  0
    6.9598  -15.3211   25.8656 C   0  0  0  0  0  0  0  0  0  0  0  0
    5.6094  -15.2821   26.1607 C   0  0  0  0  0  0  0  0  0  0  0  0
    5.2675  -14.0400   26.5609 N   0  0  0  0  0  0  0  0  0  0  0  0
    6.3945  -13.2847   26.5231 C   0  0  0  0  0  0  0  0  0  0  0  0
    6.6518  -11.9571   26.8244 C   0  0  0  0  0  0  0  0  0  0  0  0
    7.9316  -11.4035   26.7050 C   0  0  0  0  0  0  0  0  0  0  0  0
    8.9528  -12.2213   26.2721 C   0  0  0  0  0  0  0  0  0  0  0  0
    8.7421  -13.5574   25.9587 C   0  0  0  0  0  0  0  0  0  0  0  0
    7.4508  -14.0568   26.0962 C   0  0  0  0  0  0  0  0  0  0  0  0
    7.3336  -17.1625   23.0123 C   0  0  0  0  0  0  0  0  0  0  0  0
    8.1232  -18.0447   22.6961 O   0  0  0  0  0  0  0  0  0  0  0  0
    6.9689  -16.1588   22.1210 N   0  0  0  0  0  0  0  0  0  0  0  0
    7.6784  -15.3098   21.2654 C   0  0  1  0  0  0  0  0  0  0  0  0
    7.2639  -13.9363   20.9422 C   0  0  0  0  0  0  0  0  0  0  0  0
    7.9357  -13.2020   19.8472 C   0  0  0  0  0  0  0  0  0  0  0  0
    7.8099  -14.0212   18.5465 C   0  0  0  0  0  0  0  0  0  0  0  0
    8.5603  -13.3012   17.4291 C   0  0  0  0  0  0  0  0  0  0  0  0
    8.5758  -14.0782   16.2108 N   0  0  0  0  0  0  0  0  0  0  0  0
    9.1710  -15.3798   21.4456 C   0  0  0  0  0  0  0  0  0  0  0  0
    9.9452  -15.1497   20.4599 O   0  0  0  0  0  0  0  0  0  0  0  0
   11.1823  -17.3217   24.7566 C   0  0  0  0  0  0  0  0  0  0  0  0
   11.5675  -15.9229   24.3029 C   0  0  2  0  0  0  0  0  0  0  0  0
   10.9138  -14.8766   25.1542 C   0  0  0  0  0  0  0  0  0  0  0  0
   11.2478  -15.7601   22.8294 C   0  0  2  0  0  0  0  0  0  0  0  0
    9.8079  -15.6902   22.6708 N   0  0  0  0  0  0  0  0  0  0  0  0
   11.8763  -16.7916   21.9860 C   0  0  0  0  0  0  0  0  0  0  0  0
   11.1789  -17.6528   21.3904 O   0  0  0  0  0  0  0  0  0  0  0  0
   13.2503  -16.8948   21.7855 O   0  0  0  0  0  0  0  0  0  0  0  0
  2  1  1  1
  3  2  1  0
  4  3  1  0
  4  5  2  0
  6  5  1  0
  7  6  1  0
  8  7  2  0
  9  8  1  0
 10  9  2  0
 10 11  1  0
 11 12  2  0
 12  7  1  0
 12  4  1  0
 13  2  1  0
 14 13  2  0
 15 13  1  0
 16 22  1  0
 16 15  1  0
 16 17  1  1
 18 17  1  0
 19 18  1  0
 20 19  1  0
 21 20  1  0
 22 28  1  0
 23 22  2  0
 25 24  1  1
 25 27  1  0
 25 26  1  0
 27 29  1  0
 27 28  1  1
 29 30  2  0
 29 31  1  0
M  END
$$$$
