WKV.pdb
     RDKit          3D

 31 32  0  0  1  0  0  0  0  0999 V2000
    6.1264  -17.0564   25.3363 N   0  0  0  0  0  0  0  0  0  0  0  0
    7.2386  -16.3429   24.7980 C   0  0  1  0  0  0  0  0  0  0  0  0
    7.7501  -15.2521   25.7131 C   0  0  0  0  0  0  0  0  0  0  0  0
    6.6446  -14.2926   25.9274 C   0  0  0  0  0  0  0  0  0  0  0  0
    5.3671  -14.6283   26.3368 C   0  0  0  0  0  0  0  0  0  0  0  0
    4.6121  -13.5141   26.4289 N   0  0  0  0  0  0  0  0  0  0  0  0
    5.4022  -12.4672   26.0801 C   0  0  0  0  0  0  0  0  0  0  0  0
    5.1781  -11.1027   25.9943 C   0  0  0  0  0  0  0  0  0  0  0  0
    6.1820  -10.2087   25.6048 C   0  0  0  0  0  0  0  0  0  0  0  0
    7.4241  -10.7224   25.3012 C   0  0  0  0  0  0  0  0  0  0  0  0
    7.6949  -12.0824   25.3729 C   0  0  0  0  0  0  0  0  0  0  0  0
    6.6613  -12.9264   25.7666 C   0  0  0  0  0  0  0  0  0  0  0  0
    8.3423  -17.3040   24.4269 C   0  0  0  0  0  0  0  0  0  0  0  0
    8.3851  -18.3347   25.0882 O   0  0  0  0  0  0  0  0  0  0  0  0
    9.2562  -17.0545   23.4084 N   0  0  0  0  0  0  0  0  0  0  0  0
   10.6370  -17.2312   23.2728 C   0  0  1  0  0  0  0  0  0  0  0  0
   11.3709  -17.0297   22.0144 C   0  0  0  0  0  0  0  0  0  0  0  0
   11.0762  -17.8859   20.8441 C   0  0  0  0  0  0  0  0  0  0  0  0
   11.9210  -17.4032   19.6474 C   0  0  0  0  0  0  0  0  0  0  0  0
   11.5858  -18.2537   18.4250 C   0  0  0  0  0  0  0  0  0  0  0  0
   12.2978  -17.8033   17.2509 N   0  0  0  0  0  0  0  0  0  0  0  0
   11.4314  -16.6999   24.4355 C   0  0  0  0  0  0  0  0  0  0  0  0
   12.3925  -15.8875   24.2348 O   0  0  0  0  0  0  0  0  0  0  0  0
   10.1331  -16.3293   28.4184 C   0  0  0  0  0  0  0  0  0  0  0  0
   11.3216  -15.6539   27.7534 C   0  0  2  0  0  0  0  0  0  0  0  0
   10.8980  -14.4315   26.9964 C   0  0  0  0  0  0  0  0  0  0  0  0
   12.0537  -16.6558   26.8816 C   0  0  2  0  0  0  0  0  0  0  0  0
   11.1849  -17.0420   25.7865 N   0  0  0  0  0  0  0  0  0  0  0  0
   12.5787  -17.8045   27.6402 C   0  0  0  0  0  0  0  0  0  0  0  0
   13.5041  -17.6565   28.4794 O   0  0  0  0  0  0  0  0  0  0  0  0
   12.1086  -19.1071   27.4946 O   0  0  0  0  0  0  0  0  0  0  0  0
  2  1  1  1
  3  2  1  0
  4  3  1  0
  4  5  2  0
  6  5  1  0
  7  6  1  0
  8  7  2  0
  9  8  1  0
 10  9  2  0
 10 11  1  0
 11 12  2  0
 12  7  1  0
 12  4  1  0
 13  2  1  0
 14 13  2  0
 15 13  1  0
 16 22  1  0
 16 15  1  0
 16 17  1  6
 18 17  1  0
 19 18  1  0
 20 19  1  0
 21 20  1  0
 22 28  1  0
 23 22  2  0
 25 24  1  6
 25 27  1  0
 25 26  1  0
 27 29  1  0
 27 28  1  6
 29 30  2  0
 29 31  1  0
M  END
$$$$
