WKV.pdb
     RDKit          3D

 31 32  0  0  1  0  0  0  0  0999 V2000
    6.1514  -17.0037   25.2229 N   0  0  0  0  0  0  0  0  0  0  0  0
    7.2360  -16.4782   24.4591 C   0  0  1  0  0  0  0  0  0  0  0  0
    7.8652  -15.2497   25.0786 C   0  0  0  0  0  0  0  0  0  0  0  0
    6.7704  -14.3333   25.4661 C   0  0  0  0  0  0  0  0  0  0  0  0
    5.4751  -14.7190   25.7589 C   0  0  0  0  0  0  0  0  0  0  0  0
    4.7371  -13.6334   26.0700 N   0  0  0  0  0  0  0  0  0  0  0  0
    5.5559  -12.5549   25.9775 C   0  0  0  0  0  0  0  0  0  0  0  0
    5.3584  -11.1992   26.1834 C   0  0  0  0  0  0  0  0  0  0  0  0
    6.3893  -10.2663   26.0238 C   0  0  0  0  0  0  0  0  0  0  0  0
    7.6311  -10.7316   25.6493 C   0  0  0  0  0  0  0  0  0  0  0  0
    7.8758  -12.0810   25.4318 C   0  0  0  0  0  0  0  0  0  0  0  0
    6.8159  -12.9653   25.6057 C   0  0  0  0  0  0  0  0  0  0  0  0
    8.2676  -17.5530   24.2138 C   0  0  0  0  0  0  0  0  0  0  0  0
    8.1514  -18.5592   24.9035 O   0  0  0  0  0  0  0  0  0  0  0  0
    9.2861  -17.4282   23.2747 N   0  0  0  0  0  0  0  0  0  0  0  0
   10.6756  -17.5827   23.3173 C   0  0  1  0  0  0  0  0  0  0  0  0
   11.5507  -17.4698   22.1408 C   0  0  0  0  0  0  0  0  0  0  0  0
   11.3441  -18.3638   20.9799 C   0  0  0  0  0  0  0  0  0  0  0  0
   11.6250  -17.5737   19.6855 C   0  0  0  0  0  0  0  0  0  0  0  0
   11.3426  -18.4703   18.4828 C   0  0  0  0  0  0  0  0  0  0  0  0
   11.5843  -17.7810   17.2359 N   0  0  0  0  0  0  0  0  0  0  0  0
   11.3192  -16.9374   24.5150 C   0  0  0  0  0  0  0  0  0  0  0  0
   12.3859  -16.2541   24.3767 O   0  0  0  0  0  0  0  0  0  0  0  0
   10.5110  -14.1834   26.4994 C   0  0  0  0  0  0  0  0  0  0  0  0
   10.5685  -15.3163   27.5115 C   0  0  2  0  0  0  0  0  0  0  0  0
   11.0031  -14.8204   28.8575 C   0  0  0  0  0  0  0  0  0  0  0  0
   11.4574  -16.4255   26.9831 C   0  0  2  0  0  0  0  0  0  0  0  0
   10.8128  -17.0304   25.8334 N   0  0  0  0  0  0  0  0  0  0  0  0
   11.8362  -17.4029   28.0183 C   0  0  0  0  0  0  0  0  0  0  0  0
   11.3215  -18.5506   28.0431 O   0  0  0  0  0  0  0  0  0  0  0  0
   12.7654  -17.1446   29.0227 O   0  0  0  0  0  0  0  0  0  0  0  0
  2  1  1  1
  3  2  1  0
  4  3  1  0
  4  5  2  0
  6  5  1  0
  7  6  1  0
  8  7  2  0
  9  8  1  0
 10  9  2  0
 10 11  1  0
 11 12  2  0
 12  7  1  0
 12  4  1  0
 13  2  1  0
 14 13  2  0
 15 13  1  0
 16 22  1  0
 16 15  1  0
 16 17  1  6
 18 17  1  0
 19 18  1  0
 20 19  1  0
 21 20  1  0
 22 28  1  0
 23 22  2  0
 25 24  1  6
 25 27  1  0
 25 26  1  0
 27 29  1  0
 27 28  1  6
 29 30  2  0
 29 31  1  0
M  END
$$$$
