WKV.pdb
     RDKit          3D

 31 32  0  0  1  0  0  0  0  0999 V2000
    6.1964  -17.6285   25.0268 N   0  0  0  0  0  0  0  0  0  0  0  0
    6.8170  -16.5222   24.3736 C   0  0  1  0  0  0  0  0  0  0  0  0
    7.8341  -15.8099   25.2379 C   0  0  0  0  0  0  0  0  0  0  0  0
    7.0961  -14.8931   26.1343 C   0  0  0  0  0  0  0  0  0  0  0  0
    6.1415  -15.2792   27.0574 C   0  0  0  0  0  0  0  0  0  0  0  0
    5.6685  -14.1933   27.7030 N   0  0  0  0  0  0  0  0  0  0  0  0
    6.3172  -13.1142   27.1963 C   0  0  0  0  0  0  0  0  0  0  0  0
    6.2509  -11.7579   27.4708 C   0  0  0  0  0  0  0  0  0  0  0  0
    7.0466  -10.8244   26.7971 C   0  0  0  0  0  0  0  0  0  0  0  0
    7.9158  -11.2897   25.8343 C   0  0  0  0  0  0  0  0  0  0  0  0
    8.0164  -12.6397   25.5254 C   0  0  0  0  0  0  0  0  0  0  0  0
    7.2031  -13.5246   26.2261 C   0  0  0  0  0  0  0  0  0  0  0  0
    7.4291  -16.9668   23.0670 C   0  0  0  0  0  0  0  0  0  0  0  0
    8.1611  -17.9470   23.1369 O   0  0  0  0  0  0  0  0  0  0  0  0
    7.1904  -16.3217   21.8580 N   0  0  0  0  0  0  0  0  0  0  0  0
    8.0089  -15.7266   20.8924 C   0  0  1  0  0  0  0  0  0  0  0  0
    7.7708  -14.3912   20.3242 C   0  0  0  0  0  0  0  0  0  0  0  0
    8.6087  -13.9063   19.2051 C   0  0  0  0  0  0  0  0  0  0  0  0
    7.7833  -13.9623   17.9034 C   0  0  0  0  0  0  0  0  0  0  0  0
    8.6780  -13.5750   16.7287 C   0  0  0  0  0  0  0  0  0  0  0  0
    8.0115  -13.7761   15.4623 N   0  0  0  0  0  0  0  0  0  0  0  0
    9.4793  -15.9421   21.1304 C   0  0  0  0  0  0  0  0  0  0  0  0
   10.0813  -15.2888   22.0440 O   0  0  0  0  0  0  0  0  0  0  0  0
   11.4029  -19.4212   20.0688 C   0  0  0  0  0  0  0  0  0  0  0  0
   11.9604  -18.4332   21.0808 C   0  0  2  0  0  0  0  0  0  0  0  0
   11.4099  -18.6905   22.4510 C   0  0  0  0  0  0  0  0  0  0  0  0
   11.7021  -17.0168   20.6044 C   0  0  2  0  0  0  0  0  0  0  0  0
   10.2770  -16.8496   20.3934 N   0  0  0  0  0  0  0  0  0  0  0  0
   12.5110  -16.6474   19.4298 C   0  0  0  0  0  0  0  0  0  0  0  0
   12.0096  -16.6400   18.2760 O   0  0  0  0  0  0  0  0  0  0  0  0
   13.8545  -16.2878   19.4983 O   0  0  0  0  0  0  0  0  0  0  0  0
  2  1  1  1
  3  2  1  0
  4  3  1  0
  4  5  2  0
  6  5  1  0
  7  6  1  0
  8  7  2  0
  9  8  1  0
 10  9  2  0
 10 11  1  0
 11 12  2  0
 12  7  1  0
 12  4  1  0
 13  2  1  0
 14 13  2  0
 15 13  1  0
 16 22  1  0
 16 15  1  0
 16 17  1  1
 18 17  1  0
 19 18  1  0
 20 19  1  0
 21 20  1  0
 22 28  1  0
 23 22  2  0
 25 24  1  6
 25 27  1  0
 25 26  1  0
 27 29  1  0
 27 28  1  6
 29 30  2  0
 29 31  1  0
M  END
$$$$
