WKV.pdb
     RDKit          3D

 31 32  0  0  1  0  0  0  0  0999 V2000
    6.5214  -18.2593   25.5148 N   0  0  0  0  0  0  0  0  0  0  0  0
    6.8617  -17.0025   24.9315 C   0  0  1  0  0  0  0  0  0  0  0  0
    7.7102  -16.1335   25.8336 C   0  0  0  0  0  0  0  0  0  0  0  0
    6.9070  -14.9446   26.1944 C   0  0  0  0  0  0  0  0  0  0  0  0
    5.5559  -14.9558   26.4885 C   0  0  0  0  0  0  0  0  0  0  0  0
    5.1420  -13.7033   26.7711 N   0  0  0  0  0  0  0  0  0  0  0  0
    6.2237  -12.8913   26.6591 C   0  0  0  0  0  0  0  0  0  0  0  0
    6.4035  -11.5287   26.8334 C   0  0  0  0  0  0  0  0  0  0  0  0
    7.6495  -10.9160   26.6587 C   0  0  0  0  0  0  0  0  0  0  0  0
    8.7172  -11.7107   26.3016 C   0  0  0  0  0  0  0  0  0  0  0  0
    8.5845  -13.0804   26.1158 C   0  0  0  0  0  0  0  0  0  0  0  0
    7.3238  -13.6381   26.3035 C   0  0  0  0  0  0  0  0  0  0  0  0
    7.5299  -17.2142   23.5942 C   0  0  0  0  0  0  0  0  0  0  0  0
    8.2355  -18.2127   23.5122 O   0  0  0  0  0  0  0  0  0  0  0  0
    7.3678  -16.3474   22.5184 N   0  0  0  0  0  0  0  0  0  0  0  0
    8.2082  -15.8945   21.4963 C   0  0  1  0  0  0  0  0  0  0  0  0
    7.8836  -14.7721   20.6032 C   0  0  0  0  0  0  0  0  0  0  0  0
    8.7801  -14.4476   19.4716 C   0  0  0  0  0  0  0  0  0  0  0  0
    8.0178  -13.5547   18.4714 C   0  0  0  0  0  0  0  0  0  0  0  0
    8.7091  -13.6255   17.1122 C   0  0  0  0  0  0  0  0  0  0  0  0
    7.9943  -12.8678   16.1106 N   0  0  0  0  0  0  0  0  0  0  0  0
    9.6625  -15.8557   21.8821 C   0  0  0  0  0  0  0  0  0  0  0  0
   10.1172  -14.8789   22.5627 O   0  0  0  0  0  0  0  0  0  0  0  0
   12.0497  -19.2881   21.8514 C   0  0  0  0  0  0  0  0  0  0  0  0
   12.3362  -18.0612   22.7021 C   0  0  2  0  0  0  0  0  0  0  0  0
   11.6159  -18.1302   24.0147 C   0  0  0  0  0  0  0  0  0  0  0  0
   12.0001  -16.8081   21.9169 C   0  0  2  0  0  0  0  0  0  0  0  0
   10.6009  -16.8577   21.5382 N   0  0  0  0  0  0  0  0  0  0  0  0
   12.9037  -16.5836   20.7752 C   0  0  0  0  0  0  0  0  0  0  0  0
   12.5257  -16.8113   19.5971 O   0  0  0  0  0  0  0  0  0  0  0  0
   14.2092  -16.1162   20.9026 O   0  0  0  0  0  0  0  0  0  0  0  0
  2  1  1  1
  3  2  1  0
  4  3  1  0
  4  5  2  0
  6  5  1  0
  7  6  1  0
  8  7  2  0
  9  8  1  0
 10  9  2  0
 10 11  1  0
 11 12  2  0
 12  7  1  0
 12  4  1  0
 13  2  1  0
 14 13  2  0
 15 13  1  0
 16 22  1  0
 16 15  1  0
 16 17  1  1
 18 17  1  0
 19 18  1  0
 20 19  1  0
 21 20  1  0
 22 28  1  0
 23 22  2  0
 25 24  1  6
 25 27  1  0
 25 26  1  0
 27 29  1  0
 27 28  1  6
 29 30  2  0
 29 31  1  0
M  END
$$$$
