WKV.pdb
     RDKit          3D

 31 32  0  0  1  0  0  0  0  0999 V2000
    6.2321  -17.2206   25.1662 N   0  0  0  0  0  0  0  0  0  0  0  0
    7.4027  -16.4979   24.7876 C   0  0  1  0  0  0  0  0  0  0  0  0
    7.8461  -15.4898   25.8248 C   0  0  0  0  0  0  0  0  0  0  0  0
    6.7830  -14.4672   25.9382 C   0  0  0  0  0  0  0  0  0  0  0  0
    5.4592  -14.7253   26.2435 C   0  0  0  0  0  0  0  0  0  0  0  0
    4.7637  -13.5695   26.2627 N   0  0  0  0  0  0  0  0  0  0  0  0
    5.6381  -12.5733   25.9711 C   0  0  0  0  0  0  0  0  0  0  0  0
    5.4998  -11.1996   25.8547 C   0  0  0  0  0  0  0  0  0  0  0  0
    6.5814  -10.3686   25.5417 C   0  0  0  0  0  0  0  0  0  0  0  0
    7.8131  -10.9551   25.3466 C   0  0  0  0  0  0  0  0  0  0  0  0
    7.9993  -12.3270   25.4527 C   0  0  0  0  0  0  0  0  0  0  0  0
    6.8905  -13.1064   25.7671 C   0  0  0  0  0  0  0  0  0  0  0  0
    8.5185  -17.4569   24.4488 C   0  0  0  0  0  0  0  0  0  0  0  0
    8.6082  -18.4369   25.1789 O   0  0  0  0  0  0  0  0  0  0  0  0
    9.3938  -17.2589   23.3859 N   0  0  0  0  0  0  0  0  0  0  0  0
   10.7866  -17.2414   23.2603 C   0  0  1  0  0  0  0  0  0  0  0  0
   11.4991  -16.7024   22.0922 C   0  0  0  0  0  0  0  0  0  0  0  0
   12.9593  -16.9033   21.9621 C   0  0  0  0  0  0  0  0  0  0  0  0
   13.3590  -16.7162   20.4843 C   0  0  0  0  0  0  0  0  0  0  0  0
   14.8545  -16.9831   20.3345 C   0  0  0  0  0  0  0  0  0  0  0  0
   15.3212  -16.6690   19.0035 N   0  0  0  0  0  0  0  0  0  0  0  0
   11.5034  -16.8699   24.5306 C   0  0  0  0  0  0  0  0  0  0  0  0
   12.7368  -16.5510   24.4986 O   0  0  0  0  0  0  0  0  0  0  0  0
    9.6171  -15.5904   28.2225 C   0  0  0  0  0  0  0  0  0  0  0  0
   10.9616  -15.2391   27.6061 C   0  0  2  0  0  0  0  0  0  0  0  0
   10.8259  -14.1377   26.5986 C   0  0  0  0  0  0  0  0  0  0  0  0
   11.5960  -16.4876   27.0242 C   0  0  2  0  0  0  0  0  0  0  0  0
   10.8923  -16.8430   25.8069 N   0  0  0  0  0  0  0  0  0  0  0  0
   11.6803  -17.5956   27.9915 C   0  0  0  0  0  0  0  0  0  0  0  0
   11.0078  -18.6466   27.8309 O   0  0  0  0  0  0  0  0  0  0  0  0
   12.4857  -17.5709   29.1272 O   0  0  0  0  0  0  0  0  0  0  0  0
  2  1  1  1
  3  2  1  0
  4  3  1  0
  4  5  2  0
  6  5  1  0
  7  6  1  0
  8  7  2  0
  9  8  1  0
 10  9  2  0
 10 11  1  0
 11 12  2  0
 12  7  1  0
 12  4  1  0
 13  2  1  0
 14 13  2  0
 15 13  1  0
 16 22  1  0
 16 15  1  0
 16 17  1  6
 18 17  1  0
 19 18  1  0
 20 19  1  0
 21 20  1  0
 22 28  1  0
 23 22  2  0
 25 24  1  6
 25 27  1  0
 25 26  1  0
 27 29  1  0
 27 28  1  6
 29 30  2  0
 29 31  1  0
M  END
$$$$
