WKV.pdb
     RDKit          3D

 31 32  0  0  1  0  0  0  0  0999 V2000
    6.1825  -17.2082   24.2894 N   0  0  0  0  0  0  0  0  0  0  0  0
    7.4028  -16.5231   24.5674 C   0  0  1  0  0  0  0  0  0  0  0  0
    7.4494  -15.9216   25.9548 C   0  0  0  0  0  0  0  0  0  0  0  0
    6.5301  -14.7626   25.9714 C   0  0  0  0  0  0  0  0  0  0  0  0
    5.2258  -14.7874   26.4302 C   0  0  0  0  0  0  0  0  0  0  0  0
    4.6747  -13.5631   26.2990 N   0  0  0  0  0  0  0  0  0  0  0  0
    5.6219  -12.7554   25.7582 C   0  0  0  0  0  0  0  0  0  0  0  0
    5.6316  -11.4152   25.4071 C   0  0  0  0  0  0  0  0  0  0  0  0
    6.7621  -10.8001   24.8575 C   0  0  0  0  0  0  0  0  0  0  0  0
    7.8896  -11.5692   24.6674 C   0  0  0  0  0  0  0  0  0  0  0  0
    7.9263  -12.9158   25.0041 C   0  0  0  0  0  0  0  0  0  0  0  0
    6.7751  -13.4768   25.5480 C   0  0  0  0  0  0  0  0  0  0  0  0
    8.5789  -17.4400   24.3319 C   0  0  0  0  0  0  0  0  0  0  0  0
    8.6643  -18.3918   25.0989 O   0  0  0  0  0  0  0  0  0  0  0  0
    9.5109  -17.2352   23.3198 N   0  0  0  0  0  0  0  0  0  0  0  0
   10.8707  -16.9085   23.2984 C   0  0  1  0  0  0  0  0  0  0  0  0
   11.4985  -16.0746   22.2624 C   0  0  0  0  0  0  0  0  0  0  0  0
   11.3880  -16.4608   20.8383 C   0  0  0  0  0  0  0  0  0  0  0  0
    9.9295  -16.2602   20.3787 C   0  0  0  0  0  0  0  0  0  0  0  0
    9.8172  -16.6271   18.9013 C   0  0  0  0  0  0  0  0  0  0  0  0
    9.9582  -18.0502   18.6934 N   0  0  0  0  0  0  0  0  0  0  0  0
   11.4338  -16.5755   24.6539 C   0  0  0  0  0  0  0  0  0  0  0  0
   12.6610  -16.2542   24.7747 O   0  0  0  0  0  0  0  0  0  0  0  0
   10.4031  -13.8961   26.9651 C   0  0  0  0  0  0  0  0  0  0  0  0
   10.3317  -15.1797   27.7765 C   0  0  2  0  0  0  0  0  0  0  0  0
   10.6623  -14.9306   29.2171 C   0  0  0  0  0  0  0  0  0  0  0  0
   11.2250  -16.2304   27.1458 C   0  0  2  0  0  0  0  0  0  0  0  0
   10.6790  -16.5889   25.8509 N   0  0  0  0  0  0  0  0  0  0  0  0
   11.4549  -17.3925   28.0217 C   0  0  0  0  0  0  0  0  0  0  0  0
   10.9515  -18.5138   27.7535 O   0  0  0  0  0  0  0  0  0  0  0  0
   12.2236  -17.3463   29.1818 O   0  0  0  0  0  0  0  0  0  0  0  0
  2  1  1  1
  3  2  1  0
  4  3  1  0
  4  5  2  0
  6  5  1  0
  7  6  1  0
  8  7  2  0
  9  8  1  0
 10  9  2  0
 10 11  1  0
 11 12  2  0
 12  7  1  0
 12  4  1  0
 13  2  1  0
 14 13  2  0
 15 13  1  0
 16 22  1  0
 16 15  1  0
 16 17  1  6
 18 17  1  0
 19 18  1  0
 20 19  1  0
 21 20  1  0
 22 28  1  0
 23 22  2  0
 25 24  1  6
 25 27  1  0
 25 26  1  0
 27 29  1  0
 27 28  1  6
 29 30  2  0
 29 31  1  0
M  END
$$$$
