ACN.pdb
     RDKit          3D

 20 19  0  0  1  0  0  0  0  0999 V2000
   21.6794  -13.3766  -17.8609 C   0  0  0  0  0  0  0  0  0  0  0  0
   22.4590  -12.1050  -18.0931 C   0  0  2  0  0  0  0  0  0  0  0  0
   23.7494  -12.3209  -18.7088 N   0  0  0  0  0  0  0  0  0  0  0  0
   22.6455  -11.2995  -16.8682 C   0  0  0  0  0  0  0  0  0  0  0  0
   21.6843  -10.9591  -16.1218 O   0  0  0  0  0  0  0  0  0  0  0  0
   23.9402  -10.8832  -16.5047 N   0  0  0  0  0  0  0  0  0  0  0  0
   24.2134  -10.0284  -15.3485 C   0  0  1  0  0  0  0  0  0  0  0  0
   25.5442  -10.3994  -14.7955 C   0  0  0  0  0  0  0  0  0  0  0  0
   26.8936  -10.1802  -15.9682 S   0  0  0  0  0  0  0  0  0  0  0  0
   24.1298   -8.6054  -15.8131 C   0  0  0  0  0  0  0  0  0  0  0  0
   24.7339   -8.2711  -16.8507 O   0  0  0  0  0  0  0  0  0  0  0  0
   21.4833   -4.6525  -18.4642 N   0  0  0  0  0  0  0  0  0  0  0  0
   22.2639   -4.8781  -17.3174 C   0  0  0  0  0  0  0  0  0  0  0  0
   22.7094   -3.8996  -16.6737 O   0  0  0  0  0  0  0  0  0  0  0  0
   22.5684   -6.2301  -16.8544 C   0  0  0  0  0  0  0  0  0  0  0  0
   23.1477   -6.2953  -15.4656 C   0  0  2  0  0  0  0  0  0  0  0  0
   23.3806   -7.6753  -15.0776 N   0  0  0  0  0  0  0  0  0  0  0  0
   22.3351   -5.6482  -14.4308 C   0  0  0  0  0  0  0  0  0  0  0  0
   21.3521   -6.4209  -13.7821 O   0  0  0  0  0  0  0  0  0  0  0  0
   22.4118   -4.4592  -14.0437 O   0  0  0  0  0  0  0  0  0  0  0  0
  2  1  1  1
  2  3  1  0
  4  2  1  0
  4  5  2  0
  6  4  1  0
  7  6  1  0
  7  8  1  6
  9  8  1  0
 10  7  1  0
 10 17  1  0
 11 10  2  0
 13 15  1  0
 13 12  1  0
 14 13  2  0
 16 15  1  6
 16 17  1  0
 16 18  1  0
 18 20  2  0
 18 19  1  0
M  END
$$$$
