ACN.pdb
     RDKit          3D

 20 19  0  0  1  0  0  0  0  0999 V2000
   20.3595   -9.7794  -18.5519 C   0  0  0  0  0  0  0  0  0  0  0  0
   20.3814  -10.2727  -17.1255 C   0  0  2  0  0  0  0  0  0  0  0  0
   19.4276  -11.3272  -16.8624 N   0  0  0  0  0  0  0  0  0  0  0  0
   20.1879   -9.1976  -16.1301 C   0  0  0  0  0  0  0  0  0  0  0  0
   19.0711   -8.6387  -15.9370 O   0  0  0  0  0  0  0  0  0  0  0  0
   21.2827   -8.7639  -15.3589 N   0  0  0  0  0  0  0  0  0  0  0  0
   21.1799   -7.7269  -14.3311 C   0  0  1  0  0  0  0  0  0  0  0  0
   21.8861   -8.2046  -13.1113 C   0  0  0  0  0  0  0  0  0  0  0  0
   21.0634   -9.5880  -12.3028 S   0  0  0  0  0  0  0  0  0  0  0  0
   21.7552   -6.4673  -14.9056 C   0  0  0  0  0  0  0  0  0  0  0  0
   22.4657   -6.5376  -15.9272 O   0  0  0  0  0  0  0  0  0  0  0  0
   21.7095   -1.5045  -16.3452 N   0  0  0  0  0  0  0  0  0  0  0  0
   21.0336   -2.5965  -16.9163 C   0  0  0  0  0  0  0  0  0  0  0  0
   20.4546   -2.4540  -18.0184 O   0  0  0  0  0  0  0  0  0  0  0  0
   20.9908   -3.8989  -16.2553 C   0  0  0  0  0  0  0  0  0  0  0  0
   21.6662   -3.9348  -14.9095 C   0  0  2  0  0  0  0  0  0  0  0  0
   21.4906   -5.2359  -14.2886 N   0  0  0  0  0  0  0  0  0  0  0  0
   21.2174   -2.9026  -13.9699 C   0  0  0  0  0  0  0  0  0  0  0  0
   20.0504   -3.1517  -13.2214 O   0  0  0  0  0  0  0  0  0  0  0  0
   21.7612   -1.7962  -13.7466 O   0  0  0  0  0  0  0  0  0  0  0  0
  2  1  1  6
  2  3  1  0
  4  2  1  0
  4  5  2  0
  6  4  1  0
  7  6  1  0
  7  8  1  1
  9  8  1  0
 10  7  1  0
 10 17  1  0
 11 10  2  0
 13 15  1  0
 13 12  1  0
 14 13  2  0
 16 15  1  6
 16 17  1  0
 16 18  1  0
 18 20  2  0
 18 19  1  0
M  END
$$$$
