ACN.pdb
     RDKit          3D

 20 19  0  0  1  0  0  0  0  0999 V2000
   13.4528  -11.4846  -11.2627 C   0  0  0  0  0  0  0  0  0  0  0  0
   14.8111  -10.9049  -11.5751 C   0  0  2  0  0  0  0  0  0  0  0  0
   15.8985  -11.5834  -10.9057 N   0  0  0  0  0  0  0  0  0  0  0  0
   14.9096   -9.4573  -11.2946 C   0  0  0  0  0  0  0  0  0  0  0  0
   14.0883   -8.6150  -11.7559 O   0  0  0  0  0  0  0  0  0  0  0  0
   15.9570   -8.9795  -10.4846 N   0  0  0  0  0  0  0  0  0  0  0  0
   16.2179   -7.5558  -10.2671 C   0  0  1  0  0  0  0  0  0  0  0  0
   15.7938   -7.2078   -8.8837 C   0  0  0  0  0  0  0  0  0  0  0  0
   16.5720   -5.7118   -8.2509 S   0  0  0  0  0  0  0  0  0  0  0  0
   17.6759   -7.3223  -10.5266 C   0  0  0  0  0  0  0  0  0  0  0  0
   18.5162   -8.0316   -9.9399 O   0  0  0  0  0  0  0  0  0  0  0  0
   21.8762   -6.0922  -13.3246 N   0  0  0  0  0  0  0  0  0  0  0  0
   21.1826   -7.3129  -13.2592 C   0  0  0  0  0  0  0  0  0  0  0  0
   21.6709   -8.3285  -13.8072 O   0  0  0  0  0  0  0  0  0  0  0  0
   19.9027   -7.4279  -12.5637 C   0  0  0  0  0  0  0  0  0  0  0  0
   19.4148   -6.1444  -11.9446 C   0  0  2  0  0  0  0  0  0  0  0  0
   18.0722   -6.3141  -11.4174 N   0  0  0  0  0  0  0  0  0  0  0  0
   19.4221   -4.9872  -12.8448 C   0  0  0  0  0  0  0  0  0  0  0  0
   20.5898   -4.2015  -12.9028 O   0  0  0  0  0  0  0  0  0  0  0  0
   18.4902   -4.6027  -13.5886 O   0  0  0  0  0  0  0  0  0  0  0  0
  2  1  1  1
  2  3  1  0
  4  2  1  0
  4  5  2  0
  6  4  1  0
  7  6  1  0
  7  8  1  1
  9  8  1  0
 10  7  1  0
 10 17  1  0
 11 10  2  0
 13 15  1  0
 13 12  1  0
 14 13  2  0
 16 15  1  6
 16 17  1  0
 16 18  1  0
 18 20  2  0
 18 19  1  0
M  END
$$$$
