ACN.pdb
     RDKit          3D

 20 19  0  0  1  0  0  0  0  0999 V2000
   17.2991   -9.9302  -18.8141 C   0  0  0  0  0  0  0  0  0  0  0  0
   18.3100  -10.5970  -17.9130 C   0  0  2  0  0  0  0  0  0  0  0  0
   17.8910  -11.8950  -17.4330 N   0  0  0  0  0  0  0  0  0  0  0  0
   18.7020   -9.7660  -16.7555 C   0  0  0  0  0  0  0  0  0  0  0  0
   17.8898   -9.4361  -15.8454 O   0  0  0  0  0  0  0  0  0  0  0  0
   20.0301   -9.3121  -16.6482 N   0  0  0  0  0  0  0  0  0  0  0  0
   20.5009   -8.4586  -15.5564 C   0  0  1  0  0  0  0  0  0  0  0  0
   21.6993   -9.0962  -14.9466 C   0  0  0  0  0  0  0  0  0  0  0  0
   22.3242   -8.2152  -13.5053 S   0  0  0  0  0  0  0  0  0  0  0  0
   20.7688   -7.1005  -16.1323 C   0  0  0  0  0  0  0  0  0  0  0  0
   21.0233   -6.9982  -17.3481 O   0  0  0  0  0  0  0  0  0  0  0  0
   20.2099   -2.2645  -18.1264 N   0  0  0  0  0  0  0  0  0  0  0  0
   19.7859   -2.6934  -16.8569 C   0  0  0  0  0  0  0  0  0  0  0  0
   19.4389   -1.8435  -16.0041 O   0  0  0  0  0  0  0  0  0  0  0  0
   19.7376   -4.1111  -16.5064 C   0  0  0  0  0  0  0  0  0  0  0  0
   20.9375   -4.6027  -15.7399 C   0  0  2  0  0  0  0  0  0  0  0  0
   20.7326   -5.9717  -15.3006 N   0  0  0  0  0  0  0  0  0  0  0  0
   21.2993   -3.7864  -14.5770 C   0  0  0  0  0  0  0  0  0  0  0  0
   21.6933   -2.4528  -14.8015 O   0  0  0  0  0  0  0  0  0  0  0  0
   21.3003   -4.1415  -13.3755 O   0  0  0  0  0  0  0  0  0  0  0  0
  2  1  1  1
  2  3  1  0
  4  2  1  0
  4  5  2  0
  6  4  1  0
  7  6  1  0
  7  8  1  6
  9  8  1  0
 10  7  1  0
 10 17  1  0
 11 10  2  0
 13 15  1  0
 13 12  1  0
 14 13  2  0
 16 15  1  1
 16 17  1  0
 16 18  1  0
 18 20  2  0
 18 19  1  0
M  END
$$$$
