ACN.pdb
     RDKit          3D

 20 19  0  0  1  0  0  0  0  0999 V2000
   19.8245  -14.0455  -18.8953 C   0  0  0  0  0  0  0  0  0  0  0  0
   20.1320  -13.4225  -17.5552 C   0  0  2  0  0  0  0  0  0  0  0  0
   19.8972  -14.3085  -16.4368 N   0  0  0  0  0  0  0  0  0  0  0  0
   19.4091  -12.1556  -17.3178 C   0  0  0  0  0  0  0  0  0  0  0  0
   19.4390  -11.1894  -18.1318 O   0  0  0  0  0  0  0  0  0  0  0  0
   18.6536  -12.0005  -16.1402 N   0  0  0  0  0  0  0  0  0  0  0  0
   17.8599  -10.8062  -15.8472 C   0  0  1  0  0  0  0  0  0  0  0  0
   16.6039  -11.2323  -15.1723 C   0  0  0  0  0  0  0  0  0  0  0  0
   15.9312  -12.7734  -15.8177 S   0  0  0  0  0  0  0  0  0  0  0  0
   18.7113   -9.8949  -15.0152 C   0  0  0  0  0  0  0  0  0  0  0  0
   19.8343  -10.2878  -14.6436 O   0  0  0  0  0  0  0  0  0  0  0  0
   22.3131   -6.1336  -15.2090 N   0  0  0  0  0  0  0  0  0  0  0  0
   21.4177   -6.6725  -14.2693 C   0  0  0  0  0  0  0  0  0  0  0  0
   21.3963   -6.2112  -13.1044 O   0  0  0  0  0  0  0  0  0  0  0  0
   20.5064   -7.7599  -14.6188 C   0  0  0  0  0  0  0  0  0  0  0  0
   19.0651   -7.4998  -14.2669 C   0  0  2  0  0  0  0  0  0  0  0  0
   18.2351   -8.6227  -14.6659 N   0  0  0  0  0  0  0  0  0  0  0  0
   18.5042   -6.2740  -14.8436 C   0  0  0  0  0  0  0  0  0  0  0  0
   17.5929   -6.4015  -15.9100 O   0  0  0  0  0  0  0  0  0  0  0  0
   18.7443   -5.0955  -14.4929 O   0  0  0  0  0  0  0  0  0  0  0  0
  2  1  1  6
  2  3  1  0
  4  2  1  0
  4  5  2  0
  6  4  1  0
  7  6  1  0
  7  8  1  1
  9  8  1  0
 10  7  1  0
 10 17  1  0
 11 10  2  0
 13 15  1  0
 13 12  1  0
 14 13  2  0
 16 15  1  6
 16 17  1  0
 16 18  1  0
 18 20  2  0
 18 19  1  0
M  END
$$$$
