ACN.pdb
     RDKit          3D

 20 19  0  0  1  0  0  0  0  0999 V2000
   19.4767  -12.7248  -17.6037 C   0  0  0  0  0  0  0  0  0  0  0  0
   19.9649  -11.3639  -18.0375 C   0  0  2  0  0  0  0  0  0  0  0  0
   20.8630  -11.4045  -19.1700 N   0  0  0  0  0  0  0  0  0  0  0  0
   20.6064  -10.5968  -16.9494 C   0  0  0  0  0  0  0  0  0  0  0  0
   20.0573  -10.4159  -15.8257 O   0  0  0  0  0  0  0  0  0  0  0  0
   21.8803  -10.0350  -17.1571 N   0  0  0  0  0  0  0  0  0  0  0  0
   22.5344   -9.1503  -16.1920 C   0  0  1  0  0  0  0  0  0  0  0  0
   24.0050   -9.3570  -16.2887 C   0  0  0  0  0  0  0  0  0  0  0  0
   24.6215  -10.6429  -15.1886 S   0  0  0  0  0  0  0  0  0  0  0  0
   22.1015   -7.7490  -16.5030 C   0  0  0  0  0  0  0  0  0  0  0  0
   21.6954   -7.4817  -17.6506 O   0  0  0  0  0  0  0  0  0  0  0  0
   19.3485   -3.4321  -17.1253 N   0  0  0  0  0  0  0  0  0  0  0  0
   19.4785   -4.1783  -15.9413 C   0  0  0  0  0  0  0  0  0  0  0  0
   19.0146   -3.7205  -14.8711 O   0  0  0  0  0  0  0  0  0  0  0  0
   20.1418   -5.4801  -15.9279 C   0  0  0  0  0  0  0  0  0  0  0  0
   21.6156   -5.4232  -15.6220 C   0  0  2  0  0  0  0  0  0  0  0  0
   22.1616   -6.7639  -15.5064 N   0  0  0  0  0  0  0  0  0  0  0  0
   21.9627   -4.6698  -14.4131 C   0  0  0  0  0  0  0  0  0  0  0  0
   22.0813   -3.2701  -14.5170 O   0  0  0  0  0  0  0  0  0  0  0  0
   22.1721   -5.1333  -13.2681 O   0  0  0  0  0  0  0  0  0  0  0  0
  2  1  1  1
  2  3  1  0
  4  2  1  0
  4  5  2  0
  6  4  1  0
  7  6  1  0
  7  8  1  6
  9  8  1  0
 10  7  1  0
 10 17  1  0
 11 10  2  0
 13 15  1  0
 13 12  1  0
 14 13  2  0
 16 15  1  1
 16 17  1  0
 16 18  1  0
 18 20  2  0
 18 19  1  0
M  END
$$$$
