ACN.pdb
     RDKit          3D

 20 19  0  0  1  0  0  0  0  0999 V2000
   18.6479  -13.6635  -17.1520 C   0  0  0  0  0  0  0  0  0  0  0  0
   19.5830  -12.4785  -17.1565 C   0  0  2  0  0  0  0  0  0  0  0  0
   20.8544  -12.7415  -16.5200 N   0  0  0  0  0  0  0  0  0  0  0  0
   18.9931  -11.2638  -16.5563 C   0  0  0  0  0  0  0  0  0  0  0  0
   17.8689  -10.8055  -16.9071 O   0  0  0  0  0  0  0  0  0  0  0  0
   19.7005  -10.5745  -15.5532 N   0  0  0  0  0  0  0  0  0  0  0  0
   19.1994   -9.3602  -14.9079 C   0  0  1  0  0  0  0  0  0  0  0  0
   18.3614   -9.7594  -13.7447 C   0  0  0  0  0  0  0  0  0  0  0  0
   18.2916   -8.5096  -12.4496 S   0  0  0  0  0  0  0  0  0  0  0  0
   20.3887   -8.5268  -14.5354 C   0  0  0  0  0  0  0  0  0  0  0  0
   21.3169   -9.0513  -13.8896 O   0  0  0  0  0  0  0  0  0  0  0  0
   23.6326   -3.9899  -16.6501 N   0  0  0  0  0  0  0  0  0  0  0  0
   22.7338   -4.2901  -15.6121 C   0  0  0  0  0  0  0  0  0  0  0  0
   22.8496   -3.7063  -14.5094 O   0  0  0  0  0  0  0  0  0  0  0  0
   21.6626   -5.2682  -15.7883 C   0  0  0  0  0  0  0  0  0  0  0  0
   21.5626   -6.2858  -14.6823 C   0  0  2  0  0  0  0  0  0  0  0  0
   20.4395   -7.1770  -14.9133 N   0  0  0  0  0  0  0  0  0  0  0  0
   21.4417   -5.7187  -13.3357 C   0  0  0  0  0  0  0  0  0  0  0  0
   22.6079   -5.6210  -12.5518 O   0  0  0  0  0  0  0  0  0  0  0  0
   20.3983   -5.2992  -12.7834 O   0  0  0  0  0  0  0  0  0  0  0  0
  2  1  1  1
  2  3  1  0
  4  2  1  0
  4  5  2  0
  6  4  1  0
  7  6  1  0
  7  8  1  1
  9  8  1  0
 10  7  1  0
 10 17  1  0
 11 10  2  0
 13 15  1  0
 13 12  1  0
 14 13  2  0
 16 15  1  6
 16 17  1  0
 16 18  1  0
 18 20  2  0
 18 19  1  0
M  END
$$$$
