ACN.pdb
     RDKit          3D

 20 19  0  0  1  0  0  0  0  0999 V2000
   19.1757  -13.3368  -17.0370 C   0  0  0  0  0  0  0  0  0  0  0  0
   19.6558  -11.9683  -17.4556 C   0  0  2  0  0  0  0  0  0  0  0  0
   20.7414  -12.0021  -18.4102 N   0  0  0  0  0  0  0  0  0  0  0  0
   20.0500  -11.1117  -16.3177 C   0  0  0  0  0  0  0  0  0  0  0  0
   19.3047  -10.9230  -15.3147 O   0  0  0  0  0  0  0  0  0  0  0  0
   21.3024  -10.4694  -16.3368 N   0  0  0  0  0  0  0  0  0  0  0  0
   21.7895   -9.6275  -15.2430 C   0  0  1  0  0  0  0  0  0  0  0  0
   23.1074  -10.1552  -14.7968 C   0  0  0  0  0  0  0  0  0  0  0  0
   24.3482  -10.1801  -16.1022 S   0  0  0  0  0  0  0  0  0  0  0  0
   21.8460   -8.2187  -15.7524 C   0  0  0  0  0  0  0  0  0  0  0  0
   22.2783   -8.0078  -16.9023 O   0  0  0  0  0  0  0  0  0  0  0  0
   21.0548   -3.0166  -15.8577 N   0  0  0  0  0  0  0  0  0  0  0  0
   19.9193   -3.8448  -15.8398 C   0  0  0  0  0  0  0  0  0  0  0  0
   18.7946   -3.3530  -16.0915 O   0  0  0  0  0  0  0  0  0  0  0  0
   20.0185   -5.2706  -15.5358 C   0  0  0  0  0  0  0  0  0  0  0  0
   21.4242   -5.7602  -15.3056 C   0  0  2  0  0  0  0  0  0  0  0  0
   21.4177   -7.1639  -14.9332 N   0  0  0  0  0  0  0  0  0  0  0  0
   22.1773   -5.0107  -14.2952 C   0  0  0  0  0  0  0  0  0  0  0  0
   22.7607   -3.7870  -14.6776 O   0  0  0  0  0  0  0  0  0  0  0  0
   22.3696   -5.3362  -13.1007 O   0  0  0  0  0  0  0  0  0  0  0  0
  2  1  1  1
  2  3  1  0
  4  2  1  0
  4  5  2  0
  6  4  1  0
  7  6  1  0
  7  8  1  6
  9  8  1  0
 10  7  1  0
 10 17  1  0
 11 10  2  0
 13 15  1  0
 13 12  1  0
 14 13  2  0
 16 15  1  1
 16 17  1  0
 16 18  1  0
 18 20  2  0
 18 19  1  0
M  END
$$$$
