ACN.pdb
     RDKit          3D

 20 19  0  0  1  0  0  0  0  0999 V2000
   16.1461  -11.4124  -16.1074 C   0  0  0  0  0  0  0  0  0  0  0  0
   17.6504  -11.4522  -15.9887 C   0  0  2  0  0  0  0  0  0  0  0  0
   18.1529  -12.6737  -15.4000 N   0  0  0  0  0  0  0  0  0  0  0  0
   18.2110  -10.3024  -15.2488 C   0  0  0  0  0  0  0  0  0  0  0  0
   18.0782  -10.1637  -13.9998 O   0  0  0  0  0  0  0  0  0  0  0  0
   18.9223   -9.3098  -15.9490 N   0  0  0  0  0  0  0  0  0  0  0  0
   19.5768   -8.1772  -15.2923 C   0  0  1  0  0  0  0  0  0  0  0  0
   21.0434   -8.2879  -15.5189 C   0  0  0  0  0  0  0  0  0  0  0  0
   21.9313   -9.0062  -14.1262 S   0  0  0  0  0  0  0  0  0  0  0  0
   18.9737   -6.9242  -15.8525 C   0  0  0  0  0  0  0  0  0  0  0  0
   18.7052   -6.8731  -17.0686 O   0  0  0  0  0  0  0  0  0  0  0  0
   16.9538   -2.0501  -15.8777 N   0  0  0  0  0  0  0  0  0  0  0  0
   16.4130   -2.8783  -14.8792 C   0  0  0  0  0  0  0  0  0  0  0  0
   15.3935   -2.5037  -14.2542 O   0  0  0  0  0  0  0  0  0  0  0  0
   17.0110   -4.1707  -14.5520 C   0  0  0  0  0  0  0  0  0  0  0  0
   18.1724   -4.5576  -15.4296 C   0  0  2  0  0  0  0  0  0  0  0  0
   18.7241   -5.8330  -15.0075 N   0  0  0  0  0  0  0  0  0  0  0  0
   19.2567   -3.5722  -15.4823 C   0  0  0  0  0  0  0  0  0  0  0  0
   19.4066   -2.8157  -16.6610 O   0  0  0  0  0  0  0  0  0  0  0  0
   20.0883   -3.3150  -14.5812 O   0  0  0  0  0  0  0  0  0  0  0  0
  2  1  1  1
  2  3  1  0
  4  2  1  0
  4  5  2  0
  6  4  1  0
  7  6  1  0
  7  8  1  6
  9  8  1  0
 10  7  1  0
 10 17  1  0
 11 10  2  0
 13 15  1  0
 13 12  1  0
 14 13  2  0
 16 15  1  1
 16 17  1  0
 16 18  1  0
 18 20  2  0
 18 19  1  0
M  END
$$$$
