ACN.pdb
     RDKit          3D

 20 19  0  0  1  0  0  0  0  0999 V2000
   29.7079  -11.1100  -18.1482 C   0  0  0  0  0  0  0  0  0  0  0  0
   30.5761   -9.9475  -18.5645 C   0  0  2  0  0  0  0  0  0  0  0  0
   31.6586  -10.3201  -19.4478 N   0  0  0  0  0  0  0  0  0  0  0  0
   31.1329   -9.1929  -17.4224 C   0  0  0  0  0  0  0  0  0  0  0  0
   30.4220   -8.7900  -16.4584 O   0  0  0  0  0  0  0  0  0  0  0  0
   32.5093   -8.8994  -17.3924 N   0  0  0  0  0  0  0  0  0  0  0  0
   33.1446   -8.1395  -16.3148 C   0  0  1  0  0  0  0  0  0  0  0  0
   34.3437   -8.8915  -15.8551 C   0  0  0  0  0  0  0  0  0  0  0  0
   35.3164   -8.0060  -14.6247 S   0  0  0  0  0  0  0  0  0  0  0  0
   33.4587   -6.7757  -16.8524 C   0  0  0  0  0  0  0  0  0  0  0  0
   33.9188   -6.6712  -18.0060 O   0  0  0  0  0  0  0  0  0  0  0  0
   33.1664   -1.6830  -17.6397 N   0  0  0  0  0  0  0  0  0  0  0  0
   32.2967   -2.6672  -18.1401 C   0  0  0  0  0  0  0  0  0  0  0  0
   31.4853   -2.3684  -19.0470 O   0  0  0  0  0  0  0  0  0  0  0  0
   32.3167   -4.0358  -17.6284 C   0  0  0  0  0  0  0  0  0  0  0  0
   33.3054   -4.2687  -16.5163 C   0  0  2  0  0  0  0  0  0  0  0  0
   33.2349   -5.6439  -16.0548 N   0  0  0  0  0  0  0  0  0  0  0  0
   33.1511   -3.3783  -15.3616 C   0  0  0  0  0  0  0  0  0  0  0  0
   32.9826   -3.9646  -14.0920 O   0  0  0  0  0  0  0  0  0  0  0  0
   33.1512   -2.1255  -15.3683 O   0  0  0  0  0  0  0  0  0  0  0  0
  2  1  1  1
  2  3  1  0
  4  2  1  0
  4  5  2  0
  6  4  1  0
  7  6  1  0
  7  8  1  6
  9  8  1  0
 10  7  1  0
 10 17  1  0
 11 10  2  0
 13 15  1  0
 13 12  1  0
 14 13  2  0
 16 15  1  6
 16 17  1  0
 16 18  1  0
 18 20  2  0
 18 19  1  0
M  END
$$$$
