ACN.pdb
     RDKit          3D

 20 19  0  0  1  0  0  0  0  0999 V2000
   16.1152  -10.4696  -17.5606 C   0  0  0  0  0  0  0  0  0  0  0  0
   17.5170  -10.2138  -17.0624 C   0  0  2  0  0  0  0  0  0  0  0  0
   18.0852  -11.3265  -16.3345 N   0  0  0  0  0  0  0  0  0  0  0  0
   17.6316   -8.9955  -16.2339 C   0  0  0  0  0  0  0  0  0  0  0  0
   17.2605   -7.8572  -16.6383 O   0  0  0  0  0  0  0  0  0  0  0  0
   18.1772   -9.0881  -14.9395 N   0  0  0  0  0  0  0  0  0  0  0  0
   18.3976   -7.9268  -14.0764 C   0  0  1  0  0  0  0  0  0  0  0  0
   18.1484   -8.3362  -12.6675 C   0  0  0  0  0  0  0  0  0  0  0  0
   19.0183   -9.8407  -12.1942 S   0  0  0  0  0  0  0  0  0  0  0  0
   19.7944   -7.4422  -14.3246 C   0  0  0  0  0  0  0  0  0  0  0  0
   20.5567   -8.1294  -15.0318 O   0  0  0  0  0  0  0  0  0  0  0  0
   23.5215   -4.0269  -15.3348 N   0  0  0  0  0  0  0  0  0  0  0  0
   22.4688   -4.4368  -16.1709 C   0  0  0  0  0  0  0  0  0  0  0  0
   22.4740   -4.0995  -17.3777 O   0  0  0  0  0  0  0  0  0  0  0  0
   21.3654   -5.2512  -15.6665 C   0  0  0  0  0  0  0  0  0  0  0  0
   21.3934   -5.4817  -14.1783 C   0  0  2  0  0  0  0  0  0  0  0  0
   20.2227   -6.2321  -13.7593 N   0  0  0  0  0  0  0  0  0  0  0  0
   21.4821   -4.2617  -13.3699 C   0  0  0  0  0  0  0  0  0  0  0  0
   22.7266   -3.9380  -12.7950 O   0  0  0  0  0  0  0  0  0  0  0  0
   20.5598   -3.4507  -13.1224 O   0  0  0  0  0  0  0  0  0  0  0  0
  2  1  1  1
  2  3  1  0
  4  2  1  0
  4  5  2  0
  6  4  1  0
  7  6  1  0
  7  8  1  1
  9  8  1  0
 10  7  1  0
 10 17  1  0
 11 10  2  0
 13 15  1  0
 13 12  1  0
 14 13  2  0
 16 15  1  6
 16 17  1  0
 16 18  1  0
 18 20  2  0
 18 19  1  0
M  END
$$$$
