GGW.pdb
     RDKit          3D

 23 24  0  0  1  0  0  0  0  0999 V2000
    8.0178  -18.9435   19.8539 N   0  0  0  0  0  0  0  0  0  0  0  0
    6.7514  -18.6109   20.4456 C   0  0  0  0  0  0  0  0  0  0  0  0
    6.7613  -17.2492   21.0489 C   0  0  0  0  0  0  0  0  0  0  0  0
    6.1904  -17.1054   22.1588 O   0  0  0  0  0  0  0  0  0  0  0  0
    7.3854  -16.1347   20.4157 N   0  0  0  0  0  0  0  0  0  0  0  0
    7.4600  -14.8290   20.9738 C   0  0  0  0  0  0  0  0  0  0  0  0
    8.2933  -14.6845   22.1731 C   0  0  0  0  0  0  0  0  0  0  0  0
    8.5264  -13.4980   22.5652 O   0  0  0  0  0  0  0  0  0  0  0  0
    8.8578  -15.7210   22.9251 N   0  0  0  0  0  0  0  0  0  0  0  0
    9.7455  -15.4987   24.0571 C   0  0  1  0  0  0  0  0  0  0  0  0
    9.1443  -15.8153   25.3805 C   0  0  0  0  0  0  0  0  0  0  0  0
    7.8552  -15.1682   25.6641 C   0  0  0  0  0  0  0  0  0  0  0  0
    6.6195  -15.7537   25.5867 C   0  0  0  0  0  0  0  0  0  0  0  0
    5.6572  -14.8849   25.9131 N   0  0  0  0  0  0  0  0  0  0  0  0
    6.2417  -13.7079   26.2123 C   0  0  0  0  0  0  0  0  0  0  0  0
    5.7067  -12.4882   26.6089 C   0  0  0  0  0  0  0  0  0  0  0  0
    6.5268  -11.4155   26.8602 C   0  0  0  0  0  0  0  0  0  0  0  0
    7.8979  -11.5855   26.7068 C   0  0  0  0  0  0  0  0  0  0  0  0
    8.4369  -12.7895   26.3145 C   0  0  0  0  0  0  0  0  0  0  0  0
    7.6154  -13.8708   26.0608 C   0  0  0  0  0  0  0  0  0  0  0  0
   10.9186  -16.3925   23.8565 C   0  0  0  0  0  0  0  0  0  0  0  0
   10.9417  -17.3173   23.0001 O   0  0  0  0  0  0  0  0  0  0  0  0
   12.0847  -16.2564   24.6197 O   0  0  0  0  0  0  0  0  0  0  0  0
  2  1  1  0
  3  5  1  0
  3  2  1  0
  4  3  2  0
  6  5  1  0
  7  9  1  0
  7  6  1  0
  8  7  2  0
 10 21  1  0
 10  9  1  0
 10 11  1  1
 11 12  1  0
 12 13  2  0
 12 20  1  0
 13 14  1  0
 14 15  1  0
 15 16  2  0
 17 16  1  0
 18 17  2  0
 19 20  2  0
 19 18  1  0
 20 15  1  0
 21 23  1  0
 22 21  2  0
M  END
$$$$
