GGW.pdb
     RDKit          3D

 23 24  0  0  1  0  0  0  0  0999 V2000
    8.4257  -18.9488   17.3864 N   0  0  0  0  0  0  0  0  0  0  0  0
    9.2346  -18.3083   18.3864 C   0  0  0  0  0  0  0  0  0  0  0  0
    8.6717  -16.9917   18.7960 C   0  0  0  0  0  0  0  0  0  0  0  0
    8.1905  -16.2633   17.8924 O   0  0  0  0  0  0  0  0  0  0  0  0
    8.6652  -16.5489   20.1511 N   0  0  0  0  0  0  0  0  0  0  0  0
    8.1662  -15.2901   20.5848 C   0  0  0  0  0  0  0  0  0  0  0  0
    8.1421  -15.0683   22.0353 C   0  0  0  0  0  0  0  0  0  0  0  0
    7.6641  -13.9601   22.4343 O   0  0  0  0  0  0  0  0  0  0  0  0
    8.5946  -15.9529   23.0208 N   0  0  0  0  0  0  0  0  0  0  0  0
    9.7014  -15.6554   23.9182 C   0  0  1  0  0  0  0  0  0  0  0  0
    9.3393  -15.6555   25.3612 C   0  0  0  0  0  0  0  0  0  0  0  0
    8.0024  -15.1345   25.6809 C   0  0  0  0  0  0  0  0  0  0  0  0
    6.8388  -15.8557   25.7188 C   0  0  0  0  0  0  0  0  0  0  0  0
    5.8032  -15.0761   26.0464 N   0  0  0  0  0  0  0  0  0  0  0  0
    6.2658  -13.8238   26.2309 C   0  0  0  0  0  0  0  0  0  0  0  0
    5.6182  -12.6445   26.5790 C   0  0  0  0  0  0  0  0  0  0  0  0
    6.3237  -11.4732   26.7080 C   0  0  0  0  0  0  0  0  0  0  0  0
    7.6949  -11.5028   26.4816 C   0  0  0  0  0  0  0  0  0  0  0  0
    8.3449  -12.6658   26.1365 C   0  0  0  0  0  0  0  0  0  0  0  0
    7.6389  -13.8459   26.0057 C   0  0  0  0  0  0  0  0  0  0  0  0
   10.7218  -16.7163   23.6976 C   0  0  0  0  0  0  0  0  0  0  0  0
   10.4809  -17.7846   23.0732 O   0  0  0  0  0  0  0  0  0  0  0  0
   12.0306  -16.5879   24.1785 O   0  0  0  0  0  0  0  0  0  0  0  0
  2  1  1  0
  3  5  1  0
  3  2  1  0
  4  3  2  0
  6  5  1  0
  7  9  1  0
  7  6  1  0
  8  7  2  0
 10 21  1  0
 10  9  1  0
 10 11  1  1
 11 12  1  0
 12 13  2  0
 12 20  1  0
 13 14  1  0
 14 15  1  0
 15 16  2  0
 17 16  1  0
 18 17  2  0
 19 20  2  0
 19 18  1  0
 20 15  1  0
 21 23  1  0
 22 21  2  0
M  END
$$$$
