GGW.pdb
     RDKit          3D

 23 24  0  0  1  0  0  0  0  0999 V2000
    5.7982  -19.4103   19.6041 N   0  0  0  0  0  0  0  0  0  0  0  0
    6.4832  -19.0899   20.8258 C   0  0  0  0  0  0  0  0  0  0  0  0
    7.2159  -17.7969   20.7286 C   0  0  0  0  0  0  0  0  0  0  0  0
    8.4436  -17.8473   20.4669 O   0  0  0  0  0  0  0  0  0  0  0  0
    6.5763  -16.5372   20.9200 N   0  0  0  0  0  0  0  0  0  0  0  0
    7.2348  -15.2794   20.8418 C   0  0  0  0  0  0  0  0  0  0  0  0
    8.2236  -15.0002   21.8897 C   0  0  0  0  0  0  0  0  0  0  0  0
    8.8359  -13.8889   21.8137 O   0  0  0  0  0  0  0  0  0  0  0  0
    8.5604  -15.8354   22.9609 N   0  0  0  0  0  0  0  0  0  0  0  0
    9.6306  -15.5399   23.9022 C   0  0  1  0  0  0  0  0  0  0  0  0
    9.2432  -15.6682   25.3328 C   0  0  0  0  0  0  0  0  0  0  0  0
    7.9697  -15.0355   25.7055 C   0  0  0  0  0  0  0  0  0  0  0  0
    6.7524  -15.6562   25.7980 C   0  0  0  0  0  0  0  0  0  0  0  0
    5.8009  -14.7911   26.1640 N   0  0  0  0  0  0  0  0  0  0  0  0
    6.3745  -13.5815   26.3198 C   0  0  0  0  0  0  0  0  0  0  0  0
    5.8436  -12.3507   26.6868 C   0  0  0  0  0  0  0  0  0  0  0  0
    6.6498  -11.2425   26.7775 C   0  0  0  0  0  0  0  0  0  0  0  0
    8.0027  -11.3881   26.4931 C   0  0  0  0  0  0  0  0  0  0  0  0
    8.5374  -12.6028   26.1288 C   0  0  0  0  0  0  0  0  0  0  0  0
    7.7298  -13.7198   26.0365 C   0  0  0  0  0  0  0  0  0  0  0  0
   10.7175  -16.5190   23.6280 C   0  0  0  0  0  0  0  0  0  0  0  0
   10.5552  -17.5472   22.9169 O   0  0  0  0  0  0  0  0  0  0  0  0
   12.0052  -16.3529   24.1523 O   0  0  0  0  0  0  0  0  0  0  0  0
  2  1  1  0
  3  5  1  0
  3  2  1  0
  4  3  2  0
  6  5  1  0
  7  9  1  0
  7  6  1  0
  8  7  2  0
 10 21  1  0
 10  9  1  0
 10 11  1  1
 11 12  1  0
 12 13  2  0
 12 20  1  0
 13 14  1  0
 14 15  1  0
 15 16  2  0
 17 16  1  0
 18 17  2  0
 19 20  2  0
 19 18  1  0
 20 15  1  0
 21 23  1  0
 22 21  2  0
M  END
$$$$
