GGW.pdb
     RDKit          3D

 23 24  0  0  1  0  0  0  0  0999 V2000
    6.9757  -19.5111   19.9569 N   0  0  0  0  0  0  0  0  0  0  0  0
    8.3600  -19.1759   19.7682 C   0  0  0  0  0  0  0  0  0  0  0  0
    8.6112  -17.7216   19.9684 C   0  0  0  0  0  0  0  0  0  0  0  0
    9.6577  -17.2419   19.4653 O   0  0  0  0  0  0  0  0  0  0  0  0
    7.7181  -16.8826   20.6971 N   0  0  0  0  0  0  0  0  0  0  0  0
    7.9158  -15.4912   20.9133 C   0  0  0  0  0  0  0  0  0  0  0  0
    8.6694  -15.1240   22.1178 C   0  0  0  0  0  0  0  0  0  0  0  0
    8.9930  -13.9005   22.2365 O   0  0  0  0  0  0  0  0  0  0  0  0
    9.0685  -15.9858   23.1456 N   0  0  0  0  0  0  0  0  0  0  0  0
    9.9212  -15.5743   24.2512 C   0  0  1  0  0  0  0  0  0  0  0  0
    9.3075  -15.7427   25.5959 C   0  0  0  0  0  0  0  0  0  0  0  0
    7.9692  -15.1575   25.7615 C   0  0  0  0  0  0  0  0  0  0  0  0
    6.7760  -15.8235   25.6702 C   0  0  0  0  0  0  0  0  0  0  0  0
    5.7480  -14.9939   25.8768 N   0  0  0  0  0  0  0  0  0  0  0  0
    6.2455  -13.7630   26.1085 C   0  0  0  0  0  0  0  0  0  0  0  0
    5.6192  -12.5520   26.3779 C   0  0  0  0  0  0  0  0  0  0  0  0
    6.3602  -11.4137   26.5821 C   0  0  0  0  0  0  0  0  0  0  0  0
    7.7452  -11.5090   26.5117 C   0  0  0  0  0  0  0  0  0  0  0  0
    8.3743  -12.7037   26.2454 C   0  0  0  0  0  0  0  0  0  0  0  0
    7.6326  -13.8508   26.0394 C   0  0  0  0  0  0  0  0  0  0  0  0
   11.1380  -16.4291   24.1880 C   0  0  0  0  0  0  0  0  0  0  0  0
   11.2362  -17.4328   23.4316 O   0  0  0  0  0  0  0  0  0  0  0  0
   12.2635  -16.1644   24.9779 O   0  0  0  0  0  0  0  0  0  0  0  0
  2  1  1  0
  3  5  1  0
  3  2  1  0
  4  3  2  0
  6  5  1  0
  7  9  1  0
  7  6  1  0
  8  7  2  0
 10 21  1  0
 10  9  1  0
 10 11  1  1
 11 12  1  0
 12 13  2  0
 12 20  1  0
 13 14  1  0
 14 15  1  0
 15 16  2  0
 17 16  1  0
 18 17  2  0
 19 20  2  0
 19 18  1  0
 20 15  1  0
 21 23  1  0
 22 21  2  0
M  END
$$$$
