GGW.pdb
     RDKit          3D

 23 24  0  0  1  0  0  0  0  0999 V2000
    8.5765  -20.4887   18.9909 N   0  0  0  0  0  0  0  0  0  0  0  0
    9.4626  -20.0485   20.0328 C   0  0  0  0  0  0  0  0  0  0  0  0
    9.8579  -18.6231   19.8599 C   0  0  0  0  0  0  0  0  0  0  0  0
    9.7442  -18.1278   18.7109 O   0  0  0  0  0  0  0  0  0  0  0  0
   10.3489  -17.8277   20.9364 N   0  0  0  0  0  0  0  0  0  0  0  0
   10.4489  -16.4095   20.9098 C   0  0  0  0  0  0  0  0  0  0  0  0
   10.9708  -15.7746   22.1255 C   0  0  0  0  0  0  0  0  0  0  0  0
   11.6370  -14.7036   21.9678 O   0  0  0  0  0  0  0  0  0  0  0  0
   10.8103  -16.2315   23.4385 N   0  0  0  0  0  0  0  0  0  0  0  0
    9.8664  -15.6482   24.3806 C   0  0  1  0  0  0  0  0  0  0  0  0
    8.4641  -15.5879   23.8875 C   0  0  0  0  0  0  0  0  0  0  0  0
    7.4916  -14.9841   24.8096 C   0  0  0  0  0  0  0  0  0  0  0  0
    6.4871  -15.6388   25.4716 C   0  0  0  0  0  0  0  0  0  0  0  0
    5.7858  -14.7931   26.2335 N   0  0  0  0  0  0  0  0  0  0  0  0
    6.3159  -13.5626   26.0876 C   0  0  0  0  0  0  0  0  0  0  0  0
    5.9711  -12.3387   26.6484 C   0  0  0  0  0  0  0  0  0  0  0  0
    6.6797  -11.2042   26.3365 C   0  0  0  0  0  0  0  0  0  0  0  0
    7.7442  -11.3165   25.4496 C   0  0  0  0  0  0  0  0  0  0  0  0
    8.0931  -12.5242   24.8893 C   0  0  0  0  0  0  0  0  0  0  0  0
    7.3828  -13.6675   25.2004 C   0  0  0  0  0  0  0  0  0  0  0  0
    9.8930  -16.5095   25.5943 C   0  0  0  0  0  0  0  0  0  0  0  0
   10.0185  -17.7629   25.5467 O   0  0  0  0  0  0  0  0  0  0  0  0
    9.7784  -15.9692   26.8810 O   0  0  0  0  0  0  0  0  0  0  0  0
  2  1  1  0
  3  5  1  0
  3  2  1  0
  4  3  2  0
  6  5  1  0
  7  9  1  0
  7  6  1  0
  8  7  2  0
 10 21  1  0
 10  9  1  0
 10 11  1  6
 11 12  1  0
 12 13  2  0
 12 20  1  0
 13 14  1  0
 14 15  1  0
 15 16  2  0
 17 16  1  0
 18 17  2  0
 19 20  2  0
 19 18  1  0
 20 15  1  0
 21 23  1  0
 22 21  2  0
M  END
$$$$
