GGW.pdb
     RDKit          3D

 23 24  0  0  1  0  0  0  0  0999 V2000
    6.5935  -20.5026   20.6278 N   0  0  0  0  0  0  0  0  0  0  0  0
    5.8322  -19.2963   20.4554 C   0  0  0  0  0  0  0  0  0  0  0  0
    6.7037  -18.1301   20.1416 C   0  0  0  0  0  0  0  0  0  0  0  0
    6.6811  -17.6929   18.9640 O   0  0  0  0  0  0  0  0  0  0  0  0
    7.5404  -17.5137   21.1176 N   0  0  0  0  0  0  0  0  0  0  0  0
    8.3926  -16.4044   20.8630 C   0  0  0  0  0  0  0  0  0  0  0  0
    9.1588  -15.9005   22.0088 C   0  0  0  0  0  0  0  0  0  0  0  0
   10.0027  -14.9805   21.7696 O   0  0  0  0  0  0  0  0  0  0  0  0
    9.0546  -16.3330   23.3356 N   0  0  0  0  0  0  0  0  0  0  0  0
   10.0626  -16.0597   24.3495 C   0  0  1  0  0  0  0  0  0  0  0  0
    9.8171  -14.8253   25.1426 C   0  0  0  0  0  0  0  0  0  0  0  0
    8.4112  -14.5508   25.4722 C   0  0  0  0  0  0  0  0  0  0  0  0
    7.3840  -15.4567   25.4618 C   0  0  0  0  0  0  0  0  0  0  0  0
    6.2319  -14.8777   25.8153 N   0  0  0  0  0  0  0  0  0  0  0  0
    6.4786  -13.5767   26.0659 C   0  0  0  0  0  0  0  0  0  0  0  0
    5.6422  -12.5406   26.4638 C   0  0  0  0  0  0  0  0  0  0  0  0
    6.1420  -11.2760   26.6578 C   0  0  0  0  0  0  0  0  0  0  0  0
    7.4996  -11.0656   26.4457 C   0  0  0  0  0  0  0  0  0  0  0  0
    8.3356  -12.0854   26.0516 C   0  0  0  0  0  0  0  0  0  0  0  0
    7.8367  -13.3586   25.8554 C   0  0  0  0  0  0  0  0  0  0  0  0
   10.0492  -17.2192   25.2828 C   0  0  0  0  0  0  0  0  0  0  0  0
    9.1278  -18.0793   25.2995 O   0  0  0  0  0  0  0  0  0  0  0  0
   11.0759  -17.4258   26.2122 O   0  0  0  0  0  0  0  0  0  0  0  0
  2  1  1  0
  3  5  1  0
  3  2  1  0
  4  3  2  0
  6  5  1  0
  7  9  1  0
  7  6  1  0
  8  7  2  0
 10 21  1  0
 10  9  1  0
 10 11  1  1
 11 12  1  0
 12 13  2  0
 12 20  1  0
 13 14  1  0
 14 15  1  0
 15 16  2  0
 17 16  1  0
 18 17  2  0
 19 20  2  0
 19 18  1  0
 20 15  1  0
 21 23  1  0
 22 21  2  0
M  END
$$$$
