GGW.pdb
     RDKit          3D

 23 24  0  0  1  0  0  0  0  0999 V2000
    8.0754  -12.8357   17.6949 N   0  0  0  0  0  0  0  0  0  0  0  0
    7.5523  -13.0346   19.0183 C   0  0  0  0  0  0  0  0  0  0  0  0
    8.0163  -14.3196   19.6112 C   0  0  0  0  0  0  0  0  0  0  0  0
    8.9567  -14.9170   19.0305 O   0  0  0  0  0  0  0  0  0  0  0  0
    7.4358  -14.8741   20.7894 N   0  0  0  0  0  0  0  0  0  0  0  0
    7.9093  -16.0421   21.4477 C   0  0  0  0  0  0  0  0  0  0  0  0
    8.9240  -15.8328   22.4870 C   0  0  0  0  0  0  0  0  0  0  0  0
    9.9679  -15.1940   22.1435 O   0  0  0  0  0  0  0  0  0  0  0  0
    8.8579  -16.2681   23.8154 N   0  0  0  0  0  0  0  0  0  0  0  0
    9.9290  -16.0649   24.7798 C   0  0  1  0  0  0  0  0  0  0  0  0
    9.4961  -15.4311   26.0542 C   0  0  0  0  0  0  0  0  0  0  0  0
    8.1074  -14.9500   26.0849 C   0  0  0  0  0  0  0  0  0  0  0  0
    6.9803  -15.7176   25.9579 C   0  0  0  0  0  0  0  0  0  0  0  0
    5.8779  -14.9649   26.0339 N   0  0  0  0  0  0  0  0  0  0  0  0
    6.2585  -13.6845   26.2128 C   0  0  0  0  0  0  0  0  0  0  0  0
    5.5206  -12.5151   26.3525 C   0  0  0  0  0  0  0  0  0  0  0  0
    6.1527  -11.3083   26.5274 C   0  0  0  0  0  0  0  0  0  0  0  0
    7.5423  -11.2922   26.5602 C   0  0  0  0  0  0  0  0  0  0  0  0
    8.2814  -12.4449   26.4227 C   0  0  0  0  0  0  0  0  0  0  0  0
    7.6494  -13.6607   26.2466 C   0  0  0  0  0  0  0  0  0  0  0  0
   10.4748  -17.4131   25.0961 C   0  0  0  0  0  0  0  0  0  0  0  0
    9.8809  -18.4841   24.7975 O   0  0  0  0  0  0  0  0  0  0  0  0
   11.7001  -17.5734   25.7546 O   0  0  0  0  0  0  0  0  0  0  0  0
  2  1  1  0
  3  5  1  0
  3  2  1  0
  4  3  2  0
  6  5  1  0
  7  9  1  0
  7  6  1  0
  8  7  2  0
 10 21  1  0
 10  9  1  0
 10 11  1  1
 11 12  1  0
 12 13  2  0
 12 20  1  0
 13 14  1  0
 14 15  1  0
 15 16  2  0
 17 16  1  0
 18 17  2  0
 19 20  2  0
 19 18  1  0
 20 15  1  0
 21 23  1  0
 22 21  2  0
M  END
$$$$
