GGW.pdb
     RDKit          3D

 23 24  0  0  1  0  0  0  0  0999 V2000
    8.1631  -13.7477   18.1162 N   0  0  0  0  0  0  0  0  0  0  0  0
    7.6861  -13.3456   19.4105 C   0  0  0  0  0  0  0  0  0  0  0  0
    8.0511  -14.3299   20.4670 C   0  0  0  0  0  0  0  0  0  0  0  0
    7.7358  -14.0500   21.6505 O   0  0  0  0  0  0  0  0  0  0  0  0
    8.7312  -15.5489   20.1770 N   0  0  0  0  0  0  0  0  0  0  0  0
    8.9532  -16.5911   21.1184 C   0  0  0  0  0  0  0  0  0  0  0  0
    9.6631  -16.2138   22.3462 C   0  0  0  0  0  0  0  0  0  0  0  0
   10.7057  -15.5005   22.2050 O   0  0  0  0  0  0  0  0  0  0  0  0
    9.3084  -16.5628   23.6542 N   0  0  0  0  0  0  0  0  0  0  0  0
   10.1309  -16.2590   24.8160 C   0  0  1  0  0  0  0  0  0  0  0  0
    9.8115  -14.9630   25.4729 C   0  0  0  0  0  0  0  0  0  0  0  0
    8.3805  -14.6664   25.6311 C   0  0  0  0  0  0  0  0  0  0  0  0
    7.3451  -15.5430   25.4436 C   0  0  0  0  0  0  0  0  0  0  0  0
    6.1689  -14.9503   25.6732 N   0  0  0  0  0  0  0  0  0  0  0  0
    6.4075  -13.6692   26.0171 C   0  0  0  0  0  0  0  0  0  0  0  0
    5.5479  -12.6305   26.3539 C   0  0  0  0  0  0  0  0  0  0  0  0
    6.0441  -11.3900   26.6726 C   0  0  0  0  0  0  0  0  0  0  0  0
    7.4218  -11.2065   26.6483 C   0  0  0  0  0  0  0  0  0  0  0  0
    8.2808  -12.2291   26.3161 C   0  0  0  0  0  0  0  0  0  0  0  0
    7.7857  -13.4781   25.9948 C   0  0  0  0  0  0  0  0  0  0  0  0
    9.8901  -17.3484   25.8013 C   0  0  0  0  0  0  0  0  0  0  0  0
   10.5239  -17.4483   26.8864 O   0  0  0  0  0  0  0  0  0  0  0  0
    8.9298  -18.3425   25.5770 O   0  0  0  0  0  0  0  0  0  0  0  0
  2  1  1  0
  3  5  1  0
  3  2  1  0
  4  3  2  0
  6  5  1  0
  7  9  1  0
  7  6  1  0
  8  7  2  0
 10 21  1  0
 10  9  1  0
 10 11  1  1
 11 12  1  0
 12 13  2  0
 12 20  1  0
 13 14  1  0
 14 15  1  0
 15 16  2  0
 17 16  1  0
 18 17  2  0
 19 20  2  0
 19 18  1  0
 20 15  1  0
 21 23  1  0
 22 21  2  0
M  END
$$$$
