GGW.pdb
     RDKit          3D

 23 24  0  0  1  0  0  0  0  0999 V2000
    6.3639  -19.5227   21.8945 N   0  0  0  0  0  0  0  0  0  0  0  0
    6.1267  -18.8271   20.6599 C   0  0  0  0  0  0  0  0  0  0  0  0
    6.9607  -17.5984   20.5460 C   0  0  0  0  0  0  0  0  0  0  0  0
    8.0987  -17.7191   20.0275 O   0  0  0  0  0  0  0  0  0  0  0  0
    6.5123  -16.3229   20.9983 N   0  0  0  0  0  0  0  0  0  0  0  0
    7.2774  -15.1268   20.9227 C   0  0  0  0  0  0  0  0  0  0  0  0
    8.3315  -14.9680   21.9314 C   0  0  0  0  0  0  0  0  0  0  0  0
    9.0697  -13.9385   21.8266 O   0  0  0  0  0  0  0  0  0  0  0  0
    8.6057  -15.8369   22.9936 N   0  0  0  0  0  0  0  0  0  0  0  0
    9.8014  -15.7427   23.8183 C   0  0  1  0  0  0  0  0  0  0  0  0
    9.5474  -15.3228   25.2227 C   0  0  0  0  0  0  0  0  0  0  0  0
    8.1682  -14.9134   25.5240 C   0  0  0  0  0  0  0  0  0  0  0  0
    7.0656  -15.7258   25.5367 C   0  0  0  0  0  0  0  0  0  0  0  0
    5.9657  -15.0346   25.8530 N   0  0  0  0  0  0  0  0  0  0  0  0
    6.3234  -13.7510   26.0551 C   0  0  0  0  0  0  0  0  0  0  0  0
    5.5778  -12.6306   26.4015 C   0  0  0  0  0  0  0  0  0  0  0  0
    6.1850  -11.4078   26.5515 C   0  0  0  0  0  0  0  0  0  0  0  0
    7.5576  -11.3255   26.3479 C   0  0  0  0  0  0  0  0  0  0  0  0
    8.3042  -12.4295   26.0047 C   0  0  0  0  0  0  0  0  0  0  0  0
    7.6973  -13.6611   25.8528 C   0  0  0  0  0  0  0  0  0  0  0  0
   10.4055  -17.1027   23.8444 C   0  0  0  0  0  0  0  0  0  0  0  0
    9.7839  -18.1396   23.4872 O   0  0  0  0  0  0  0  0  0  0  0  0
   11.7214  -17.3138   24.2742 O   0  0  0  0  0  0  0  0  0  0  0  0
  2  1  1  0
  3  5  1  0
  3  2  1  0
  4  3  2  0
  6  5  1  0
  7  9  1  0
  7  6  1  0
  8  7  2  0
 10 21  1  0
 10  9  1  0
 10 11  1  1
 11 12  1  0
 12 13  2  0
 12 20  1  0
 13 14  1  0
 14 15  1  0
 15 16  2  0
 17 16  1  0
 18 17  2  0
 19 20  2  0
 19 18  1  0
 20 15  1  0
 21 23  1  0
 22 21  2  0
M  END
$$$$
