GGW.pdb
     RDKit          3D

 23 24  0  0  1  0  0  0  0  0999 V2000
    5.3385  -15.5018   20.5512 N   0  0  0  0  0  0  0  0  0  0  0  0
    6.6994  -15.1139   20.3026 C   0  0  0  0  0  0  0  0  0  0  0  0
    7.6613  -15.9170   21.1076 C   0  0  0  0  0  0  0  0  0  0  0  0
    7.1862  -16.6578   22.0043 O   0  0  0  0  0  0  0  0  0  0  0  0
    9.0698  -15.8678   20.8920 N   0  0  0  0  0  0  0  0  0  0  0  0
   10.0223  -16.6394   21.6125 C   0  0  0  0  0  0  0  0  0  0  0  0
   10.3368  -16.1769   22.9693 C   0  0  0  0  0  0  0  0  0  0  0  0
   11.2820  -15.3342   23.0792 O   0  0  0  0  0  0  0  0  0  0  0  0
    9.7022  -16.5725   24.1522 N   0  0  0  0  0  0  0  0  0  0  0  0
   10.1909  -16.2260   25.4788 C   0  0  1  0  0  0  0  0  0  0  0  0
    9.1256  -16.0779   26.5066 C   0  0  0  0  0  0  0  0  0  0  0  0
    7.9411  -15.3143   26.0886 C   0  0  0  0  0  0  0  0  0  0  0  0
    6.8781  -15.7948   25.3711 C   0  0  0  0  0  0  0  0  0  0  0  0
    5.9691  -14.8367   25.1630 N   0  0  0  0  0  0  0  0  0  0  0  0
    6.4169  -13.7043   25.7406 C   0  0  0  0  0  0  0  0  0  0  0  0
    5.8663  -12.4308   25.8201 C   0  0  0  0  0  0  0  0  0  0  0  0
    6.5298  -11.4239   26.4776 C   0  0  0  0  0  0  0  0  0  0  0  0
    7.7595  -11.7150   27.0568 C   0  0  0  0  0  0  0  0  0  0  0  0
    8.3126  -12.9731   26.9833 C   0  0  0  0  0  0  0  0  0  0  0  0
    7.6484  -13.9885   26.3229 C   0  0  0  0  0  0  0  0  0  0  0  0
   11.0900  -17.3344   25.9013 C   0  0  0  0  0  0  0  0  0  0  0  0
   11.1944  -18.4174   25.2646 O   0  0  0  0  0  0  0  0  0  0  0  0
   11.8856  -17.2377   27.0494 O   0  0  0  0  0  0  0  0  0  0  0  0
  2  1  1  0
  3  5  1  0
  3  2  1  0
  4  3  2  0
  6  5  1  0
  7  9  1  0
  7  6  1  0
  8  7  2  0
 10 21  1  0
 10  9  1  0
 10 11  1  1
 11 12  1  0
 12 13  2  0
 12 20  1  0
 13 14  1  0
 14 15  1  0
 15 16  2  0
 17 16  1  0
 18 17  2  0
 19 20  2  0
 19 18  1  0
 20 15  1  0
 21 23  1  0
 22 21  2  0
M  END
$$$$
