RVQ.pdb
     RDKit          3D

 28 27  0  0  1  0  0  0  0  0999 V2000
    6.5948  -14.7358   16.1346 N   0  0  0  0  0  0  0  0  0  0  0  0
    8.0040  -14.9237   16.1127 C   0  0  0  0  0  0  0  0  0  0  0  0
    8.5584  -15.3400   15.0301 N   0  0  0  0  0  0  0  0  0  0  0  0
    8.8126  -14.6653   17.2493 N   0  0  0  0  0  0  0  0  0  0  0  0
    8.2903  -14.0083   18.4128 C   0  0  0  0  0  0  0  0  0  0  0  0
    7.1553  -14.7760   19.0433 C   0  0  0  0  0  0  0  0  0  0  0  0
    7.3539  -14.8377   20.5260 C   0  0  0  0  0  0  0  0  0  0  0  0
    7.1759  -13.5023   21.2087 C   0  0  2  0  0  0  0  0  0  0  0  0
    7.7534  -12.4855   20.3596 N   0  0  0  0  0  0  0  0  0  0  0  0
    7.8277  -13.5452   22.5510 C   0  0  0  0  0  0  0  0  0  0  0  0
    9.0918  -13.4440   22.5833 O   0  0  0  0  0  0  0  0  0  0  0  0
    9.5703  -15.5710   14.9538 C   0  0  0  0  0  0  0  0  0  0  0  0
    6.5684  -11.5561   25.6293 C   0  0  1  0  0  0  0  0  0  0  0  0
    6.9206  -12.9650   26.0356 C   0  0  0  0  0  0  0  0  0  0  0  0
    7.5695  -13.0645   27.3788 C   0  0  2  0  0  0  0  0  0  0  0  0
    7.8019  -13.6526   25.0126 N   0  0  0  0  0  0  0  0  0  0  0  0
    7.1069  -13.6917   23.7682 C   0  0  0  0  0  0  0  0  0  0  0  0
    8.2712  -14.9807   25.4735 O   0  0  0  0  0  0  0  0  0  0  0  0
    7.4011  -15.7931   25.8804 N   0  0  0  0  0  0  0  0  0  0  0  0
   12.2048  -18.6064   21.9936 C   0  0  0  0  0  0  0  0  0  0  0  0
   12.3239  -17.8613   23.1894 O   0  0  0  0  0  0  0  0  0  0  0  0
   13.4605  -17.5965   23.6546 C   0  0  0  0  0  0  0  0  0  0  0  0
   11.1048  -17.4022   23.8788 C   0  0  0  0  0  0  0  0  0  0  0  0
   11.3246  -17.1887   25.3560 C   0  0  2  0  0  0  0  0  0  0  0  0
   10.0890  -16.6481   26.0028 N   0  0  0  0  0  0  0  0  0  0  0  0
    9.6203  -15.4040   25.4912 C   0  0  0  0  0  0  0  0  0  0  0  0
   10.3056  -16.6520   27.4720 O   0  0  0  0  0  0  0  0  0  0  0  0
   10.4317  -15.5889   28.1205 O   0  0  0  0  0  0  0  0  0  0  0  0
  2  1  1  0
  3  2  2  0
  4  2  1  0
  5  4  1  0
  6  5  1  0
  7  6  1  0
  8  7  1  0
  8  9  1  6
 10  8  1  0
 10 11  2  0
 13 14  1  1
 13 12  1  0
 15 16  1  6
 15 13  1  0
 16 10  1  0
 17 15  1  0
 18 17  2  0
 20 21  2  0
 20 19  1  0
 22 20  1  0
 23 22  1  0
 24 23  1  6
 24 25  1  0
 25 17  1  0
 26 28  1  0
 26 24  1  0
 27 26  2  0
M  END
$$$$
