RVQ.pdb
     RDKit          3D

 28 27  0  0  1  0  0  0  0  0999 V2000
    6.4266  -18.2916   16.8380 N   0  0  0  0  0  0  0  0  0  0  0  0
    7.7369  -17.9724   17.2884 C   0  0  0  0  0  0  0  0  0  0  0  0
    8.6799  -18.8281   17.1121 N   0  0  0  0  0  0  0  0  0  0  0  0
    8.0313  -16.7394   17.9250 N   0  0  0  0  0  0  0  0  0  0  0  0
    7.0313  -15.7270   18.1071 C   0  0  0  0  0  0  0  0  0  0  0  0
    6.5550  -15.6424   19.5358 C   0  0  0  0  0  0  0  0  0  0  0  0
    7.6458  -15.0842   20.3961 C   0  0  0  0  0  0  0  0  0  0  0  0
    7.3075  -13.7379   20.9911 C   0  0  2  0  0  0  0  0  0  0  0  0
    7.8342  -12.7166   20.1149 N   0  0  0  0  0  0  0  0  0  0  0  0
    7.8854  -13.6476   22.3646 C   0  0  0  0  0  0  0  0  0  0  0  0
    9.1376  -13.4661   22.4541 O   0  0  0  0  0  0  0  0  0  0  0  0
    9.6698  -18.6578   17.3843 C   0  0  0  0  0  0  0  0  0  0  0  0
    6.3748  -11.5805   25.2229 C   0  0  1  0  0  0  0  0  0  0  0  0
    6.8044  -12.9195   25.7677 C   0  0  0  0  0  0  0  0  0  0  0  0
    7.4381  -12.8489   27.1199 C   0  0  2  0  0  0  0  0  0  0  0  0
    7.7402  -13.6478   24.8244 N   0  0  0  0  0  0  0  0  0  0  0  0
    7.1081  -13.7545   23.5507 C   0  0  0  0  0  0  0  0  0  0  0  0
    8.1956  -14.9472   25.3728 O   0  0  0  0  0  0  0  0  0  0  0  0
    7.3264  -15.6920   25.8947 N   0  0  0  0  0  0  0  0  0  0  0  0
   13.9860  -19.3860   25.8223 C   0  0  0  0  0  0  0  0  0  0  0  0
   12.6961  -19.0909   25.3239 O   0  0  0  0  0  0  0  0  0  0  0  0
   12.3729  -19.4503   24.1642 C   0  0  0  0  0  0  0  0  0  0  0  0
   11.7416  -18.3608   26.1772 C   0  0  0  0  0  0  0  0  0  0  0  0
   11.4100  -16.9942   25.6312 C   0  0  2  0  0  0  0  0  0  0  0  0
    9.9842  -16.6420   25.9147 N   0  0  0  0  0  0  0  0  0  0  0  0
    9.5306  -15.4132   25.3546 C   0  0  0  0  0  0  0  0  0  0  0  0
    9.7715  -16.7507   27.3805 O   0  0  0  0  0  0  0  0  0  0  0  0
    9.4568  -17.8353   27.9202 O   0  0  0  0  0  0  0  0  0  0  0  0
  2  1  1  0
  3  2  2  0
  4  2  1  0
  5  4  1  0
  6  5  1  0
  7  6  1  0
  8  7  1  0
  8  9  1  6
 10  8  1  0
 10 11  2  0
 13 14  1  6
 13 12  1  0
 15 16  1  6
 15 13  1  0
 16 10  1  0
 17 15  1  0
 18 17  2  0
 20 21  2  0
 20 19  1  0
 22 20  1  0
 23 22  1  0
 24 23  1  6
 24 25  1  0
 25 17  1  0
 26 28  1  0
 26 24  1  0
 27 26  2  0
M  END
$$$$
