RVQ.pdb
     RDKit          3D

 28 27  0  0  1  0  0  0  0  0999 V2000
    7.3107  -19.6110   18.8108 N   0  0  0  0  0  0  0  0  0  0  0  0
    7.1104  -18.6884   17.7477 C   0  0  0  0  0  0  0  0  0  0  0  0
    7.3741  -19.0595   16.5454 N   0  0  0  0  0  0  0  0  0  0  0  0
    6.6292  -17.3738   17.9765 N   0  0  0  0  0  0  0  0  0  0  0  0
    7.3024  -16.4677   18.8619 C   0  0  0  0  0  0  0  0  0  0  0  0
    7.4933  -17.0495   20.2404 C   0  0  0  0  0  0  0  0  0  0  0  0
    8.2404  -16.0752   21.0972 C   0  0  0  0  0  0  0  0  0  0  0  0
    7.4138  -14.8768   21.4992 C   0  0  2  0  0  0  0  0  0  0  0  0
    7.5087  -13.8939   20.4443 N   0  0  0  0  0  0  0  0  0  0  0  0
    7.9152  -14.3479   22.8021 C   0  0  0  0  0  0  0  0  0  0  0  0
    9.1621  -14.1353   22.8982 O   0  0  0  0  0  0  0  0  0  0  0  0
    7.2525  -18.4454   15.7140 C   0  0  0  0  0  0  0  0  0  0  0  0
    5.8218  -11.9047   25.2233 C   0  0  1  0  0  0  0  0  0  0  0  0
    6.5496  -12.9899   25.9760 C   0  0  0  0  0  0  0  0  0  0  0  0
    7.1335  -12.5391   27.2764 C   0  0  2  0  0  0  0  0  0  0  0  0
    7.6418  -13.6305   25.1434 N   0  0  0  0  0  0  0  0  0  0  0  0
    7.0723  -14.0784   23.9154 C   0  0  0  0  0  0  0  0  0  0  0  0
    8.3678  -14.6897   25.8834 O   0  0  0  0  0  0  0  0  0  0  0  0
    7.6939  -15.6606   26.3146 N   0  0  0  0  0  0  0  0  0  0  0  0
   14.5262  -16.2570   25.8133 C   0  0  0  0  0  0  0  0  0  0  0  0
   13.9813  -17.1224   26.7898 O   0  0  0  0  0  0  0  0  0  0  0  0
   14.6609  -18.0846   27.2266 C   0  0  0  0  0  0  0  0  0  0  0  0
   12.6142  -16.8824   27.2854 C   0  0  0  0  0  0  0  0  0  0  0  0
   11.9669  -15.6861   26.6329 C   0  0  2  0  0  0  0  0  0  0  0  0
   10.4790  -15.7470   26.7723 N   0  0  0  0  0  0  0  0  0  0  0  0
    9.7580  -14.6923   26.1419 C   0  0  0  0  0  0  0  0  0  0  0  0
   10.1634  -15.9147   28.2137 O   0  0  0  0  0  0  0  0  0  0  0  0
    9.7945  -14.9510   28.9222 O   0  0  0  0  0  0  0  0  0  0  0  0
  2  1  1  0
  3  2  2  0
  4  2  1  0
  5  4  1  0
  6  5  1  0
  7  6  1  0
  8  7  1  0
  8  9  1  6
 10  8  1  0
 10 11  2  0
 13 14  1  6
 13 12  1  0
 15 16  1  6
 15 13  1  0
 16 10  1  0
 17 15  1  0
 18 17  2  0
 20 21  2  0
 20 19  1  0
 22 20  1  0
 23 22  1  0
 24 23  1  6
 24 25  1  0
 25 17  1  0
 26 28  1  0
 26 24  1  0
 27 26  2  0
M  END
$$$$
