RVQ.pdb
     RDKit          3D

 28 27  0  0  1  0  0  0  0  0999 V2000
    8.0764  -19.5037   19.1185 N   0  0  0  0  0  0  0  0  0  0  0  0
    7.1626  -18.8618   18.2385 C   0  0  0  0  0  0  0  0  0  0  0  0
    7.1961  -19.1539   16.9871 N   0  0  0  0  0  0  0  0  0  0  0  0
    6.2178  -17.9106   18.7022 N   0  0  0  0  0  0  0  0  0  0  0  0
    6.3156  -17.3254   20.0084 C   0  0  0  0  0  0  0  0  0  0  0  0
    7.7423  -17.2310   20.4886 C   0  0  0  0  0  0  0  0  0  0  0  0
    7.7698  -16.6522   21.8691 C   0  0  0  0  0  0  0  0  0  0  0  0
    7.8939  -15.1471   21.8836 C   0  0  2  0  0  0  0  0  0  0  0  0
    8.8933  -14.7715   20.9098 N   0  0  0  0  0  0  0  0  0  0  0  0
    8.2578  -14.6965   23.2595 C   0  0  0  0  0  0  0  0  0  0  0  0
    9.4218  -14.9850   23.6733 O   0  0  0  0  0  0  0  0  0  0  0  0
    6.5908  -18.6984   16.2734 C   0  0  0  0  0  0  0  0  0  0  0  0
    6.5316  -11.4972   25.2288 C   0  0  1  0  0  0  0  0  0  0  0  0
    6.7289  -12.7456   26.0514 C   0  0  0  0  0  0  0  0  0  0  0  0
    7.0920  -12.4811   27.4773 C   0  0  2  0  0  0  0  0  0  0  0  0
    7.7629  -13.6729   25.4455 N   0  0  0  0  0  0  0  0  0  0  0  0
    7.3738  -13.9737   24.1071 C   0  0  0  0  0  0  0  0  0  0  0  0
    8.0013  -14.8745   26.2797 O   0  0  0  0  0  0  0  0  0  0  0  0
    7.4118  -15.9354   25.9487 N   0  0  0  0  0  0  0  0  0  0  0  0
   12.6695  -17.1398   24.9211 C   0  0  0  0  0  0  0  0  0  0  0  0
   12.6459  -17.8175   26.1619 O   0  0  0  0  0  0  0  0  0  0  0  0
   13.4732  -18.7343   26.3933 C   0  0  0  0  0  0  0  0  0  0  0  0
   11.6444  -17.4367   27.1739 C   0  0  0  0  0  0  0  0  0  0  0  0
   10.7450  -16.3211   26.7025 C   0  0  1  0  0  0  0  0  0  0  0  0
    9.7292  -15.9822   27.7468 N   0  0  0  0  0  0  0  0  0  0  0  0
    8.8392  -14.9197   27.4179 C   0  0  0  0  0  0  0  0  0  0  0  0
   10.4457  -15.7914   29.0335 O   0  0  0  0  0  0  0  0  0  0  0  0
   10.9633  -16.7523   29.6463 O   0  0  0  0  0  0  0  0  0  0  0  0
  2  1  1  0
  3  2  2  0
  4  2  1  0
  5  4  1  0
  6  5  1  0
  7  6  1  0
  8  7  1  0
  8  9  1  6
 10  8  1  0
 10 11  2  0
 13 14  1  6
 13 12  1  0
 15 16  1  6
 15 13  1  0
 16 10  1  0
 17 15  1  0
 18 17  2  0
 20 21  2  0
 20 19  1  0
 22 20  1  0
 23 22  1  0
 24 23  1  6
 24 25  1  0
 25 17  1  0
 26 28  1  0
 26 24  1  0
 27 26  2  0
M  END
$$$$
