RVQ.pdb
     RDKit          3D

 28 27  0  0  1  0  0  0  0  0999 V2000
   10.0044  -20.6059   14.1601 N   0  0  0  0  0  0  0  0  0  0  0  0
    9.1564  -21.5419   14.8132 C   0  0  0  0  0  0  0  0  0  0  0  0
    8.4278  -22.3238   14.0987 N   0  0  0  0  0  0  0  0  0  0  0  0
    9.0922  -21.6362   16.2271 N   0  0  0  0  0  0  0  0  0  0  0  0
    9.8220  -20.7395   17.0766 C   0  0  0  0  0  0  0  0  0  0  0  0
    9.5997  -19.2937   16.7090 C   0  0  0  0  0  0  0  0  0  0  0  0
   10.2953  -18.4116   17.6988 C   0  0  0  0  0  0  0  0  0  0  0  0
   10.0963  -16.9389   17.4299 C   0  0  2  0  0  0  0  0  0  0  0  0
   11.2035  -16.4779   16.6239 N   0  0  0  0  0  0  0  0  0  0  0  0
   10.0094  -16.2088   18.7292 C   0  0  0  0  0  0  0  0  0  0  0  0
   11.0667  -16.1427   19.4270 O   0  0  0  0  0  0  0  0  0  0  0  0
    7.8083  -23.0581   14.4987 C   0  0  0  0  0  0  0  0  0  0  0  0
    7.9667  -12.8995   19.2880 C   0  0  1  0  0  0  0  0  0  0  0  0
    7.7703  -13.8451   20.4462 C   0  0  0  0  0  0  0  0  0  0  0  0
    7.7408  -13.1717   21.7806 C   0  0  2  0  0  0  0  0  0  0  0  0
    8.8152  -14.9422   20.4731 N   0  0  0  0  0  0  0  0  0  0  0  0
    8.8173  -15.5979   19.2069 C   0  0  0  0  0  0  0  0  0  0  0  0
    8.6363  -15.8641   21.6197 O   0  0  0  0  0  0  0  0  0  0  0  0
    8.3850  -17.0691   21.3601 N   0  0  0  0  0  0  0  0  0  0  0  0
   13.7473  -16.0181   22.9626 C   0  0  0  0  0  0  0  0  0  0  0  0
   13.0423  -17.2318   22.7911 O   0  0  0  0  0  0  0  0  0  0  0  0
   13.6367  -18.2472   22.3504 C   0  0  0  0  0  0  0  0  0  0  0  0
   11.6101  -17.2898   23.1338 C   0  0  0  0  0  0  0  0  0  0  0  0
   11.0743  -15.9574   23.5958 C   0  0  2  0  0  0  0  0  0  0  0  0
    9.6210  -16.0592   23.9343 N   0  0  0  0  0  0  0  0  0  0  0  0
    8.7259  -15.4934   22.9814 C   0  0  0  0  0  0  0  0  0  0  0  0
    9.4377  -15.5416   25.3142 O   0  0  0  0  0  0  0  0  0  0  0  0
    9.3636  -14.3149   25.5514 O   0  0  0  0  0  0  0  0  0  0  0  0
  2  1  1  0
  3  2  2  0
  4  2  1  0
  5  4  1  0
  6  5  1  0
  7  6  1  0
  8  7  1  0
  8  9  1  6
 10  8  1  0
 10 11  2  0
 13 14  1  1
 13 12  1  0
 15 16  1  1
 15 13  1  0
 16 10  1  0
 17 15  1  0
 18 17  2  0
 20 21  2  0
 20 19  1  0
 22 20  1  0
 23 22  1  0
 24 23  1  6
 24 25  1  0
 25 17  1  0
 26 28  1  0
 26 24  1  0
 27 26  2  0
M  END
$$$$
