RVQ.pdb
     RDKit          3D

 28 27  0  0  1  0  0  0  0  0999 V2000
    7.2141  -16.6277   15.8746 N   0  0  0  0  0  0  0  0  0  0  0  0
    7.9501  -15.4113   15.8629 C   0  0  0  0  0  0  0  0  0  0  0  0
    9.0520  -15.3584   15.2028 N   0  0  0  0  0  0  0  0  0  0  0  0
    7.5035  -14.2580   16.5578 N   0  0  0  0  0  0  0  0  0  0  0  0
    7.0396  -14.3269   17.9136 C   0  0  0  0  0  0  0  0  0  0  0  0
    8.1230  -14.7623   18.8684 C   0  0  0  0  0  0  0  0  0  0  0  0
    7.5340  -14.9884   20.2262 C   0  0  0  0  0  0  0  0  0  0  0  0
    7.1635  -13.7085   20.9373 C   0  0  2  0  0  0  0  0  0  0  0  0
    7.5629  -12.6002   20.1005 N   0  0  0  0  0  0  0  0  0  0  0  0
    7.8363  -13.6732   22.2695 C   0  0  0  0  0  0  0  0  0  0  0  0
    9.0928  -13.4995   22.2781 O   0  0  0  0  0  0  0  0  0  0  0  0
    9.6347  -14.4997   15.1236 C   0  0  0  0  0  0  0  0  0  0  0  0
    6.0648  -11.8404   25.2075 C   0  0  1  0  0  0  0  0  0  0  0  0
    6.8157  -13.0376   25.7338 C   0  0  0  0  0  0  0  0  0  0  0  0
    7.5125  -12.7930   27.0337 C   0  0  2  0  0  0  0  0  0  0  0  0
    7.8198  -13.5697   24.7313 N   0  0  0  0  0  0  0  0  0  0  0  0
    7.1430  -13.8230   23.5021 C   0  0  0  0  0  0  0  0  0  0  0  0
    8.5692  -14.7388   25.2493 O   0  0  0  0  0  0  0  0  0  0  0  0
    7.9325  -15.8128   25.4030 N   0  0  0  0  0  0  0  0  0  0  0  0
   10.3893  -16.4008   30.0595 C   0  0  0  0  0  0  0  0  0  0  0  0
   10.9189  -17.5133   29.3657 O   0  0  0  0  0  0  0  0  0  0  0  0
   11.5413  -18.4069   29.9923 C   0  0  0  0  0  0  0  0  0  0  0  0
   10.7325  -17.6103   27.9069 C   0  0  0  0  0  0  0  0  0  0  0  0
    9.9219  -16.4650   27.3527 C   0  0  1  0  0  0  0  0  0  0  0  0
   10.6391  -15.8097   26.2154 N   0  0  0  0  0  0  0  0  0  0  0  0
    9.9431  -14.7393   25.5837 C   0  0  0  0  0  0  0  0  0  0  0  0
   11.0802  -16.8761   25.2807 O   0  0  0  0  0  0  0  0  0  0  0  0
   10.5829  -16.9956   24.1383 O   0  0  0  0  0  0  0  0  0  0  0  0
  2  1  1  0
  3  2  2  0
  4  2  1  0
  5  4  1  0
  6  5  1  0
  7  6  1  0
  8  7  1  0
  8  9  1  6
 10  8  1  0
 10 11  2  0
 13 14  1  6
 13 12  1  0
 15 16  1  6
 15 13  1  0
 16 10  1  0
 17 15  1  0
 18 17  2  0
 20 21  2  0
 20 19  1  0
 22 20  1  0
 23 22  1  0
 24 23  1  1
 24 25  1  0
 25 17  1  0
 26 28  1  0
 26 24  1  0
 27 26  2  0
M  END
$$$$
