RVQ.pdb
     RDKit          3D

 28 27  0  0  1  0  0  0  0  0999 V2000
    7.1331  -15.1715   15.8609 N   0  0  0  0  0  0  0  0  0  0  0  0
    8.0815  -14.1235   15.7067 C   0  0  0  0  0  0  0  0  0  0  0  0
    8.8444  -14.1235   14.6720 N   0  0  0  0  0  0  0  0  0  0  0  0
    8.2087  -13.0811   16.6604 N   0  0  0  0  0  0  0  0  0  0  0  0
    7.3515  -13.0001   17.8079 C   0  0  0  0  0  0  0  0  0  0  0  0
    7.4410  -14.2289   18.6780 C   0  0  0  0  0  0  0  0  0  0  0  0
    8.0882  -13.8752   19.9809 C   0  0  0  0  0  0  0  0  0  0  0  0
    8.2975  -15.0655   20.8866 C   0  0  2  0  0  0  0  0  0  0  0  0
    7.0783  -15.8413   20.8944 N   0  0  0  0  0  0  0  0  0  0  0  0
    8.6632  -14.5863   22.2524 C   0  0  0  0  0  0  0  0  0  0  0  0
    9.8013  -14.0430   22.3888 O   0  0  0  0  0  0  0  0  0  0  0  0
    9.6359  -13.4606   14.5406 C   0  0  0  0  0  0  0  0  0  0  0  0
    6.3939  -12.5303   24.5044 C   0  0  1  0  0  0  0  0  0  0  0  0
    7.0527  -13.5901   25.3510 C   0  0  0  0  0  0  0  0  0  0  0  0
    7.4867  -13.1074   26.6977 C   0  0  2  0  0  0  0  0  0  0  0  0
    8.2373  -14.2264   24.6525 N   0  0  0  0  0  0  0  0  0  0  0  0
    7.8082  -14.7109   23.3819 C   0  0  0  0  0  0  0  0  0  0  0  0
    8.8996  -15.2555   25.4885 O   0  0  0  0  0  0  0  0  0  0  0  0
    8.2236  -16.2687   25.8031 N   0  0  0  0  0  0  0  0  0  0  0  0
   10.3055  -14.3645   30.9747 C   0  0  0  0  0  0  0  0  0  0  0  0
   10.8122  -15.6782   30.8455 O   0  0  0  0  0  0  0  0  0  0  0  0
   11.1493  -16.3254   31.8682 C   0  0  0  0  0  0  0  0  0  0  0  0
   10.9389  -16.2747   29.5037 C   0  0  0  0  0  0  0  0  0  0  0  0
   10.4412  -15.3557   28.4158 C   0  0  1  0  0  0  0  0  0  0  0  0
   10.7558  -15.9149   27.0647 N   0  0  0  0  0  0  0  0  0  0  0  0
   10.2312  -15.1856   25.9592 C   0  0  0  0  0  0  0  0  0  0  0  0
   10.3833  -17.3526   27.0692 O   0  0  0  0  0  0  0  0  0  0  0  0
    9.1905  -17.7221   27.1554 O   0  0  0  0  0  0  0  0  0  0  0  0
  2  1  1  0
  3  2  2  0
  4  2  1  0
  5  4  1  0
  6  5  1  0
  7  6  1  0
  8  7  1  0
  8  9  1  1
 10  8  1  0
 10 11  2  0
 13 14  1  1
 13 12  1  0
 15 16  1  6
 15 13  1  0
 16 10  1  0
 17 15  1  0
 18 17  2  0
 20 21  2  0
 20 19  1  0
 22 20  1  0
 23 22  1  0
 24 23  1  6
 24 25  1  0
 25 17  1  0
 26 28  1  0
 26 24  1  0
 27 26  2  0
M  END
$$$$
