RVQ.pdb
     RDKit          3D

 28 27  0  0  1  0  0  0  0  0999 V2000
    8.4298  -12.5960   17.8473 N   0  0  0  0  0  0  0  0  0  0  0  0
    8.9898  -13.8684   17.5487 C   0  0  0  0  0  0  0  0  0  0  0  0
    8.6853  -14.4352   16.4358 N   0  0  0  0  0  0  0  0  0  0  0  0
    9.8723  -14.5276   18.4425 N   0  0  0  0  0  0  0  0  0  0  0  0
    9.4115  -15.0913   19.6787 C   0  0  0  0  0  0  0  0  0  0  0  0
    7.9109  -15.2393   19.7168 C   0  0  0  0  0  0  0  0  0  0  0  0
    7.4986  -15.8357   21.0267 C   0  0  0  0  0  0  0  0  0  0  0  0
    6.6104  -14.9275   21.8435 C   0  0  2  0  0  0  0  0  0  0  0  0
    6.1638  -13.8517   20.9885 N   0  0  0  0  0  0  0  0  0  0  0  0
    7.3741  -14.4231   23.0229 C   0  0  0  0  0  0  0  0  0  0  0  0
    8.4584  -13.8076   22.7892 O   0  0  0  0  0  0  0  0  0  0  0  0
    9.0587  -15.3606   16.1403 C   0  0  0  0  0  0  0  0  0  0  0  0
    8.0667  -11.9753   26.7686 C   0  0  2  0  0  0  0  0  0  0  0  0
    7.1423  -12.7446   25.8589 C   0  0  0  0  0  0  0  0  0  0  0  0
    5.7821  -12.9786   26.4336 C   0  0  2  0  0  0  0  0  0  0  0  0
    7.7318  -14.0749   25.4359 N   0  0  0  0  0  0  0  0  0  0  0  0
    6.9466  -14.6000   24.3677 C   0  0  0  0  0  0  0  0  0  0  0  0
    7.8881  -15.0107   26.5745 O   0  0  0  0  0  0  0  0  0  0  0  0
    6.8974  -15.7242   26.8778 N   0  0  0  0  0  0  0  0  0  0  0  0
   12.1599  -17.7674   23.8637 C   0  0  0  0  0  0  0  0  0  0  0  0
   10.8203  -18.1671   24.0758 O   0  0  0  0  0  0  0  0  0  0  0  0
   10.2043  -18.8006   23.1827 C   0  0  0  0  0  0  0  0  0  0  0  0
   10.1600  -17.8327   25.3503 C   0  0  0  0  0  0  0  0  0  0  0  0
   10.5458  -16.4652   25.8572 C   0  0  2  0  0  0  0  0  0  0  0  0
    9.9956  -16.2337   27.2286 N   0  0  0  0  0  0  0  0  0  0  0  0
    9.0639  -15.1624   27.3453 C   0  0  0  0  0  0  0  0  0  0  0  0
   11.1413  -16.1407   28.1689 O   0  0  0  0  0  0  0  0  0  0  0  0
   11.9412  -15.1785   28.1370 O   0  0  0  0  0  0  0  0  0  0  0  0
  2  1  1  0
  3  2  2  0
  4  2  1  0
  5  4  1  0
  6  5  1  0
  7  6  1  0
  8  7  1  0
  8  9  1  6
 10  8  1  0
 10 11  2  0
 13 14  1  1
 13 12  1  0
 15 16  1  1
 15 13  1  0
 16 10  1  0
 17 15  1  0
 18 17  2  0
 20 21  2  0
 20 19  1  0
 22 20  1  0
 23 22  1  0
 24 23  1  6
 24 25  1  0
 25 17  1  0
 26 28  1  0
 26 24  1  0
 27 26  2  0
M  END
$$$$
