RVQ.pdb
     RDKit          3D

 28 27  0  0  1  0  0  0  0  0999 V2000
    9.0967  -13.1881   19.6094 N   0  0  0  0  0  0  0  0  0  0  0  0
    8.3750  -13.4755   18.4186 C   0  0  0  0  0  0  0  0  0  0  0  0
    7.8591  -12.5029   17.7549 N   0  0  0  0  0  0  0  0  0  0  0  0
    8.2089  -14.8021   17.9442 N   0  0  0  0  0  0  0  0  0  0  0  0
    8.6552  -15.9354   18.7021 C   0  0  0  0  0  0  0  0  0  0  0  0
    7.9025  -16.0892   20.0001 C   0  0  0  0  0  0  0  0  0  0  0  0
    8.8707  -16.3336   21.1156 C   0  0  0  0  0  0  0  0  0  0  0  0
    8.2052  -16.7686   22.3997 C   0  0  2  0  0  0  0  0  0  0  0  0
    6.7751  -16.7406   22.1940 N   0  0  0  0  0  0  0  0  0  0  0  0
    8.6281  -15.8595   23.5057 C   0  0  0  0  0  0  0  0  0  0  0  0
    9.8735  -15.6679   23.6522 O   0  0  0  0  0  0  0  0  0  0  0  0
    7.3576  -12.6249   16.8512 C   0  0  0  0  0  0  0  0  0  0  0  0
    6.7402  -12.5972   24.7031 C   0  0  1  0  0  0  0  0  0  0  0  0
    7.1689  -13.4354   25.8811 C   0  0  0  0  0  0  0  0  0  0  0  0
    7.6857  -12.6390   27.0360 C   0  0  2  0  0  0  0  0  0  0  0  0
    8.2042  -14.4736   25.4985 N   0  0  0  0  0  0  0  0  0  0  0  0
    7.7137  -15.2138   24.3828 C   0  0  0  0  0  0  0  0  0  0  0  0
    8.6032  -15.3225   26.6460 O   0  0  0  0  0  0  0  0  0  0  0  0
    7.6874  -15.9088   27.2785 N   0  0  0  0  0  0  0  0  0  0  0  0
   13.6788  -18.1915   26.5733 C   0  0  0  0  0  0  0  0  0  0  0  0
   12.4262  -18.5593   26.0300 O   0  0  0  0  0  0  0  0  0  0  0  0
   12.3739  -19.2486   24.9809 C   0  0  0  0  0  0  0  0  0  0  0  0
   11.1904  -18.1261   26.7062 C   0  0  0  0  0  0  0  0  0  0  0  0
   11.4666  -17.2721   27.9187 C   0  0  2  0  0  0  0  0  0  0  0  0
   10.3260  -16.3411   28.1821 N   0  0  0  0  0  0  0  0  0  0  0  0
    9.9327  -15.5233   27.0840 C   0  0  0  0  0  0  0  0  0  0  0  0
   10.6361  -15.5800   29.4191 O   0  0  0  0  0  0  0  0  0  0  0  0
   10.6811  -14.3292   29.4272 O   0  0  0  0  0  0  0  0  0  0  0  0
  2  1  1  0
  3  2  2  0
  4  2  1  0
  5  4  1  0
  6  5  1  0
  7  6  1  0
  8  7  1  0
  8  9  1  6
 10  8  1  0
 10 11  2  0
 13 14  1  6
 13 12  1  0
 15 16  1  6
 15 13  1  0
 16 10  1  0
 17 15  1  0
 18 17  2  0
 20 21  2  0
 20 19  1  0
 22 20  1  0
 23 22  1  0
 24 23  1  6
 24 25  1  0
 25 17  1  0
 26 28  1  0
 26 24  1  0
 27 26  2  0
M  END
$$$$
