QLM.pdb
     RDKit          3D

 26 25  0  0  1  0  0  0  0  0999 V2000
   11.3873  -18.0134   16.5043 N   0  0  0  0  0  0  0  0  0  0  0  0
   10.3478  -18.9300   16.7854 C   0  0  0  0  0  0  0  0  0  0  0  0
    9.8933  -19.6502   15.8836 O   0  0  0  0  0  0  0  0  0  0  0  0
    9.8146  -19.0180   18.1556 C   0  0  0  0  0  0  0  0  0  0  0  0
   10.5467  -18.0401   19.0230 C   0  0  0  0  0  0  0  0  0  0  0  0
   10.1202  -18.1224   20.4807 C   0  0  2  0  0  0  0  0  0  0  0  0
    8.8122  -18.6737   20.6370 N   0  0  0  0  0  0  0  0  0  0  0  0
   10.1644  -16.7447   21.0421 C   0  0  0  0  0  0  0  0  0  0  0  0
   11.2737  -16.1436   21.1891 O   0  0  0  0  0  0  0  0  0  0  0  0
    8.8014  -12.9979   19.4295 C   0  0  0  0  0  0  0  0  0  0  0  0
    7.6554  -13.8879   19.9377 C   0  0  2  0  0  0  0  0  0  0  0  0
    6.3866  -13.2510   19.4817 C   0  0  0  0  0  0  0  0  0  0  0  0
    7.8103  -13.9775   21.4134 C   0  0  0  0  0  0  0  0  0  0  0  0
    9.0435  -14.6472   21.9049 C   0  0  2  0  0  0  0  0  0  0  0  0
    9.0082  -16.0343   21.4375 N   0  0  0  0  0  0  0  0  0  0  0  0
    9.2482  -14.5795   23.3642 C   0  0  0  0  0  0  0  0  0  0  0  0
    9.4007  -13.4810   23.9541 O   0  0  0  0  0  0  0  0  0  0  0  0
    7.5044  -11.6024   27.3364 C   0  0  0  0  0  0  0  0  0  0  0  0
    7.7479  -12.9085   26.0878 S   0  0  0  0  0  0  0  0  0  0  0  0
    7.1134  -14.4554   26.7551 C   0  0  0  0  0  0  0  0  0  0  0  0
    7.4446  -15.6072   25.8128 C   0  0  0  0  0  0  0  0  0  0  0  0
    8.9304  -15.7198   25.5948 C   0  0  2  0  0  0  0  0  0  0  0  0
    9.2866  -15.7450   24.1974 N   0  0  0  0  0  0  0  0  0  0  0  0
    9.3760  -16.9937   26.2058 C   0  0  0  0  0  0  0  0  0  0  0  0
    9.2210  -17.2113   27.4311 O   0  0  0  0  0  0  0  0  0  0  0  0
    9.9637  -17.9351   25.4039 O   0  0  0  0  0  0  0  0  0  0  0  0
  1  2  1  0
  2  4  1  0
  2  3  2  0
  4  5  1  0
  5  6  1  0
  6  7  1  6
  8  9  2  0
  8  6  1  0
 11 10  1  1
 11 12  1  0
 14 13  1  1
 13 11  1  0
 14 15  1  0
 15  8  1  0
 16 14  1  0
 17 16  2  0
 19 18  1  0
 20 19  1  0
 21 20  1  0
 22 21  1  6
 22 24  1  0
 22 23  1  0
 23 16  1  0
 24 26  1  0
 25 24  2  0
M  END
$$$$
