QLM.pdb
     RDKit          3D

 26 25  0  0  1  0  0  0  0  0999 V2000
    7.0027  -20.2810   19.5681 N   0  0  0  0  0  0  0  0  0  0  0  0
    8.0052  -21.2073   19.9374 C   0  0  0  0  0  0  0  0  0  0  0  0
    7.6964  -22.3698   20.2401 O   0  0  0  0  0  0  0  0  0  0  0  0
    9.4135  -20.7762   19.9581 C   0  0  0  0  0  0  0  0  0  0  0  0
    9.5097  -19.4740   20.6928 C   0  0  0  0  0  0  0  0  0  0  0  0
    9.8091  -18.3045   19.7674 C   0  0  2  0  0  0  0  0  0  0  0  0
   11.0040  -18.4990   19.0103 N   0  0  0  0  0  0  0  0  0  0  0  0
    9.9306  -17.0830   20.6091 C   0  0  0  0  0  0  0  0  0  0  0  0
   11.0640  -16.7100   21.0445 O   0  0  0  0  0  0  0  0  0  0  0  0
    8.8720  -12.8153   19.7762 C   0  0  0  0  0  0  0  0  0  0  0  0
    7.7342  -13.8097   20.0596 C   0  0  2  0  0  0  0  0  0  0  0  0
    6.4648  -13.1233   19.6842 C   0  0  0  0  0  0  0  0  0  0  0  0
    7.8403  -14.1777   21.4960 C   0  0  0  0  0  0  0  0  0  0  0  0
    8.9347  -15.1185   21.8538 C   0  0  2  0  0  0  0  0  0  0  0  0
    8.8245  -16.2801   20.9694 N   0  0  0  0  0  0  0  0  0  0  0  0
    8.9653  -15.5262   23.2711 C   0  0  0  0  0  0  0  0  0  0  0  0
    8.1889  -16.4077   23.7162 O   0  0  0  0  0  0  0  0  0  0  0  0
    6.0220  -11.8997   26.2043 C   0  0  0  0  0  0  0  0  0  0  0  0
    7.0184  -12.4138   27.6421 S   0  0  0  0  0  0  0  0  0  0  0  0
    7.8069  -13.9844   27.2523 C   0  0  0  0  0  0  0  0  0  0  0  0
    8.2326  -14.0078   25.7885 C   0  0  0  0  0  0  0  0  0  0  0  0
    9.5251  -14.7598   25.6113 C   0  0  2  0  0  0  0  0  0  0  0  0
    9.8696  -14.9534   24.2242 N   0  0  0  0  0  0  0  0  0  0  0  0
    9.3547  -16.0935   26.2332 C   0  0  0  0  0  0  0  0  0  0  0  0
    9.1853  -16.2125   27.4701 O   0  0  0  0  0  0  0  0  0  0  0  0
    9.3855  -17.2008   25.4284 O   0  0  0  0  0  0  0  0  0  0  0  0
  1  2  1  0
  2  4  1  0
  2  3  2  0
  4  5  1  0
  5  6  1  0
  6  7  1  1
  8  9  2  0
  8  6  1  0
 11 10  1  1
 11 12  1  0
 14 13  1  1
 13 11  1  0
 14 15  1  0
 15  8  1  0
 16 14  1  0
 17 16  2  0
 19 18  1  0
 20 19  1  0
 21 20  1  0
 22 21  1  6
 22 24  1  0
 22 23  1  0
 23 16  1  0
 24 26  1  0
 25 24  2  0
M  END
$$$$
