QLM.pdb
     RDKit          3D

 26 25  0  0  1  0  0  0  0  0999 V2000
   10.5730  -18.2167   15.6456 N   0  0  0  0  0  0  0  0  0  0  0  0
    9.5430  -19.0883   16.0685 C   0  0  0  0  0  0  0  0  0  0  0  0
    8.8805  -19.7200   15.2316 O   0  0  0  0  0  0  0  0  0  0  0  0
    9.2683  -19.2356   17.5081 C   0  0  0  0  0  0  0  0  0  0  0  0
   10.2073  -18.3529   18.2722 C   0  0  0  0  0  0  0  0  0  0  0  0
   10.0030  -18.4502   19.7764 C   0  0  2  0  0  0  0  0  0  0  0  0
    8.7061  -18.9383   20.1212 N   0  0  0  0  0  0  0  0  0  0  0  0
   10.2060  -17.0909   20.3479 C   0  0  0  0  0  0  0  0  0  0  0  0
   11.3029  -16.4750   20.1727 O   0  0  0  0  0  0  0  0  0  0  0  0
    8.5124  -12.9210   19.7666 C   0  0  0  0  0  0  0  0  0  0  0  0
    7.5661  -13.9992   20.3193 C   0  0  2  0  0  0  0  0  0  0  0  0
    6.2022  -13.3970   20.3450 C   0  0  0  0  0  0  0  0  0  0  0  0
    8.0985  -14.3885   21.6516 C   0  0  0  0  0  0  0  0  0  0  0  0
    9.4177  -15.0745   21.6567 C   0  0  2  0  0  0  0  0  0  0  0  0
    9.2198  -16.4149   21.1017 N   0  0  0  0  0  0  0  0  0  0  0  0
   10.0828  -15.1330   22.9721 C   0  0  0  0  0  0  0  0  0  0  0  0
   10.7474  -14.1630   23.4139 O   0  0  0  0  0  0  0  0  0  0  0  0
   10.6599  -12.5498   27.5744 C   0  0  0  0  0  0  0  0  0  0  0  0
    9.5927  -13.8597   28.2594 S   0  0  0  0  0  0  0  0  0  0  0  0
   10.0742  -15.4279   27.5183 C   0  0  0  0  0  0  0  0  0  0  0  0
    9.5113  -15.5343   26.1054 C   0  0  0  0  0  0  0  0  0  0  0  0
   10.4621  -16.2671   25.1962 C   0  0  2  0  0  0  0  0  0  0  0  0
   10.0176  -16.2835   23.8243 N   0  0  0  0  0  0  0  0  0  0  0  0
   10.5425  -17.6683   25.6702 C   0  0  0  0  0  0  0  0  0  0  0  0
   10.1259  -18.6151   24.9611 O   0  0  0  0  0  0  0  0  0  0  0  0
   11.0832  -17.9130   26.9042 O   0  0  0  0  0  0  0  0  0  0  0  0
  1  2  1  0
  2  4  1  0
  2  3  2  0
  4  5  1  0
  5  6  1  0
  6  7  1  6
  8  9  2  0
  8  6  1  0
 11 10  1  1
 11 12  1  0
 14 13  1  1
 13 11  1  0
 14 15  1  0
 15  8  1  0
 16 14  1  0
 17 16  2  0
 19 18  1  0
 20 19  1  0
 21 20  1  0
 22 21  1  1
 22 24  1  0
 22 23  1  0
 23 16  1  0
 24 26  1  0
 25 24  2  0
M  END
$$$$
