QPY.pdb
     RDKit          3D

 29 30  0  0  1  0  0  0  0  0999 V2000
    9.9799  -18.7912   17.5681 N   0  0  0  0  0  0  0  0  0  0  0  0
   10.4553  -17.5123   17.2389 C   0  0  0  0  0  0  0  0  0  0  0  0
   11.6823  -17.2823   17.2856 O   0  0  0  0  0  0  0  0  0  0  0  0
    9.5161  -16.4405   16.8389 C   0  0  0  0  0  0  0  0  0  0  0  0
    8.6317  -16.1016   18.0014 C   0  0  0  0  0  0  0  0  0  0  0  0
    8.7490  -14.6689   18.4876 C   0  0  2  0  0  0  0  0  0  0  0  0
    9.8468  -14.1223   17.6475 N   0  0  0  0  0  0  0  0  0  0  0  0
    9.1516  -14.6002   19.9059 C   0  0  0  0  0  0  0  0  0  0  0  0
   10.4146  -14.6710   20.1013 O   0  0  0  0  0  0  0  0  0  0  0  0
    8.2309  -14.4644   20.9884 N   0  0  0  0  0  0  0  0  0  0  0  0
    6.9007  -13.9367   20.7789 C   0  0  0  0  0  0  0  0  0  0  0  0
    6.0663  -14.8813   21.6184 C   0  0  0  0  0  0  0  0  0  0  0  0
    6.9444  -14.9817   22.8561 C   0  0  0  0  0  0  0  0  0  0  0  0
    8.3685  -14.6950   22.3685 C   0  0  1  0  0  0  0  0  0  0  0  0
    9.2753  -15.7721   22.7973 C   0  0  0  0  0  0  0  0  0  0  0  0
    9.2918  -16.8754   22.2307 O   0  0  0  0  0  0  0  0  0  0  0  0
    9.5485  -13.9873   30.0318 O   0  0  0  0  0  0  0  0  0  0  0  0
   10.1522  -14.4709   28.8760 C   0  0  0  0  0  0  0  0  0  0  0  0
   10.1735  -13.6889   27.7631 C   0  0  0  0  0  0  0  0  0  0  0  0
   10.7790  -14.1803   26.6124 C   0  0  0  0  0  0  0  0  0  0  0  0
   11.3511  -15.4280   26.5755 C   0  0  0  0  0  0  0  0  0  0  0  0
   11.9831  -15.9523   25.3689 C   0  0  0  0  0  0  0  0  0  0  0  0
   11.0541  -16.5898   24.3879 C   0  0  2  0  0  0  0  0  0  0  0  0
   10.1605  -15.5632   23.8839 N   0  0  0  0  0  0  0  0  0  0  0  0
   10.2016  -17.5979   25.0628 C   0  0  0  0  0  0  0  0  0  0  0  0
    8.8169  -17.4187   25.2465 O   0  0  0  0  0  0  0  0  0  0  0  0
   11.3074  -16.1848   27.7217 C   0  0  0  0  0  0  0  0  0  0  0  0
   10.7133  -15.7198   28.8740 C   0  0  0  0  0  0  0  0  0  0  0  0
   10.6649  -18.6707   25.5102 O   0  0  0  0  0  0  0  0  0  0  0  0
  2  1  1  0
  2  3  2  0
  4  2  1  0
  5  4  1  0
  5  6  1  0
  6  8  1  0
  6  7  1  6
  8  9  2  0
 10 14  1  0
 10  8  1  0
 11 10  1  0
 12 13  1  0
 12 11  1  0
 13 14  1  0
 14 15  1  6
 15 16  2  0
 17 18  1  0
 18 19  2  0
 19 20  1  0
 21 22  1  0
 21 20  2  0
 23 22  1  1
 23 25  1  0
 24 23  1  0
 24 15  1  0
 25 29  2  0
 25 26  1  0
 27 21  1  0
 28 27  2  0
 28 18  1  0
M  END
$$$$
