QPY.pdb
     RDKit          3D

 29 30  0  0  1  0  0  0  0  0999 V2000
    3.2804  -19.1222   23.1450 N   0  0  0  0  0  0  0  0  0  0  0  0
    3.6865  -18.9753   21.8095 C   0  0  0  0  0  0  0  0  0  0  0  0
    3.4578  -19.8931   20.9935 O   0  0  0  0  0  0  0  0  0  0  0  0
    4.3807  -17.7458   21.3652 C   0  0  0  0  0  0  0  0  0  0  0  0
    5.8271  -18.0574   21.1219 C   0  0  0  0  0  0  0  0  0  0  0  0
    6.4386  -17.3331   19.9370 C   0  0  2  0  0  0  0  0  0  0  0  0
    6.7670  -18.4425   19.0035 N   0  0  0  0  0  0  0  0  0  0  0  0
    7.6841  -16.6314   20.3039 C   0  0  0  0  0  0  0  0  0  0  0  0
    8.6291  -17.4008   20.6956 O   0  0  0  0  0  0  0  0  0  0  0  0
    7.8488  -15.2150   20.2352 N   0  0  0  0  0  0  0  0  0  0  0  0
    7.0754  -14.4146   19.3116 C   0  0  0  0  0  0  0  0  0  0  0  0
    6.6947  -13.2348   20.1813 C   0  0  0  0  0  0  0  0  0  0  0  0
    8.0185  -12.9890   20.8885 C   0  0  0  0  0  0  0  0  0  0  0  0
    8.7357  -14.3432   20.8912 C   0  0  1  0  0  0  0  0  0  0  0  0
    9.1534  -14.6905   22.2591 C   0  0  0  0  0  0  0  0  0  0  0  0
    8.5233  -14.2986   23.2531 O   0  0  0  0  0  0  0  0  0  0  0  0
    9.9408  -14.1126   29.9030 O   0  0  0  0  0  0  0  0  0  0  0  0
    9.9287  -14.6317   28.6128 C   0  0  0  0  0  0  0  0  0  0  0  0
    9.5481  -13.8315   27.5806 C   0  0  0  0  0  0  0  0  0  0  0  0
    9.5390  -14.3585   26.2944 C   0  0  0  0  0  0  0  0  0  0  0  0
    9.9028  -15.6590   26.0457 C   0  0  0  0  0  0  0  0  0  0  0  0
    9.8897  -16.2203   24.6985 C   0  0  0  0  0  0  0  0  0  0  0  0
   10.9212  -15.6702   23.7683 C   0  0  2  0  0  0  0  0  0  0  0  0
   10.3028  -15.4926   22.4673 N   0  0  0  0  0  0  0  0  0  0  0  0
   12.0230  -16.6450   23.5831 C   0  0  0  0  0  0  0  0  0  0  0  0
   13.1861  -16.6342   24.3772 O   0  0  0  0  0  0  0  0  0  0  0  0
   10.2804  -16.4326   27.1169 C   0  0  0  0  0  0  0  0  0  0  0  0
   10.2976  -15.9330   28.4003 C   0  0  0  0  0  0  0  0  0  0  0  0
   11.9833  -17.5374   22.7069 O   0  0  0  0  0  0  0  0  0  0  0  0
  2  1  1  0
  2  3  2  0
  4  2  1  0
  5  4  1  0
  5  6  1  0
  6  8  1  0
  6  7  1  6
  8  9  2  0
 10 14  1  0
 10  8  1  0
 11 10  1  0
 12 13  1  0
 12 11  1  0
 13 14  1  0
 14 15  1  1
 15 16  2  0
 17 18  1  0
 18 19  2  0
 19 20  1  0
 21 22  1  0
 21 20  2  0
 23 22  1  1
 23 25  1  0
 24 23  1  0
 24 15  1  0
 25 29  2  0
 25 26  1  0
 27 21  1  0
 28 27  2  0
 28 18  1  0
M  END
$$$$
