QPY.pdb
     RDKit          3D

 29 30  0  0  1  0  0  0  0  0999 V2000
    7.9735  -20.8515   19.3299 N   0  0  0  0  0  0  0  0  0  0  0  0
    9.3597  -20.6564   19.2286 C   0  0  0  0  0  0  0  0  0  0  0  0
   10.0517  -21.4822   18.5962 O   0  0  0  0  0  0  0  0  0  0  0  0
   10.0027  -19.4840   19.8634 C   0  0  0  0  0  0  0  0  0  0  0  0
   10.5351  -18.5760   18.7954 C   0  0  0  0  0  0  0  0  0  0  0  0
    9.7064  -17.3274   18.5570 C   0  0  2  0  0  0  0  0  0  0  0  0
   10.5297  -16.5638   17.5829 N   0  0  0  0  0  0  0  0  0  0  0  0
    9.5529  -16.5256   19.7866 C   0  0  0  0  0  0  0  0  0  0  0  0
   10.5901  -16.5031   20.5364 O   0  0  0  0  0  0  0  0  0  0  0  0
    8.3599  -15.8228   20.1341 N   0  0  0  0  0  0  0  0  0  0  0  0
    7.3251  -15.5733   19.1549 C   0  0  0  0  0  0  0  0  0  0  0  0
    6.0754  -15.8848   19.9514 C   0  0  0  0  0  0  0  0  0  0  0  0
    6.4242  -15.2068   21.2674 C   0  0  0  0  0  0  0  0  0  0  0  0
    7.9554  -15.1986   21.3272 C   0  0  1  0  0  0  0  0  0  0  0  0
    8.4140  -15.7836   22.5975 C   0  0  0  0  0  0  0  0  0  0  0  0
    8.5362  -17.0090   22.7451 O   0  0  0  0  0  0  0  0  0  0  0  0
   10.7023  -15.6109   31.1811 O   0  0  0  0  0  0  0  0  0  0  0  0
   10.3461  -15.2782   29.8786 C   0  0  0  0  0  0  0  0  0  0  0  0
    9.5353  -14.2065   29.6670 C   0  0  0  0  0  0  0  0  0  0  0  0
    9.1845  -13.8812   28.3619 C   0  0  0  0  0  0  0  0  0  0  0  0
    9.6350  -14.6126   27.2907 C   0  0  0  0  0  0  0  0  0  0  0  0
    9.2655  -14.2800   25.9184 C   0  0  0  0  0  0  0  0  0  0  0  0
    9.0991  -15.4480   25.0018 C   0  0  2  0  0  0  0  0  0  0  0  0
    8.7294  -14.9416   23.6928 N   0  0  0  0  0  0  0  0  0  0  0  0
    7.9778  -16.3055   25.4554 C   0  0  0  0  0  0  0  0  0  0  0  0
    8.1750  -17.4611   26.2359 O   0  0  0  0  0  0  0  0  0  0  0  0
   10.4518  -15.6870   27.5492 C   0  0  0  0  0  0  0  0  0  0  0  0
   10.8134  -16.0290   28.8334 C   0  0  0  0  0  0  0  0  0  0  0  0
    6.7864  -16.0514   25.1698 O   0  0  0  0  0  0  0  0  0  0  0  0
  2  1  1  0
  2  3  2  0
  4  2  1  0
  5  4  1  0
  5  6  1  0
  6  8  1  0
  6  7  1  6
  8  9  2  0
 10 14  1  0
 10  8  1  0
 11 10  1  0
 12 13  1  0
 12 11  1  0
 13 14  1  0
 14 15  1  1
 15 16  2  0
 17 18  1  0
 18 19  2  0
 19 20  1  0
 21 22  1  0
 21 20  2  0
 23 22  1  1
 23 25  1  0
 24 23  1  0
 24 15  1  0
 25 29  2  0
 25 26  1  0
 27 21  1  0
 28 27  2  0
 28 18  1  0
M  END
$$$$
