QPY.pdb
     RDKit          3D

 29 30  0  0  1  0  0  0  0  0999 V2000
    7.9164  -21.0192   17.9636 N   0  0  0  0  0  0  0  0  0  0  0  0
    8.0909  -19.8505   17.2061 C   0  0  0  0  0  0  0  0  0  0  0  0
    8.8862  -19.8560   16.2427 O   0  0  0  0  0  0  0  0  0  0  0  0
    7.3420  -18.6184   17.5406 C   0  0  0  0  0  0  0  0  0  0  0  0
    7.9491  -17.9884   18.7583 C   0  0  0  0  0  0  0  0  0  0  0  0
    8.9160  -16.8555   18.4679 C   0  0  2  0  0  0  0  0  0  0  0  0
   10.1076  -17.5653   17.9333 N   0  0  0  0  0  0  0  0  0  0  0  0
    9.3003  -16.1317   19.6954 C   0  0  0  0  0  0  0  0  0  0  0  0
   10.0417  -16.8023   20.4948 O   0  0  0  0  0  0  0  0  0  0  0  0
    8.8951  -14.7951   19.9904 N   0  0  0  0  0  0  0  0  0  0  0  0
    8.6044  -13.8499   18.9349 C   0  0  0  0  0  0  0  0  0  0  0  0
    7.3478  -13.1883   19.4607 C   0  0  0  0  0  0  0  0  0  0  0  0
    7.7354  -13.0057   20.9200 C   0  0  0  0  0  0  0  0  0  0  0  0
    8.7645  -14.1039   21.2079 C   0  0  1  0  0  0  0  0  0  0  0  0
    8.3612  -14.8749   22.3950 C   0  0  0  0  0  0  0  0  0  0  0  0
    7.3253  -15.5570   22.4090 O   0  0  0  0  0  0  0  0  0  0  0  0
   13.9012  -19.4115   24.2997 O   0  0  0  0  0  0  0  0  0  0  0  0
   12.6441  -18.8181   24.3431 C   0  0  0  0  0  0  0  0  0  0  0  0
   12.4320  -17.6650   23.6531 C   0  0  0  0  0  0  0  0  0  0  0  0
   11.1726  -17.0789   23.7020 C   0  0  0  0  0  0  0  0  0  0  0  0
   10.1466  -17.6342   24.4261 C   0  0  0  0  0  0  0  0  0  0  0  0
    8.8237  -17.0207   24.4865 C   0  0  0  0  0  0  0  0  0  0  0  0
    8.8128  -15.5561   24.7813 C   0  0  2  0  0  0  0  0  0  0  0  0
    9.1639  -14.8507   23.5625 N   0  0  0  0  0  0  0  0  0  0  0  0
    9.8573  -15.2217   25.7791 C   0  0  0  0  0  0  0  0  0  0  0  0
    9.8048  -15.6737   27.1119 O   0  0  0  0  0  0  0  0  0  0  0  0
   10.4039  -18.7991   25.1082 C   0  0  0  0  0  0  0  0  0  0  0  0
   11.6434  -19.3988   25.0750 C   0  0  0  0  0  0  0  0  0  0  0  0
   10.8501  -14.5157   25.4937 O   0  0  0  0  0  0  0  0  0  0  0  0
  2  1  1  0
  2  3  2  0
  4  2  1  0
  5  4  1  0
  5  6  1  0
  6  8  1  0
  6  7  1  1
  8  9  2  0
 10 14  1  0
 10  8  1  0
 11 10  1  0
 12 13  1  0
 12 11  1  0
 13 14  1  0
 14 15  1  1
 15 16  2  0
 17 18  1  0
 18 19  2  0
 19 20  1  0
 21 22  1  0
 21 20  2  0
 23 22  1  6
 23 25  1  0
 24 23  1  0
 24 15  1  0
 25 29  2  0
 25 26  1  0
 27 21  1  0
 28 27  2  0
 28 18  1  0
M  END
$$$$
