QPY.pdb
     RDKit          3D

 29 30  0  0  1  0  0  0  0  0999 V2000
   13.9257  -14.4971   18.3038 N   0  0  0  0  0  0  0  0  0  0  0  0
   13.3202  -15.1428   17.2146 C   0  0  0  0  0  0  0  0  0  0  0  0
   14.0339  -15.5952   16.2945 O   0  0  0  0  0  0  0  0  0  0  0  0
   11.8487  -15.2899   17.1504 C   0  0  0  0  0  0  0  0  0  0  0  0
   11.2825  -15.1845   18.5348 C   0  0  0  0  0  0  0  0  0  0  0  0
    9.7762  -15.3503   18.6155 C   0  0  2  0  0  0  0  0  0  0  0  0
    9.2710  -14.1136   17.9634 N   0  0  0  0  0  0  0  0  0  0  0  0
    9.3003  -15.3840   20.0122 C   0  0  0  0  0  0  0  0  0  0  0  0
    9.7339  -14.4261   20.7421 O   0  0  0  0  0  0  0  0  0  0  0  0
    8.4277  -16.3876   20.5310 N   0  0  0  0  0  0  0  0  0  0  0  0
    7.6312  -17.2154   19.6522 C   0  0  0  0  0  0  0  0  0  0  0  0
    7.8029  -18.5798   20.2861 C   0  0  0  0  0  0  0  0  0  0  0  0
    7.6573  -18.2101   21.7542 C   0  0  0  0  0  0  0  0  0  0  0  0
    8.0885  -16.7427   21.8485 C   0  0  1  0  0  0  0  0  0  0  0  0
    9.1181  -16.5850   22.8885 C   0  0  0  0  0  0  0  0  0  0  0  0
   10.2756  -17.0011   22.7291 O   0  0  0  0  0  0  0  0  0  0  0  0
    5.0341  -11.8162   26.9604 O   0  0  0  0  0  0  0  0  0  0  0  0
    6.2275  -12.4184   26.5762 C   0  0  0  0  0  0  0  0  0  0  0  0
    6.4896  -12.5831   25.2515 C   0  0  0  0  0  0  0  0  0  0  0  0
    7.6847  -13.1860   24.8765 C   0  0  0  0  0  0  0  0  0  0  0  0
    8.5985  -13.6154   25.8071 C   0  0  0  0  0  0  0  0  0  0  0  0
    9.8524  -14.2544   25.4203 C   0  0  0  0  0  0  0  0  0  0  0  0
    9.7678  -15.7247   25.1689 C   0  0  2  0  0  0  0  0  0  0  0  0
    8.7985  -15.9437   24.1110 N   0  0  0  0  0  0  0  0  0  0  0  0
    9.2497  -16.4255   26.3685 C   0  0  0  0  0  0  0  0  0  0  0  0
    7.9972  -17.0691   26.3884 O   0  0  0  0  0  0  0  0  0  0  0  0
    8.2940  -13.4295   27.1342 C   0  0  0  0  0  0  0  0  0  0  0  0
    7.1166  -12.8347   27.5304 C   0  0  0  0  0  0  0  0  0  0  0  0
    9.8978  -16.4859   27.4371 O   0  0  0  0  0  0  0  0  0  0  0  0
  2  1  1  0
  2  3  2  0
  4  2  1  0
  5  4  1  0
  5  6  1  0
  6  8  1  0
  6  7  1  6
  8  9  2  0
 10 14  1  0
 10  8  1  0
 11 10  1  0
 12 13  1  0
 12 11  1  0
 13 14  1  0
 14 15  1  1
 15 16  2  0
 17 18  1  0
 18 19  2  0
 19 20  1  0
 21 22  1  0
 21 20  2  0
 23 22  1  1
 23 25  1  0
 24 23  1  0
 24 15  1  0
 25 29  2  0
 25 26  1  0
 27 21  1  0
 28 27  2  0
 28 18  1  0
M  END
$$$$
