QPY.pdb
     RDKit          3D

 29 30  0  0  1  0  0  0  0  0999 V2000
    5.2703  -19.3683   19.7536 N   0  0  0  0  0  0  0  0  0  0  0  0
    6.6042  -19.7907   19.8649 C   0  0  0  0  0  0  0  0  0  0  0  0
    6.8604  -20.8728   20.4339 O   0  0  0  0  0  0  0  0  0  0  0  0
    7.7029  -18.9654   19.3147 C   0  0  0  0  0  0  0  0  0  0  0  0
    7.1205  -17.7783   18.6075 C   0  0  0  0  0  0  0  0  0  0  0  0
    8.1445  -16.7782   18.1037 C   0  0  2  0  0  0  0  0  0  0  0  0
    9.0864  -17.6290   17.3299 N   0  0  0  0  0  0  0  0  0  0  0  0
    8.8785  -16.1365   19.2117 C   0  0  0  0  0  0  0  0  0  0  0  0
    9.7995  -16.8615   19.7262 O   0  0  0  0  0  0  0  0  0  0  0  0
    8.6062  -14.8187   19.6883 N   0  0  0  0  0  0  0  0  0  0  0  0
    7.9422  -13.8422   18.8533 C   0  0  0  0  0  0  0  0  0  0  0  0
    6.9668  -13.2225   19.8320 C   0  0  0  0  0  0  0  0  0  0  0  0
    7.8660  -13.0848   21.0508 C   0  0  0  0  0  0  0  0  0  0  0  0
    8.9327  -14.1737   20.8943 C   0  0  1  0  0  0  0  0  0  0  0  0
    9.0000  -14.9935   22.1148 C   0  0  0  0  0  0  0  0  0  0  0  0
    8.0035  -15.1844   22.8284 O   0  0  0  0  0  0  0  0  0  0  0  0
    4.7415  -18.7427   23.7691 O   0  0  0  0  0  0  0  0  0  0  0  0
    6.0932  -18.4201   23.8229 C   0  0  0  0  0  0  0  0  0  0  0  0
    6.8489  -18.5441   22.6986 C   0  0  0  0  0  0  0  0  0  0  0  0
    8.1990  -18.2194   22.7615 C   0  0  0  0  0  0  0  0  0  0  0  0
    8.7813  -17.7799   23.9248 C   0  0  0  0  0  0  0  0  0  0  0  0
   10.1995  -17.4430   23.9991 C   0  0  0  0  0  0  0  0  0  0  0  0
   10.5175  -15.9894   23.8664 C   0  0  2  0  0  0  0  0  0  0  0  0
   10.2260  -15.5893   22.5020 N   0  0  0  0  0  0  0  0  0  0  0  0
   11.9668  -15.7559   24.0747 C   0  0  0  0  0  0  0  0  0  0  0  0
   12.5905  -15.9305   25.3254 O   0  0  0  0  0  0  0  0  0  0  0  0
    7.9818  -17.6690   25.0369 C   0  0  0  0  0  0  0  0  0  0  0  0
    6.6416  -17.9846   24.9995 C   0  0  0  0  0  0  0  0  0  0  0  0
   12.7230  -15.3889   23.1479 O   0  0  0  0  0  0  0  0  0  0  0  0
  2  1  1  0
  2  3  2  0
  4  2  1  0
  5  4  1  0
  5  6  1  0
  6  8  1  0
  6  7  1  6
  8  9  2  0
 10 14  1  0
 10  8  1  0
 11 10  1  0
 12 13  1  0
 12 11  1  0
 13 14  1  0
 14 15  1  1
 15 16  2  0
 17 18  1  0
 18 19  2  0
 19 20  1  0
 21 22  1  0
 21 20  2  0
 23 22  1  6
 23 25  1  0
 24 23  1  0
 24 15  1  0
 25 29  2  0
 25 26  1  0
 27 21  1  0
 28 27  2  0
 28 18  1  0
M  END
$$$$
