QPY.pdb
     RDKit          3D

 29 30  0  0  1  0  0  0  0  0999 V2000
    6.2950  -19.4460   22.5734 N   0  0  0  0  0  0  0  0  0  0  0  0
    6.3243  -20.1980   21.3886 C   0  0  0  0  0  0  0  0  0  0  0  0
    6.2382  -21.4428   21.4489 O   0  0  0  0  0  0  0  0  0  0  0  0
    6.4560  -19.5279   20.0754 C   0  0  0  0  0  0  0  0  0  0  0  0
    6.4313  -18.0421   20.2760 C   0  0  0  0  0  0  0  0  0  0  0  0
    7.4152  -17.2720   19.4149 C   0  0  2  0  0  0  0  0  0  0  0  0
    8.1708  -18.3521   18.7277 N   0  0  0  0  0  0  0  0  0  0  0  0
    8.3531  -16.4750   20.2294 C   0  0  0  0  0  0  0  0  0  0  0  0
    9.1832  -17.1700   20.9123 O   0  0  0  0  0  0  0  0  0  0  0  0
    8.3575  -15.0480   20.2692 N   0  0  0  0  0  0  0  0  0  0  0  0
    7.9850  -14.2649   19.1117 C   0  0  0  0  0  0  0  0  0  0  0  0
    7.1167  -13.1945   19.7389 C   0  0  0  0  0  0  0  0  0  0  0  0
    7.9464  -12.8687   20.9712 C   0  0  0  0  0  0  0  0  0  0  0  0
    8.7462  -14.1410   21.2708 C   0  0  1  0  0  0  0  0  0  0  0  0
    8.5502  -14.5418   22.6734 C   0  0  0  0  0  0  0  0  0  0  0  0
    7.6066  -14.1065   23.3506 O   0  0  0  0  0  0  0  0  0  0  0  0
    5.7725  -10.8509   26.6994 O   0  0  0  0  0  0  0  0  0  0  0  0
    6.4523  -12.0252   26.3942 C   0  0  0  0  0  0  0  0  0  0  0  0
    5.7477  -13.1038   25.9574 C   0  0  0  0  0  0  0  0  0  0  0  0
    6.4353  -14.2733   25.6546 C   0  0  0  0  0  0  0  0  0  0  0  0
    7.7991  -14.3623   25.7862 C   0  0  0  0  0  0  0  0  0  0  0  0
    8.5264  -15.5891   25.4757 C   0  0  0  0  0  0  0  0  0  0  0  0
    9.7871  -15.4031   24.6959 C   0  0  2  0  0  0  0  0  0  0  0  0
    9.4521  -15.4480   23.2845 N   0  0  0  0  0  0  0  0  0  0  0  0
   10.7199  -16.5285   24.9449 C   0  0  0  0  0  0  0  0  0  0  0  0
   11.1471  -17.3990   23.9234 O   0  0  0  0  0  0  0  0  0  0  0  0
    8.4719  -13.2495   26.2304 C   0  0  0  0  0  0  0  0  0  0  0  0
    7.8129  -12.0794   26.5366 C   0  0  0  0  0  0  0  0  0  0  0  0
   11.1835  -16.7712   26.0814 O   0  0  0  0  0  0  0  0  0  0  0  0
  2  1  1  0
  2  3  2  0
  4  2  1  0
  5  4  1  0
  5  6  1  0
  6  8  1  0
  6  7  1  1
  8  9  2  0
 10 14  1  0
 10  8  1  0
 11 10  1  0
 12 13  1  0
 12 11  1  0
 13 14  1  0
 14 15  1  1
 15 16  2  0
 17 18  1  0
 18 19  2  0
 19 20  1  0
 21 22  1  0
 21 20  2  0
 23 22  1  1
 23 25  1  0
 24 23  1  0
 24 15  1  0
 25 29  2  0
 25 26  1  0
 27 21  1  0
 28 27  2  0
 28 18  1  0
M  END
$$$$
