QPY.pdb
     RDKit          3D

 29 30  0  0  1  0  0  0  0  0999 V2000
   10.1988  -19.1213   15.8994 N   0  0  0  0  0  0  0  0  0  0  0  0
    8.9727  -18.8633   16.5319 C   0  0  0  0  0  0  0  0  0  0  0  0
    8.1289  -18.1384   15.9635 O   0  0  0  0  0  0  0  0  0  0  0  0
    8.6756  -19.4421   17.8614 C   0  0  0  0  0  0  0  0  0  0  0  0
    9.3596  -18.6267   18.9176 C   0  0  0  0  0  0  0  0  0  0  0  0
    9.3854  -17.1341   18.6452 C   0  0  2  0  0  0  0  0  0  0  0  0
   10.6477  -16.9583   17.8800 N   0  0  0  0  0  0  0  0  0  0  0  0
    9.4677  -16.3484   19.8919 C   0  0  0  0  0  0  0  0  0  0  0  0
   10.5287  -16.5541   20.5778 O   0  0  0  0  0  0  0  0  0  0  0  0
    8.4638  -15.4281   20.3198 N   0  0  0  0  0  0  0  0  0  0  0  0
    7.4601  -14.9344   19.4030 C   0  0  0  0  0  0  0  0  0  0  0  0
    6.2104  -15.0110   20.2547 C   0  0  0  0  0  0  0  0  0  0  0  0
    6.7517  -14.4689   21.5686 C   0  0  0  0  0  0  0  0  0  0  0  0
    8.2523  -14.7787   21.5488 C   0  0  1  0  0  0  0  0  0  0  0  0
    8.6365  -15.4924   22.7773 C   0  0  0  0  0  0  0  0  0  0  0  0
    8.3933  -16.6985   22.9344 O   0  0  0  0  0  0  0  0  0  0  0  0
   10.9692  -15.8225   31.3569 O   0  0  0  0  0  0  0  0  0  0  0  0
   10.7395  -15.4500   30.0367 C   0  0  0  0  0  0  0  0  0  0  0  0
   11.2459  -16.2177   29.0344 C   0  0  0  0  0  0  0  0  0  0  0  0
   11.0115  -15.8379   27.7179 C   0  0  0  0  0  0  0  0  0  0  0  0
   10.2860  -14.7135   27.4104 C   0  0  0  0  0  0  0  0  0  0  0  0
   10.0413  -14.3058   26.0305 C   0  0  0  0  0  0  0  0  0  0  0  0
    9.5679  -15.3909   25.1193 C   0  0  2  0  0  0  0  0  0  0  0  0
    9.3027  -14.8015   23.8198 N   0  0  0  0  0  0  0  0  0  0  0  0
    8.2807  -15.9465   25.6019 C   0  0  0  0  0  0  0  0  0  0  0  0
    7.0363  -15.3806   25.2632 O   0  0  0  0  0  0  0  0  0  0  0  0
    9.7927  -13.9667   28.4532 C   0  0  0  0  0  0  0  0  0  0  0  0
   10.0115  -14.3226   29.7656 C   0  0  0  0  0  0  0  0  0  0  0  0
    8.2250  -16.9545   26.3412 O   0  0  0  0  0  0  0  0  0  0  0  0
  2  1  1  0
  2  3  2  0
  4  2  1  0
  5  4  1  0
  5  6  1  0
  6  8  1  0
  6  7  1  6
  8  9  2  0
 10 14  1  0
 10  8  1  0
 11 10  1  0
 12 13  1  0
 12 11  1  0
 13 14  1  0
 14 15  1  1
 15 16  2  0
 17 18  1  0
 18 19  2  0
 19 20  1  0
 21 22  1  0
 21 20  2  0
 23 22  1  1
 23 25  1  0
 24 23  1  0
 24 15  1  0
 25 29  2  0
 25 26  1  0
 27 21  1  0
 28 27  2  0
 28 18  1  0
M  END
$$$$
