KQT.pdb
     RDKit          3D

 26 25  0  0  1  0  0  0  0  0999 V2000
    9.0248  -17.5574   17.4741 N   0  0  0  0  0  0  0  0  0  0  0  0
    8.9254  -16.5556   18.5196 C   0  0  1  0  0  0  0  0  0  0  0  0
    7.9561  -15.4503   18.1089 C   0  0  0  0  0  0  0  0  0  0  0  0
    7.8426  -15.4914   16.5959 C   0  0  0  0  0  0  0  0  0  0  0  0
    7.9707  -14.1305   15.9808 C   0  0  0  0  0  0  0  0  0  0  0  0
    7.7896  -14.1164   14.4974 C   0  0  0  0  0  0  0  0  0  0  0  0
    7.9520  -12.7395   14.0471 N   0  0  0  0  0  0  0  0  0  0  0  0
    8.4582  -17.2317   19.7602 C   0  0  0  0  0  0  0  0  0  0  0  0
    8.2874  -16.5852   20.8446 O   0  0  0  0  0  0  0  0  0  0  0  0
    4.6408  -21.7697   19.7951 N   0  0  0  0  0  0  0  0  0  0  0  0
    4.3425  -20.4081   19.5953 C   0  0  0  0  0  0  0  0  0  0  0  0
    3.2836  -20.0580   19.0588 O   0  0  0  0  0  0  0  0  0  0  0  0
    5.3273  -19.3895   20.0427 C   0  0  0  0  0  0  0  0  0  0  0  0
    6.5142  -20.1178   20.5833 C   0  0  0  0  0  0  0  0  0  0  0  0
    7.6800  -19.2886   21.0130 C   0  0  2  0  0  0  0  0  0  0  0  0
    8.1872  -18.6055   19.7866 N   0  0  0  0  0  0  0  0  0  0  0  0
    8.8424  -20.0570   21.5243 C   0  0  0  0  0  0  0  0  0  0  0  0
    8.8013  -21.3376   21.5988 O   0  0  0  0  0  0  0  0  0  0  0  0
   10.4472  -22.0109   20.9049 C   0  0  0  0  0  0  0  0  0  0  0  0
   11.6898  -21.1758   21.2157 C   0  0  1  0  0  0  0  0  0  0  0  0
   12.0119  -20.5248   20.0195 O   0  0  0  0  0  0  0  0  0  0  0  0
   11.2950  -20.1401   22.2103 C   0  0  2  0  0  0  0  0  0  0  0  0
   10.0662  -19.4647   21.9589 N   0  0  0  0  0  0  0  0  0  0  0  0
   12.4309  -19.2359   22.5907 C   0  0  0  0  0  0  0  0  0  0  0  0
   12.3894  -17.9998   22.4157 O   0  0  0  0  0  0  0  0  0  0  0  0
   13.5525  -19.7949   23.1468 O   0  0  0  0  0  0  0  0  0  0  0  0
  2  1  1  6
  3  2  1  0
  4  5  1  0
  4  3  1  0
  6  5  1  0
  7  6  1  0
  8  2  1  0
  9  8  2  0
 10 11  1  0
 11 13  1  0
 11 12  2  0
 13 14  1  0
 15 14  1  6
 15 16  1  0
 16  8  1  0
 17 18  2  0
 17 15  1  0
 20 19  1  6
 20 22  1  0
 21 20  1  0
 22 23  1  6
 23 17  1  0
 24 22  1  0
 25 24  2  0
 26 24  1  0
M  END
$$$$
