KQT.pdb
     RDKit          3D

 26 25  0  0  1  0  0  0  0  0999 V2000
    8.9005  -16.3263   20.2488 N   0  0  0  0  0  0  0  0  0  0  0  0
    8.4826  -15.0089   20.6920 C   0  0  1  0  0  0  0  0  0  0  0  0
    7.5951  -14.3489   19.6400 C   0  0  0  0  0  0  0  0  0  0  0  0
    8.4371  -14.1696   18.3900 C   0  0  0  0  0  0  0  0  0  0  0  0
    7.6441  -13.6092   17.2481 C   0  0  0  0  0  0  0  0  0  0  0  0
    8.4405  -13.4037   16.0003 C   0  0  0  0  0  0  0  0  0  0  0  0
    8.2084  -14.5540   15.1355 N   0  0  0  0  0  0  0  0  0  0  0  0
    7.7477  -15.1682   21.9761 C   0  0  0  0  0  0  0  0  0  0  0  0
    6.8358  -14.3500   22.3253 O   0  0  0  0  0  0  0  0  0  0  0  0
    8.0720  -20.2801   25.1799 N   0  0  0  0  0  0  0  0  0  0  0  0
    7.4235  -19.5676   26.2069 C   0  0  0  0  0  0  0  0  0  0  0  0
    7.1211  -20.1176   27.2735 O   0  0  0  0  0  0  0  0  0  0  0  0
    7.1052  -18.1329   25.9880 C   0  0  0  0  0  0  0  0  0  0  0  0
    7.5540  -17.7777   24.6083 C   0  0  0  0  0  0  0  0  0  0  0  0
    7.3318  -16.3685   24.1653 C   0  0  2  0  0  0  0  0  0  0  0  0
    8.0282  -16.2236   22.8530 N   0  0  0  0  0  0  0  0  0  0  0  0
    7.9454  -15.3332   25.0339 C   0  0  0  0  0  0  0  0  0  0  0  0
    9.2209  -15.2308   25.1323 O   0  0  0  0  0  0  0  0  0  0  0  0
    6.7026  -11.5130   25.5700 C   0  0  0  0  0  0  0  0  0  0  0  0
    6.8882  -12.2055   26.9205 C   0  0  1  0  0  0  0  0  0  0  0  0
    5.6119  -12.6381   27.2978 O   0  0  0  0  0  0  0  0  0  0  0  0
    7.7328  -13.4106   26.6925 C   0  0  2  0  0  0  0  0  0  0  0  0
    7.2015  -14.3907   25.8058 N   0  0  0  0  0  0  0  0  0  0  0  0
    8.3025  -13.9705   27.9632 C   0  0  0  0  0  0  0  0  0  0  0  0
    8.2423  -15.1860   28.2447 O   0  0  0  0  0  0  0  0  0  0  0  0
    8.9065  -13.1098   28.8430 O   0  0  0  0  0  0  0  0  0  0  0  0
  2  1  1  6
  3  2  1  0
  4  5  1  0
  4  3  1  0
  6  5  1  0
  7  6  1  0
  8  2  1  0
  9  8  2  0
 10 11  1  0
 11 13  1  0
 11 12  2  0
 13 14  1  0
 15 14  1  1
 15 16  1  0
 16  8  1  0
 17 18  2  0
 17 15  1  0
 20 19  1  6
 20 22  1  0
 21 20  1  0
 22 23  1  1
 23 17  1  0
 24 22  1  0
 25 24  2  0
 26 24  1  0
M  END
$$$$
