KQT.pdb
     RDKit          3D

 26 25  0  0  1  0  0  0  0  0999 V2000
    6.5337  -16.3824   19.9984 N   0  0  0  0  0  0  0  0  0  0  0  0
    7.4814  -15.5346   20.6983 C   0  0  1  0  0  0  0  0  0  0  0  0
    7.0866  -14.0666   20.5606 C   0  0  0  0  0  0  0  0  0  0  0  0
    7.6146  -13.5827   19.2225 C   0  0  0  0  0  0  0  0  0  0  0  0
    9.0595  -13.1897   19.2920 C   0  0  0  0  0  0  0  0  0  0  0  0
    9.6172  -12.6992   17.9951 C   0  0  0  0  0  0  0  0  0  0  0  0
   10.9727  -12.2270   18.2493 N   0  0  0  0  0  0  0  0  0  0  0  0
    7.4947  -15.9445   22.1287 C   0  0  0  0  0  0  0  0  0  0  0  0
    6.4147  -16.1798   22.7621 O   0  0  0  0  0  0  0  0  0  0  0  0
   12.0019  -18.9458   24.5005 N   0  0  0  0  0  0  0  0  0  0  0  0
   11.5174  -18.5706   25.7683 C   0  0  0  0  0  0  0  0  0  0  0  0
   12.0880  -18.9358   26.8040 O   0  0  0  0  0  0  0  0  0  0  0  0
   10.3001  -17.7222   25.8437 C   0  0  0  0  0  0  0  0  0  0  0  0
    9.8960  -17.3893   24.4447 C   0  0  0  0  0  0  0  0  0  0  0  0
    8.7211  -16.4822   24.2764 C   0  0  2  0  0  0  0  0  0  0  0  0
    8.6944  -16.0885   22.8369 N   0  0  0  0  0  0  0  0  0  0  0  0
    8.8079  -15.1986   25.0166 C   0  0  0  0  0  0  0  0  0  0  0  0
    9.6928  -14.3217   24.7082 O   0  0  0  0  0  0  0  0  0  0  0  0
    6.7280  -12.1417   25.5572 C   0  0  0  0  0  0  0  0  0  0  0  0
    6.8566  -12.7818   26.9399 C   0  0  1  0  0  0  0  0  0  0  0  0
    5.7211  -13.5864   27.0870 O   0  0  0  0  0  0  0  0  0  0  0  0
    8.0498  -13.6723   26.9109 C   0  0  2  0  0  0  0  0  0  0  0  0
    7.9456  -14.8349   26.0943 N   0  0  0  0  0  0  0  0  0  0  0  0
    8.6207  -13.9247   28.2758 C   0  0  0  0  0  0  0  0  0  0  0  0
    8.8889  -15.0734   28.6868 O   0  0  0  0  0  0  0  0  0  0  0  0
    8.8503  -12.8506   29.0965 O   0  0  0  0  0  0  0  0  0  0  0  0
  2  1  1  6
  3  2  1  0
  4  5  1  0
  4  3  1  0
  6  5  1  0
  7  6  1  0
  8  2  1  0
  9  8  2  0
 10 11  1  0
 11 13  1  0
 11 12  2  0
 13 14  1  0
 15 14  1  6
 15 16  1  0
 16  8  1  0
 17 18  2  0
 17 15  1  0
 20 19  1  6
 20 22  1  0
 21 20  1  0
 22 23  1  1
 23 17  1  0
 24 22  1  0
 25 24  2  0
 26 24  1  0
M  END
$$$$
