KQT.pdb
     RDKit          3D

 26 25  0  0  1  0  0  0  0  0999 V2000
    8.8502  -20.2662   17.4966 N   0  0  0  0  0  0  0  0  0  0  0  0
    8.4610  -18.9960   18.0814 C   0  0  1  0  0  0  0  0  0  0  0  0
    7.0033  -18.6827   17.7543 C   0  0  0  0  0  0  0  0  0  0  0  0
    6.6366  -19.4870   16.5206 C   0  0  0  0  0  0  0  0  0  0  0  0
    5.2208  -19.2493   16.0893 C   0  0  0  0  0  0  0  0  0  0  0  0
    4.8062  -20.0541   14.9002 C   0  0  0  0  0  0  0  0  0  0  0  0
    3.4566  -19.6399   14.5370 N   0  0  0  0  0  0  0  0  0  0  0  0
    8.6627  -19.0872   19.5529 C   0  0  0  0  0  0  0  0  0  0  0  0
    8.3195  -18.1379   20.3302 O   0  0  0  0  0  0  0  0  0  0  0  0
    9.5202  -24.3456   22.3433 N   0  0  0  0  0  0  0  0  0  0  0  0
   10.0178  -23.5961   23.4266 C   0  0  0  0  0  0  0  0  0  0  0  0
   10.4017  -24.1504   24.4644 O   0  0  0  0  0  0  0  0  0  0  0  0
   10.0751  -22.1165   23.3031 C   0  0  0  0  0  0  0  0  0  0  0  0
    9.5682  -21.7582   21.9445 C   0  0  0  0  0  0  0  0  0  0  0  0
    9.4907  -20.3039   21.6120 C   0  0  2  0  0  0  0  0  0  0  0  0
    9.2379  -20.2194   20.1434 N   0  0  0  0  0  0  0  0  0  0  0  0
   10.7481  -19.5440   21.8223 C   0  0  0  0  0  0  0  0  0  0  0  0
   11.7986  -19.8099   21.1348 O   0  0  0  0  0  0  0  0  0  0  0  0
   10.9022  -15.5162   23.2475 C   0  0  0  0  0  0  0  0  0  0  0  0
   11.9189  -16.2667   22.3866 C   0  0  1  0  0  0  0  0  0  0  0  0
   13.1396  -15.6150   22.5953 O   0  0  0  0  0  0  0  0  0  0  0  0
   12.0357  -17.6468   22.9338 C   0  0  2  0  0  0  0  0  0  0  0  0
   10.8965  -18.4859   22.7689 N   0  0  0  0  0  0  0  0  0  0  0  0
   12.6324  -17.6781   24.3107 C   0  0  0  0  0  0  0  0  0  0  0  0
   12.0153  -18.1327   25.2970 O   0  0  0  0  0  0  0  0  0  0  0  0
   13.8998  -17.1849   24.4845 O   0  0  0  0  0  0  0  0  0  0  0  0
  2  1  1  6
  3  2  1  0
  4  5  1  0
  4  3  1  0
  6  5  1  0
  7  6  1  0
  8  2  1  0
  9  8  2  0
 10 11  1  0
 11 13  1  0
 11 12  2  0
 13 14  1  0
 15 14  1  6
 15 16  1  0
 16  8  1  0
 17 18  2  0
 17 15  1  0
 20 19  1  1
 20 22  1  0
 21 20  1  0
 22 23  1  1
 23 17  1  0
 24 22  1  0
 25 24  2  0
 26 24  1  0
M  END
$$$$
