KQT.pdb
     RDKit          3D

 26 25  0  0  1  0  0  0  0  0999 V2000
    8.4695  -12.6697   18.8778 N   0  0  0  0  0  0  0  0  0  0  0  0
    7.5139  -13.3047   19.7667 C   0  0  1  0  0  0  0  0  0  0  0  0
    6.9739  -14.5878   19.1405 C   0  0  0  0  0  0  0  0  0  0  0  0
    7.9921  -15.0503   18.1144 C   0  0  0  0  0  0  0  0  0  0  0  0
    7.6001  -16.3462   17.4712 C   0  0  0  0  0  0  0  0  0  0  0  0
    8.4563  -16.7287   16.3075 C   0  0  0  0  0  0  0  0  0  0  0  0
    8.0310  -18.0504   15.8635 N   0  0  0  0  0  0  0  0  0  0  0  0
    8.2056  -13.5963   21.0515 C   0  0  0  0  0  0  0  0  0  0  0  0
    9.4590  -13.8204   21.0949 O   0  0  0  0  0  0  0  0  0  0  0  0
    5.4695  -12.3538   26.2791 N   0  0  0  0  0  0  0  0  0  0  0  0
    6.6664  -12.7765   26.8887 C   0  0  0  0  0  0  0  0  0  0  0  0
    6.8462  -12.6409   28.1056 O   0  0  0  0  0  0  0  0  0  0  0  0
    7.7190  -13.3932   26.0407 C   0  0  0  0  0  0  0  0  0  0  0  0
    7.2635  -13.3032   24.6209 C   0  0  0  0  0  0  0  0  0  0  0  0
    8.2053  -13.8018   23.5742 C   0  0  2  0  0  0  0  0  0  0  0  0
    7.5076  -13.6365   22.2650 N   0  0  0  0  0  0  0  0  0  0  0  0
    8.5216  -15.2498   23.6525 C   0  0  0  0  0  0  0  0  0  0  0  0
    8.0286  -16.0762   22.8033 O   0  0  0  0  0  0  0  0  0  0  0  0
   11.9292  -16.2702   23.1955 C   0  0  0  0  0  0  0  0  0  0  0  0
   10.8095  -17.3089   23.2703 C   0  0  1  0  0  0  0  0  0  0  0  0
   11.4538  -18.5470   23.3718 O   0  0  0  0  0  0  0  0  0  0  0  0
   10.0653  -17.0732   24.5385 C   0  0  2  0  0  0  0  0  0  0  0  0
    9.3734  -15.8320   24.6388 N   0  0  0  0  0  0  0  0  0  0  0  0
   10.8624  -17.4369   25.7571 C   0  0  0  0  0  0  0  0  0  0  0  0
   11.5108  -18.5014   25.8391 O   0  0  0  0  0  0  0  0  0  0  0  0
   10.8715  -16.5655   26.8155 O   0  0  0  0  0  0  0  0  0  0  0  0
  2  1  1  6
  3  2  1  0
  4  5  1  0
  4  3  1  0
  6  5  1  0
  7  6  1  0
  8  2  1  0
  9  8  2  0
 10 11  1  0
 11 13  1  0
 11 12  2  0
 13 14  1  0
 15 14  1  1
 15 16  1  0
 16  8  1  0
 17 18  2  0
 17 15  1  0
 20 19  1  1
 20 22  1  0
 21 20  1  0
 22 23  1  1
 23 17  1  0
 24 22  1  0
 25 24  2  0
 26 24  1  0
M  END
$$$$
