KQT.pdb
     RDKit          3D

 26 25  0  0  1  0  0  0  0  0999 V2000
    8.6500  -16.7191   18.1623 N   0  0  0  0  0  0  0  0  0  0  0  0
    9.4661  -15.5190   18.1861 C   0  0  1  0  0  0  0  0  0  0  0  0
    8.8259  -14.4562   19.0752 C   0  0  0  0  0  0  0  0  0  0  0  0
    7.5050  -14.0705   18.4348 C   0  0  0  0  0  0  0  0  0  0  0  0
    7.6914  -13.4334   17.0909 C   0  0  0  0  0  0  0  0  0  0  0  0
    6.4113  -13.1105   16.3904 C   0  0  0  0  0  0  0  0  0  0  0  0
    6.7437  -12.7072   15.0296 N   0  0  0  0  0  0  0  0  0  0  0  0
   10.8137  -15.8904   18.6962 C   0  0  0  0  0  0  0  0  0  0  0  0
   11.0161  -16.9979   19.2924 O   0  0  0  0  0  0  0  0  0  0  0  0
   17.1717  -12.8600   17.8902 N   0  0  0  0  0  0  0  0  0  0  0  0
   16.4348  -13.9731   17.4420 C   0  0  0  0  0  0  0  0  0  0  0  0
   16.3994  -14.2750   16.2423 O   0  0  0  0  0  0  0  0  0  0  0  0
   15.6940  -14.7865   18.4406 C   0  0  0  0  0  0  0  0  0  0  0  0
   14.2351  -14.5651   18.2085 C   0  0  0  0  0  0  0  0  0  0  0  0
   13.2884  -15.4348   18.9693 C   0  0  2  0  0  0  0  0  0  0  0  0
   11.9143  -15.0381   18.5418 N   0  0  0  0  0  0  0  0  0  0  0  0
   13.2975  -15.2363   20.4402 C   0  0  0  0  0  0  0  0  0  0  0  0
   13.6942  -14.1276   20.9505 O   0  0  0  0  0  0  0  0  0  0  0  0
   10.4402  -15.7066   22.8442 C   0  0  0  0  0  0  0  0  0  0  0  0
   11.5845  -16.5018   23.4736 C   0  0  1  0  0  0  0  0  0  0  0  0
   11.3418  -17.8380   23.1358 O   0  0  0  0  0  0  0  0  0  0  0  0
   12.8446  -16.0798   22.8015 C   0  0  2  0  0  0  0  0  0  0  0  0
   12.8778  -16.2211   21.3844 N   0  0  0  0  0  0  0  0  0  0  0  0
   14.0736  -16.5817   23.5018 C   0  0  0  0  0  0  0  0  0  0  0  0
   14.9669  -17.2223   22.9086 O   0  0  0  0  0  0  0  0  0  0  0  0
   14.2119  -16.3264   24.8417 O   0  0  0  0  0  0  0  0  0  0  0  0
  2  1  1  1
  3  2  1  0
  4  5  1  0
  4  3  1  0
  6  5  1  0
  7  6  1  0
  8  2  1  0
  9  8  2  0
 10 11  1  0
 11 13  1  0
 11 12  2  0
 13 14  1  0
 15 14  1  6
 15 16  1  0
 16  8  1  0
 17 18  2  0
 17 15  1  0
 20 19  1  6
 20 22  1  0
 21 20  1  0
 22 23  1  6
 23 17  1  0
 24 22  1  0
 25 24  2  0
 26 24  1  0
M  END
$$$$
