RTL.pdb
     RDKit          3D

 27 26  0  0  1  0  0  0  0  0999 V2000
   19.1044  -26.9991   -6.0136 N   0  0  0  0  0  0  0  0  0  0  0  0
   18.3465  -26.0339   -5.2816 C   0  0  0  0  0  0  0  0  0  0  0  0
   18.2612  -26.1598   -4.0126 N   0  0  0  0  0  0  0  0  0  0  0  0
   17.6978  -24.9535   -5.9488 N   0  0  0  0  0  0  0  0  0  0  0  0
   17.2772  -25.1217   -7.3637 C   0  0  0  0  0  0  0  0  0  0  0  0
   17.7223  -23.9187   -8.1424 C   0  0  0  0  0  0  0  0  0  0  0  0
   18.6255  -24.1627   -9.2887 C   0  0  0  0  0  0  0  0  0  0  0  0
   18.0407  -24.6596  -10.5653 C   0  0  2  0  0  0  0  0  0  0  0  0
   17.9835  -26.1123  -10.5223 N   0  0  0  0  0  0  0  0  0  0  0  0
   18.7703  -24.1702  -11.7443 C   0  0  0  0  0  0  0  0  0  0  0  0
   19.7117  -24.8426  -12.2422 O   0  0  0  0  0  0  0  0  0  0  0  0
   17.6029  -25.5887   -3.4647 C   0  0  0  0  0  0  0  0  0  0  0  0
   17.8650  -24.0899  -15.1218 C   0  0  2  0  0  0  0  0  0  0  0  0
   18.1877  -22.6590  -14.8148 O   0  0  0  0  0  0  0  0  0  0  0  0
   17.0287  -21.9005  -14.6359 C   0  0  2  0  0  0  0  0  0  0  0  0
   19.0421  -22.4736  -13.6091 N   0  0  0  0  0  0  0  0  0  0  0  0
   18.4469  -22.9100  -12.3751 C   0  0  0  0  0  0  0  0  0  0  0  0
   19.5999  -21.0874  -13.4914 O   0  0  0  0  0  0  0  0  0  0  0  0
   19.3286  -20.3568  -12.5049 C   0  0  0  0  0  0  0  0  0  0  0  0
   24.7235  -20.0058  -15.1386 C   0  0  1  0  0  0  0  0  0  0  0  0
   23.2241  -19.9718  -15.4716 C   0  0  0  0  0  0  0  0  0  0  0  0
   23.0910  -19.2395  -16.7887 C   0  0  0  0  0  0  0  0  0  0  0  0
   22.5556  -19.2589  -14.3494 C   0  0  1  0  0  0  0  0  0  0  0  0
   21.0699  -19.2246  -14.3912 N   0  0  0  0  0  0  0  0  0  0  0  0
   20.4556  -20.5334  -14.4800 C   0  0  0  0  0  0  0  0  0  0  0  0
   20.4931  -18.2788  -15.3770 O   0  0  0  0  0  0  0  0  0  0  0  0
   20.5755  -16.9041  -15.1425 O   0  0  0  0  0  0  0  0  0  0  0  0
  2  1  1  0
  3  2  2  0
  4  2  1  0
  5  4  1  0
  6  5  1  0
  7  6  1  0
  8 10  1  0
  8  7  1  0
  8  9  1  1
 10 11  2  0
 13 12  1  6
 13 14  1  0
 15 13  1  0
 16 10  1  0
 15 16  1  6
 17 18  2  0
 17 15  1  0
 20 19  1  6
 20 21  1  0
 20 22  1  0
 23 22  1  1
 23 24  1  0
 24 17  1  0
 25 26  1  0
 25 23  1  0
 27 25  2  0
M  END
$$$$
