RTL.pdb
     RDKit          3D

 27 26  0  0  1  0  0  0  0  0999 V2000
   19.0991  -24.2453   -6.1232 N   0  0  0  0  0  0  0  0  0  0  0  0
   18.4127  -24.0698   -7.3641 C   0  0  0  0  0  0  0  0  0  0  0  0
   17.2506  -24.5848   -7.4968 N   0  0  0  0  0  0  0  0  0  0  0  0
   19.0082  -23.3376   -8.4330 N   0  0  0  0  0  0  0  0  0  0  0  0
   20.4613  -23.0323   -8.3827 C   0  0  0  0  0  0  0  0  0  0  0  0
   20.6342  -21.5555   -8.1803 C   0  0  0  0  0  0  0  0  0  0  0  0
   21.5997  -20.8692   -9.0668 C   0  0  0  0  0  0  0  0  0  0  0  0
   23.0059  -21.3587   -9.1059 C   0  0  2  0  0  0  0  0  0  0  0  0
   23.5927  -21.2093   -7.7835 N   0  0  0  0  0  0  0  0  0  0  0  0
   23.8042  -20.6890  -10.1434 C   0  0  0  0  0  0  0  0  0  0  0  0
   24.8212  -20.0132   -9.8352 O   0  0  0  0  0  0  0  0  0  0  0  0
   16.7233  -24.4880   -8.3756 C   0  0  0  0  0  0  0  0  0  0  0  0
   26.3891  -20.7129  -11.1618 C   0  0  2  0  0  0  0  0  0  0  0  0
   25.7323  -20.9576  -12.4864 O   0  0  0  0  0  0  0  0  0  0  0  0
   25.6521  -22.3221  -12.7731 C   0  0  2  0  0  0  0  0  0  0  0  0
   24.3604  -20.3888  -12.5990 N   0  0  0  0  0  0  0  0  0  0  0  0
   23.4602  -20.7719  -11.5453 C   0  0  0  0  0  0  0  0  0  0  0  0
   23.7467  -20.5972  -13.9505 O   0  0  0  0  0  0  0  0  0  0  0  0
   22.7470  -21.3436  -14.1047 C   0  0  0  0  0  0  0  0  0  0  0  0
   20.9447  -18.9811  -17.4043 C   0  0  1  0  0  0  0  0  0  0  0  0
   21.4806  -17.8082  -16.5692 C   0  0  0  0  0  0  0  0  0  0  0  0
   22.1519  -16.8598  -17.5381 C   0  0  0  0  0  0  0  0  0  0  0  0
   22.4321  -18.3884  -15.5832 C   0  0  1  0  0  0  0  0  0  0  0  0
   23.4430  -19.3319  -16.1294 N   0  0  0  0  0  0  0  0  0  0  0  0
   24.2593  -19.9677  -15.1157 C   0  0  0  0  0  0  0  0  0  0  0  0
   24.2657  -18.7941  -17.2398 O   0  0  0  0  0  0  0  0  0  0  0  0
   25.4361  -18.0884  -16.9507 O   0  0  0  0  0  0  0  0  0  0  0  0
  2  1  1  0
  3  2  2  0
  4  2  1  0
  5  4  1  0
  6  5  1  0
  7  6  1  0
  8 10  1  0
  8  7  1  0
  8  9  1  1
 10 11  2  0
 13 12  1  6
 13 14  1  0
 15 13  1  0
 16 10  1  0
 15 16  1  6
 17 18  2  0
 17 15  1  0
 20 19  1  6
 20 21  1  0
 20 22  1  0
 23 22  1  1
 23 24  1  0
 24 17  1  0
 25 26  1  0
 25 23  1  0
 27 25  2  0
M  END
$$$$
