RTL.pdb
     RDKit          3D

 27 26  0  0  1  0  0  0  0  0999 V2000
   30.5632  -32.6587  -15.3361 N   0  0  0  0  0  0  0  0  0  0  0  0
   30.3957  -31.7376  -16.4156 C   0  0  0  0  0  0  0  0  0  0  0  0
   31.4235  -31.4033  -17.0977 N   0  0  0  0  0  0  0  0  0  0  0  0
   29.1120  -31.2007  -16.7273 N   0  0  0  0  0  0  0  0  0  0  0  0
   27.9427  -31.5855  -15.8954 C   0  0  0  0  0  0  0  0  0  0  0  0
   27.5107  -32.9684  -16.2862 C   0  0  0  0  0  0  0  0  0  0  0  0
   26.3277  -33.5196  -15.5892 C   0  0  0  0  0  0  0  0  0  0  0  0
   25.9645  -34.9459  -15.8182 C   0  0  2  0  0  0  0  0  0  0  0  0
   24.9451  -35.0111  -16.8536 N   0  0  0  0  0  0  0  0  0  0  0  0
   25.5410  -35.6220  -14.5830 C   0  0  0  0  0  0  0  0  0  0  0  0
   24.3407  -35.5765  -14.2046 O   0  0  0  0  0  0  0  0  0  0  0  0
   31.3582  -30.7024  -17.8488 C   0  0  0  0  0  0  0  0  0  0  0  0
   26.2119  -38.9647  -11.0008 C   0  0  1  0  0  0  0  0  0  0  0  0
   26.6290  -38.3393  -12.2973 O   0  0  0  0  0  0  0  0  0  0  0  0
   26.2337  -39.1148  -13.3896 C   0  0  1  0  0  0  0  0  0  0  0  0
   26.1029  -36.9616  -12.5047 N   0  0  0  0  0  0  0  0  0  0  0  0
   26.4719  -36.3568  -13.7559 C   0  0  0  0  0  0  0  0  0  0  0  0
   26.3775  -36.0473  -11.3490 O   0  0  0  0  0  0  0  0  0  0  0  0
   27.2427  -35.1387  -11.4276 C   0  0  0  0  0  0  0  0  0  0  0  0
   25.0626  -33.1652   -7.1721 C   0  0  1  0  0  0  0  0  0  0  0  0
   25.9315  -32.7828   -8.3800 C   0  0  0  0  0  0  0  0  0  0  0  0
   25.5102  -31.3890   -8.7906 C   0  0  0  0  0  0  0  0  0  0  0  0
   25.6624  -33.7970   -9.4351 C   0  0  1  0  0  0  0  0  0  0  0  0
   25.7948  -35.2190   -9.0220 N   0  0  0  0  0  0  0  0  0  0  0  0
   25.6806  -36.1605  -10.1169 C   0  0  0  0  0  0  0  0  0  0  0  0
   24.9548  -35.6159   -7.8662 O   0  0  0  0  0  0  0  0  0  0  0  0
   25.4894  -35.5654   -6.5766 O   0  0  0  0  0  0  0  0  0  0  0  0
  2  1  1  0
  3  2  2  0
  4  2  1  0
  5  4  1  0
  6  5  1  0
  7  6  1  0
  8 10  1  0
  8  7  1  0
  8  9  1  6
 10 11  2  0
 13 12  1  1
 13 14  1  0
 15 13  1  0
 16 10  1  0
 15 16  1  1
 17 18  2  0
 17 15  1  0
 20 19  1  1
 20 21  1  0
 20 22  1  0
 23 22  1  6
 23 24  1  0
 24 17  1  0
 25 26  1  0
 25 23  1  0
 27 25  2  0
M  END
$$$$
