RTL.pdb
     RDKit          3D

 27 26  0  0  1  0  0  0  0  0999 V2000
   18.8219  -25.3209   -6.9227 N   0  0  0  0  0  0  0  0  0  0  0  0
   17.4116  -25.3921   -7.1409 C   0  0  0  0  0  0  0  0  0  0  0  0
   16.6536  -25.6660   -6.1490 N   0  0  0  0  0  0  0  0  0  0  0  0
   16.8586  -25.1640   -8.4353 N   0  0  0  0  0  0  0  0  0  0  0  0
   17.7064  -25.3826   -9.6356 C   0  0  0  0  0  0  0  0  0  0  0  0
   18.5644  -24.1693   -9.8440 C   0  0  0  0  0  0  0  0  0  0  0  0
   18.2974  -23.3635  -11.0559 C   0  0  0  0  0  0  0  0  0  0  0  0
   18.5108  -23.9891  -12.3906 C   0  0  2  0  0  0  0  0  0  0  0  0
   19.7833  -24.6936  -12.3816 N   0  0  0  0  0  0  0  0  0  0  0  0
   18.4276  -23.0131  -13.4872 C   0  0  0  0  0  0  0  0  0  0  0  0
   18.9225  -23.2712  -14.6162 O   0  0  0  0  0  0  0  0  0  0  0  0
   15.6401  -25.7956   -6.2742 C   0  0  0  0  0  0  0  0  0  0  0  0
   15.2538  -22.1897  -14.9482 C   0  0  2  0  0  0  0  0  0  0  0  0
   16.5533  -21.6415  -15.4548 O   0  0  0  0  0  0  0  0  0  0  0  0
   16.3569  -20.7718  -16.5298 C   0  0  1  0  0  0  0  0  0  0  0  0
   17.3505  -20.9182  -14.4256 N   0  0  0  0  0  0  0  0  0  0  0  0
   17.7856  -21.7283  -13.3203 C   0  0  0  0  0  0  0  0  0  0  0  0
   16.6964  -19.6534  -13.9573 O   0  0  0  0  0  0  0  0  0  0  0  0
   15.7845  -19.6724  -13.0921 C   0  0  0  0  0  0  0  0  0  0  0  0
   17.3272  -13.5685  -14.9377 C   0  0  1  0  0  0  0  0  0  0  0  0
   16.7813  -14.6155  -13.9548 C   0  0  0  0  0  0  0  0  0  0  0  0
   17.2802  -14.2204  -12.5823 C   0  0  0  0  0  0  0  0  0  0  0  0
   17.3111  -15.9329  -14.3998 C   0  0  2  0  0  0  0  0  0  0  0  0
   16.5085  -17.1231  -14.0130 N   0  0  0  0  0  0  0  0  0  0  0  0
   17.0701  -18.3802  -14.4631 C   0  0  0  0  0  0  0  0  0  0  0  0
   15.0604  -17.0277  -14.3179 O   0  0  0  0  0  0  0  0  0  0  0  0
   14.1747  -16.5979  -13.3269 O   0  0  0  0  0  0  0  0  0  0  0  0
  2  1  1  0
  3  2  2  0
  4  2  1  0
  5  4  1  0
  6  5  1  0
  7  6  1  0
  8 10  1  0
  8  7  1  0
  8  9  1  1
 10 11  2  0
 13 12  1  6
 13 14  1  0
 15 13  1  0
 16 10  1  0
 15 16  1  6
 17 18  2  0
 17 15  1  0
 20 19  1  1
 20 21  1  0
 20 22  1  0
 23 22  1  1
 23 24  1  0
 24 17  1  0
 25 26  1  0
 25 23  1  0
 27 25  2  0
M  END
$$$$
