RTL.pdb
     RDKit          3D

 27 26  0  0  1  0  0  0  0  0999 V2000
   26.6265  -17.8353  -22.7440 N   0  0  0  0  0  0  0  0  0  0  0  0
   26.0497  -18.9026  -21.9890 C   0  0  0  0  0  0  0  0  0  0  0  0
   26.0092  -20.0679  -22.5122 N   0  0  0  0  0  0  0  0  0  0  0  0
   25.5290  -18.6760  -20.6810 N   0  0  0  0  0  0  0  0  0  0  0  0
   25.3933  -17.2822  -20.1850 C   0  0  0  0  0  0  0  0  0  0  0  0
   24.0691  -16.7395  -20.6363 C   0  0  0  0  0  0  0  0  0  0  0  0
   23.7425  -15.3545  -20.2308 C   0  0  0  0  0  0  0  0  0  0  0  0
   24.5166  -14.7346  -19.1195 C   0  0  2  0  0  0  0  0  0  0  0  0
   23.5879  -14.1084  -18.1917 N   0  0  0  0  0  0  0  0  0  0  0  0
   25.5345  -13.7904  -19.6037 C   0  0  0  0  0  0  0  0  0  0  0  0
   26.1793  -14.0262  -20.6595 O   0  0  0  0  0  0  0  0  0  0  0  0
   25.6345  -20.8723  -21.9904 C   0  0  0  0  0  0  0  0  0  0  0  0
   25.3941  -10.5478  -21.1776 C   0  0  2  0  0  0  0  0  0  0  0  0
   26.1844  -10.3490  -19.9199 O   0  0  0  0  0  0  0  0  0  0  0  0
   25.4046   -9.7795  -18.9108 C   0  0  2  0  0  0  0  0  0  0  0  0
   26.7877  -11.5978  -19.3772 N   0  0  0  0  0  0  0  0  0  0  0  0
   25.8398  -12.5665  -18.8970 C   0  0  0  0  0  0  0  0  0  0  0  0
   27.8686  -11.3395  -18.3713 O   0  0  0  0  0  0  0  0  0  0  0  0
   27.6590  -11.4758  -17.1393 C   0  0  0  0  0  0  0  0  0  0  0  0
   31.2272  -13.4229  -17.1363 C   0  0  2  0  0  0  0  0  0  0  0  0
   31.5058  -12.7196  -18.4735 C   0  0  0  0  0  0  0  0  0  0  0  0
   32.8323  -13.2496  -18.9718 C   0  0  0  0  0  0  0  0  0  0  0  0
   31.5434  -11.2601  -18.1862 C   0  0  2  0  0  0  0  0  0  0  0  0
   30.2444  -10.6322  -17.8275 N   0  0  0  0  0  0  0  0  0  0  0  0
   29.1731  -10.9306  -18.7556 C   0  0  0  0  0  0  0  0  0  0  0  0
   30.3140   -9.1840  -17.5159 O   0  0  0  0  0  0  0  0  0  0  0  0
   31.0397   -8.7531  -16.4027 O   0  0  0  0  0  0  0  0  0  0  0  0
  2  1  1  0
  3  2  2  0
  4  2  1  0
  5  4  1  0
  6  5  1  0
  7  6  1  0
  8 10  1  0
  8  7  1  0
  8  9  1  1
 10 11  2  0
 13 12  1  6
 13 14  1  0
 15 13  1  0
 16 10  1  0
 15 16  1  6
 17 18  2  0
 17 15  1  0
 20 19  1  6
 20 21  1  0
 20 22  1  0
 23 22  1  1
 23 24  1  0
 24 17  1  0
 25 26  1  0
 25 23  1  0
 27 25  2  0
M  END
$$$$
