RTL.pdb
     RDKit          3D

 27 26  0  0  1  0  0  0  0  0999 V2000
   29.7844  -24.3739  -16.1895 N   0  0  0  0  0  0  0  0  0  0  0  0
   28.6234  -24.5582  -17.0018 C   0  0  0  0  0  0  0  0  0  0  0  0
   28.2299  -25.7500  -17.2425 N   0  0  0  0  0  0  0  0  0  0  0  0
   27.9176  -23.4395  -17.5345 N   0  0  0  0  0  0  0  0  0  0  0  0
   28.3567  -22.0663  -17.1758 C   0  0  0  0  0  0  0  0  0  0  0  0
   28.3562  -21.9380  -15.6807 C   0  0  0  0  0  0  0  0  0  0  0  0
   27.5341  -20.8510  -15.1047 C   0  0  0  0  0  0  0  0  0  0  0  0
   26.0755  -21.0838  -14.9133 C   0  0  2  0  0  0  0  0  0  0  0  0
   25.3774  -20.7241  -16.1375 N   0  0  0  0  0  0  0  0  0  0  0  0
   25.5424  -20.3700  -13.7435 C   0  0  0  0  0  0  0  0  0  0  0  0
   24.7905  -19.3701  -13.8885 O   0  0  0  0  0  0  0  0  0  0  0  0
   27.4466  -25.9317  -17.8853 C   0  0  0  0  0  0  0  0  0  0  0  0
   23.0637  -19.7387  -12.4484 C   0  0  2  0  0  0  0  0  0  0  0  0
   23.7179  -20.3410  -11.2421 O   0  0  0  0  0  0  0  0  0  0  0  0
   23.3949  -21.6930  -11.1067 C   0  0  2  0  0  0  0  0  0  0  0  0
   25.2028  -20.2262  -11.2348 N   0  0  0  0  0  0  0  0  0  0  0  0
   25.8561  -20.7760  -12.3917 C   0  0  0  0  0  0  0  0  0  0  0  0
   25.8244  -20.7215   -9.9640 O   0  0  0  0  0  0  0  0  0  0  0  0
   26.2113  -21.9120   -9.8480 C   0  0  0  0  0  0  0  0  0  0  0  0
   27.2852  -19.5443   -4.7283 C   0  0  1  0  0  0  0  0  0  0  0  0
   28.3423  -19.7033   -5.8316 C   0  0  0  0  0  0  0  0  0  0  0  0
   29.4776  -18.7674   -5.4796 C   0  0  0  0  0  0  0  0  0  0  0  0
   27.6774  -19.3413   -7.1126 C   0  0  2  0  0  0  0  0  0  0  0  0
   26.6410  -20.2891   -7.6003 N   0  0  0  0  0  0  0  0  0  0  0  0
   26.0061  -19.8784   -8.8358 C   0  0  0  0  0  0  0  0  0  0  0  0
   25.6457  -20.7061   -6.5832 O   0  0  0  0  0  0  0  0  0  0  0  0
   26.0069  -21.6389   -5.6080 O   0  0  0  0  0  0  0  0  0  0  0  0
  2  1  1  0
  3  2  2  0
  4  2  1  0
  5  4  1  0
  6  5  1  0
  7  6  1  0
  8 10  1  0
  8  7  1  0
  8  9  1  6
 10 11  2  0
 13 12  1  1
 13 14  1  0
 15 13  1  0
 16 10  1  0
 15 16  1  1
 17 18  2  0
 17 15  1  0
 20 19  1  1
 20 21  1  0
 20 22  1  0
 23 22  1  6
 23 24  1  0
 24 17  1  0
 25 26  1  0
 25 23  1  0
 27 25  2  0
M  END
$$$$
