GPC.pdb
     RDKit          3D

 18 18  0  0  1  0  0  0  0  0999 V2000
    9.2319  -15.1930   15.2532 N   0  0  0  0  0  0  0  0  0  0  0  0
    8.3015  -15.2222   16.4173 C   0  0  0  0  0  0  0  0  0  0  0  0
    9.0747  -14.9350   17.6228 C   0  0  0  0  0  0  0  0  0  0  0  0
   10.2386  -15.5619   17.6429 O   0  0  0  0  0  0  0  0  0  0  0  0
    8.7983  -14.1385   18.7169 N   0  0  0  0  0  0  0  0  0  0  0  0
    8.1390  -12.8019   18.5493 C   0  0  0  0  0  0  0  0  0  0  0  0
    6.9465  -13.0279   19.4567 C   0  0  0  0  0  0  0  0  0  0  0  0
    7.4724  -13.9468   20.5394 C   0  0  0  0  0  0  0  0  0  0  0  0
    8.9617  -14.1849   20.0983 C   0  0  1  0  0  0  0  0  0  0  0  0
    9.5091  -15.3084   20.7983 C   0  0  0  0  0  0  0  0  0  0  0  0
    9.1442  -16.4689   20.7493 O   0  0  0  0  0  0  0  0  0  0  0  0
   10.6349  -15.0368   21.6730 N   0  0  0  0  0  0  0  0  0  0  0  0
   11.2669  -16.1220   22.3913 C   0  0  1  0  0  0  0  0  0  0  0  0
   12.6494  -15.7260   22.8769 C   0  0  0  0  0  0  0  0  0  0  0  0
   13.3457  -17.1075   23.8156 S   0  0  0  0  0  0  0  0  0  0  0  0
   10.4677  -16.4501   23.6096 C   0  0  0  0  0  0  0  0  0  0  0  0
    9.6885  -15.5904   24.0909 O   0  0  0  0  0  0  0  0  0  0  0  0
   10.6154  -17.7026   24.1707 O   0  0  0  0  0  0  0  0  0  0  0  0
  1  2  1  0
  3  4  2  0
  3  2  1  0
  5  3  1  0
  6  5  1  0
  7  6  1  0
  8  7  1  0
  8  9  1  0
  9  5  1  0
 10 12  1  0
  9 10  1  6
 11 10  2  0
 13 12  1  0
 13 16  1  0
 13 14  1  1
 14 15  1  0
 16 18  1  0
 17 16  2  0
M  END
$$$$
