GPC.pdb
     RDKit          3D

 18 18  0  0  1  0  0  0  0  0999 V2000
    8.2906  -18.8630   21.1239 N   0  0  0  0  0  0  0  0  0  0  0  0
    7.3297  -17.7561   21.3940 C   0  0  0  0  0  0  0  0  0  0  0  0
    8.0764  -16.6359   21.9608 C   0  0  0  0  0  0  0  0  0  0  0  0
    8.8048  -16.9865   23.0069 O   0  0  0  0  0  0  0  0  0  0  0  0
    8.1453  -15.3058   21.5948 N   0  0  0  0  0  0  0  0  0  0  0  0
    7.8557  -14.8788   20.1866 C   0  0  0  0  0  0  0  0  0  0  0  0
    6.7524  -13.8821   20.4799 C   0  0  0  0  0  0  0  0  0  0  0  0
    7.1264  -13.2998   21.8268 C   0  0  0  0  0  0  0  0  0  0  0  0
    8.4395  -14.0826   22.1901 C   0  0  1  0  0  0  0  0  0  0  0  0
    8.7373  -13.9257   23.5824 C   0  0  0  0  0  0  0  0  0  0  0  0
    9.8149  -13.6782   24.0924 O   0  0  0  0  0  0  0  0  0  0  0  0
    7.6243  -14.0791   24.5010 N   0  0  0  0  0  0  0  0  0  0  0  0
    7.7837  -13.7160   25.8924 C   0  0  1  0  0  0  0  0  0  0  0  0
    6.4885  -13.1741   26.4691 C   0  0  0  0  0  0  0  0  0  0  0  0
    6.2736  -11.4709   25.8971 S   0  0  0  0  0  0  0  0  0  0  0  0
    8.1283  -14.9299   26.6915 C   0  0  0  0  0  0  0  0  0  0  0  0
    8.4298  -14.8091   27.9049 O   0  0  0  0  0  0  0  0  0  0  0  0
    8.1029  -16.1572   26.0602 O   0  0  0  0  0  0  0  0  0  0  0  0
  1  2  1  0
  3  4  2  0
  3  2  1  0
  5  3  1  0
  6  5  1  0
  7  6  1  0
  8  7  1  0
  8  9  1  0
  9  5  1  0
 10 12  1  0
  9 10  1  1
 11 10  2  0
 13 12  1  0
 13 16  1  0
 13 14  1  1
 14 15  1  0
 16 18  1  0
 17 16  2  0
M  END
$$$$
