GPC.pdb
     RDKit          3D

 18 18  0  0  1  0  0  0  0  0999 V2000
    8.9812  -16.0803   16.1644 N   0  0  0  0  0  0  0  0  0  0  0  0
    7.9573  -15.6449   17.1563 C   0  0  0  0  0  0  0  0  0  0  0  0
    8.6178  -15.4865   18.4495 C   0  0  0  0  0  0  0  0  0  0  0  0
    9.3370  -16.5433   18.7870 O   0  0  0  0  0  0  0  0  0  0  0  0
    8.6149  -14.4432   19.3547 N   0  0  0  0  0  0  0  0  0  0  0  0
    8.5761  -13.0187   18.8875 C   0  0  0  0  0  0  0  0  0  0  0  0
    7.3341  -12.5746   19.6338 C   0  0  0  0  0  0  0  0  0  0  0  0
    7.3575  -13.3881   20.9109 C   0  0  0  0  0  0  0  0  0  0  0  0
    8.6454  -14.2712   20.7355 C   0  0  1  0  0  0  0  0  0  0  0  0
    8.6318  -15.3538   21.6734 C   0  0  0  0  0  0  0  0  0  0  0  0
    7.7115  -16.1088   21.9293 O   0  0  0  0  0  0  0  0  0  0  0  0
    9.8606  -15.5833   22.4108 N   0  0  0  0  0  0  0  0  0  0  0  0
    9.9466  -16.6883   23.3407 C   0  0  1  0  0  0  0  0  0  0  0  0
   10.6545  -17.8766   22.7157 C   0  0  0  0  0  0  0  0  0  0  0  0
   12.2711  -17.3302   22.1136 S   0  0  0  0  0  0  0  0  0  0  0  0
   10.7614  -16.2848   24.5256 C   0  0  0  0  0  0  0  0  0  0  0  0
   11.3495  -15.1748   24.5255 O   0  0  0  0  0  0  0  0  0  0  0  0
   10.8402  -17.1570   25.5926 O   0  0  0  0  0  0  0  0  0  0  0  0
  1  2  1  0
  3  4  2  0
  3  2  1  0
  5  3  1  0
  6  5  1  0
  7  6  1  0
  8  7  1  0
  8  9  1  0
  9  5  1  0
 10 12  1  0
  9 10  1  1
 11 10  2  0
 13 12  1  0
 13 16  1  0
 13 14  1  6
 14 15  1  0
 16 18  1  0
 17 16  2  0
M  END
$$$$
