GPC.pdb
     RDKit          3D

 18 18  0  0  1  0  0  0  0  0999 V2000
    6.2192  -19.2044   23.8495 N   0  0  0  0  0  0  0  0  0  0  0  0
    5.9085  -17.7643   23.6232 C   0  0  0  0  0  0  0  0  0  0  0  0
    7.1679  -17.0245   23.6165 C   0  0  0  0  0  0  0  0  0  0  0  0
    7.9852  -17.4014   24.5850 O   0  0  0  0  0  0  0  0  0  0  0  0
    7.6340  -16.0223   22.7881 N   0  0  0  0  0  0  0  0  0  0  0  0
    7.4006  -16.0764   21.3077 C   0  0  0  0  0  0  0  0  0  0  0  0
    6.6977  -14.7435   21.1456 C   0  0  0  0  0  0  0  0  0  0  0  0
    7.3300  -13.8595   22.2000 C   0  0  0  0  0  0  0  0  0  0  0  0
    8.3448  -14.8312   22.9036 C   0  0  1  0  0  0  0  0  0  0  0  0
    8.7720  -14.2767   24.1534 C   0  0  0  0  0  0  0  0  0  0  0  0
    8.9523  -13.1042   24.4274 O   0  0  0  0  0  0  0  0  0  0  0  0
    9.0216  -15.2216   25.2262 N   0  0  0  0  0  0  0  0  0  0  0  0
    9.2129  -14.7424   26.5778 C   0  0  1  0  0  0  0  0  0  0  0  0
    7.9196  -14.1946   27.1532 C   0  0  0  0  0  0  0  0  0  0  0  0
    7.6465  -12.5385   26.4770 S   0  0  0  0  0  0  0  0  0  0  0  0
    9.6219  -15.8767   27.4593 C   0  0  0  0  0  0  0  0  0  0  0  0
    9.6117  -17.0487   27.0075 O   0  0  0  0  0  0  0  0  0  0  0  0
   10.0015  -15.5932   28.7558 O   0  0  0  0  0  0  0  0  0  0  0  0
  1  2  1  0
  3  4  2  0
  3  2  1  0
  5  3  1  0
  6  5  1  0
  7  6  1  0
  8  7  1  0
  8  9  1  0
  9  5  1  0
 10 12  1  0
  9 10  1  1
 11 10  2  0
 13 12  1  0
 13 16  1  0
 13 14  1  1
 14 15  1  0
 16 18  1  0
 17 16  2  0
M  END
$$$$
