GPC.pdb
     RDKit          3D

 18 18  0  0  1  0  0  0  0  0999 V2000
    7.5301  -14.5763   20.6454 N   0  0  0  0  0  0  0  0  0  0  0  0
    6.7406  -14.7203   21.9014 C   0  0  0  0  0  0  0  0  0  0  0  0
    7.6544  -14.5694   23.0309 C   0  0  0  0  0  0  0  0  0  0  0  0
    8.7614  -15.2782   22.8888 O   0  0  0  0  0  0  0  0  0  0  0  0
    7.5559  -13.8289   24.1927 N   0  0  0  0  0  0  0  0  0  0  0  0
    6.7328  -12.5761   24.2397 C   0  0  0  0  0  0  0  0  0  0  0  0
    5.8180  -12.9551   25.3870 C   0  0  0  0  0  0  0  0  0  0  0  0
    6.6805  -13.8238   26.2784 C   0  0  0  0  0  0  0  0  0  0  0  0
    8.0421  -13.8786   25.4959 C   0  0  1  0  0  0  0  0  0  0  0  0
    8.8583  -14.9417   26.0014 C   0  0  0  0  0  0  0  0  0  0  0  0
    8.8373  -16.1162   25.6815 O   0  0  0  0  0  0  0  0  0  0  0  0
    9.8295  -14.5813   27.0178 N   0  0  0  0  0  0  0  0  0  0  0  0
   10.7820  -15.5651   27.4847 C   0  0  1  0  0  0  0  0  0  0  0  0
   11.6408  -15.0078   28.6052 C   0  0  0  0  0  0  0  0  0  0  0  0
   10.6225  -13.9034   29.6141 S   0  0  0  0  0  0  0  0  0  0  0  0
   10.0536  -16.7388   28.0527 C   0  0  0  0  0  0  0  0  0  0  0  0
   10.6897  -17.7813   28.3465 O   0  0  0  0  0  0  0  0  0  0  0  0
    8.6895  -16.6350   28.2372 O   0  0  0  0  0  0  0  0  0  0  0  0
  1  2  1  0
  3  4  2  0
  3  2  1  0
  5  3  1  0
  6  5  1  0
  7  6  1  0
  8  7  1  0
  8  9  1  0
  9  5  1  0
 10 12  1  0
  9 10  1  6
 11 10  2  0
 13 12  1  0
 13 16  1  0
 13 14  1  1
 14 15  1  0
 16 18  1  0
 17 16  2  0
M  END
$$$$
