GPC.pdb
     RDKit          3D

 18 18  0  0  1  0  0  0  0  0999 V2000
    8.4002  -17.4262   16.8856 N   0  0  0  0  0  0  0  0  0  0  0  0
    7.5528  -16.5544   17.7478 C   0  0  0  0  0  0  0  0  0  0  0  0
    8.3848  -16.0467   18.8357 C   0  0  0  0  0  0  0  0  0  0  0  0
    9.2236  -16.9558   19.3024 O   0  0  0  0  0  0  0  0  0  0  0  0
    8.4385  -14.8069   19.4422 N   0  0  0  0  0  0  0  0  0  0  0  0
    8.3187  -13.5489   18.6345 C   0  0  0  0  0  0  0  0  0  0  0  0
    7.1402  -12.9313   19.3601 C   0  0  0  0  0  0  0  0  0  0  0  0
    7.3039  -13.3917   20.7935 C   0  0  0  0  0  0  0  0  0  0  0  0
    8.5927  -14.2880   20.7244 C   0  0  1  0  0  0  0  0  0  0  0  0
    8.6952  -15.0952   21.9033 C   0  0  0  0  0  0  0  0  0  0  0  0
    7.8087  -15.3960   22.6817 O   0  0  0  0  0  0  0  0  0  0  0  0
   10.0122  -15.6208   22.2122 N   0  0  0  0  0  0  0  0  0  0  0  0
   10.2035  -16.4362   23.3918 C   0  0  1  0  0  0  0  0  0  0  0  0
   10.1246  -17.9141   23.0550 C   0  0  0  0  0  0  0  0  0  0  0  0
   10.4187  -18.8640   24.5669 S   0  0  0  0  0  0  0  0  0  0  0  0
   11.5692  -16.2008   23.9487 C   0  0  0  0  0  0  0  0  0  0  0  0
   12.4373  -15.6297   23.2428 O   0  0  0  0  0  0  0  0  0  0  0  0
   11.8325  -16.6244   25.2358 O   0  0  0  0  0  0  0  0  0  0  0  0
  1  2  1  0
  3  4  2  0
  3  2  1  0
  5  3  1  0
  6  5  1  0
  7  6  1  0
  8  7  1  0
  8  9  1  0
  9  5  1  0
 10 12  1  0
  9 10  1  1
 11 10  2  0
 13 12  1  0
 13 16  1  0
 13 14  1  6
 14 15  1  0
 16 18  1  0
 17 16  2  0
M  END
$$$$
