GPC.pdb
     RDKit          3D

 18 18  0  0  1  0  0  0  0  0999 V2000
    7.0368  -13.9346   21.3759 N   0  0  0  0  0  0  0  0  0  0  0  0
    6.3378  -13.9927   22.6911 C   0  0  0  0  0  0  0  0  0  0  0  0
    7.3517  -14.0412   23.7415 C   0  0  0  0  0  0  0  0  0  0  0  0
    8.3366  -14.8774   23.4605 O   0  0  0  0  0  0  0  0  0  0  0  0
    7.4491  -13.3763   24.9482 N   0  0  0  0  0  0  0  0  0  0  0  0
    7.0203  -11.9448   25.0752 C   0  0  0  0  0  0  0  0  0  0  0  0
    6.0145  -12.1137   26.1962 C   0  0  0  0  0  0  0  0  0  0  0  0
    6.5745  -13.2469   27.0301 C   0  0  0  0  0  0  0  0  0  0  0  0
    7.8769  -13.6436   26.2454 C   0  0  1  0  0  0  0  0  0  0  0  0
    8.3437  -14.9256   26.6818 C   0  0  0  0  0  0  0  0  0  0  0  0
    7.6806  -15.9132   26.9410 O   0  0  0  0  0  0  0  0  0  0  0  0
    9.7795  -15.0708   26.8354 N   0  0  0  0  0  0  0  0  0  0  0  0
   10.3399  -16.3584   27.1833 C   0  0  1  0  0  0  0  0  0  0  0  0
   11.7062  -16.5503   26.5507 C   0  0  0  0  0  0  0  0  0  0  0  0
   12.7472  -15.1378   26.9928 S   0  0  0  0  0  0  0  0  0  0  0  0
   10.5426  -16.4348   28.6610 C   0  0  0  0  0  0  0  0  0  0  0  0
   10.3843  -15.4054   29.3633 O   0  0  0  0  0  0  0  0  0  0  0  0
   10.9012  -17.6496   29.2099 O   0  0  0  0  0  0  0  0  0  0  0  0
  1  2  1  0
  3  4  2  0
  3  2  1  0
  5  3  1  0
  6  5  1  0
  7  6  1  0
  8  7  1  0
  8  9  1  0
  9  5  1  0
 10 12  1  0
  9 10  1  6
 11 10  2  0
 13 12  1  0
 13 16  1  0
 13 14  1  6
 14 15  1  0
 16 18  1  0
 17 16  2  0
M  END
$$$$
