GPC.pdb
     RDKit          3D

 18 18  0  0  1  0  0  0  0  0999 V2000
    9.5767  -15.6946   15.6169 N   0  0  0  0  0  0  0  0  0  0  0  0
    8.5139  -15.4259   16.6269 C   0  0  0  0  0  0  0  0  0  0  0  0
    9.1628  -15.1681   17.9099 C   0  0  0  0  0  0  0  0  0  0  0  0
   10.2042  -15.9548   18.1213 O   0  0  0  0  0  0  0  0  0  0  0  0
    8.8757  -14.2629   18.9129 N   0  0  0  0  0  0  0  0  0  0  0  0
    8.4620  -12.8586   18.5873 C   0  0  0  0  0  0  0  0  0  0  0  0
    7.1414  -12.8389   19.3306 C   0  0  0  0  0  0  0  0  0  0  0  0
    7.3718  -13.7457   20.5213 C   0  0  0  0  0  0  0  0  0  0  0  0
    8.8496  -14.2338   20.3042 C   0  0  1  0  0  0  0  0  0  0  0  0
    9.1184  -15.3730   21.1298 C   0  0  0  0  0  0  0  0  0  0  0  0
    8.4865  -16.4114   21.1984 O   0  0  0  0  0  0  0  0  0  0  0  0
   10.2834  -15.2848   21.9907 N   0  0  0  0  0  0  0  0  0  0  0  0
   10.6533  -16.4113   22.8196 C   0  0  1  0  0  0  0  0  0  0  0  0
   12.1559  -16.4700   23.0260 C   0  0  0  0  0  0  0  0  0  0  0  0
   12.9487  -16.6883   21.4141 S   0  0  0  0  0  0  0  0  0  0  0  0
   10.0450  -16.2582   24.1751 C   0  0  0  0  0  0  0  0  0  0  0  0
    9.4238  -15.2046   24.4612 O   0  0  0  0  0  0  0  0  0  0  0  0
   10.1888  -17.2933   25.0770 O   0  0  0  0  0  0  0  0  0  0  0  0
  1  2  1  0
  3  4  2  0
  3  2  1  0
  5  3  1  0
  6  5  1  0
  7  6  1  0
  8  7  1  0
  8  9  1  0
  9  5  1  0
 10 12  1  0
  9 10  1  1
 11 10  2  0
 13 12  1  0
 13 16  1  0
 13 14  1  1
 14 15  1  0
 16 18  1  0
 17 16  2  0
M  END
$$$$
