AMA.pdb
     RDKit          3D

 19 18  0  0  1  0  0  0  0  0999 V2000
   16.0222  -12.2539  -15.7996 C   0  0  0  0  0  0  0  0  0  0  0  0
   16.4546  -12.2239  -14.3430 C   0  0  2  0  0  0  0  0  0  0  0  0
   15.9244  -13.4214  -13.7189 N   0  0  0  0  0  0  0  0  0  0  0  0
   15.8807  -11.0252  -13.7216 C   0  0  0  0  0  0  0  0  0  0  0  0
   14.6371  -10.8040  -13.8224 O   0  0  0  0  0  0  0  0  0  0  0  0
   14.9374   -5.9910   -7.9986 C   0  0  0  0  0  0  0  0  0  0  0  0
   15.6680   -7.5263   -8.5975 S   0  0  0  0  0  0  0  0  0  0  0  0
   15.5317   -7.5574  -10.4045 C   0  0  0  0  0  0  0  0  0  0  0  0
   16.2052   -8.8071  -10.9195 C   0  0  0  0  0  0  0  0  0  0  0  0
   16.0589   -8.8818  -12.4088 C   0  0  2  0  0  0  0  0  0  0  0  0
   16.6299  -10.0626  -12.9934 N   0  0  0  0  0  0  0  0  0  0  0  0
   16.7419   -7.6952  -12.9899 C   0  0  0  0  0  0  0  0  0  0  0  0
   17.9988   -7.6441  -12.9252 O   0  0  0  0  0  0  0  0  0  0  0  0
   15.8220   -4.7387  -15.1388 C   0  0  0  0  0  0  0  0  0  0  0  0
   16.7209   -5.4766  -14.1939 C   0  0  2  0  0  0  0  0  0  0  0  0
   16.0315   -6.6343  -13.6057 N   0  0  0  0  0  0  0  0  0  0  0  0
   17.1526   -4.6175  -13.0545 C   0  0  0  0  0  0  0  0  0  0  0  0
   18.2081   -3.7582  -13.2821 O   0  0  0  0  0  0  0  0  0  0  0  0
   16.5983   -4.6531  -11.9253 O   0  0  0  0  0  0  0  0  0  0  0  0
  2  1  1  6
  3  2  1  0
  4  2  1  0
  5  4  2  0
  7  6  1  0
  7  8  1  0
  8  9  1  0
 10  9  1  1
 10 12  1  0
 10 11  1  0
 11  4  1  0
 12 16  1  0
 13 12  2  0
 15 17  1  0
 15 14  1  6
 16 15  1  0
 17 19  2  0
 17 18  1  0
M  END
$$$$
