AMA.pdb
     RDKit          3D

 19 18  0  0  1  0  0  0  0  0999 V2000
   30.7491  -23.2210  -16.5434 C   0  0  0  0  0  0  0  0  0  0  0  0
   30.6224  -24.7298  -16.6740 C   0  0  2  0  0  0  0  0  0  0  0  0
   30.0470  -25.2156  -15.4340 N   0  0  0  0  0  0  0  0  0  0  0  0
   31.9665  -25.2851  -16.8673 C   0  0  0  0  0  0  0  0  0  0  0  0
   32.6526  -24.9254  -17.8700 O   0  0  0  0  0  0  0  0  0  0  0  0
   38.1645  -29.4108  -14.2685 C   0  0  0  0  0  0  0  0  0  0  0  0
   36.6865  -28.4800  -13.8228 S   0  0  0  0  0  0  0  0  0  0  0  0
   35.8456  -27.9780  -15.3479 C   0  0  0  0  0  0  0  0  0  0  0  0
   34.5812  -27.2375  -14.9825 C   0  0  0  0  0  0  0  0  0  0  0  0
   33.8698  -26.8083  -16.2294 C   0  0  2  0  0  0  0  0  0  0  0  0
   32.5799  -26.2228  -15.9939 N   0  0  0  0  0  0  0  0  0  0  0  0
   33.6878  -28.0126  -17.0830 C   0  0  0  0  0  0  0  0  0  0  0  0
   32.9805  -28.9543  -16.6363 O   0  0  0  0  0  0  0  0  0  0  0  0
   33.4335  -28.8342  -20.5529 C   0  0  0  0  0  0  0  0  0  0  0  0
   34.0062  -29.2809  -19.2423 C   0  0  2  0  0  0  0  0  0  0  0  0
   34.2779  -28.1317  -18.3663 N   0  0  0  0  0  0  0  0  0  0  0  0
   35.3033  -29.9945  -19.4184 C   0  0  0  0  0  0  0  0  0  0  0  0
   35.2425  -31.3322  -19.7516 O   0  0  0  0  0  0  0  0  0  0  0  0
   36.4181  -29.4283  -19.2760 O   0  0  0  0  0  0  0  0  0  0  0  0
  2  1  1  1
  3  2  1  0
  4  2  1  0
  5  4  2  0
  7  6  1  0
  7  8  1  0
  8  9  1  0
 10  9  1  1
 10 12  1  0
 10 11  1  0
 11  4  1  0
 12 16  1  0
 13 12  2  0
 15 17  1  0
 15 14  1  6
 16 15  1  0
 17 19  2  0
 17 18  1  0
M  END
$$$$
