AMA.pdb
     RDKit          3D

 19 18  0  0  1  0  0  0  0  0999 V2000
   31.9044  -24.8855  -15.1333 C   0  0  0  0  0  0  0  0  0  0  0  0
   31.4272  -24.8751  -16.5762 C   0  0  2  0  0  0  0  0  0  0  0  0
   30.2218  -25.6805  -16.6296 N   0  0  0  0  0  0  0  0  0  0  0  0
   32.4786  -25.4704  -17.4084 C   0  0  0  0  0  0  0  0  0  0  0  0
   33.6173  -24.9175  -17.4663 O   0  0  0  0  0  0  0  0  0  0  0  0
   34.1950  -31.3994  -17.4093 C   0  0  0  0  0  0  0  0  0  0  0  0
   34.9184  -31.0370  -19.0202 S   0  0  0  0  0  0  0  0  0  0  0  0
   34.7876  -29.2539  -19.3174 C   0  0  0  0  0  0  0  0  0  0  0  0
   33.5448  -28.7385  -18.6313 C   0  0  0  0  0  0  0  0  0  0  0  0
   33.3810  -27.2766  -18.9159 C   0  0  2  0  0  0  0  0  0  0  0  0
   32.3180  -26.6535  -18.1784 N   0  0  0  0  0  0  0  0  0  0  0  0
   33.0923  -27.1286  -20.3675 C   0  0  0  0  0  0  0  0  0  0  0  0
   31.9375  -27.4233  -20.7752 O   0  0  0  0  0  0  0  0  0  0  0  0
   34.6504  -25.3976  -23.2981 C   0  0  0  0  0  0  0  0  0  0  0  0
   33.7346  -26.4247  -22.7050 C   0  0  2  0  0  0  0  0  0  0  0  0
   34.0636  -26.6724  -21.2936 N   0  0  0  0  0  0  0  0  0  0  0  0
   33.8480  -27.7375  -23.4025 C   0  0  0  0  0  0  0  0  0  0  0  0
   33.0795  -27.9139  -24.5350 O   0  0  0  0  0  0  0  0  0  0  0  0
   34.6019  -28.6610  -22.9997 O   0  0  0  0  0  0  0  0  0  0  0  0
  2  1  1  1
  3  2  1  0
  4  2  1  0
  5  4  2  0
  7  6  1  0
  7  8  1  0
  8  9  1  0
 10  9  1  1
 10 12  1  0
 10 11  1  0
 11  4  1  0
 12 16  1  0
 13 12  2  0
 15 17  1  0
 15 14  1  6
 16 15  1  0
 17 19  2  0
 17 18  1  0
M  END
$$$$
