AMA.pdb
     RDKit          3D

 19 18  0  0  1  0  0  0  0  0999 V2000
   27.8152  -20.0840  -15.6913 C   0  0  0  0  0  0  0  0  0  0  0  0
   28.2173  -21.0184  -14.5622 C   0  0  2  0  0  0  0  0  0  0  0  0
   28.7126  -22.2360  -15.1760 N   0  0  0  0  0  0  0  0  0  0  0  0
   27.0240  -21.2997  -13.7565 C   0  0  0  0  0  0  0  0  0  0  0  0
   26.1887  -22.1637  -14.1580 O   0  0  0  0  0  0  0  0  0  0  0  0
   28.1832  -20.5785   -7.0595 C   0  0  0  0  0  0  0  0  0  0  0  0
   26.6925  -20.0722   -7.9377 S   0  0  0  0  0  0  0  0  0  0  0  0
   26.6534  -20.9253   -9.5363 C   0  0  0  0  0  0  0  0  0  0  0  0
   25.5579  -20.3200  -10.3815 C   0  0  0  0  0  0  0  0  0  0  0  0
   25.5559  -20.9580  -11.7372 C   0  0  2  0  0  0  0  0  0  0  0  0
   26.7199  -20.6615  -12.5241 N   0  0  0  0  0  0  0  0  0  0  0  0
   24.3589  -20.4624  -12.4678 C   0  0  0  0  0  0  0  0  0  0  0  0
   24.4986  -19.4686  -13.2291 O   0  0  0  0  0  0  0  0  0  0  0  0
   22.0724  -21.3359  -14.5477 C   0  0  0  0  0  0  0  0  0  0  0  0
   21.9540  -20.6919  -13.1998 C   0  0  2  0  0  0  0  0  0  0  0  0
   23.0831  -21.0659  -12.3356 N   0  0  0  0  0  0  0  0  0  0  0  0
   20.7162  -21.1201  -12.4876 C   0  0  0  0  0  0  0  0  0  0  0  0
   20.8811  -21.8249  -11.3128 O   0  0  0  0  0  0  0  0  0  0  0  0
   19.5605  -20.8646  -12.9149 O   0  0  0  0  0  0  0  0  0  0  0  0
  2  1  1  6
  3  2  1  0
  4  2  1  0
  5  4  2  0
  7  6  1  0
  7  8  1  0
  8  9  1  0
 10  9  1  1
 10 12  1  0
 10 11  1  0
 11  4  1  0
 12 16  1  0
 13 12  2  0
 15 17  1  0
 15 14  1  6
 16 15  1  0
 17 19  2  0
 17 18  1  0
M  END
$$$$
