AMA.pdb
     RDKit          3D

 19 18  0  0  1  0  0  0  0  0999 V2000
   16.9948   -9.8049  -18.9196 C   0  0  0  0  0  0  0  0  0  0  0  0
   18.4135  -10.3428  -18.8338 C   0  0  2  0  0  0  0  0  0  0  0  0
   18.3167  -11.7900  -18.8026 N   0  0  0  0  0  0  0  0  0  0  0  0
   19.0165   -9.8428  -17.5934 C   0  0  0  0  0  0  0  0  0  0  0  0
   18.2728   -9.5606  -16.6070 O   0  0  0  0  0  0  0  0  0  0  0  0
   22.7856  -14.0102  -14.1442 C   0  0  0  0  0  0  0  0  0  0  0  0
   23.2937  -12.4188  -14.8218 S   0  0  0  0  0  0  0  0  0  0  0  0
   21.8048  -11.4608  -15.2091 C   0  0  0  0  0  0  0  0  0  0  0  0
   22.2217  -10.1409  -15.8130 C   0  0  0  0  0  0  0  0  0  0  0  0
   21.0056   -9.3270  -16.1351 C   0  0  2  0  0  0  0  0  0  0  0  0
   20.4101   -9.6431  -17.4029 N   0  0  0  0  0  0  0  0  0  0  0  0
   21.4115   -7.8962  -16.1529 C   0  0  0  0  0  0  0  0  0  0  0  0
   22.0623   -7.4770  -17.1466 O   0  0  0  0  0  0  0  0  0  0  0  0
   20.3161   -4.6858  -15.2437 C   0  0  0  0  0  0  0  0  0  0  0  0
   21.5049   -5.5908  -15.1288 C   0  0  2  0  0  0  0  0  0  0  0  0
   21.0927   -7.0018  -15.1004 N   0  0  0  0  0  0  0  0  0  0  0  0
   22.2674   -5.3474  -13.8710 C   0  0  0  0  0  0  0  0  0  0  0  0
   23.0316   -4.1999  -13.8134 O   0  0  0  0  0  0  0  0  0  0  0  0
   22.2347   -6.1353  -12.8903 O   0  0  0  0  0  0  0  0  0  0  0  0
  2  1  1  1
  3  2  1  0
  4  2  1  0
  5  4  2  0
  7  6  1  0
  7  8  1  0
  8  9  1  0
 10  9  1  6
 10 12  1  0
 10 11  1  0
 11  4  1  0
 12 16  1  0
 13 12  2  0
 15 17  1  0
 15 14  1  1
 16 15  1  0
 17 19  2  0
 17 18  1  0
M  END
$$$$
