AMA.pdb
     RDKit          3D

 19 18  0  0  1  0  0  0  0  0999 V2000
   27.7176  -20.0881  -16.8860 C   0  0  0  0  0  0  0  0  0  0  0  0
   28.2104  -21.0038  -15.7778 C   0  0  2  0  0  0  0  0  0  0  0  0
   28.6512  -22.2335  -16.4088 N   0  0  0  0  0  0  0  0  0  0  0  0
   27.0876  -21.2673  -14.8710 C   0  0  0  0  0  0  0  0  0  0  0  0
   26.3195  -22.2494  -15.0970 O   0  0  0  0  0  0  0  0  0  0  0  0
   23.7969  -21.8450   -8.2107 C   0  0  0  0  0  0  0  0  0  0  0  0
   25.2053  -21.3041   -9.1974 S   0  0  0  0  0  0  0  0  0  0  0  0
   24.5786  -20.4563  -10.6716 C   0  0  0  0  0  0  0  0  0  0  0  0
   25.7514  -20.0510  -11.5324 C   0  0  0  0  0  0  0  0  0  0  0  0
   25.6631  -20.7379  -12.8610 C   0  0  2  0  0  0  0  0  0  0  0  0
   26.7824  -20.4858  -13.7245 N   0  0  0  0  0  0  0  0  0  0  0  0
   24.4311  -20.2535  -13.5390 C   0  0  0  0  0  0  0  0  0  0  0  0
   24.3937  -19.0509  -13.9120 O   0  0  0  0  0  0  0  0  0  0  0  0
   21.8692  -21.4434  -15.7194 C   0  0  0  0  0  0  0  0  0  0  0  0
   22.1237  -20.6156  -14.4966 C   0  0  2  0  0  0  0  0  0  0  0  0
   23.3129  -21.0920  -13.7753 N   0  0  0  0  0  0  0  0  0  0  0  0
   20.9881  -20.6860  -13.5332 C   0  0  0  0  0  0  0  0  0  0  0  0
   19.7875  -20.1395  -13.9384 O   0  0  0  0  0  0  0  0  0  0  0  0
   21.0907  -21.2137  -12.3954 O   0  0  0  0  0  0  0  0  0  0  0  0
  2  1  1  6
  3  2  1  0
  4  2  1  0
  5  4  2  0
  7  6  1  0
  7  8  1  0
  8  9  1  0
 10  9  1  1
 10 12  1  0
 10 11  1  0
 11  4  1  0
 12 16  1  0
 13 12  2  0
 15 17  1  0
 15 14  1  6
 16 15  1  0
 17 19  2  0
 17 18  1  0
M  END
$$$$
