YIW.pdb
     RDKit          3D

 35 37  0  0  1  0  0  0  0  0999 V2000
   18.1769  -17.4671  -16.5541 O   0  0  0  0  0  0  0  0  0  0  0  0
   19.1760  -18.1489  -15.8610 C   0  0  0  0  0  0  0  0  0  0  0  0
   18.9159  -19.3669  -15.2596 C   0  0  0  0  0  0  0  0  0  0  0  0
   19.8935  -20.0487  -14.5730 C   0  0  0  0  0  0  0  0  0  0  0  0
   21.1806  -19.5329  -14.4609 C   0  0  0  0  0  0  0  0  0  0  0  0
   22.2265  -20.2878  -13.7135 C   0  0  0  0  0  0  0  0  0  0  0  0
   23.1905  -20.9853  -14.6745 C   0  0  2  0  0  0  0  0  0  0  0  0
   22.4997  -22.0136  -15.3867 N   0  0  0  0  0  0  0  0  0  0  0  0
   24.3237  -21.5014  -13.8697 C   0  0  0  0  0  0  0  0  0  0  0  0
   24.2041  -22.5959  -13.2758 O   0  0  0  0  0  0  0  0  0  0  0  0
   21.4567  -18.3356  -15.0458 C   0  0  0  0  0  0  0  0  0  0  0  0
   20.4572  -17.6611  -15.7351 C   0  0  0  0  0  0  0  0  0  0  0  0
   30.2986  -20.5436  -12.1051 C   0  0  0  0  0  0  0  0  0  0  0  0
   28.9055  -21.0299  -11.8851 C   0  0  0  0  0  0  0  0  0  0  0  0
   27.8861  -20.5782  -12.8747 C   0  0  2  0  0  0  0  0  0  0  0  0
   27.9727  -19.0605  -12.9730 C   0  0  0  0  0  0  0  0  0  0  0  0
   26.4967  -21.0571  -12.6848 C   0  0  2  0  0  0  0  0  0  0  0  0
   25.5731  -20.7809  -13.7439 N   0  0  0  0  0  0  0  0  0  0  0  0
   25.9945  -20.6230  -11.3629 C   0  0  0  0  0  0  0  0  0  0  0  0
   25.2074  -19.6514  -11.2120 O   0  0  0  0  0  0  0  0  0  0  0  0
   26.3841  -21.2965  -10.1846 N   0  0  0  0  0  0  0  0  0  0  0  0
   25.9376  -20.8478   -8.8563 C   0  0  1  0  0  0  0  0  0  0  0  0
   26.8205  -21.6028   -7.9039 C   0  0  0  0  0  0  0  0  0  0  0  0
   27.0430  -21.0315   -6.5870 C   0  0  0  0  0  0  0  0  0  0  0  0
   26.0925  -20.5425   -5.6925 C   0  0  0  0  0  0  0  0  0  0  0  0
   26.7286  -20.0763   -4.6224 N   0  0  0  0  0  0  0  0  0  0  0  0
   28.0642  -20.2283   -4.7519 C   0  0  0  0  0  0  0  0  0  0  0  0
   29.1238  -19.9295   -3.9332 C   0  0  0  0  0  0  0  0  0  0  0  0
   30.4061  -20.2314   -4.3407 C   0  0  0  0  0  0  0  0  0  0  0  0
   30.6264  -20.8277   -5.5582 C   0  0  0  0  0  0  0  0  0  0  0  0
   29.5740  -21.1292   -6.3835 C   0  0  0  0  0  0  0  0  0  0  0  0
   28.2844  -20.8305   -5.9863 C   0  0  0  0  0  0  0  0  0  0  0  0
   26.1576  -19.4092   -8.7657 C   0  0  0  0  0  0  0  0  0  0  0  0
   25.2590  -18.5177   -8.1858 O   0  0  0  0  0  0  0  0  0  0  0  0
   27.2230  -18.9160   -9.2418 O   0  0  0  0  0  0  0  0  0  0  0  0
  2 12  2  0
  2  1  1  0
  3  2  1  0
  4  5  1  0
  4  3  2  0
  5 11  2  0
  6  5  1  0
  7  6  1  0
  7  8  1  1
  9  7  1  0
 10  9  2  0
 11 12  1  0
 13 14  1  0
 14 15  1  0
 15 17  1  0
 15 16  1  1
 17 18  1  6
 17 19  1  0
 18  9  1  0
 19 20  2  0
 21 19  1  0
 21 22  1  0
 22 23  1  1
 22 33  1  0
 24 23  1  0
 25 24  2  0
 26 25  1  0
 27 26  1  0
 27 32  2  0
 28 27  1  0
 29 28  2  0
 29 30  1  0
 30 31  2  0
 31 32  1  0
 32 24  1  0
 33 35  2  0
 33 34  1  0
M  END
$$$$
