YIW.pdb
     RDKit          3D

 35 37  0  0  1  0  0  0  0  0999 V2000
   34.4365  -27.7846  -19.3593 O   0  0  0  0  0  0  0  0  0  0  0  0
   33.4193  -28.6747  -19.0184 C   0  0  0  0  0  0  0  0  0  0  0  0
   33.3078  -29.8992  -19.6517 C   0  0  0  0  0  0  0  0  0  0  0  0
   32.3083  -30.7855  -19.3240 C   0  0  0  0  0  0  0  0  0  0  0  0
   31.3736  -30.4776  -18.3409 C   0  0  0  0  0  0  0  0  0  0  0  0
   30.2985  -31.4523  -17.9993 C   0  0  0  0  0  0  0  0  0  0  0  0
   30.5282  -32.0577  -16.6137 C   0  0  2  0  0  0  0  0  0  0  0  0
   31.7145  -32.8543  -16.6275 N   0  0  0  0  0  0  0  0  0  0  0  0
   29.3153  -32.8343  -16.2619 C   0  0  0  0  0  0  0  0  0  0  0  0
   29.3904  -34.0798  -16.1726 O   0  0  0  0  0  0  0  0  0  0  0  0
   31.4662  -29.2776  -17.7058 C   0  0  0  0  0  0  0  0  0  0  0  0
   32.4819  -28.3950  -18.0498 C   0  0  0  0  0  0  0  0  0  0  0  0
   26.0982  -35.2619  -12.5559 C   0  0  0  0  0  0  0  0  0  0  0  0
   25.8790  -34.4393  -13.7810 C   0  0  0  0  0  0  0  0  0  0  0  0
   27.0543  -33.6660  -14.2742 C   0  0  2  0  0  0  0  0  0  0  0  0
   27.5175  -32.7524  -13.1467 C   0  0  0  0  0  0  0  0  0  0  0  0
   26.9028  -32.9479  -15.5616 C   0  0  2  0  0  0  0  0  0  0  0  0
   28.0369  -32.2007  -16.0162 N   0  0  0  0  0  0  0  0  0  0  0  0
   25.6611  -32.1443  -15.5427 C   0  0  0  0  0  0  0  0  0  0  0  0
   25.5702  -31.0337  -14.9557 O   0  0  0  0  0  0  0  0  0  0  0  0
   24.4962  -32.5978  -16.1994 N   0  0  0  0  0  0  0  0  0  0  0  0
   23.2563  -31.8055  -16.2053 C   0  0  1  0  0  0  0  0  0  0  0  0
   22.6740  -32.0555  -17.5673 C   0  0  0  0  0  0  0  0  0  0  0  0
   21.4415  -31.3695  -17.9147 C   0  0  0  0  0  0  0  0  0  0  0  0
   21.2024  -29.9967  -17.9417 C   0  0  0  0  0  0  0  0  0  0  0  0
   19.9305  -29.8020  -18.2754 N   0  0  0  0  0  0  0  0  0  0  0  0
   19.2996  -30.9790  -18.4758 C   0  0  0  0  0  0  0  0  0  0  0  0
   18.0182  -31.3032  -18.8440 C   0  0  0  0  0  0  0  0  0  0  0  0
   17.6669  -32.6282  -18.9936 C   0  0  0  0  0  0  0  0  0  0  0  0
   18.5906  -33.6213  -18.7766 C   0  0  0  0  0  0  0  0  0  0  0  0
   19.8730  -33.3071  -18.4075 C   0  0  0  0  0  0  0  0  0  0  0  0
   20.2366  -31.9826  -18.2534 C   0  0  0  0  0  0  0  0  0  0  0  0
   22.3882  -32.3134  -15.1495 C   0  0  0  0  0  0  0  0  0  0  0  0
   21.4362  -31.5447  -14.4853 O   0  0  0  0  0  0  0  0  0  0  0  0
   22.4919  -33.5249  -14.7938 O   0  0  0  0  0  0  0  0  0  0  0  0
  2 12  2  0
  2  1  1  0
  3  2  1  0
  4  5  1  0
  4  3  2  0
  5 11  2  0
  6  5  1  0
  7  6  1  0
  7  8  1  6
  9  7  1  0
 10  9  2  0
 11 12  1  0
 13 14  1  0
 14 15  1  0
 15 17  1  0
 15 16  1  1
 17 18  1  1
 17 19  1  0
 18  9  1  0
 19 20  2  0
 21 19  1  0
 21 22  1  0
 22 23  1  6
 22 33  1  0
 24 23  1  0
 25 24  2  0
 26 25  1  0
 27 26  1  0
 27 32  2  0
 28 27  1  0
 29 28  2  0
 29 30  1  0
 30 31  2  0
 31 32  1  0
 32 24  1  0
 33 35  2  0
 33 34  1  0
M  END
$$$$
