YIW.pdb
     RDKit          3D

 35 37  0  0  1  0  0  0  0  0999 V2000
   27.3023  -31.3234  -17.0725 O   0  0  0  0  0  0  0  0  0  0  0  0
   27.1751  -29.9659  -16.7819 C   0  0  0  0  0  0  0  0  0  0  0  0
   25.9833  -29.3017  -17.0084 C   0  0  0  0  0  0  0  0  0  0  0  0
   25.8460  -27.9626  -16.7258 C   0  0  0  0  0  0  0  0  0  0  0  0
   26.9058  -27.2302  -16.2009 C   0  0  0  0  0  0  0  0  0  0  0  0
   26.7366  -25.7799  -15.9002 C   0  0  0  0  0  0  0  0  0  0  0  0
   27.1461  -24.9209  -17.0975 C   0  0  2  0  0  0  0  0  0  0  0  0
   28.5696  -24.8039  -17.1411 N   0  0  0  0  0  0  0  0  0  0  0  0
   26.4631  -23.6122  -16.9593 C   0  0  0  0  0  0  0  0  0  0  0  0
   27.1336  -22.6010  -16.6550 O   0  0  0  0  0  0  0  0  0  0  0  0
   28.0870  -27.8656  -15.9707 C   0  0  0  0  0  0  0  0  0  0  0  0
   28.2075  -29.2182  -16.2621 C   0  0  0  0  0  0  0  0  0  0  0  0
   23.1979  -19.5141  -19.6477 C   0  0  0  0  0  0  0  0  0  0  0  0
   23.4224  -20.1920  -18.3378 C   0  0  0  0  0  0  0  0  0  0  0  0
   24.1135  -21.5119  -18.3891 C   0  0  2  0  0  0  0  0  0  0  0  0
   23.3379  -22.4071  -19.3471 C   0  0  0  0  0  0  0  0  0  0  0  0
   24.4023  -22.1778  -17.0971 C   0  0  2  0  0  0  0  0  0  0  0  0
   25.0381  -23.4593  -17.1644 N   0  0  0  0  0  0  0  0  0  0  0  0
   23.1848  -22.1889  -16.2572 C   0  0  0  0  0  0  0  0  0  0  0  0
   22.3014  -23.0827  -16.3395 O   0  0  0  0  0  0  0  0  0  0  0  0
   22.9556  -21.1740  -15.3026 N   0  0  0  0  0  0  0  0  0  0  0  0
   21.7382  -21.1531  -14.4764 C   0  0  1  0  0  0  0  0  0  0  0  0
   22.0747  -20.2053  -13.3605 C   0  0  0  0  0  0  0  0  0  0  0  0
   20.9868  -19.7276  -12.5247 C   0  0  0  0  0  0  0  0  0  0  0  0
   20.3363  -20.4041  -11.4944 C   0  0  0  0  0  0  0  0  0  0  0  0
   19.3766  -19.6162  -11.0196 N   0  0  0  0  0  0  0  0  0  0  0  0
   19.3492  -18.4389  -11.6806 C   0  0  0  0  0  0  0  0  0  0  0  0
   18.5738  -17.3138  -11.5564 C   0  0  0  0  0  0  0  0  0  0  0  0
   18.8033  -16.2336  -12.3822 C   0  0  0  0  0  0  0  0  0  0  0  0
   19.8011  -16.2788  -13.3251 C   0  0  0  0  0  0  0  0  0  0  0  0
   20.5803  -17.3990  -13.4572 C   0  0  0  0  0  0  0  0  0  0  0  0
   20.3591  -18.4883  -12.6358 C   0  0  0  0  0  0  0  0  0  0  0  0
   20.6423  -20.6494  -15.2958 C   0  0  0  0  0  0  0  0  0  0  0  0
   19.3095  -21.0143  -15.1256 O   0  0  0  0  0  0  0  0  0  0  0  0
   20.8947  -19.8318  -16.2300 O   0  0  0  0  0  0  0  0  0  0  0  0
  2 12  2  0
  2  1  1  0
  3  2  1  0
  4  5  1  0
  4  3  2  0
  5 11  2  0
  6  5  1  0
  7  6  1  0
  7  8  1  1
  9  7  1  0
 10  9  2  0
 11 12  1  0
 13 14  1  0
 14 15  1  0
 15 17  1  0
 15 16  1  6
 17 18  1  6
 17 19  1  0
 18  9  1  0
 19 20  2  0
 21 19  1  0
 21 22  1  0
 22 23  1  1
 22 33  1  0
 24 23  1  0
 25 24  2  0
 26 25  1  0
 27 26  1  0
 27 32  2  0
 28 27  1  0
 29 28  2  0
 29 30  1  0
 30 31  2  0
 31 32  1  0
 32 24  1  0
 33 35  2  0
 33 34  1  0
M  END
$$$$
