YIW.pdb
     RDKit          3D

 35 37  0  0  1  0  0  0  0  0999 V2000
   30.3141  -22.4684  -20.0865 O   0  0  0  0  0  0  0  0  0  0  0  0
   29.6248  -21.8527  -19.0428 C   0  0  0  0  0  0  0  0  0  0  0  0
   29.3279  -22.5463  -17.8836 C   0  0  0  0  0  0  0  0  0  0  0  0
   28.6483  -21.9496  -16.8474 C   0  0  0  0  0  0  0  0  0  0  0  0
   28.2360  -20.6238  -16.9321 C   0  0  0  0  0  0  0  0  0  0  0  0
   27.5016  -19.9947  -15.7975 C   0  0  0  0  0  0  0  0  0  0  0  0
   26.0728  -20.5324  -15.7046 C   0  0  2  0  0  0  0  0  0  0  0  0
   25.3187  -20.0925  -16.8359 N   0  0  0  0  0  0  0  0  0  0  0  0
   25.5060  -20.0665  -14.4163 C   0  0  0  0  0  0  0  0  0  0  0  0
   24.7714  -19.0541  -14.4012 O   0  0  0  0  0  0  0  0  0  0  0  0
   28.5187  -19.9240  -18.0646 C   0  0  0  0  0  0  0  0  0  0  0  0
   29.2058  -20.5427  -19.1009 C   0  0  0  0  0  0  0  0  0  0  0  0
   21.5702  -22.1771  -12.1970 C   0  0  0  0  0  0  0  0  0  0  0  0
   23.0521  -22.0096  -12.2383 C   0  0  0  0  0  0  0  0  0  0  0  0
   23.5639  -20.6227  -12.0460 C   0  0  2  0  0  0  0  0  0  0  0  0
   22.9185  -19.7370  -13.1041 C   0  0  0  0  0  0  0  0  0  0  0  0
   25.0334  -20.4450  -11.9756 C   0  0  2  0  0  0  0  0  0  0  0  0
   25.7730  -20.7440  -13.1650 N   0  0  0  0  0  0  0  0  0  0  0  0
   25.5647  -21.1415  -10.7838 C   0  0  0  0  0  0  0  0  0  0  0  0
   25.7283  -22.3893  -10.7330 O   0  0  0  0  0  0  0  0  0  0  0  0
   25.9218  -20.4198   -9.6238 N   0  0  0  0  0  0  0  0  0  0  0  0
   26.6532  -21.0539   -8.5156 C   0  0  1  0  0  0  0  0  0  0  0  0
   27.7057  -20.0452   -8.1530 C   0  0  0  0  0  0  0  0  0  0  0  0
   28.5870  -20.3542   -7.0403 C   0  0  0  0  0  0  0  0  0  0  0  0
   29.6146  -21.2948   -6.9958 C   0  0  0  0  0  0  0  0  0  0  0  0
   30.1409  -21.2792   -5.7753 N   0  0  0  0  0  0  0  0  0  0  0  0
   29.5174  -20.3715   -4.9936 C   0  0  0  0  0  0  0  0  0  0  0  0
   29.6985  -19.9752   -3.6925 C   0  0  0  0  0  0  0  0  0  0  0  0
   28.8999  -18.9824   -3.1653 C   0  0  0  0  0  0  0  0  0  0  0  0
   27.9275  -18.3906   -3.9339 C   0  0  0  0  0  0  0  0  0  0  0  0
   27.7386  -18.7806   -5.2346 C   0  0  0  0  0  0  0  0  0  0  0  0
   28.5322  -19.7754   -5.7738 C   0  0  0  0  0  0  0  0  0  0  0  0
   25.7169  -21.2700   -7.4188 C   0  0  0  0  0  0  0  0  0  0  0  0
   25.9099  -22.1994   -6.4002 O   0  0  0  0  0  0  0  0  0  0  0  0
   24.6524  -20.5848   -7.3712 O   0  0  0  0  0  0  0  0  0  0  0  0
  2 12  2  0
  2  1  1  0
  3  2  1  0
  4  5  1  0
  4  3  2  0
  5 11  2  0
  6  5  1  0
  7  6  1  0
  7  8  1  6
  9  7  1  0
 10  9  2  0
 11 12  1  0
 13 14  1  0
 14 15  1  0
 15 17  1  0
 15 16  1  6
 17 18  1  6
 17 19  1  0
 18  9  1  0
 19 20  2  0
 21 19  1  0
 21 22  1  0
 22 23  1  1
 22 33  1  0
 24 23  1  0
 25 24  2  0
 26 25  1  0
 27 26  1  0
 27 32  2  0
 28 27  1  0
 29 28  2  0
 29 30  1  0
 30 31  2  0
 31 32  1  0
 32 24  1  0
 33 35  2  0
 33 34  1  0
M  END
$$$$
