YIW.pdb
     RDKit          3D

 35 37  0  0  1  0  0  0  0  0999 V2000
   21.1117  -20.9533  -12.2263 O   0  0  0  0  0  0  0  0  0  0  0  0
   21.7866  -21.9447  -12.9369 C   0  0  0  0  0  0  0  0  0  0  0  0
   21.1024  -23.0166  -13.4808 C   0  0  0  0  0  0  0  0  0  0  0  0
   21.7575  -24.0008  -14.1836 C   0  0  0  0  0  0  0  0  0  0  0  0
   23.1349  -23.9496  -14.3708 C   0  0  0  0  0  0  0  0  0  0  0  0
   23.8264  -25.0256  -15.1367 C   0  0  0  0  0  0  0  0  0  0  0  0
   24.2418  -24.5308  -16.5230 C   0  0  2  0  0  0  0  0  0  0  0  0
   23.0782  -24.2108  -17.2882 N   0  0  0  0  0  0  0  0  0  0  0  0
   25.0675  -25.5937  -17.1448 C   0  0  0  0  0  0  0  0  0  0  0  0
   24.5273  -26.4137  -17.9197 O   0  0  0  0  0  0  0  0  0  0  0  0
   23.8264  -22.9028  -13.8434 C   0  0  0  0  0  0  0  0  0  0  0  0
   23.1484  -21.9181  -13.1366 C   0  0  0  0  0  0  0  0  0  0  0  0
   30.4364  -26.4767  -19.8771 C   0  0  0  0  0  0  0  0  0  0  0  0
   29.2768  -27.0593  -19.1412 C   0  0  0  0  0  0  0  0  0  0  0  0
   28.4301  -26.0979  -18.3787 C   0  0  2  0  0  0  0  0  0  0  0  0
   29.3544  -25.2356  -17.5286 C   0  0  0  0  0  0  0  0  0  0  0  0
   27.2999  -26.6576  -17.6006 C   0  0  2  0  0  0  0  0  0  0  0  0
   26.4865  -25.7196  -16.8867 N   0  0  0  0  0  0  0  0  0  0  0  0
   27.7817  -27.7625  -16.7434 C   0  0  0  0  0  0  0  0  0  0  0  0
   28.3589  -27.5747  -15.6399 O   0  0  0  0  0  0  0  0  0  0  0  0
   27.6096  -29.1086  -17.1340 N   0  0  0  0  0  0  0  0  0  0  0  0
   28.0147  -30.2224  -16.2620 C   0  0  1  0  0  0  0  0  0  0  0  0
   26.7188  -30.8955  -15.9097 C   0  0  0  0  0  0  0  0  0  0  0  0
   26.1162  -31.7691  -16.9017 C   0  0  0  0  0  0  0  0  0  0  0  0
   26.6855  -32.8764  -17.5281 C   0  0  0  0  0  0  0  0  0  0  0  0
   25.8032  -33.3640  -18.3947 N   0  0  0  0  0  0  0  0  0  0  0  0
   24.6644  -32.6383  -18.3822 C   0  0  0  0  0  0  0  0  0  0  0  0
   23.4790  -32.7452  -19.0648 C   0  0  0  0  0  0  0  0  0  0  0  0
   22.4651  -31.8447  -18.8147 C   0  0  0  0  0  0  0  0  0  0  0  0
   22.6359  -30.8449  -17.8885 C   0  0  0  0  0  0  0  0  0  0  0  0
   23.8171  -30.7295  -17.2023 C   0  0  0  0  0  0  0  0  0  0  0  0
   24.8410  -31.6256  -17.4451 C   0  0  0  0  0  0  0  0  0  0  0  0
   28.8864  -31.1049  -17.0286 C   0  0  0  0  0  0  0  0  0  0  0  0
   29.1132  -30.9812  -18.3967 O   0  0  0  0  0  0  0  0  0  0  0  0
   29.4809  -32.0534  -16.4356 O   0  0  0  0  0  0  0  0  0  0  0  0
  2 12  2  0
  2  1  1  0
  3  2  1  0
  4  5  1  0
  4  3  2  0
  5 11  2  0
  6  5  1  0
  7  6  1  0
  7  8  1  6
  9  7  1  0
 10  9  2  0
 11 12  1  0
 13 14  1  0
 14 15  1  0
 15 17  1  0
 15 16  1  1
 17 18  1  1
 17 19  1  0
 18  9  1  0
 19 20  2  0
 21 19  1  0
 21 22  1  0
 22 23  1  6
 22 33  1  0
 24 23  1  0
 25 24  2  0
 26 25  1  0
 27 26  1  0
 27 32  2  0
 28 27  1  0
 29 28  2  0
 29 30  1  0
 30 31  2  0
 31 32  1  0
 32 24  1  0
 33 35  2  0
 33 34  1  0
M  END
$$$$
