YIW.pdb
     RDKit          3D

 35 37  0  0  1  0  0  0  0  0999 V2000
   17.7508  -19.5778  -17.8406 O   0  0  0  0  0  0  0  0  0  0  0  0
   18.8214  -20.0367  -17.0748 C   0  0  0  0  0  0  0  0  0  0  0  0
   18.8060  -21.3054  -16.5241 C   0  0  0  0  0  0  0  0  0  0  0  0
   19.8563  -21.7691  -15.7667 C   0  0  0  0  0  0  0  0  0  0  0  0
   20.9726  -20.9737  -15.5292 C   0  0  0  0  0  0  0  0  0  0  0  0
   22.1013  -21.4951  -14.7067 C   0  0  0  0  0  0  0  0  0  0  0  0
   23.3578  -21.6840  -15.5580 C   0  0  2  0  0  0  0  0  0  0  0  0
   23.1556  -22.7539  -16.4833 N   0  0  0  0  0  0  0  0  0  0  0  0
   24.4893  -21.9279  -14.6314 C   0  0  0  0  0  0  0  0  0  0  0  0
   24.7296  -23.0958  -14.2530 O   0  0  0  0  0  0  0  0  0  0  0  0
   21.0071  -19.7222  -16.0625 C   0  0  0  0  0  0  0  0  0  0  0  0
   19.9375  -19.2706  -16.8247 C   0  0  0  0  0  0  0  0  0  0  0  0
   29.9637  -20.0119  -12.4362 C   0  0  0  0  0  0  0  0  0  0  0  0
   28.6458  -20.6820  -12.2364 C   0  0  0  0  0  0  0  0  0  0  0  0
   27.5867  -20.3638  -13.2362 C   0  0  2  0  0  0  0  0  0  0  0  0
   27.4244  -18.8497  -13.2772 C   0  0  0  0  0  0  0  0  0  0  0  0
   26.2914  -21.0707  -13.1013 C   0  0  2  0  0  0  0  0  0  0  0  0
   25.3330  -20.8571  -14.1439 N   0  0  0  0  0  0  0  0  0  0  0  0
   25.7300  -20.8331  -11.7537 C   0  0  0  0  0  0  0  0  0  0  0  0
   24.7437  -20.0787  -11.5432 O   0  0  0  0  0  0  0  0  0  0  0  0
   26.2883  -21.4584  -10.6173 N   0  0  0  0  0  0  0  0  0  0  0  0
   25.7620  -21.2128   -9.2653 C   0  0  1  0  0  0  0  0  0  0  0  0
   26.9181  -21.5376   -8.3627 C   0  0  0  0  0  0  0  0  0  0  0  0
   27.2016  -20.6254   -7.2682 C   0  0  0  0  0  0  0  0  0  0  0  0
   26.5505  -19.4337   -6.9546 C   0  0  0  0  0  0  0  0  0  0  0  0
   27.1537  -18.8947   -5.8998 N   0  0  0  0  0  0  0  0  0  0  0  0
   28.1812  -19.6671   -5.4858 C   0  0  0  0  0  0  0  0  0  0  0  0
   29.0785  -19.5565   -4.4538 C   0  0  0  0  0  0  0  0  0  0  0  0
   30.0248  -20.5416   -4.2652 C   0  0  0  0  0  0  0  0  0  0  0  0
   30.0729  -21.6291   -5.1028 C   0  0  0  0  0  0  0  0  0  0  0  0
   29.1810  -21.7478   -6.1373 C   0  0  0  0  0  0  0  0  0  0  0  0
   28.2286  -20.7663   -6.3369 C   0  0  0  0  0  0  0  0  0  0  0  0
   25.3878  -19.8065   -9.1726 C   0  0  0  0  0  0  0  0  0  0  0  0
   24.2314  -19.3466   -8.5483 O   0  0  0  0  0  0  0  0  0  0  0  0
   26.1436  -18.9308   -9.6891 O   0  0  0  0  0  0  0  0  0  0  0  0
  2 12  2  0
  2  1  1  0
  3  2  1  0
  4  5  1  0
  4  3  2  0
  5 11  2  0
  6  5  1  0
  7  6  1  0
  7  8  1  6
  9  7  1  0
 10  9  2  0
 11 12  1  0
 13 14  1  0
 14 15  1  0
 15 17  1  0
 15 16  1  1
 17 18  1  6
 17 19  1  0
 18  9  1  0
 19 20  2  0
 21 19  1  0
 21 22  1  0
 22 23  1  1
 22 33  1  0
 24 23  1  0
 25 24  2  0
 26 25  1  0
 27 26  1  0
 27 32  2  0
 28 27  1  0
 29 28  2  0
 29 30  1  0
 30 31  2  0
 31 32  1  0
 32 24  1  0
 33 35  2  0
 33 34  1  0
M  END
$$$$
