YIW.pdb
     RDKit          3D

 35 37  0  0  1  0  0  0  0  0999 V2000
   29.7315  -15.9934  -19.7500 O   0  0  0  0  0  0  0  0  0  0  0  0
   29.0029  -16.7400  -18.8254 C   0  0  0  0  0  0  0  0  0  0  0  0
   28.1668  -17.7606  -19.2405 C   0  0  0  0  0  0  0  0  0  0  0  0
   27.4429  -18.5039  -18.3375 C   0  0  0  0  0  0  0  0  0  0  0  0
   27.5288  -18.2522  -16.9721 C   0  0  0  0  0  0  0  0  0  0  0  0
   26.7371  -19.0699  -16.0093 C   0  0  0  0  0  0  0  0  0  0  0  0
   27.6348  -20.0560  -15.2605 C   0  0  2  0  0  0  0  0  0  0  0  0
   28.1986  -20.9898  -16.1836 N   0  0  0  0  0  0  0  0  0  0  0  0
   26.8069  -20.7050  -14.2158 C   0  0  0  0  0  0  0  0  0  0  0  0
   26.1647  -21.7404  -14.4993 O   0  0  0  0  0  0  0  0  0  0  0  0
   28.3462  -17.2522  -16.5434 C   0  0  0  0  0  0  0  0  0  0  0  0
   29.0697  -16.5118  -17.4694 C   0  0  0  0  0  0  0  0  0  0  0  0
   28.2014  -20.8175   -8.8068 C   0  0  0  0  0  0  0  0  0  0  0  0
   27.6652  -21.1879  -10.1488 C   0  0  0  0  0  0  0  0  0  0  0  0
   26.3017  -20.6817  -10.4760 C   0  0  2  0  0  0  0  0  0  0  0  0
   25.3193  -21.3306   -9.5093 C   0  0  0  0  0  0  0  0  0  0  0  0
   25.8607  -20.7822  -11.8872 C   0  0  2  0  0  0  0  0  0  0  0  0
   26.7125  -20.1814  -12.8693 N   0  0  0  0  0  0  0  0  0  0  0  0
   24.4545  -20.3389  -12.0044 C   0  0  0  0  0  0  0  0  0  0  0  0
   24.0033  -19.3213  -11.4152 O   0  0  0  0  0  0  0  0  0  0  0  0
   23.5350  -21.0540  -12.8026 N   0  0  0  0  0  0  0  0  0  0  0  0
   22.2207  -20.4939  -13.1547 C   0  0  1  0  0  0  0  0  0  0  0  0
   22.3792  -20.0732  -14.5881 C   0  0  0  0  0  0  0  0  0  0  0  0
   21.2091  -19.5569  -15.2770 C   0  0  0  0  0  0  0  0  0  0  0  0
   20.5729  -18.3315  -15.0865 C   0  0  0  0  0  0  0  0  0  0  0  0
   19.5197  -18.2788  -15.8958 N   0  0  0  0  0  0  0  0  0  0  0  0
   19.4153  -19.4109  -16.6247 C   0  0  0  0  0  0  0  0  0  0  0  0
   18.5316  -19.8247  -17.5892 C   0  0  0  0  0  0  0  0  0  0  0  0
   18.7005  -21.0572  -18.1842 C   0  0  0  0  0  0  0  0  0  0  0  0
   19.7456  -21.8693  -17.8170 C   0  0  0  0  0  0  0  0  0  0  0  0
   20.6331  -21.4646  -16.8536 C   0  0  0  0  0  0  0  0  0  0  0  0
   20.4735  -20.2319  -16.2494 C   0  0  0  0  0  0  0  0  0  0  0  0
   21.2247  -21.5494  -13.0125 C   0  0  0  0  0  0  0  0  0  0  0  0
   21.5060  -22.9080  -13.1294 O   0  0  0  0  0  0  0  0  0  0  0  0
   20.0212  -21.2349  -12.7726 O   0  0  0  0  0  0  0  0  0  0  0  0
  2 12  2  0
  2  1  1  0
  3  2  1  0
  4  5  1  0
  4  3  2  0
  5 11  2  0
  6  5  1  0
  7  6  1  0
  7  8  1  6
  9  7  1  0
 10  9  2  0
 11 12  1  0
 13 14  1  0
 14 15  1  0
 15 17  1  0
 15 16  1  1
 17 18  1  6
 17 19  1  0
 18  9  1  0
 19 20  2  0
 21 19  1  0
 21 22  1  0
 22 23  1  6
 22 33  1  0
 24 23  1  0
 25 24  2  0
 26 25  1  0
 27 26  1  0
 27 32  2  0
 28 27  1  0
 29 28  2  0
 29 30  1  0
 30 31  2  0
 31 32  1  0
 32 24  1  0
 33 35  2  0
 33 34  1  0
M  END
$$$$
