YIW.pdb
     RDKit          3D

 35 37  0  0  1  0  0  0  0  0999 V2000
   19.7196  -27.0041  -17.5885 O   0  0  0  0  0  0  0  0  0  0  0  0
   20.7731  -26.4484  -16.8642 C   0  0  0  0  0  0  0  0  0  0  0  0
   20.8702  -25.0795  -16.6927 C   0  0  0  0  0  0  0  0  0  0  0  0
   21.9051  -24.5197  -15.9803 C   0  0  0  0  0  0  0  0  0  0  0  0
   22.8914  -25.3157  -15.4069 C   0  0  0  0  0  0  0  0  0  0  0  0
   24.0043  -24.6898  -14.6374 C   0  0  0  0  0  0  0  0  0  0  0  0
   25.0578  -24.1023  -15.5778 C   0  0  2  0  0  0  0  0  0  0  0  0
   25.7520  -25.1594  -16.2430 N   0  0  0  0  0  0  0  0  0  0  0  0
   25.9531  -23.2469  -14.7623 C   0  0  0  0  0  0  0  0  0  0  0  0
   26.8911  -23.7752  -14.1252 O   0  0  0  0  0  0  0  0  0  0  0  0
   22.8136  -26.6652  -15.5643 C   0  0  0  0  0  0  0  0  0  0  0  0
   21.7616  -27.2130  -16.2869 C   0  0  0  0  0  0  0  0  0  0  0  0
   27.0520  -19.4454  -16.6919 C   0  0  0  0  0  0  0  0  0  0  0  0
   27.7517  -19.5106  -15.3759 C   0  0  0  0  0  0  0  0  0  0  0  0
   26.8815  -19.6476  -14.1732 C   0  0  2  0  0  0  0  0  0  0  0  0
   27.5044  -18.8265  -13.0514 C   0  0  0  0  0  0  0  0  0  0  0  0
   26.5286  -21.0212  -13.7434 C   0  0  2  0  0  0  0  0  0  0  0  0
   25.7813  -21.8121  -14.6745 N   0  0  0  0  0  0  0  0  0  0  0  0
   25.9069  -20.9811  -12.4018 C   0  0  0  0  0  0  0  0  0  0  0  0
   24.6742  -20.7972  -12.2209 O   0  0  0  0  0  0  0  0  0  0  0  0
   26.6875  -21.1531  -11.2377 N   0  0  0  0  0  0  0  0  0  0  0  0
   26.0929  -21.0853   -9.8935 C   0  0  1  0  0  0  0  0  0  0  0  0
   27.2796  -21.0912   -8.9725 C   0  0  0  0  0  0  0  0  0  0  0  0
   27.1207  -20.4951   -7.6572 C   0  0  0  0  0  0  0  0  0  0  0  0
   25.9349  -20.2091   -6.9829 C   0  0  0  0  0  0  0  0  0  0  0  0
   26.2428  -19.6329   -5.8252 N   0  0  0  0  0  0  0  0  0  0  0  0
   27.5810  -19.5171   -5.6858 C   0  0  0  0  0  0  0  0  0  0  0  0
   28.3781  -19.0196   -4.6860 C   0  0  0  0  0  0  0  0  0  0  0  0
   29.7495  -19.0596   -4.8245 C   0  0  0  0  0  0  0  0  0  0  0  0
   30.3189  -19.5933   -5.9548 C   0  0  0  0  0  0  0  0  0  0  0  0
   29.5305  -20.0918   -6.9594 C   0  0  0  0  0  0  0  0  0  0  0  0
   28.1547  -20.0564   -6.8324 C   0  0  0  0  0  0  0  0  0  0  0  0
   25.3414  -19.8397   -9.7921 C   0  0  0  0  0  0  0  0  0  0  0  0
   24.0755  -19.7368   -9.2216 O   0  0  0  0  0  0  0  0  0  0  0  0
   25.8493  -18.7729  -10.2490 O   0  0  0  0  0  0  0  0  0  0  0  0
  2 12  2  0
  2  1  1  0
  3  2  1  0
  4  5  1  0
  4  3  2  0
  5 11  2  0
  6  5  1  0
  7  6  1  0
  7  8  1  1
  9  7  1  0
 10  9  2  0
 11 12  1  0
 13 14  1  0
 14 15  1  0
 15 17  1  0
 15 16  1  1
 17 18  1  6
 17 19  1  0
 18  9  1  0
 19 20  2  0
 21 19  1  0
 21 22  1  0
 22 23  1  1
 22 33  1  0
 24 23  1  0
 25 24  2  0
 26 25  1  0
 27 26  1  0
 27 32  2  0
 28 27  1  0
 29 28  2  0
 29 30  1  0
 30 31  2  0
 31 32  1  0
 32 24  1  0
 33 35  2  0
 33 34  1  0
M  END
$$$$
