YIW.pdb
     RDKit          3D

 35 37  0  0  1  0  0  0  0  0999 V2000
   17.7342  -17.2206  -16.9323 O   0  0  0  0  0  0  0  0  0  0  0  0
   18.7048  -17.9263  -16.2230 C   0  0  0  0  0  0  0  0  0  0  0  0
   19.9744  -17.4056  -16.0500 C   0  0  0  0  0  0  0  0  0  0  0  0
   20.9402  -18.0927  -15.3523 C   0  0  0  0  0  0  0  0  0  0  0  0
   20.6701  -19.3386  -14.7957 C   0  0  0  0  0  0  0  0  0  0  0  0
   21.7301  -20.0670  -14.0419 C   0  0  0  0  0  0  0  0  0  0  0  0
   22.7872  -20.6325  -14.9917 C   0  0  2  0  0  0  0  0  0  0  0  0
   22.2322  -21.7172  -15.7381 N   0  0  0  0  0  0  0  0  0  0  0  0
   23.9534  -21.0345  -14.1692 C   0  0  0  0  0  0  0  0  0  0  0  0
   23.9483  -22.1505  -13.6041 O   0  0  0  0  0  0  0  0  0  0  0  0
   19.4266  -19.8683  -14.9547 C   0  0  0  0  0  0  0  0  0  0  0  0
   18.4638  -19.1603  -15.6624 C   0  0  0  0  0  0  0  0  0  0  0  0
   28.0702  -22.2453  -15.0068 C   0  0  0  0  0  0  0  0  0  0  0  0
   27.9594  -20.7611  -14.9048 C   0  0  0  0  0  0  0  0  0  0  0  0
   27.5506  -20.2208  -13.5768 C   0  0  2  0  0  0  0  0  0  0  0  0
   28.6154  -20.6204  -12.5633 C   0  0  0  0  0  0  0  0  0  0  0  0
   26.1782  -20.5303  -13.1111 C   0  0  2  0  0  0  0  0  0  0  0  0
   25.1070  -20.1774  -13.9937 N   0  0  0  0  0  0  0  0  0  0  0  0
   25.9847  -20.0059  -11.7417 C   0  0  0  0  0  0  0  0  0  0  0  0
   25.6156  -18.8255  -11.5036 O   0  0  0  0  0  0  0  0  0  0  0  0
   26.2094  -20.8264  -10.6147 N   0  0  0  0  0  0  0  0  0  0  0  0
   26.1040  -20.3005   -9.2445 C   0  0  1  0  0  0  0  0  0  0  0  0
   26.3563  -21.5003   -8.3764 C   0  0  0  0  0  0  0  0  0  0  0  0
   26.4130  -21.2978   -6.9390 C   0  0  0  0  0  0  0  0  0  0  0  0
   25.3890  -21.4651   -6.0084 C   0  0  0  0  0  0  0  0  0  0  0  0
   25.8583  -21.1360   -4.8090 N   0  0  0  0  0  0  0  0  0  0  0  0
   27.1517  -20.7551   -4.8860 C   0  0  0  0  0  0  0  0  0  0  0  0
   28.0653  -20.3495   -3.9461 C   0  0  0  0  0  0  0  0  0  0  0  0
   29.3513  -20.0396   -4.3353 C   0  0  0  0  0  0  0  0  0  0  0  0
   29.7204  -20.1347   -5.6549 C   0  0  0  0  0  0  0  0  0  0  0  0
   28.8142  -20.5381   -6.6012 C   0  0  0  0  0  0  0  0  0  0  0  0
   27.5220  -20.8505   -6.2233 C   0  0  0  0  0  0  0  0  0  0  0  0
   27.1348  -19.2844   -9.0679 C   0  0  0  0  0  0  0  0  0  0  0  0
   26.9387  -18.0839   -8.3905 O   0  0  0  0  0  0  0  0  0  0  0  0
   28.2867  -19.4815   -9.5569 O   0  0  0  0  0  0  0  0  0  0  0  0
  2 12  2  0
  2  1  1  0
  3  2  1  0
  4  5  1  0
  4  3  2  0
  5 11  2  0
  6  5  1  0
  7  6  1  0
  7  8  1  1
  9  7  1  0
 10  9  2  0
 11 12  1  0
 13 14  1  0
 14 15  1  0
 15 17  1  0
 15 16  1  1
 17 18  1  6
 17 19  1  0
 18  9  1  0
 19 20  2  0
 21 19  1  0
 21 22  1  0
 22 23  1  1
 22 33  1  0
 24 23  1  0
 25 24  2  0
 26 25  1  0
 27 26  1  0
 27 32  2  0
 28 27  1  0
 29 28  2  0
 29 30  1  0
 30 31  2  0
 31 32  1  0
 32 24  1  0
 33 35  2  0
 33 34  1  0
M  END
$$$$
