YIW.pdb
     RDKit          3D

 35 37  0  0  1  0  0  0  0  0999 V2000
   26.4175  -11.9553  -21.7489 O   0  0  0  0  0  0  0  0  0  0  0  0
   26.0453  -13.1504  -21.1354 C   0  0  0  0  0  0  0  0  0  0  0  0
   26.3176  -13.3750  -19.7981 C   0  0  0  0  0  0  0  0  0  0  0  0
   25.9554  -14.5502  -19.1821 C   0  0  0  0  0  0  0  0  0  0  0  0
   25.3008  -15.5549  -19.8871 C   0  0  0  0  0  0  0  0  0  0  0  0
   24.9154  -16.8211  -19.2010 C   0  0  0  0  0  0  0  0  0  0  0  0
   26.1382  -17.7075  -18.9599 C   0  0  2  0  0  0  0  0  0  0  0  0
   26.7317  -18.0592  -20.2114 N   0  0  0  0  0  0  0  0  0  0  0  0
   25.6856  -18.8869  -18.1838 C   0  0  0  0  0  0  0  0  0  0  0  0
   25.3198  -19.9166  -18.7927 O   0  0  0  0  0  0  0  0  0  0  0  0
   25.0236  -15.3532  -21.2042 C   0  0  0  0  0  0  0  0  0  0  0  0
   25.3969  -14.1604  -21.8098 C   0  0  0  0  0  0  0  0  0  0  0  0
   28.3717  -22.2452  -15.6267 C   0  0  0  0  0  0  0  0  0  0  0  0
   27.3562  -21.3563  -16.2625 C   0  0  0  0  0  0  0  0  0  0  0  0
   26.2557  -20.8760  -15.3789 C   0  0  2  0  0  0  0  0  0  0  0  0
   25.6828  -22.0845  -14.6494 C   0  0  0  0  0  0  0  0  0  0  0  0
   25.2044  -20.0359  -15.9995 C   0  0  2  0  0  0  0  0  0  0  0  0
   25.6502  -18.8918  -16.7365 N   0  0  0  0  0  0  0  0  0  0  0  0
   24.1742  -19.6995  -14.9928 C   0  0  0  0  0  0  0  0  0  0  0  0
   24.3992  -18.9563  -14.0012 O   0  0  0  0  0  0  0  0  0  0  0  0
   22.8616  -20.2082  -15.1036 N   0  0  0  0  0  0  0  0  0  0  0  0
   21.7943  -19.7962  -14.1783 C   0  0  1  0  0  0  0  0  0  0  0  0
   21.0760  -18.7039  -14.9183 C   0  0  0  0  0  0  0  0  0  0  0  0
   20.3237  -19.0699  -16.1059 C   0  0  0  0  0  0  0  0  0  0  0  0
   19.1078  -19.7477  -16.1758 C   0  0  0  0  0  0  0  0  0  0  0  0
   18.7941  -19.9092  -17.4573 N   0  0  0  0  0  0  0  0  0  0  0  0
   19.7407  -19.3713  -18.2563 C   0  0  0  0  0  0  0  0  0  0  0  0
   19.8664  -19.2665  -19.6186 C   0  0  0  0  0  0  0  0  0  0  0  0
   20.9636  -18.6255  -20.1542 C   0  0  0  0  0  0  0  0  0  0  0  0
   21.9276  -18.0935  -19.3331 C   0  0  0  0  0  0  0  0  0  0  0  0
   21.8110  -18.1941  -17.9708 C   0  0  0  0  0  0  0  0  0  0  0  0
   20.7162  -18.8352  -17.4223 C   0  0  0  0  0  0  0  0  0  0  0  0
   20.9276  -20.9455  -13.9448 C   0  0  0  0  0  0  0  0  0  0  0  0
   19.9166  -20.9783  -12.9880 O   0  0  0  0  0  0  0  0  0  0  0  0
   21.0890  -21.9922  -14.6399 O   0  0  0  0  0  0  0  0  0  0  0  0
  2 12  2  0
  2  1  1  0
  3  2  1  0
  4  5  1  0
  4  3  2  0
  5 11  2  0
  6  5  1  0
  7  6  1  0
  7  8  1  6
  9  7  1  0
 10  9  2  0
 11 12  1  0
 13 14  1  0
 14 15  1  0
 15 17  1  0
 15 16  1  6
 17 18  1  1
 17 19  1  0
 18  9  1  0
 19 20  2  0
 21 19  1  0
 21 22  1  0
 22 23  1  6
 22 33  1  0
 24 23  1  0
 25 24  2  0
 26 25  1  0
 27 26  1  0
 27 32  2  0
 28 27  1  0
 29 28  2  0
 29 30  1  0
 30 31  2  0
 31 32  1  0
 32 24  1  0
 33 35  2  0
 33 34  1  0
M  END
$$$$
