YIW.pdb
     RDKit          3D

 35 37  0  0  1  0  0  0  0  0999 V2000
   18.2856  -12.6826  -16.5760 O   0  0  0  0  0  0  0  0  0  0  0  0
   19.2437  -13.6727  -16.3640 C   0  0  0  0  0  0  0  0  0  0  0  0
   18.8727  -14.9425  -15.9602 C   0  0  0  0  0  0  0  0  0  0  0  0
   19.8090  -15.9274  -15.7477 C   0  0  0  0  0  0  0  0  0  0  0  0
   21.1648  -15.6771  -15.9328 C   0  0  0  0  0  0  0  0  0  0  0  0
   22.1640  -16.7584  -15.6985 C   0  0  0  0  0  0  0  0  0  0  0  0
   22.8813  -17.1320  -16.9966 C   0  0  2  0  0  0  0  0  0  0  0  0
   21.9310  -17.6097  -17.9509 N   0  0  0  0  0  0  0  0  0  0  0  0
   23.9158  -18.1387  -16.6582 C   0  0  0  0  0  0  0  0  0  0  0  0
   23.5764  -19.3297  -16.4818 O   0  0  0  0  0  0  0  0  0  0  0  0
   21.5502  -14.4339  -16.3301 C   0  0  0  0  0  0  0  0  0  0  0  0
   20.5910  -13.4516  -16.5399 C   0  0  0  0  0  0  0  0  0  0  0  0
   29.0985  -18.0700  -18.8051 C   0  0  0  0  0  0  0  0  0  0  0  0
   27.7437  -18.3764  -18.2609 C   0  0  0  0  0  0  0  0  0  0  0  0
   27.6547  -18.5698  -16.7853 C   0  0  2  0  0  0  0  0  0  0  0  0
   28.6314  -19.6737  -16.4004 C   0  0  0  0  0  0  0  0  0  0  0  0
   26.3059  -18.7776  -16.2079 C   0  0  2  0  0  0  0  0  0  0  0  0
   25.3151  -17.7926  -16.5228 N   0  0  0  0  0  0  0  0  0  0  0  0
   26.4175  -19.0296  -14.7547 C   0  0  0  0  0  0  0  0  0  0  0  0
   26.6411  -18.1184  -13.9144 O   0  0  0  0  0  0  0  0  0  0  0  0
   26.2731  -20.3341  -14.2338 N   0  0  0  0  0  0  0  0  0  0  0  0
   26.4000  -20.6078  -12.7936 C   0  0  1  0  0  0  0  0  0  0  0  0
   25.2562  -19.8519  -12.1797 C   0  0  0  0  0  0  0  0  0  0  0  0
   24.9365  -20.1177  -10.7878 C   0  0  0  0  0  0  0  0  0  0  0  0
   25.7638  -19.9739   -9.6753 C   0  0  0  0  0  0  0  0  0  0  0  0
   25.0866  -20.3628   -8.5996 N   0  0  0  0  0  0  0  0  0  0  0  0
   23.8402  -20.7617   -8.9334 C   0  0  0  0  0  0  0  0  0  0  0  0
   22.7772  -21.2230   -8.1989 C   0  0  0  0  0  0  0  0  0  0  0  0
   21.5948  -21.5373   -8.8350 C   0  0  0  0  0  0  0  0  0  0  0  0
   21.4769  -21.3910  -10.1956 C   0  0  0  0  0  0  0  0  0  0  0  0
   22.5340  -20.9316  -10.9379 C   0  0  0  0  0  0  0  0  0  0  0  0
   23.7245  -20.6143  -10.3117 C   0  0  0  0  0  0  0  0  0  0  0  0
   26.2630  -22.0454  -12.5912 C   0  0  0  0  0  0  0  0  0  0  0  0
   26.7046  -22.7186  -11.4552 O   0  0  0  0  0  0  0  0  0  0  0  0
   25.7162  -22.7469  -13.4932 O   0  0  0  0  0  0  0  0  0  0  0  0
  2 12  2  0
  2  1  1  0
  3  2  1  0
  4  5  1  0
  4  3  2  0
  5 11  2  0
  6  5  1  0
  7  6  1  0
  7  8  1  6
  9  7  1  0
 10  9  2  0
 11 12  1  0
 13 14  1  0
 14 15  1  0
 15 17  1  0
 15 16  1  6
 17 18  1  1
 17 19  1  0
 18  9  1  0
 19 20  2  0
 21 19  1  0
 21 22  1  0
 22 23  1  1
 22 33  1  0
 24 23  1  0
 25 24  2  0
 26 25  1  0
 27 26  1  0
 27 32  2  0
 28 27  1  0
 29 28  2  0
 29 30  1  0
 30 31  2  0
 31 32  1  0
 32 24  1  0
 33 35  2  0
 33 34  1  0
M  END
$$$$
