DLR.pdb
     RDKit          3D

 28 27  0  0  1  0  0  0  0  0999 V2000
    9.2626  -17.5704   15.8563 N   0  0  0  0  0  0  0  0  0  0  0  0
    9.0295  -18.0728   17.1700 C   0  0  1  0  0  0  0  0  0  0  0  0
    9.4728  -19.5068   17.3575 C   0  0  0  0  0  0  0  0  0  0  0  0
    8.7155  -20.3510   16.3994 C   0  0  0  0  0  0  0  0  0  0  0  0
    7.9565  -19.8772   15.5345 O   0  0  0  0  0  0  0  0  0  0  0  0
    9.5110  -17.1997   18.2637 C   0  0  0  0  0  0  0  0  0  0  0  0
   10.7247  -16.9219   18.3217 O   0  0  0  0  0  0  0  0  0  0  0  0
    8.8300  -21.7520   16.4338 O   0  0  0  0  0  0  0  0  0  0  0  0
    5.9871  -13.3780   20.3222 C   0  0  0  0  0  0  0  0  0  0  0  0
    7.2420  -14.0336   19.8214 C   0  0  1  0  0  0  0  0  0  0  0  0
    8.2138  -12.8997   19.4656 C   0  0  0  0  0  0  0  0  0  0  0  0
    7.8833  -14.9850   20.7935 C   0  0  0  0  0  0  0  0  0  0  0  0
    9.0395  -15.7483   20.2992 C   0  0  2  0  0  0  0  0  0  0  0  0
    8.6592  -16.6750   19.2334 N   0  0  0  0  0  0  0  0  0  0  0  0
    9.9669  -16.3380   21.2510 C   0  0  0  0  0  0  0  0  0  0  0  0
    9.7161  -17.5361   21.6363 O   0  0  0  0  0  0  0  0  0  0  0  0
   18.5602  -15.0577   23.5554 N   0  0  0  0  0  0  0  0  0  0  0  0
   18.1805  -16.3645   24.0108 C   0  0  0  0  0  0  0  0  0  0  0  0
   19.0618  -17.1726   24.5153 N   0  0  0  0  0  0  0  0  0  0  0  0
   16.8474  -16.7915   23.9190 N   0  0  0  0  0  0  0  0  0  0  0  0
   15.8180  -15.9975   23.2851 C   0  0  0  0  0  0  0  0  0  0  0  0
   14.4559  -16.6601   23.3171 C   0  0  0  0  0  0  0  0  0  0  0  0
   13.4207  -15.8642   22.5857 C   0  0  0  0  0  0  0  0  0  0  0  0
   12.0893  -16.5213   22.6087 C   0  0  2  0  0  0  0  0  0  0  0  0
   11.1176  -15.7589   21.8104 N   0  0  0  0  0  0  0  0  0  0  0  0
   11.6083  -16.6807   23.9837 C   0  0  0  0  0  0  0  0  0  0  0  0
   10.7078  -15.8605   24.3926 O   0  0  0  0  0  0  0  0  0  0  0  0
   12.0004  -17.6105   24.9086 O   0  0  0  0  0  0  0  0  0  0  0  0
  2  1  1  6
  2  3  1  0
  3  4  1  0
  4  5  2  0
  6  7  2  0
  6  2  1  0
  8  4  1  0
 10  9  1  1
 10 12  1  0
 11 10  1  0
 13 12  1  1
 13 14  1  0
 14  6  1  0
 15 13  1  0
 16 15  2  0
 18 17  1  0
 19 18  2  0
 20 18  1  0
 21 20  1  0
 22 21  1  0
 23 22  1  0
 24 23  1  1
 24 25  1  0
 25 15  1  0
 26 24  1  0
 26 28  1  0
 27 26  2  0
M  END
$$$$
