DLR.pdb
     RDKit          3D

 28 27  0  0  1  0  0  0  0  0999 V2000
   10.0705  -17.3075   15.1722 N   0  0  0  0  0  0  0  0  0  0  0  0
   11.1866  -16.5011   15.5418 C   0  0  1  0  0  0  0  0  0  0  0  0
   11.6541  -15.5734   14.4424 C   0  0  0  0  0  0  0  0  0  0  0  0
   12.9166  -16.1208   13.8851 C   0  0  0  0  0  0  0  0  0  0  0  0
   13.4511  -17.1591   14.3153 O   0  0  0  0  0  0  0  0  0  0  0  0
   11.0420  -15.7948   16.8344 C   0  0  0  0  0  0  0  0  0  0  0  0
   12.0683  -15.5047   17.4795 O   0  0  0  0  0  0  0  0  0  0  0  0
   13.5721  -15.4712   12.8243 O   0  0  0  0  0  0  0  0  0  0  0  0
    8.8835  -12.0842   20.2961 C   0  0  0  0  0  0  0  0  0  0  0  0
    8.0209  -13.2548   19.9211 C   0  0  1  0  0  0  0  0  0  0  0  0
    6.5796  -12.7302   19.8543 C   0  0  0  0  0  0  0  0  0  0  0  0
    8.3949  -13.9198   18.6253 C   0  0  0  0  0  0  0  0  0  0  0  0
    9.5676  -14.8071   18.6573 C   0  0  2  0  0  0  0  0  0  0  0  0
    9.8011  -15.4407   17.3598 N   0  0  0  0  0  0  0  0  0  0  0  0
    9.7377  -15.7276   19.7698 C   0  0  0  0  0  0  0  0  0  0  0  0
    9.5601  -16.9739   19.5214 O   0  0  0  0  0  0  0  0  0  0  0  0
   16.1768  -15.6894   18.5356 N   0  0  0  0  0  0  0  0  0  0  0  0
   16.2070  -14.8253   19.6809 C   0  0  0  0  0  0  0  0  0  0  0  0
   17.0770  -13.8659   19.7646 N   0  0  0  0  0  0  0  0  0  0  0  0
   15.2945  -15.0026   20.7314 N   0  0  0  0  0  0  0  0  0  0  0  0
   14.3212  -16.0725   20.7442 C   0  0  0  0  0  0  0  0  0  0  0  0
   13.0273  -15.6870   21.4318 C   0  0  0  0  0  0  0  0  0  0  0  0
   12.0418  -16.8130   21.4584 C   0  0  0  0  0  0  0  0  0  0  0  0
   10.7242  -16.3919   21.9984 C   0  0  2  0  0  0  0  0  0  0  0  0
   10.0767  -15.4254   21.0988 N   0  0  0  0  0  0  0  0  0  0  0  0
   10.8669  -15.8238   23.3418 C   0  0  0  0  0  0  0  0  0  0  0  0
   11.3938  -16.5702   24.2450 O   0  0  0  0  0  0  0  0  0  0  0  0
   10.5060  -14.5742   23.7683 O   0  0  0  0  0  0  0  0  0  0  0  0
  2  1  1  6
  2  3  1  0
  3  4  1  0
  4  5  2  0
  6  7  2  0
  6  2  1  0
  8  4  1  0
 10  9  1  6
 10 12  1  0
 11 10  1  0
 13 12  1  6
 13 14  1  0
 14  6  1  0
 15 13  1  0
 16 15  2  0
 18 17  1  0
 19 18  2  0
 20 18  1  0
 21 20  1  0
 22 21  1  0
 23 22  1  0
 24 23  1  6
 24 25  1  0
 25 15  1  0
 26 24  1  0
 26 28  1  0
 27 26  2  0
M  END
$$$$
