DLR.pdb
     RDKit          3D

 28 27  0  0  1  0  0  0  0  0999 V2000
    7.1359  -16.9237   22.0619 N   0  0  0  0  0  0  0  0  0  0  0  0
    8.3051  -16.1664   21.7583 C   0  0  1  0  0  0  0  0  0  0  0  0
    8.1876  -15.3539   20.4878 C   0  0  0  0  0  0  0  0  0  0  0  0
    8.1914  -16.2943   19.3390 C   0  0  0  0  0  0  0  0  0  0  0  0
    8.2355  -17.5303   19.4774 O   0  0  0  0  0  0  0  0  0  0  0  0
    8.8318  -15.3594   22.8817 C   0  0  0  0  0  0  0  0  0  0  0  0
    9.9649  -14.8505   22.7774 O   0  0  0  0  0  0  0  0  0  0  0  0
    8.1441  -15.8124   18.0190 O   0  0  0  0  0  0  0  0  0  0  0  0
    5.6642  -12.1569   26.0426 C   0  0  0  0  0  0  0  0  0  0  0  0
    6.8219  -12.7467   25.2895 C   0  0  1  0  0  0  0  0  0  0  0  0
    7.7727  -11.5840   24.9716 C   0  0  0  0  0  0  0  0  0  0  0  0
    7.5561  -13.8362   26.0211 C   0  0  0  0  0  0  0  0  0  0  0  0
    8.6206  -14.5254   25.2758 C   0  0  2  0  0  0  0  0  0  0  0  0
    8.1095  -15.1458   24.0538 N   0  0  0  0  0  0  0  0  0  0  0  0
    9.5557  -15.3795   25.9899 C   0  0  0  0  0  0  0  0  0  0  0  0
    9.3987  -15.4738   27.2600 O   0  0  0  0  0  0  0  0  0  0  0  0
   10.6809  -20.2443   30.9555 N   0  0  0  0  0  0  0  0  0  0  0  0
   11.3474  -21.2163   30.1367 C   0  0  0  0  0  0  0  0  0  0  0  0
   12.2558  -21.9951   30.6391 N   0  0  0  0  0  0  0  0  0  0  0  0
   11.0273  -21.3420   28.7767 N   0  0  0  0  0  0  0  0  0  0  0  0
   10.3196  -20.3140   28.0458 C   0  0  0  0  0  0  0  0  0  0  0  0
   11.2316  -19.2175   27.5342 C   0  0  0  0  0  0  0  0  0  0  0  0
   10.4792  -18.1469   26.8079 C   0  0  0  0  0  0  0  0  0  0  0  0
   11.3813  -17.1055   26.2540 C   0  0  2  0  0  0  0  0  0  0  0  0
   10.6224  -16.1255   25.4625 N   0  0  0  0  0  0  0  0  0  0  0  0
   12.4403  -17.7094   25.4409 C   0  0  0  0  0  0  0  0  0  0  0  0
   12.3012  -17.6661   24.1644 O   0  0  0  0  0  0  0  0  0  0  0  0
   13.5837  -18.3252   25.8732 O   0  0  0  0  0  0  0  0  0  0  0  0
  2  1  1  1
  2  3  1  0
  3  4  1  0
  4  5  2  0
  6  7  2  0
  6  2  1  0
  8  4  1  0
 10  9  1  1
 10 12  1  0
 11 10  1  0
 13 12  1  1
 13 14  1  0
 14  6  1  0
 15 13  1  0
 16 15  2  0
 18 17  1  0
 19 18  2  0
 20 18  1  0
 21 20  1  0
 22 21  1  0
 23 22  1  0
 24 23  1  6
 24 25  1  0
 25 15  1  0
 26 24  1  0
 26 28  1  0
 27 26  2  0
M  END
$$$$
