DLR.pdb
     RDKit          3D

 28 27  0  0  1  0  0  0  0  0999 V2000
   11.1686  -17.0127   17.5283 N   0  0  0  0  0  0  0  0  0  0  0  0
   12.0528  -16.0236   18.0501 C   0  0  1  0  0  0  0  0  0  0  0  0
   12.5496  -15.0453   17.0089 C   0  0  0  0  0  0  0  0  0  0  0  0
   12.9217  -15.8153   15.7954 C   0  0  0  0  0  0  0  0  0  0  0  0
   12.6886  -17.0312   15.6686 O   0  0  0  0  0  0  0  0  0  0  0  0
   11.5660  -15.3342   19.2660 C   0  0  0  0  0  0  0  0  0  0  0  0
   12.3949  -14.7928   20.0232 O   0  0  0  0  0  0  0  0  0  0  0  0
   13.5671  -15.1847   14.7171 O   0  0  0  0  0  0  0  0  0  0  0  0
    6.4528  -13.2860   19.1253 C   0  0  0  0  0  0  0  0  0  0  0  0
    7.9165  -13.5508   19.3319 C   0  0  1  0  0  0  0  0  0  0  0  0
    8.6172  -12.1855   19.2852 C   0  0  0  0  0  0  0  0  0  0  0  0
    8.2499  -14.2650   20.6126 C   0  0  0  0  0  0  0  0  0  0  0  0
    9.6566  -14.6508   20.8021 C   0  0  2  0  0  0  0  0  0  0  0  0
   10.2146  -15.2666   19.5983 N   0  0  0  0  0  0  0  0  0  0  0  0
   10.0512  -15.3406   22.0196 C   0  0  0  0  0  0  0  0  0  0  0  0
    9.5863  -14.8782   23.1226 O   0  0  0  0  0  0  0  0  0  0  0  0
   10.0853  -21.9112   19.7929 N   0  0  0  0  0  0  0  0  0  0  0  0
   11.4247  -21.4087   19.9068 C   0  0  0  0  0  0  0  0  0  0  0  0
   12.2434  -21.4701   18.9017 N   0  0  0  0  0  0  0  0  0  0  0  0
   11.8727  -20.8407   21.1087 N   0  0  0  0  0  0  0  0  0  0  0  0
   11.0141  -20.6820   22.2617 C   0  0  0  0  0  0  0  0  0  0  0  0
   10.5973  -19.2442   22.4955 C   0  0  0  0  0  0  0  0  0  0  0  0
   11.6095  -18.4827   23.2927 C   0  0  0  0  0  0  0  0  0  0  0  0
   11.2411  -17.0524   23.4461 C   0  0  2  0  0  0  0  0  0  0  0  0
   10.8856  -16.4631   22.1465 N   0  0  0  0  0  0  0  0  0  0  0  0
   12.3302  -16.2958   24.0699 C   0  0  0  0  0  0  0  0  0  0  0  0
   12.9435  -15.4344   23.3402 O   0  0  0  0  0  0  0  0  0  0  0  0
   12.7878  -16.3878   25.3566 O   0  0  0  0  0  0  0  0  0  0  0  0
  2  1  1  6
  2  3  1  0
  3  4  1  0
  4  5  2  0
  6  7  2  0
  6  2  1  0
  8  4  1  0
 10  9  1  1
 10 12  1  0
 11 10  1  0
 13 12  1  6
 13 14  1  0
 14  6  1  0
 15 13  1  0
 16 15  2  0
 18 17  1  0
 19 18  2  0
 20 18  1  0
 21 20  1  0
 22 21  1  0
 23 22  1  0
 24 23  1  6
 24 25  1  0
 25 15  1  0
 26 24  1  0
 26 28  1  0
 27 26  2  0
M  END
$$$$
