DLR.pdb
     RDKit          3D

 28 27  0  0  1  0  0  0  0  0999 V2000
    9.2194  -17.7996   16.7669 N   0  0  0  0  0  0  0  0  0  0  0  0
   10.4321  -17.1172   17.0770 C   0  0  1  0  0  0  0  0  0  0  0  0
   10.9889  -16.3160   15.9210 C   0  0  0  0  0  0  0  0  0  0  0  0
   11.1810  -17.2380   14.7733 C   0  0  0  0  0  0  0  0  0  0  0  0
   10.6275  -18.3502   14.6997 O   0  0  0  0  0  0  0  0  0  0  0  0
   10.3986  -16.3281   18.3287 C   0  0  0  0  0  0  0  0  0  0  0  0
   11.4745  -15.9409   18.8247 O   0  0  0  0  0  0  0  0  0  0  0  0
   12.0158  -16.8807   13.6998 O   0  0  0  0  0  0  0  0  0  0  0  0
    6.2880  -12.8698   19.4934 C   0  0  0  0  0  0  0  0  0  0  0  0
    7.6275  -13.5437   19.4091 C   0  0  1  0  0  0  0  0  0  0  0  0
    8.6818  -12.4364   19.5478 C   0  0  0  0  0  0  0  0  0  0  0  0
    7.8566  -14.6147   20.4396 C   0  0  0  0  0  0  0  0  0  0  0  0
    9.0922  -15.4014   20.3052 C   0  0  2  0  0  0  0  0  0  0  0  0
    9.2091  -16.0005   18.9760 N   0  0  0  0  0  0  0  0  0  0  0  0
    9.4772  -16.3152   21.3684 C   0  0  0  0  0  0  0  0  0  0  0  0
    9.6083  -17.5512   21.0492 O   0  0  0  0  0  0  0  0  0  0  0  0
   17.2542  -16.8346   24.6320 N   0  0  0  0  0  0  0  0  0  0  0  0
   16.7187  -16.9005   23.3022 C   0  0  0  0  0  0  0  0  0  0  0  0
   17.4156  -17.4065   22.3313 N   0  0  0  0  0  0  0  0  0  0  0  0
   15.4299  -16.4190   23.0285 N   0  0  0  0  0  0  0  0  0  0  0  0
   14.3665  -16.4415   24.0087 C   0  0  0  0  0  0  0  0  0  0  0  0
   13.1766  -17.2714   23.5717 C   0  0  0  0  0  0  0  0  0  0  0  0
   12.1150  -16.4417   22.9202 C   0  0  0  0  0  0  0  0  0  0  0  0
   10.7726  -16.6898   23.5046 C   0  0  2  0  0  0  0  0  0  0  0  0
    9.7287  -16.0164   22.7175 N   0  0  0  0  0  0  0  0  0  0  0  0
   10.7215  -16.2521   24.9022 C   0  0  0  0  0  0  0  0  0  0  0  0
   10.0336  -15.1995   25.1659 O   0  0  0  0  0  0  0  0  0  0  0  0
   11.3224  -16.8319   25.9868 O   0  0  0  0  0  0  0  0  0  0  0  0
  2  1  1  6
  2  3  1  0
  3  4  1  0
  4  5  2  0
  6  7  2  0
  6  2  1  0
  8  4  1  0
 10  9  1  1
 10 12  1  0
 11 10  1  0
 13 12  1  1
 13 14  1  0
 14  6  1  0
 15 13  1  0
 16 15  2  0
 18 17  1  0
 19 18  2  0
 20 18  1  0
 21 20  1  0
 22 21  1  0
 23 22  1  0
 24 23  1  6
 24 25  1  0
 25 15  1  0
 26 24  1  0
 26 28  1  0
 27 26  2  0
M  END
$$$$
