DLR.pdb
     RDKit          3D

 28 27  0  0  1  0  0  0  0  0999 V2000
    5.0369  -17.8844   24.5720 N   0  0  0  0  0  0  0  0  0  0  0  0
    5.7791  -17.6456   23.3784 C   0  0  1  0  0  0  0  0  0  0  0  0
    4.9117  -17.4472   22.1552 C   0  0  0  0  0  0  0  0  0  0  0  0
    5.5900  -18.0900   21.0016 C   0  0  0  0  0  0  0  0  0  0  0  0
    5.9903  -17.4514   20.0113 O   0  0  0  0  0  0  0  0  0  0  0  0
    6.8190  -16.5985   23.4922 C   0  0  0  0  0  0  0  0  0  0  0  0
    7.2274  -16.0410   22.4549 O   0  0  0  0  0  0  0  0  0  0  0  0
    5.8113  -19.4784   20.9839 O   0  0  0  0  0  0  0  0  0  0  0  0
    6.3075  -13.4836   27.3533 C   0  0  0  0  0  0  0  0  0  0  0  0
    6.7145  -13.8711   25.9607 C   0  0  1  0  0  0  0  0  0  0  0  0
    6.3297  -12.6955   25.0513 C   0  0  0  0  0  0  0  0  0  0  0  0
    8.1738  -14.1979   25.8019 C   0  0  0  0  0  0  0  0  0  0  0  0
    8.5022  -15.3158   24.9041 C   0  0  2  0  0  0  0  0  0  0  0  0
    7.3606  -16.2107   24.7159 N   0  0  0  0  0  0  0  0  0  0  0  0
    9.7538  -16.0333   25.0839 C   0  0  0  0  0  0  0  0  0  0  0  0
   10.4178  -15.7791   26.1521 O   0  0  0  0  0  0  0  0  0  0  0  0
    9.0481  -12.0729   19.1342 N   0  0  0  0  0  0  0  0  0  0  0  0
    9.0329  -13.4971   18.9588 C   0  0  0  0  0  0  0  0  0  0  0  0
    8.3576  -14.0388   17.9919 N   0  0  0  0  0  0  0  0  0  0  0  0
    9.7498  -14.3300   19.8307 N   0  0  0  0  0  0  0  0  0  0  0  0
   11.0232  -13.9479   20.4004 C   0  0  0  0  0  0  0  0  0  0  0  0
   11.6286  -15.0279   21.2737 C   0  0  0  0  0  0  0  0  0  0  0  0
   10.6747  -15.5117   22.3206 C   0  0  0  0  0  0  0  0  0  0  0  0
   11.2457  -16.6174   23.1308 C   0  0  2  0  0  0  0  0  0  0  0  0
   10.3379  -16.9821   24.2287 N   0  0  0  0  0  0  0  0  0  0  0  0
   12.5641  -16.2535   23.6570 C   0  0  0  0  0  0  0  0  0  0  0  0
   12.5986  -15.6103   24.7686 O   0  0  0  0  0  0  0  0  0  0  0  0
   13.7900  -16.5167   23.1078 O   0  0  0  0  0  0  0  0  0  0  0  0
  2  1  1  1
  2  3  1  0
  3  4  1  0
  4  5  2  0
  6  7  2  0
  6  2  1  0
  8  4  1  0
 10  9  1  1
 10 12  1  0
 11 10  1  0
 13 12  1  1
 13 14  1  0
 14  6  1  0
 15 13  1  0
 16 15  2  0
 18 17  1  0
 19 18  2  0
 20 18  1  0
 21 20  1  0
 22 21  1  0
 23 22  1  0
 24 23  1  1
 24 25  1  0
 25 15  1  0
 26 24  1  0
 26 28  1  0
 27 26  2  0
M  END
$$$$
