SDV.pdb
     RDKit          3D

 22 21  0  0  1  0  0  0  0  0999 V2000
   15.1667  -11.9710  -14.5801 O   0  0  0  0  0  0  0  0  0  0  0  0
   14.4999  -10.8398  -15.0925 C   0  0  0  0  0  0  0  0  0  0  0  0
   14.8232  -10.7735  -16.5694 C   0  0  2  0  0  0  0  0  0  0  0  0
   14.7445  -12.1099  -17.1317 N   0  0  0  0  0  0  0  0  0  0  0  0
   16.1571  -10.2158  -16.8420 C   0  0  0  0  0  0  0  0  0  0  0  0
   17.0351  -10.8764  -17.4489 O   0  0  0  0  0  0  0  0  0  0  0  0
   16.5019   -8.9078  -16.4325 N   0  0  0  0  0  0  0  0  0  0  0  0
   17.7727   -8.2857  -16.7666 C   0  0  1  0  0  0  0  0  0  0  0  0
   17.4220   -6.7789  -16.8582 C   0  0  0  0  0  0  0  0  0  0  0  0
   18.5179   -5.9814  -17.3958 C   0  0  0  0  0  0  0  0  0  0  0  0
   19.4345   -6.4539  -18.1084 O   0  0  0  0  0  0  0  0  0  0  0  0
   18.6812   -8.4440  -15.6056 C   0  0  0  0  0  0  0  0  0  0  0  0
   18.2235   -8.4999  -14.4215 O   0  0  0  0  0  0  0  0  0  0  0  0
   18.5376   -4.6162  -17.0927 O   0  0  0  0  0  0  0  0  0  0  0  0
   23.1421  -10.1428  -14.2623 C   0  0  0  0  0  0  0  0  0  0  0  0
   22.1070   -9.8370  -15.3544 C   0  0  1  0  0  0  0  0  0  0  0  0
   21.5615  -11.0852  -15.9606 C   0  0  0  0  0  0  0  0  0  0  0  0
   21.0368   -8.9111  -14.8010 C   0  0  2  0  0  0  0  0  0  0  0  0
   20.0629   -8.5362  -15.7735 N   0  0  0  0  0  0  0  0  0  0  0  0
   21.6842   -7.6942  -14.2787 C   0  0  0  0  0  0  0  0  0  0  0  0
   21.8106   -6.6845  -15.0421 O   0  0  0  0  0  0  0  0  0  0  0  0
   22.1748   -7.5805  -12.9835 O   0  0  0  0  0  0  0  0  0  0  0  0
  1  2  1  0
  2  3  1  0
  3  4  1  1
  5  3  1  0
  5  6  2  0
  7  5  1  0
  8 12  1  0
  8  7  1  0
  8  9  1  1
 10  9  1  0
 10 11  2  0
 12 13  2  0
 14 10  1  0
 16 15  1  1
 16 17  1  0
 18 16  1  0
 19 12  1  0
 18 19  1  6
 20 22  1  0
 20 18  1  0
 21 20  2  0
M  END
$$$$
