SDV.pdb
     RDKit          3D

 22 21  0  0  1  0  0  0  0  0999 V2000
   10.0604  -12.4138  -12.4043 O   0  0  0  0  0  0  0  0  0  0  0  0
   11.1522  -11.7179  -11.8471 C   0  0  0  0  0  0  0  0  0  0  0  0
   12.4041  -12.3022  -12.4648 C   0  0  2  0  0  0  0  0  0  0  0  0
   12.5294  -13.6903  -12.0577 N   0  0  0  0  0  0  0  0  0  0  0  0
   13.6263  -11.5777  -12.0827 C   0  0  0  0  0  0  0  0  0  0  0  0
   14.1797  -11.7610  -10.9710 O   0  0  0  0  0  0  0  0  0  0  0  0
   14.2292  -10.6458  -12.9577 N   0  0  0  0  0  0  0  0  0  0  0  0
   15.3569   -9.8143  -12.5696 C   0  0  1  0  0  0  0  0  0  0  0  0
   16.0132   -9.4441  -13.9238 C   0  0  0  0  0  0  0  0  0  0  0  0
   17.1771   -8.5805  -13.7635 C   0  0  0  0  0  0  0  0  0  0  0  0
   17.9273   -8.6076  -12.7596 O   0  0  0  0  0  0  0  0  0  0  0  0
   14.8235   -8.5562  -11.9941 C   0  0  0  0  0  0  0  0  0  0  0  0
   13.7867   -8.0047  -12.4791 O   0  0  0  0  0  0  0  0  0  0  0  0
   17.4619   -7.6764  -14.7918 O   0  0  0  0  0  0  0  0  0  0  0  0
   13.6453   -7.6348   -8.4600 C   0  0  0  0  0  0  0  0  0  0  0  0
   14.9117   -6.8265   -8.7772 C   0  0  1  0  0  0  0  0  0  0  0  0
   16.1087   -7.3849   -8.0854 C   0  0  0  0  0  0  0  0  0  0  0  0
   15.0794   -6.7069  -10.2826 C   0  0  2  0  0  0  0  0  0  0  0  0
   15.4397   -7.9385  -10.9057 N   0  0  0  0  0  0  0  0  0  0  0  0
   16.1217   -5.7042  -10.5669 C   0  0  0  0  0  0  0  0  0  0  0  0
   15.9347   -4.4984  -10.2071 O   0  0  0  0  0  0  0  0  0  0  0  0
   17.3146   -5.9988  -11.2161 O   0  0  0  0  0  0  0  0  0  0  0  0
  1  2  1  0
  2  3  1  0
  3  4  1  1
  5  3  1  0
  5  6  2  0
  7  5  1  0
  8 12  1  0
  8  7  1  0
  8  9  1  6
 10  9  1  0
 10 11  2  0
 12 13  2  0
 14 10  1  0
 16 15  1  6
 16 17  1  0
 18 16  1  0
 19 12  1  0
 18 19  1  1
 20 22  1  0
 20 18  1  0
 21 20  2  0
M  END
$$$$
