SDV.pdb
     RDKit          3D

 22 21  0  0  1  0  0  0  0  0999 V2000
   23.9458  -33.9838  -11.2831 O   0  0  0  0  0  0  0  0  0  0  0  0
   24.4549  -34.0173   -9.9691 C   0  0  0  0  0  0  0  0  0  0  0  0
   23.6198  -33.0555   -9.1521 C   0  0  2  0  0  0  0  0  0  0  0  0
   23.7892  -31.7140   -9.6813 N   0  0  0  0  0  0  0  0  0  0  0  0
   23.9733  -33.0564   -7.7239 C   0  0  0  0  0  0  0  0  0  0  0  0
   24.8777  -32.3139   -7.2694 O   0  0  0  0  0  0  0  0  0  0  0  0
   23.3031  -33.8941   -6.8039 N   0  0  0  0  0  0  0  0  0  0  0  0
   23.5870  -33.8864   -5.3780 C   0  0  1  0  0  0  0  0  0  0  0  0
   22.3773  -34.6380   -4.7668 C   0  0  0  0  0  0  0  0  0  0  0  0
   22.4040  -34.6485   -3.3090 C   0  0  0  0  0  0  0  0  0  0  0  0
   23.2825  -34.0694   -2.6276 O   0  0  0  0  0  0  0  0  0  0  0  0
   24.7808  -34.7335   -5.1426 C   0  0  0  0  0  0  0  0  0  0  0  0
   24.9427  -35.8236   -5.7751 O   0  0  0  0  0  0  0  0  0  0  0  0
   21.3898  -35.3463   -2.6455 O   0  0  0  0  0  0  0  0  0  0  0  0
   29.4976  -34.8491   -3.8377 C   0  0  0  0  0  0  0  0  0  0  0  0
   28.2086  -34.1180   -4.2395 C   0  0  1  0  0  0  0  0  0  0  0  0
   28.2753  -33.6150   -5.6415 C   0  0  0  0  0  0  0  0  0  0  0  0
   27.0084  -35.0098   -3.9695 C   0  0  2  0  0  0  0  0  0  0  0  0
   25.7621  -34.3638   -4.2226 N   0  0  0  0  0  0  0  0  0  0  0  0
   27.0450  -35.4432   -2.5611 C   0  0  0  0  0  0  0  0  0  0  0  0
   26.2385  -34.9162   -1.7304 O   0  0  0  0  0  0  0  0  0  0  0  0
   27.9218  -36.4063   -2.0761 O   0  0  0  0  0  0  0  0  0  0  0  0
  1  2  1  0
  2  3  1  0
  3  4  1  6
  5  3  1  0
  5  6  2  0
  7  5  1  0
  8 12  1  0
  8  7  1  0
  8  9  1  1
 10  9  1  0
 10 11  2  0
 12 13  2  0
 14 10  1  0
 16 15  1  6
 16 17  1  0
 18 16  1  0
 19 12  1  0
 18 19  1  1
 20 22  1  0
 20 18  1  0
 21 20  2  0
M  END
$$$$
