SDV.pdb
     RDKit          3D

 22 21  0  0  1  0  0  0  0  0999 V2000
   15.3849  -12.7196  -14.5543 O   0  0  0  0  0  0  0  0  0  0  0  0
   16.6613  -12.1531  -14.7458 C   0  0  0  0  0  0  0  0  0  0  0  0
   16.8030  -11.8859  -16.2286 C   0  0  2  0  0  0  0  0  0  0  0  0
   17.1568  -13.1233  -16.9009 N   0  0  0  0  0  0  0  0  0  0  0  0
   17.8179  -10.8659  -16.5351 C   0  0  0  0  0  0  0  0  0  0  0  0
   18.9874  -11.1797  -16.8660 O   0  0  0  0  0  0  0  0  0  0  0  0
   17.5132   -9.4872  -16.4720 N   0  0  0  0  0  0  0  0  0  0  0  0
   18.5065   -8.4488  -16.6926 C   0  0  1  0  0  0  0  0  0  0  0  0
   17.6515   -7.1941  -17.0033 C   0  0  0  0  0  0  0  0  0  0  0  0
   18.4659   -6.0286  -17.3270 C   0  0  0  0  0  0  0  0  0  0  0  0
   19.5301   -6.0883  -17.9866 O   0  0  0  0  0  0  0  0  0  0  0  0
   19.1945   -8.1900  -15.4050 C   0  0  0  0  0  0  0  0  0  0  0  0
   18.5571   -8.2227  -14.3063 O   0  0  0  0  0  0  0  0  0  0  0  0
   18.0262   -4.7818  -16.8709 O   0  0  0  0  0  0  0  0  0  0  0  0
   21.8359  -10.1638  -13.8830 C   0  0  0  0  0  0  0  0  0  0  0  0
   22.4669   -8.7774  -14.0762 C   0  0  1  0  0  0  0  0  0  0  0  0
   23.4345   -8.7664  -15.2105 C   0  0  0  0  0  0  0  0  0  0  0  0
   21.3735   -7.7295  -14.1989 C   0  0  2  0  0  0  0  0  0  0  0  0
   20.5587   -7.9028  -15.3569 N   0  0  0  0  0  0  0  0  0  0  0  0
   21.9971   -6.3948  -14.2482 C   0  0  0  0  0  0  0  0  0  0  0  0
   21.9831   -5.7455  -15.3421 O   0  0  0  0  0  0  0  0  0  0  0  0
   22.6112   -5.7929  -13.1565 O   0  0  0  0  0  0  0  0  0  0  0  0
  1  2  1  0
  2  3  1  0
  3  4  1  6
  5  3  1  0
  5  6  2  0
  7  5  1  0
  8 12  1  0
  8  7  1  0
  8  9  1  1
 10  9  1  0
 10 11  2  0
 12 13  2  0
 14 10  1  0
 16 15  1  6
 16 17  1  0
 18 16  1  0
 19 12  1  0
 18 19  1  6
 20 22  1  0
 20 18  1  0
 21 20  2  0
M  END
$$$$
