SDV.pdb
     RDKit          3D

 22 21  0  0  1  0  0  0  0  0999 V2000
   16.0642  -12.6627  -17.3614 O   0  0  0  0  0  0  0  0  0  0  0  0
   16.4677  -11.6630  -16.4534 C   0  0  0  0  0  0  0  0  0  0  0  0
   17.2511  -10.6408  -17.2482 C   0  0  2  0  0  0  0  0  0  0  0  0
   18.4389  -11.2739  -17.7929 N   0  0  0  0  0  0  0  0  0  0  0  0
   17.6532   -9.4742  -16.4472 C   0  0  0  0  0  0  0  0  0  0  0  0
   16.8069   -8.7499  -15.8684 O   0  0  0  0  0  0  0  0  0  0  0  0
   19.0140   -9.1242  -16.2947 N   0  0  0  0  0  0  0  0  0  0  0  0
   19.4512   -7.9779  -15.5146 C   0  0  1  0  0  0  0  0  0  0  0  0
   20.5644   -8.5631  -14.6090 C   0  0  0  0  0  0  0  0  0  0  0  0
   21.1429   -7.5645  -13.7178 C   0  0  0  0  0  0  0  0  0  0  0  0
   22.3300   -7.1694  -13.7970 O   0  0  0  0  0  0  0  0  0  0  0  0
   20.1081   -7.0191  -16.4352 C   0  0  0  0  0  0  0  0  0  0  0  0
   20.7614   -7.4275  -17.4456 O   0  0  0  0  0  0  0  0  0  0  0  0
   20.3196   -7.0256  -12.7240 O   0  0  0  0  0  0  0  0  0  0  0  0
   18.7728   -4.6290  -18.7850 C   0  0  0  0  0  0  0  0  0  0  0  0
   19.4890   -3.7751  -17.7288 C   0  0  1  0  0  0  0  0  0  0  0  0
   18.5237   -3.1472  -16.7817 C   0  0  0  0  0  0  0  0  0  0  0  0
   20.5630   -4.6029  -17.0432 C   0  0  2  0  0  0  0  0  0  0  0  0
   20.0314   -5.6424  -16.2237 N   0  0  0  0  0  0  0  0  0  0  0  0
   21.3901   -3.7122  -16.2093 C   0  0  0  0  0  0  0  0  0  0  0  0
   21.2014   -3.6908  -14.9514 O   0  0  0  0  0  0  0  0  0  0  0  0
   22.3781   -2.8794  -16.7207 O   0  0  0  0  0  0  0  0  0  0  0  0
  1  2  1  0
  2  3  1  0
  3  4  1  1
  5  3  1  0
  5  6  2  0
  7  5  1  0
  8 12  1  0
  8  7  1  0
  8  9  1  1
 10  9  1  0
 10 11  2  0
 12 13  2  0
 14 10  1  0
 16 15  1  6
 16 17  1  0
 18 16  1  0
 19 12  1  0
 18 19  1  1
 20 22  1  0
 20 18  1  0
 21 20  2  0
M  END
$$$$
