SDV.pdb
     RDKit          3D

 22 21  0  0  1  0  0  0  0  0999 V2000
   21.0663   -3.4389  -21.3397 O   0  0  0  0  0  0  0  0  0  0  0  0
   22.2487   -3.6128  -20.5925 C   0  0  0  0  0  0  0  0  0  0  0  0
   22.3272   -5.0809  -20.2336 C   0  0  2  0  0  0  0  0  0  0  0  0
   22.3903   -5.8640  -21.4547 N   0  0  0  0  0  0  0  0  0  0  0  0
   21.1839   -5.5383  -19.4285 C   0  0  0  0  0  0  0  0  0  0  0  0
   20.1650   -6.0436  -19.9599 O   0  0  0  0  0  0  0  0  0  0  0  0
   21.1899   -5.4294  -18.0194 N   0  0  0  0  0  0  0  0  0  0  0  0
   20.0970   -5.9046  -17.1866 C   0  0  1  0  0  0  0  0  0  0  0  0
   20.8198   -6.5155  -15.9594 C   0  0  0  0  0  0  0  0  0  0  0  0
   19.8960   -7.1405  -15.0203 C   0  0  0  0  0  0  0  0  0  0  0  0
   19.2179   -8.1598  -15.2895 O   0  0  0  0  0  0  0  0  0  0  0  0
   19.3455   -4.7240  -16.6970 C   0  0  0  0  0  0  0  0  0  0  0  0
   19.9246   -3.6058  -16.5279 O   0  0  0  0  0  0  0  0  0  0  0  0
   19.7671   -6.5623  -13.7534 O   0  0  0  0  0  0  0  0  0  0  0  0
   14.8465   -2.6998  -16.1636 C   0  0  0  0  0  0  0  0  0  0  0  0
   15.7944   -3.7425  -16.7733 C   0  0  1  0  0  0  0  0  0  0  0  0
   15.9489   -3.5525  -18.2441 C   0  0  0  0  0  0  0  0  0  0  0  0
   17.1127   -3.7402  -16.0177 C   0  0  2  0  0  0  0  0  0  0  0  0
   17.9833   -4.8012  -16.4067 N   0  0  0  0  0  0  0  0  0  0  0  0
   16.8342   -3.8546  -14.5748 C   0  0  0  0  0  0  0  0  0  0  0  0
   16.6349   -5.0063  -14.0726 O   0  0  0  0  0  0  0  0  0  0  0  0
   16.7729   -2.7643  -13.7153 O   0  0  0  0  0  0  0  0  0  0  0  0
  1  2  1  0
  2  3  1  0
  3  4  1  6
  5  3  1  0
  5  6  2  0
  7  5  1  0
  8 12  1  0
  8  7  1  0
  8  9  1  1
 10  9  1  0
 10 11  2  0
 12 13  2  0
 14 10  1  0
 16 15  1  1
 16 17  1  0
 18 16  1  0
 19 12  1  0
 18 19  1  6
 20 22  1  0
 20 18  1  0
 21 20  2  0
M  END
$$$$
