SDV.pdb
     RDKit          3D

 22 21  0  0  1  0  0  0  0  0999 V2000
   16.9037  -13.3115  -14.3238 O   0  0  0  0  0  0  0  0  0  0  0  0
   17.8124  -12.3029  -14.7030 C   0  0  0  0  0  0  0  0  0  0  0  0
   17.2075  -11.5957  -15.8964 C   0  0  2  0  0  0  0  0  0  0  0  0
   17.2856  -12.4691  -17.0538 N   0  0  0  0  0  0  0  0  0  0  0  0
   17.8749  -10.3225  -16.2099 C   0  0  0  0  0  0  0  0  0  0  0  0
   18.9029  -10.2779  -16.9288 O   0  0  0  0  0  0  0  0  0  0  0  0
   17.3802   -9.0948  -15.7145 N   0  0  0  0  0  0  0  0  0  0  0  0
   18.0304   -7.8203  -15.9728 C   0  0  1  0  0  0  0  0  0  0  0  0
   16.8861   -6.7906  -15.7944 C   0  0  0  0  0  0  0  0  0  0  0  0
   17.3406   -5.4151  -15.9605 C   0  0  0  0  0  0  0  0  0  0  0  0
   18.0726   -5.0363  -16.9049 O   0  0  0  0  0  0  0  0  0  0  0  0
   19.0040   -7.5718  -14.8826 C   0  0  0  0  0  0  0  0  0  0  0  0
   18.7335   -7.8865  -13.6817 O   0  0  0  0  0  0  0  0  0  0  0  0
   16.9321   -4.4762  -15.0078 O   0  0  0  0  0  0  0  0  0  0  0  0
   22.2655   -9.1177  -14.4348 C   0  0  0  0  0  0  0  0  0  0  0  0
   22.5594   -7.6203  -14.6048 C   0  0  1  0  0  0  0  0  0  0  0  0
   23.0829   -7.3133  -15.9667 C   0  0  0  0  0  0  0  0  0  0  0  0
   21.3296   -6.8110  -14.2289 C   0  0  2  0  0  0  0  0  0  0  0  0
   20.2442   -6.9864  -15.1377 N   0  0  0  0  0  0  0  0  0  0  0  0
   21.6938   -5.3833  -14.1886 C   0  0  0  0  0  0  0  0  0  0  0  0
   21.2519   -4.6063  -15.0939 O   0  0  0  0  0  0  0  0  0  0  0  0
   22.5047   -4.8245  -13.2080 O   0  0  0  0  0  0  0  0  0  0  0  0
  1  2  1  0
  2  3  1  0
  3  4  1  6
  5  3  1  0
  5  6  2  0
  7  5  1  0
  8 12  1  0
  8  7  1  0
  8  9  1  1
 10  9  1  0
 10 11  2  0
 12 13  2  0
 14 10  1  0
 16 15  1  6
 16 17  1  0
 18 16  1  0
 19 12  1  0
 18 19  1  6
 20 22  1  0
 20 18  1  0
 21 20  2  0
M  END
$$$$
