SDV.pdb
     RDKit          3D

 22 21  0  0  1  0  0  0  0  0999 V2000
   16.1806  -13.3052  -16.0212 O   0  0  0  0  0  0  0  0  0  0  0  0
   17.0160  -12.1753  -16.1309 C   0  0  0  0  0  0  0  0  0  0  0  0
   17.2189  -11.9234  -17.6093 C   0  0  2  0  0  0  0  0  0  0  0  0
   17.9579  -13.0345  -18.1817 N   0  0  0  0  0  0  0  0  0  0  0  0
   17.9420  -10.6724  -17.8860 C   0  0  0  0  0  0  0  0  0  0  0  0
   18.1324  -10.2680  -19.0590 O   0  0  0  0  0  0  0  0  0  0  0  0
   18.4494   -9.8723  -16.8372 N   0  0  0  0  0  0  0  0  0  0  0  0
   19.1308   -8.6088  -17.0676 C   0  0  1  0  0  0  0  0  0  0  0  0
   17.9904   -7.6635  -17.5233 C   0  0  0  0  0  0  0  0  0  0  0  0
   18.4460   -6.2926  -17.7212 C   0  0  0  0  0  0  0  0  0  0  0  0
   19.6324   -5.9882  -17.9881 O   0  0  0  0  0  0  0  0  0  0  0  0
   19.6114   -8.1009  -15.7602 C   0  0  0  0  0  0  0  0  0  0  0  0
   18.8339   -8.0425  -14.7569 O   0  0  0  0  0  0  0  0  0  0  0  0
   17.4993   -5.2699  -17.6038 O   0  0  0  0  0  0  0  0  0  0  0  0
   22.1851   -9.8540  -13.9168 C   0  0  0  0  0  0  0  0  0  0  0  0
   22.7582   -8.4475  -14.1420 C   0  0  1  0  0  0  0  0  0  0  0  0
   23.7778   -8.4363  -15.2298 C   0  0  0  0  0  0  0  0  0  0  0  0
   21.6235   -7.4610  -14.3614 C   0  0  2  0  0  0  0  0  0  0  0  0
   20.9275   -7.6716  -15.5887 N   0  0  0  0  0  0  0  0  0  0  0  0
   22.1736   -6.0935  -14.3521 C   0  0  0  0  0  0  0  0  0  0  0  0
   22.2963   -5.4686  -15.4534 O   0  0  0  0  0  0  0  0  0  0  0  0
   22.5748   -5.4346  -13.1962 O   0  0  0  0  0  0  0  0  0  0  0  0
  1  2  1  0
  2  3  1  0
  3  4  1  1
  5  3  1  0
  5  6  2  0
  7  5  1  0
  8 12  1  0
  8  7  1  0
  8  9  1  1
 10  9  1  0
 10 11  2  0
 12 13  2  0
 14 10  1  0
 16 15  1  6
 16 17  1  0
 18 16  1  0
 19 12  1  0
 18 19  1  6
 20 22  1  0
 20 18  1  0
 21 20  2  0
M  END
$$$$
