SDV.pdb
     RDKit          3D

 22 21  0  0  1  0  0  0  0  0999 V2000
   16.8631  -10.2713  -18.7067 O   0  0  0  0  0  0  0  0  0  0  0  0
   16.9191   -9.1111  -17.9082 C   0  0  0  0  0  0  0  0  0  0  0  0
   17.8641   -9.4123  -16.7652 C   0  0  2  0  0  0  0  0  0  0  0  0
   17.2835  -10.4501  -15.9320 N   0  0  0  0  0  0  0  0  0  0  0  0
   18.1541   -8.2344  -15.9327 C   0  0  0  0  0  0  0  0  0  0  0  0
   17.4045   -7.8988  -14.9834 O   0  0  0  0  0  0  0  0  0  0  0  0
   19.2946   -7.4337  -16.1684 N   0  0  0  0  0  0  0  0  0  0  0  0
   19.6821   -6.3364  -15.2968 C   0  0  1  0  0  0  0  0  0  0  0  0
   21.1146   -6.7222  -14.8487 C   0  0  0  0  0  0  0  0  0  0  0  0
   21.1179   -7.7055  -13.7720 C   0  0  0  0  0  0  0  0  0  0  0  0
   20.4517   -7.5810  -12.7175 O   0  0  0  0  0  0  0  0  0  0  0  0
   19.8074   -5.1134  -16.1256 C   0  0  0  0  0  0  0  0  0  0  0  0
   20.3923   -5.1462  -17.2532 O   0  0  0  0  0  0  0  0  0  0  0  0
   21.9119   -8.8451  -13.9353 O   0  0  0  0  0  0  0  0  0  0  0  0
   16.7297   -2.8225  -16.8429 C   0  0  0  0  0  0  0  0  0  0  0  0
   17.8598   -1.9688  -16.2499 C   0  0  1  0  0  0  0  0  0  0  0  0
   17.5803   -1.5920  -14.8346 C   0  0  0  0  0  0  0  0  0  0  0  0
   19.1905   -2.6772  -16.4396 C   0  0  2  0  0  0  0  0  0  0  0  0
   19.2899   -3.8910  -15.6970 N   0  0  0  0  0  0  0  0  0  0  0  0
   20.2755   -1.7709  -16.0223 C   0  0  0  0  0  0  0  0  0  0  0  0
   20.5624   -0.7710  -16.7545 O   0  0  0  0  0  0  0  0  0  0  0  0
   21.0180   -1.9452  -14.8605 O   0  0  0  0  0  0  0  0  0  0  0  0
  1  2  1  0
  2  3  1  0
  3  4  1  1
  5  3  1  0
  5  6  2  0
  7  5  1  0
  8 12  1  0
  8  7  1  0
  8  9  1  6
 10  9  1  0
 10 11  2  0
 12 13  2  0
 14 10  1  0
 16 15  1  1
 16 17  1  0
 18 16  1  0
 19 12  1  0
 18 19  1  1
 20 22  1  0
 20 18  1  0
 21 20  2  0
M  END
$$$$
