YPW.pdb
     RDKit          3D

 34 37  0  0  1  0  0  0  0  0999 V2000
    7.5116  -12.2199   17.0675 O   0  0  0  0  0  0  0  0  0  0  0  0
    7.6387  -12.9084   18.2412 C   0  0  0  0  0  0  0  0  0  0  0  0
    8.8578  -13.0543   18.8607 C   0  0  0  0  0  0  0  0  0  0  0  0
    8.9535  -13.7572   20.0494 C   0  0  0  0  0  0  0  0  0  0  0  0
    7.8528  -14.3267   20.6492 C   0  0  0  0  0  0  0  0  0  0  0  0
    7.9738  -15.0725   21.9169 C   0  0  0  0  0  0  0  0  0  0  0  0
    8.3350  -16.5314   21.5982 C   0  0  2  0  0  0  0  0  0  0  0  0
    7.1924  -17.1550   20.9345 N   0  0  0  0  0  0  0  0  0  0  0  0
    8.6692  -17.2913   22.8334 C   0  0  0  0  0  0  0  0  0  0  0  0
    7.7226  -17.6473   23.5803 O   0  0  0  0  0  0  0  0  0  0  0  0
    6.6462  -14.1751   20.0241 C   0  0  0  0  0  0  0  0  0  0  0  0
    6.5039  -13.4837   18.8391 C   0  0  0  0  0  0  0  0  0  0  0  0
    9.9843  -17.6131   23.1728 N   0  0  0  0  0  0  0  0  0  0  0  0
   11.1665  -17.4872   22.3558 C   0  0  0  0  0  0  0  0  0  0  0  0
   12.0385  -18.6556   22.7809 C   0  0  0  0  0  0  0  0  0  0  0  0
   11.4496  -19.1695   24.0656 C   0  0  0  0  0  0  0  0  0  0  0  0
   10.4415  -18.1441   24.4406 C   0  0  1  0  0  0  0  0  0  0  0  0
   10.9564  -17.0967   25.3302 C   0  0  0  0  0  0  0  0  0  0  0  0
   12.2064  -17.0083   25.4732 O   0  0  0  0  0  0  0  0  0  0  0  0
   10.1744  -16.1702   26.0487 N   0  0  0  0  0  0  0  0  0  0  0  0
   10.1147  -16.2049   27.5124 C   0  0  1  0  0  0  0  0  0  0  0  0
    8.7026  -16.2782   27.9663 C   0  0  0  0  0  0  0  0  0  0  0  0
    7.7996  -15.4473   27.1684 C   0  0  0  0  0  0  0  0  0  0  0  0
    6.6728  -15.9629   26.5395 C   0  0  0  0  0  0  0  0  0  0  0  0
    6.0559  -14.9936   25.8547 N   0  0  0  0  0  0  0  0  0  0  0  0
    6.7746  -13.8449   26.0366 C   0  0  0  0  0  0  0  0  0  0  0  0
    6.5327  -12.5608   25.5556 C   0  0  0  0  0  0  0  0  0  0  0  0
    7.4087  -11.5848   25.9212 C   0  0  0  0  0  0  0  0  0  0  0  0
    8.5048  -11.8506   26.7443 C   0  0  0  0  0  0  0  0  0  0  0  0
    8.7327  -13.1148   27.2103 C   0  0  0  0  0  0  0  0  0  0  0  0
    7.8510  -14.1167   26.8439 C   0  0  0  0  0  0  0  0  0  0  0  0
   10.9572  -17.2741   28.0526 C   0  0  0  0  0  0  0  0  0  0  0  0
   11.9469  -17.0928   29.0040 O   0  0  0  0  0  0  0  0  0  0  0  0
   10.8281  -18.4865   27.6576 O   0  0  0  0  0  0  0  0  0  0  0  0
  2  1  1  0
  3  2  2  0
  4  3  1  0
  5 11  1  0
  5  4  2  0
  6  5  1  0
  7  9  1  0
  7  6  1  0
  7  8  1  1
  9 13  1  0
 10  9  2  0
 11 12  2  0
 12  2  1  0
 13 17  1  0
 13 14  1  0
 14 15  1  0
 16 15  1  0
 17 16  1  0
 17 18  1  1
 18 19  2  0
 18 20  1  0
 20 21  1  0
 21 32  1  0
 21 22  1  6
 23 22  1  0
 23 31  1  0
 24 25  1  0
 24 23  2  0
 25 26  1  0
 26 27  2  0
 26 31  1  0
 27 28  1  0
 28 29  2  0
 30 29  1  0
 31 30  2  0
 32 34  2  0
 32 33  1  0
M  END
$$$$
