YPW.pdb
     RDKit          3D

 34 37  0  0  1  0  0  0  0  0999 V2000
    8.1252  -20.9319   27.4556 O   0  0  0  0  0  0  0  0  0  0  0  0
    7.4609  -20.3118   26.4349 C   0  0  0  0  0  0  0  0  0  0  0  0
    7.5377  -18.9513   26.2490 C   0  0  0  0  0  0  0  0  0  0  0  0
    6.8533  -18.3529   25.2051 C   0  0  0  0  0  0  0  0  0  0  0  0
    6.0836  -19.0817   24.3264 C   0  0  0  0  0  0  0  0  0  0  0  0
    5.3610  -18.4266   23.2189 C   0  0  0  0  0  0  0  0  0  0  0  0
    6.0192  -18.8336   21.8916 C   0  0  2  0  0  0  0  0  0  0  0  0
    6.1933  -20.2844   21.8890 N   0  0  0  0  0  0  0  0  0  0  0  0
    7.3410  -18.1731   21.7150 C   0  0  0  0  0  0  0  0  0  0  0  0
    8.3227  -18.8937   21.4029 O   0  0  0  0  0  0  0  0  0  0  0  0
    6.0147  -20.4333   24.5213 C   0  0  0  0  0  0  0  0  0  0  0  0
    6.6792  -21.0718   25.5475 C   0  0  0  0  0  0  0  0  0  0  0  0
    7.5108  -16.7978   21.8826 N   0  0  0  0  0  0  0  0  0  0  0  0
    6.5579  -15.8431   22.3942 C   0  0  0  0  0  0  0  0  0  0  0  0
    6.8505  -14.5722   21.6162 C   0  0  0  0  0  0  0  0  0  0  0  0
    8.1874  -14.7832   20.9606 C   0  0  0  0  0  0  0  0  0  0  0  0
    8.7026  -16.0333   21.5770 C   0  0  1  0  0  0  0  0  0  0  0  0
    9.5428  -15.8144   22.7601 C   0  0  0  0  0  0  0  0  0  0  0  0
   10.5550  -15.0726   22.6338 O   0  0  0  0  0  0  0  0  0  0  0  0
    9.3213  -16.3632   24.0391 N   0  0  0  0  0  0  0  0  0  0  0  0
   10.1600  -15.9858   25.1798 C   0  0  1  0  0  0  0  0  0  0  0  0
    9.9330  -14.5616   25.5340 C   0  0  0  0  0  0  0  0  0  0  0  0
    8.5204  -14.2410   25.7450 C   0  0  0  0  0  0  0  0  0  0  0  0
    7.5203  -15.2037   25.6822 C   0  0  0  0  0  0  0  0  0  0  0  0
    6.3285  -14.6285   25.8771 N   0  0  0  0  0  0  0  0  0  0  0  0
    6.5470  -13.2929   26.0704 C   0  0  0  0  0  0  0  0  0  0  0  0
    5.6364  -12.2739   26.3375 C   0  0  0  0  0  0  0  0  0  0  0  0
    6.1398  -11.0216   26.5165 C   0  0  0  0  0  0  0  0  0  0  0  0
    7.5093  -10.7611   26.4389 C   0  0  0  0  0  0  0  0  0  0  0  0
    8.3939  -11.7688   26.1758 C   0  0  0  0  0  0  0  0  0  0  0  0
    7.8949  -13.0462   25.9892 C   0  0  0  0  0  0  0  0  0  0  0  0
    9.9702  -16.9039   26.3048 C   0  0  0  0  0  0  0  0  0  0  0  0
   10.7004  -16.8706   27.4810 O   0  0  0  0  0  0  0  0  0  0  0  0
    9.0875  -17.8323   26.2641 O   0  0  0  0  0  0  0  0  0  0  0  0
  2  1  1  0
  3  2  2  0
  4  3  1  0
  5 11  1  0
  5  4  2  0
  6  5  1  0
  7  9  1  0
  7  6  1  0
  7  8  1  1
  9 13  1  0
 10  9  2  0
 11 12  2  0
 12  2  1  0
 13 17  1  0
 13 14  1  0
 14 15  1  0
 16 15  1  0
 17 16  1  0
 17 18  1  1
 18 19  2  0
 18 20  1  0
 20 21  1  0
 21 32  1  0
 21 22  1  1
 23 22  1  0
 23 31  1  0
 24 25  1  0
 24 23  2  0
 25 26  1  0
 26 27  2  0
 26 31  1  0
 27 28  1  0
 28 29  2  0
 30 29  1  0
 31 30  2  0
 32 34  2  0
 32 33  1  0
M  END
$$$$
