YPW.pdb
     RDKit          3D

 34 37  0  0  1  0  0  0  0  0999 V2000
    8.4491  -11.9129   18.4397 O   0  0  0  0  0  0  0  0  0  0  0  0
    7.9614  -12.8421   19.3152 C   0  0  0  0  0  0  0  0  0  0  0  0
    7.5819  -12.4978   20.5914 C   0  0  0  0  0  0  0  0  0  0  0  0
    7.0910  -13.4624   21.4544 C   0  0  0  0  0  0  0  0  0  0  0  0
    6.9638  -14.7804   21.0770 C   0  0  0  0  0  0  0  0  0  0  0  0
    6.4381  -15.7952   22.0106 C   0  0  0  0  0  0  0  0  0  0  0  0
    6.8741  -17.1857   21.5240 C   0  0  2  0  0  0  0  0  0  0  0  0
    5.7151  -18.0744   21.5690 N   0  0  0  0  0  0  0  0  0  0  0  0
    7.9620  -17.7428   22.3730 C   0  0  0  0  0  0  0  0  0  0  0  0
    7.6700  -18.6677   23.1730 O   0  0  0  0  0  0  0  0  0  0  0  0
    7.3443  -15.1107   19.8059 C   0  0  0  0  0  0  0  0  0  0  0  0
    7.8389  -14.1835   18.9126 C   0  0  0  0  0  0  0  0  0  0  0  0
    9.2739  -17.2717   22.3005 N   0  0  0  0  0  0  0  0  0  0  0  0
    9.8021  -16.2514   21.4282 C   0  0  0  0  0  0  0  0  0  0  0  0
   11.2209  -16.7085   21.1376 C   0  0  0  0  0  0  0  0  0  0  0  0
   11.5292  -17.7788   22.1480 C   0  0  0  0  0  0  0  0  0  0  0  0
   10.3941  -17.7148   23.1049 C   0  0  1  0  0  0  0  0  0  0  0  0
   10.6328  -16.8392   24.2581 C   0  0  0  0  0  0  0  0  0  0  0  0
   11.4808  -15.9145   24.1291 O   0  0  0  0  0  0  0  0  0  0  0  0
    9.9956  -16.9374   25.5113 N   0  0  0  0  0  0  0  0  0  0  0  0
   10.6406  -16.4392   26.7290 C   0  0  1  0  0  0  0  0  0  0  0  0
   10.1801  -15.0587   27.0250 C   0  0  0  0  0  0  0  0  0  0  0  0
    8.7590  -14.8544   26.7402 C   0  0  0  0  0  0  0  0  0  0  0  0
    7.8838  -15.9110   26.5193 C   0  0  0  0  0  0  0  0  0  0  0  0
    6.6631  -15.4358   26.2488 N   0  0  0  0  0  0  0  0  0  0  0  0
    6.7370  -14.0715   26.2953 C   0  0  0  0  0  0  0  0  0  0  0  0
    5.7357  -13.1214   26.1119 C   0  0  0  0  0  0  0  0  0  0  0  0
    6.0883  -11.8131   26.2453 C   0  0  0  0  0  0  0  0  0  0  0  0
    7.3952  -11.4312   26.5542 C   0  0  0  0  0  0  0  0  0  0  0  0
    8.3700  -12.3721   26.7317 C   0  0  0  0  0  0  0  0  0  0  0  0
    8.0254  -13.7057   26.5963 C   0  0  0  0  0  0  0  0  0  0  0  0
   10.4547  -17.3680   27.8459 C   0  0  0  0  0  0  0  0  0  0  0  0
    9.6750  -18.5114   27.7985 O   0  0  0  0  0  0  0  0  0  0  0  0
   11.0191  -17.1672   28.9789 O   0  0  0  0  0  0  0  0  0  0  0  0
  2  1  1  0
  3  2  2  0
  4  3  1  0
  5 11  1  0
  5  4  2  0
  6  5  1  0
  7  9  1  0
  7  6  1  0
  7  8  1  1
  9 13  1  0
 10  9  2  0
 11 12  2  0
 12  2  1  0
 13 17  1  0
 13 14  1  0
 14 15  1  0
 16 15  1  0
 17 16  1  0
 17 18  1  1
 18 19  2  0
 18 20  1  0
 20 21  1  0
 21 32  1  0
 21 22  1  1
 23 22  1  0
 23 31  1  0
 24 25  1  0
 24 23  2  0
 25 26  1  0
 26 27  2  0
 26 31  1  0
 27 28  1  0
 28 29  2  0
 30 29  1  0
 31 30  2  0
 32 34  2  0
 32 33  1  0
M  END
$$$$
