YPW.pdb
     RDKit          3D

 34 37  0  0  1  0  0  0  0  0999 V2000
    7.1664  -16.3647   27.3625 O   0  0  0  0  0  0  0  0  0  0  0  0
    6.9754  -17.1318   26.2477 C   0  0  0  0  0  0  0  0  0  0  0  0
    5.7391  -17.2447   25.6560 C   0  0  0  0  0  0  0  0  0  0  0  0
    5.5782  -18.0294   24.5270 C   0  0  0  0  0  0  0  0  0  0  0  0
    6.6295  -18.7145   23.9605 C   0  0  0  0  0  0  0  0  0  0  0  0
    6.4392  -19.5463   22.7565 C   0  0  0  0  0  0  0  0  0  0  0  0
    6.4871  -18.6388   21.5177 C   0  0  2  0  0  0  0  0  0  0  0  0
    6.4002  -19.4801   20.3261 N   0  0  0  0  0  0  0  0  0  0  0  0
    7.7438  -17.8429   21.4748 C   0  0  0  0  0  0  0  0  0  0  0  0
    8.8262  -18.4595   21.3044 O   0  0  0  0  0  0  0  0  0  0  0  0
    7.8537  -18.5948   24.5576 C   0  0  0  0  0  0  0  0  0  0  0  0
    8.0604  -17.8249   25.6832 C   0  0  0  0  0  0  0  0  0  0  0  0
    7.7469  -16.4541   21.6144 N   0  0  0  0  0  0  0  0  0  0  0  0
    6.6192  -15.5840   21.8425 C   0  0  0  0  0  0  0  0  0  0  0  0
    6.9762  -14.3095   21.0979 C   0  0  0  0  0  0  0  0  0  0  0  0
    8.4443  -14.4060   20.7865 C   0  0  0  0  0  0  0  0  0  0  0  0
    8.9051  -15.5857   21.5637 C   0  0  1  0  0  0  0  0  0  0  0  0
    9.4155  -15.2590   22.9003 C   0  0  0  0  0  0  0  0  0  0  0  0
    9.2796  -14.0733   23.3083 O   0  0  0  0  0  0  0  0  0  0  0  0
   10.0516  -16.1575   23.7802 N   0  0  0  0  0  0  0  0  0  0  0  0
   11.3137  -15.8073   24.4370 C   0  0  1  0  0  0  0  0  0  0  0  0
   11.1468  -14.5704   25.2417 C   0  0  0  0  0  0  0  0  0  0  0  0
    9.9509  -14.5917   26.0854 C   0  0  0  0  0  0  0  0  0  0  0  0
    9.7069  -15.6029   27.0069 C   0  0  0  0  0  0  0  0  0  0  0  0
    8.5318  -15.3894   27.6093 N   0  0  0  0  0  0  0  0  0  0  0  0
    8.0083  -14.2399   27.0863 C   0  0  0  0  0  0  0  0  0  0  0  0
    6.8214  -13.5824   27.3990 C   0  0  0  0  0  0  0  0  0  0  0  0
    6.5585  -12.4241   26.7334 C   0  0  0  0  0  0  0  0  0  0  0  0
    7.4363  -11.9093   25.7775 C   0  0  0  0  0  0  0  0  0  0  0  0
    8.5982  -12.5633   25.4782 C   0  0  0  0  0  0  0  0  0  0  0  0
    8.8763  -13.7433   26.1459 C   0  0  0  0  0  0  0  0  0  0  0  0
   11.8430  -16.9360   25.2055 C   0  0  0  0  0  0  0  0  0  0  0  0
   13.0507  -16.9308   25.8830 O   0  0  0  0  0  0  0  0  0  0  0  0
   11.1985  -18.0402   25.2952 O   0  0  0  0  0  0  0  0  0  0  0  0
  2  1  1  0
  3  2  2  0
  4  3  1  0
  5 11  1  0
  5  4  2  0
  6  5  1  0
  7  9  1  0
  7  6  1  0
  7  8  1  6
  9 13  1  0
 10  9  2  0
 11 12  2  0
 12  2  1  0
 13 17  1  0
 13 14  1  0
 14 15  1  0
 16 15  1  0
 17 16  1  0
 17 18  1  1
 18 19  2  0
 18 20  1  0
 20 21  1  0
 21 32  1  0
 21 22  1  1
 23 22  1  0
 23 31  1  0
 24 25  1  0
 24 23  2  0
 25 26  1  0
 26 27  2  0
 26 31  1  0
 27 28  1  0
 28 29  2  0
 30 29  1  0
 31 30  2  0
 32 34  2  0
 32 33  1  0
M  END
$$$$
