YPW.pdb
     RDKit          3D

 34 37  0  0  1  0  0  0  0  0999 V2000
    7.5636  -21.1205   27.5129 O   0  0  0  0  0  0  0  0  0  0  0  0
    7.0406  -20.4284   26.4569 C   0  0  0  0  0  0  0  0  0  0  0  0
    6.3999  -21.0703   25.4231 C   0  0  0  0  0  0  0  0  0  0  0  0
    5.8804  -20.3406   24.3677 C   0  0  0  0  0  0  0  0  0  0  0  0
    5.9807  -18.9686   24.3118 C   0  0  0  0  0  0  0  0  0  0  0  0
    5.4205  -18.2071   23.1786 C   0  0  0  0  0  0  0  0  0  0  0  0
    6.0726  -18.7049   21.8795 C   0  0  2  0  0  0  0  0  0  0  0  0
    6.2450  -20.1527   21.9754 N   0  0  0  0  0  0  0  0  0  0  0  0
    7.3945  -18.0599   21.6527 C   0  0  0  0  0  0  0  0  0  0  0  0
    8.3570  -18.7932   21.3115 O   0  0  0  0  0  0  0  0  0  0  0  0
    6.6198  -18.3415   25.3451 C   0  0  0  0  0  0  0  0  0  0  0  0
    7.1529  -19.0276   26.4163 C   0  0  0  0  0  0  0  0  0  0  0  0
    7.5847  -16.6856   21.8052 N   0  0  0  0  0  0  0  0  0  0  0  0
    6.6901  -15.7288   22.4095 C   0  0  0  0  0  0  0  0  0  0  0  0
    6.9091  -14.4573   21.6086 C   0  0  0  0  0  0  0  0  0  0  0  0
    8.1743  -14.6713   20.8245 C   0  0  0  0  0  0  0  0  0  0  0  0
    8.7433  -15.9244   21.3851 C   0  0  1  0  0  0  0  0  0  0  0  0
    9.6965  -15.7106   22.4802 C   0  0  0  0  0  0  0  0  0  0  0  0
   10.7131  -15.0019   22.2455 O   0  0  0  0  0  0  0  0  0  0  0  0
    9.5804  -16.2306   23.7850 N   0  0  0  0  0  0  0  0  0  0  0  0
   10.5257  -15.8500   24.8379 C   0  0  1  0  0  0  0  0  0  0  0  0
   10.1487  -14.5343   25.4142 C   0  0  0  0  0  0  0  0  0  0  0  0
    8.7237  -14.4350   25.7338 C   0  0  0  0  0  0  0  0  0  0  0  0
    7.8925  -15.5474   25.7866 C   0  0  0  0  0  0  0  0  0  0  0  0
    6.6418  -15.1624   26.0635 N   0  0  0  0  0  0  0  0  0  0  0  0
    6.6536  -13.8017   26.1949 C   0  0  0  0  0  0  0  0  0  0  0  0
    5.6125  -12.9308   26.5057 C   0  0  0  0  0  0  0  0  0  0  0  0
    5.9170  -11.6072   26.6015 C   0  0  0  0  0  0  0  0  0  0  0  0
    7.2152  -11.1345   26.3999 C   0  0  0  0  0  0  0  0  0  0  0  0
    8.2292  -11.9982   26.0949 C   0  0  0  0  0  0  0  0  0  0  0  0
    7.9325  -13.3462   25.9920 C   0  0  0  0  0  0  0  0  0  0  0  0
   10.6581  -16.9094   25.8403 C   0  0  0  0  0  0  0  0  0  0  0  0
   11.6118  -16.9295   26.8442 O   0  0  0  0  0  0  0  0  0  0  0  0
    9.8734  -17.9227   25.8449 O   0  0  0  0  0  0  0  0  0  0  0  0
  2  1  1  0
  3  2  2  0
  4  3  1  0
  5 11  1  0
  5  4  2  0
  6  5  1  0
  7  9  1  0
  7  6  1  0
  7  8  1  1
  9 13  1  0
 10  9  2  0
 11 12  2  0
 12  2  1  0
 13 17  1  0
 13 14  1  0
 14 15  1  0
 16 15  1  0
 17 16  1  0
 17 18  1  1
 18 19  2  0
 18 20  1  0
 20 21  1  0
 21 32  1  0
 21 22  1  1
 23 22  1  0
 23 31  1  0
 24 25  1  0
 24 23  2  0
 25 26  1  0
 26 27  2  0
 26 31  1  0
 27 28  1  0
 28 29  2  0
 30 29  1  0
 31 30  2  0
 32 34  2  0
 32 33  1  0
M  END
$$$$
