YPW.pdb
     RDKit          3D

 34 37  0  0  1  0  0  0  0  0999 V2000
    7.5895  -16.3893   11.5639 O   0  0  0  0  0  0  0  0  0  0  0  0
    7.7197  -16.4727   12.9218 C   0  0  0  0  0  0  0  0  0  0  0  0
    7.9263  -17.6777   13.5515 C   0  0  0  0  0  0  0  0  0  0  0  0
    8.0547  -17.7289   14.9289 C   0  0  0  0  0  0  0  0  0  0  0  0
    7.9837  -16.5969   15.7094 C   0  0  0  0  0  0  0  0  0  0  0  0
    8.1231  -16.6706   17.1768 C   0  0  0  0  0  0  0  0  0  0  0  0
    9.4043  -15.9291   17.5882 C   0  0  2  0  0  0  0  0  0  0  0  0
   10.5504  -16.6465   17.0343 N   0  0  0  0  0  0  0  0  0  0  0  0
    9.5348  -15.8490   19.0684 C   0  0  0  0  0  0  0  0  0  0  0  0
   10.3513  -16.6223   19.6306 O   0  0  0  0  0  0  0  0  0  0  0  0
    7.7779  -15.4048   15.0722 C   0  0  0  0  0  0  0  0  0  0  0  0
    7.6439  -15.3064   13.7030 C   0  0  0  0  0  0  0  0  0  0  0  0
    8.7871  -14.9504   19.8311 N   0  0  0  0  0  0  0  0  0  0  0  0
    7.6228  -14.2004   19.4276 C   0  0  0  0  0  0  0  0  0  0  0  0
    7.7421  -12.8910   20.1876 C   0  0  0  0  0  0  0  0  0  0  0  0
    8.7828  -13.1185   21.2491 C   0  0  0  0  0  0  0  0  0  0  0  0
    9.0277  -14.5836   21.2116 C   0  0  1  0  0  0  0  0  0  0  0  0
    8.1969  -15.3528   22.1453 C   0  0  0  0  0  0  0  0  0  0  0  0
    6.9590  -15.1121   22.1669 O   0  0  0  0  0  0  0  0  0  0  0  0
    8.6596  -16.3465   23.0312 N   0  0  0  0  0  0  0  0  0  0  0  0
    9.6891  -16.0492   24.0305 C   0  0  1  0  0  0  0  0  0  0  0  0
    9.5516  -14.6495   24.5075 C   0  0  0  0  0  0  0  0  0  0  0  0
    8.2837  -14.3996   25.1949 C   0  0  0  0  0  0  0  0  0  0  0  0
    7.2885  -15.3641   25.2967 C   0  0  0  0  0  0  0  0  0  0  0  0
    6.2321  -14.8551   25.9403 N   0  0  0  0  0  0  0  0  0  0  0  0
    6.5351  -13.5615   26.2622 C   0  0  0  0  0  0  0  0  0  0  0  0
    5.7801  -12.6189   26.9553 C   0  0  0  0  0  0  0  0  0  0  0  0
    6.3472  -11.3985   27.1622 C   0  0  0  0  0  0  0  0  0  0  0  0
    7.6311  -11.0966   26.7040 C   0  0  0  0  0  0  0  0  0  0  0  0
    8.3630  -12.0293   26.0246 C   0  0  0  0  0  0  0  0  0  0  0  0
    7.7970  -13.2731   25.8052 C   0  0  0  0  0  0  0  0  0  0  0  0
    9.6804  -17.0372   25.1115 C   0  0  0  0  0  0  0  0  0  0  0  0
    8.7916  -18.0950   25.2050 O   0  0  0  0  0  0  0  0  0  0  0  0
   10.5229  -16.9760   26.0753 O   0  0  0  0  0  0  0  0  0  0  0  0
  2  1  1  0
  3  2  2  0
  4  3  1  0
  5 11  1  0
  5  4  2  0
  6  5  1  0
  7  9  1  0
  7  6  1  0
  7  8  1  1
  9 13  1  0
 10  9  2  0
 11 12  2  0
 12  2  1  0
 13 17  1  0
 13 14  1  0
 14 15  1  0
 16 15  1  0
 17 16  1  0
 17 18  1  1
 18 19  2  0
 18 20  1  0
 20 21  1  0
 21 32  1  0
 21 22  1  1
 23 22  1  0
 23 31  1  0
 24 25  1  0
 24 23  2  0
 25 26  1  0
 26 27  2  0
 26 31  1  0
 27 28  1  0
 28 29  2  0
 30 29  1  0
 31 30  2  0
 32 34  2  0
 32 33  1  0
M  END
$$$$
