YPW.pdb
     RDKit          3D

 34 37  0  0  1  0  0  0  0  0999 V2000
   13.0273  -21.7811   20.7685 O   0  0  0  0  0  0  0  0  0  0  0  0
   11.9117  -21.0500   20.4705 C   0  0  0  0  0  0  0  0  0  0  0  0
   11.2128  -20.3758   21.4442 C   0  0  0  0  0  0  0  0  0  0  0  0
   10.0866  -19.6434   21.1100 C   0  0  0  0  0  0  0  0  0  0  0  0
    9.6300  -19.5605   19.8138 C   0  0  0  0  0  0  0  0  0  0  0  0
    8.4274  -18.7746   19.4761 C   0  0  0  0  0  0  0  0  0  0  0  0
    8.8690  -17.4130   18.9179 C   0  0  2  0  0  0  0  0  0  0  0  0
    9.9049  -17.6405   17.9128 N   0  0  0  0  0  0  0  0  0  0  0  0
    9.4024  -16.5319   19.9921 C   0  0  0  0  0  0  0  0  0  0  0  0
   10.6297  -16.2598   19.9757 O   0  0  0  0  0  0  0  0  0  0  0  0
   10.3330  -20.2351   18.8544 C   0  0  0  0  0  0  0  0  0  0  0  0
   11.4597  -20.9772   19.1413 C   0  0  0  0  0  0  0  0  0  0  0  0
    8.5856  -16.0095   20.9962 N   0  0  0  0  0  0  0  0  0  0  0  0
    7.1672  -16.2023   21.1746 C   0  0  0  0  0  0  0  0  0  0  0  0
    6.6830  -14.8856   21.7559 C   0  0  0  0  0  0  0  0  0  0  0  0
    7.9155  -14.1489   22.2029 C   0  0  0  0  0  0  0  0  0  0  0  0
    9.0031  -15.1551   22.0889 C   0  0  1  0  0  0  0  0  0  0  0  0
    9.2513  -15.9097   23.3228 C   0  0  0  0  0  0  0  0  0  0  0  0
    8.3459  -16.6886   23.7283 O   0  0  0  0  0  0  0  0  0  0  0  0
   10.4209  -15.8434   24.1064 N   0  0  0  0  0  0  0  0  0  0  0  0
   10.3732  -16.0524   25.5559 C   0  0  1  0  0  0  0  0  0  0  0  0
    9.9797  -14.7957   26.2424 C   0  0  0  0  0  0  0  0  0  0  0  0
    8.5374  -14.5486   26.2046 C   0  0  0  0  0  0  0  0  0  0  0  0
    7.6106  -15.5701   26.0354 C   0  0  0  0  0  0  0  0  0  0  0  0
    6.3757  -15.0570   26.0032 N   0  0  0  0  0  0  0  0  0  0  0  0
    6.4925  -13.7033   26.1540 C   0  0  0  0  0  0  0  0  0  0  0  0
    5.5006  -12.7278   26.2134 C   0  0  0  0  0  0  0  0  0  0  0  0
    5.9045  -11.4412   26.4009 C   0  0  0  0  0  0  0  0  0  0  0  0
    7.2535  -11.1051   26.5306 C   0  0  0  0  0  0  0  0  0  0  0  0
    8.2185  -12.0706   26.4703 C   0  0  0  0  0  0  0  0  0  0  0  0
    7.8214  -13.3823   26.2775 C   0  0  0  0  0  0  0  0  0  0  0  0
    9.5242  -17.1951   25.8996 C   0  0  0  0  0  0  0  0  0  0  0  0
    8.8143  -17.9530   24.9835 O   0  0  0  0  0  0  0  0  0  0  0  0
    9.3772  -17.5726   27.1155 O   0  0  0  0  0  0  0  0  0  0  0  0
  2  1  1  0
  3  2  2  0
  4  3  1  0
  5 11  1  0
  5  4  2  0
  6  5  1  0
  7  9  1  0
  7  6  1  0
  7  8  1  6
  9 13  1  0
 10  9  2  0
 11 12  2  0
 12  2  1  0
 13 17  1  0
 13 14  1  0
 14 15  1  0
 16 15  1  0
 17 16  1  0
 17 18  1  1
 18 19  2  0
 18 20  1  0
 20 21  1  0
 21 32  1  0
 21 22  1  1
 23 22  1  0
 23 31  1  0
 24 25  1  0
 24 23  2  0
 25 26  1  0
 26 27  2  0
 26 31  1  0
 27 28  1  0
 28 29  2  0
 30 29  1  0
 31 30  2  0
 32 34  2  0
 32 33  1  0
M  END
$$$$
