YPW.pdb
     RDKit          3D

 34 37  0  0  1  0  0  0  0  0999 V2000
    6.4440  -11.0259   27.2085 O   0  0  0  0  0  0  0  0  0  0  0  0
    6.7137  -12.3160   26.8472 C   0  0  0  0  0  0  0  0  0  0  0  0
    7.8700  -12.6494   26.1814 C   0  0  0  0  0  0  0  0  0  0  0  0
    8.1143  -13.9657   25.8296 C   0  0  0  0  0  0  0  0  0  0  0  0
    7.2274  -14.9757   26.1276 C   0  0  0  0  0  0  0  0  0  0  0  0
    7.5047  -16.3737   25.7448 C   0  0  0  0  0  0  0  0  0  0  0  0
    6.5476  -16.7738   24.6114 C   0  0  2  0  0  0  0  0  0  0  0  0
    5.8541  -17.9985   25.0042 N   0  0  0  0  0  0  0  0  0  0  0  0
    7.2802  -17.0033   23.3365 C   0  0  0  0  0  0  0  0  0  0  0  0
    7.3479  -18.1802   22.8996 O   0  0  0  0  0  0  0  0  0  0  0  0
    6.0813  -14.6322   26.7896 C   0  0  0  0  0  0  0  0  0  0  0  0
    5.7962  -13.3344   27.1593 C   0  0  0  0  0  0  0  0  0  0  0  0
    7.8798  -15.9609   22.6281 N   0  0  0  0  0  0  0  0  0  0  0  0
    7.8485  -14.5507   22.9305 C   0  0  0  0  0  0  0  0  0  0  0  0
    7.8506  -13.8782   21.5690 C   0  0  0  0  0  0  0  0  0  0  0  0
    8.2410  -14.9412   20.5795 C   0  0  0  0  0  0  0  0  0  0  0  0
    8.6763  -16.0835   21.4243 C   0  0  1  0  0  0  0  0  0  0  0  0
   10.1159  -16.1027   21.7083 C   0  0  0  0  0  0  0  0  0  0  0  0
   10.8349  -15.2212   21.1636 O   0  0  0  0  0  0  0  0  0  0  0  0
   10.7775  -17.0262   22.5425 N   0  0  0  0  0  0  0  0  0  0  0  0
   11.8700  -16.6031   23.4225 C   0  0  1  0  0  0  0  0  0  0  0  0
   11.4699  -15.3989   24.1939 C   0  0  0  0  0  0  0  0  0  0  0  0
   10.8704  -15.7209   25.4899 C   0  0  0  0  0  0  0  0  0  0  0  0
   10.4541  -17.0049   25.8201 C   0  0  0  0  0  0  0  0  0  0  0  0
    9.9148  -17.0028   27.0441 N   0  0  0  0  0  0  0  0  0  0  0  0
    9.9801  -15.7215   27.5164 C   0  0  0  0  0  0  0  0  0  0  0  0
    9.5764  -15.2067   28.7455 C   0  0  0  0  0  0  0  0  0  0  0  0
    9.7895  -13.8798   28.9640 C   0  0  0  0  0  0  0  0  0  0  0  0
   10.3879  -13.0628   28.0028 C   0  0  0  0  0  0  0  0  0  0  0  0
   10.7798  -13.5786   26.7997 C   0  0  0  0  0  0  0  0  0  0  0  0
   10.5665  -14.9256   26.5639 C   0  0  0  0  0  0  0  0  0  0  0  0
   12.3313  -17.7087   24.2648 C   0  0  0  0  0  0  0  0  0  0  0  0
   13.5627  -17.7575   24.8963 O   0  0  0  0  0  0  0  0  0  0  0  0
   11.5975  -18.7391   24.4707 O   0  0  0  0  0  0  0  0  0  0  0  0
  2  1  1  0
  3  2  2  0
  4  3  1  0
  5 11  1  0
  5  4  2  0
  6  5  1  0
  7  9  1  0
  7  6  1  0
  7  8  1  1
  9 13  1  0
 10  9  2  0
 11 12  2  0
 12  2  1  0
 13 17  1  0
 13 14  1  0
 14 15  1  0
 16 15  1  0
 17 16  1  0
 17 18  1  1
 18 19  2  0
 18 20  1  0
 20 21  1  0
 21 32  1  0
 21 22  1  1
 23 22  1  0
 23 31  1  0
 24 25  1  0
 24 23  2  0
 25 26  1  0
 26 27  2  0
 26 31  1  0
 27 28  1  0
 28 29  2  0
 30 29  1  0
 31 30  2  0
 32 34  2  0
 32 33  1  0
M  END
$$$$
