YPW.pdb
     RDKit          3D

 34 37  0  0  1  0  0  0  0  0999 V2000
   -0.2060  -20.1976   21.3391 O   0  0  0  0  0  0  0  0  0  0  0  0
    1.0366  -19.6364   21.4319 C   0  0  0  0  0  0  0  0  0  0  0  0
    1.5479  -18.8513   20.4251 C   0  0  0  0  0  0  0  0  0  0  0  0
    2.8101  -18.2967   20.5495 C   0  0  0  0  0  0  0  0  0  0  0  0
    3.5895  -18.5033   21.6654 C   0  0  0  0  0  0  0  0  0  0  0  0
    4.9330  -17.9035   21.7807 C   0  0  0  0  0  0  0  0  0  0  0  0
    5.6897  -18.1321   20.4632 C   0  0  2  0  0  0  0  0  0  0  0  0
    5.6977  -19.5652   20.1786 N   0  0  0  0  0  0  0  0  0  0  0  0
    7.0893  -17.6331   20.5463 C   0  0  0  0  0  0  0  0  0  0  0  0
    8.0202  -18.4750   20.4749 O   0  0  0  0  0  0  0  0  0  0  0  0
    3.0708  -19.2855   22.6596 C   0  0  0  0  0  0  0  0  0  0  0  0
    1.8188  -19.8586   22.5787 C   0  0  0  0  0  0  0  0  0  0  0  0
    7.3852  -16.2773   20.6963 N   0  0  0  0  0  0  0  0  0  0  0  0
    6.4610  -15.1737   20.7906 C   0  0  0  0  0  0  0  0  0  0  0  0
    7.1816  -14.0256   20.1059 C   0  0  0  0  0  0  0  0  0  0  0  0
    8.6177  -14.4524   19.9769 C   0  0  0  0  0  0  0  0  0  0  0  0
    8.7054  -15.6895   20.7955 C   0  0  1  0  0  0  0  0  0  0  0  0
    9.1091  -15.4580   22.1873 C   0  0  0  0  0  0  0  0  0  0  0  0
    8.3840  -14.7048   22.8927 O   0  0  0  0  0  0  0  0  0  0  0  0
   10.2457  -16.0051   22.8159 N   0  0  0  0  0  0  0  0  0  0  0  0
   10.4362  -15.8938   24.2645 C   0  0  1  0  0  0  0  0  0  0  0  0
    9.2716  -16.4735   24.9807 C   0  0  0  0  0  0  0  0  0  0  0  0
    9.4419  -16.4894   26.4344 C   0  0  0  0  0  0  0  0  0  0  0  0
    9.7079  -17.6561   27.1409 C   0  0  0  0  0  0  0  0  0  0  0  0
    9.7787  -17.3846   28.4487 N   0  0  0  0  0  0  0  0  0  0  0  0
    9.5628  -16.0430   28.5990 C   0  0  0  0  0  0  0  0  0  0  0  0
    9.5601  -15.2684   29.7560 C   0  0  0  0  0  0  0  0  0  0  0  0
    9.3425  -13.9325   29.6092 C   0  0  0  0  0  0  0  0  0  0  0  0
    9.1314  -13.3548   28.3557 C   0  0  0  0  0  0  0  0  0  0  0  0
    9.1357  -14.1248   27.2268 C   0  0  0  0  0  0  0  0  0  0  0  0
    9.3533  -15.4848   27.3625 C   0  0  0  0  0  0  0  0  0  0  0  0
   11.7190  -16.4676   24.6766 C   0  0  0  0  0  0  0  0  0  0  0  0
   12.1616  -17.7345   24.3349 O   0  0  0  0  0  0  0  0  0  0  0  0
   12.5370  -15.8089   25.4111 O   0  0  0  0  0  0  0  0  0  0  0  0
  2  1  1  0
  3  2  2  0
  4  3  1  0
  5 11  1  0
  5  4  2  0
  6  5  1  0
  7  9  1  0
  7  6  1  0
  7  8  1  1
  9 13  1  0
 10  9  2  0
 11 12  2  0
 12  2  1  0
 13 17  1  0
 13 14  1  0
 14 15  1  0
 16 15  1  0
 17 16  1  0
 17 18  1  1
 18 19  2  0
 18 20  1  0
 20 21  1  0
 21 32  1  0
 21 22  1  1
 23 22  1  0
 23 31  1  0
 24 25  1  0
 24 23  2  0
 25 26  1  0
 26 27  2  0
 26 31  1  0
 27 28  1  0
 28 29  2  0
 30 29  1  0
 31 30  2  0
 32 34  2  0
 32 33  1  0
M  END
$$$$
