SAM.pdb
     RDKit          3D

 20 19  0  0  1  0  0  0  0  0999 V2000
   10.1209  -12.0998   18.5118 O   0  0  0  0  0  0  0  0  0  0  0  0
    9.3000  -12.7077   19.4582 C   0  0  0  0  0  0  0  0  0  0  0  0
    8.7257  -14.0127   18.8894 C   0  0  2  0  0  0  0  0  0  0  0  0
    7.5418  -13.6713   18.1444 N   0  0  0  0  0  0  0  0  0  0  0  0
    8.4154  -14.8623   20.0750 C   0  0  0  0  0  0  0  0  0  0  0  0
    7.3890  -14.5850   20.7381 O   0  0  0  0  0  0  0  0  0  0  0  0
    9.6252  -18.0028   21.6865 C   0  0  0  0  0  0  0  0  0  0  0  0
    8.8107  -16.7173   21.6625 C   0  0  2  0  0  0  0  0  0  0  0  0
    9.2072  -15.9527   20.4885 N   0  0  0  0  0  0  0  0  0  0  0  0
    9.0693  -15.9279   22.8855 C   0  0  0  0  0  0  0  0  0  0  0  0
   10.0993  -15.2203   22.9592 O   0  0  0  0  0  0  0  0  0  0  0  0
    6.6420  -10.6455   26.7548 C   0  0  0  0  0  0  0  0  0  0  0  0
    5.9847  -12.3251   26.9199 S   0  0  0  0  0  0  0  0  0  0  0  0
    7.4008  -13.4720   26.7308 C   0  0  0  0  0  0  0  0  0  0  0  0
    7.3062  -14.2292   25.4465 C   0  0  0  0  0  0  0  0  0  0  0  0
    8.4761  -15.1229   25.1945 C   0  0  2  0  0  0  0  0  0  0  0  0
    8.2042  -15.9219   24.0055 N   0  0  0  0  0  0  0  0  0  0  0  0
    8.8394  -16.0151   26.2937 C   0  0  0  0  0  0  0  0  0  0  0  0
    8.4801  -17.2160   26.2547 O   0  0  0  0  0  0  0  0  0  0  0  0
    9.5713  -15.6454   27.4168 O   0  0  0  0  0  0  0  0  0  0  0  0
  2  1  1  0
  3  2  1  0
  3  5  1  0
  3  4  1  1
  5  6  2  0
  8  7  1  1
  9  8  1  0
  9  5  1  0
 10  8  1  0
 10 11  2  0
 12 13  1  0
 14 13  1  0
 14 15  1  0
 16 15  1  1
 16 17  1  0
 16 18  1  0
 17 10  1  0
 18 19  2  0
 18 20  1  0
M  END
$$$$
