SAM.pdb
     RDKit          3D

 20 19  0  0  1  0  0  0  0  0999 V2000
   12.9096  -17.5289   19.2711 O   0  0  0  0  0  0  0  0  0  0  0  0
   12.2076  -18.0631   20.3485 C   0  0  0  0  0  0  0  0  0  0  0  0
   10.7108  -18.1296   20.0145 C   0  0  2  0  0  0  0  0  0  0  0  0
   10.4577  -17.1558   18.9846 N   0  0  0  0  0  0  0  0  0  0  0  0
   10.0033  -17.7978   21.2846 C   0  0  0  0  0  0  0  0  0  0  0  0
    9.8254  -16.5870   21.5534 O   0  0  0  0  0  0  0  0  0  0  0  0
    8.1158  -19.5699   23.9746 C   0  0  0  0  0  0  0  0  0  0  0  0
    8.7461  -18.3357   23.3455 C   0  0  2  0  0  0  0  0  0  0  0  0
    9.5268  -18.7640   22.1935 N   0  0  0  0  0  0  0  0  0  0  0  0
    9.6248  -17.6585   24.3228 C   0  0  0  0  0  0  0  0  0  0  0  0
   10.1285  -16.5487   24.0371 O   0  0  0  0  0  0  0  0  0  0  0  0
   10.4983  -12.7480   29.3208 C   0  0  0  0  0  0  0  0  0  0  0  0
    9.7119  -13.6559   27.9652 S   0  0  0  0  0  0  0  0  0  0  0  0
   10.3927  -15.3564   27.9979 C   0  0  0  0  0  0  0  0  0  0  0  0
    9.8663  -16.1639   26.8565 C   0  0  0  0  0  0  0  0  0  0  0  0
   10.6286  -17.4260   26.6184 C   0  0  2  0  0  0  0  0  0  0  0  0
    9.9399  -18.1994   25.5919 N   0  0  0  0  0  0  0  0  0  0  0  0
   10.8350  -18.2719   27.7922 C   0  0  0  0  0  0  0  0  0  0  0  0
   11.8947  -18.1576   28.4532 O   0  0  0  0  0  0  0  0  0  0  0  0
    9.9364  -19.2236   28.2617 O   0  0  0  0  0  0  0  0  0  0  0  0
  2  1  1  0
  3  2  1  0
  3  5  1  0
  3  4  1  6
  5  6  2  0
  8  7  1  1
  9  8  1  0
  9  5  1  0
 10  8  1  0
 10 11  2  0
 12 13  1  0
 14 13  1  0
 14 15  1  0
 16 15  1  1
 16 17  1  0
 16 18  1  0
 17 10  1  0
 18 19  2  0
 18 20  1  0
M  END
$$$$
