SAM.pdb
     RDKit          3D

 20 19  0  0  1  0  0  0  0  0999 V2000
    5.6941  -17.5096   23.1685 O   0  0  0  0  0  0  0  0  0  0  0  0
    5.7115  -18.4437   22.1359 C   0  0  0  0  0  0  0  0  0  0  0  0
    5.6138  -17.7266   20.7821 C   0  0  2  0  0  0  0  0  0  0  0  0
    5.6814  -18.7353   19.7568 N   0  0  0  0  0  0  0  0  0  0  0  0
    6.7826  -16.8017   20.7352 C   0  0  0  0  0  0  0  0  0  0  0  0
    7.9078  -17.2963   20.4922 O   0  0  0  0  0  0  0  0  0  0  0  0
    7.4803  -13.2433   20.2459 C   0  0  0  0  0  0  0  0  0  0  0  0
    7.8892  -14.5914   20.8218 C   0  0  2  0  0  0  0  0  0  0  0  0
    6.6924  -15.4111   20.9477 N   0  0  0  0  0  0  0  0  0  0  0  0
    8.5141  -14.4095   22.1494 C   0  0  0  0  0  0  0  0  0  0  0  0
    9.5984  -13.7912   22.2436 O   0  0  0  0  0  0  0  0  0  0  0  0
    6.9412  -11.2790   27.5555 C   0  0  0  0  0  0  0  0  0  0  0  0
    5.8749  -12.3410   26.5477 S   0  0  0  0  0  0  0  0  0  0  0  0
    6.9153  -13.0124   25.1975 C   0  0  0  0  0  0  0  0  0  0  0  0
    7.6196  -14.2554   25.6344 C   0  0  0  0  0  0  0  0  0  0  0  0
    8.6138  -14.7576   24.6394 C   0  0  2  0  0  0  0  0  0  0  0  0
    7.9493  -14.9026   23.3496 N   0  0  0  0  0  0  0  0  0  0  0  0
    9.2693  -16.0185   24.9807 C   0  0  0  0  0  0  0  0  0  0  0  0
    9.0308  -17.0405   24.2941 O   0  0  0  0  0  0  0  0  0  0  0  0
   10.1635  -16.1979   26.0305 O   0  0  0  0  0  0  0  0  0  0  0  0
  2  1  1  0
  3  2  1  0
  3  5  1  0
  3  4  1  6
  5  6  2  0
  8  7  1  1
  9  8  1  0
  9  5  1  0
 10  8  1  0
 10 11  2  0
 12 13  1  0
 14 13  1  0
 14 15  1  0
 16 15  1  1
 16 17  1  0
 16 18  1  0
 17 10  1  0
 18 19  2  0
 18 20  1  0
M  END
$$$$
