SAM.pdb
     RDKit          3D

 20 19  0  0  1  0  0  0  0  0999 V2000
    7.9072  -12.0235   19.6192 O   0  0  0  0  0  0  0  0  0  0  0  0
    8.0132  -12.9991   20.6072 C   0  0  0  0  0  0  0  0  0  0  0  0
    7.9994  -14.3940   19.9664 C   0  0  2  0  0  0  0  0  0  0  0  0
    6.6440  -14.6681   19.5653 N   0  0  0  0  0  0  0  0  0  0  0  0
    8.4675  -15.3270   21.0314 C   0  0  0  0  0  0  0  0  0  0  0  0
    7.6060  -16.0263   21.6134 O   0  0  0  0  0  0  0  0  0  0  0  0
   11.7035  -16.8872   21.8949 C   0  0  0  0  0  0  0  0  0  0  0  0
   10.2262  -16.6435   22.1677 C   0  0  2  0  0  0  0  0  0  0  0  0
    9.8162  -15.4651   21.4171 N   0  0  0  0  0  0  0  0  0  0  0  0
   10.0054  -16.4194   23.6123 C   0  0  0  0  0  0  0  0  0  0  0  0
   10.4379  -17.2521   24.4409 O   0  0  0  0  0  0  0  0  0  0  0  0
    6.1704  -11.0581   26.1559 C   0  0  0  0  0  0  0  0  0  0  0  0
    6.0443  -12.8222   26.5462 S   0  0  0  0  0  0  0  0  0  0  0  0
    7.0845  -13.7124   25.3289 C   0  0  0  0  0  0  0  0  0  0  0  0
    8.5126  -13.7400   25.7664 C   0  0  0  0  0  0  0  0  0  0  0  0
    9.1727  -15.0641   25.5619 C   0  0  2  0  0  0  0  0  0  0  0  0
    9.3192  -15.2952   24.1296 N   0  0  0  0  0  0  0  0  0  0  0  0
    8.4918  -16.2101   26.1610 C   0  0  0  0  0  0  0  0  0  0  0  0
    7.7240  -16.9066   25.4551 O   0  0  0  0  0  0  0  0  0  0  0  0
    8.6197  -16.6153   27.4851 O   0  0  0  0  0  0  0  0  0  0  0  0
  2  1  1  0
  3  2  1  0
  3  5  1  0
  3  4  1  1
  5  6  2  0
  8  7  1  1
  9  8  1  0
  9  5  1  0
 10  8  1  0
 10 11  2  0
 12 13  1  0
 14 13  1  0
 14 15  1  0
 16 15  1  6
 16 17  1  0
 16 18  1  0
 17 10  1  0
 18 19  2  0
 18 20  1  0
M  END
$$$$
