SAM.pdb
     RDKit          3D

 20 19  0  0  1  0  0  0  0  0999 V2000
    6.0642  -19.7014   22.1508 O   0  0  0  0  0  0  0  0  0  0  0  0
    6.0735  -18.3286   21.9176 C   0  0  0  0  0  0  0  0  0  0  0  0
    6.5639  -18.0452   20.4909 C   0  0  2  0  0  0  0  0  0  0  0  0
    7.2163  -19.2380   20.0169 N   0  0  0  0  0  0  0  0  0  0  0  0
    7.5116  -16.9004   20.6147 C   0  0  0  0  0  0  0  0  0  0  0  0
    8.7109  -17.1614   20.8663 O   0  0  0  0  0  0  0  0  0  0  0  0
    7.5742  -13.2345   19.9577 C   0  0  0  0  0  0  0  0  0  0  0  0
    8.1547  -14.5132   20.5441 C   0  0  2  0  0  0  0  0  0  0  0  0
    7.1356  -15.5502   20.4655 N   0  0  0  0  0  0  0  0  0  0  0  0
    8.5416  -14.2967   21.9545 C   0  0  0  0  0  0  0  0  0  0  0  0
    9.4448  -13.4746   22.2294 O   0  0  0  0  0  0  0  0  0  0  0  0
    6.8523  -11.0481   27.7467 C   0  0  0  0  0  0  0  0  0  0  0  0
    5.9739  -12.4713   27.0515 S   0  0  0  0  0  0  0  0  0  0  0  0
    7.2487  -13.6601   26.4875 C   0  0  0  0  0  0  0  0  0  0  0  0
    7.0616  -13.9983   25.0444 C   0  0  0  0  0  0  0  0  0  0  0  0
    8.2518  -14.6570   24.4279 C   0  0  2  0  0  0  0  0  0  0  0  0
    7.9402  -14.9771   23.0399 N   0  0  0  0  0  0  0  0  0  0  0  0
    8.7251  -15.8657   25.0996 C   0  0  0  0  0  0  0  0  0  0  0  0
    8.4971  -16.9853   24.5825 O   0  0  0  0  0  0  0  0  0  0  0  0
    9.4288  -15.8923   26.2987 O   0  0  0  0  0  0  0  0  0  0  0  0
  2  1  1  0
  3  2  1  0
  3  5  1  0
  3  4  1  1
  5  6  2  0
  8  7  1  1
  9  8  1  0
  9  5  1  0
 10  8  1  0
 10 11  2  0
 12 13  1  0
 14 13  1  0
 14 15  1  0
 16 15  1  1
 16 17  1  0
 16 18  1  0
 17 10  1  0
 18 19  2  0
 18 20  1  0
M  END
$$$$
