QRH.pdb
     RDKit          3D

 31 31  0  0  1  0  0  0  0  0999 V2000
   33.2631  -28.1619  -18.0926 N   0  0  0  0  0  0  0  0  0  0  0  0
   33.7720  -29.3818  -18.6335 C   0  0  0  0  0  0  0  0  0  0  0  0
   35.0029  -29.5849  -18.6055 O   0  0  0  0  0  0  0  0  0  0  0  0
   32.8672  -30.4002  -19.2224 C   0  0  0  0  0  0  0  0  0  0  0  0
   31.4446  -30.0053  -18.9665 C   0  0  0  0  0  0  0  0  0  0  0  0
   30.4554  -30.9990  -19.5435 C   0  0  2  0  0  0  0  0  0  0  0  0
   30.4357  -30.9792  -20.9770 N   0  0  0  0  0  0  0  0  0  0  0  0
   29.1052  -30.5322  -19.0649 C   0  0  0  0  0  0  0  0  0  0  0  0
   28.4433  -29.6895  -19.7173 O   0  0  0  0  0  0  0  0  0  0  0  0
   24.3902  -34.4992  -13.0143 N   0  0  0  0  0  0  0  0  0  0  0  0
   23.7846  -34.2827  -14.2804 C   0  0  0  0  0  0  0  0  0  0  0  0
   22.7815  -35.0161  -14.6598 N   0  0  0  0  0  0  0  0  0  0  0  0
   24.2753  -33.2628  -15.1387 N   0  0  0  0  0  0  0  0  0  0  0  0
   25.0588  -32.1703  -14.6069 C   0  0  0  0  0  0  0  0  0  0  0  0
   25.4802  -31.2198  -15.7025 C   0  0  0  0  0  0  0  0  0  0  0  0
   26.7964  -31.5973  -16.3314 C   0  0  0  0  0  0  0  0  0  0  0  0
   27.2525  -30.6515  -17.3515 C   0  0  2  0  0  0  0  0  0  0  0  0
   28.5450  -31.0339  -17.8631 N   0  0  0  0  0  0  0  0  0  0  0  0
   27.3071  -29.2376  -16.9382 C   0  0  0  0  0  0  0  0  0  0  0  0
   28.2115  -28.8916  -16.1407 O   0  0  0  0  0  0  0  0  0  0  0  0
   22.3072  -34.8988  -15.5655 N   0  0  0  0  0  0  0  0  0  0  0  0
   26.4069  -28.2503  -17.3835 C   0  0  2  0  0  0  0  0  0  0  0  0
   26.4773  -26.8352  -16.9891 C   0  0  0  0  0  0  0  0  0  0  0  0
   26.6072  -25.9442  -18.1615 C   0  0  0  0  0  0  0  0  0  0  0  0
   26.5732  -24.5230  -17.7684 C   0  0  0  0  0  0  0  0  0  0  0  0
   26.6629  -23.9364  -16.5294 N   0  0  0  0  0  0  0  0  0  0  0  0
   26.6857  -22.5957  -16.6565 C   0  0  0  0  0  0  0  0  0  0  0  0
   26.6136  -22.3095  -17.9591 N   0  0  0  0  0  0  0  0  0  0  0  0
   26.5458  -23.4591  -18.6410 C   0  0  0  0  0  0  0  0  0  0  0  0
   25.1703  -26.5085  -16.3297 O   0  0  0  0  0  0  0  0  0  0  0  0
   24.9637  -25.3908  -15.6126 O   0  0  0  0  0  0  0  0  0  0  0  0
  2  3  2  0
  2  1  1  0
  4  2  1  0
  5  4  1  0
  6  5  1  0
  6  7  1  6
  8  9  2  0
  8  6  1  0
 10 11  1  0
 11 12  2  0
 13 11  1  0
 13 14  1  0
 14 15  1  0
 15 16  1  0
 17 16  1  1
 17 18  1  0
 18  8  1  0
 19 21  1  0
 19 17  1  0
 20 19  2  0
 22 21  1  0
 22 29  1  0
 23 24  1  0
 22 23  1  6
 24 25  2  0
 25 26  1  0
 27 26  1  0
 28 24  1  0
 28 27  2  0
 29 30  1  0
 31 29  2  0
M  END
$$$$
