QRH.pdb
     RDKit          3D

 31 31  0  0  1  0  0  0  0  0999 V2000
   15.7198  -12.2005  -13.8026 N   0  0  0  0  0  0  0  0  0  0  0  0
   15.5906  -13.1126  -14.8938 C   0  0  0  0  0  0  0  0  0  0  0  0
   14.6401  -13.9211  -14.8926 O   0  0  0  0  0  0  0  0  0  0  0  0
   16.5607  -13.1129  -16.0170 C   0  0  0  0  0  0  0  0  0  0  0  0
   17.6106  -12.0741  -15.7642 C   0  0  0  0  0  0  0  0  0  0  0  0
   18.6935  -12.0754  -16.8254 C   0  0  2  0  0  0  0  0  0  0  0  0
   19.4806  -13.2735  -16.8000 N   0  0  0  0  0  0  0  0  0  0  0  0
   19.6009  -10.9289  -16.4622 C   0  0  0  0  0  0  0  0  0  0  0  0
   20.6272  -11.1120  -15.7643 O   0  0  0  0  0  0  0  0  0  0  0  0
   20.7998   -3.1952  -20.7067 N   0  0  0  0  0  0  0  0  0  0  0  0
   21.6195   -3.1120  -19.5500 C   0  0  0  0  0  0  0  0  0  0  0  0
   22.3481   -2.0572  -19.3390 N   0  0  0  0  0  0  0  0  0  0  0  0
   21.6471   -4.1843  -18.6188 N   0  0  0  0  0  0  0  0  0  0  0  0
   20.8146   -5.3497  -18.8168 C   0  0  0  0  0  0  0  0  0  0  0  0
   20.9083   -6.2911  -17.6394 C   0  0  0  0  0  0  0  0  0  0  0  0
   20.0950   -7.5457  -17.8264 C   0  0  0  0  0  0  0  0  0  0  0  0
   20.2057   -8.4887  -16.7122 C   0  0  2  0  0  0  0  0  0  0  0  0
   19.3197   -9.6103  -16.9005 N   0  0  0  0  0  0  0  0  0  0  0  0
   19.9771   -7.9260  -15.3690 C   0  0  0  0  0  0  0  0  0  0  0  0
   18.8046   -7.6093  -15.0549 O   0  0  0  0  0  0  0  0  0  0  0  0
   23.0199   -1.9811  -18.5631 N   0  0  0  0  0  0  0  0  0  0  0  0
   20.9935   -7.7220  -14.4157 C   0  0  2  0  0  0  0  0  0  0  0  0
   20.7592   -7.1894  -13.0651 C   0  0  0  0  0  0  0  0  0  0  0  0
   21.9265   -7.3983  -12.1823 C   0  0  0  0  0  0  0  0  0  0  0  0
   21.6645   -6.9143  -10.8139 C   0  0  0  0  0  0  0  0  0  0  0  0
   20.5106   -6.9244  -10.0683 N   0  0  0  0  0  0  0  0  0  0  0  0
   20.7619   -6.4666   -8.8268 C   0  0  0  0  0  0  0  0  0  0  0  0
   22.0609   -6.1632   -8.7606 N   0  0  0  0  0  0  0  0  0  0  0  0
   22.6176   -6.4276   -9.9486 C   0  0  0  0  0  0  0  0  0  0  0  0
   20.5786   -5.7079  -13.2138 O   0  0  0  0  0  0  0  0  0  0  0  0
   19.5939   -5.0195  -12.6115 O   0  0  0  0  0  0  0  0  0  0  0  0
  2  3  2  0
  2  1  1  0
  4  2  1  0
  5  4  1  0
  6  5  1  0
  6  7  1  1
  8  9  2  0
  8  6  1  0
 10 11  1  0
 11 12  2  0
 13 11  1  0
 13 14  1  0
 14 15  1  0
 15 16  1  0
 17 16  1  6
 17 18  1  0
 18  8  1  0
 19 21  1  0
 19 17  1  0
 20 19  2  0
 22 21  1  0
 22 29  1  0
 23 24  1  0
 22 23  1  6
 24 25  2  0
 25 26  1  0
 27 26  1  0
 28 24  1  0
 28 27  2  0
 29 30  1  0
 31 29  2  0
M  END
$$$$
