QRH.pdb
     RDKit          3D

 31 31  0  0  1  0  0  0  0  0999 V2000
   22.2563  -15.9566  -17.7129 N   0  0  0  0  0  0  0  0  0  0  0  0
   21.4003  -17.0365  -17.3381 C   0  0  0  0  0  0  0  0  0  0  0  0
   20.3211  -17.1875  -17.9460 O   0  0  0  0  0  0  0  0  0  0  0  0
   21.7719  -17.9714  -16.2470 C   0  0  0  0  0  0  0  0  0  0  0  0
   23.1234  -17.6005  -15.7167 C   0  0  0  0  0  0  0  0  0  0  0  0
   24.1163  -18.7424  -15.8131 C   0  0  2  0  0  0  0  0  0  0  0  0
   24.3442  -19.1541  -17.1675 N   0  0  0  0  0  0  0  0  0  0  0  0
   23.4628  -19.8932  -15.0931 C   0  0  0  0  0  0  0  0  0  0  0  0
   22.9776  -20.8611  -15.7268 O   0  0  0  0  0  0  0  0  0  0  0  0
   28.7556  -21.3931  -10.4989 N   0  0  0  0  0  0  0  0  0  0  0  0
   28.0950  -21.3666  -11.7558 C   0  0  0  0  0  0  0  0  0  0  0  0
   28.7806  -21.4404  -12.8569 N   0  0  0  0  0  0  0  0  0  0  0  0
   26.6799  -21.2574  -11.8137 N   0  0  0  0  0  0  0  0  0  0  0  0
   25.9235  -20.8905  -10.6374 C   0  0  0  0  0  0  0  0  0  0  0  0
   24.4452  -20.8252  -10.9403 C   0  0  0  0  0  0  0  0  0  0  0  0
   24.0602  -21.6283  -12.1556 C   0  0  0  0  0  0  0  0  0  0  0  0
   22.9447  -21.0539  -12.9098 C   0  0  2  0  0  0  0  0  0  0  0  0
   23.3790  -19.9139  -13.6781 N   0  0  0  0  0  0  0  0  0  0  0  0
   21.7641  -20.6671  -12.1162 C   0  0  0  0  0  0  0  0  0  0  0  0
   21.7679  -19.5398  -11.5660 O   0  0  0  0  0  0  0  0  0  0  0  0
   28.3502  -21.4309  -13.7916 N   0  0  0  0  0  0  0  0  0  0  0  0
   20.6314  -21.4847  -11.9374 C   0  0  1  0  0  0  0  0  0  0  0  0
   19.2756  -21.1182  -12.3733 C   0  0  0  0  0  0  0  0  0  0  0  0
   19.2129  -20.8799  -13.8310 C   0  0  0  0  0  0  0  0  0  0  0  0
   17.8563  -20.4895  -14.2584 C   0  0  0  0  0  0  0  0  0  0  0  0
   16.9020  -19.7335  -13.6220 N   0  0  0  0  0  0  0  0  0  0  0  0
   15.8434  -19.5511  -14.4345 C   0  0  0  0  0  0  0  0  0  0  0  0
   16.1018  -20.1771  -15.5856 N   0  0  0  0  0  0  0  0  0  0  0  0
   17.3097  -20.7463  -15.4951 C   0  0  0  0  0  0  0  0  0  0  0  0
   18.3976  -22.2988  -12.0815 O   0  0  0  0  0  0  0  0  0  0  0  0
   18.8754  -23.5212  -11.7924 O   0  0  0  0  0  0  0  0  0  0  0  0
  2  3  2  0
  2  1  1  0
  4  2  1  0
  5  4  1  0
  6  5  1  0
  6  7  1  6
  8  9  2  0
  8  6  1  0
 10 11  1  0
 11 12  2  0
 13 11  1  0
 13 14  1  0
 14 15  1  0
 15 16  1  0
 17 16  1  1
 17 18  1  0
 18  8  1  0
 19 21  1  0
 19 17  1  0
 20 19  2  0
 22 21  1  0
 22 29  1  0
 23 24  1  0
 22 23  1  1
 24 25  2  0
 25 26  1  0
 27 26  1  0
 28 24  1  0
 28 27  2  0
 29 30  1  0
 31 29  2  0
M  END
$$$$
