QRH.pdb
     RDKit          3D

 31 31  0  0  1  0  0  0  0  0999 V2000
   25.4265  -19.1380  -16.9562 N   0  0  0  0  0  0  0  0  0  0  0  0
   26.6490  -18.6912  -17.5438 C   0  0  0  0  0  0  0  0  0  0  0  0
   26.6464  -18.3343  -18.7395 O   0  0  0  0  0  0  0  0  0  0  0  0
   27.9091  -18.6462  -16.7610 C   0  0  0  0  0  0  0  0  0  0  0  0
   27.6186  -19.0034  -15.3350 C   0  0  0  0  0  0  0  0  0  0  0  0
   27.9625  -20.4457  -15.0181 C   0  0  2  0  0  0  0  0  0  0  0  0
   28.1074  -21.2442  -16.2002 N   0  0  0  0  0  0  0  0  0  0  0  0
   26.7750  -20.9745  -14.2564 C   0  0  0  0  0  0  0  0  0  0  0  0
   25.7925  -21.4742  -14.8553 O   0  0  0  0  0  0  0  0  0  0  0  0
   26.0993  -20.4937   -5.5974 N   0  0  0  0  0  0  0  0  0  0  0  0
   27.0104  -19.6554   -6.2930 C   0  0  0  0  0  0  0  0  0  0  0  0
   27.7623  -18.8216   -5.6391 N   0  0  0  0  0  0  0  0  0  0  0  0
   27.1018  -19.7243   -7.7088 N   0  0  0  0  0  0  0  0  0  0  0  0
   26.4043  -20.7585   -8.4397 C   0  0  0  0  0  0  0  0  0  0  0  0
   26.7143  -20.6842   -9.9161 C   0  0  0  0  0  0  0  0  0  0  0  0
   26.0140  -21.7518  -10.7161 C   0  0  0  0  0  0  0  0  0  0  0  0
   25.5958  -21.3088  -12.0472 C   0  0  2  0  0  0  0  0  0  0  0  0
   26.7362  -20.9224  -12.8402 N   0  0  0  0  0  0  0  0  0  0  0  0
   24.6059  -20.2169  -12.0795 C   0  0  0  0  0  0  0  0  0  0  0  0
   25.0267  -19.0446  -12.2289 O   0  0  0  0  0  0  0  0  0  0  0  0
   28.4175  -18.1736   -6.0972 N   0  0  0  0  0  0  0  0  0  0  0  0
   23.2163  -20.4080  -11.9532 C   0  0  1  0  0  0  0  0  0  0  0  0
   22.2145  -19.7430  -12.8000 C   0  0  0  0  0  0  0  0  0  0  0  0
   22.4096  -20.0572  -14.2313 C   0  0  0  0  0  0  0  0  0  0  0  0
   21.4388  -19.3417  -15.0804 C   0  0  0  0  0  0  0  0  0  0  0  0
   20.4739  -18.4203  -14.7526 N   0  0  0  0  0  0  0  0  0  0  0  0
   19.8841  -17.9553  -15.8705 C   0  0  0  0  0  0  0  0  0  0  0  0
   20.4556  -18.5620  -16.9142 N   0  0  0  0  0  0  0  0  0  0  0  0
   21.3934  -19.3990  -16.4546 C   0  0  0  0  0  0  0  0  0  0  0  0
   20.8799  -20.3014  -12.4040 O   0  0  0  0  0  0  0  0  0  0  0  0
   19.7688  -19.5533  -12.2957 O   0  0  0  0  0  0  0  0  0  0  0  0
  2  3  2  0
  2  1  1  0
  4  2  1  0
  5  4  1  0
  6  5  1  0
  6  7  1  6
  8  9  2  0
  8  6  1  0
 10 11  1  0
 11 12  2  0
 13 11  1  0
 13 14  1  0
 14 15  1  0
 15 16  1  0
 17 16  1  1
 17 18  1  0
 18  8  1  0
 19 21  1  0
 19 17  1  0
 20 19  2  0
 22 21  1  0
 22 29  1  0
 23 24  1  0
 22 23  1  1
 24 25  2  0
 25 26  1  0
 27 26  1  0
 28 24  1  0
 28 27  2  0
 29 30  1  0
 31 29  2  0
M  END
$$$$
