QRH.pdb
     RDKit          3D

 31 31  0  0  1  0  0  0  0  0999 V2000
   29.1952  -18.3423  -20.1149 N   0  0  0  0  0  0  0  0  0  0  0  0
   28.5611  -19.6099  -20.2895 C   0  0  0  0  0  0  0  0  0  0  0  0
   28.1468  -19.9240  -21.4239 O   0  0  0  0  0  0  0  0  0  0  0  0
   28.3892  -20.5487  -19.1529 C   0  0  0  0  0  0  0  0  0  0  0  0
   28.9164  -19.9133  -17.9025 C   0  0  0  0  0  0  0  0  0  0  0  0
   28.8234  -20.8344  -16.7017 C   0  0  2  0  0  0  0  0  0  0  0  0
   29.3974  -22.1232  -16.9572 N   0  0  0  0  0  0  0  0  0  0  0  0
   27.3477  -21.0327  -16.4719 C   0  0  0  0  0  0  0  0  0  0  0  0
   26.7819  -22.1062  -16.7902 O   0  0  0  0  0  0  0  0  0  0  0  0
   24.3333  -24.4119  -13.3838 N   0  0  0  0  0  0  0  0  0  0  0  0
   23.5502  -23.5052  -12.6214 C   0  0  0  0  0  0  0  0  0  0  0  0
   22.2660  -23.6746  -12.5203 N   0  0  0  0  0  0  0  0  0  0  0  0
   24.1688  -22.4068  -11.9668 N   0  0  0  0  0  0  0  0  0  0  0  0
   25.5572  -22.0905  -12.2174 C   0  0  0  0  0  0  0  0  0  0  0  0
   25.6864  -20.9538  -13.2035 C   0  0  0  0  0  0  0  0  0  0  0  0
   25.0299  -21.2492  -14.5272 C   0  0  0  0  0  0  0  0  0  0  0  0
   25.1764  -20.1727  -15.5085 C   0  0  2  0  0  0  0  0  0  0  0  0
   26.5576  -20.0104  -15.8884 N   0  0  0  0  0  0  0  0  0  0  0  0
   24.6392  -18.8600  -15.1071 C   0  0  0  0  0  0  0  0  0  0  0  0
   25.4537  -17.9287  -14.8997 O   0  0  0  0  0  0  0  0  0  0  0  0
   21.6652  -23.0924  -11.9212 N   0  0  0  0  0  0  0  0  0  0  0  0
   23.2676  -18.5859  -14.9420 C   0  0  2  0  0  0  0  0  0  0  0  0
   22.5519  -17.5149  -15.6516 C   0  0  0  0  0  0  0  0  0  0  0  0
   22.7548  -17.5939  -17.1138 C   0  0  0  0  0  0  0  0  0  0  0  0
   22.1299  -16.4536  -17.8100 C   0  0  0  0  0  0  0  0  0  0  0  0
   21.4881  -15.3458  -17.3120 N   0  0  0  0  0  0  0  0  0  0  0  0
   21.1633  -14.5118  -18.3186 C   0  0  0  0  0  0  0  0  0  0  0  0
   21.5877  -15.0650  -19.4578 N   0  0  0  0  0  0  0  0  0  0  0  0
   22.1718  -16.2338  -19.1679 C   0  0  0  0  0  0  0  0  0  0  0  0
   21.0902  -17.7345  -15.3969 O   0  0  0  0  0  0  0  0  0  0  0  0
   20.1781  -16.7480  -15.4305 O   0  0  0  0  0  0  0  0  0  0  0  0
  2  3  2  0
  2  1  1  0
  4  2  1  0
  5  4  1  0
  6  5  1  0
  6  7  1  6
  8  9  2  0
  8  6  1  0
 10 11  1  0
 11 12  2  0
 13 11  1  0
 13 14  1  0
 14 15  1  0
 15 16  1  0
 17 16  1  1
 17 18  1  0
 18  8  1  0
 19 21  1  0
 19 17  1  0
 20 19  2  0
 22 21  1  0
 22 29  1  0
 23 24  1  0
 22 23  1  6
 24 25  2  0
 25 26  1  0
 27 26  1  0
 28 24  1  0
 28 27  2  0
 29 30  1  0
 31 29  2  0
M  END
$$$$
