QRH.pdb
     RDKit          3D

 31 31  0  0  1  0  0  0  0  0999 V2000
   13.8514  -23.4436    5.6532 N   0  0  0  0  0  0  0  0  0  0  0  0
   14.8565  -23.9865    4.7962 C   0  0  0  0  0  0  0  0  0  0  0  0
   15.4561  -25.0212    5.1525 O   0  0  0  0  0  0  0  0  0  0  0  0
   15.1947  -23.3441    3.5017 C   0  0  0  0  0  0  0  0  0  0  0  0
   14.4053  -22.0789    3.3562 C   0  0  0  0  0  0  0  0  0  0  0  0
   14.6748  -21.3767    2.0396 C   0  0  2  0  0  0  0  0  0  0  0  0
   14.8880  -22.2993    0.9631 N   0  0  0  0  0  0  0  0  0  0  0  0
   15.9618  -20.6229    2.2525 C   0  0  0  0  0  0  0  0  0  0  0  0
   16.8352  -20.5673    1.3538 O   0  0  0  0  0  0  0  0  0  0  0  0
   17.2292  -12.5025    4.3859 N   0  0  0  0  0  0  0  0  0  0  0  0
   18.4470  -12.9795    3.8326 C   0  0  0  0  0  0  0  0  0  0  0  0
   19.3642  -12.1424    3.4506 N   0  0  0  0  0  0  0  0  0  0  0  0
   18.6662  -14.3759    3.6930 N   0  0  0  0  0  0  0  0  0  0  0  0
   17.6213  -15.3193    4.0222 C   0  0  0  0  0  0  0  0  0  0  0  0
   18.0608  -16.7370    3.7424 C   0  0  0  0  0  0  0  0  0  0  0  0
   16.9780  -17.7498    4.0110 C   0  0  0  0  0  0  0  0  0  0  0  0
   17.3765  -19.1274    3.7170 C   0  0  2  0  0  0  0  0  0  0  0  0
   16.2206  -19.9545    3.4757 N   0  0  0  0  0  0  0  0  0  0  0  0
   18.2227  -19.7819    4.7311 C   0  0  0  0  0  0  0  0  0  0  0  0
   17.6539  -20.3822    5.6745 O   0  0  0  0  0  0  0  0  0  0  0  0
   20.2534  -12.4355    3.0233 N   0  0  0  0  0  0  0  0  0  0  0  0
   19.6308  -19.7756    4.7069 C   0  0  1  0  0  0  0  0  0  0  0  0
   20.4747  -20.0229    5.8856 C   0  0  0  0  0  0  0  0  0  0  0  0
   20.0652  -19.1925    7.0381 C   0  0  0  0  0  0  0  0  0  0  0  0
   20.9471  -19.4066    8.2009 C   0  0  0  0  0  0  0  0  0  0  0  0
   22.1173  -20.1170    8.3157 N   0  0  0  0  0  0  0  0  0  0  0  0
   22.6349  -19.9534    9.5484 C   0  0  0  0  0  0  0  0  0  0  0  0
   21.8165  -19.1468   10.2292 N   0  0  0  0  0  0  0  0  0  0  0  0
   20.7964  -18.8090    9.4314 C   0  0  0  0  0  0  0  0  0  0  0  0
   20.2581  -21.4551    6.2751 O   0  0  0  0  0  0  0  0  0  0  0  0
   20.7676  -22.0021    7.3919 O   0  0  0  0  0  0  0  0  0  0  0  0
  2  3  2  0
  2  1  1  0
  4  2  1  0
  5  4  1  0
  6  5  1  0
  6  7  1  6
  8  9  2  0
  8  6  1  0
 10 11  1  0
 11 12  2  0
 13 11  1  0
 13 14  1  0
 14 15  1  0
 15 16  1  0
 17 16  1  1
 17 18  1  0
 18  8  1  0
 19 21  1  0
 19 17  1  0
 20 19  2  0
 22 21  1  0
 22 29  1  0
 23 24  1  0
 22 23  1  6
 24 25  2  0
 25 26  1  0
 27 26  1  0
 28 24  1  0
 28 27  2  0
 29 30  1  0
 31 29  2  0
M  END
$$$$
