LMY.pdb
     RDKit          3D

 29 29  0  0  1  0  0  0  0  0999 V2000
   22.1711  -25.4097  -21.9469 C   0  0  0  0  0  0  0  0  0  0  0  0
   23.3456  -24.9396  -21.1419 C   0  0  2  0  0  0  0  0  0  0  0  0
   23.9012  -26.1589  -20.3927 C   0  0  0  0  0  0  0  0  0  0  0  0
   22.9774  -23.9273  -20.0786 C   0  0  0  0  0  0  0  0  0  0  0  0
   22.4615  -22.6640  -20.7101 C   0  0  2  0  0  0  0  0  0  0  0  0
   23.5198  -21.9848  -21.3938 N   0  0  0  0  0  0  0  0  0  0  0  0
   21.7747  -21.7770  -19.7568 C   0  0  0  0  0  0  0  0  0  0  0  0
   21.7921  -22.0998  -18.5304 O   0  0  0  0  0  0  0  0  0  0  0  0
   18.4742  -14.9508  -17.6746 C   0  0  0  0  0  0  0  0  0  0  0  0
   19.3358  -15.8951  -18.9773 S   0  0  0  0  0  0  0  0  0  0  0  0
   19.5916  -17.5952  -18.4610 C   0  0  0  0  0  0  0  0  0  0  0  0
   20.2220  -18.3669  -19.5922 C   0  0  0  0  0  0  0  0  0  0  0  0
   20.4620  -19.7935  -19.1246 C   0  0  2  0  0  0  0  0  0  0  0  0
   21.1003  -20.5933  -20.1270 N   0  0  0  0  0  0  0  0  0  0  0  0
   19.1042  -20.3539  -18.8435 C   0  0  0  0  0  0  0  0  0  0  0  0
   18.3581  -20.6110  -19.7922 O   0  0  0  0  0  0  0  0  0  0  0  0
   12.1048  -23.8326  -14.6727 O   0  0  0  0  0  0  0  0  0  0  0  0
   13.3604  -23.2912  -14.9592 C   0  0  0  0  0  0  0  0  0  0  0  0
   14.3429  -24.0135  -15.5963 C   0  0  0  0  0  0  0  0  0  0  0  0
   15.5799  -23.4751  -15.8768 C   0  0  0  0  0  0  0  0  0  0  0  0
   15.9024  -22.1573  -15.5255 C   0  0  0  0  0  0  0  0  0  0  0  0
   17.2406  -21.5961  -15.8024 C   0  0  0  0  0  0  0  0  0  0  0  0
   17.3256  -21.0845  -17.1860 C   0  0  2  0  0  0  0  0  0  0  0  0
   18.6497  -20.5983  -17.5362 N   0  0  0  0  0  0  0  0  0  0  0  0
   16.2832  -20.0910  -17.5276 C   0  0  0  0  0  0  0  0  0  0  0  0
   16.4300  -18.8609  -17.1784 O   0  0  0  0  0  0  0  0  0  0  0  0
   14.8967  -21.4584  -14.8879 C   0  0  0  0  0  0  0  0  0  0  0  0
   13.6570  -21.9914  -14.6046 C   0  0  0  0  0  0  0  0  0  0  0  0
   15.1317  -20.4236  -18.2215 O   0  0  0  0  0  0  0  0  0  0  0  0
  2  1  1  1
  3  2  1  0
  4  2  1  0
  4  5  1  0
  5  6  1  1
  7  5  1  0
  7  8  2  0
  9 10  1  0
 10 11  1  0
 11 12  1  0
 13 12  1  6
 13 14  1  0
 14  7  1  0
 15 13  1  0
 16 15  2  0
 18 17  1  0
 19 18  2  0
 20 19  1  0
 21 27  1  0
 21 20  2  0
 22 21  1  0
 23 22  1  1
 23 24  1  0
 24 15  1  0
 25 23  1  0
 26 25  2  0
 27 28  2  0
 28 18  1  0
 29 25  1  0
M  END
$$$$
