LMY.pdb
     RDKit          3D

 29 29  0  0  1  0  0  0  0  0999 V2000
   28.4928  -20.5014  -17.5022 C   0  0  0  0  0  0  0  0  0  0  0  0
   29.2577  -20.9915  -16.3091 C   0  0  2  0  0  0  0  0  0  0  0  0
   30.1654  -22.1332  -16.7881 C   0  0  0  0  0  0  0  0  0  0  0  0
   28.3742  -21.5833  -15.2320 C   0  0  0  0  0  0  0  0  0  0  0  0
   27.3432  -20.5830  -14.7878 C   0  0  2  0  0  0  0  0  0  0  0  0
   27.9802  -19.4445  -14.1987 N   0  0  0  0  0  0  0  0  0  0  0  0
   26.3245  -21.1575  -13.8937 C   0  0  0  0  0  0  0  0  0  0  0  0
   25.6934  -22.1811  -14.2965 O   0  0  0  0  0  0  0  0  0  0  0  0
   27.6269  -20.6642   -7.1471 C   0  0  0  0  0  0  0  0  0  0  0  0
   26.0924  -20.2873   -8.0605 S   0  0  0  0  0  0  0  0  0  0  0  0
   26.1154  -21.0600   -9.6805 C   0  0  0  0  0  0  0  0  0  0  0  0
   24.8812  -20.6496  -10.4426 C   0  0  0  0  0  0  0  0  0  0  0  0
   24.9655  -21.2348  -11.8433 C   0  0  2  0  0  0  0  0  0  0  0  0
   26.0105  -20.6370  -12.6195 N   0  0  0  0  0  0  0  0  0  0  0  0
   23.6475  -20.9311  -12.4815 C   0  0  0  0  0  0  0  0  0  0  0  0
   23.3865  -19.7631  -12.7817 O   0  0  0  0  0  0  0  0  0  0  0  0
   15.6458  -21.5550  -16.0998 O   0  0  0  0  0  0  0  0  0  0  0  0
   16.9337  -21.8497  -15.6456 C   0  0  0  0  0  0  0  0  0  0  0  0
   17.1660  -22.7489  -14.6305 C   0  0  0  0  0  0  0  0  0  0  0  0
   18.4382  -23.0362  -14.1861 C   0  0  0  0  0  0  0  0  0  0  0  0
   19.5667  -22.4240  -14.7480 C   0  0  0  0  0  0  0  0  0  0  0  0
   20.9255  -22.7144  -14.2464 C   0  0  0  0  0  0  0  0  0  0  0  0
   21.3578  -21.6972  -13.2657 C   0  0  2  0  0  0  0  0  0  0  0  0
   22.6970  -21.9306  -12.7515 N   0  0  0  0  0  0  0  0  0  0  0  0
   20.3940  -21.4712  -12.1655 C   0  0  0  0  0  0  0  0  0  0  0  0
   19.6129  -20.4486  -12.1964 O   0  0  0  0  0  0  0  0  0  0  0  0
   19.3016  -21.5272  -15.7637 C   0  0  0  0  0  0  0  0  0  0  0  0
   18.0310  -21.2354  -16.2130 C   0  0  0  0  0  0  0  0  0  0  0  0
   20.2849  -22.3241  -11.0799 O   0  0  0  0  0  0  0  0  0  0  0  0
  2  1  1  6
  3  2  1  0
  4  2  1  0
  4  5  1  0
  5  6  1  1
  7  5  1  0
  7  8  2  0
  9 10  1  0
 10 11  1  0
 11 12  1  0
 13 12  1  1
 13 14  1  0
 14  7  1  0
 15 13  1  0
 16 15  2  0
 18 17  1  0
 19 18  2  0
 20 19  1  0
 21 27  1  0
 21 20  2  0
 22 21  1  0
 23 22  1  1
 23 24  1  0
 24 15  1  0
 25 23  1  0
 26 25  2  0
 27 28  2  0
 28 18  1  0
 29 25  1  0
M  END
$$$$
