LMY.pdb
     RDKit          3D

 29 29  0  0  1  0  0  0  0  0999 V2000
   24.0725  -11.0097  -14.2892 C   0  0  0  0  0  0  0  0  0  0  0  0
   24.6245  -10.7707  -15.6628 C   0  0  2  0  0  0  0  0  0  0  0  0
   26.0813  -10.3166  -15.4950 C   0  0  0  0  0  0  0  0  0  0  0  0
   23.9216   -9.6551  -16.4059 C   0  0  0  0  0  0  0  0  0  0  0  0
   22.5011  -10.0404  -16.7136 C   0  0  2  0  0  0  0  0  0  0  0  0
   22.4734  -11.1043  -17.6707 N   0  0  0  0  0  0  0  0  0  0  0  0
   21.6711   -8.9029  -17.1431 C   0  0  0  0  0  0  0  0  0  0  0  0
   21.7222   -8.5606  -18.3632 O   0  0  0  0  0  0  0  0  0  0  0  0
   14.8852   -5.3220  -17.4212 C   0  0  0  0  0  0  0  0  0  0  0  0
   15.9668   -6.4868  -16.5243 S   0  0  0  0  0  0  0  0  0  0  0  0
   17.6673   -6.3215  -17.0748 C   0  0  0  0  0  0  0  0  0  0  0  0
   18.5075   -7.3845  -16.4139 C   0  0  0  0  0  0  0  0  0  0  0  0
   19.9582   -7.1666  -16.8133 C   0  0  2  0  0  0  0  0  0  0  0  0
   20.8255   -8.1739  -16.2790 N   0  0  0  0  0  0  0  0  0  0  0  0
   20.3353   -5.8400  -16.2351 C   0  0  0  0  0  0  0  0  0  0  0  0
   20.5164   -5.7508  -15.0178 O   0  0  0  0  0  0  0  0  0  0  0  0
   26.3137   -6.7515  -17.5852 O   0  0  0  0  0  0  0  0  0  0  0  0
   25.2801   -5.8140  -17.5166 C   0  0  0  0  0  0  0  0  0  0  0  0
   24.2283   -5.8152  -18.4035 C   0  0  0  0  0  0  0  0  0  0  0  0
   23.2111   -4.8884  -18.3317 C   0  0  0  0  0  0  0  0  0  0  0  0
   23.1957   -3.8918  -17.3466 C   0  0  0  0  0  0  0  0  0  0  0  0
   22.1177   -2.8831  -17.2938 C   0  0  0  0  0  0  0  0  0  0  0  0
   20.9461   -3.3967  -16.5542 C   0  0  2  0  0  0  0  0  0  0  0  0
   20.4911   -4.6921  -17.0309 N   0  0  0  0  0  0  0  0  0  0  0  0
   19.8236   -2.4369  -16.4596 C   0  0  0  0  0  0  0  0  0  0  0  0
   20.0206   -1.2657  -15.9633 O   0  0  0  0  0  0  0  0  0  0  0  0
   24.2637   -3.9165  -16.4719 C   0  0  0  0  0  0  0  0  0  0  0  0
   25.2845   -4.8411  -16.5384 C   0  0  0  0  0  0  0  0  0  0  0  0
   18.5423   -2.7398  -16.8892 O   0  0  0  0  0  0  0  0  0  0  0  0
  2  1  1  1
  3  2  1  0
  4  2  1  0
  4  5  1  0
  5  6  1  6
  7  5  1  0
  7  8  2  0
  9 10  1  0
 10 11  1  0
 11 12  1  0
 13 12  1  1
 13 14  1  0
 14  7  1  0
 15 13  1  0
 16 15  2  0
 18 17  1  0
 19 18  2  0
 20 19  1  0
 21 27  1  0
 21 20  2  0
 22 21  1  0
 23 22  1  6
 23 24  1  0
 24 15  1  0
 25 23  1  0
 26 25  2  0
 27 28  2  0
 28 18  1  0
 29 25  1  0
M  END
$$$$
