LMY.pdb
     RDKit          3D

 29 29  0  0  1  0  0  0  0  0999 V2000
   17.8348  -14.1848  -16.8715 C   0  0  0  0  0  0  0  0  0  0  0  0
   19.1325  -14.6830  -16.3090 C   0  0  2  0  0  0  0  0  0  0  0  0
   18.7920  -15.7136  -15.2234 C   0  0  0  0  0  0  0  0  0  0  0  0
   19.9421  -13.6041  -15.6224 C   0  0  0  0  0  0  0  0  0  0  0  0
   20.3420  -12.5393  -16.6059 C   0  0  2  0  0  0  0  0  0  0  0  0
   21.0749  -13.1180  -17.6907 N   0  0  0  0  0  0  0  0  0  0  0  0
   21.0785  -11.4248  -15.9873 C   0  0  0  0  0  0  0  0  0  0  0  0
   20.6014  -10.9161  -14.9281 O   0  0  0  0  0  0  0  0  0  0  0  0
   27.6094  -12.1905  -14.7562 C   0  0  0  0  0  0  0  0  0  0  0  0
   26.7765  -10.8931  -15.7329 S   0  0  0  0  0  0  0  0  0  0  0  0
   25.0227  -10.8446  -15.3535 C   0  0  0  0  0  0  0  0  0  0  0  0
   24.3857   -9.7008  -16.1008 C   0  0  0  0  0  0  0  0  0  0  0  0
   22.8836   -9.7558  -15.8724 C   0  0  2  0  0  0  0  0  0  0  0  0
   22.2798  -10.8916  -16.5027 N   0  0  0  0  0  0  0  0  0  0  0  0
   22.3409   -8.5073  -16.4914 C   0  0  0  0  0  0  0  0  0  0  0  0
   22.0903   -8.5021  -17.6997 O   0  0  0  0  0  0  0  0  0  0  0  0
   18.0790   -1.3871  -18.8149 O   0  0  0  0  0  0  0  0  0  0  0  0
   18.5879   -2.6011  -18.3472 C   0  0  0  0  0  0  0  0  0  0  0  0
   18.1144   -3.2039  -17.2047 C   0  0  0  0  0  0  0  0  0  0  0  0
   18.6196   -4.4015  -16.7474 C   0  0  0  0  0  0  0  0  0  0  0  0
   19.6471   -5.0705  -17.4261 C   0  0  0  0  0  0  0  0  0  0  0  0
   20.2046   -6.3391  -16.9139 C   0  0  0  0  0  0  0  0  0  0  0  0
   21.5115   -6.1191  -16.2607 C   0  0  2  0  0  0  0  0  0  0  0  0
   22.1061   -7.3405  -15.7439 N   0  0  0  0  0  0  0  0  0  0  0  0
   21.5017   -5.0529  -15.2343 C   0  0  0  0  0  0  0  0  0  0  0  0
   21.2927   -5.3522  -14.0000 O   0  0  0  0  0  0  0  0  0  0  0  0
   20.1011   -4.4414  -18.5682 C   0  0  0  0  0  0  0  0  0  0  0  0
   19.5997   -3.2431  -19.0309 C   0  0  0  0  0  0  0  0  0  0  0  0
   21.7127   -3.7187  -15.5397 O   0  0  0  0  0  0  0  0  0  0  0  0
  2  1  1  1
  3  2  1  0
  4  2  1  0
  4  5  1  0
  5  6  1  6
  7  5  1  0
  7  8  2  0
  9 10  1  0
 10 11  1  0
 11 12  1  0
 13 12  1  6
 13 14  1  0
 14  7  1  0
 15 13  1  0
 16 15  2  0
 18 17  1  0
 19 18  2  0
 20 19  1  0
 21 27  1  0
 21 20  2  0
 22 21  1  0
 23 22  1  1
 23 24  1  0
 24 15  1  0
 25 23  1  0
 26 25  2  0
 27 28  2  0
 28 18  1  0
 29 25  1  0
M  END
$$$$
