LMY.pdb
     RDKit          3D

 29 29  0  0  1  0  0  0  0  0999 V2000
   27.1359  -21.1300  -18.9260 C   0  0  0  0  0  0  0  0  0  0  0  0
   26.8151  -22.5707  -19.1907 C   0  0  2  0  0  0  0  0  0  0  0  0
   25.7685  -22.6048  -20.3134 C   0  0  0  0  0  0  0  0  0  0  0  0
   26.1824  -23.2714  -18.0077 C   0  0  0  0  0  0  0  0  0  0  0  0
   27.0792  -23.1862  -16.8037 C   0  0  2  0  0  0  0  0  0  0  0  0
   28.0144  -24.2697  -16.8058 N   0  0  0  0  0  0  0  0  0  0  0  0
   26.3395  -23.1107  -15.5332 C   0  0  0  0  0  0  0  0  0  0  0  0
   26.0081  -24.2007  -14.9759 O   0  0  0  0  0  0  0  0  0  0  0  0
   29.2304  -19.9073  -11.6614 C   0  0  0  0  0  0  0  0  0  0  0  0
   27.9129  -20.7416  -10.7132 S   0  0  0  0  0  0  0  0  0  0  0  0
   26.9630  -21.8321  -11.7765 C   0  0  0  0  0  0  0  0  0  0  0  0
   26.0228  -21.0076  -12.6182 C   0  0  0  0  0  0  0  0  0  0  0  0
   25.3423  -21.9280  -13.6190 C   0  0  2  0  0  0  0  0  0  0  0  0
   25.9789  -21.9005  -14.9020 N   0  0  0  0  0  0  0  0  0  0  0  0
   23.9471  -21.4069  -13.7542 C   0  0  0  0  0  0  0  0  0  0  0  0
   23.7466  -20.4200  -14.4672 O   0  0  0  0  0  0  0  0  0  0  0  0
   15.3397  -20.0674  -12.2343 O   0  0  0  0  0  0  0  0  0  0  0  0
   16.6511  -20.5417  -12.1503 C   0  0  0  0  0  0  0  0  0  0  0  0
   17.6104  -19.9158  -11.3881 C   0  0  0  0  0  0  0  0  0  0  0  0
   18.9026  -20.3875  -11.3083 C   0  0  0  0  0  0  0  0  0  0  0  0
   19.3083  -21.5349  -12.0033 C   0  0  0  0  0  0  0  0  0  0  0  0
   20.7028  -22.0179  -11.9371 C   0  0  0  0  0  0  0  0  0  0  0  0
   21.5120  -21.4554  -13.0380 C   0  0  2  0  0  0  0  0  0  0  0  0
   22.8569  -22.0034  -13.0977 N   0  0  0  0  0  0  0  0  0  0  0  0
   21.5348  -19.9761  -13.0759 C   0  0  0  0  0  0  0  0  0  0  0  0
   22.2716  -19.3241  -12.2460 O   0  0  0  0  0  0  0  0  0  0  0  0
   18.3240  -22.1404  -12.7590 C   0  0  0  0  0  0  0  0  0  0  0  0
   17.0293  -21.6734  -12.8428 C   0  0  0  0  0  0  0  0  0  0  0  0
   20.7885  -19.2395  -13.9806 O   0  0  0  0  0  0  0  0  0  0  0  0
  2  1  1  1
  3  2  1  0
  4  2  1  0
  4  5  1  0
  5  6  1  1
  7  5  1  0
  7  8  2  0
  9 10  1  0
 10 11  1  0
 11 12  1  0
 13 12  1  1
 13 14  1  0
 14  7  1  0
 15 13  1  0
 16 15  2  0
 18 17  1  0
 19 18  2  0
 20 19  1  0
 21 27  1  0
 21 20  2  0
 22 21  1  0
 23 22  1  1
 23 24  1  0
 24 15  1  0
 25 23  1  0
 26 25  2  0
 27 28  2  0
 28 18  1  0
 29 25  1  0
M  END
$$$$
