LMY.pdb
     RDKit          3D

 29 29  0  0  1  0  0  0  0  0999 V2000
   28.0248  -21.4168  -18.9917 C   0  0  0  0  0  0  0  0  0  0  0  0
   28.5472  -22.1397  -17.7862 C   0  0  2  0  0  0  0  0  0  0  0  0
   29.1789  -23.4492  -18.2792 C   0  0  0  0  0  0  0  0  0  0  0  0
   27.4620  -22.5402  -16.8100 C   0  0  0  0  0  0  0  0  0  0  0  0
   26.7733  -21.3223  -16.2593 C   0  0  2  0  0  0  0  0  0  0  0  0
   27.7099  -20.2508  -16.1068 N   0  0  0  0  0  0  0  0  0  0  0  0
   26.0414  -21.5849  -15.0093 C   0  0  0  0  0  0  0  0  0  0  0  0
   25.1522  -22.4892  -15.0231 O   0  0  0  0  0  0  0  0  0  0  0  0
   25.2092  -21.2365   -7.2191 C   0  0  0  0  0  0  0  0  0  0  0  0
   26.0390  -20.5106   -8.6736 S   0  0  0  0  0  0  0  0  0  0  0  0
   25.2906  -21.1084  -10.1917 C   0  0  0  0  0  0  0  0  0  0  0  0
   26.1164  -20.6479  -11.3658 C   0  0  0  0  0  0  0  0  0  0  0  0
   25.5044  -21.2174  -12.6357 C   0  0  2  0  0  0  0  0  0  0  0  0
   26.2707  -20.8913  -13.8012 N   0  0  0  0  0  0  0  0  0  0  0  0
   24.1541  -20.5842  -12.7454 C   0  0  0  0  0  0  0  0  0  0  0  0
   24.0801  -19.3619  -12.8974 O   0  0  0  0  0  0  0  0  0  0  0  0
   21.3840  -24.9350  -17.7956 O   0  0  0  0  0  0  0  0  0  0  0  0
   21.3763  -23.8365  -16.9326 C   0  0  0  0  0  0  0  0  0  0  0  0
   20.2933  -23.5337  -16.1398 C   0  0  0  0  0  0  0  0  0  0  0  0
   20.2906  -22.4490  -15.2899 C   0  0  0  0  0  0  0  0  0  0  0  0
   21.3964  -21.5941  -15.1891 C   0  0  0  0  0  0  0  0  0  0  0  0
   21.3754  -20.4159  -14.2981 C   0  0  0  0  0  0  0  0  0  0  0  0
   21.6296  -20.8063  -12.8959 C   0  0  2  0  0  0  0  0  0  0  0  0
   22.9669  -21.3339  -12.6821 N   0  0  0  0  0  0  0  0  0  0  0  0
   20.6022  -21.7047  -12.3234 C   0  0  0  0  0  0  0  0  0  0  0  0
   20.9338  -22.8773  -11.9092 O   0  0  0  0  0  0  0  0  0  0  0  0
   22.4669  -21.9236  -15.9964 C   0  0  0  0  0  0  0  0  0  0  0  0
   22.4759  -23.0075  -16.8487 C   0  0  0  0  0  0  0  0  0  0  0  0
   19.2714  -21.3397  -12.2057 O   0  0  0  0  0  0  0  0  0  0  0  0
  2  1  1  6
  3  2  1  0
  4  2  1  0
  4  5  1  0
  5  6  1  1
  7  5  1  0
  7  8  2  0
  9 10  1  0
 10 11  1  0
 11 12  1  0
 13 12  1  1
 13 14  1  0
 14  7  1  0
 15 13  1  0
 16 15  2  0
 18 17  1  0
 19 18  2  0
 20 19  1  0
 21 27  1  0
 21 20  2  0
 22 21  1  0
 23 22  1  6
 23 24  1  0
 24 15  1  0
 25 23  1  0
 26 25  2  0
 27 28  2  0
 28 18  1  0
 29 25  1  0
M  END
$$$$
