LMY.pdb
     RDKit          3D

 29 29  0  0  1  0  0  0  0  0999 V2000
   17.1820  -18.7511  -13.1843 C   0  0  0  0  0  0  0  0  0  0  0  0
   16.9358  -20.0887  -13.8157 C   0  0  2  0  0  0  0  0  0  0  0  0
   15.4242  -20.3494  -13.7546 C   0  0  0  0  0  0  0  0  0  0  0  0
   17.5882  -21.2331  -13.0702 C   0  0  0  0  0  0  0  0  0  0  0  0
   19.0815  -21.0593  -13.0408 C   0  0  2  0  0  0  0  0  0  0  0  0
   19.6494  -21.4467  -14.2962 N   0  0  0  0  0  0  0  0  0  0  0  0
   19.7250  -21.7576  -11.9158 C   0  0  0  0  0  0  0  0  0  0  0  0
   19.7679  -23.0246  -11.9527 O   0  0  0  0  0  0  0  0  0  0  0  0
   25.9996  -20.3680   -9.6940 C   0  0  0  0  0  0  0  0  0  0  0  0
   24.4081  -20.2768   -8.8052 S   0  0  0  0  0  0  0  0  0  0  0  0
   23.1661  -21.2770   -9.6293 C   0  0  0  0  0  0  0  0  0  0  0  0
   21.8509  -21.1269   -8.9080 C   0  0  0  0  0  0  0  0  0  0  0  0
   20.7837  -21.8688   -9.6968 C   0  0  2  0  0  0  0  0  0  0  0  0
   20.2944  -21.1014  -10.8030 N   0  0  0  0  0  0  0  0  0  0  0  0
   19.6657  -22.1027   -8.7315 C   0  0  0  0  0  0  0  0  0  0  0  0
   18.7651  -21.2633   -8.6488 O   0  0  0  0  0  0  0  0  0  0  0  0
   12.9661  -24.9130   -4.0815 O   0  0  0  0  0  0  0  0  0  0  0  0
   14.0013  -24.5709   -4.9550 C   0  0  0  0  0  0  0  0  0  0  0  0
   14.2949  -23.2639   -5.2688 C   0  0  0  0  0  0  0  0  0  0  0  0
   15.3172  -22.9316   -6.1310 C   0  0  0  0  0  0  0  0  0  0  0  0
   16.1143  -23.9128   -6.7356 C   0  0  0  0  0  0  0  0  0  0  0  0
   17.1892  -23.5508   -7.6821 C   0  0  0  0  0  0  0  0  0  0  0  0
   18.5105  -23.5813   -7.0215 C   0  0  2  0  0  0  0  0  0  0  0  0
   19.6057  -23.2459   -7.9162 N   0  0  0  0  0  0  0  0  0  0  0  0
   18.7874  -24.8334   -6.2826 C   0  0  0  0  0  0  0  0  0  0  0  0
   18.5638  -24.8943   -5.0165 O   0  0  0  0  0  0  0  0  0  0  0  0
   15.7956  -25.2140   -6.4014 C   0  0  0  0  0  0  0  0  0  0  0  0
   14.7741  -25.5530   -5.5395 C   0  0  0  0  0  0  0  0  0  0  0  0
   19.2846  -25.9703   -6.8975 O   0  0  0  0  0  0  0  0  0  0  0  0
  2  1  1  1
  3  2  1  0
  4  2  1  0
  4  5  1  0
  5  6  1  6
  7  5  1  0
  7  8  2  0
  9 10  1  0
 10 11  1  0
 11 12  1  0
 13 12  1  1
 13 14  1  0
 14  7  1  0
 15 13  1  0
 16 15  2  0
 18 17  1  0
 19 18  2  0
 20 19  1  0
 21 27  1  0
 21 20  2  0
 22 21  1  0
 23 22  1  6
 23 24  1  0
 24 15  1  0
 25 23  1  0
 26 25  2  0
 27 28  2  0
 28 18  1  0
 29 25  1  0
M  END
$$$$
