SPC.pdb
     RDKit          3D

 20 20  0  0  1  0  0  0  0  0999 V2000
   10.4199  -18.9000   21.2760 O   0  0  0  0  0  0  0  0  0  0  0  0
    9.7682  -18.4564   20.1265 C   0  0  0  0  0  0  0  0  0  0  0  0
   10.1623  -17.0457   19.7363 C   0  0  2  0  0  0  0  0  0  0  0  0
   11.5536  -17.0388   19.4244 N   0  0  0  0  0  0  0  0  0  0  0  0
    9.8546  -16.1086   20.8392 C   0  0  0  0  0  0  0  0  0  0  0  0
   10.8323  -15.8466   21.6324 O   0  0  0  0  0  0  0  0  0  0  0  0
    8.5586  -15.5251   21.0241 N   0  0  0  0  0  0  0  0  0  0  0  0
    7.4624  -15.7183   20.1533 C   0  0  0  0  0  0  0  0  0  0  0  0
    6.4253  -14.6749   20.6031 C   0  0  0  0  0  0  0  0  0  0  0  0
    6.7461  -14.4982   22.0632 C   0  0  0  0  0  0  0  0  0  0  0  0
    8.2177  -14.6830   22.0998 C   0  0  1  0  0  0  0  0  0  0  0  0
    8.6672  -15.2304   23.4179 C   0  0  0  0  0  0  0  0  0  0  0  0
    8.8632  -16.4593   23.4745 O   0  0  0  0  0  0  0  0  0  0  0  0
    8.8686  -14.4340   24.5530 N   0  0  0  0  0  0  0  0  0  0  0  0
    9.3253  -14.9532   25.8307 C   0  0  1  0  0  0  0  0  0  0  0  0
    9.5253  -13.8664   26.8627 C   0  0  0  0  0  0  0  0  0  0  0  0
    8.0551  -12.8057   26.8209 S   0  0  0  0  0  0  0  0  0  0  0  0
    8.3578  -15.9340   26.3583 C   0  0  0  0  0  0  0  0  0  0  0  0
    7.1748  -15.9180   25.9500 O   0  0  0  0  0  0  0  0  0  0  0  0
    8.7117  -16.8800   27.2954 O   0  0  0  0  0  0  0  0  0  0  0  0
  2  1  1  0
  3  2  1  0
  3  4  1  1
  5  3  1  0
  5  6  2  0
  7  5  1  0
  8  7  1  0
  9 10  1  0
  9  8  1  0
 10 11  1  0
 11  7  1  0
 11 12  1  1
 12 14  1  0
 12 13  2  0
 14 15  1  0
 15 16  1  1
 16 17  1  0
 18 20  1  0
 18 15  1  0
 19 18  2  0
M  END
$$$$
