SPC.pdb
     RDKit          3D

 20 20  0  0  1  0  0  0  0  0999 V2000
    8.6525  -17.9421   16.7304 O   0  0  0  0  0  0  0  0  0  0  0  0
    7.9477  -16.8485   16.2305 C   0  0  0  0  0  0  0  0  0  0  0  0
    8.8129  -15.6131   16.0780 C   0  0  2  0  0  0  0  0  0  0  0  0
    9.8648  -15.9126   15.1633 N   0  0  0  0  0  0  0  0  0  0  0  0
    9.3472  -15.2012   17.3948 C   0  0  0  0  0  0  0  0  0  0  0  0
   10.4726  -15.7285   17.7254 O   0  0  0  0  0  0  0  0  0  0  0  0
    8.6672  -14.2783   18.2550 N   0  0  0  0  0  0  0  0  0  0  0  0
    7.4999  -13.5650   17.9003 C   0  0  0  0  0  0  0  0  0  0  0  0
    7.3385  -12.5140   19.0119 C   0  0  0  0  0  0  0  0  0  0  0  0
    7.9926  -13.1794   20.1932 C   0  0  0  0  0  0  0  0  0  0  0  0
    9.0813  -13.9668   19.5642 C   0  0  1  0  0  0  0  0  0  0  0  0
    9.4064  -15.1877   20.3658 C   0  0  0  0  0  0  0  0  0  0  0  0
    8.7895  -16.2292   20.0718 O   0  0  0  0  0  0  0  0  0  0  0  0
   10.3499  -15.1990   21.4017 N   0  0  0  0  0  0  0  0  0  0  0  0
   10.6212  -16.3600   22.2318 C   0  0  1  0  0  0  0  0  0  0  0  0
   12.1007  -16.6047   22.4247 C   0  0  0  0  0  0  0  0  0  0  0  0
   12.2718  -18.0469   23.5106 S   0  0  0  0  0  0  0  0  0  0  0  0
    9.9918  -16.1987   23.5562 C   0  0  0  0  0  0  0  0  0  0  0  0
    9.9326  -15.0633   24.0794 O   0  0  0  0  0  0  0  0  0  0  0  0
    9.4589  -17.2643   24.2481 O   0  0  0  0  0  0  0  0  0  0  0  0
  2  1  1  0
  3  2  1  0
  3  4  1  6
  5  3  1  0
  5  6  2  0
  7  5  1  0
  8  7  1  0
  9 10  1  0
  9  8  1  0
 10 11  1  0
 11  7  1  0
 11 12  1  1
 12 14  1  0
 12 13  2  0
 14 15  1  0
 15 16  1  1
 16 17  1  0
 18 20  1  0
 18 15  1  0
 19 18  2  0
M  END
$$$$
