SPC.pdb
     RDKit          3D

 20 20  0  0  1  0  0  0  0  0999 V2000
    7.9588  -19.4250   19.5384 O   0  0  0  0  0  0  0  0  0  0  0  0
    7.1666  -18.3651   19.1006 C   0  0  0  0  0  0  0  0  0  0  0  0
    7.9830  -17.1752   18.6367 C   0  0  2  0  0  0  0  0  0  0  0  0
    8.8424  -17.6044   17.5831 N   0  0  0  0  0  0  0  0  0  0  0  0
    8.7570  -16.6180   19.7679 C   0  0  0  0  0  0  0  0  0  0  0  0
    9.9737  -17.0242   19.8599 O   0  0  0  0  0  0  0  0  0  0  0  0
    8.2013  -15.6880   20.7063 N   0  0  0  0  0  0  0  0  0  0  0  0
    6.9214  -15.1006   20.5885 C   0  0  0  0  0  0  0  0  0  0  0  0
    6.9127  -13.9821   21.6445 C   0  0  0  0  0  0  0  0  0  0  0  0
    7.8752  -14.4981   22.6804 C   0  0  0  0  0  0  0  0  0  0  0  0
    8.8661  -15.2425   21.8649 C   0  0  1  0  0  0  0  0  0  0  0  0
    9.4779  -16.3668   22.6398 C   0  0  0  0  0  0  0  0  0  0  0  0
    8.8367  -17.4342   22.6754 O   0  0  0  0  0  0  0  0  0  0  0  0
   10.7068  -16.2631   23.3049 N   0  0  0  0  0  0  0  0  0  0  0  0
   11.3617  -17.3788   23.9660 C   0  0  1  0  0  0  0  0  0  0  0  0
   12.8543  -17.4030   23.7257 C   0  0  0  0  0  0  0  0  0  0  0  0
   13.4803  -15.7326   24.0515 S   0  0  0  0  0  0  0  0  0  0  0  0
   11.1176  -17.3250   25.4200 C   0  0  0  0  0  0  0  0  0  0  0  0
   11.5310  -18.2522   26.1519 O   0  0  0  0  0  0  0  0  0  0  0  0
   10.4434  -16.2787   26.0108 O   0  0  0  0  0  0  0  0  0  0  0  0
  2  1  1  0
  3  2  1  0
  3  4  1  6
  5  3  1  0
  5  6  2  0
  7  5  1  0
  8  7  1  0
  9 10  1  0
  9  8  1  0
 10 11  1  0
 11  7  1  0
 11 12  1  1
 12 14  1  0
 12 13  2  0
 14 15  1  0
 15 16  1  1
 16 17  1  0
 18 20  1  0
 18 15  1  0
 19 18  2  0
M  END
$$$$
