SPC.pdb
     RDKit          3D

 20 20  0  0  1  0  0  0  0  0999 V2000
    9.0293  -17.9131   15.9850 O   0  0  0  0  0  0  0  0  0  0  0  0
    8.5247  -16.8837   16.7778 C   0  0  0  0  0  0  0  0  0  0  0  0
    9.3565  -15.6191   16.6964 C   0  0  2  0  0  0  0  0  0  0  0  0
   10.5397  -15.9076   15.9550 N   0  0  0  0  0  0  0  0  0  0  0  0
    9.6797  -15.1350   18.0567 C   0  0  0  0  0  0  0  0  0  0  0  0
   10.8037  -15.5371   18.5351 O   0  0  0  0  0  0  0  0  0  0  0  0
    8.8083  -14.2762   18.8032 N   0  0  0  0  0  0  0  0  0  0  0  0
    7.6750  -13.6243   18.2667 C   0  0  0  0  0  0  0  0  0  0  0  0
    7.2635  -12.6135   19.3508 C   0  0  0  0  0  0  0  0  0  0  0  0
    7.7500  -13.2690   20.6156 C   0  0  0  0  0  0  0  0  0  0  0  0
    8.9761  -13.9743   20.1682 C   0  0  1  0  0  0  0  0  0  0  0  0
    9.2375  -15.1940   20.9946 C   0  0  0  0  0  0  0  0  0  0  0  0
    8.6967  -16.2507   20.6170 O   0  0  0  0  0  0  0  0  0  0  0  0
   10.0434  -15.1881   22.1409 N   0  0  0  0  0  0  0  0  0  0  0  0
   10.3132  -16.3696   22.9421 C   0  0  1  0  0  0  0  0  0  0  0  0
   11.7238  -16.3945   23.4859 C   0  0  0  0  0  0  0  0  0  0  0  0
   12.8448  -16.1016   22.0909 S   0  0  0  0  0  0  0  0  0  0  0  0
    9.3690  -16.4458   24.0731 C   0  0  0  0  0  0  0  0  0  0  0  0
    8.6136  -15.4777   24.3152 O   0  0  0  0  0  0  0  0  0  0  0  0
    9.2854  -17.5571   24.8833 O   0  0  0  0  0  0  0  0  0  0  0  0
  2  1  1  0
  3  2  1  0
  3  4  1  6
  5  3  1  0
  5  6  2  0
  7  5  1  0
  8  7  1  0
  9 10  1  0
  9  8  1  0
 10 11  1  0
 11  7  1  0
 11 12  1  1
 12 14  1  0
 12 13  2  0
 14 15  1  0
 15 16  1  1
 16 17  1  0
 18 20  1  0
 18 15  1  0
 19 18  2  0
M  END
$$$$
