SPC.pdb
     RDKit          3D

 20 20  0  0  1  0  0  0  0  0999 V2000
    9.8123  -18.5012   19.1638 O   0  0  0  0  0  0  0  0  0  0  0  0
    9.6539  -17.5263   18.1803 C   0  0  0  0  0  0  0  0  0  0  0  0
   10.3783  -16.2365   18.5108 C   0  0  2  0  0  0  0  0  0  0  0  0
   11.7809  -16.4916   18.4886 N   0  0  0  0  0  0  0  0  0  0  0  0
    9.9446  -15.7347   19.8335 C   0  0  0  0  0  0  0  0  0  0  0  0
   10.6784  -16.0893   20.8282 O   0  0  0  0  0  0  0  0  0  0  0  0
    8.7864  -14.9090   20.0095 N   0  0  0  0  0  0  0  0  0  0  0  0
    7.9939  -14.4061   18.9529 C   0  0  0  0  0  0  0  0  0  0  0  0
    7.0817  -13.3621   19.6194 C   0  0  0  0  0  0  0  0  0  0  0  0
    6.9666  -13.8759   21.0296 C   0  0  0  0  0  0  0  0  0  0  0  0
    8.2949  -14.4945   21.2622 C   0  0  1  0  0  0  0  0  0  0  0  0
    8.2090  -15.6213   22.2429 C   0  0  0  0  0  0  0  0  0  0  0  0
    8.0980  -16.7676   21.7680 O   0  0  0  0  0  0  0  0  0  0  0  0
    8.2479  -15.4371   23.6314 N   0  0  0  0  0  0  0  0  0  0  0  0
    8.1749  -16.5255   24.5909 C   0  0  1  0  0  0  0  0  0  0  0  0
    8.6832  -16.1304   25.9591 C   0  0  0  0  0  0  0  0  0  0  0  0
   10.2156  -15.1921   25.7149 S   0  0  0  0  0  0  0  0  0  0  0  0
    6.7835  -16.9982   24.7216 C   0  0  0  0  0  0  0  0  0  0  0  0
    5.8539  -16.3361   24.2079 O   0  0  0  0  0  0  0  0  0  0  0  0
    6.4643  -18.1564   25.3960 O   0  0  0  0  0  0  0  0  0  0  0  0
  2  1  1  0
  3  2  1  0
  3  4  1  1
  5  3  1  0
  5  6  2  0
  7  5  1  0
  8  7  1  0
  9 10  1  0
  9  8  1  0
 10 11  1  0
 11  7  1  0
 11 12  1  1
 12 14  1  0
 12 13  2  0
 14 15  1  0
 15 16  1  1
 16 17  1  0
 18 20  1  0
 18 15  1  0
 19 18  2  0
M  END
$$$$
