SPC.pdb
     RDKit          3D

 20 20  0  0  1  0  0  0  0  0999 V2000
    8.7063  -17.6512   16.8903 O   0  0  0  0  0  0  0  0  0  0  0  0
    8.1662  -16.4571   16.4158 C   0  0  0  0  0  0  0  0  0  0  0  0
    9.1543  -15.3085   16.4587 C   0  0  2  0  0  0  0  0  0  0  0  0
   10.2845  -15.6592   15.6634 N   0  0  0  0  0  0  0  0  0  0  0  0
    9.5479  -15.0287   17.8573 C   0  0  0  0  0  0  0  0  0  0  0  0
   10.6399  -15.5847   18.2471 O   0  0  0  0  0  0  0  0  0  0  0  0
    8.7737  -14.1968   18.7307 N   0  0  0  0  0  0  0  0  0  0  0  0
    7.6363  -13.4585   18.3325 C   0  0  0  0  0  0  0  0  0  0  0  0
    7.3518  -12.5208   19.5183 C   0  0  0  0  0  0  0  0  0  0  0  0
    7.8971  -13.2939   20.6892 C   0  0  0  0  0  0  0  0  0  0  0  0
    9.0535  -14.0112   20.0981 C   0  0  1  0  0  0  0  0  0  0  0  0
    9.3166  -15.3022   20.8073 C   0  0  0  0  0  0  0  0  0  0  0  0
    8.6650  -16.2925   20.4243 O   0  0  0  0  0  0  0  0  0  0  0  0
   10.2404  -15.4310   21.8529 N   0  0  0  0  0  0  0  0  0  0  0  0
   10.6016  -16.7019   22.4569 C   0  0  1  0  0  0  0  0  0  0  0  0
   12.0811  -16.9961   22.3532 C   0  0  0  0  0  0  0  0  0  0  0  0
   12.9624  -15.6015   23.1060 S   0  0  0  0  0  0  0  0  0  0  0  0
   10.2147  -16.7187   23.8805 C   0  0  0  0  0  0  0  0  0  0  0  0
    9.6953  -15.7018   24.3928 O   0  0  0  0  0  0  0  0  0  0  0  0
   10.4053  -17.8260   24.6778 O   0  0  0  0  0  0  0  0  0  0  0  0
  2  1  1  0
  3  2  1  0
  3  4  1  6
  5  3  1  0
  5  6  2  0
  7  5  1  0
  8  7  1  0
  9 10  1  0
  9  8  1  0
 10 11  1  0
 11  7  1  0
 11 12  1  1
 12 14  1  0
 12 13  2  0
 14 15  1  0
 15 16  1  1
 16 17  1  0
 18 20  1  0
 18 15  1  0
 19 18  2  0
M  END
$$$$
