SPC.pdb
     RDKit          3D

 20 20  0  0  1  0  0  0  0  0999 V2000
    7.0481  -18.6317   19.0501 O   0  0  0  0  0  0  0  0  0  0  0  0
    6.5024  -17.5446   18.3696 C   0  0  0  0  0  0  0  0  0  0  0  0
    7.5414  -16.7517   17.6017 C   0  0  2  0  0  0  0  0  0  0  0  0
    8.2166  -17.6394   16.7135 N   0  0  0  0  0  0  0  0  0  0  0  0
    8.4872  -16.1098   18.5413 C   0  0  0  0  0  0  0  0  0  0  0  0
    9.5375  -16.7957   18.8247 O   0  0  0  0  0  0  0  0  0  0  0  0
    8.2610  -14.8121   19.1060 N   0  0  0  0  0  0  0  0  0  0  0  0
    7.2336  -13.9307   18.6999 C   0  0  0  0  0  0  0  0  0  0  0  0
    7.5865  -12.5928   19.3721 C   0  0  0  0  0  0  0  0  0  0  0  0
    8.3404  -13.0286   20.6000 C   0  0  0  0  0  0  0  0  0  0  0  0
    9.0389  -14.2532   20.1380 C   0  0  1  0  0  0  0  0  0  0  0  0
    9.2654  -15.2114   21.2648 C   0  0  0  0  0  0  0  0  0  0  0  0
    8.2532  -15.7500   21.7517 O   0  0  0  0  0  0  0  0  0  0  0  0
   10.5354  -15.5132   21.7740 N   0  0  0  0  0  0  0  0  0  0  0  0
   10.7607  -16.3965   22.9053 C   0  0  1  0  0  0  0  0  0  0  0  0
   10.7955  -17.8548   22.5073 C   0  0  0  0  0  0  0  0  0  0  0  0
   11.1196  -18.8164   24.0102 S   0  0  0  0  0  0  0  0  0  0  0  0
   12.0325  -16.0577   23.5719 C   0  0  0  0  0  0  0  0  0  0  0  0
   12.9036  -15.4088   22.9503 O   0  0  0  0  0  0  0  0  0  0  0  0
   12.3010  -16.4327   24.8702 O   0  0  0  0  0  0  0  0  0  0  0  0
  2  1  1  0
  3  2  1  0
  3  4  1  6
  5  3  1  0
  5  6  2  0
  7  5  1  0
  8  7  1  0
  9 10  1  0
  9  8  1  0
 10 11  1  0
 11  7  1  0
 11 12  1  1
 12 14  1  0
 12 13  2  0
 14 15  1  0
 15 16  1  6
 16 17  1  0
 18 20  1  0
 18 15  1  0
 19 18  2  0
M  END
$$$$
