SPC.pdb
     RDKit          3D

 20 20  0  0  1  0  0  0  0  0999 V2000
    7.0518  -16.6067   22.8449 O   0  0  0  0  0  0  0  0  0  0  0  0
    6.3745  -15.4444   22.4802 C   0  0  0  0  0  0  0  0  0  0  0  0
    7.2779  -14.2279   22.4376 C   0  0  2  0  0  0  0  0  0  0  0  0
    8.2060  -14.3957   21.3684 N   0  0  0  0  0  0  0  0  0  0  0  0
    7.9745  -14.0668   23.7331 C   0  0  0  0  0  0  0  0  0  0  0  0
    9.1441  -14.5969   23.8026 O   0  0  0  0  0  0  0  0  0  0  0  0
    7.3969  -13.3702   24.8445 N   0  0  0  0  0  0  0  0  0  0  0  0
    6.1843  -12.6463   24.7925 C   0  0  0  0  0  0  0  0  0  0  0  0
    6.1513  -11.8558   26.1117 C   0  0  0  0  0  0  0  0  0  0  0  0
    6.9594  -12.7247   27.0379 C   0  0  0  0  0  0  0  0  0  0  0  0
    7.9700  -13.3203   26.1297 C   0  0  1  0  0  0  0  0  0  0  0  0
    8.4111  -14.6668   26.6105 C   0  0  0  0  0  0  0  0  0  0  0  0
    7.6677  -15.6284   26.3375 O   0  0  0  0  0  0  0  0  0  0  0  0
    9.5930  -14.8760   27.3335 N   0  0  0  0  0  0  0  0  0  0  0  0
   10.0365  -16.1812   27.7923 C   0  0  1  0  0  0  0  0  0  0  0  0
   11.3092  -16.6352   27.1137 C   0  0  0  0  0  0  0  0  0  0  0  0
   12.4822  -15.2543   27.1880 S   0  0  0  0  0  0  0  0  0  0  0  0
   10.2593  -16.1610   29.2505 C   0  0  0  0  0  0  0  0  0  0  0  0
   10.1811  -15.0786   29.8738 O   0  0  0  0  0  0  0  0  0  0  0  0
   10.5536  -17.3037   29.9619 O   0  0  0  0  0  0  0  0  0  0  0  0
  2  1  1  0
  3  2  1  0
  3  4  1  6
  5  3  1  0
  5  6  2  0
  7  5  1  0
  8  7  1  0
  9 10  1  0
  9  8  1  0
 10 11  1  0
 11  7  1  0
 11 12  1  1
 12 14  1  0
 12 13  2  0
 14 15  1  0
 15 16  1  6
 16 17  1  0
 18 20  1  0
 18 15  1  0
 19 18  2  0
M  END
$$$$
