HLI.pdb
     RDKit          3D

 27 27  0  0  1  0  0  0  0  0999 V2000
    8.8567  -19.6049   20.6134 N   0  0  0  0  0  0  0  0  0  0  0  0
    8.2203  -18.7114   21.5500 C   0  0  1  0  0  0  0  0  0  0  0  0
    8.0546  -19.4725   22.8355 C   0  0  0  0  0  0  0  0  0  0  0  0
    7.1776  -20.6495   22.6904 C   0  0  0  0  0  0  0  0  0  0  0  0
    6.5929  -21.0200   21.4982 C   0  0  0  0  0  0  0  0  0  0  0  0
    5.8691  -22.1251   21.7165 N   0  0  0  0  0  0  0  0  0  0  0  0
    5.9882  -22.4573   23.0284 C   0  0  0  0  0  0  0  0  0  0  0  0
    6.7834  -21.5511   23.5957 N   0  0  0  0  0  0  0  0  0  0  0  0
    8.9246  -17.4354   21.6625 C   0  0  0  0  0  0  0  0  0  0  0  0
   10.1997  -17.4562   21.6444 O   0  0  0  0  0  0  0  0  0  0  0  0
    6.5860  -12.9671   19.5617 C   0  0  0  0  0  0  0  0  0  0  0  0
    7.5947  -14.0180   19.9864 C   0  0  1  0  0  0  0  0  0  0  0  0
    8.7605  -13.9136   18.9928 C   0  0  0  0  0  0  0  0  0  0  0  0
    8.0818  -13.8074   21.3827 C   0  0  0  0  0  0  0  0  0  0  0  0
    8.9857  -14.9004   21.8227 C   0  0  2  0  0  0  0  0  0  0  0  0
    8.2936  -16.1965   21.7870 N   0  0  0  0  0  0  0  0  0  0  0  0
    9.4268  -14.6765   23.2161 C   0  0  0  0  0  0  0  0  0  0  0  0
   10.3514  -13.8938   23.5674 O   0  0  0  0  0  0  0  0  0  0  0  0
    7.9470  -11.7297   27.1266 C   0  0  0  0  0  0  0  0  0  0  0  0
    7.4673  -13.1613   27.0846 C   0  0  0  0  0  0  0  0  0  0  0  0
    7.6056  -13.8032   25.7477 C   0  0  2  0  0  0  0  0  0  0  0  0
    6.2927  -14.4816   25.4179 C   0  0  0  0  0  0  0  0  0  0  0  0
    8.7582  -14.7768   25.6627 C   0  0  2  0  0  0  0  0  0  0  0  0
    8.8113  -15.3618   24.3318 N   0  0  0  0  0  0  0  0  0  0  0  0
    8.6436  -15.8849   26.6356 C   0  0  0  0  0  0  0  0  0  0  0  0
    8.9452  -15.7089   27.9782 O   0  0  0  0  0  0  0  0  0  0  0  0
    8.2658  -17.0461   26.2947 O   0  0  0  0  0  0  0  0  0  0  0  0
  2  1  1  6
  3  2  1  0
  4  3  1  0
  4  8  1  0
  5  6  1  0
  5  4  2  0
  6  7  1  0
  7  8  2  0
  9  2  1  0
 10  9  2  0
 12 14  1  0
 12 11  1  6
 13 12  1  0
 15 14  1  1
 15 16  1  0
 16  9  1  0
 17 18  2  0
 17 15  1  0
 19 20  1  0
 20 21  1  0
 21 23  1  0
 21 22  1  1
 23 24  1  6
 24 17  1  0
 25 26  1  0
 25 23  1  0
 27 25  2  0
M  END
$$$$
