HLI.pdb
     RDKit          3D

 27 27  0  0  1  0  0  0  0  0999 V2000
    9.6038  -19.4456   20.5243 N   0  0  0  0  0  0  0  0  0  0  0  0
    8.6654  -18.6407   21.2673 C   0  0  1  0  0  0  0  0  0  0  0  0
    8.3123  -19.4144   22.5067 C   0  0  0  0  0  0  0  0  0  0  0  0
    7.6266  -20.6855   22.2074 C   0  0  0  0  0  0  0  0  0  0  0  0
    7.4010  -21.1449   20.9273 C   0  0  0  0  0  0  0  0  0  0  0  0
    6.7642  -22.3195   21.0141 N   0  0  0  0  0  0  0  0  0  0  0  0
    6.5846  -22.6080   22.3295 C   0  0  0  0  0  0  0  0  0  0  0  0
    7.1139  -21.6061   23.0304 N   0  0  0  0  0  0  0  0  0  0  0  0
    9.1593  -17.2837   21.4940 C   0  0  0  0  0  0  0  0  0  0  0  0
   10.4142  -17.1275   21.6608 O   0  0  0  0  0  0  0  0  0  0  0  0
    6.4346  -12.9637   19.3297 C   0  0  0  0  0  0  0  0  0  0  0  0
    7.5986  -13.8314   19.7703 C   0  0  1  0  0  0  0  0  0  0  0  0
    8.8351  -13.2848   19.0424 C   0  0  0  0  0  0  0  0  0  0  0  0
    7.8079  -13.7945   21.2489 C   0  0  0  0  0  0  0  0  0  0  0  0
    8.8388  -14.7704   21.6849 C   0  0  2  0  0  0  0  0  0  0  0  0
    8.3486  -16.1482   21.5387 N   0  0  0  0  0  0  0  0  0  0  0  0
    9.1680  -14.5708   23.1125 C   0  0  0  0  0  0  0  0  0  0  0  0
   10.0607  -13.7941   23.5494 O   0  0  0  0  0  0  0  0  0  0  0  0
    6.3725  -11.9432   25.8292 C   0  0  0  0  0  0  0  0  0  0  0  0
    7.5693  -12.7757   25.4338 C   0  0  0  0  0  0  0  0  0  0  0  0
    7.6335  -14.0986   26.1151 C   0  0  2  0  0  0  0  0  0  0  0  0
    7.8227  -13.8515   27.5970 C   0  0  0  0  0  0  0  0  0  0  0  0
    8.7139  -15.0048   25.5718 C   0  0  2  0  0  0  0  0  0  0  0  0
    8.4674  -15.2757   24.1640 N   0  0  0  0  0  0  0  0  0  0  0  0
    8.7767  -16.3047   26.2746 C   0  0  0  0  0  0  0  0  0  0  0  0
    9.4312  -16.4445   27.4897 O   0  0  0  0  0  0  0  0  0  0  0  0
    8.2385  -17.3524   25.8054 O   0  0  0  0  0  0  0  0  0  0  0  0
  2  1  1  1
  3  2  1  0
  4  3  1  0
  4  8  1  0
  5  6  1  0
  5  4  2  0
  6  7  1  0
  7  8  2  0
  9  2  1  0
 10  9  2  0
 12 14  1  0
 12 11  1  1
 13 12  1  0
 15 14  1  1
 15 16  1  0
 16  9  1  0
 17 18  2  0
 17 15  1  0
 19 20  1  0
 20 21  1  0
 21 23  1  0
 21 22  1  1
 23 24  1  6
 24 17  1  0
 25 26  1  0
 25 23  1  0
 27 25  2  0
M  END
$$$$
