HLI.pdb
     RDKit          3D

 27 27  0  0  1  0  0  0  0  0999 V2000
    8.5485  -18.5387   20.8674 N   0  0  0  0  0  0  0  0  0  0  0  0
    9.9025  -18.0877   20.6577 C   0  0  1  0  0  0  0  0  0  0  0  0
   10.2556  -18.4143   19.2336 C   0  0  0  0  0  0  0  0  0  0  0  0
   10.1047  -19.8487   18.9251 C   0  0  0  0  0  0  0  0  0  0  0  0
   10.6645  -20.8533   19.6855 C   0  0  0  0  0  0  0  0  0  0  0  0
   10.3323  -22.0266   19.1326 N   0  0  0  0  0  0  0  0  0  0  0  0
    9.5715  -21.7775   18.0349 C   0  0  0  0  0  0  0  0  0  0  0  0
    9.4482  -20.4549   17.9305 N   0  0  0  0  0  0  0  0  0  0  0  0
   10.0858  -16.6901   21.0450 C   0  0  0  0  0  0  0  0  0  0  0  0
   11.2721  -16.2215   21.0378 O   0  0  0  0  0  0  0  0  0  0  0  0
    6.5149  -12.9434   19.6066 C   0  0  0  0  0  0  0  0  0  0  0  0
    7.8058  -13.6407   19.9933 C   0  0  1  0  0  0  0  0  0  0  0  0
    8.9287  -12.8919   19.2613 C   0  0  0  0  0  0  0  0  0  0  0  0
    8.0435  -13.6205   21.4679 C   0  0  0  0  0  0  0  0  0  0  0  0
    9.2223  -14.4397   21.8482 C   0  0  2  0  0  0  0  0  0  0  0  0
    9.0484  -15.8350   21.4206 N   0  0  0  0  0  0  0  0  0  0  0  0
    9.3928  -14.4487   23.3170 C   0  0  0  0  0  0  0  0  0  0  0  0
    9.7256  -13.4520   24.0148 O   0  0  0  0  0  0  0  0  0  0  0  0
    6.7323  -12.4639   26.0295 C   0  0  0  0  0  0  0  0  0  0  0  0
    7.9610  -13.2987   25.7558 C   0  0  0  0  0  0  0  0  0  0  0  0
    7.7190  -14.7666   25.8261 C   0  0  2  0  0  0  0  0  0  0  0  0
    7.1578  -15.0818   27.1966 C   0  0  0  0  0  0  0  0  0  0  0  0
    8.9495  -15.5951   25.5378 C   0  0  2  0  0  0  0  0  0  0  0  0
    9.1842  -15.6453   24.1030 N   0  0  0  0  0  0  0  0  0  0  0  0
    8.8276  -16.9874   26.0216 C   0  0  0  0  0  0  0  0  0  0  0  0
    9.4032  -17.3962   27.2158 O   0  0  0  0  0  0  0  0  0  0  0  0
    8.1943  -17.8741   25.3735 O   0  0  0  0  0  0  0  0  0  0  0  0
  2  1  1  6
  3  2  1  0
  4  3  1  0
  4  8  1  0
  5  6  1  0
  5  4  2  0
  6  7  1  0
  7  8  2  0
  9  2  1  0
 10  9  2  0
 12 14  1  0
 12 11  1  1
 13 12  1  0
 15 14  1  1
 15 16  1  0
 16  9  1  0
 17 18  2  0
 17 15  1  0
 19 20  1  0
 20 21  1  0
 21 23  1  0
 21 22  1  1
 23 24  1  6
 24 17  1  0
 25 26  1  0
 25 23  1  0
 27 25  2  0
M  END
$$$$
