HLI.pdb
     RDKit          3D

 27 27  0  0  1  0  0  0  0  0999 V2000
   10.3492  -16.0429   20.0049 N   0  0  0  0  0  0  0  0  0  0  0  0
    9.6943  -16.7677   21.0662 C   0  0  1  0  0  0  0  0  0  0  0  0
   10.2783  -18.1527   21.0738 C   0  0  0  0  0  0  0  0  0  0  0  0
    9.4787  -19.1111   20.2881 C   0  0  0  0  0  0  0  0  0  0  0  0
    8.4305  -18.7393   19.4734 C   0  0  0  0  0  0  0  0  0  0  0  0
    7.9297  -19.8459   18.9100 N   0  0  0  0  0  0  0  0  0  0  0  0
    8.6461  -20.9103   19.3570 C   0  0  0  0  0  0  0  0  0  0  0  0
    9.5758  -20.4409   20.1880 N   0  0  0  0  0  0  0  0  0  0  0  0
    9.7537  -16.0546   22.3409 C   0  0  0  0  0  0  0  0  0  0  0  0
   10.8228  -15.4156   22.6158 O   0  0  0  0  0  0  0  0  0  0  0  0
    5.4237  -13.4564   25.2174 C   0  0  0  0  0  0  0  0  0  0  0  0
    6.7238  -13.7928   24.5111 C   0  0  1  0  0  0  0  0  0  0  0  0
    7.6581  -12.5979   24.7496 C   0  0  0  0  0  0  0  0  0  0  0  0
    7.3442  -15.0488   25.0294 C   0  0  0  0  0  0  0  0  0  0  0  0
    8.7246  -15.2357   24.5148 C   0  0  2  0  0  0  0  0  0  0  0  0
    8.7175  -16.0261   23.2758 N   0  0  0  0  0  0  0  0  0  0  0  0
    9.5479  -15.9701   25.4993 C   0  0  0  0  0  0  0  0  0  0  0  0
   10.0856  -17.0938   25.3009 O   0  0  0  0  0  0  0  0  0  0  0  0
   10.7441  -13.0794   30.1184 C   0  0  0  0  0  0  0  0  0  0  0  0
   10.9846  -13.9115   28.8809 C   0  0  0  0  0  0  0  0  0  0  0  0
   10.7154  -15.3640   29.0708 C   0  0  2  0  0  0  0  0  0  0  0  0
   11.7805  -15.9192   29.9928 C   0  0  0  0  0  0  0  0  0  0  0  0
   10.6573  -16.1408   27.7759 C   0  0  2  0  0  0  0  0  0  0  0  0
    9.8140  -15.4408   26.8192 N   0  0  0  0  0  0  0  0  0  0  0  0
   10.1046  -17.5016   27.9497 C   0  0  0  0  0  0  0  0  0  0  0  0
   10.9278  -18.6080   28.0999 O   0  0  0  0  0  0  0  0  0  0  0  0
    8.8569  -17.7257   27.9706 O   0  0  0  0  0  0  0  0  0  0  0  0
  2  1  1  6
  3  2  1  0
  4  3  1  0
  4  8  1  0
  5  6  1  0
  5  4  2  0
  6  7  1  0
  7  8  2  0
  9  2  1  0
 10  9  2  0
 12 14  1  0
 12 11  1  1
 13 12  1  0
 15 14  1  1
 15 16  1  0
 16  9  1  0
 17 18  2  0
 17 15  1  0
 19 20  1  0
 20 21  1  0
 21 23  1  0
 21 22  1  1
 23 24  1  6
 24 17  1  0
 25 26  1  0
 25 23  1  0
 27 25  2  0
M  END
$$$$
