HLI.pdb
     RDKit          3D

 27 27  0  0  1  0  0  0  0  0999 V2000
   12.6590  -17.5313   19.6855 N   0  0  0  0  0  0  0  0  0  0  0  0
   11.3915  -17.8577   20.2916 C   0  0  1  0  0  0  0  0  0  0  0  0
   11.4723  -19.2946   20.7255 C   0  0  0  0  0  0  0  0  0  0  0  0
   11.0838  -20.2338   19.6567 C   0  0  0  0  0  0  0  0  0  0  0  0
    9.8908  -20.1540   18.9705 C   0  0  0  0  0  0  0  0  0  0  0  0
    9.8596  -21.1487   18.0747 N   0  0  0  0  0  0  0  0  0  0  0  0
   11.0150  -21.8549   18.1855 C   0  0  0  0  0  0  0  0  0  0  0  0
   11.7379  -21.2830   19.1476 N   0  0  0  0  0  0  0  0  0  0  0  0
   11.0175  -16.9067   21.3369 C   0  0  0  0  0  0  0  0  0  0  0  0
   11.9483  -16.4263   22.0647 O   0  0  0  0  0  0  0  0  0  0  0  0
    6.2887  -13.9846   20.7449 C   0  0  0  0  0  0  0  0  0  0  0  0
    7.7314  -14.3843   20.9919 C   0  0  1  0  0  0  0  0  0  0  0  0
    8.5545  -13.0928   20.8826 C   0  0  0  0  0  0  0  0  0  0  0  0
    7.9259  -15.0122   22.3333 C   0  0  0  0  0  0  0  0  0  0  0  0
    9.3329  -15.4374   22.5448 C   0  0  2  0  0  0  0  0  0  0  0  0
    9.7098  -16.4890   21.5898 N   0  0  0  0  0  0  0  0  0  0  0  0
    9.5052  -15.9958   23.9031 C   0  0  0  0  0  0  0  0  0  0  0  0
    9.6650  -17.2182   24.1700 O   0  0  0  0  0  0  0  0  0  0  0  0
   10.3095  -12.1923   27.9177 C   0  0  0  0  0  0  0  0  0  0  0  0
   10.5894  -13.4397   27.1132 C   0  0  0  0  0  0  0  0  0  0  0  0
    9.6811  -14.5766   27.4305 C   0  0  2  0  0  0  0  0  0  0  0  0
   10.0325  -15.0827   28.8136 C   0  0  0  0  0  0  0  0  0  0  0  0
    9.7336  -15.6925   26.4127 C   0  0  2  0  0  0  0  0  0  0  0  0
    9.5046  -15.1550   25.0805 N   0  0  0  0  0  0  0  0  0  0  0  0
    8.7152  -16.7370   26.6564 C   0  0  0  0  0  0  0  0  0  0  0  0
    7.4399  -16.6501   26.1174 O   0  0  0  0  0  0  0  0  0  0  0  0
    8.9539  -17.7600   27.3662 O   0  0  0  0  0  0  0  0  0  0  0  0
  2  1  1  1
  3  2  1  0
  4  3  1  0
  4  8  1  0
  5  6  1  0
  5  4  2  0
  6  7  1  0
  7  8  2  0
  9  2  1  0
 10  9  2  0
 12 14  1  0
 12 11  1  1
 13 12  1  0
 15 14  1  6
 15 16  1  0
 16  9  1  0
 17 18  2  0
 17 15  1  0
 19 20  1  0
 20 21  1  0
 21 23  1  0
 21 22  1  1
 23 24  1  6
 24 17  1  0
 25 26  1  0
 25 23  1  0
 27 25  2  0
M  END
$$$$
