HLI.pdb
     RDKit          3D

 27 27  0  0  1  0  0  0  0  0999 V2000
   13.1526  -17.1952   19.8749 N   0  0  0  0  0  0  0  0  0  0  0  0
   11.9451  -17.7018   20.4798 C   0  0  1  0  0  0  0  0  0  0  0  0
   12.2653  -19.0700   21.0136 C   0  0  0  0  0  0  0  0  0  0  0  0
   12.0949  -20.1292   20.0015 C   0  0  0  0  0  0  0  0  0  0  0  0
   13.1483  -20.8018   19.4195 C   0  0  0  0  0  0  0  0  0  0  0  0
   12.6456  -21.6919   18.5548 N   0  0  0  0  0  0  0  0  0  0  0  0
   11.2910  -21.5912   18.5824 C   0  0  0  0  0  0  0  0  0  0  0  0
   10.9826  -20.6405   19.4637 N   0  0  0  0  0  0  0  0  0  0  0  0
   11.3785  -16.7665   21.4499 C   0  0  0  0  0  0  0  0  0  0  0  0
   12.1880  -16.0843   22.1614 O   0  0  0  0  0  0  0  0  0  0  0  0
    8.4204  -13.9306   20.3898 C   0  0  0  0  0  0  0  0  0  0  0  0
    7.6893  -14.1099   21.7071 C   0  0  1  0  0  0  0  0  0  0  0  0
    6.1936  -13.9879   21.3827 C   0  0  0  0  0  0  0  0  0  0  0  0
    7.9769  -15.4311   22.3421 C   0  0  0  0  0  0  0  0  0  0  0  0
    9.4277  -15.6151   22.6005 C   0  0  2  0  0  0  0  0  0  0  0  0
   10.0107  -16.5702   21.6477 N   0  0  0  0  0  0  0  0  0  0  0  0
    9.6455  -16.1605   23.9575 C   0  0  0  0  0  0  0  0  0  0  0  0
    9.9321  -17.3606   24.2197 O   0  0  0  0  0  0  0  0  0  0  0  0
   10.4035  -12.4033   28.0516 C   0  0  0  0  0  0  0  0  0  0  0  0
   10.5873  -13.6051   27.1553 C   0  0  0  0  0  0  0  0  0  0  0  0
    9.6924  -14.7477   27.4897 C   0  0  2  0  0  0  0  0  0  0  0  0
   10.0653  -15.2437   28.8709 C   0  0  0  0  0  0  0  0  0  0  0  0
    9.7411  -15.8683   26.4771 C   0  0  2  0  0  0  0  0  0  0  0  0
    9.5441  -15.3320   25.1393 N   0  0  0  0  0  0  0  0  0  0  0  0
    8.6997  -16.8930   26.7076 C   0  0  0  0  0  0  0  0  0  0  0  0
    8.9615  -18.0469   27.4317 O   0  0  0  0  0  0  0  0  0  0  0  0
    7.5207  -16.7701   26.2579 O   0  0  0  0  0  0  0  0  0  0  0  0
  2  1  1  1
  3  2  1  0
  4  3  1  0
  4  8  1  0
  5  6  1  0
  5  4  2  0
  6  7  1  0
  7  8  2  0
  9  2  1  0
 10  9  2  0
 12 14  1  0
 12 11  1  6
 13 12  1  0
 15 14  1  6
 15 16  1  0
 16  9  1  0
 17 18  2  0
 17 15  1  0
 19 20  1  0
 20 21  1  0
 21 23  1  0
 21 22  1  1
 23 24  1  6
 24 17  1  0
 25 26  1  0
 25 23  1  0
 27 25  2  0
M  END
$$$$
