HLI.pdb
     RDKit          3D

 27 27  0  0  1  0  0  0  0  0999 V2000
   12.6738  -17.3028   19.6697 N   0  0  0  0  0  0  0  0  0  0  0  0
   11.3910  -17.6283   20.2434 C   0  0  1  0  0  0  0  0  0  0  0  0
   11.4582  -19.0667   20.6747 C   0  0  0  0  0  0  0  0  0  0  0  0
   10.8409  -19.9828   19.6974 C   0  0  0  0  0  0  0  0  0  0  0  0
   11.2579  -20.0913   18.3879 C   0  0  0  0  0  0  0  0  0  0  0  0
   10.4921  -21.0080   17.7829 N   0  0  0  0  0  0  0  0  0  0  0  0
    9.5982  -21.4794   18.6910 C   0  0  0  0  0  0  0  0  0  0  0  0
    9.8288  -20.8448   19.8397 N   0  0  0  0  0  0  0  0  0  0  0  0
   10.9932  -16.6797   21.2820 C   0  0  0  0  0  0  0  0  0  0  0  0
   11.9116  -16.1711   22.0064 O   0  0  0  0  0  0  0  0  0  0  0  0
    6.1982  -13.8235   20.8106 C   0  0  0  0  0  0  0  0  0  0  0  0
    7.6407  -14.2424   21.0249 C   0  0  1  0  0  0  0  0  0  0  0  0
    8.4740  -12.9558   20.9373 C   0  0  0  0  0  0  0  0  0  0  0  0
    7.8496  -14.9075   22.3460 C   0  0  0  0  0  0  0  0  0  0  0  0
    9.2655  -15.3093   22.5439 C   0  0  2  0  0  0  0  0  0  0  0  0
    9.6755  -16.2931   21.5319 N   0  0  0  0  0  0  0  0  0  0  0  0
    9.4425  -15.9421   23.8684 C   0  0  0  0  0  0  0  0  0  0  0  0
    9.5839  -17.1796   24.0681 O   0  0  0  0  0  0  0  0  0  0  0  0
   11.0255  -12.6185   28.0418 C   0  0  0  0  0  0  0  0  0  0  0  0
   10.9286  -13.8152   27.1252 C   0  0  0  0  0  0  0  0  0  0  0  0
    9.8039  -14.7349   27.4532 C   0  0  2  0  0  0  0  0  0  0  0  0
   10.0936  -15.3646   28.7995 C   0  0  0  0  0  0  0  0  0  0  0  0
    9.5610  -15.7903   26.3993 C   0  0  2  0  0  0  0  0  0  0  0  0
    9.4693  -15.1655   25.0888 N   0  0  0  0  0  0  0  0  0  0  0  0
    8.3097  -16.5460   26.6247 C   0  0  0  0  0  0  0  0  0  0  0  0
    8.3001  -17.7490   27.3154 O   0  0  0  0  0  0  0  0  0  0  0  0
    7.1876  -16.1354   26.2007 O   0  0  0  0  0  0  0  0  0  0  0  0
  2  1  1  1
  3  2  1  0
  4  3  1  0
  4  8  1  0
  5  6  1  0
  5  4  2  0
  6  7  1  0
  7  8  2  0
  9  2  1  0
 10  9  2  0
 12 14  1  0
 12 11  1  1
 13 12  1  0
 15 14  1  6
 15 16  1  0
 16  9  1  0
 17 18  2  0
 17 15  1  0
 19 20  1  0
 20 21  1  0
 21 23  1  0
 21 22  1  1
 23 24  1  6
 24 17  1  0
 25 26  1  0
 25 23  1  0
 27 25  2  0
M  END
$$$$
