NCG.pdb
     RDKit          3D

 19 18  0  0  1  0  0  0  0  0999 V2000
   25.5410  -12.1280  -20.8788 N   0  0  0  0  0  0  0  0  0  0  0  0
   24.1185  -12.1232  -20.9023 C   0  0  0  0  0  0  0  0  0  0  0  0
   23.5682  -12.7850  -21.7928 O   0  0  0  0  0  0  0  0  0  0  0  0
   23.4004  -11.3697  -19.9163 C   0  0  0  0  0  0  0  0  0  0  0  0
   24.1806  -10.5605  -18.9152 C   0  0  2  0  0  0  0  0  0  0  0  0
   25.0211  -11.6025  -18.2388 N   0  0  0  0  0  0  0  0  0  0  0  0
   23.3698   -9.9937  -17.8182 C   0  0  0  0  0  0  0  0  0  0  0  0
   22.1373   -9.8256  -17.9977 O   0  0  0  0  0  0  0  0  0  0  0  0
   23.8910   -9.6237  -16.5571 N   0  0  0  0  0  0  0  0  0  0  0  0
   23.0616   -9.0868  -15.4845 C   0  0  1  0  0  0  0  0  0  0  0  0
   23.3596   -9.8870  -14.2410 C   0  0  0  0  0  0  0  0  0  0  0  0
   22.7233  -11.5794  -14.3648 S   0  0  0  0  0  0  0  0  0  0  0  0
   23.3314   -7.6617  -15.2580 C   0  0  0  0  0  0  0  0  0  0  0  0
   24.5080   -7.1947  -15.3673 O   0  0  0  0  0  0  0  0  0  0  0  0
   22.3026   -6.7749  -14.9155 N   0  0  0  0  0  0  0  0  0  0  0  0
   22.5915   -5.3726  -14.6769 C   0  0  0  0  0  0  0  0  0  0  0  0
   21.3605   -4.6139  -14.4010 C   0  0  0  0  0  0  0  0  0  0  0  0
   20.2390   -5.1625  -14.5199 O   0  0  0  0  0  0  0  0  0  0  0  0
   21.4500   -3.2890  -14.0089 O   0  0  0  0  0  0  0  0  0  0  0  0
  1  2  1  0
  2  3  2  0
  4  5  1  0
  4  2  1  0
  5  6  1  1
  7  5  1  0
  7  8  2  0
  9  7  1  0
 10  9  1  0
 10 11  1  1
 12 11  1  0
 13 10  1  0
 14 13  2  0
 15 13  1  0
 16 15  1  0
 17 19  1  0
 17 16  1  0
 18 17  2  0
M  END
$$$$
