NCG.pdb
     RDKit          3D

 19 18  0  0  1  0  0  0  0  0999 V2000
   17.8106  -11.4151  -17.7778 N   0  0  0  0  0  0  0  0  0  0  0  0
   18.0550  -11.6949  -16.4044 C   0  0  0  0  0  0  0  0  0  0  0  0
   17.7552  -12.8259  -15.9986 O   0  0  0  0  0  0  0  0  0  0  0  0
   18.6247  -10.6784  -15.5692 C   0  0  0  0  0  0  0  0  0  0  0  0
   18.8994   -9.3235  -16.1645 C   0  0  2  0  0  0  0  0  0  0  0  0
   20.1903   -9.5449  -16.8955 N   0  0  0  0  0  0  0  0  0  0  0  0
   19.2277   -8.2744  -15.1777 C   0  0  0  0  0  0  0  0  0  0  0  0
   18.3662   -7.9558  -14.3200 O   0  0  0  0  0  0  0  0  0  0  0  0
   20.4659   -7.5936  -15.1271 N   0  0  0  0  0  0  0  0  0  0  0  0
   20.7937   -6.6231  -14.0891 C   0  0  1  0  0  0  0  0  0  0  0  0
   22.0120   -7.1354  -13.3620 C   0  0  0  0  0  0  0  0  0  0  0  0
   21.6225   -8.5770  -12.3351 S   0  0  0  0  0  0  0  0  0  0  0  0
   21.0527   -5.2947  -14.6575 C   0  0  0  0  0  0  0  0  0  0  0  0
   21.8262   -5.1510  -15.6552 O   0  0  0  0  0  0  0  0  0  0  0  0
   20.4564   -4.1473  -14.1189 N   0  0  0  0  0  0  0  0  0  0  0  0
   20.6826   -2.8486  -14.7264 C   0  0  0  0  0  0  0  0  0  0  0  0
   19.8213   -1.8194  -14.1212 C   0  0  0  0  0  0  0  0  0  0  0  0
   18.9718   -2.1349  -13.2543 O   0  0  0  0  0  0  0  0  0  0  0  0
   19.9562   -0.4993  -14.5165 O   0  0  0  0  0  0  0  0  0  0  0  0
  1  2  1  0
  2  3  2  0
  4  5  1  0
  4  2  1  0
  5  6  1  6
  7  5  1  0
  7  8  2  0
  9  7  1  0
 10  9  1  0
 10 11  1  6
 12 11  1  0
 13 10  1  0
 14 13  2  0
 15 13  1  0
 16 15  1  0
 17 19  1  0
 17 16  1  0
 18 17  2  0
M  END
$$$$
