NCG.pdb
     RDKit          3D

 19 18  0  0  1  0  0  0  0  0999 V2000
   18.3625  -12.6553  -18.7735 N   0  0  0  0  0  0  0  0  0  0  0  0
   17.9529  -11.3078  -18.5719 C   0  0  0  0  0  0  0  0  0  0  0  0
   17.0294  -10.8882  -19.2825 O   0  0  0  0  0  0  0  0  0  0  0  0
   18.6119  -10.5127  -17.5775 C   0  0  0  0  0  0  0  0  0  0  0  0
   19.7843  -11.1026  -16.8404 C   0  0  2  0  0  0  0  0  0  0  0  0
   19.1202  -11.9928  -15.8322 N   0  0  0  0  0  0  0  0  0  0  0  0
   20.5400  -10.1375  -16.0160 C   0  0  0  0  0  0  0  0  0  0  0  0
   20.0365   -9.7344  -14.9374 O   0  0  0  0  0  0  0  0  0  0  0  0
   21.8137   -9.6288  -16.3593 N   0  0  0  0  0  0  0  0  0  0  0  0
   22.5940   -8.7800  -15.4662 C   0  0  1  0  0  0  0  0  0  0  0  0
   24.0339   -9.2165  -15.5736 C   0  0  0  0  0  0  0  0  0  0  0  0
   24.3694  -10.6761  -14.5531 S   0  0  0  0  0  0  0  0  0  0  0  0
   22.4574   -7.3612  -15.8174 C   0  0  0  0  0  0  0  0  0  0  0  0
   22.3458   -6.9964  -17.0293 O   0  0  0  0  0  0  0  0  0  0  0  0
   22.4457   -6.3681  -14.8295 N   0  0  0  0  0  0  0  0  0  0  0  0
   22.2914   -4.9717  -15.1943 C   0  0  0  0  0  0  0  0  0  0  0  0
   21.2035   -4.3382  -14.4313 C   0  0  0  0  0  0  0  0  0  0  0  0
   21.0235   -3.0988  -14.4961 O   0  0  0  0  0  0  0  0  0  0  0  0
   20.3796   -5.1214  -13.6408 O   0  0  0  0  0  0  0  0  0  0  0  0
  1  2  1  0
  2  3  2  0
  4  5  1  0
  4  2  1  0
  5  6  1  1
  7  5  1  0
  7  8  2  0
  9  7  1  0
 10  9  1  0
 10 11  1  6
 12 11  1  0
 13 10  1  0
 14 13  2  0
 15 13  1  0
 16 15  1  0
 17 19  1  0
 17 16  1  0
 18 17  2  0
M  END
$$$$
