NCG.pdb
     RDKit          3D

 19 18  0  0  1  0  0  0  0  0999 V2000
   22.1579  -20.5879  -13.2929 N   0  0  0  0  0  0  0  0  0  0  0  0
   20.9113  -19.9503  -13.0407 C   0  0  0  0  0  0  0  0  0  0  0  0
   20.7892  -18.7803  -13.4281 O   0  0  0  0  0  0  0  0  0  0  0  0
   19.8744  -20.6736  -12.3646 C   0  0  0  0  0  0  0  0  0  0  0  0
   19.6881  -22.1337  -12.6792 C   0  0  2  0  0  0  0  0  0  0  0  0
   18.9024  -22.0938  -13.9563 N   0  0  0  0  0  0  0  0  0  0  0  0
   18.8031  -22.8557  -11.7423 C   0  0  0  0  0  0  0  0  0  0  0  0
   17.6121  -22.4750  -11.6158 O   0  0  0  0  0  0  0  0  0  0  0  0
   19.2077  -23.9664  -10.9666 N   0  0  0  0  0  0  0  0  0  0  0  0
   18.2986  -24.6889  -10.0844 C   0  0  1  0  0  0  0  0  0  0  0  0
   18.2682  -26.1245  -10.5467 C   0  0  0  0  0  0  0  0  0  0  0  0
   17.8916  -26.2512  -12.3149 S   0  0  0  0  0  0  0  0  0  0  0  0
   18.7301  -24.6069   -8.6837 C   0  0  0  0  0  0  0  0  0  0  0  0
   19.9620  -24.6547   -8.3763 O   0  0  0  0  0  0  0  0  0  0  0  0
   17.7994  -24.4735   -7.6454 N   0  0  0  0  0  0  0  0  0  0  0  0
   18.2475  -24.3230   -6.2730 C   0  0  0  0  0  0  0  0  0  0  0  0
   18.4698  -25.6324   -5.6380 C   0  0  0  0  0  0  0  0  0  0  0  0
   18.2899  -26.6897   -6.2881 O   0  0  0  0  0  0  0  0  0  0  0  0
   18.8795  -25.6882   -4.3166 O   0  0  0  0  0  0  0  0  0  0  0  0
  1  2  1  0
  2  3  2  0
  4  5  1  0
  4  2  1  0
  5  6  1  6
  7  5  1  0
  7  8  2  0
  9  7  1  0
 10  9  1  0
 10 11  1  6
 12 11  1  0
 13 10  1  0
 14 13  2  0
 15 13  1  0
 16 15  1  0
 17 19  1  0
 17 16  1  0
 18 17  2  0
M  END
$$$$
