NCG.pdb
     RDKit          3D

 19 18  0  0  1  0  0  0  0  0999 V2000
   21.8125  -27.5658  -12.8935 N   0  0  0  0  0  0  0  0  0  0  0  0
   21.2417  -26.2823  -13.1195 C   0  0  0  0  0  0  0  0  0  0  0  0
   21.7876  -25.5654  -13.9691 O   0  0  0  0  0  0  0  0  0  0  0  0
   20.0857  -25.8840  -12.3708 C   0  0  0  0  0  0  0  0  0  0  0  0
   19.5873  -26.7876  -11.2751 C   0  0  2  0  0  0  0  0  0  0  0  0
   18.8715  -27.8615  -12.0394 N   0  0  0  0  0  0  0  0  0  0  0  0
   18.5338  -26.1976  -10.4242 C   0  0  0  0  0  0  0  0  0  0  0  0
   17.3954  -25.9973  -10.9176 O   0  0  0  0  0  0  0  0  0  0  0  0
   18.7180  -25.8389   -9.0691 N   0  0  0  0  0  0  0  0  0  0  0  0
   17.7138  -25.1149   -8.2983 C   0  0  1  0  0  0  0  0  0  0  0  0
   18.1390  -25.1577   -6.8517 C   0  0  0  0  0  0  0  0  0  0  0  0
   17.0323  -24.1822   -5.7990 S   0  0  0  0  0  0  0  0  0  0  0  0
   17.5822  -23.7266   -8.7566 C   0  0  0  0  0  0  0  0  0  0  0  0
   18.5982  -23.0660   -9.1382 O   0  0  0  0  0  0  0  0  0  0  0  0
   16.3354  -23.0888   -8.7876 N   0  0  0  0  0  0  0  0  0  0  0  0
   16.2195  -21.7269   -9.2761 C   0  0  0  0  0  0  0  0  0  0  0  0
   15.4838  -21.6782  -10.5503 C   0  0  0  0  0  0  0  0  0  0  0  0
   15.8231  -22.4165  -11.5055 O   0  0  0  0  0  0  0  0  0  0  0  0
   14.4135  -20.8105  -10.6864 O   0  0  0  0  0  0  0  0  0  0  0  0
  1  2  1  0
  2  3  2  0
  4  5  1  0
  4  2  1  0
  5  6  1  6
  7  5  1  0
  7  8  2  0
  9  7  1  0
 10  9  1  0
 10 11  1  1
 12 11  1  0
 13 10  1  0
 14 13  2  0
 15 13  1  0
 16 15  1  0
 17 19  1  0
 17 16  1  0
 18 17  2  0
M  END
$$$$
