NCG.pdb
     RDKit          3D

 19 18  0  0  1  0  0  0  0  0999 V2000
   16.0334  -11.5699  -18.2516 N   0  0  0  0  0  0  0  0  0  0  0  0
   17.3701  -11.0890  -18.3297 C   0  0  0  0  0  0  0  0  0  0  0  0
   17.9848  -11.3040  -19.3831 O   0  0  0  0  0  0  0  0  0  0  0  0
   17.9342  -10.3922  -17.2109 C   0  0  0  0  0  0  0  0  0  0  0  0
   19.4181  -10.4840  -16.9755 C   0  0  2  0  0  0  0  0  0  0  0  0
   19.5521  -11.7891  -16.2486 N   0  0  0  0  0  0  0  0  0  0  0  0
   19.9508   -9.4911  -16.0202 C   0  0  0  0  0  0  0  0  0  0  0  0
   19.3809   -9.3504  -14.9089 O   0  0  0  0  0  0  0  0  0  0  0  0
   21.0785   -8.6760  -16.2708 N   0  0  0  0  0  0  0  0  0  0  0  0
   21.5557   -7.6729  -15.3259 C   0  0  1  0  0  0  0  0  0  0  0  0
   22.9812   -8.0234  -14.9785 C   0  0  0  0  0  0  0  0  0  0  0  0
   23.0634   -9.3213  -13.7162 S   0  0  0  0  0  0  0  0  0  0  0  0
   21.4804   -6.3210  -15.8931 C   0  0  0  0  0  0  0  0  0  0  0  0
   21.8775   -6.0868  -17.0770 O   0  0  0  0  0  0  0  0  0  0  0  0
   20.9694   -5.2502  -15.1485 N   0  0  0  0  0  0  0  0  0  0  0  0
   20.9674   -3.9076  -15.6999 C   0  0  0  0  0  0  0  0  0  0  0  0
   20.4860   -2.9266  -14.7134 C   0  0  0  0  0  0  0  0  0  0  0  0
   20.5865   -1.6977  -14.9422 O   0  0  0  0  0  0  0  0  0  0  0  0
   19.9208   -3.3712  -13.5302 O   0  0  0  0  0  0  0  0  0  0  0  0
  1  2  1  0
  2  3  2  0
  4  5  1  0
  4  2  1  0
  5  6  1  1
  7  5  1  0
  7  8  2  0
  9  7  1  0
 10  9  1  0
 10 11  1  6
 12 11  1  0
 13 10  1  0
 14 13  2  0
 15 13  1  0
 16 15  1  0
 17 19  1  0
 17 16  1  0
 18 17  2  0
M  END
$$$$
