NCG.pdb
     RDKit          3D

 19 18  0  0  1  0  0  0  0  0999 V2000
   18.9699  -15.2148  -15.5496 N   0  0  0  0  0  0  0  0  0  0  0  0
   20.1381  -14.5037  -15.9419 C   0  0  0  0  0  0  0  0  0  0  0  0
   21.1912  -15.1508  -16.0197 O   0  0  0  0  0  0  0  0  0  0  0  0
   20.0472  -13.1010  -16.2238 C   0  0  0  0  0  0  0  0  0  0  0  0
   18.7503  -12.3899  -15.9442 C   0  0  2  0  0  0  0  0  0  0  0  0
   17.8912  -12.8141  -17.0982 N   0  0  0  0  0  0  0  0  0  0  0  0
   18.8156  -10.9199  -16.0740 C   0  0  0  0  0  0  0  0  0  0  0  0
   18.7816  -10.4090  -17.2218 O   0  0  0  0  0  0  0  0  0  0  0  0
   18.9122  -10.0311  -14.9787 N   0  0  0  0  0  0  0  0  0  0  0  0
   18.9419   -8.5815  -15.1358 C   0  0  1  0  0  0  0  0  0  0  0  0
   17.5164   -8.0923  -15.0746 C   0  0  0  0  0  0  0  0  0  0  0  0
   17.4259   -6.2832  -15.1313 S   0  0  0  0  0  0  0  0  0  0  0  0
   19.7516   -7.9439  -14.0904 C   0  0  0  0  0  0  0  0  0  0  0  0
   19.6784   -8.3293  -12.8820 O   0  0  0  0  0  0  0  0  0  0  0  0
   20.6279   -6.8936  -14.3922 N   0  0  0  0  0  0  0  0  0  0  0  0
   21.3831   -6.2419  -13.3378 C   0  0  0  0  0  0  0  0  0  0  0  0
   22.1972   -5.1367  -13.8699 C   0  0  0  0  0  0  0  0  0  0  0  0
   22.8808   -4.4249  -13.0961 O   0  0  0  0  0  0  0  0  0  0  0  0
   22.2027   -4.8888  -15.2321 O   0  0  0  0  0  0  0  0  0  0  0  0
  1  2  1  0
  2  3  2  0
  4  5  1  0
  4  2  1  0
  5  6  1  6
  7  5  1  0
  7  8  2  0
  9  7  1  0
 10  9  1  0
 10 11  1  1
 12 11  1  0
 13 10  1  0
 14 13  2  0
 15 13  1  0
 16 15  1  0
 17 19  1  0
 17 16  1  0
 18 17  2  0
M  END
$$$$
