EKD.pdb
     RDKit          3D

 27 26  0  0  1  0  0  0  0  0999 V2000
   18.2710  -26.5711   -3.7633 N   0  0  0  0  0  0  0  0  0  0  0  0
   17.3191  -26.7186   -2.7012 C   0  0  1  0  0  0  0  0  0  0  0  0
   17.0989  -28.1561   -2.3329 C   0  0  0  0  0  0  0  0  0  0  0  0
   16.6474  -28.8725   -3.6122 C   0  0  0  0  0  0  0  0  0  0  0  0
   16.4586  -30.3116   -3.3584 C   0  0  0  0  0  0  0  0  0  0  0  0
   16.1712  -31.0720   -4.3000 O   0  0  0  0  0  0  0  0  0  0  0  0
   17.6186  -25.8481   -1.5524 C   0  0  0  0  0  0  0  0  0  0  0  0
   18.7205  -25.2932   -1.3423 O   0  0  0  0  0  0  0  0  0  0  0  0
   16.6005  -30.8141   -2.0800 O   0  0  0  0  0  0  0  0  0  0  0  0
   16.5635  -25.6195   -0.6001 N   0  0  0  0  0  0  0  0  0  0  0  0
   16.7728  -24.6839    0.4895 C   0  0  1  0  0  0  0  0  0  0  0  0
   15.6535  -23.6775    0.6321 C   0  0  0  0  0  0  0  0  0  0  0  0
   16.0534  -22.6558    1.6536 C   0  0  0  0  0  0  0  0  0  0  0  0
   14.9561  -21.6642    1.9694 C   0  0  0  0  0  0  0  0  0  0  0  0
   15.4198  -20.6652    2.9812 C   0  0  0  0  0  0  0  0  0  0  0  0
   14.3941  -19.6866    3.2800 N   0  0  0  0  0  0  0  0  0  0  0  0
   16.8487  -25.4322    1.7800 C   0  0  0  0  0  0  0  0  0  0  0  0
   15.9767  -26.3243    1.9789 O   0  0  0  0  0  0  0  0  0  0  0  0
   17.8360  -25.1791    2.7516 N   0  0  0  0  0  0  0  0  0  0  0  0
   17.8376  -25.9709    3.9614 C   0  0  1  0  0  0  0  0  0  0  0  0
   19.2284  -25.9762    4.6002 C   0  0  0  0  0  0  0  0  0  0  0  0
   19.3284  -27.1308    5.5218 C   0  0  0  0  0  0  0  0  0  0  0  0
   18.4041  -27.9536    5.6525 O   0  0  0  0  0  0  0  0  0  0  0  0
   16.8539  -25.4406    4.9183 C   0  0  0  0  0  0  0  0  0  0  0  0
   16.3931  -26.1911    5.8059 O   0  0  0  0  0  0  0  0  0  0  0  0
   20.5044  -27.2993    6.2701 O   0  0  0  0  0  0  0  0  0  0  0  0
   16.4462  -24.1398    4.8384 O   0  0  0  0  0  0  0  0  0  0  0  0
  2  1  1  6
  2  7  1  0
  2  3  1  0
  4  3  1  0
  4  5  1  0
  5  6  2  0
  7  8  2  0
  9  5  1  0
 10 11  1  0
 10  7  1  0
 11 12  1  1
 13 12  1  0
 14 15  1  0
 14 13  1  0
 16 15  1  0
 17 11  1  0
 18 17  2  0
 19 17  1  0
 20 24  1  0
 20 19  1  0
 20 21  1  1
 22 21  1  0
 23 22  2  0
 24 27  1  0
 25 24  2  0
 26 22  1  0
M  END
$$$$
