EKD.pdb
     RDKit          3D

 27 26  0  0  1  0  0  0  0  0999 V2000
   24.0154  -11.2262  -16.9215 N   0  0  0  0  0  0  0  0  0  0  0  0
   23.5341  -10.8127  -18.2074 C   0  0  1  0  0  0  0  0  0  0  0  0
   23.7095  -11.8791  -19.2480 C   0  0  0  0  0  0  0  0  0  0  0  0
   24.3231  -13.0911  -18.5350 C   0  0  0  0  0  0  0  0  0  0  0  0
   24.4125  -14.2395  -19.4538 C   0  0  0  0  0  0  0  0  0  0  0  0
   23.6459  -15.2082  -19.3076 O   0  0  0  0  0  0  0  0  0  0  0  0
   22.1720  -10.2577  -18.1464 C   0  0  0  0  0  0  0  0  0  0  0  0
   21.5189   -9.8521  -19.1340 O   0  0  0  0  0  0  0  0  0  0  0  0
   25.3437  -14.2400  -20.4735 O   0  0  0  0  0  0  0  0  0  0  0  0
   21.5461  -10.1759  -16.8527 N   0  0  0  0  0  0  0  0  0  0  0  0
   20.1689   -9.7294  -16.7506 C   0  0  1  0  0  0  0  0  0  0  0  0
   19.4216  -10.3654  -15.6002 C   0  0  0  0  0  0  0  0  0  0  0  0
   18.3115  -11.2064  -16.1549 C   0  0  0  0  0  0  0  0  0  0  0  0
   17.4155  -11.7940  -15.0877 C   0  0  0  0  0  0  0  0  0  0  0  0
   16.3389  -12.6311  -15.7017 C   0  0  0  0  0  0  0  0  0  0  0  0
   15.5284  -13.2871  -14.6959 N   0  0  0  0  0  0  0  0  0  0  0  0
   20.1401   -8.2536  -16.5220 C   0  0  0  0  0  0  0  0  0  0  0  0
   20.9637   -7.7856  -15.6863 O   0  0  0  0  0  0  0  0  0  0  0  0
   19.2477   -7.3952  -17.1924 N   0  0  0  0  0  0  0  0  0  0  0  0
   19.2358   -5.9934  -16.8385 C   0  0  1  0  0  0  0  0  0  0  0  0
   18.5926   -5.1620  -17.9510 C   0  0  0  0  0  0  0  0  0  0  0  0
   18.5758   -3.7401  -17.5383 C   0  0  0  0  0  0  0  0  0  0  0  0
   19.6173   -3.0649  -17.4523 O   0  0  0  0  0  0  0  0  0  0  0  0
   18.5007   -5.7921  -15.5802 C   0  0  0  0  0  0  0  0  0  0  0  0
   18.5113   -4.6669  -15.0350 O   0  0  0  0  0  0  0  0  0  0  0  0
   17.3440   -3.1382  -17.2351 O   0  0  0  0  0  0  0  0  0  0  0  0
   17.8124   -6.8251  -15.0109 O   0  0  0  0  0  0  0  0  0  0  0  0
  2  1  1  1
  2  7  1  0
  2  3  1  0
  4  3  1  0
  4  5  1  0
  5  6  2  0
  7  8  2  0
  9  5  1  0
 10 11  1  0
 10  7  1  0
 11 12  1  1
 13 12  1  0
 14 15  1  0
 14 13  1  0
 16 15  1  0
 17 11  1  0
 18 17  2  0
 19 17  1  0
 20 24  1  0
 20 19  1  0
 20 21  1  6
 22 21  1  0
 23 22  2  0
 24 27  1  0
 25 24  2  0
 26 22  1  0
M  END
$$$$
