EKD.pdb
     RDKit          3D

 27 26  0  0  1  0  0  0  0  0999 V2000
   18.0594  -10.4162  -13.7908 N   0  0  0  0  0  0  0  0  0  0  0  0
   18.2672   -9.8657  -12.4832 C   0  0  1  0  0  0  0  0  0  0  0  0
   19.6230   -9.2394  -12.3407 C   0  0  0  0  0  0  0  0  0  0  0  0
   19.6355   -8.0078  -13.2554 C   0  0  0  0  0  0  0  0  0  0  0  0
   20.9067   -7.2756  -13.1174 C   0  0  0  0  0  0  0  0  0  0  0  0
   21.9385   -7.7246  -13.6477 O   0  0  0  0  0  0  0  0  0  0  0  0
   17.1600   -8.9938  -12.0574 C   0  0  0  0  0  0  0  0  0  0  0  0
   16.5973   -8.1443  -12.7839 O   0  0  0  0  0  0  0  0  0  0  0  0
   20.9520   -6.0951  -12.4024 O   0  0  0  0  0  0  0  0  0  0  0  0
   16.6912   -9.1300  -10.7032 N   0  0  0  0  0  0  0  0  0  0  0  0
   15.5149   -8.3953  -10.2755 C   0  0  1  0  0  0  0  0  0  0  0  0
   14.7496   -9.0893   -9.1714 C   0  0  0  0  0  0  0  0  0  0  0  0
   13.4279   -9.5424   -9.7145 C   0  0  0  0  0  0  0  0  0  0  0  0
   12.5576  -10.2219   -8.6811 C   0  0  0  0  0  0  0  0  0  0  0  0
   11.2825  -10.7038   -9.2964 C   0  0  0  0  0  0  0  0  0  0  0  0
   10.5440  -11.5668   -8.3970 N   0  0  0  0  0  0  0  0  0  0  0  0
   15.9272   -7.0618   -9.7439 C   0  0  0  0  0  0  0  0  0  0  0  0
   16.9539   -7.0289   -9.0086 O   0  0  0  0  0  0  0  0  0  0  0  0
   15.2250   -5.8757  -10.0315 N   0  0  0  0  0  0  0  0  0  0  0  0
   15.7952   -4.6138   -9.6154 C   0  0  1  0  0  0  0  0  0  0  0  0
   16.3127   -3.8312  -10.8246 C   0  0  0  0  0  0  0  0  0  0  0  0
   16.7444   -2.4875  -10.3771 C   0  0  0  0  0  0  0  0  0  0  0  0
   16.7705   -2.1685   -9.1747 O   0  0  0  0  0  0  0  0  0  0  0  0
   14.7905   -3.8128   -8.8988 C   0  0  0  0  0  0  0  0  0  0  0  0
   13.5816   -4.1191   -8.9888 O   0  0  0  0  0  0  0  0  0  0  0  0
   17.1355   -1.5461  -11.3426 O   0  0  0  0  0  0  0  0  0  0  0  0
   15.1738   -2.7430   -8.1415 O   0  0  0  0  0  0  0  0  0  0  0  0
  2  1  1  6
  2  7  1  0
  2  3  1  0
  4  3  1  0
  4  5  1  0
  5  6  2  0
  7  8  2  0
  9  5  1  0
 10 11  1  0
 10  7  1  0
 11 12  1  1
 13 12  1  0
 14 15  1  0
 14 13  1  0
 16 15  1  0
 17 11  1  0
 18 17  2  0
 19 17  1  0
 20 24  1  0
 20 19  1  0
 20 21  1  6
 22 21  1  0
 23 22  2  0
 24 27  1  0
 25 24  2  0
 26 22  1  0
M  END
$$$$
