EKD.pdb
     RDKit          3D

 27 26  0  0  1  0  0  0  0  0999 V2000
   19.7521  -13.2433  -15.9344 N   0  0  0  0  0  0  0  0  0  0  0  0
   20.8352  -12.5663  -16.5860 C   0  0  1  0  0  0  0  0  0  0  0  0
   21.3116  -13.3006  -17.8044 C   0  0  0  0  0  0  0  0  0  0  0  0
   20.5921  -14.6556  -17.8092 C   0  0  0  0  0  0  0  0  0  0  0  0
   20.9217  -15.4105  -19.0310 C   0  0  0  0  0  0  0  0  0  0  0  0
   20.1787  -16.3357  -19.4043 O   0  0  0  0  0  0  0  0  0  0  0  0
   20.5473  -11.1422  -16.8230 C   0  0  0  0  0  0  0  0  0  0  0  0
   21.3000  -10.3513  -17.4346 O   0  0  0  0  0  0  0  0  0  0  0  0
   22.0510  -15.0915  -19.7589 O   0  0  0  0  0  0  0  0  0  0  0  0
   19.3061  -10.6221  -16.3117 N   0  0  0  0  0  0  0  0  0  0  0  0
   18.9249   -9.2543  -16.6124 C   0  0  1  0  0  0  0  0  0  0  0  0
   17.4277   -9.0444  -16.6280 C   0  0  0  0  0  0  0  0  0  0  0  0
   16.8526   -9.7740  -17.8045 C   0  0  0  0  0  0  0  0  0  0  0  0
   15.3417   -9.7313  -17.8548 C   0  0  0  0  0  0  0  0  0  0  0  0
   14.8298  -10.4795  -19.0443 C   0  0  0  0  0  0  0  0  0  0  0  0
   13.3820  -10.4805  -19.0966 N   0  0  0  0  0  0  0  0  0  0  0  0
   19.4788   -8.3423  -15.5671 C   0  0  0  0  0  0  0  0  0  0  0  0
   19.4728   -8.7630  -14.3760 O   0  0  0  0  0  0  0  0  0  0  0  0
   19.9926   -7.0653  -15.8636 N   0  0  0  0  0  0  0  0  0  0  0  0
   20.5647   -6.2818  -14.7916 C   0  0  1  0  0  0  0  0  0  0  0  0
   21.8450   -5.5845  -15.2575 C   0  0  0  0  0  0  0  0  0  0  0  0
   22.3389   -4.7114  -14.1684 C   0  0  0  0  0  0  0  0  0  0  0  0
   22.2475   -3.4716  -14.2228 O   0  0  0  0  0  0  0  0  0  0  0  0
   19.5965   -5.2791  -14.3210 C   0  0  0  0  0  0  0  0  0  0  0  0
   18.7843   -4.7811  -15.1309 O   0  0  0  0  0  0  0  0  0  0  0  0
   22.9285   -5.3044  -13.0405 O   0  0  0  0  0  0  0  0  0  0  0  0
   19.5841   -4.8942  -13.0109 O   0  0  0  0  0  0  0  0  0  0  0  0
  2  1  1  6
  2  7  1  0
  2  3  1  0
  4  3  1  0
  4  5  1  0
  5  6  2  0
  7  8  2  0
  9  5  1  0
 10 11  1  0
 10  7  1  0
 11 12  1  1
 13 12  1  0
 14 15  1  0
 14 13  1  0
 16 15  1  0
 17 11  1  0
 18 17  2  0
 19 17  1  0
 20 24  1  0
 20 19  1  0
 20 21  1  6
 22 21  1  0
 23 22  2  0
 24 27  1  0
 25 24  2  0
 26 22  1  0
M  END
$$$$
