EKD.pdb
     RDKit          3D

 27 26  0  0  1  0  0  0  0  0999 V2000
   22.3187  -11.6400  -17.2624 N   0  0  0  0  0  0  0  0  0  0  0  0
   22.3405  -10.6559  -16.2196 C   0  0  1  0  0  0  0  0  0  0  0  0
   23.6889  -10.0148  -16.0733 C   0  0  0  0  0  0  0  0  0  0  0  0
   24.6800  -11.1439  -15.7624 C   0  0  0  0  0  0  0  0  0  0  0  0
   26.0194  -10.5940  -15.4888 C   0  0  0  0  0  0  0  0  0  0  0  0
   26.9385  -11.3541  -15.1355 O   0  0  0  0  0  0  0  0  0  0  0  0
   21.2319   -9.6937  -16.3309 C   0  0  0  0  0  0  0  0  0  0  0  0
   21.0666   -8.8983  -17.2828 O   0  0  0  0  0  0  0  0  0  0  0  0
   26.2532   -9.2398  -15.6247 O   0  0  0  0  0  0  0  0  0  0  0  0
   20.2666   -9.6672  -15.2633 N   0  0  0  0  0  0  0  0  0  0  0  0
   19.1705   -8.7172  -15.3126 C   0  0  1  0  0  0  0  0  0  0  0  0
   17.9541   -9.1724  -14.5384 C   0  0  0  0  0  0  0  0  0  0  0  0
   17.3142  -10.3105  -15.2749 C   0  0  0  0  0  0  0  0  0  0  0  0
   16.0787  -10.8483  -14.5883 C   0  0  0  0  0  0  0  0  0  0  0  0
   15.4423  -11.9244  -15.4093 C   0  0  0  0  0  0  0  0  0  0  0  0
   14.1479  -12.3074  -14.8834 N   0  0  0  0  0  0  0  0  0  0  0  0
   19.6071   -7.4221  -14.7099 C   0  0  0  0  0  0  0  0  0  0  0  0
   20.5197   -7.4731  -13.8378 O   0  0  0  0  0  0  0  0  0  0  0  0
   19.0472   -6.1831  -15.0761 N   0  0  0  0  0  0  0  0  0  0  0  0
   19.6360   -4.9727  -14.5481 C   0  0  1  0  0  0  0  0  0  0  0  0
   21.0905   -4.8371  -15.0049 C   0  0  0  0  0  0  0  0  0  0  0  0
   21.5977   -3.5060  -14.6009 C   0  0  0  0  0  0  0  0  0  0  0  0
   21.5503   -2.5223  -15.3614 O   0  0  0  0  0  0  0  0  0  0  0  0
   18.8662   -3.7985  -14.9875 C   0  0  0  0  0  0  0  0  0  0  0  0
   18.8829   -2.7578  -14.2945 O   0  0  0  0  0  0  0  0  0  0  0  0
   22.1491   -3.3527  -13.3187 O   0  0  0  0  0  0  0  0  0  0  0  0
   18.1386   -3.8436  -16.1422 O   0  0  0  0  0  0  0  0  0  0  0  0
  2  1  1  6
  2  7  1  0
  2  3  1  0
  4  3  1  0
  4  5  1  0
  5  6  2  0
  7  8  2  0
  9  5  1  0
 10 11  1  0
 10  7  1  0
 11 12  1  1
 13 12  1  0
 14 15  1  0
 14 13  1  0
 16 15  1  0
 17 11  1  0
 18 17  2  0
 19 17  1  0
 20 24  1  0
 20 19  1  0
 20 21  1  6
 22 21  1  0
 23 22  2  0
 24 27  1  0
 25 24  2  0
 26 22  1  0
M  END
$$$$
