GNG.pdb
     RDKit          3D

 17 16  0  0  1  0  0  0  0  0999 V2000
    8.9205  -13.1306   17.4560 N   0  0  0  0  0  0  0  0  0  0  0  0
    8.6636  -14.4744   17.9949 C   0  0  0  0  0  0  0  0  0  0  0  0
    8.9380  -14.4337   19.4508 C   0  0  0  0  0  0  0  0  0  0  0  0
    9.7004  -13.5426   19.9298 O   0  0  0  0  0  0  0  0  0  0  0  0
    5.5978  -15.1418   21.5144 N   0  0  0  0  0  0  0  0  0  0  0  0
    6.5230  -15.0995   22.5907 C   0  0  0  0  0  0  0  0  0  0  0  0
    6.2839  -14.2927   23.5256 O   0  0  0  0  0  0  0  0  0  0  0  0
    7.7478  -15.9500   22.6619 C   0  0  0  0  0  0  0  0  0  0  0  0
    8.7846  -15.3316   21.7315 C   0  0  2  0  0  0  0  0  0  0  0  0
    8.3724  -15.3702   20.3649 N   0  0  0  0  0  0  0  0  0  0  0  0
   10.0649  -16.0590   21.8634 C   0  0  0  0  0  0  0  0  0  0  0  0
   10.2294  -17.1976   21.3613 O   0  0  0  0  0  0  0  0  0  0  0  0
   11.1842  -15.4979   22.5719 N   0  0  0  0  0  0  0  0  0  0  0  0
   12.1891  -16.3376   23.1793 C   0  0  0  0  0  0  0  0  0  0  0  0
   13.4519  -16.2842   22.4053 C   0  0  0  0  0  0  0  0  0  0  0  0
   13.4856  -15.6952   21.3124 O   0  0  0  0  0  0  0  0  0  0  0  0
   14.6153  -16.8845   22.8813 O   0  0  0  0  0  0  0  0  0  0  0  0
  1  2  1  0
  2  3  1  0
  3  4  2  0
  3 10  1  0
  6  7  2  0
  6  5  1  0
  9  8  1  1
  8  6  1  0
  9 11  1  0
 10  9  1  0
 11 12  2  0
 13 11  1  0
 13 14  1  0
 15 14  1  0
 15 17  1  0
 16 15  2  0
M  END
$$$$
