GNG.pdb
     RDKit          3D

 17 16  0  0  1  0  0  0  0  0999 V2000
    8.1294  -19.4042   19.0127 N   0  0  0  0  0  0  0  0  0  0  0  0
    7.2934  -18.5057   19.8227 C   0  0  0  0  0  0  0  0  0  0  0  0
    8.1280  -17.3434   20.2088 C   0  0  0  0  0  0  0  0  0  0  0  0
    9.3797  -17.3669   20.0156 O   0  0  0  0  0  0  0  0  0  0  0  0
    7.0908  -12.0314   19.4190 N   0  0  0  0  0  0  0  0  0  0  0  0
    7.5124  -13.3355   19.7900 C   0  0  0  0  0  0  0  0  0  0  0  0
    7.6870  -14.1702   18.8653 O   0  0  0  0  0  0  0  0  0  0  0  0
    7.7500  -13.7571   21.2022 C   0  0  0  0  0  0  0  0  0  0  0  0
    8.4622  -15.1040   21.1600 C   0  0  2  0  0  0  0  0  0  0  0  0
    7.5801  -16.1681   20.8014 N   0  0  0  0  0  0  0  0  0  0  0  0
    9.0470  -15.3967   22.4860 C   0  0  0  0  0  0  0  0  0  0  0  0
    8.3548  -15.3624   23.5324 O   0  0  0  0  0  0  0  0  0  0  0  0
   10.4364  -15.7360   22.6416 N   0  0  0  0  0  0  0  0  0  0  0  0
   10.9840  -16.0987   23.9271 C   0  0  0  0  0  0  0  0  0  0  0  0
   12.4234  -16.4310   23.8067 C   0  0  0  0  0  0  0  0  0  0  0  0
   12.9710  -16.4235   22.6920 O   0  0  0  0  0  0  0  0  0  0  0  0
   13.1851  -16.7536   24.9275 O   0  0  0  0  0  0  0  0  0  0  0  0
  1  2  1  0
  2  3  1  0
  3  4  2  0
  3 10  1  0
  6  7  2  0
  6  5  1  0
  9  8  1  1
  8  6  1  0
  9 11  1  0
 10  9  1  0
 11 12  2  0
 13 11  1  0
 13 14  1  0
 15 14  1  0
 15 17  1  0
 16 15  2  0
M  END
$$$$
