GNG.pdb
     RDKit          3D

 17 16  0  0  1  0  0  0  0  0999 V2000
   -6.1105  -24.8111   26.3033 N   0  0  0  0  0  0  0  0  0  0  0  0
   -5.5115  -25.6933   27.3157 C   0  0  0  0  0  0  0  0  0  0  0  0
   -5.7229  -25.0638   28.6406 C   0  0  0  0  0  0  0  0  0  0  0  0
   -4.7315  -24.7878   29.3793 O   0  0  0  0  0  0  0  0  0  0  0  0
   -8.7473  -21.6777   28.5592 N   0  0  0  0  0  0  0  0  0  0  0  0
   -8.0257  -22.0274   29.7310 C   0  0  0  0  0  0  0  0  0  0  0  0
   -7.0815  -21.2704   30.0744 O   0  0  0  0  0  0  0  0  0  0  0  0
   -8.3266  -23.2328   30.5584 C   0  0  0  0  0  0  0  0  0  0  0  0
   -7.1316  -24.1719   30.4439 C   0  0  2  0  0  0  0  0  0  0  0  0
   -7.0193  -24.7433   29.1400 N   0  0  0  0  0  0  0  0  0  0  0  0
   -7.2629  -25.2635   31.4323 C   0  0  0  0  0  0  0  0  0  0  0  0
   -8.1069  -26.1816   31.2904 O   0  0  0  0  0  0  0  0  0  0  0  0
   -6.4301  -25.3275   32.6036 N   0  0  0  0  0  0  0  0  0  0  0  0
   -6.5846  -26.3780   33.5816 C   0  0  0  0  0  0  0  0  0  0  0  0
   -5.9181  -27.6201   33.1237 C   0  0  0  0  0  0  0  0  0  0  0  0
   -4.7853  -27.5661   32.6173 O   0  0  0  0  0  0  0  0  0  0  0  0
   -6.5389  -28.8606   33.2511 O   0  0  0  0  0  0  0  0  0  0  0  0
  1  2  1  0
  2  3  1  0
  3  4  2  0
  3 10  1  0
  6  7  2  0
  6  5  1  0
  9  8  1  6
  8  6  1  0
  9 11  1  0
 10  9  1  0
 11 12  2  0
 13 11  1  0
 13 14  1  0
 15 14  1  0
 15 17  1  0
 16 15  2  0
M  END
$$$$
