GNG.pdb
     RDKit          3D

 17 16  0  0  1  0  0  0  0  0999 V2000
    8.6570  -19.0960   18.6961 N   0  0  0  0  0  0  0  0  0  0  0  0
    7.5922  -18.2761   19.2930 C   0  0  0  0  0  0  0  0  0  0  0  0
    8.2381  -17.1301   19.9757 C   0  0  0  0  0  0  0  0  0  0  0  0
    9.5013  -17.0531   20.0323 O   0  0  0  0  0  0  0  0  0  0  0  0
    7.4614  -11.7278   19.5600 N   0  0  0  0  0  0  0  0  0  0  0  0
    7.5525  -13.1189   19.8294 C   0  0  0  0  0  0  0  0  0  0  0  0
    7.7676  -13.8826   18.8532 O   0  0  0  0  0  0  0  0  0  0  0  0
    7.4036  -13.7086   21.1926 C   0  0  0  0  0  0  0  0  0  0  0  0
    8.1975  -15.0094   21.2137 C   0  0  2  0  0  0  0  0  0  0  0  0
    7.4913  -16.0811   20.5877 N   0  0  0  0  0  0  0  0  0  0  0  0
    8.4929  -15.3868   22.6124 C   0  0  0  0  0  0  0  0  0  0  0  0
    7.5994  -15.3967   23.4938 O   0  0  0  0  0  0  0  0  0  0  0  0
    9.8172  -15.7618   23.0311 N   0  0  0  0  0  0  0  0  0  0  0  0
   10.0957  -16.1467   24.3942 C   0  0  0  0  0  0  0  0  0  0  0  0
   11.5501  -16.3529   24.5920 C   0  0  0  0  0  0  0  0  0  0  0  0
   12.3416  -16.1224   23.6630 O   0  0  0  0  0  0  0  0  0  0  0  0
   12.0557  -16.8025   25.8096 O   0  0  0  0  0  0  0  0  0  0  0  0
  1  2  1  0
  2  3  1  0
  3  4  2  0
  3 10  1  0
  6  7  2  0
  6  5  1  0
  9  8  1  1
  8  6  1  0
  9 11  1  0
 10  9  1  0
 11 12  2  0
 13 11  1  0
 13 14  1  0
 15 14  1  0
 15 17  1  0
 16 15  2  0
M  END
$$$$
