GNG.pdb
     RDKit          3D

 17 16  0  0  1  0  0  0  0  0999 V2000
    8.2493  -18.9983   18.0894 N   0  0  0  0  0  0  0  0  0  0  0  0
    7.5276  -18.4125   19.2287 C   0  0  0  0  0  0  0  0  0  0  0  0
    8.2781  -17.2114   19.6653 C   0  0  0  0  0  0  0  0  0  0  0  0
    9.5224  -17.1239   19.4449 O   0  0  0  0  0  0  0  0  0  0  0  0
    6.2044  -12.6817   19.1819 N   0  0  0  0  0  0  0  0  0  0  0  0
    7.4306  -13.2821   19.5721 C   0  0  0  0  0  0  0  0  0  0  0  0
    8.3120  -13.4223   18.6857 O   0  0  0  0  0  0  0  0  0  0  0  0
    7.7168  -13.7507   20.9602 C   0  0  0  0  0  0  0  0  0  0  0  0
    8.4756  -15.0677   20.8473 C   0  0  2  0  0  0  0  0  0  0  0  0
    7.6551  -16.1195   20.3378 N   0  0  0  0  0  0  0  0  0  0  0  0
    8.9836  -15.4624   22.1785 C   0  0  0  0  0  0  0  0  0  0  0  0
    8.2120  -15.6274   23.1546 O   0  0  0  0  0  0  0  0  0  0  0  0
   10.3854  -15.6775   22.4198 N   0  0  0  0  0  0  0  0  0  0  0  0
   10.8713  -16.1016   23.7113 C   0  0  0  0  0  0  0  0  0  0  0  0
   12.3232  -16.3937   23.6530 C   0  0  0  0  0  0  0  0  0  0  0  0
   12.9290  -16.3159   22.5716 O   0  0  0  0  0  0  0  0  0  0  0  0
   13.0323  -16.7559   24.7960 O   0  0  0  0  0  0  0  0  0  0  0  0
  1  2  1  0
  2  3  1  0
  3  4  2  0
  3 10  1  0
  6  7  2  0
  6  5  1  0
  9  8  1  1
  8  6  1  0
  9 11  1  0
 10  9  1  0
 11 12  2  0
 13 11  1  0
 13 14  1  0
 15 14  1  0
 15 17  1  0
 16 15  2  0
M  END
$$$$
