GNG.pdb
     RDKit          3D

 17 16  0  0  1  0  0  0  0  0999 V2000
    9.0336  -19.0054   18.7044 N   0  0  0  0  0  0  0  0  0  0  0  0
    7.9449  -18.3486   19.4430 C   0  0  0  0  0  0  0  0  0  0  0  0
    8.4782  -17.0801   19.9937 C   0  0  0  0  0  0  0  0  0  0  0  0
    9.7286  -16.8831   20.0412 O   0  0  0  0  0  0  0  0  0  0  0  0
    8.2489  -11.9595   19.0646 N   0  0  0  0  0  0  0  0  0  0  0  0
    7.6627  -13.2026   19.4216 C   0  0  0  0  0  0  0  0  0  0  0  0
    7.3353  -13.9761   18.4852 O   0  0  0  0  0  0  0  0  0  0  0  0
    7.4169  -13.6261   20.8318 C   0  0  0  0  0  0  0  0  0  0  0  0
    8.2349  -14.8888   21.0756 C   0  0  2  0  0  0  0  0  0  0  0  0
    7.6339  -16.0417   20.4852 N   0  0  0  0  0  0  0  0  0  0  0  0
    8.3734  -15.1161   22.5299 C   0  0  0  0  0  0  0  0  0  0  0  0
    7.3914  -15.4389   23.2417 O   0  0  0  0  0  0  0  0  0  0  0  0
    9.6393  -14.9796   23.1997 N   0  0  0  0  0  0  0  0  0  0  0  0
    9.7543  -15.1273   24.6310 C   0  0  0  0  0  0  0  0  0  0  0  0
   10.4940  -16.3660   24.9705 C   0  0  0  0  0  0  0  0  0  0  0  0
   10.7834  -17.1802   24.0785 O   0  0  0  0  0  0  0  0  0  0  0  0
   10.8778  -16.6403   26.2812 O   0  0  0  0  0  0  0  0  0  0  0  0
  1  2  1  0
  2  3  1  0
  3  4  2  0
  3 10  1  0
  6  7  2  0
  6  5  1  0
  9  8  1  1
  8  6  1  0
  9 11  1  0
 10  9  1  0
 11 12  2  0
 13 11  1  0
 13 14  1  0
 15 14  1  0
 15 17  1  0
 16 15  2  0
M  END
$$$$
