GNG.pdb
     RDKit          3D

 17 16  0  0  1  0  0  0  0  0999 V2000
    8.7520  -13.6101   17.1795 N   0  0  0  0  0  0  0  0  0  0  0  0
    8.3427  -14.7649   17.9925 C   0  0  0  0  0  0  0  0  0  0  0  0
    8.9098  -14.5814   19.3495 C   0  0  0  0  0  0  0  0  0  0  0  0
    9.8248  -13.7279   19.5465 O   0  0  0  0  0  0  0  0  0  0  0  0
    6.7573  -13.3249   22.3923 N   0  0  0  0  0  0  0  0  0  0  0  0
    6.9381  -14.7238   22.5551 C   0  0  0  0  0  0  0  0  0  0  0  0
    5.9315  -15.4591   22.3865 O   0  0  0  0  0  0  0  0  0  0  0  0
    8.2434  -15.3523   22.9150 C   0  0  0  0  0  0  0  0  0  0  0  0
    9.1670  -15.2010   21.7120 C   0  0  2  0  0  0  0  0  0  0  0  0
    8.4661  -15.3355   20.4752 N   0  0  0  0  0  0  0  0  0  0  0  0
   10.2296  -16.2274   21.7712 C   0  0  0  0  0  0  0  0  0  0  0  0
   10.0307  -17.4033   21.3801 O   0  0  0  0  0  0  0  0  0  0  0  0
   11.5423  -15.9287   22.2783 N   0  0  0  0  0  0  0  0  0  0  0  0
   12.6079  -16.9014   22.2304 C   0  0  0  0  0  0  0  0  0  0  0  0
   13.8306  -16.3689   22.8771 C   0  0  0  0  0  0  0  0  0  0  0  0
   14.5514  -15.5597   22.2704 O   0  0  0  0  0  0  0  0  0  0  0  0
   14.1932  -16.7582   24.1645 O   0  0  0  0  0  0  0  0  0  0  0  0
  1  2  1  0
  2  3  1  0
  3  4  2  0
  3 10  1  0
  6  7  2  0
  6  5  1  0
  9  8  1  1
  8  6  1  0
  9 11  1  0
 10  9  1  0
 11 12  2  0
 13 11  1  0
 13 14  1  0
 15 14  1  0
 15 17  1  0
 16 15  2  0
M  END
$$$$
