GNG.pdb
     RDKit          3D

 17 16  0  0  1  0  0  0  0  0999 V2000
    7.9539  -18.5316   19.3536 N   0  0  0  0  0  0  0  0  0  0  0  0
    7.4102  -18.3416   20.7065 C   0  0  0  0  0  0  0  0  0  0  0  0
    8.1646  -17.2353   21.3417 C   0  0  0  0  0  0  0  0  0  0  0  0
    9.1148  -16.6740   20.7198 O   0  0  0  0  0  0  0  0  0  0  0  0
    7.2494  -16.2151   26.2044 N   0  0  0  0  0  0  0  0  0  0  0  0
    6.9401  -15.7097   24.9140 C   0  0  0  0  0  0  0  0  0  0  0  0
    5.8399  -16.0517   24.4090 O   0  0  0  0  0  0  0  0  0  0  0  0
    7.8454  -14.8104   24.1394 C   0  0  0  0  0  0  0  0  0  0  0  0
    8.6484  -15.6868   23.1855 C   0  0  2  0  0  0  0  0  0  0  0  0
    7.8677  -16.7566   22.6514 N   0  0  0  0  0  0  0  0  0  0  0  0
    9.8125  -16.2563   23.8973 C   0  0  0  0  0  0  0  0  0  0  0  0
    9.7226  -16.6719   25.0782 O   0  0  0  0  0  0  0  0  0  0  0  0
   11.1036  -16.3627   23.2717 N   0  0  0  0  0  0  0  0  0  0  0  0
   12.2932  -15.8472   23.9065 C   0  0  0  0  0  0  0  0  0  0  0  0
   13.4908  -16.1317   23.0810 C   0  0  0  0  0  0  0  0  0  0  0  0
   14.6221  -15.8560   23.5129 O   0  0  0  0  0  0  0  0  0  0  0  0
   13.3758  -16.7092   21.8186 O   0  0  0  0  0  0  0  0  0  0  0  0
  1  2  1  0
  2  3  1  0
  3  4  2  0
  3 10  1  0
  6  7  2  0
  6  5  1  0
  9  8  1  1
  8  6  1  0
  9 11  1  0
 10  9  1  0
 11 12  2  0
 13 11  1  0
 13 14  1  0
 15 14  1  0
 15 17  1  0
 16 15  2  0
M  END
$$$$
