GNG.pdb
     RDKit          3D

 17 16  0  0  1  0  0  0  0  0999 V2000
    8.3701  -18.9575   19.1666 N   0  0  0  0  0  0  0  0  0  0  0  0
    7.3491  -18.2708   19.9716 C   0  0  0  0  0  0  0  0  0  0  0  0
    8.0083  -17.1339   20.6569 C   0  0  0  0  0  0  0  0  0  0  0  0
    9.2708  -17.0304   20.6466 O   0  0  0  0  0  0  0  0  0  0  0  0
    7.0109  -12.1904   19.6934 N   0  0  0  0  0  0  0  0  0  0  0  0
    7.6302  -13.2930   20.3391 C   0  0  0  0  0  0  0  0  0  0  0  0
    8.4746  -13.9493   19.6770 O   0  0  0  0  0  0  0  0  0  0  0  0
    7.3284  -13.7058   21.7416 C   0  0  0  0  0  0  0  0  0  0  0  0
    7.9931  -15.0583   21.9696 C   0  0  2  0  0  0  0  0  0  0  0  0
    7.2752  -16.1229   21.3448 N   0  0  0  0  0  0  0  0  0  0  0  0
    8.0794  -15.3295   23.4204 C   0  0  0  0  0  0  0  0  0  0  0  0
    8.4294  -14.4418   24.2359 O   0  0  0  0  0  0  0  0  0  0  0  0
    7.7659  -16.6222   23.9683 N   0  0  0  0  0  0  0  0  0  0  0  0
    7.7678  -16.8577   25.3925 C   0  0  0  0  0  0  0  0  0  0  0  0
    7.3497  -18.2476   25.6927 C   0  0  0  0  0  0  0  0  0  0  0  0
    7.1511  -19.0499   24.7657 O   0  0  0  0  0  0  0  0  0  0  0  0
    7.1741  -18.6802   27.0051 O   0  0  0  0  0  0  0  0  0  0  0  0
  1  2  1  0
  2  3  1  0
  3  4  2  0
  3 10  1  0
  6  7  2  0
  6  5  1  0
  9  8  1  1
  8  6  1  0
  9 11  1  0
 10  9  1  0
 11 12  2  0
 13 11  1  0
 13 14  1  0
 15 14  1  0
 15 17  1  0
 16 15  2  0
M  END
$$$$
