PQH.pdb
     RDKit          3D

 27 28  0  0  1  0  0  0  0  0999 V2000
   28.3893  -19.0575  -16.2247 N   0  0  0  0  0  0  0  0  0  0  0  0
   29.7257  -19.3391  -16.6498 C   0  0  0  0  0  0  0  0  0  0  0  0
   29.6968  -19.6563  -18.1120 C   0  0  0  0  0  0  0  0  0  0  0  0
   28.4497  -18.9745  -18.5891 C   0  0  0  0  0  0  0  0  0  0  0  0
   27.6399  -18.6007  -17.3606 C   0  0  1  0  0  0  0  0  0  0  0  0
   26.3103  -19.2481  -17.4637 C   0  0  0  0  0  0  0  0  0  0  0  0
   25.5806  -18.9076  -18.4292 O   0  0  0  0  0  0  0  0  0  0  0  0
   24.3098  -24.9572  -16.3577 N   0  0  0  0  0  0  0  0  0  0  0  0
   25.5053  -24.3320  -15.9115 C   0  0  0  0  0  0  0  0  0  0  0  0
   26.3577  -25.0580  -15.3566 O   0  0  0  0  0  0  0  0  0  0  0  0
   25.6406  -22.8922  -16.1365 C   0  0  0  0  0  0  0  0  0  0  0  0
   24.5080  -22.2379  -16.8658 C   0  0  0  0  0  0  0  0  0  0  0  0
   24.4640  -20.7802  -16.6351 C   0  0  2  0  0  0  0  0  0  0  0  0
   25.8144  -20.2021  -16.5719 N   0  0  0  0  0  0  0  0  0  0  0  0
   23.6859  -20.3618  -15.4427 C   0  0  0  0  0  0  0  0  0  0  0  0
   24.1678  -19.8554  -14.4053 O   0  0  0  0  0  0  0  0  0  0  0  0
   22.2506  -20.5251  -15.4128 N   0  0  0  0  0  0  0  0  0  0  0  0
   21.4149  -19.5648  -14.6678 C   0  0  1  0  0  0  0  0  0  0  0  0
   21.6285  -18.2181  -15.3238 C   0  0  0  0  0  0  0  0  0  0  0  0
   20.8566  -17.1296  -14.7147 C   0  0  0  0  0  0  0  0  0  0  0  0
   20.0311  -17.3525  -13.6021 C   0  0  0  0  0  0  0  0  0  0  0  0
   19.4508  -16.2082  -13.2527 N   0  0  0  0  0  0  0  0  0  0  0  0
   19.8831  -15.2618  -14.1112 C   0  0  0  0  0  0  0  0  0  0  0  0
   20.7337  -15.8280  -14.9929 N   0  0  0  0  0  0  0  0  0  0  0  0
   19.9881  -19.9651  -14.8382 C   0  0  0  0  0  0  0  0  0  0  0  0
   19.1711  -19.8796  -13.6910 O   0  0  0  0  0  0  0  0  0  0  0  0
   19.4944  -20.3634  -15.9243 O   0  0  0  0  0  0  0  0  0  0  0  0
  1  2  1  0
  3  2  1  0
  4  3  1  0
  5  4  1  0
  5  1  1  0
  5  6  1  6
  7  6  2  0
  9  8  1  0
  9 10  2  0
 11 12  1  0
 11  9  1  0
 13 12  1  1
 13 14  1  0
 14  6  1  0
 15 17  1  0
 15 13  1  0
 16 15  2  0
 18 25  1  0
 18 17  1  0
 18 19  1  6
 20 19  1  0
 21 20  2  0
 22 21  1  0
 23 22  1  0
 23 24  2  0
 24 20  1  0
 25 26  1  0
 27 25  2  0
M  END
$$$$
