PQH.pdb
     RDKit          3D

 27 28  0  0  1  0  0  0  0  0999 V2000
   16.5921  -15.8545    3.5510 N   0  0  0  0  0  0  0  0  0  0  0  0
   16.0939  -14.6013    3.0741 C   0  0  0  0  0  0  0  0  0  0  0  0
   17.1814  -13.5820    3.2067 C   0  0  0  0  0  0  0  0  0  0  0  0
   18.4324  -14.4083    3.2007 C   0  0  0  0  0  0  0  0  0  0  0  0
   18.0213  -15.8535    3.4177 C   0  0  1  0  0  0  0  0  0  0  0  0
   18.7071  -16.3562    4.6320 C   0  0  0  0  0  0  0  0  0  0  0  0
   19.9613  -16.4335    4.5910 O   0  0  0  0  0  0  0  0  0  0  0  0
   17.7876  -14.5839   10.3642 N   0  0  0  0  0  0  0  0  0  0  0  0
   18.7828  -15.5794   10.5583 C   0  0  0  0  0  0  0  0  0  0  0  0
   19.3430  -15.6181   11.6746 O   0  0  0  0  0  0  0  0  0  0  0  0
   19.0710  -16.4758    9.4378 C   0  0  0  0  0  0  0  0  0  0  0  0
   18.3498  -16.1739    8.1604 C   0  0  0  0  0  0  0  0  0  0  0  0
   18.7536  -17.0778    7.0650 C   0  0  2  0  0  0  0  0  0  0  0  0
   18.0644  -16.7466    5.8092 N   0  0  0  0  0  0  0  0  0  0  0  0
   18.5891  -18.5233    7.3581 C   0  0  0  0  0  0  0  0  0  0  0  0
   17.5333  -19.1769    7.2065 O   0  0  0  0  0  0  0  0  0  0  0  0
   19.7001  -19.2976    7.8620 N   0  0  0  0  0  0  0  0  0  0  0  0
   19.5256  -20.7326    8.1552 C   0  0  1  0  0  0  0  0  0  0  0  0
   20.5264  -21.4673    7.2902 C   0  0  0  0  0  0  0  0  0  0  0  0
   19.9722  -21.9584    6.0240 C   0  0  0  0  0  0  0  0  0  0  0  0
   18.6272  -21.7478    5.6842 C   0  0  0  0  0  0  0  0  0  0  0  0
   18.3875  -22.2899    4.4939 N   0  0  0  0  0  0  0  0  0  0  0  0
   19.5419  -22.8403    4.0650 C   0  0  0  0  0  0  0  0  0  0  0  0
   20.4961  -22.6351    4.9972 N   0  0  0  0  0  0  0  0  0  0  0  0
   19.8696  -20.9559    9.5894 C   0  0  0  0  0  0  0  0  0  0  0  0
   19.7815  -22.2845   10.0562 O   0  0  0  0  0  0  0  0  0  0  0  0
   20.2238  -20.0425   10.3780 O   0  0  0  0  0  0  0  0  0  0  0  0
  1  2  1  0
  3  2  1  0
  4  3  1  0
  5  4  1  0
  5  1  1  0
  5  6  1  1
  7  6  2  0
  9  8  1  0
  9 10  2  0
 11 12  1  0
 11  9  1  0
 13 12  1  1
 13 14  1  0
 14  6  1  0
 15 17  1  0
 15 13  1  0
 16 15  2  0
 18 25  1  0
 18 17  1  0
 18 19  1  6
 20 19  1  0
 21 20  2  0
 22 21  1  0
 23 22  1  0
 23 24  2  0
 24 20  1  0
 25 26  1  0
 27 25  2  0
M  END
$$$$
