PQH.pdb
     RDKit          3D

 27 28  0  0  1  0  0  0  0  0999 V2000
   15.7865  -17.6037    4.8810 N   0  0  0  0  0  0  0  0  0  0  0  0
   14.5862  -17.3590    4.1426 C   0  0  0  0  0  0  0  0  0  0  0  0
   14.9639  -16.8552    2.7851 C   0  0  0  0  0  0  0  0  0  0  0  0
   16.3529  -17.3857    2.5936 C   0  0  0  0  0  0  0  0  0  0  0  0
   16.8472  -17.8599    3.9484 C   0  0  1  0  0  0  0  0  0  0  0  0
   18.0874  -17.1178    4.2782 C   0  0  0  0  0  0  0  0  0  0  0  0
   19.0982  -17.3462    3.5663 O   0  0  0  0  0  0  0  0  0  0  0  0
   18.8165  -11.2019    5.6882 N   0  0  0  0  0  0  0  0  0  0  0  0
   20.1474  -11.6780    5.8341 C   0  0  0  0  0  0  0  0  0  0  0  0
   21.0535  -10.8229    5.9297 O   0  0  0  0  0  0  0  0  0  0  0  0
   20.3487  -13.1274    5.8594 C   0  0  0  0  0  0  0  0  0  0  0  0
   19.1135  -13.9592    5.6997 C   0  0  0  0  0  0  0  0  0  0  0  0
   19.4214  -15.3986    5.5849 C   0  0  2  0  0  0  0  0  0  0  0  0
   18.2121  -16.1901    5.3151 N   0  0  0  0  0  0  0  0  0  0  0  0
   20.1462  -15.9746    6.7447 C   0  0  0  0  0  0  0  0  0  0  0  0
   21.3436  -15.7538    7.0321 O   0  0  0  0  0  0  0  0  0  0  0  0
   19.4721  -16.8708    7.6558 N   0  0  0  0  0  0  0  0  0  0  0  0
   20.1941  -17.4198    8.8190 C   0  0  1  0  0  0  0  0  0  0  0  0
   20.3769  -16.2706    9.7862 C   0  0  0  0  0  0  0  0  0  0  0  0
   21.7441  -16.1365   10.3004 C   0  0  0  0  0  0  0  0  0  0  0  0
   22.7776  -16.9755    9.8566 C   0  0  0  0  0  0  0  0  0  0  0  0
   23.9061  -16.6437   10.4768 N   0  0  0  0  0  0  0  0  0  0  0  0
   23.6213  -15.6166   11.3036 C   0  0  0  0  0  0  0  0  0  0  0  0
   22.3104  -15.3159   11.1906 N   0  0  0  0  0  0  0  0  0  0  0  0
   19.3270  -18.4539    9.4546 C   0  0  0  0  0  0  0  0  0  0  0  0
   19.8501  -19.0951   10.5974 O   0  0  0  0  0  0  0  0  0  0  0  0
   18.1858  -18.7712    9.0318 O   0  0  0  0  0  0  0  0  0  0  0  0
  1  2  1  0
  3  2  1  0
  4  3  1  0
  5  4  1  0
  5  1  1  0
  5  6  1  1
  7  6  2  0
  9  8  1  0
  9 10  2  0
 11 12  1  0
 11  9  1  0
 13 12  1  1
 13 14  1  0
 14  6  1  0
 15 17  1  0
 15 13  1  0
 16 15  2  0
 18 25  1  0
 18 17  1  0
 18 19  1  1
 20 19  1  0
 21 20  2  0
 22 21  1  0
 23 22  1  0
 23 24  2  0
 24 20  1  0
 25 26  1  0
 27 25  2  0
M  END
$$$$
