PQH.pdb
     RDKit          3D

 27 28  0  0  1  0  0  0  0  0999 V2000
   26.5509  -10.1670  -15.9503 N   0  0  0  0  0  0  0  0  0  0  0  0
   27.2428  -11.3887  -15.6768 C   0  0  0  0  0  0  0  0  0  0  0  0
   26.8534  -12.3922  -16.7163 C   0  0  0  0  0  0  0  0  0  0  0  0
   26.4184  -11.5420  -17.8719 C   0  0  0  0  0  0  0  0  0  0  0  0
   26.2391  -10.1274  -17.3509 C   0  0  1  0  0  0  0  0  0  0  0  0
   24.8413   -9.7080  -17.6117 C   0  0  0  0  0  0  0  0  0  0  0  0
   24.5229   -9.4881  -18.8079 O   0  0  0  0  0  0  0  0  0  0  0  0
   19.4987  -11.3639  -14.8587 N   0  0  0  0  0  0  0  0  0  0  0  0
   19.0669  -10.2905  -15.6837 C   0  0  0  0  0  0  0  0  0  0  0  0
   17.8348  -10.1140  -15.7942 O   0  0  0  0  0  0  0  0  0  0  0  0
   20.0973   -9.4816  -16.3362 C   0  0  0  0  0  0  0  0  0  0  0  0
   21.5109   -9.9209  -16.1088 C   0  0  0  0  0  0  0  0  0  0  0  0
   22.4748   -9.1296  -16.8992 C   0  0  2  0  0  0  0  0  0  0  0  0
   23.8605   -9.5414  -16.6311 N   0  0  0  0  0  0  0  0  0  0  0  0
   22.3517   -7.6593  -16.7404 C   0  0  0  0  0  0  0  0  0  0  0  0
   22.8827   -6.9825  -15.8321 O   0  0  0  0  0  0  0  0  0  0  0  0
   21.5692   -6.8862  -17.6773 N   0  0  0  0  0  0  0  0  0  0  0  0
   21.4238   -5.4302  -17.4912 C   0  0  1  0  0  0  0  0  0  0  0  0
   21.6085   -4.8071  -18.8577 C   0  0  0  0  0  0  0  0  0  0  0  0
   21.5097   -3.3436  -18.8633 C   0  0  0  0  0  0  0  0  0  0  0  0
   22.0878   -2.5680  -17.8468 C   0  0  0  0  0  0  0  0  0  0  0  0
   21.8528   -1.2823  -18.0914 N   0  0  0  0  0  0  0  0  0  0  0  0
   21.1410   -1.2162  -19.2354 C   0  0  0  0  0  0  0  0  0  0  0  0
   20.9377   -2.4684  -19.6960 N   0  0  0  0  0  0  0  0  0  0  0  0
   20.0339   -5.1615  -17.0208 C   0  0  0  0  0  0  0  0  0  0  0  0
   19.8881   -4.1671  -16.0304 O   0  0  0  0  0  0  0  0  0  0  0  0
   19.0168   -5.7621  -17.4528 O   0  0  0  0  0  0  0  0  0  0  0  0
  1  2  1  0
  3  2  1  0
  4  3  1  0
  5  4  1  0
  5  1  1  0
  5  6  1  1
  7  6  2  0
  9  8  1  0
  9 10  2  0
 11 12  1  0
 11  9  1  0
 13 12  1  1
 13 14  1  0
 14  6  1  0
 15 17  1  0
 15 13  1  0
 16 15  2  0
 18 25  1  0
 18 17  1  0
 18 19  1  6
 20 19  1  0
 21 20  2  0
 22 21  1  0
 23 22  1  0
 23 24  2  0
 24 20  1  0
 25 26  1  0
 27 25  2  0
M  END
$$$$
