PQH.pdb
     RDKit          3D

 27 28  0  0  1  0  0  0  0  0999 V2000
   19.3320  -13.7168  -17.0396 N   0  0  0  0  0  0  0  0  0  0  0  0
   17.9248  -13.9470  -16.9264 C   0  0  0  0  0  0  0  0  0  0  0  0
   17.2497  -12.6306  -16.7016 C   0  0  0  0  0  0  0  0  0  0  0  0
   18.2183  -11.6424  -17.2786 C   0  0  0  0  0  0  0  0  0  0  0  0
   19.5353  -12.3681  -17.4871 C   0  0  1  0  0  0  0  0  0  0  0  0
   20.5842  -11.6628  -16.7125 C   0  0  0  0  0  0  0  0  0  0  0  0
   20.2435  -11.1618  -15.6109 O   0  0  0  0  0  0  0  0  0  0  0  0
   26.9158  -12.0327  -16.6792 N   0  0  0  0  0  0  0  0  0  0  0  0
   26.6846  -10.7797  -16.0501 C   0  0  0  0  0  0  0  0  0  0  0  0
   27.6795  -10.1761  -15.5948 O   0  0  0  0  0  0  0  0  0  0  0  0
   25.3036  -10.2993  -15.9858 C   0  0  0  0  0  0  0  0  0  0  0  0
   24.2775  -11.1790  -16.6309 C   0  0  0  0  0  0  0  0  0  0  0  0
   22.9047  -10.6735  -16.4315 C   0  0  2  0  0  0  0  0  0  0  0  0
   21.9136  -11.5167  -17.1159 N   0  0  0  0  0  0  0  0  0  0  0  0
   22.7021   -9.2543  -16.8148 C   0  0  0  0  0  0  0  0  0  0  0  0
   22.6695   -8.8188  -17.9872 O   0  0  0  0  0  0  0  0  0  0  0  0
   22.5213   -8.2420  -15.7998 N   0  0  0  0  0  0  0  0  0  0  0  0
   22.1475   -6.8685  -16.1869 C   0  0  1  0  0  0  0  0  0  0  0  0
   20.8059   -6.9729  -16.8789 C   0  0  0  0  0  0  0  0  0  0  0  0
   20.2214   -5.6779  -17.2434 C   0  0  0  0  0  0  0  0  0  0  0  0
   21.0142   -4.6312  -17.7381 C   0  0  0  0  0  0  0  0  0  0  0  0
   20.2414   -3.5782  -17.9873 N   0  0  0  0  0  0  0  0  0  0  0  0
   18.9779   -3.9240  -17.6654 C   0  0  0  0  0  0  0  0  0  0  0  0
   18.9747   -5.1966  -17.2159 N   0  0  0  0  0  0  0  0  0  0  0  0
   21.9877   -6.0650  -14.9403 C   0  0  0  0  0  0  0  0  0  0  0  0
   22.2420   -4.6813  -15.0490 O   0  0  0  0  0  0  0  0  0  0  0  0
   21.6472   -6.5489  -13.8305 O   0  0  0  0  0  0  0  0  0  0  0  0
  1  2  1  0
  3  2  1  0
  4  3  1  0
  5  4  1  0
  5  1  1  0
  5  6  1  1
  7  6  2  0
  9  8  1  0
  9 10  2  0
 11 12  1  0
 11  9  1  0
 13 12  1  6
 13 14  1  0
 14  6  1  0
 15 17  1  0
 15 13  1  0
 16 15  2  0
 18 25  1  0
 18 17  1  0
 18 19  1  1
 20 19  1  0
 21 20  2  0
 22 21  1  0
 23 22  1  0
 23 24  2  0
 24 20  1  0
 25 26  1  0
 27 25  2  0
M  END
$$$$
