PQH.pdb
     RDKit          3D

 27 28  0  0  1  0  0  0  0  0999 V2000
   26.8327  -19.4657  -15.4979 N   0  0  0  0  0  0  0  0  0  0  0  0
   28.2283  -19.1527  -15.5181 C   0  0  0  0  0  0  0  0  0  0  0  0
   28.9636  -20.2367  -14.7944 C   0  0  0  0  0  0  0  0  0  0  0  0
   28.0392  -21.4122  -14.9011 C   0  0  0  0  0  0  0  0  0  0  0  0
   26.6898  -20.8870  -15.3569 C   0  0  1  0  0  0  0  0  0  0  0  0
   25.6768  -21.2596  -14.3407 C   0  0  0  0  0  0  0  0  0  0  0  0
   25.3521  -22.4724  -14.2733 O   0  0  0  0  0  0  0  0  0  0  0  0
   24.7471  -20.8384   -8.4716 N   0  0  0  0  0  0  0  0  0  0  0  0
   25.9047  -20.8503   -9.2957 C   0  0  0  0  0  0  0  0  0  0  0  0
   26.9926  -21.1330   -8.7497 O   0  0  0  0  0  0  0  0  0  0  0  0
   25.7296  -20.5305  -10.7131 C   0  0  0  0  0  0  0  0  0  0  0  0
   24.3302  -20.2115  -11.1406 C   0  0  0  0  0  0  0  0  0  0  0  0
   24.0246  -20.7368  -12.4862 C   0  0  2  0  0  0  0  0  0  0  0  0
   25.0625  -20.3667  -13.4594 N   0  0  0  0  0  0  0  0  0  0  0  0
   22.6894  -20.3601  -13.0131 C   0  0  0  0  0  0  0  0  0  0  0  0
   22.3181  -19.1950  -13.2773 O   0  0  0  0  0  0  0  0  0  0  0  0
   21.6904  -21.3734  -13.2640 N   0  0  0  0  0  0  0  0  0  0  0  0
   20.3305  -20.9810  -13.6790 C   0  0  1  0  0  0  0  0  0  0  0  0
   20.4771  -20.2967  -15.0206 C   0  0  0  0  0  0  0  0  0  0  0  0
   21.1238  -21.1248  -16.0442 C   0  0  0  0  0  0  0  0  0  0  0  0
   21.8823  -22.2538  -15.6992 C   0  0  0  0  0  0  0  0  0  0  0  0
   22.3528  -22.8190  -16.8070 N   0  0  0  0  0  0  0  0  0  0  0  0
   21.9157  -22.0821  -17.8489 C   0  0  0  0  0  0  0  0  0  0  0  0
   21.1725  -21.0585  -17.3783 N   0  0  0  0  0  0  0  0  0  0  0  0
   19.5249  -22.2240  -13.8553 C   0  0  0  0  0  0  0  0  0  0  0  0
   18.1662  -22.0484  -14.1927 O   0  0  0  0  0  0  0  0  0  0  0  0
   19.9866  -23.3862  -13.7212 O   0  0  0  0  0  0  0  0  0  0  0  0
  1  2  1  0
  3  2  1  0
  4  3  1  0
  5  4  1  0
  5  1  1  0
  5  6  1  1
  7  6  2  0
  9  8  1  0
  9 10  2  0
 11 12  1  0
 11  9  1  0
 13 12  1  1
 13 14  1  0
 14  6  1  0
 15 17  1  0
 15 13  1  0
 16 15  2  0
 18 25  1  0
 18 17  1  0
 18 19  1  6
 20 19  1  0
 21 20  2  0
 22 21  1  0
 23 22  1  0
 23 24  2  0
 24 20  1  0
 25 26  1  0
 27 25  2  0
M  END
$$$$
