PQH.pdb
     RDKit          3D

 27 28  0  0  1  0  0  0  0  0999 V2000
   24.4261  -15.1827  -14.9819 N   0  0  0  0  0  0  0  0  0  0  0  0
   24.7554  -16.5525  -15.2293 C   0  0  0  0  0  0  0  0  0  0  0  0
   25.0605  -16.7069  -16.6861 C   0  0  0  0  0  0  0  0  0  0  0  0
   25.4669  -15.3252  -17.1025 C   0  0  0  0  0  0  0  0  0  0  0  0
   25.0526  -14.3773  -15.9915 C   0  0  1  0  0  0  0  0  0  0  0  0
   24.1344  -13.3629  -16.5621 C   0  0  0  0  0  0  0  0  0  0  0  0
   24.6090  -12.5815  -17.4251 O   0  0  0  0  0  0  0  0  0  0  0  0
   18.0651  -13.9449  -17.5147 N   0  0  0  0  0  0  0  0  0  0  0  0
   18.4852  -13.8039  -16.1646 C   0  0  0  0  0  0  0  0  0  0  0  0
   17.6715  -14.1329  -15.2751 O   0  0  0  0  0  0  0  0  0  0  0  0
   19.8327  -13.2852  -15.9259 C   0  0  0  0  0  0  0  0  0  0  0  0
   20.5728  -12.8124  -17.1390 C   0  0  0  0  0  0  0  0  0  0  0  0
   21.8810  -12.2188  -16.7981 C   0  0  2  0  0  0  0  0  0  0  0  0
   22.7902  -13.2147  -16.2122 N   0  0  0  0  0  0  0  0  0  0  0  0
   21.8130  -11.0263  -15.9175 C   0  0  0  0  0  0  0  0  0  0  0  0
   21.9653  -11.0339  -14.6758 O   0  0  0  0  0  0  0  0  0  0  0  0
   21.5531   -9.7193  -16.4762 N   0  0  0  0  0  0  0  0  0  0  0  0
   21.4179   -8.5508  -15.5862 C   0  0  1  0  0  0  0  0  0  0  0  0
   22.1888   -7.4262  -16.2423 C   0  0  0  0  0  0  0  0  0  0  0  0
   22.0809   -6.1420  -15.5416 C   0  0  0  0  0  0  0  0  0  0  0  0
   22.0800   -6.0717  -14.1402 C   0  0  0  0  0  0  0  0  0  0  0  0
   21.9719   -4.8001  -13.7668 N   0  0  0  0  0  0  0  0  0  0  0  0
   21.9038   -4.0574  -14.8908 C   0  0  0  0  0  0  0  0  0  0  0  0
   21.9705   -4.8776  -15.9606 N   0  0  0  0  0  0  0  0  0  0  0  0
   19.9744   -8.1789  -15.5287 C   0  0  0  0  0  0  0  0  0  0  0  0
   19.4998   -7.6965  -14.2907 O   0  0  0  0  0  0  0  0  0  0  0  0
   19.1848   -8.2726  -16.5031 O   0  0  0  0  0  0  0  0  0  0  0  0
  1  2  1  0
  3  2  1  0
  4  3  1  0
  5  4  1  0
  5  1  1  0
  5  6  1  6
  7  6  2  0
  9  8  1  0
  9 10  2  0
 11 12  1  0
 11  9  1  0
 13 12  1  1
 13 14  1  0
 14  6  1  0
 15 17  1  0
 15 13  1  0
 16 15  2  0
 18 25  1  0
 18 17  1  0
 18 19  1  6
 20 19  1  0
 21 20  2  0
 22 21  1  0
 23 22  1  0
 23 24  2  0
 24 20  1  0
 25 26  1  0
 27 25  2  0
M  END
$$$$
