GPT.pdb
     RDKit          3D

 19 19  0  0  1  0  0  0  0  0999 V2000
    7.9950  -16.8597   16.1439 N   0  0  0  0  0  0  0  0  0  0  0  0
    7.5528  -15.8121   17.0451 C   0  0  0  0  0  0  0  0  0  0  0  0
    8.5536  -15.5162   18.0887 C   0  0  0  0  0  0  0  0  0  0  0  0
    9.6162  -16.1700   18.1111 O   0  0  0  0  0  0  0  0  0  0  0  0
    8.3055  -14.5167   19.0346 N   0  0  0  0  0  0  0  0  0  0  0  0
    7.0978  -13.6876   19.0892 C   0  0  0  0  0  0  0  0  0  0  0  0
    7.6986  -12.3386   19.5160 C   0  0  0  0  0  0  0  0  0  0  0  0
    8.6476  -12.7728   20.6040 C   0  0  0  0  0  0  0  0  0  0  0  0
    9.1549  -14.1100   20.1082 C   0  0  1  0  0  0  0  0  0  0  0  0
    9.1151  -15.0502   21.2617 C   0  0  0  0  0  0  0  0  0  0  0  0
    8.0077  -15.3985   21.7489 O   0  0  0  0  0  0  0  0  0  0  0  0
    9.9002  -18.6355   21.5534 C   0  0  0  0  0  0  0  0  0  0  0  0
   10.7969  -17.9131   22.5399 C   0  0  1  0  0  0  0  0  0  0  0  0
   12.1012  -17.8260   22.0965 O   0  0  0  0  0  0  0  0  0  0  0  0
   10.2207  -16.5738   22.9354 C   0  0  2  0  0  0  0  0  0  0  0  0
   10.2724  -15.6069   21.8786 N   0  0  0  0  0  0  0  0  0  0  0  0
   11.0341  -16.0749   24.0731 C   0  0  0  0  0  0  0  0  0  0  0  0
   11.8238  -15.1046   23.9349 O   0  0  0  0  0  0  0  0  0  0  0  0
   10.9423  -16.6771   25.3414 O   0  0  0  0  0  0  0  0  0  0  0  0
  2  1  1  0
  3  2  1  0
  3  4  2  0
  5  3  1  0
  6  5  1  0
  7  8  1  0
  7  6  1  0
  8  9  1  0
  9 10  1  1
  9  5  1  0
 10 11  2  0
 13 12  1  6
 13 15  1  0
 13 14  1  0
 15 16  1  6
 16 10  1  0
 17 15  1  0
 17 19  1  0
 18 17  2  0
M  END
$$$$
