GPT.pdb
     RDKit          3D

 19 19  0  0  1  0  0  0  0  0999 V2000
    7.3102  -13.4816   20.9633 N   0  0  0  0  0  0  0  0  0  0  0  0
    6.7243  -13.0215   22.2083 C   0  0  0  0  0  0  0  0  0  0  0  0
    7.5322  -13.4094   23.3809 C   0  0  0  0  0  0  0  0  0  0  0  0
    8.6250  -13.9840   23.1997 O   0  0  0  0  0  0  0  0  0  0  0  0
    7.0715  -13.1337   24.6720 N   0  0  0  0  0  0  0  0  0  0  0  0
    5.8127  -12.4538   24.9914 C   0  0  0  0  0  0  0  0  0  0  0  0
    6.2423  -11.6178   26.2077 C   0  0  0  0  0  0  0  0  0  0  0  0
    7.0438  -12.6283   26.9882 C   0  0  0  0  0  0  0  0  0  0  0  0
    7.7161  -13.4473   25.9072 C   0  0  1  0  0  0  0  0  0  0  0  0
    7.5696  -14.8795   26.2857 C   0  0  0  0  0  0  0  0  0  0  0  0
    6.4216  -15.3788   26.4184 O   0  0  0  0  0  0  0  0  0  0  0  0
    7.8796  -17.8912   24.4302 C   0  0  0  0  0  0  0  0  0  0  0  0
    8.9063  -18.0010   25.5405 C   0  0  1  0  0  0  0  0  0  0  0  0
   10.1872  -17.7386   25.0981 O   0  0  0  0  0  0  0  0  0  0  0  0
    8.5175  -17.1686   26.7398 C   0  0  2  0  0  0  0  0  0  0  0  0
    8.6652  -15.7605   26.5168 N   0  0  0  0  0  0  0  0  0  0  0  0
    9.4178  -17.5686   27.8508 C   0  0  0  0  0  0  0  0  0  0  0  0
   10.2344  -16.7540   28.3546 O   0  0  0  0  0  0  0  0  0  0  0  0
    9.3809  -18.8751   28.3715 O   0  0  0  0  0  0  0  0  0  0  0  0
  2  1  1  0
  3  2  1  0
  3  4  2  0
  5  3  1  0
  6  5  1  0
  7  8  1  0
  7  6  1  0
  8  9  1  0
  9 10  1  1
  9  5  1  0
 10 11  2  0
 13 12  1  6
 13 15  1  0
 13 14  1  0
 15 16  1  6
 16 10  1  0
 17 15  1  0
 17 19  1  0
 18 17  2  0
M  END
$$$$
