GPT.pdb
     RDKit          3D

 19 19  0  0  1  0  0  0  0  0999 V2000
    8.3753  -16.9015   16.4867 N   0  0  0  0  0  0  0  0  0  0  0  0
    7.7968  -15.8615   17.3167 C   0  0  0  0  0  0  0  0  0  0  0  0
    8.6617  -15.5175   18.4621 C   0  0  0  0  0  0  0  0  0  0  0  0
    9.7243  -16.1501   18.6295 O   0  0  0  0  0  0  0  0  0  0  0  0
    8.2876  -14.4970   19.3416 N   0  0  0  0  0  0  0  0  0  0  0  0
    7.0586  -13.7043   19.2403 C   0  0  0  0  0  0  0  0  0  0  0  0
    7.5736  -12.3246   19.6810 C   0  0  0  0  0  0  0  0  0  0  0  0
    8.4135  -12.6948   20.8770 C   0  0  0  0  0  0  0  0  0  0  0  0
    9.0069  -14.0306   20.4837 C   0  0  1  0  0  0  0  0  0  0  0  0
    8.8709  -14.9349   21.6584 C   0  0  0  0  0  0  0  0  0  0  0  0
    7.7273  -15.2888   22.0483 O   0  0  0  0  0  0  0  0  0  0  0  0
    9.4929  -18.4545   22.0190 C   0  0  0  0  0  0  0  0  0  0  0  0
   10.3757  -17.7830   23.0529 C   0  0  1  0  0  0  0  0  0  0  0  0
   11.7004  -17.7454   22.6664 O   0  0  0  0  0  0  0  0  0  0  0  0
    9.8393  -16.4257   23.4429 C   0  0  2  0  0  0  0  0  0  0  0  0
    9.9720  -15.4498   22.4016 N   0  0  0  0  0  0  0  0  0  0  0  0
   10.6267  -15.9737   24.6179 C   0  0  0  0  0  0  0  0  0  0  0  0
   11.4074  -14.9894   24.5408 O   0  0  0  0  0  0  0  0  0  0  0  0
   10.5197  -16.6374   25.8538 O   0  0  0  0  0  0  0  0  0  0  0  0
  2  1  1  0
  3  2  1  0
  3  4  2  0
  5  3  1  0
  6  5  1  0
  7  8  1  0
  7  6  1  0
  8  9  1  0
  9 10  1  1
  9  5  1  0
 10 11  2  0
 13 12  1  6
 13 15  1  0
 13 14  1  0
 15 16  1  6
 16 10  1  0
 17 15  1  0
 17 19  1  0
 18 17  2  0
M  END
$$$$
