GPT.pdb
     RDKit          3D

 19 19  0  0  1  0  0  0  0  0999 V2000
    8.5514  -16.4581   15.6464 N   0  0  0  0  0  0  0  0  0  0  0  0
    7.9763  -15.5372   16.6089 C   0  0  0  0  0  0  0  0  0  0  0  0
    8.8998  -15.2475   17.7231 C   0  0  0  0  0  0  0  0  0  0  0  0
    9.9926  -15.8478   17.7751 O   0  0  0  0  0  0  0  0  0  0  0  0
    8.5466  -14.3133   18.7016 N   0  0  0  0  0  0  0  0  0  0  0  0
    7.3003  -13.5418   18.7208 C   0  0  0  0  0  0  0  0  0  0  0  0
    7.8094  -12.1934   19.2554 C   0  0  0  0  0  0  0  0  0  0  0  0
    8.7078  -12.6451   20.3786 C   0  0  0  0  0  0  0  0  0  0  0  0
    9.3072  -13.9298   19.8479 C   0  0  1  0  0  0  0  0  0  0  0  0
    9.2395  -14.9328   20.9457 C   0  0  0  0  0  0  0  0  0  0  0  0
    8.1220  -15.3642   21.3330 O   0  0  0  0  0  0  0  0  0  0  0  0
    9.6684  -18.3970   21.0939 C   0  0  0  0  0  0  0  0  0  0  0  0
   10.7084  -17.8557   22.0555 C   0  0  1  0  0  0  0  0  0  0  0  0
   11.9781  -17.8647   21.5141 O   0  0  0  0  0  0  0  0  0  0  0  0
   10.3111  -16.5031   22.5982 C   0  0  2  0  0  0  0  0  0  0  0  0
   10.3802  -15.4621   21.6154 N   0  0  0  0  0  0  0  0  0  0  0  0
   11.2615  -16.1833   23.6934 C   0  0  0  0  0  0  0  0  0  0  0  0
   12.1150  -15.2666   23.5701 O   0  0  0  0  0  0  0  0  0  0  0  0
   11.2321  -16.9008   24.9034 O   0  0  0  0  0  0  0  0  0  0  0  0
  2  1  1  0
  3  2  1  0
  3  4  2  0
  5  3  1  0
  6  5  1  0
  7  8  1  0
  7  6  1  0
  8  9  1  0
  9 10  1  1
  9  5  1  0
 10 11  2  0
 13 12  1  6
 13 15  1  0
 13 14  1  0
 15 16  1  6
 16 10  1  0
 17 15  1  0
 17 19  1  0
 18 17  2  0
M  END
$$$$
