GPT.pdb
     RDKit          3D

 19 19  0  0  1  0  0  0  0  0999 V2000
    8.2390  -16.6954   15.9070 N   0  0  0  0  0  0  0  0  0  0  0  0
    7.7491  -15.7165   16.8594 C   0  0  0  0  0  0  0  0  0  0  0  0
    8.7508  -15.3976   17.8954 C   0  0  0  0  0  0  0  0  0  0  0  0
    9.8197  -16.0409   17.9221 O   0  0  0  0  0  0  0  0  0  0  0  0
    8.4966  -14.3884   18.8292 N   0  0  0  0  0  0  0  0  0  0  0  0
    7.2886  -13.5588   18.8674 C   0  0  0  0  0  0  0  0  0  0  0  0
    7.8867  -12.2055   19.2841 C   0  0  0  0  0  0  0  0  0  0  0  0
    8.8286  -12.6284   20.3827 C   0  0  0  0  0  0  0  0  0  0  0  0
    9.3391  -13.9706   19.9041 C   0  0  1  0  0  0  0  0  0  0  0  0
    9.2916  -14.8989   21.0669 C   0  0  0  0  0  0  0  0  0  0  0  0
    8.1830  -15.2123   21.5744 O   0  0  0  0  0  0  0  0  0  0  0  0
    9.6843  -18.4498   21.3108 C   0  0  0  0  0  0  0  0  0  0  0  0
   10.7626  -17.8586   22.1979 C   0  0  1  0  0  0  0  0  0  0  0  0
   12.0068  -17.8870   21.6006 O   0  0  0  0  0  0  0  0  0  0  0  0
   10.3808  -16.4837   22.6938 C   0  0  2  0  0  0  0  0  0  0  0  0
   10.4429  -15.4813   21.6712 N   0  0  0  0  0  0  0  0  0  0  0  0
   11.3477  -16.1287   23.7634 C   0  0  0  0  0  0  0  0  0  0  0  0
   12.2145  -15.2331   23.5886 O   0  0  0  0  0  0  0  0  0  0  0  0
   11.3193  -16.7878   25.0062 O   0  0  0  0  0  0  0  0  0  0  0  0
  2  1  1  0
  3  2  1  0
  3  4  2  0
  5  3  1  0
  6  5  1  0
  7  8  1  0
  7  6  1  0
  8  9  1  0
  9 10  1  1
  9  5  1  0
 10 11  2  0
 13 12  1  6
 13 15  1  0
 13 14  1  0
 15 16  1  6
 16 10  1  0
 17 15  1  0
 17 19  1  0
 18 17  2  0
M  END
$$$$
