GPT.pdb
     RDKit          3D

 19 19  0  0  1  0  0  0  0  0999 V2000
    5.7729  -18.0040   18.3273 N   0  0  0  0  0  0  0  0  0  0  0  0
    5.8801  -16.6986   18.9514 C   0  0  0  0  0  0  0  0  0  0  0  0
    7.2697  -16.3737   19.3278 C   0  0  0  0  0  0  0  0  0  0  0  0
    8.1660  -17.2167   19.1197 O   0  0  0  0  0  0  0  0  0  0  0  0
    7.5679  -15.1374   19.9091 N   0  0  0  0  0  0  0  0  0  0  0  0
    6.5924  -14.0797   20.1895 C   0  0  0  0  0  0  0  0  0  0  0  0
    7.4264  -12.8305   19.8625 C   0  0  0  0  0  0  0  0  0  0  0  0
    8.7343  -13.1694   20.5314 C   0  0  0  0  0  0  0  0  0  0  0  0
    8.8472  -14.6659   20.3339 C   0  0  1  0  0  0  0  0  0  0  0  0
    9.2731  -15.2500   21.6352 C   0  0  0  0  0  0  0  0  0  0  0  0
    8.4919  -15.2194   22.6220 O   0  0  0  0  0  0  0  0  0  0  0  0
    9.5870  -18.6246   23.0235 C   0  0  0  0  0  0  0  0  0  0  0  0
   10.9701  -18.0045   22.9817 C   0  0  1  0  0  0  0  0  0  0  0  0
   11.7044  -18.4336   21.8944 O   0  0  0  0  0  0  0  0  0  0  0  0
   10.9065  -16.4991   23.0899 C   0  0  2  0  0  0  0  0  0  0  0  0
   10.5395  -15.8633   21.8590 N   0  0  0  0  0  0  0  0  0  0  0  0
   12.2648  -16.0380   23.4738 C   0  0  0  0  0  0  0  0  0  0  0  0
   12.9871  -15.3939   22.6690 O   0  0  0  0  0  0  0  0  0  0  0  0
   12.7819  -16.3107   24.7536 O   0  0  0  0  0  0  0  0  0  0  0  0
  2  1  1  0
  3  2  1  0
  3  4  2  0
  5  3  1  0
  6  5  1  0
  7  8  1  0
  7  6  1  0
  8  9  1  0
  9 10  1  1
  9  5  1  0
 10 11  2  0
 13 12  1  6
 13 15  1  0
 13 14  1  0
 15 16  1  6
 16 10  1  0
 17 15  1  0
 17 19  1  0
 18 17  2  0
M  END
$$$$
