GPT.pdb
     RDKit          3D

 19 19  0  0  1  0  0  0  0  0999 V2000
    8.0683  -17.3505   16.7332 N   0  0  0  0  0  0  0  0  0  0  0  0
    7.5627  -16.2101   17.4742 C   0  0  0  0  0  0  0  0  0  0  0  0
    8.5272  -15.7290   18.4825 C   0  0  0  0  0  0  0  0  0  0  0  0
    9.5732  -16.3807   18.6787 O   0  0  0  0  0  0  0  0  0  0  0  0
    8.2639  -14.5599   19.2028 N   0  0  0  0  0  0  0  0  0  0  0  0
    7.1214  -13.6694   18.9778 C   0  0  0  0  0  0  0  0  0  0  0  0
    7.7766  -12.3001   19.2201 C   0  0  0  0  0  0  0  0  0  0  0  0
    8.5815  -12.5777   20.4643 C   0  0  0  0  0  0  0  0  0  0  0  0
    9.0337  -14.0095   20.2725 C   0  0  1  0  0  0  0  0  0  0  0  0
    8.8132  -14.7168   21.5636 C   0  0  0  0  0  0  0  0  0  0  0  0
    7.6412  -14.9664   21.9498 O   0  0  0  0  0  0  0  0  0  0  0  0
    8.2253  -17.7266   22.4882 C   0  0  0  0  0  0  0  0  0  0  0  0
    9.5184  -17.4448   23.2282 C   0  0  1  0  0  0  0  0  0  0  0  0
   10.6217  -17.9409   22.5635 O   0  0  0  0  0  0  0  0  0  0  0  0
    9.6512  -15.9805   23.5750 C   0  0  2  0  0  0  0  0  0  0  0  0
    9.8613  -15.1490   22.4265 N   0  0  0  0  0  0  0  0  0  0  0  0
   10.8289  -15.8560   24.4707 C   0  0  0  0  0  0  0  0  0  0  0  0
   11.8750  -15.2653   24.0952 O   0  0  0  0  0  0  0  0  0  0  0  0
   10.8055  -16.3980   25.7690 O   0  0  0  0  0  0  0  0  0  0  0  0
  2  1  1  0
  3  2  1  0
  3  4  2  0
  5  3  1  0
  6  5  1  0
  7  8  1  0
  7  6  1  0
  8  9  1  0
  9 10  1  1
  9  5  1  0
 10 11  2  0
 13 12  1  6
 13 15  1  0
 13 14  1  0
 15 16  1  6
 16 10  1  0
 17 15  1  0
 17 19  1  0
 18 17  2  0
M  END
$$$$
