GPT.pdb
     RDKit          3D

 19 19  0  0  1  0  0  0  0  0999 V2000
    8.1325  -17.0414   16.2821 N   0  0  0  0  0  0  0  0  0  0  0  0
    7.6790  -15.9562   17.1318 C   0  0  0  0  0  0  0  0  0  0  0  0
    8.6929  -15.5719   18.1331 C   0  0  0  0  0  0  0  0  0  0  0  0
    9.7583  -16.2188   18.1948 O   0  0  0  0  0  0  0  0  0  0  0  0
    8.4541  -14.4979   18.9961 N   0  0  0  0  0  0  0  0  0  0  0  0
    7.2613  -13.6460   18.9729 C   0  0  0  0  0  0  0  0  0  0  0  0
    7.8827  -12.2787   19.3008 C   0  0  0  0  0  0  0  0  0  0  0  0
    8.8129  -12.6438   20.4296 C   0  0  0  0  0  0  0  0  0  0  0  0
    9.3003  -14.0242   20.0444 C   0  0  1  0  0  0  0  0  0  0  0  0
    9.2319  -14.8713   21.2666 C   0  0  0  0  0  0  0  0  0  0  0  0
    8.1137  -15.1612   21.7670 O   0  0  0  0  0  0  0  0  0  0  0  0
    9.1360  -18.2399   21.9557 C   0  0  0  0  0  0  0  0  0  0  0  0
   10.4044  -17.7547   22.6301 C   0  0  1  0  0  0  0  0  0  0  0  0
   11.5310  -18.0118   21.8749 O   0  0  0  0  0  0  0  0  0  0  0  0
   10.2932  -16.3062   23.0441 C   0  0  2  0  0  0  0  0  0  0  0  0
   10.3728  -15.3988   21.9375 N   0  0  0  0  0  0  0  0  0  0  0  0
   11.4280  -16.0332   23.9622 C   0  0  0  0  0  0  0  0  0  0  0  0
   12.3692  -15.2677   23.6268 O   0  0  0  0  0  0  0  0  0  0  0  0
   11.4804  -16.6262   25.2370 O   0  0  0  0  0  0  0  0  0  0  0  0
  2  1  1  0
  3  2  1  0
  3  4  2  0
  5  3  1  0
  6  5  1  0
  7  8  1  0
  7  6  1  0
  8  9  1  0
  9 10  1  1
  9  5  1  0
 10 11  2  0
 13 12  1  6
 13 15  1  0
 13 14  1  0
 15 16  1  6
 16 10  1  0
 17 15  1  0
 17 19  1  0
 18 17  2  0
M  END
$$$$
