GPT.pdb
     RDKit          3D

 19 19  0  0  1  0  0  0  0  0999 V2000
    8.4548  -16.3303   15.4251 N   0  0  0  0  0  0  0  0  0  0  0  0
    7.8837  -15.4368   16.4154 C   0  0  0  0  0  0  0  0  0  0  0  0
    8.8002  -15.2021   17.5482 C   0  0  0  0  0  0  0  0  0  0  0  0
    9.8896  -15.8098   17.5812 O   0  0  0  0  0  0  0  0  0  0  0  0
    8.4442  -14.3107   18.5650 N   0  0  0  0  0  0  0  0  0  0  0  0
    7.1922  -13.5502   18.6203 C   0  0  0  0  0  0  0  0  0  0  0  0
    7.6934  -12.2205   19.2066 C   0  0  0  0  0  0  0  0  0  0  0  0
    8.6002  -12.7100   20.3070 C   0  0  0  0  0  0  0  0  0  0  0  0
    9.2070  -13.9676   19.7225 C   0  0  1  0  0  0  0  0  0  0  0  0
    9.1517  -15.0145   20.7794 C   0  0  0  0  0  0  0  0  0  0  0  0
    8.0410  -15.4887   21.1349 O   0  0  0  0  0  0  0  0  0  0  0  0
   10.0232  -18.5203   20.7956 C   0  0  0  0  0  0  0  0  0  0  0  0
   10.8631  -17.8886   21.8886 C   0  0  1  0  0  0  0  0  0  0  0  0
   12.1816  -17.7311   21.5117 O   0  0  0  0  0  0  0  0  0  0  0  0
   10.2409  -16.6092   22.3966 C   0  0  2  0  0  0  0  0  0  0  0  0
   10.2975  -15.5408   21.4429 N   0  0  0  0  0  0  0  0  0  0  0  0
   11.0081  -16.2075   23.6028 C   0  0  0  0  0  0  0  0  0  0  0  0
   11.7865  -15.2186   23.5819 O   0  0  0  0  0  0  0  0  0  0  0  0
   10.8840  -16.9258   24.8063 O   0  0  0  0  0  0  0  0  0  0  0  0
  2  1  1  0
  3  2  1  0
  3  4  2  0
  5  3  1  0
  6  5  1  0
  7  8  1  0
  7  6  1  0
  8  9  1  0
  9 10  1  1
  9  5  1  0
 10 11  2  0
 13 12  1  6
 13 15  1  0
 13 14  1  0
 15 16  1  6
 16 10  1  0
 17 15  1  0
 17 19  1  0
 18 17  2  0
M  END
$$$$
