GPT.pdb
     RDKit          3D

 19 19  0  0  1  0  0  0  0  0999 V2000
    7.0334  -14.2095   21.3486 N   0  0  0  0  0  0  0  0  0  0  0  0
    6.5298  -13.6568   22.5921 C   0  0  0  0  0  0  0  0  0  0  0  0
    7.5492  -13.6668   23.6593 C   0  0  0  0  0  0  0  0  0  0  0  0
    8.7109  -14.0295   23.3832 O   0  0  0  0  0  0  0  0  0  0  0  0
    7.2090  -13.2746   24.9575 N   0  0  0  0  0  0  0  0  0  0  0  0
    5.8815  -12.8190   25.3807 C   0  0  0  0  0  0  0  0  0  0  0  0
    6.2652  -11.7191   26.3837 C   0  0  0  0  0  0  0  0  0  0  0  0
    7.3676  -12.3992   27.1552 C   0  0  0  0  0  0  0  0  0  0  0  0
    8.0616  -13.2368   26.1026 C   0  0  1  0  0  0  0  0  0  0  0  0
    8.2914  -14.5835   26.6938 C   0  0  0  0  0  0  0  0  0  0  0  0
    7.3224  -15.3704   26.8573 O   0  0  0  0  0  0  0  0  0  0  0  0
    9.9454  -17.4312   25.2235 C   0  0  0  0  0  0  0  0  0  0  0  0
   10.6692  -17.1884   26.5336 C   0  0  1  0  0  0  0  0  0  0  0  0
   11.9106  -16.6139   26.3481 O   0  0  0  0  0  0  0  0  0  0  0  0
    9.8076  -16.4222   27.5096 C   0  0  2  0  0  0  0  0  0  0  0  0
    9.5669  -15.0690   27.1028 N   0  0  0  0  0  0  0  0  0  0  0  0
   10.5354  -16.4047   28.8037 C   0  0  0  0  0  0  0  0  0  0  0  0
   10.9493  -15.3270   29.3052 O   0  0  0  0  0  0  0  0  0  0  0  0
   10.7823  -17.5985   29.5062 O   0  0  0  0  0  0  0  0  0  0  0  0
  2  1  1  0
  3  2  1  0
  3  4  2  0
  5  3  1  0
  6  5  1  0
  7  8  1  0
  7  6  1  0
  8  9  1  0
  9 10  1  1
  9  5  1  0
 10 11  2  0
 13 12  1  6
 13 15  1  0
 13 14  1  0
 15 16  1  6
 16 10  1  0
 17 15  1  0
 17 19  1  0
 18 17  2  0
M  END
$$$$
