GPT.pdb
     RDKit          3D

 19 19  0  0  1  0  0  0  0  0999 V2000
    8.4473  -16.4198   15.5191 N   0  0  0  0  0  0  0  0  0  0  0  0
    7.9480  -15.4515   16.4774 C   0  0  0  0  0  0  0  0  0  0  0  0
    8.9054  -15.2086   17.5741 C   0  0  0  0  0  0  0  0  0  0  0  0
    9.9640  -15.8683   17.6105 O   0  0  0  0  0  0  0  0  0  0  0  0
    8.6215  -14.2519   18.5535 N   0  0  0  0  0  0  0  0  0  0  0  0
    7.3955  -13.4510   18.6205 C   0  0  0  0  0  0  0  0  0  0  0  0
    7.9605  -12.1072   19.1082 C   0  0  0  0  0  0  0  0  0  0  0  0
    8.9021  -12.5632   20.1938 C   0  0  0  0  0  0  0  0  0  0  0  0
    9.4456  -13.8693   19.6553 C   0  0  1  0  0  0  0  0  0  0  0  0
    9.4085  -14.8540   20.7711 C   0  0  0  0  0  0  0  0  0  0  0  0
    8.3017  -15.2434   21.2274 O   0  0  0  0  0  0  0  0  0  0  0  0
    9.6452  -18.3399   21.0148 C   0  0  0  0  0  0  0  0  0  0  0  0
   10.8097  -17.8131   21.8306 C   0  0  1  0  0  0  0  0  0  0  0  0
   12.0038  -17.8755   21.1409 O   0  0  0  0  0  0  0  0  0  0  0  0
   10.5222  -16.4369   22.3832 C   0  0  2  0  0  0  0  0  0  0  0  0
   10.5681  -15.4104   21.3840 N   0  0  0  0  0  0  0  0  0  0  0  0
   11.5674  -16.1548   23.3995 C   0  0  0  0  0  0  0  0  0  0  0  0
   12.4479  -15.2769   23.2039 O   0  0  0  0  0  0  0  0  0  0  0  0
   11.6005  -16.8653   24.6135 O   0  0  0  0  0  0  0  0  0  0  0  0
  2  1  1  0
  3  2  1  0
  3  4  2  0
  5  3  1  0
  6  5  1  0
  7  8  1  0
  7  6  1  0
  8  9  1  0
  9 10  1  1
  9  5  1  0
 10 11  2  0
 13 12  1  6
 13 15  1  0
 13 14  1  0
 15 16  1  6
 16 10  1  0
 17 15  1  0
 17 19  1  0
 18 17  2  0
M  END
$$$$
