GPT.pdb
     RDKit          3D

 19 19  0  0  1  0  0  0  0  0999 V2000
    8.6289  -16.4119   15.6093 N   0  0  0  0  0  0  0  0  0  0  0  0
    8.0077  -15.5278   16.5776 C   0  0  0  0  0  0  0  0  0  0  0  0
    8.8922  -15.2501   17.7260 C   0  0  0  0  0  0  0  0  0  0  0  0
   10.0124  -15.7979   17.7735 O   0  0  0  0  0  0  0  0  0  0  0  0
    8.4722  -14.3852   18.7413 N   0  0  0  0  0  0  0  0  0  0  0  0
    7.1841  -13.6863   18.7752 C   0  0  0  0  0  0  0  0  0  0  0  0
    7.6081  -12.3389   19.3816 C   0  0  0  0  0  0  0  0  0  0  0  0
    8.5141  -12.7932   20.4976 C   0  0  0  0  0  0  0  0  0  0  0  0
    9.1930  -14.0153   19.9174 C   0  0  1  0  0  0  0  0  0  0  0  0
    9.1661  -15.0722   20.9653 C   0  0  0  0  0  0  0  0  0  0  0  0
    8.0722  -15.6015   21.2942 O   0  0  0  0  0  0  0  0  0  0  0  0
   10.0354  -18.5579   21.0850 C   0  0  0  0  0  0  0  0  0  0  0  0
   10.9094  -17.8852   22.1256 C   0  0  1  0  0  0  0  0  0  0  0  0
   12.2096  -17.7218   21.6920 O   0  0  0  0  0  0  0  0  0  0  0  0
   10.2904  -16.5999   22.6227 C   0  0  2  0  0  0  0  0  0  0  0  0
   10.3218  -15.5488   21.6487 N   0  0  0  0  0  0  0  0  0  0  0  0
   11.0795  -16.1722   23.8057 C   0  0  0  0  0  0  0  0  0  0  0  0
   11.8230  -15.1576   23.7621 O   0  0  0  0  0  0  0  0  0  0  0  0
   11.0158  -16.8938   25.0118 O   0  0  0  0  0  0  0  0  0  0  0  0
  2  1  1  0
  3  2  1  0
  3  4  2  0
  5  3  1  0
  6  5  1  0
  7  8  1  0
  7  6  1  0
  8  9  1  0
  9 10  1  1
  9  5  1  0
 10 11  2  0
 13 12  1  6
 13 15  1  0
 13 14  1  0
 15 16  1  6
 16 10  1  0
 17 15  1  0
 17 19  1  0
 18 17  2  0
M  END
$$$$
