MQE.pdb
     RDKit          3D

 27 26  0  0  1  0  0  0  0  0999 V2000
   19.0835  -18.3317  -10.9039 C   0  0  0  0  0  0  0  0  0  0  0  0
   20.7978  -18.9781  -10.9404 S   0  0  0  0  0  0  0  0  0  0  0  0
   20.7537  -20.6051  -11.7495 C   0  0  0  0  0  0  0  0  0  0  0  0
   19.7943  -21.4659  -10.9863 C   0  0  0  0  0  0  0  0  0  0  0  0
   19.5974  -22.8254  -11.6161 C   0  0  2  0  0  0  0  0  0  0  0  0
   19.0176  -22.7327  -12.9236 N   0  0  0  0  0  0  0  0  0  0  0  0
   18.7965  -23.7488  -10.7854 C   0  0  0  0  0  0  0  0  0  0  0  0
   17.6751  -24.1231  -11.1974 O   0  0  0  0  0  0  0  0  0  0  0  0
   21.1378  -28.4416  -10.3574 N   0  0  0  0  0  0  0  0  0  0  0  0
   19.8864  -28.3094  -11.0045 C   0  0  0  0  0  0  0  0  0  0  0  0
   19.6134  -29.0217  -11.9890 O   0  0  0  0  0  0  0  0  0  0  0  0
   18.8960  -27.3313  -10.5223 C   0  0  0  0  0  0  0  0  0  0  0  0
   19.4606  -26.5982   -9.3577 C   0  0  0  0  0  0  0  0  0  0  0  0
   18.6464  -25.4153   -8.9033 C   0  0  2  0  0  0  0  0  0  0  0  0
   19.2319  -24.2450   -9.5268 N   0  0  0  0  0  0  0  0  0  0  0  0
   18.6239  -25.2267   -7.4537 C   0  0  0  0  0  0  0  0  0  0  0  0
   19.6249  -24.8434   -6.7911 O   0  0  0  0  0  0  0  0  0  0  0  0
   17.4319  -25.4794   -6.7290 N   0  0  0  0  0  0  0  0  0  0  0  0
   17.3958  -25.2474   -5.2969 C   0  0  1  0  0  0  0  0  0  0  0  0
   15.9659  -25.3429   -4.8451 C   0  0  0  0  0  0  0  0  0  0  0  0
   15.1825  -24.1862   -5.3930 C   0  0  0  0  0  0  0  0  0  0  0  0
   14.7397  -23.2852   -4.2970 C   0  0  0  0  0  0  0  0  0  0  0  0
   14.9645  -23.5191   -3.0844 O   0  0  0  0  0  0  0  0  0  0  0  0
   18.2010  -26.3071   -4.6435 C   0  0  0  0  0  0  0  0  0  0  0  0
   18.8527  -26.0313   -3.4459 O   0  0  0  0  0  0  0  0  0  0  0  0
   14.0479  -22.1365   -4.6351 O   0  0  0  0  0  0  0  0  0  0  0  0
   18.3016  -27.4382   -5.1515 O   0  0  0  0  0  0  0  0  0  0  0  0
  1  2  1  0
  3  2  1  0
  4  3  1  0
  5  6  1  6
  5  4  1  0
  7  8  2  0
  7  5  1  0
  9 10  1  0
 10 12  1  0
 11 10  2  0
 13 12  1  0
 14 15  1  0
 14 13  1  1
 15  7  1  0
 16 14  1  0
 17 16  2  0
 18 16  1  0
 19 18  1  0
 20 21  1  0
 19 20  1  1
 22 21  1  0
 22 23  2  0
 24 25  1  0
 24 19  1  0
 26 22  1  0
 27 24  2  0
M  END
$$$$
