MQE.pdb
     RDKit          3D

 27 26  0  0  1  0  0  0  0  0999 V2000
   24.2856  -10.4492  -14.6007 C   0  0  0  0  0  0  0  0  0  0  0  0
   22.8864   -9.3877  -14.0776 S   0  0  0  0  0  0  0  0  0  0  0  0
   21.3551  -10.3331  -14.3323 C   0  0  0  0  0  0  0  0  0  0  0  0
   20.2106   -9.4684  -13.9006 C   0  0  0  0  0  0  0  0  0  0  0  0
   18.8691  -10.1428  -14.0714 C   0  0  2  0  0  0  0  0  0  0  0  0
   18.5982  -10.4598  -15.4428 N   0  0  0  0  0  0  0  0  0  0  0  0
   17.7435   -9.3648  -13.5131 C   0  0  0  0  0  0  0  0  0  0  0  0
   17.3048   -8.3818  -14.1524 O   0  0  0  0  0  0  0  0  0  0  0  0
   13.6170  -11.9263   -9.9079 N   0  0  0  0  0  0  0  0  0  0  0  0
   13.0980  -10.6104   -9.8724 C   0  0  0  0  0  0  0  0  0  0  0  0
   11.9945  -10.3878   -9.3397 O   0  0  0  0  0  0  0  0  0  0  0  0
   13.8549   -9.4931  -10.4631 C   0  0  0  0  0  0  0  0  0  0  0  0
   15.1054  -10.0188  -11.0734 C   0  0  0  0  0  0  0  0  0  0  0  0
   15.9262   -8.9928  -11.8097 C   0  0  2  0  0  0  0  0  0  0  0  0
   17.1197   -9.6723  -12.2737 N   0  0  0  0  0  0  0  0  0  0  0  0
   16.3144   -7.8420  -10.9959 C   0  0  0  0  0  0  0  0  0  0  0  0
   17.2550   -7.8740  -10.1579 O   0  0  0  0  0  0  0  0  0  0  0  0
   15.6172   -6.6151  -11.1331 N   0  0  0  0  0  0  0  0  0  0  0  0
   16.0093   -5.4697  -10.3330 C   0  0  1  0  0  0  0  0  0  0  0  0
   16.1325   -4.2832  -11.2467 C   0  0  0  0  0  0  0  0  0  0  0  0
   16.4834   -3.0622  -10.4480 C   0  0  0  0  0  0  0  0  0  0  0  0
   16.6394   -1.8804  -11.3358 C   0  0  0  0  0  0  0  0  0  0  0  0
   16.4995   -1.9361  -12.5819 O   0  0  0  0  0  0  0  0  0  0  0  0
   14.9417   -5.2255   -9.3335 C   0  0  0  0  0  0  0  0  0  0  0  0
   15.2251   -4.4712   -8.1997 O   0  0  0  0  0  0  0  0  0  0  0  0
   16.9536   -0.6649  -10.7559 O   0  0  0  0  0  0  0  0  0  0  0  0
   13.7974   -5.6857   -9.4953 O   0  0  0  0  0  0  0  0  0  0  0  0
  1  2  1  0
  3  2  1  0
  4  3  1  0
  5  6  1  6
  5  4  1  0
  7  8  2  0
  7  5  1  0
  9 10  1  0
 10 12  1  0
 11 10  2  0
 13 12  1  0
 14 15  1  0
 14 13  1  1
 15  7  1  0
 16 14  1  0
 17 16  2  0
 18 16  1  0
 19 18  1  0
 20 21  1  0
 19 20  1  6
 22 21  1  0
 22 23  2  0
 24 25  1  0
 24 19  1  0
 26 22  1  0
 27 24  2  0
M  END
$$$$
