MQE.pdb
     RDKit          3D

 27 26  0  0  1  0  0  0  0  0999 V2000
   22.2692  -18.2239  -15.8093 C   0  0  0  0  0  0  0  0  0  0  0  0
   22.1197  -16.4139  -15.5654 S   0  0  0  0  0  0  0  0  0  0  0  0
   23.0511  -15.6017  -16.8983 C   0  0  0  0  0  0  0  0  0  0  0  0
   23.0165  -14.1262  -16.6424 C   0  0  0  0  0  0  0  0  0  0  0  0
   24.3696  -13.4719  -16.7995 C   0  0  2  0  0  0  0  0  0  0  0  0
   25.3110  -13.9451  -15.8277 N   0  0  0  0  0  0  0  0  0  0  0  0
   24.3181  -11.9954  -16.7585 C   0  0  0  0  0  0  0  0  0  0  0  0
   24.5164  -11.4080  -15.6708 O   0  0  0  0  0  0  0  0  0  0  0  0
   22.9034   -5.9942  -19.6717 N   0  0  0  0  0  0  0  0  0  0  0  0
   23.3853   -7.2984  -19.9346 C   0  0  0  0  0  0  0  0  0  0  0  0
   22.7588   -8.0535  -20.7017 O   0  0  0  0  0  0  0  0  0  0  0  0
   24.6292   -7.7756  -19.3060 C   0  0  0  0  0  0  0  0  0  0  0  0
   24.5695   -9.2553  -19.1667 C   0  0  0  0  0  0  0  0  0  0  0  0
   24.0323   -9.7423  -17.8465 C   0  0  2  0  0  0  0  0  0  0  0  0
   24.0531  -11.1908  -17.8996 N   0  0  0  0  0  0  0  0  0  0  0  0
   22.6731   -9.2919  -17.5517 C   0  0  0  0  0  0  0  0  0  0  0  0
   21.6431   -9.8674  -17.9941 O   0  0  0  0  0  0  0  0  0  0  0  0
   22.4708   -8.1540  -16.7304 N   0  0  0  0  0  0  0  0  0  0  0  0
   21.1241   -7.7690  -16.3508 C   0  0  1  0  0  0  0  0  0  0  0  0
   20.5388   -8.8770  -15.5215 C   0  0  0  0  0  0  0  0  0  0  0  0
   19.1554   -8.5018  -15.0775 C   0  0  0  0  0  0  0  0  0  0  0  0
   18.6066   -9.5234  -14.1477 C   0  0  0  0  0  0  0  0  0  0  0  0
   19.2734  -10.5040  -13.7361 O   0  0  0  0  0  0  0  0  0  0  0  0
   21.2157   -6.5302  -15.5414 C   0  0  0  0  0  0  0  0  0  0  0  0
   20.1027   -5.7038  -15.4263 O   0  0  0  0  0  0  0  0  0  0  0  0
   17.2994   -9.3817  -13.7195 O   0  0  0  0  0  0  0  0  0  0  0  0
   22.2735   -6.2203  -14.9646 O   0  0  0  0  0  0  0  0  0  0  0  0
  1  2  1  0
  3  2  1  0
  4  3  1  0
  5  6  1  1
  5  4  1  0
  7  8  2  0
  7  5  1  0
  9 10  1  0
 10 12  1  0
 11 10  2  0
 13 12  1  0
 14 15  1  0
 14 13  1  6
 15  7  1  0
 16 14  1  0
 17 16  2  0
 18 16  1  0
 19 18  1  0
 20 21  1  0
 19 20  1  1
 22 21  1  0
 22 23  2  0
 24 25  1  0
 24 19  1  0
 26 22  1  0
 27 24  2  0
M  END
$$$$
