MQE.pdb
     RDKit          3D

 27 26  0  0  1  0  0  0  0  0999 V2000
   25.6729  -19.2649  -19.7710 C   0  0  0  0  0  0  0  0  0  0  0  0
   27.3938  -19.6424  -19.2670 S   0  0  0  0  0  0  0  0  0  0  0  0
   27.4879  -21.4258  -18.9289 C   0  0  0  0  0  0  0  0  0  0  0  0
   26.4368  -21.7513  -17.9125 C   0  0  0  0  0  0  0  0  0  0  0  0
   26.7082  -21.1212  -16.5660 C   0  0  2  0  0  0  0  0  0  0  0  0
   27.9631  -21.5447  -16.0181 N   0  0  0  0  0  0  0  0  0  0  0  0
   25.6340  -21.3564  -15.5785 C   0  0  0  0  0  0  0  0  0  0  0  0
   24.5136  -21.7475  -15.9774 O   0  0  0  0  0  0  0  0  0  0  0  0
   26.4467  -20.8528   -9.4461 N   0  0  0  0  0  0  0  0  0  0  0  0
   25.0543  -21.1035   -9.4631 C   0  0  0  0  0  0  0  0  0  0  0  0
   24.4189  -21.1755   -8.3944 O   0  0  0  0  0  0  0  0  0  0  0  0
   24.3432  -21.2815  -10.7409 C   0  0  0  0  0  0  0  0  0  0  0  0
   25.3173  -21.1790  -11.8604 C   0  0  0  0  0  0  0  0  0  0  0  0
   24.7163  -21.3261  -13.2336 C   0  0  2  0  0  0  0  0  0  0  0  0
   25.8013  -21.1619  -14.1807 N   0  0  0  0  0  0  0  0  0  0  0  0
   23.6658  -20.3545  -13.5334 C   0  0  0  0  0  0  0  0  0  0  0  0
   23.8787  -19.1169  -13.6383 O   0  0  0  0  0  0  0  0  0  0  0  0
   22.3314  -20.7952  -13.7205 N   0  0  0  0  0  0  0  0  0  0  0  0
   21.2831  -19.8277  -13.9871 C   0  0  1  0  0  0  0  0  0  0  0  0
   21.0616  -19.7779  -15.4724 C   0  0  0  0  0  0  0  0  0  0  0  0
   20.6261  -21.1266  -15.9657 C   0  0  0  0  0  0  0  0  0  0  0  0
   21.0029  -21.3115  -17.3916 C   0  0  0  0  0  0  0  0  0  0  0  0
   20.5594  -20.5885  -18.3169 O   0  0  0  0  0  0  0  0  0  0  0  0
   20.0494  -20.2949  -13.3104 C   0  0  0  0  0  0  0  0  0  0  0  0
   18.9373  -19.4607  -13.2622 O   0  0  0  0  0  0  0  0  0  0  0  0
   21.8838  -22.3296  -17.7076 O   0  0  0  0  0  0  0  0  0  0  0  0
   19.9957  -21.4215  -12.7857 O   0  0  0  0  0  0  0  0  0  0  0  0
  1  2  1  0
  3  2  1  0
  4  3  1  0
  5  6  1  1
  5  4  1  0
  7  8  2  0
  7  5  1  0
  9 10  1  0
 10 12  1  0
 11 10  2  0
 13 12  1  0
 14 15  1  0
 14 13  1  1
 15  7  1  0
 16 14  1  0
 17 16  2  0
 18 16  1  0
 19 18  1  0
 20 21  1  0
 19 20  1  6
 22 21  1  0
 22 23  2  0
 24 25  1  0
 24 19  1  0
 26 22  1  0
 27 24  2  0
M  END
$$$$
