MQE.pdb
     RDKit          3D

 27 26  0  0  1  0  0  0  0  0999 V2000
   24.3012  -17.7027  -21.9751 C   0  0  0  0  0  0  0  0  0  0  0  0
   24.4128  -16.0102  -21.2815 S   0  0  0  0  0  0  0  0  0  0  0  0
   25.9572  -15.9084  -20.3284 C   0  0  0  0  0  0  0  0  0  0  0  0
   26.0069  -14.5553  -19.6877 C   0  0  0  0  0  0  0  0  0  0  0  0
   27.2882  -14.3152  -18.9232 C   0  0  2  0  0  0  0  0  0  0  0  0
   27.4946  -15.2968  -17.8994 N   0  0  0  0  0  0  0  0  0  0  0  0
   27.3784  -12.9623  -18.3353 C   0  0  0  0  0  0  0  0  0  0  0  0
   26.9775  -12.7784  -17.1635 O   0  0  0  0  0  0  0  0  0  0  0  0
   32.2462  -10.0890  -18.0507 N   0  0  0  0  0  0  0  0  0  0  0  0
   31.4604   -9.0580  -17.4833 C   0  0  0  0  0  0  0  0  0  0  0  0
   32.0087   -8.0918  -16.9204 O   0  0  0  0  0  0  0  0  0  0  0  0
   29.9900   -9.1161  -17.5522 C   0  0  0  0  0  0  0  0  0  0  0  0
   29.5806  -10.4046  -18.1723 C   0  0  0  0  0  0  0  0  0  0  0  0
   28.0991  -10.5502  -18.4019 C   0  0  2  0  0  0  0  0  0  0  0  0
   27.9023  -11.8404  -19.0328 N   0  0  0  0  0  0  0  0  0  0  0  0
   27.5204   -9.5083  -19.2487 C   0  0  0  0  0  0  0  0  0  0  0  0
   27.5818   -9.5273  -20.5072 O   0  0  0  0  0  0  0  0  0  0  0  0
   26.8508   -8.4090  -18.6544 N   0  0  0  0  0  0  0  0  0  0  0  0
   26.2069   -7.4168  -19.4951 C   0  0  1  0  0  0  0  0  0  0  0  0
   24.7199   -7.5771  -19.3499 C   0  0  0  0  0  0  0  0  0  0  0  0
   24.0148   -6.6076  -20.2525 C   0  0  0  0  0  0  0  0  0  0  0  0
   22.5410   -6.7179  -20.0934 C   0  0  0  0  0  0  0  0  0  0  0  0
   21.9976   -7.2571  -19.0986 O   0  0  0  0  0  0  0  0  0  0  0  0
   26.6172   -6.0761  -19.0130 C   0  0  0  0  0  0  0  0  0  0  0  0
   27.1654   -5.9441  -17.7414 O   0  0  0  0  0  0  0  0  0  0  0  0
   21.7359   -6.2004  -21.0915 O   0  0  0  0  0  0  0  0  0  0  0  0
   26.4777   -5.0688  -19.7297 O   0  0  0  0  0  0  0  0  0  0  0  0
  1  2  1  0
  3  2  1  0
  4  3  1  0
  5  6  1  1
  5  4  1  0
  7  8  2  0
  7  5  1  0
  9 10  1  0
 10 12  1  0
 11 10  2  0
 13 12  1  0
 14 15  1  0
 14 13  1  6
 15  7  1  0
 16 14  1  0
 17 16  2  0
 18 16  1  0
 19 18  1  0
 20 21  1  0
 19 20  1  1
 22 21  1  0
 22 23  2  0
 24 25  1  0
 24 19  1  0
 26 22  1  0
 27 24  2  0
M  END
$$$$
