MQE.pdb
     RDKit          3D

 27 26  0  0  1  0  0  0  0  0999 V2000
   24.2870  -22.3003  -22.4963 C   0  0  0  0  0  0  0  0  0  0  0  0
   26.0222  -22.0305  -21.9727 S   0  0  0  0  0  0  0  0  0  0  0  0
   27.0168  -23.3954  -22.6447 C   0  0  0  0  0  0  0  0  0  0  0  0
   26.5981  -24.6506  -21.9425 C   0  0  0  0  0  0  0  0  0  0  0  0
   27.4956  -24.9980  -20.7774 C   0  0  2  0  0  0  0  0  0  0  0  0
   28.8695  -25.1060  -21.1714 N   0  0  0  0  0  0  0  0  0  0  0  0
   27.0881  -26.2278  -20.0663 C   0  0  0  0  0  0  0  0  0  0  0  0
   27.0671  -27.3139  -20.6887 O   0  0  0  0  0  0  0  0  0  0  0  0
   27.2581  -31.1724  -15.8707 N   0  0  0  0  0  0  0  0  0  0  0  0
   27.5919  -29.8607  -16.2832 C   0  0  0  0  0  0  0  0  0  0  0  0
   28.6014  -29.6641  -16.9856 O   0  0  0  0  0  0  0  0  0  0  0  0
   26.7518  -28.7171  -15.8877 C   0  0  0  0  0  0  0  0  0  0  0  0
   27.0814  -27.5486  -16.7471 C   0  0  0  0  0  0  0  0  0  0  0  0
   26.2847  -27.4603  -18.0223 C   0  0  2  0  0  0  0  0  0  0  0  0
   26.7131  -26.2501  -18.6956 N   0  0  0  0  0  0  0  0  0  0  0  0
   24.8376  -27.4111  -17.8207 C   0  0  0  0  0  0  0  0  0  0  0  0
   24.2185  -26.3586  -17.5094 O   0  0  0  0  0  0  0  0  0  0  0  0
   24.0645  -28.5894  -17.9755 N   0  0  0  0  0  0  0  0  0  0  0  0
   22.6319  -28.5470  -17.7475 C   0  0  1  0  0  0  0  0  0  0  0  0
   22.0374  -29.8204  -18.2796 C   0  0  0  0  0  0  0  0  0  0  0  0
   21.3672  -30.5710  -17.1665 C   0  0  0  0  0  0  0  0  0  0  0  0
   20.8523  -31.8789  -17.6500 C   0  0  0  0  0  0  0  0  0  0  0  0
   21.0408  -32.9583  -17.0379 O   0  0  0  0  0  0  0  0  0  0  0  0
   22.4060  -28.4599  -16.2848 C   0  0  0  0  0  0  0  0  0  0  0  0
   23.3937  -28.9044  -15.4120 O   0  0  0  0  0  0  0  0  0  0  0  0
   20.1323  -31.9012  -18.8305 O   0  0  0  0  0  0  0  0  0  0  0  0
   21.3463  -27.9950  -15.8283 O   0  0  0  0  0  0  0  0  0  0  0  0
  1  2  1  0
  3  2  1  0
  4  3  1  0
  5  6  1  6
  5  4  1  0
  7  8  2  0
  7  5  1  0
  9 10  1  0
 10 12  1  0
 11 10  2  0
 13 12  1  0
 14 15  1  0
 14 13  1  1
 15  7  1  0
 16 14  1  0
 17 16  2  0
 18 16  1  0
 19 18  1  0
 20 21  1  0
 19 20  1  1
 22 21  1  0
 22 23  2  0
 24 25  1  0
 24 19  1  0
 26 22  1  0
 27 24  2  0
M  END
$$$$
