MQE.pdb
     RDKit          3D

 27 26  0  0  1  0  0  0  0  0999 V2000
   31.5707  -19.6392  -12.1177 C   0  0  0  0  0  0  0  0  0  0  0  0
   29.8159  -19.9862  -12.5154 S   0  0  0  0  0  0  0  0  0  0  0  0
   29.5180  -19.4263  -14.2188 C   0  0  0  0  0  0  0  0  0  0  0  0
   28.0510  -19.5601  -14.4907 C   0  0  0  0  0  0  0  0  0  0  0  0
   27.5500  -20.9757  -14.3212 C   0  0  2  0  0  0  0  0  0  0  0  0
   27.8112  -21.7799  -15.4785 N   0  0  0  0  0  0  0  0  0  0  0  0
   26.1146  -21.0553  -13.9786 C   0  0  0  0  0  0  0  0  0  0  0  0
   25.3253  -21.6032  -14.7812 O   0  0  0  0  0  0  0  0  0  0  0  0
   21.7334  -21.2248   -8.0647 N   0  0  0  0  0  0  0  0  0  0  0  0
   22.8709  -20.9323   -8.8539 C   0  0  0  0  0  0  0  0  0  0  0  0
   23.9711  -20.7200   -8.3102 O   0  0  0  0  0  0  0  0  0  0  0  0
   22.7666  -20.8760  -10.3222 C   0  0  0  0  0  0  0  0  0  0  0  0
   24.1205  -20.6632  -10.9003 C   0  0  0  0  0  0  0  0  0  0  0  0
   24.1783  -20.7160  -12.4044 C   0  0  2  0  0  0  0  0  0  0  0  0
   25.5693  -20.5387  -12.7721 N   0  0  0  0  0  0  0  0  0  0  0  0
   23.3717  -19.6942  -13.0697 C   0  0  0  0  0  0  0  0  0  0  0  0
   23.6704  -18.4700  -13.0704 O   0  0  0  0  0  0  0  0  0  0  0  0
   22.1887  -20.0674  -13.7563 N   0  0  0  0  0  0  0  0  0  0  0  0
   21.3760  -19.0506  -14.3978 C   0  0  1  0  0  0  0  0  0  0  0  0
   20.8883  -19.6016  -15.7078 C   0  0  0  0  0  0  0  0  0  0  0  0
   20.0120  -18.5912  -16.3883 C   0  0  0  0  0  0  0  0  0  0  0  0
   19.5297  -19.1093  -17.6954 C   0  0  0  0  0  0  0  0  0  0  0  0
   19.8397  -20.2412  -18.1405 O   0  0  0  0  0  0  0  0  0  0  0  0
   20.2219  -18.7645  -13.5121 C   0  0  0  0  0  0  0  0  0  0  0  0
   19.7956  -19.7327  -12.6090 O   0  0  0  0  0  0  0  0  0  0  0  0
   18.7005  -18.3017  -18.4521 O   0  0  0  0  0  0  0  0  0  0  0  0
   19.6305  -17.6714  -13.5659 O   0  0  0  0  0  0  0  0  0  0  0  0
  1  2  1  0
  3  2  1  0
  4  3  1  0
  5  6  1  6
  5  4  1  0
  7  8  2  0
  7  5  1  0
  9 10  1  0
 10 12  1  0
 11 10  2  0
 13 12  1  0
 14 15  1  0
 14 13  1  1
 15  7  1  0
 16 14  1  0
 17 16  2  0
 18 16  1  0
 19 18  1  0
 20 21  1  0
 19 20  1  6
 22 21  1  0
 22 23  2  0
 24 25  1  0
 24 19  1  0
 26 22  1  0
 27 24  2  0
M  END
$$$$
