EHL.pdb
     RDKit          3D

 28 28  0  0  1  0  0  0  0  0999 V2000
   27.2008  -18.8537  -18.7629 N   0  0  0  0  0  0  0  0  0  0  0  0
   26.4859  -19.9796  -18.1698 C   0  0  1  0  0  0  0  0  0  0  0  0
   27.5333  -20.8133  -17.4729 C   0  0  0  0  0  0  0  0  0  0  0  0
   27.7622  -22.1652  -18.0608 C   0  0  0  0  0  0  0  0  0  0  0  0
   28.7838  -22.9711  -17.3707 C   0  0  0  0  0  0  0  0  0  0  0  0
   29.9802  -22.5610  -17.3957 O   0  0  0  0  0  0  0  0  0  0  0  0
   25.5189  -19.5141  -17.1450 C   0  0  0  0  0  0  0  0  0  0  0  0
   25.9515  -18.7200  -16.2587 O   0  0  0  0  0  0  0  0  0  0  0  0
   28.4137  -24.1319  -16.7275 O   0  0  0  0  0  0  0  0  0  0  0  0
   24.1588  -19.9077  -17.1105 N   0  0  0  0  0  0  0  0  0  0  0  0
   23.2901  -19.4101  -16.0631 C   0  0  1  0  0  0  0  0  0  0  0  0
   21.8504  -19.4778  -16.5941 C   0  0  0  0  0  0  0  0  0  0  0  0
   21.4888  -18.1277  -17.0664 C   0  0  0  0  0  0  0  0  0  0  0  0
   22.2619  -17.0045  -16.9292 C   0  0  0  0  0  0  0  0  0  0  0  0
   21.5693  -16.0008  -17.4920 N   0  0  0  0  0  0  0  0  0  0  0  0
   20.4082  -16.4569  -17.9675 C   0  0  0  0  0  0  0  0  0  0  0  0
   20.3671  -17.7817  -17.6978 N   0  0  0  0  0  0  0  0  0  0  0  0
   23.3304  -20.2450  -14.8414 C   0  0  0  0  0  0  0  0  0  0  0  0
   23.6363  -21.4708  -15.0501 O   0  0  0  0  0  0  0  0  0  0  0  0
   24.5760  -21.3248   -9.4899 C   0  0  0  0  0  0  0  0  0  0  0  0
   25.1587  -21.3214  -10.8410 C   0  0  2  0  0  0  0  0  0  0  0  0
   26.6512  -20.9668  -10.6760 C   0  0  0  0  0  0  0  0  0  0  0  0
   24.5875  -20.5654  -11.9329 C   0  0  0  0  0  0  0  0  0  0  0  0
   23.2029  -20.6323  -12.3842 C   0  0  2  0  0  0  0  0  0  0  0  0
   23.0582  -19.7500  -13.5482 N   0  0  0  0  0  0  0  0  0  0  0  0
   22.0967  -20.3436  -11.4957 C   0  0  0  0  0  0  0  0  0  0  0  0
   21.6117  -19.1910  -11.3543 O   0  0  0  0  0  0  0  0  0  0  0  0
   21.4517  -21.2875  -10.7110 O   0  0  0  0  0  0  0  0  0  0  0  0
  2  1  1  1
  2  7  1  0
  2  3  1  0
  3  4  1  0
  4  5  1  0
  5  9  1  0
  5  6  2  0
  7  8  2  0
 10  7  1  0
 11 10  1  0
 12 13  1  0
 11 12  1  6
 13 17  1  0
 14 13  2  0
 14 15  1  0
 15 16  1  0
 17 16  2  0
 18 11  1  0
 19 18  2  0
 21 20  1  1
 22 21  1  0
 23 21  1  0
 24 23  1  1
 24 25  1  0
 25 18  1  0
 26 24  1  0
 27 26  2  0
 28 26  1  0
M  END
$$$$
