EHL.pdb
     RDKit          3D

 28 28  0  0  1  0  0  0  0  0999 V2000
   21.6961  -13.5579  -16.7695 N   0  0  0  0  0  0  0  0  0  0  0  0
   21.7213  -12.1538  -17.1676 C   0  0  1  0  0  0  0  0  0  0  0  0
   20.9747  -12.0822  -18.4772 C   0  0  0  0  0  0  0  0  0  0  0  0
   19.6022  -12.6667  -18.4575 C   0  0  0  0  0  0  0  0  0  0  0  0
   18.9115  -12.6584  -19.7584 C   0  0  0  0  0  0  0  0  0  0  0  0
   19.1641  -13.5948  -20.5707 O   0  0  0  0  0  0  0  0  0  0  0  0
   20.9977  -11.3101  -16.1844 C   0  0  0  0  0  0  0  0  0  0  0  0
   20.0435  -11.8490  -15.5500 O   0  0  0  0  0  0  0  0  0  0  0  0
   18.0238  -11.6460  -20.0503 O   0  0  0  0  0  0  0  0  0  0  0  0
   21.3168   -9.9548  -15.9252 N   0  0  0  0  0  0  0  0  0  0  0  0
   20.5876   -9.2236  -14.9089 C   0  0  1  0  0  0  0  0  0  0  0  0
   21.6249   -8.6042  -13.9603 C   0  0  0  0  0  0  0  0  0  0  0  0
   22.2403   -7.4618  -14.6623 C   0  0  0  0  0  0  0  0  0  0  0  0
   23.2200   -7.5499  -15.6164 C   0  0  0  0  0  0  0  0  0  0  0  0
   23.4912   -6.2898  -15.9938 N   0  0  0  0  0  0  0  0  0  0  0  0
   22.7233   -5.4341  -15.3153 C   0  0  0  0  0  0  0  0  0  0  0  0
   21.9482   -6.1730  -14.4890 N   0  0  0  0  0  0  0  0  0  0  0  0
   19.7999   -8.1009  -15.4661 C   0  0  0  0  0  0  0  0  0  0  0  0
   20.1695   -7.7252  -16.6330 O   0  0  0  0  0  0  0  0  0  0  0  0
   14.1346   -6.5235  -16.2015 C   0  0  0  0  0  0  0  0  0  0  0  0
   15.5556   -6.1645  -16.3311 C   0  0  2  0  0  0  0  0  0  0  0  0
   15.8564   -6.0958  -17.8428 C   0  0  0  0  0  0  0  0  0  0  0  0
   16.6061   -6.8866  -15.6491 C   0  0  0  0  0  0  0  0  0  0  0  0
   17.9685   -6.4130  -15.4380 C   0  0  2  0  0  0  0  0  0  0  0  0
   18.7291   -7.4846  -14.7842 N   0  0  0  0  0  0  0  0  0  0  0  0
   18.2473   -5.1929  -14.7099 C   0  0  0  0  0  0  0  0  0  0  0  0
   18.5342   -5.1742  -13.4846 O   0  0  0  0  0  0  0  0  0  0  0  0
   18.2329   -3.9236  -15.2679 O   0  0  0  0  0  0  0  0  0  0  0  0
  2  1  1  1
  2  7  1  0
  2  3  1  0
  3  4  1  0
  4  5  1  0
  5  9  1  0
  5  6  2  0
  7  8  2  0
 10  7  1  0
 11 10  1  0
 12 13  1  0
 11 12  1  1
 13 17  1  0
 14 13  2  0
 14 15  1  0
 15 16  1  0
 17 16  2  0
 18 11  1  0
 19 18  2  0
 21 20  1  6
 22 21  1  0
 23 21  1  0
 24 23  1  1
 24 25  1  0
 25 18  1  0
 26 24  1  0
 27 26  2  0
 28 26  1  0
M  END
$$$$
