EHL.pdb
     RDKit          3D

 28 28  0  0  1  0  0  0  0  0999 V2000
   20.6601   -8.9137  -13.9967 N   0  0  0  0  0  0  0  0  0  0  0  0
   21.1760   -8.8134  -15.3584 C   0  0  1  0  0  0  0  0  0  0  0  0
   20.9174   -7.3920  -15.7946 C   0  0  0  0  0  0  0  0  0  0  0  0
   19.4836   -6.9799  -15.7959 C   0  0  0  0  0  0  0  0  0  0  0  0
   19.2329   -5.6272  -16.3219 C   0  0  0  0  0  0  0  0  0  0  0  0
   18.6657   -4.7902  -15.5616 O   0  0  0  0  0  0  0  0  0  0  0  0
   22.6424   -9.0392  -15.3886 C   0  0  0  0  0  0  0  0  0  0  0  0
   23.3238   -8.5473  -14.4414 O   0  0  0  0  0  0  0  0  0  0  0  0
   19.6164   -5.3161  -17.6081 O   0  0  0  0  0  0  0  0  0  0  0  0
   23.3057   -9.7655  -16.4076 N   0  0  0  0  0  0  0  0  0  0  0  0
   24.7520   -9.8516  -16.4075 C   0  0  1  0  0  0  0  0  0  0  0  0
   25.1216  -11.3168  -16.6833 C   0  0  0  0  0  0  0  0  0  0  0  0
   26.5929  -11.4174  -16.6426 C   0  0  0  0  0  0  0  0  0  0  0  0
   27.4521  -10.3877  -16.3605 C   0  0  0  0  0  0  0  0  0  0  0  0
   28.6906  -10.9033  -16.4263 N   0  0  0  0  0  0  0  0  0  0  0  0
   28.6299  -12.2005  -16.7354 C   0  0  0  0  0  0  0  0  0  0  0  0
   27.3202  -12.5113  -16.8682 N   0  0  0  0  0  0  0  0  0  0  0  0
   25.3731   -9.0484  -17.4846 C   0  0  0  0  0  0  0  0  0  0  0  0
   24.7811   -9.1364  -18.6166 O   0  0  0  0  0  0  0  0  0  0  0  0
   26.8022   -5.0481  -20.3776 C   0  0  0  0  0  0  0  0  0  0  0  0
   26.9221   -4.8970  -18.9189 C   0  0  2  0  0  0  0  0  0  0  0  0
   28.1618   -4.0134  -18.6681 C   0  0  0  0  0  0  0  0  0  0  0  0
   26.9284   -6.0272  -18.0174 C   0  0  0  0  0  0  0  0  0  0  0  0
   27.0251   -7.4286  -18.4072 C   0  0  2  0  0  0  0  0  0  0  0  0
   26.5201   -8.2474  -17.2988 N   0  0  0  0  0  0  0  0  0  0  0  0
   28.2785   -8.0175  -18.8301 C   0  0  0  0  0  0  0  0  0  0  0  0
   29.0983   -8.5373  -18.0291 O   0  0  0  0  0  0  0  0  0  0  0  0
   28.7144   -8.0786  -20.1449 O   0  0  0  0  0  0  0  0  0  0  0  0
  2  1  1  1
  2  7  1  0
  2  3  1  0
  3  4  1  0
  4  5  1  0
  5  9  1  0
  5  6  2  0
  7  8  2  0
 10  7  1  0
 11 10  1  0
 12 13  1  0
 11 12  1  6
 13 17  1  0
 14 13  2  0
 14 15  1  0
 15 16  1  0
 17 16  2  0
 18 11  1  0
 19 18  2  0
 21 20  1  6
 22 21  1  0
 23 21  1  0
 24 23  1  1
 24 25  1  0
 25 18  1  0
 26 24  1  0
 27 26  2  0
 28 26  1  0
M  END
$$$$
