EHL.pdb
     RDKit          3D

 28 28  0  0  1  0  0  0  0  0999 V2000
   19.2662  -14.4253  -17.1507 N   0  0  0  0  0  0  0  0  0  0  0  0
   19.6856  -13.5323  -18.2264 C   0  0  1  0  0  0  0  0  0  0  0  0
   18.9860  -14.0257  -19.4693 C   0  0  0  0  0  0  0  0  0  0  0  0
   18.5684  -15.4575  -19.4359 C   0  0  0  0  0  0  0  0  0  0  0  0
   17.8960  -15.9307  -20.6579 C   0  0  0  0  0  0  0  0  0  0  0  0
   16.6703  -16.2345  -20.5815 O   0  0  0  0  0  0  0  0  0  0  0  0
   19.2320  -12.1428  -17.9702 C   0  0  0  0  0  0  0  0  0  0  0  0
   19.6735  -11.2384  -18.7386 O   0  0  0  0  0  0  0  0  0  0  0  0
   18.6099  -16.0288  -21.8322 O   0  0  0  0  0  0  0  0  0  0  0  0
   18.3445  -11.7848  -16.9261 N   0  0  0  0  0  0  0  0  0  0  0  0
   18.0040  -10.3926  -16.7142 C   0  0  1  0  0  0  0  0  0  0  0  0
   16.5205  -10.3410  -16.3192 C   0  0  0  0  0  0  0  0  0  0  0  0
   15.7294  -10.6246  -17.5318 C   0  0  0  0  0  0  0  0  0  0  0  0
   15.0732  -11.7985  -17.7958 C   0  0  0  0  0  0  0  0  0  0  0  0
   14.4822  -11.6378  -18.9911 N   0  0  0  0  0  0  0  0  0  0  0  0
   14.7458  -10.4204  -19.4714 C   0  0  0  0  0  0  0  0  0  0  0  0
   15.5227   -9.7973  -18.5562 N   0  0  0  0  0  0  0  0  0  0  0  0
   18.7607   -9.7818  -15.5982 C   0  0  0  0  0  0  0  0  0  0  0  0
   18.8522  -10.5205  -14.5563 O   0  0  0  0  0  0  0  0  0  0  0  0
   23.9721   -9.8450  -14.9347 C   0  0  0  0  0  0  0  0  0  0  0  0
   22.7780   -9.2534  -14.3110 C   0  0  2  0  0  0  0  0  0  0  0  0
   22.6272   -9.9202  -12.9279 C   0  0  0  0  0  0  0  0  0  0  0  0
   21.4966   -9.2010  -14.9784 C   0  0  0  0  0  0  0  0  0  0  0  0
   20.4823   -8.1696  -14.7977 C   0  0  2  0  0  0  0  0  0  0  0  0
   19.3395   -8.4962  -15.6589 N   0  0  0  0  0  0  0  0  0  0  0  0
   20.7770   -6.7667  -15.0014 C   0  0  0  0  0  0  0  0  0  0  0  0
   20.6690   -6.1970  -16.1185 O   0  0  0  0  0  0  0  0  0  0  0  0
   21.2037   -5.9004  -14.0064 O   0  0  0  0  0  0  0  0  0  0  0  0
  2  1  1  1
  2  7  1  0
  2  3  1  0
  3  4  1  0
  4  5  1  0
  5  9  1  0
  5  6  2  0
  7  8  2  0
 10  7  1  0
 11 10  1  0
 12 13  1  0
 11 12  1  1
 13 17  1  0
 14 13  2  0
 14 15  1  0
 15 16  1  0
 17 16  2  0
 18 11  1  0
 19 18  2  0
 21 20  1  6
 22 21  1  0
 23 21  1  0
 24 23  1  6
 24 25  1  0
 25 18  1  0
 26 24  1  0
 27 26  2  0
 28 26  1  0
M  END
$$$$
