EHL.pdb
     RDKit          3D

 28 28  0  0  1  0  0  0  0  0999 V2000
   28.4357  -18.2927  -17.7393 N   0  0  0  0  0  0  0  0  0  0  0  0
   27.4756  -19.3694  -17.9619 C   0  0  1  0  0  0  0  0  0  0  0  0
   28.1042  -20.6109  -17.3779 C   0  0  0  0  0  0  0  0  0  0  0  0
   29.2908  -21.1294  -18.1188 C   0  0  0  0  0  0  0  0  0  0  0  0
   29.8983  -22.3389  -17.5379 C   0  0  0  0  0  0  0  0  0  0  0  0
   29.3556  -22.8416  -16.5117 O   0  0  0  0  0  0  0  0  0  0  0  0
   26.2106  -19.1125  -17.2299 C   0  0  0  0  0  0  0  0  0  0  0  0
   26.2752  -18.3745  -16.2029 O   0  0  0  0  0  0  0  0  0  0  0  0
   31.0240  -22.8805  -18.1190 O   0  0  0  0  0  0  0  0  0  0  0  0
   24.9558  -19.6430  -17.6173 N   0  0  0  0  0  0  0  0  0  0  0  0
   23.7771  -19.3609  -16.8234 C   0  0  1  0  0  0  0  0  0  0  0  0
   22.5545  -19.7452  -17.6700 C   0  0  0  0  0  0  0  0  0  0  0  0
   21.3503  -19.4108  -16.8859 C   0  0  0  0  0  0  0  0  0  0  0  0
   21.3432  -18.9872  -15.5826 C   0  0  0  0  0  0  0  0  0  0  0  0
   20.0544  -18.7938  -15.2575 N   0  0  0  0  0  0  0  0  0  0  0  0
   19.2720  -19.0791  -16.3009 C   0  0  0  0  0  0  0  0  0  0  0  0
   20.0876  -19.4623  -17.3096 N   0  0  0  0  0  0  0  0  0  0  0  0
   23.7102  -20.1753  -15.5890 C   0  0  0  0  0  0  0  0  0  0  0  0
   24.2369  -21.3376  -15.6947 O   0  0  0  0  0  0  0  0  0  0  0  0
   24.4048  -21.5231  -10.3708 C   0  0  0  0  0  0  0  0  0  0  0  0
   25.1705  -21.1617  -11.5742 C   0  0  2  0  0  0  0  0  0  0  0  0
   26.4668  -20.4835  -11.0843 C   0  0  0  0  0  0  0  0  0  0  0  0
   24.5962  -20.4046  -12.6637 C   0  0  0  0  0  0  0  0  0  0  0  0
   23.2359  -20.5374  -13.1708 C   0  0  2  0  0  0  0  0  0  0  0  0
   23.1204  -19.7259  -14.3883 N   0  0  0  0  0  0  0  0  0  0  0  0
   22.0830  -20.2327  -12.3496 C   0  0  0  0  0  0  0  0  0  0  0  0
   21.5645  -19.0874  -12.2909 O   0  0  0  0  0  0  0  0  0  0  0  0
   21.4249  -21.1515  -11.5463 O   0  0  0  0  0  0  0  0  0  0  0  0
  2  1  1  1
  2  7  1  0
  2  3  1  0
  3  4  1  0
  4  5  1  0
  5  9  1  0
  5  6  2  0
  7  8  2  0
 10  7  1  0
 11 10  1  0
 12 13  1  0
 11 12  1  6
 13 17  1  0
 14 13  2  0
 14 15  1  0
 15 16  1  0
 17 16  2  0
 18 11  1  0
 19 18  2  0
 21 20  1  1
 22 21  1  0
 23 21  1  0
 24 23  1  1
 24 25  1  0
 25 18  1  0
 26 24  1  0
 27 26  2  0
 28 26  1  0
M  END
$$$$
