EHL.pdb
     RDKit          3D

 28 28  0  0  1  0  0  0  0  0999 V2000
   21.4884  -13.7864  -17.3055 N   0  0  0  0  0  0  0  0  0  0  0  0
   21.9008  -12.6464  -18.1184 C   0  0  1  0  0  0  0  0  0  0  0  0
   20.6574  -12.1773  -18.8334 C   0  0  0  0  0  0  0  0  0  0  0  0
   20.1871  -13.0650  -19.9364 C   0  0  0  0  0  0  0  0  0  0  0  0
   21.1135  -13.1731  -21.0763 C   0  0  0  0  0  0  0  0  0  0  0  0
   21.9469  -14.1248  -21.0760 O   0  0  0  0  0  0  0  0  0  0  0  0
   22.3826  -11.5322  -17.2647 C   0  0  0  0  0  0  0  0  0  0  0  0
   21.6668  -11.2134  -16.2700 O   0  0  0  0  0  0  0  0  0  0  0  0
   21.0482  -12.2482  -22.0954 O   0  0  0  0  0  0  0  0  0  0  0  0
   23.5833  -10.8203  -17.5040 N   0  0  0  0  0  0  0  0  0  0  0  0
   23.9187   -9.6747  -16.6827 C   0  0  1  0  0  0  0  0  0  0  0  0
   25.4043   -9.3639  -16.9186 C   0  0  0  0  0  0  0  0  0  0  0  0
   26.1847  -10.4891  -16.3695 C   0  0  0  0  0  0  0  0  0  0  0  0
   25.6609  -11.5802  -15.7265 C   0  0  0  0  0  0  0  0  0  0  0  0
   26.7049  -12.3569  -15.3936 N   0  0  0  0  0  0  0  0  0  0  0  0
   27.8434  -11.7925  -15.8027 C   0  0  0  0  0  0  0  0  0  0  0  0
   27.5094  -10.6303  -16.4088 N   0  0  0  0  0  0  0  0  0  0  0  0
   23.1661   -8.4581  -17.0630 C   0  0  0  0  0  0  0  0  0  0  0  0
   23.0580   -8.2779  -18.3261 O   0  0  0  0  0  0  0  0  0  0  0  0
   18.2670   -6.9426  -18.2391 C   0  0  0  0  0  0  0  0  0  0  0  0
   19.6003   -6.3495  -18.0507 C   0  0  2  0  0  0  0  0  0  0  0  0
   20.0406   -5.8095  -19.4272 C   0  0  0  0  0  0  0  0  0  0  0  0
   20.6902   -7.0669  -17.4280 C   0  0  0  0  0  0  0  0  0  0  0  0
   21.7276   -6.4808  -16.5882 C   0  0  2  0  0  0  0  0  0  0  0  0
   22.6076   -7.5613  -16.1273 N   0  0  0  0  0  0  0  0  0  0  0  0
   21.4054   -5.6754  -15.4289 C   0  0  0  0  0  0  0  0  0  0  0  0
   20.8770   -4.5361  -15.5091 O   0  0  0  0  0  0  0  0  0  0  0  0
   21.6357   -6.0591  -14.1165 O   0  0  0  0  0  0  0  0  0  0  0  0
  2  1  1  1
  2  7  1  0
  2  3  1  0
  3  4  1  0
  4  5  1  0
  5  9  1  0
  5  6  2  0
  7  8  2  0
 10  7  1  0
 11 10  1  0
 12 13  1  0
 11 12  1  6
 13 17  1  0
 14 13  2  0
 14 15  1  0
 15 16  1  0
 17 16  2  0
 18 11  1  0
 19 18  2  0
 21 20  1  6
 22 21  1  0
 23 21  1  0
 24 23  1  1
 24 25  1  0
 25 18  1  0
 26 24  1  0
 27 26  2  0
 28 26  1  0
M  END
$$$$
