EHL.pdb
     RDKit          3D

 28 28  0  0  1  0  0  0  0  0999 V2000
   20.4718  -11.9446  -17.7105 N   0  0  0  0  0  0  0  0  0  0  0  0
   20.1926  -11.6205  -16.3150 C   0  0  1  0  0  0  0  0  0  0  0  0
   20.4856  -12.8771  -15.5324 C   0  0  0  0  0  0  0  0  0  0  0  0
   19.5791  -14.0273  -15.8169 C   0  0  0  0  0  0  0  0  0  0  0  0
   20.2320  -15.1807  -16.4594 C   0  0  0  0  0  0  0  0  0  0  0  0
   21.4688  -15.0981  -16.7121 O   0  0  0  0  0  0  0  0  0  0  0  0
   21.1032  -10.5563  -15.8247 C   0  0  0  0  0  0  0  0  0  0  0  0
   20.9839  -10.2042  -14.6142 O   0  0  0  0  0  0  0  0  0  0  0  0
   19.4886  -16.3002  -16.7635 O   0  0  0  0  0  0  0  0  0  0  0  0
   22.0827   -9.9260  -16.6306 N   0  0  0  0  0  0  0  0  0  0  0  0
   22.9121   -8.8782  -16.0709 C   0  0  1  0  0  0  0  0  0  0  0  0
   24.2427   -8.8911  -16.8382 C   0  0  0  0  0  0  0  0  0  0  0  0
   24.9941  -10.0831  -16.4010 C   0  0  0  0  0  0  0  0  0  0  0  0
   24.7316  -10.8191  -15.2751 C   0  0  0  0  0  0  0  0  0  0  0  0
   25.6401  -11.8080  -15.2525 N   0  0  0  0  0  0  0  0  0  0  0  0
   26.4467  -11.7121  -16.3120 C   0  0  0  0  0  0  0  0  0  0  0  0
   26.0368  -10.6355  -17.0208 N   0  0  0  0  0  0  0  0  0  0  0  0
   22.3309   -7.5291  -16.2542 C   0  0  0  0  0  0  0  0  0  0  0  0
   22.1499   -7.1944  -17.4768 O   0  0  0  0  0  0  0  0  0  0  0  0
   17.5765   -4.5719  -15.1547 C   0  0  0  0  0  0  0  0  0  0  0  0
   18.9713   -4.4635  -15.6104 C   0  0  2  0  0  0  0  0  0  0  0  0
   18.9183   -4.0767  -17.1030 C   0  0  0  0  0  0  0  0  0  0  0  0
   19.9409   -5.5160  -15.4053 C   0  0  0  0  0  0  0  0  0  0  0  0
   21.3897   -5.3638  -15.4608 C   0  0  2  0  0  0  0  0  0  0  0  0
   21.9978   -6.6707  -15.1848 N   0  0  0  0  0  0  0  0  0  0  0  0
   22.0862   -4.3929  -14.6430 C   0  0  0  0  0  0  0  0  0  0  0  0
   22.1480   -3.1695  -14.9314 O   0  0  0  0  0  0  0  0  0  0  0  0
   22.7540   -4.6918  -13.4652 O   0  0  0  0  0  0  0  0  0  0  0  0
  2  1  1  6
  2  7  1  0
  2  3  1  0
  3  4  1  0
  4  5  1  0
  5  9  1  0
  5  6  2  0
  7  8  2  0
 10  7  1  0
 11 10  1  0
 12 13  1  0
 11 12  1  6
 13 17  1  0
 14 13  2  0
 14 15  1  0
 15 16  1  0
 17 16  2  0
 18 11  1  0
 19 18  2  0
 21 20  1  6
 22 21  1  0
 23 21  1  0
 24 23  1  1
 24 25  1  0
 25 18  1  0
 26 24  1  0
 27 26  2  0
 28 26  1  0
M  END
$$$$
