EHL.pdb
     RDKit          3D

 28 28  0  0  1  0  0  0  0  0999 V2000
   16.7108  -12.0706  -17.2676 N   0  0  0  0  0  0  0  0  0  0  0  0
   17.6282  -12.1457  -16.1349 C   0  0  1  0  0  0  0  0  0  0  0  0
   18.2050  -13.5400  -16.1620 C   0  0  0  0  0  0  0  0  0  0  0  0
   17.4503  -14.5540  -15.3695 C   0  0  0  0  0  0  0  0  0  0  0  0
   16.2878  -15.1353  -16.0625 C   0  0  0  0  0  0  0  0  0  0  0  0
   15.4088  -15.7165  -15.3625 O   0  0  0  0  0  0  0  0  0  0  0  0
   18.7491  -11.1864  -16.2949 C   0  0  0  0  0  0  0  0  0  0  0  0
   19.6901  -11.2490  -15.4500 O   0  0  0  0  0  0  0  0  0  0  0  0
   16.1919  -15.0322  -17.4330 O   0  0  0  0  0  0  0  0  0  0  0  0
   18.8166  -10.2209  -17.3288 N   0  0  0  0  0  0  0  0  0  0  0  0
   19.9488   -9.3197  -17.4015 C   0  0  1  0  0  0  0  0  0  0  0  0
   19.8863   -8.6182  -18.7666 C   0  0  0  0  0  0  0  0  0  0  0  0
   20.5036   -9.5209  -19.7569 C   0  0  0  0  0  0  0  0  0  0  0  0
   21.1866  -10.6727  -19.4649 C   0  0  0  0  0  0  0  0  0  0  0  0
   21.5768  -11.1867  -20.6428 N   0  0  0  0  0  0  0  0  0  0  0  0
   21.1647  -10.4037  -21.6424 C   0  0  0  0  0  0  0  0  0  0  0  0
   20.4978   -9.3695  -21.0811 N   0  0  0  0  0  0  0  0  0  0  0  0
   19.8989   -8.2541  -16.3753 C   0  0  0  0  0  0  0  0  0  0  0  0
   18.7356   -7.7506  -16.1939 O   0  0  0  0  0  0  0  0  0  0  0  0
   21.8003   -5.7509  -11.6126 C   0  0  0  0  0  0  0  0  0  0  0  0
   20.8798   -6.8263  -12.0138 C   0  0  2  0  0  0  0  0  0  0  0  0
   20.9222   -7.8840  -10.8912 C   0  0  0  0  0  0  0  0  0  0  0  0
   20.9525   -7.4714  -13.3055 C   0  0  0  0  0  0  0  0  0  0  0  0
   20.8695   -6.8033  -14.5985 C   0  0  2  0  0  0  0  0  0  0  0  0
   21.0266   -7.8171  -15.6481 N   0  0  0  0  0  0  0  0  0  0  0  0
   21.7411   -5.6998  -14.9438 C   0  0  0  0  0  0  0  0  0  0  0  0
   21.6737   -4.5717  -14.3900 O   0  0  0  0  0  0  0  0  0  0  0  0
   22.7365   -5.7559  -15.9074 O   0  0  0  0  0  0  0  0  0  0  0  0
  2  1  1  6
  2  7  1  0
  2  3  1  0
  3  4  1  0
  4  5  1  0
  5  9  1  0
  5  6  2  0
  7  8  2  0
 10  7  1  0
 11 10  1  0
 12 13  1  0
 11 12  1  6
 13 17  1  0
 14 13  2  0
 14 15  1  0
 15 16  1  0
 17 16  2  0
 18 11  1  0
 19 18  2  0
 21 20  1  1
 22 21  1  0
 23 21  1  0
 24 23  1  1
 24 25  1  0
 25 18  1  0
 26 24  1  0
 27 26  2  0
 28 26  1  0
M  END
$$$$
