EHL.pdb
     RDKit          3D

 28 28  0  0  1  0  0  0  0  0999 V2000
   26.9535  -20.7635  -18.0862 N   0  0  0  0  0  0  0  0  0  0  0  0
   25.5763  -20.2815  -18.0471 C   0  0  1  0  0  0  0  0  0  0  0  0
   24.8334  -21.0673  -19.0998 C   0  0  0  0  0  0  0  0  0  0  0  0
   25.2717  -20.8186  -20.5040 C   0  0  0  0  0  0  0  0  0  0  0  0
   26.2338  -21.8014  -21.0312 C   0  0  0  0  0  0  0  0  0  0  0  0
   27.4591  -21.6346  -20.7648 O   0  0  0  0  0  0  0  0  0  0  0  0
   24.9489  -20.5729  -16.7343 C   0  0  0  0  0  0  0  0  0  0  0  0
   23.8290  -21.1639  -16.7459 O   0  0  0  0  0  0  0  0  0  0  0  0
   25.7794  -22.8584  -21.7891 O   0  0  0  0  0  0  0  0  0  0  0  0
   25.5314  -20.2284  -15.4901 N   0  0  0  0  0  0  0  0  0  0  0  0
   24.8290  -20.5245  -14.2580 C   0  0  1  0  0  0  0  0  0  0  0  0
   25.7106  -20.0315  -13.1008 C   0  0  0  0  0  0  0  0  0  0  0  0
   25.0573  -20.4385  -11.8422 C   0  0  0  0  0  0  0  0  0  0  0  0
   23.8611  -21.1003  -11.7457 C   0  0  0  0  0  0  0  0  0  0  0  0
   23.6344  -21.2771  -10.4338 N   0  0  0  0  0  0  0  0  0  0  0  0
   24.6358  -20.7546   -9.7223 C   0  0  0  0  0  0  0  0  0  0  0  0
   25.5165  -20.2348  -10.6076 N   0  0  0  0  0  0  0  0  0  0  0  0
   23.5411  -19.8034  -14.1460 C   0  0  0  0  0  0  0  0  0  0  0  0
   23.5729  -18.5973  -14.5748 O   0  0  0  0  0  0  0  0  0  0  0  0
   18.8216  -19.1181  -16.6933 C   0  0  0  0  0  0  0  0  0  0  0  0
   19.5885  -18.6828  -15.5155 C   0  0  2  0  0  0  0  0  0  0  0  0
   19.9215  -17.1921  -15.7330 C   0  0  0  0  0  0  0  0  0  0  0  0
   20.7592  -19.3886  -15.0448 C   0  0  0  0  0  0  0  0  0  0  0  0
   21.1065  -19.6291  -13.6495 C   0  0  2  0  0  0  0  0  0  0  0  0
   22.3674  -20.3796  -13.6150 N   0  0  0  0  0  0  0  0  0  0  0  0
   20.1955  -20.2926  -12.7405 C   0  0  0  0  0  0  0  0  0  0  0  0
   19.6873  -19.7232  -11.7398 O   0  0  0  0  0  0  0  0  0  0  0  0
   19.7816  -21.6101  -12.8647 O   0  0  0  0  0  0  0  0  0  0  0  0
  2  1  1  1
  2  7  1  0
  2  3  1  0
  3  4  1  0
  4  5  1  0
  5  9  1  0
  5  6  2  0
  7  8  2  0
 10  7  1  0
 11 10  1  0
 12 13  1  0
 11 12  1  1
 13 17  1  0
 14 13  2  0
 14 15  1  0
 15 16  1  0
 17 16  2  0
 18 11  1  0
 19 18  2  0
 21 20  1  6
 22 21  1  0
 23 21  1  0
 24 23  1  6
 24 25  1  0
 25 18  1  0
 26 24  1  0
 27 26  2  0
 28 26  1  0
M  END
$$$$
