EHL.pdb
     RDKit          3D

 28 28  0  0  1  0  0  0  0  0999 V2000
   25.8505  -20.8431  -10.8735 N   0  0  0  0  0  0  0  0  0  0  0  0
   25.8432  -21.1647  -12.2972 C   0  0  1  0  0  0  0  0  0  0  0  0
   24.4820  -21.7511  -12.5815 C   0  0  0  0  0  0  0  0  0  0  0  0
   23.3639  -21.1777  -11.7772 C   0  0  0  0  0  0  0  0  0  0  0  0
   22.0611  -21.8343  -11.9792 C   0  0  0  0  0  0  0  0  0  0  0  0
   22.0083  -22.8166  -12.7746 O   0  0  0  0  0  0  0  0  0  0  0  0
   25.9911  -19.9382  -13.1194 C   0  0  0  0  0  0  0  0  0  0  0  0
   25.6543  -18.8399  -12.5869 O   0  0  0  0  0  0  0  0  0  0  0  0
   20.9528  -21.3669  -11.3074 O   0  0  0  0  0  0  0  0  0  0  0  0
   26.4824  -19.9361  -14.4478 N   0  0  0  0  0  0  0  0  0  0  0  0
   26.7434  -18.6786  -15.1184 C   0  0  1  0  0  0  0  0  0  0  0  0
   27.6346  -18.9850  -16.3313 C   0  0  0  0  0  0  0  0  0  0  0  0
   28.0209  -17.6950  -16.9340 C   0  0  0  0  0  0  0  0  0  0  0  0
   27.6485  -16.4594  -16.4727 C   0  0  0  0  0  0  0  0  0  0  0  0
   28.2120  -15.5641  -17.3003 N   0  0  0  0  0  0  0  0  0  0  0  0
   28.9121  -16.1937  -18.2467 C   0  0  0  0  0  0  0  0  0  0  0  0
   28.7871  -17.5196  -18.0104 N   0  0  0  0  0  0  0  0  0  0  0  0
   25.5137  -18.0453  -15.6458 C   0  0  0  0  0  0  0  0  0  0  0  0
   24.6558  -18.8708  -16.1171 O   0  0  0  0  0  0  0  0  0  0  0  0
   22.4861  -12.7017  -14.8526 C   0  0  0  0  0  0  0  0  0  0  0  0
   22.5430  -14.0884  -15.3412 C   0  0  2  0  0  0  0  0  0  0  0  0
   21.4098  -14.8539  -14.6268 C   0  0  0  0  0  0  0  0  0  0  0  0
   23.7584  -14.8709  -15.3222 C   0  0  0  0  0  0  0  0  0  0  0  0
   23.9775  -16.1237  -16.0349 C   0  0  2  0  0  0  0  0  0  0  0  0
   25.2880  -16.6523  -15.6381 N   0  0  0  0  0  0  0  0  0  0  0  0
   23.9110  -16.2008  -17.4792 C   0  0  0  0  0  0  0  0  0  0  0  0
   24.8479  -15.8259  -18.2313 O   0  0  0  0  0  0  0  0  0  0  0  0
   22.8264  -16.6901  -18.1912 O   0  0  0  0  0  0  0  0  0  0  0  0
  2  1  1  1
  2  7  1  0
  2  3  1  0
  3  4  1  0
  4  5  1  0
  5  9  1  0
  5  6  2  0
  7  8  2  0
 10  7  1  0
 11 10  1  0
 12 13  1  0
 11 12  1  6
 13 17  1  0
 14 13  2  0
 14 15  1  0
 15 16  1  0
 17 16  2  0
 18 11  1  0
 19 18  2  0
 21 20  1  1
 22 21  1  0
 23 21  1  0
 24 23  1  6
 24 25  1  0
 25 18  1  0
 26 24  1  0
 27 26  2  0
 28 26  1  0
M  END
$$$$
