EHL.pdb
     RDKit          3D

 28 28  0  0  1  0  0  0  0  0999 V2000
   16.6774  -13.4929  -18.6203 N   0  0  0  0  0  0  0  0  0  0  0  0
   16.8755  -12.5566  -17.5183 C   0  0  1  0  0  0  0  0  0  0  0  0
   17.3255  -13.3903  -16.3436 C   0  0  0  0  0  0  0  0  0  0  0  0
   16.9589  -14.8347  -16.4135 C   0  0  0  0  0  0  0  0  0  0  0  0
   17.3700  -15.6309  -15.2445 C   0  0  0  0  0  0  0  0  0  0  0  0
   18.0113  -15.0466  -14.3239 O   0  0  0  0  0  0  0  0  0  0  0  0
   17.9569  -11.5897  -17.8310 C   0  0  0  0  0  0  0  0  0  0  0  0
   18.7943  -11.9247  -18.7198 O   0  0  0  0  0  0  0  0  0  0  0  0
   17.0503  -16.9699  -15.1876 O   0  0  0  0  0  0  0  0  0  0  0  0
   18.0957  -10.3318  -17.1950 N   0  0  0  0  0  0  0  0  0  0  0  0
   19.1684   -9.4400  -17.5862 C   0  0  1  0  0  0  0  0  0  0  0  0
   18.5570   -8.0424  -17.7654 C   0  0  0  0  0  0  0  0  0  0  0  0
   17.8352   -8.0366  -19.0521 C   0  0  0  0  0  0  0  0  0  0  0  0
   18.4072   -8.2143  -20.2847 C   0  0  0  0  0  0  0  0  0  0  0  0
   17.4065   -8.1400  -21.1774 N   0  0  0  0  0  0  0  0  0  0  0  0
   16.2484   -7.9251  -20.5491 C   0  0  0  0  0  0  0  0  0  0  0  0
   16.5254   -7.8621  -19.2267 N   0  0  0  0  0  0  0  0  0  0  0  0
   20.2154   -9.3141  -16.5474 C   0  0  0  0  0  0  0  0  0  0  0  0
   19.7699   -9.3122  -15.3469 O   0  0  0  0  0  0  0  0  0  0  0  0
   26.3592   -9.9662  -15.9891 C   0  0  0  0  0  0  0  0  0  0  0  0
   25.0218   -9.8126  -15.3952 C   0  0  2  0  0  0  0  0  0  0  0  0
   24.8442  -10.9798  -14.4019 C   0  0  0  0  0  0  0  0  0  0  0  0
   23.8280   -9.6572  -16.1957 C   0  0  0  0  0  0  0  0  0  0  0  0
   22.5614   -9.0983  -15.7389 C   0  0  2  0  0  0  0  0  0  0  0  0
   21.5924   -9.2046  -16.8361 N   0  0  0  0  0  0  0  0  0  0  0  0
   22.4659   -7.7497  -15.2206 C   0  0  0  0  0  0  0  0  0  0  0  0
   22.4500   -6.7298  -15.9577 O   0  0  0  0  0  0  0  0  0  0  0  0
   22.3805   -7.4291  -13.8743 O   0  0  0  0  0  0  0  0  0  0  0  0
  2  1  1  6
  2  7  1  0
  2  3  1  0
  3  4  1  0
  4  5  1  0
  5  9  1  0
  5  6  2  0
  7  8  2  0
 10  7  1  0
 11 10  1  0
 12 13  1  0
 11 12  1  1
 13 17  1  0
 14 13  2  0
 14 15  1  0
 15 16  1  0
 17 16  2  0
 18 11  1  0
 19 18  2  0
 21 20  1  6
 22 21  1  0
 23 21  1  0
 24 23  1  6
 24 25  1  0
 25 18  1  0
 26 24  1  0
 27 26  2  0
 28 26  1  0
M  END
$$$$
