EHL.pdb
     RDKit          3D

 28 28  0  0  1  0  0  0  0  0999 V2000
   18.8491  -12.1189  -18.3038 N   0  0  0  0  0  0  0  0  0  0  0  0
   18.2642  -10.8160  -18.6054 C   0  0  1  0  0  0  0  0  0  0  0  0
   16.9843  -10.7433  -17.8090 C   0  0  0  0  0  0  0  0  0  0  0  0
   17.1443  -10.9089  -16.3350 C   0  0  0  0  0  0  0  0  0  0  0  0
   15.9155  -10.6857  -15.5541 C   0  0  0  0  0  0  0  0  0  0  0  0
   14.8046  -10.8874  -16.1245 O   0  0  0  0  0  0  0  0  0  0  0  0
   19.1494   -9.7174  -18.1455 C   0  0  0  0  0  0  0  0  0  0  0  0
   20.2038  -10.0442  -17.5253 O   0  0  0  0  0  0  0  0  0  0  0  0
   16.0089  -10.2687  -14.2442 O   0  0  0  0  0  0  0  0  0  0  0  0
   18.8772   -8.3445  -18.3628 N   0  0  0  0  0  0  0  0  0  0  0  0
   19.8888   -7.3520  -18.0615 C   0  0  1  0  0  0  0  0  0  0  0  0
   19.3648   -5.9992  -18.5662 C   0  0  0  0  0  0  0  0  0  0  0  0
   19.7274   -5.8880  -19.9919 C   0  0  0  0  0  0  0  0  0  0  0  0
   20.4994   -6.7816  -20.6874 C   0  0  0  0  0  0  0  0  0  0  0  0
   20.5813   -6.3101  -21.9424 N   0  0  0  0  0  0  0  0  0  0  0  0
   19.8955   -5.1696  -22.0479 C   0  0  0  0  0  0  0  0  0  0  0  0
   19.3677   -4.9150  -20.8288 N   0  0  0  0  0  0  0  0  0  0  0  0
   20.1253   -7.1989  -16.6083 C   0  0  0  0  0  0  0  0  0  0  0  0
   19.0760   -7.3300  -15.8864 O   0  0  0  0  0  0  0  0  0  0  0  0
   22.1347   -8.1638  -11.7120 C   0  0  0  0  0  0  0  0  0  0  0  0
   22.0875   -8.9399  -12.9611 C   0  0  2  0  0  0  0  0  0  0  0  0
   23.2011  -10.0030  -12.8615 C   0  0  0  0  0  0  0  0  0  0  0  0
   22.1121   -8.3170  -14.2656 C   0  0  0  0  0  0  0  0  0  0  0  0
   21.5757   -7.0016  -14.5930 C   0  0  2  0  0  0  0  0  0  0  0  0
   21.3924   -6.9316  -16.0475 N   0  0  0  0  0  0  0  0  0  0  0  0
   22.2480   -5.7831  -14.1931 C   0  0  0  0  0  0  0  0  0  0  0  0
   22.9322   -5.0842  -14.9851 O   0  0  0  0  0  0  0  0  0  0  0  0
   22.2160   -5.2513  -12.9130 O   0  0  0  0  0  0  0  0  0  0  0  0
  2  1  1  1
  2  7  1  0
  2  3  1  0
  3  4  1  0
  4  5  1  0
  5  9  1  0
  5  6  2  0
  7  8  2  0
 10  7  1  0
 11 10  1  0
 12 13  1  0
 11 12  1  1
 13 17  1  0
 14 13  2  0
 14 15  1  0
 15 16  1  0
 17 16  2  0
 18 11  1  0
 19 18  2  0
 21 20  1  1
 22 21  1  0
 23 21  1  0
 24 23  1  6
 24 25  1  0
 25 18  1  0
 26 24  1  0
 27 26  2  0
 28 26  1  0
M  END
$$$$
