HYG.pdb
     RDKit          3D

 27 28  0  0  1  0  0  0  0  0999 V2000
   17.4203  -23.4213   28.4545 N   0  0  0  0  0  0  0  0  0  0  0  0
   16.1819  -22.6930   28.3343 C   0  0  1  0  0  0  0  0  0  0  0  0
   15.3347  -23.3061   27.2459 C   0  0  0  0  0  0  0  0  0  0  0  0
   15.9303  -23.0967   25.9130 C   0  0  0  0  0  0  0  0  0  0  0  0
   16.4614  -24.0510   25.0752 C   0  0  0  0  0  0  0  0  0  0  0  0
   16.9104  -23.4607   23.9377 N   0  0  0  0  0  0  0  0  0  0  0  0
   16.6609  -22.1403   24.0635 C   0  0  0  0  0  0  0  0  0  0  0  0
   16.0669  -21.9289   25.2635 N   0  0  0  0  0  0  0  0  0  0  0  0
   15.5022  -22.7568   29.6605 C   0  0  0  0  0  0  0  0  0  0  0  0
   15.6181  -23.7664   30.4202 O   0  0  0  0  0  0  0  0  0  0  0  0
   19.7724  -20.9712   34.3012 O   0  0  0  0  0  0  0  0  0  0  0  0
   18.4699  -20.8771   33.7787 C   0  0  0  0  0  0  0  0  0  0  0  0
   18.2087  -20.3319   32.5565 C   0  0  0  0  0  0  0  0  0  0  0  0
   16.8958  -20.2729   32.1060 C   0  0  0  0  0  0  0  0  0  0  0  0
   15.8314  -20.7437   32.8428 C   0  0  0  0  0  0  0  0  0  0  0  0
   14.4398  -20.6695   32.3665 C   0  0  0  0  0  0  0  0  0  0  0  0
   14.0119  -21.7454   31.4391 C   0  0  2  0  0  0  0  0  0  0  0  0
   14.6873  -21.7050   30.1601 N   0  0  0  0  0  0  0  0  0  0  0  0
   12.5585  -21.6543   31.1797 C   0  0  0  0  0  0  0  0  0  0  0  0
   12.0182  -20.6752   30.5895 O   0  0  0  0  0  0  0  0  0  0  0  0
   16.1143  -21.2907   34.0737 C   0  0  0  0  0  0  0  0  0  0  0  0
   17.4251  -21.3571   34.5389 C   0  0  0  0  0  0  0  0  0  0  0  0
   11.6631  -22.6834   31.5868 N   0  0  0  0  0  0  0  0  0  0  0  0
   10.2224  -22.5824   31.3214 C   0  0  0  0  0  0  0  0  0  0  0  0
    9.4991  -23.6776   31.9797 C   0  0  0  0  0  0  0  0  0  0  0  0
   10.1305  -24.6087   32.5745 O   0  0  0  0  0  0  0  0  0  0  0  0
    8.1163  -23.6842   31.9449 O   0  0  0  0  0  0  0  0  0  0  0  0
  2  9  1  0
  2  1  1  1
  2  3  1  0
  4  3  1  0
  4  8  1  0
  5  4  2  0
  6  5  1  0
  6  7  1  0
  7  8  2  0
  9 18  1  0
 10  9  2  0
 12 11  1  0
 13 12  2  0
 14 13  1  0
 15 21  1  0
 15 14  2  0
 16 15  1  0
 17 16  1  1
 18 17  1  0
 19 23  1  0
 19 17  1  0
 20 19  2  0
 21 22  2  0
 22 12  1  0
 24 23  1  0
 25 24  1  0
 26 25  2  0
 27 25  1  0
M  END
$$$$
