HYG.pdb
     RDKit          3D

 27 28  0  0  1  0  0  0  0  0999 V2000
   11.0209  -14.4240   19.9121 N   0  0  0  0  0  0  0  0  0  0  0  0
    9.8383  -14.3523   20.7334 C   0  0  1  0  0  0  0  0  0  0  0  0
    8.7228  -15.1388   20.0890 C   0  0  0  0  0  0  0  0  0  0  0  0
    8.2801  -14.5166   18.8271 C   0  0  0  0  0  0  0  0  0  0  0  0
    8.1139  -13.1746   18.5697 C   0  0  0  0  0  0  0  0  0  0  0  0
    7.6937  -13.0040   17.2898 N   0  0  0  0  0  0  0  0  0  0  0  0
    7.5973  -14.2363   16.7477 C   0  0  0  0  0  0  0  0  0  0  0  0
    7.9545  -15.1466   17.6864 N   0  0  0  0  0  0  0  0  0  0  0  0
   10.1968  -14.9043   22.0719 C   0  0  0  0  0  0  0  0  0  0  0  0
   11.2646  -15.5645   22.2557 O   0  0  0  0  0  0  0  0  0  0  0  0
   10.6368  -15.4204   30.9635 O   0  0  0  0  0  0  0  0  0  0  0  0
   10.2031  -15.2076   29.6426 C   0  0  0  0  0  0  0  0  0  0  0  0
    9.3510  -16.0602   29.0051 C   0  0  0  0  0  0  0  0  0  0  0  0
    8.9660  -15.7848   27.6990 C   0  0  0  0  0  0  0  0  0  0  0  0
    9.4085  -14.6787   27.0074 C   0  0  0  0  0  0  0  0  0  0  0  0
    9.0066  -14.3959   25.6190 C   0  0  0  0  0  0  0  0  0  0  0  0
    9.7861  -15.0872   24.5630 C   0  0  2  0  0  0  0  0  0  0  0  0
    9.3782  -14.7319   23.2209 N   0  0  0  0  0  0  0  0  0  0  0  0
    9.6489  -16.5538   24.6979 C   0  0  0  0  0  0  0  0  0  0  0  0
    9.9711  -17.1883   25.7433 O   0  0  0  0  0  0  0  0  0  0  0  0
   10.2676  -13.8294   27.6668 C   0  0  0  0  0  0  0  0  0  0  0  0
   10.6625  -14.0920   28.9761 C   0  0  0  0  0  0  0  0  0  0  0  0
    9.1361  -17.3547   23.6388 N   0  0  0  0  0  0  0  0  0  0  0  0
    9.0356  -18.8136   23.7728 C   0  0  0  0  0  0  0  0  0  0  0  0
   10.3441  -19.4426   23.5540 C   0  0  0  0  0  0  0  0  0  0  0  0
   11.4181  -18.8332   23.8618 O   0  0  0  0  0  0  0  0  0  0  0  0
   10.3949  -20.7118   23.0063 O   0  0  0  0  0  0  0  0  0  0  0  0
  2  9  1  0
  2  1  1  6
  2  3  1  0
  4  3  1  0
  4  8  1  0
  5  4  2  0
  6  5  1  0
  6  7  1  0
  7  8  2  0
  9 18  1  0
 10  9  2  0
 12 11  1  0
 13 12  2  0
 14 13  1  0
 15 21  1  0
 15 14  2  0
 16 15  1  0
 17 16  1  1
 18 17  1  0
 19 23  1  0
 19 17  1  0
 20 19  2  0
 21 22  2  0
 22 12  1  0
 24 23  1  0
 25 24  1  0
 26 25  2  0
 27 25  1  0
M  END
$$$$
