HYG.pdb
     RDKit          3D

 27 28  0  0  1  0  0  0  0  0999 V2000
    9.2182  -12.6405   20.3134 N   0  0  0  0  0  0  0  0  0  0  0  0
    8.5783  -13.8963   20.6167 C   0  0  1  0  0  0  0  0  0  0  0  0
    8.8290  -14.8784   19.4983 C   0  0  0  0  0  0  0  0  0  0  0  0
    8.2878  -14.3893   18.2165 C   0  0  0  0  0  0  0  0  0  0  0  0
    7.2346  -13.5228   18.0296 C   0  0  0  0  0  0  0  0  0  0  0  0
    7.0429  -13.3173   16.7011 N   0  0  0  0  0  0  0  0  0  0  0  0
    7.9739  -14.0533   16.0583 C   0  0  0  0  0  0  0  0  0  0  0  0
    8.7237  -14.6995   16.9844 N   0  0  0  0  0  0  0  0  0  0  0  0
    9.1455  -14.3795   21.9088 C   0  0  0  0  0  0  0  0  0  0  0  0
   10.3336  -14.1041   22.2590 O   0  0  0  0  0  0  0  0  0  0  0  0
    5.9851  -10.5998   26.8370 O   0  0  0  0  0  0  0  0  0  0  0  0
    6.5064  -11.8496   26.4569 C   0  0  0  0  0  0  0  0  0  0  0  0
    7.7058  -12.3119   26.9119 C   0  0  0  0  0  0  0  0  0  0  0  0
    8.1568  -13.5572   26.4926 C   0  0  0  0  0  0  0  0  0  0  0  0
    7.4429  -14.3580   25.6284 C   0  0  0  0  0  0  0  0  0  0  0  0
    7.9294  -15.6730   25.1776 C   0  0  0  0  0  0  0  0  0  0  0  0
    8.9325  -15.6552   24.0848 C   0  0  2  0  0  0  0  0  0  0  0  0
    8.4049  -15.1721   22.8270 N   0  0  0  0  0  0  0  0  0  0  0  0
    9.4657  -17.0153   23.8525 C   0  0  0  0  0  0  0  0  0  0  0  0
    8.9722  -17.8206   23.0117 O   0  0  0  0  0  0  0  0  0  0  0  0
    6.2347  -13.8750   25.1798 C   0  0  0  0  0  0  0  0  0  0  0  0
    5.7692  -12.6288   25.5913 C   0  0  0  0  0  0  0  0  0  0  0  0
   10.5880  -17.5090   24.5756 N   0  0  0  0  0  0  0  0  0  0  0  0
   11.8602  -16.7757   24.5926 C   0  0  0  0  0  0  0  0  0  0  0  0
   12.8805  -17.4960   23.8206 C   0  0  0  0  0  0  0  0  0  0  0  0
   12.8078  -17.5647   22.5520 O   0  0  0  0  0  0  0  0  0  0  0  0
   13.9266  -18.1018   24.4931 O   0  0  0  0  0  0  0  0  0  0  0  0
  2  9  1  0
  2  1  1  6
  2  3  1  0
  4  3  1  0
  4  8  1  0
  5  4  2  0
  6  5  1  0
  6  7  1  0
  7  8  2  0
  9 18  1  0
 10  9  2  0
 12 11  1  0
 13 12  2  0
 14 13  1  0
 15 21  1  0
 15 14  2  0
 16 15  1  0
 17 16  1  1
 18 17  1  0
 19 23  1  0
 19 17  1  0
 20 19  2  0
 21 22  2  0
 22 12  1  0
 24 23  1  0
 25 24  1  0
 26 25  2  0
 27 25  1  0
M  END
$$$$
