HYG.pdb
     RDKit          3D

 27 28  0  0  1  0  0  0  0  0999 V2000
   10.7003  -13.9802   20.9965 N   0  0  0  0  0  0  0  0  0  0  0  0
    9.3519  -14.3484   21.3497 C   0  0  1  0  0  0  0  0  0  0  0  0
    8.7907  -15.2851   20.3076 C   0  0  0  0  0  0  0  0  0  0  0  0
    8.4253  -14.5656   19.0731 C   0  0  0  0  0  0  0  0  0  0  0  0
    8.5328  -13.2151   18.8293 C   0  0  0  0  0  0  0  0  0  0  0  0
    8.0932  -12.9415   17.5740 N   0  0  0  0  0  0  0  0  0  0  0  0
    7.7115  -14.1179   17.0337 C   0  0  0  0  0  0  0  0  0  0  0  0
    7.9163  -15.0965   17.9491 N   0  0  0  0  0  0  0  0  0  0  0  0
    9.4084  -14.9930   22.6936 C   0  0  0  0  0  0  0  0  0  0  0  0
   10.5124  -15.2926   23.2425 O   0  0  0  0  0  0  0  0  0  0  0  0
    6.4901  -10.1289   27.2425 O   0  0  0  0  0  0  0  0  0  0  0  0
    6.5858  -11.4613   26.8021 C   0  0  0  0  0  0  0  0  0  0  0  0
    5.6300  -12.0463   26.0252 C   0  0  0  0  0  0  0  0  0  0  0  0
    5.7928  -13.3677   25.6282 C   0  0  0  0  0  0  0  0  0  0  0  0
    6.8860  -14.1257   25.9857 C   0  0  0  0  0  0  0  0  0  0  0  0
    7.0498  -15.5296   25.5719 C   0  0  0  0  0  0  0  0  0  0  0  0
    8.2732  -15.8389   24.7920 C   0  0  2  0  0  0  0  0  0  0  0  0
    8.2448  -15.3129   23.4442 N   0  0  0  0  0  0  0  0  0  0  0  0
    8.4671  -17.3022   24.6963 C   0  0  0  0  0  0  0  0  0  0  0  0
    7.6479  -18.0754   24.1217 O   0  0  0  0  0  0  0  0  0  0  0  0
    7.8404  -13.5185   26.7698 C   0  0  0  0  0  0  0  0  0  0  0  0
    7.6914  -12.1947   27.1756 C   0  0  0  0  0  0  0  0  0  0  0  0
    9.6097  -17.9405   25.2561 N   0  0  0  0  0  0  0  0  0  0  0  0
    9.8260  -19.3839   25.0946 C   0  0  0  0  0  0  0  0  0  0  0  0
   11.0469  -19.8035   25.7939 C   0  0  0  0  0  0  0  0  0  0  0  0
   11.8015  -18.9465   26.3556 O   0  0  0  0  0  0  0  0  0  0  0  0
   11.3677  -21.1484   25.8347 O   0  0  0  0  0  0  0  0  0  0  0  0
  2  9  1  0
  2  1  1  6
  2  3  1  0
  4  3  1  0
  4  8  1  0
  5  4  2  0
  6  5  1  0
  6  7  1  0
  7  8  2  0
  9 18  1  0
 10  9  2  0
 12 11  1  0
 13 12  2  0
 14 13  1  0
 15 21  1  0
 15 14  2  0
 16 15  1  0
 17 16  1  6
 18 17  1  0
 19 23  1  0
 19 17  1  0
 20 19  2  0
 21 22  2  0
 22 12  1  0
 24 23  1  0
 25 24  1  0
 26 25  2  0
 27 25  1  0
M  END
$$$$
