HYG.pdb
     RDKit          3D

 27 28  0  0  1  0  0  0  0  0999 V2000
    8.4593  -16.1480   21.0666 N   0  0  0  0  0  0  0  0  0  0  0  0
    9.0847  -14.8735   21.3178 C   0  0  1  0  0  0  0  0  0  0  0  0
    8.1731  -13.7606   20.8609 C   0  0  0  0  0  0  0  0  0  0  0  0
    7.9576  -13.8013   19.4024 C   0  0  0  0  0  0  0  0  0  0  0  0
    8.2395  -12.8121   18.4876 C   0  0  0  0  0  0  0  0  0  0  0  0
    7.8975  -13.2314   17.2421 N   0  0  0  0  0  0  0  0  0  0  0  0
    7.4027  -14.4798   17.3773 C   0  0  0  0  0  0  0  0  0  0  0  0
    7.4430  -14.8169   18.6897 N   0  0  0  0  0  0  0  0  0  0  0  0
    9.3541  -14.7957   22.7828 C   0  0  0  0  0  0  0  0  0  0  0  0
    9.9114  -13.7822   23.3044 O   0  0  0  0  0  0  0  0  0  0  0  0
    5.8830  -10.6133   27.2792 O   0  0  0  0  0  0  0  0  0  0  0  0
    6.4246  -11.8704   26.9556 C   0  0  0  0  0  0  0  0  0  0  0  0
    7.6823  -12.2436   27.3272 C   0  0  0  0  0  0  0  0  0  0  0  0
    8.1500  -13.5025   26.9713 C   0  0  0  0  0  0  0  0  0  0  0  0
    7.3961  -14.4035   26.2520 C   0  0  0  0  0  0  0  0  0  0  0  0
    7.8993  -15.7330   25.8671 C   0  0  0  0  0  0  0  0  0  0  0  0
    9.1809  -15.7517   25.1202 C   0  0  2  0  0  0  0  0  0  0  0  0
    9.0100  -15.8377   23.6860 N   0  0  0  0  0  0  0  0  0  0  0  0
   10.0062  -16.9047   25.5416 C   0  0  0  0  0  0  0  0  0  0  0  0
   10.2097  -17.2077   26.7523 O   0  0  0  0  0  0  0  0  0  0  0  0
    6.1292  -14.0094   25.8859 C   0  0  0  0  0  0  0  0  0  0  0  0
    5.6463  -12.7509   26.2353 C   0  0  0  0  0  0  0  0  0  0  0  0
   10.6329  -17.7592   24.5912 N   0  0  0  0  0  0  0  0  0  0  0  0
   11.3814  -18.9479   25.0192 C   0  0  0  0  0  0  0  0  0  0  0  0
   11.8697  -19.6965   23.8543 C   0  0  0  0  0  0  0  0  0  0  0  0
   11.6760  -19.2616   22.6741 O   0  0  0  0  0  0  0  0  0  0  0  0
   12.5461  -20.8859   24.0571 O   0  0  0  0  0  0  0  0  0  0  0  0
  2  9  1  0
  2  1  1  1
  2  3  1  0
  4  3  1  0
  4  8  1  0
  5  4  2  0
  6  5  1  0
  6  7  1  0
  7  8  2  0
  9 18  1  0
 10  9  2  0
 12 11  1  0
 13 12  2  0
 14 13  1  0
 15 21  1  0
 15 14  2  0
 16 15  1  0
 17 16  1  1
 18 17  1  0
 19 23  1  0
 19 17  1  0
 20 19  2  0
 21 22  2  0
 22 12  1  0
 24 23  1  0
 25 24  1  0
 26 25  2  0
 27 25  1  0
M  END
$$$$
