HYG.pdb
     RDKit          3D

 27 28  0  0  1  0  0  0  0  0999 V2000
    8.4040  -15.8971   18.9334 N   0  0  0  0  0  0  0  0  0  0  0  0
    8.9846  -14.5775   18.9202 C   0  0  1  0  0  0  0  0  0  0  0  0
    8.1710  -13.6726   18.0271 C   0  0  0  0  0  0  0  0  0  0  0  0
    8.2293  -14.1066   16.6188 C   0  0  0  0  0  0  0  0  0  0  0  0
    8.9731  -15.1380   16.0917 C   0  0  0  0  0  0  0  0  0  0  0  0
    8.7549  -15.2209   14.7540 N   0  0  0  0  0  0  0  0  0  0  0  0
    7.8767  -14.2437   14.4448 C   0  0  0  0  0  0  0  0  0  0  0  0
    7.5638  -13.5736   15.5809 N   0  0  0  0  0  0  0  0  0  0  0  0
    9.0001  -14.0884   20.3292 C   0  0  0  0  0  0  0  0  0  0  0  0
    9.4666  -12.9483   20.6332 O   0  0  0  0  0  0  0  0  0  0  0  0
    6.7030  -12.0311   28.5581 O   0  0  0  0  0  0  0  0  0  0  0  0
    6.8217  -12.4862   27.2326 C   0  0  0  0  0  0  0  0  0  0  0  0
    7.2483  -11.6819   26.2174 C   0  0  0  0  0  0  0  0  0  0  0  0
    7.3404  -12.2017   24.9324 C   0  0  0  0  0  0  0  0  0  0  0  0
    7.0176  -13.5061   24.6293 C   0  0  0  0  0  0  0  0  0  0  0  0
    7.1062  -14.0505   23.2637 C   0  0  0  0  0  0  0  0  0  0  0  0
    8.4693  -14.3887   22.7859 C   0  0  2  0  0  0  0  0  0  0  0  0
    8.4999  -14.8549   21.4164 N   0  0  0  0  0  0  0  0  0  0  0  0
    9.0638  -15.4469   23.6313 C   0  0  0  0  0  0  0  0  0  0  0  0
    9.0841  -15.3971   24.8947 O   0  0  0  0  0  0  0  0  0  0  0  0
    6.5892  -14.3030   25.6666 C   0  0  0  0  0  0  0  0  0  0  0  0
    6.4918  -13.7965   26.9600 C   0  0  0  0  0  0  0  0  0  0  0  0
    9.6606  -16.6074   23.0626 N   0  0  0  0  0  0  0  0  0  0  0  0
   10.1876  -17.6821   23.9132 C   0  0  0  0  0  0  0  0  0  0  0  0
   11.6049  -17.4499   24.2182 C   0  0  0  0  0  0  0  0  0  0  0  0
   12.2006  -16.4107   23.7885 O   0  0  0  0  0  0  0  0  0  0  0  0
   12.2875  -18.3794   24.9821 O   0  0  0  0  0  0  0  0  0  0  0  0
  2  9  1  0
  2  1  1  1
  2  3  1  0
  4  3  1  0
  4  8  1  0
  5  4  2  0
  6  5  1  0
  6  7  1  0
  7  8  2  0
  9 18  1  0
 10  9  2  0
 12 11  1  0
 13 12  2  0
 14 13  1  0
 15 21  1  0
 15 14  2  0
 16 15  1  0
 17 16  1  1
 18 17  1  0
 19 23  1  0
 19 17  1  0
 20 19  2  0
 21 22  2  0
 22 12  1  0
 24 23  1  0
 25 24  1  0
 26 25  2  0
 27 25  1  0
M  END
$$$$
