HYG.pdb
     RDKit          3D

 27 28  0  0  1  0  0  0  0  0999 V2000
    9.3916  -16.7123   18.5225 N   0  0  0  0  0  0  0  0  0  0  0  0
    9.0158  -17.3944   19.7358 C   0  0  1  0  0  0  0  0  0  0  0  0
    9.8624  -18.6323   19.9066 C   0  0  0  0  0  0  0  0  0  0  0  0
    9.4557  -19.6996   18.9734 C   0  0  0  0  0  0  0  0  0  0  0  0
    8.7041  -20.8172   19.2577 C   0  0  0  0  0  0  0  0  0  0  0  0
    8.5450  -21.5588   18.1313 N   0  0  0  0  0  0  0  0  0  0  0  0
    9.1955  -20.9068   17.1448 C   0  0  0  0  0  0  0  0  0  0  0  0
    9.7443  -19.7814   17.6641 N   0  0  0  0  0  0  0  0  0  0  0  0
    9.2135  -16.4349   20.8605 C   0  0  0  0  0  0  0  0  0  0  0  0
   10.1955  -15.6318   20.8859 O   0  0  0  0  0  0  0  0  0  0  0  0
    7.0138  -10.9416   27.5289 O   0  0  0  0  0  0  0  0  0  0  0  0
    7.0122  -11.9830   26.5836 C   0  0  0  0  0  0  0  0  0  0  0  0
    6.8782  -13.2931   26.9374 C   0  0  0  0  0  0  0  0  0  0  0  0
    6.8857  -14.2679   25.9476 C   0  0  0  0  0  0  0  0  0  0  0  0
    7.0240  -13.9724   24.6093 C   0  0  0  0  0  0  0  0  0  0  0  0
    7.0424  -15.0095   23.5637 C   0  0  0  0  0  0  0  0  0  0  0  0
    8.3650  -15.2965   22.9562 C   0  0  2  0  0  0  0  0  0  0  0  0
    8.3275  -16.3536   21.9687 N   0  0  0  0  0  0  0  0  0  0  0  0
    9.3359  -15.6937   23.9990 C   0  0  0  0  0  0  0  0  0  0  0  0
    9.7028  -14.9265   24.9348 O   0  0  0  0  0  0  0  0  0  0  0  0
    7.1578  -12.6449   24.2711 C   0  0  0  0  0  0  0  0  0  0  0  0
    7.1520  -11.6564   25.2518 C   0  0  0  0  0  0  0  0  0  0  0  0
    9.9270  -16.9886   24.0121 N   0  0  0  0  0  0  0  0  0  0  0  0
   10.9167  -17.3589   25.0318 C   0  0  0  0  0  0  0  0  0  0  0  0
   10.2529  -17.6812   26.3012 C   0  0  0  0  0  0  0  0  0  0  0  0
    9.5346  -18.7258   26.4124 O   0  0  0  0  0  0  0  0  0  0  0  0
   10.4191  -16.8310   27.3796 O   0  0  0  0  0  0  0  0  0  0  0  0
  2  9  1  0
  2  1  1  6
  2  3  1  0
  4  3  1  0
  4  8  1  0
  5  4  2  0
  6  5  1  0
  6  7  1  0
  7  8  2  0
  9 18  1  0
 10  9  2  0
 12 11  1  0
 13 12  2  0
 14 13  1  0
 15 21  1  0
 15 14  2  0
 16 15  1  0
 17 16  1  1
 18 17  1  0
 19 23  1  0
 19 17  1  0
 20 19  2  0
 21 22  2  0
 22 12  1  0
 24 23  1  0
 25 24  1  0
 26 25  2  0
 27 25  1  0
M  END
$$$$
