HYG.pdb
     RDKit          3D

 27 28  0  0  1  0  0  0  0  0999 V2000
    9.0805  -17.1248   18.4263 N   0  0  0  0  0  0  0  0  0  0  0  0
    8.2990  -17.5541   19.5592 C   0  0  1  0  0  0  0  0  0  0  0  0
    8.6478  -18.9809   19.9066 C   0  0  0  0  0  0  0  0  0  0  0  0
    8.1186  -19.9268   18.9063 C   0  0  0  0  0  0  0  0  0  0  0  0
    6.9278  -20.6157   18.9548 C   0  0  0  0  0  0  0  0  0  0  0  0
    6.8014  -21.3872   17.8445 N   0  0  0  0  0  0  0  0  0  0  0  0
    7.9103  -21.1815   17.1032 C   0  0  0  0  0  0  0  0  0  0  0  0
    8.7028  -20.2952   17.7543 N   0  0  0  0  0  0  0  0  0  0  0  0
    8.6061  -16.6245   20.6845 C   0  0  0  0  0  0  0  0  0  0  0  0
    9.7645  -16.1318   20.8440 O   0  0  0  0  0  0  0  0  0  0  0  0
    7.3865  -11.3966   27.8455 O   0  0  0  0  0  0  0  0  0  0  0  0
    7.1943  -12.2255   26.7256 C   0  0  0  0  0  0  0  0  0  0  0  0
    6.7289  -13.5028   26.8311 C   0  0  0  0  0  0  0  0  0  0  0  0
    6.5642  -14.2627   25.6798 C   0  0  0  0  0  0  0  0  0  0  0  0
    6.8520  -13.7832   24.4209 C   0  0  0  0  0  0  0  0  0  0  0  0
    6.6865  -14.5955   23.2036 C   0  0  0  0  0  0  0  0  0  0  0  0
    7.8989  -15.3038   22.7249 C   0  0  2  0  0  0  0  0  0  0  0  0
    7.6356  -16.2302   21.6450 N   0  0  0  0  0  0  0  0  0  0  0  0
    8.5182  -16.0692   23.8289 C   0  0  0  0  0  0  0  0  0  0  0  0
    7.9063  -16.9605   24.4848 O   0  0  0  0  0  0  0  0  0  0  0  0
    7.3205  -12.4920   24.3339 C   0  0  0  0  0  0  0  0  0  0  0  0
    7.4907  -11.7178   25.4789 C   0  0  0  0  0  0  0  0  0  0  0  0
    9.8662  -15.8442   24.2270 N   0  0  0  0  0  0  0  0  0  0  0  0
   10.5148  -16.7044   25.2249 C   0  0  0  0  0  0  0  0  0  0  0  0
   11.8819  -16.2414   25.4938 C   0  0  0  0  0  0  0  0  0  0  0  0
   12.4414  -15.3893   24.7320 O   0  0  0  0  0  0  0  0  0  0  0  0
   12.5571  -16.7457   26.5907 O   0  0  0  0  0  0  0  0  0  0  0  0
  2  9  1  0
  2  1  1  6
  2  3  1  0
  4  3  1  0
  4  8  1  0
  5  4  2  0
  6  5  1  0
  6  7  1  0
  7  8  2  0
  9 18  1  0
 10  9  2  0
 12 11  1  0
 13 12  2  0
 14 13  1  0
 15 21  1  0
 15 14  2  0
 16 15  1  0
 17 16  1  1
 18 17  1  0
 19 23  1  0
 19 17  1  0
 20 19  2  0
 21 22  2  0
 22 12  1  0
 24 23  1  0
 25 24  1  0
 26 25  2  0
 27 25  1  0
M  END
$$$$
