HYG.pdb
     RDKit          3D

 27 28  0  0  1  0  0  0  0  0999 V2000
    9.2959  -12.7248   20.3039 N   0  0  0  0  0  0  0  0  0  0  0  0
    8.6864  -13.9756   20.6813 C   0  0  1  0  0  0  0  0  0  0  0  0
    9.0299  -15.0364   19.6639 C   0  0  0  0  0  0  0  0  0  0  0  0
    8.4400  -14.7345   18.3463 C   0  0  0  0  0  0  0  0  0  0  0  0
    7.5823  -13.7053   18.0301 C   0  0  0  0  0  0  0  0  0  0  0  0
    7.2634  -13.7658   16.7116 N   0  0  0  0  0  0  0  0  0  0  0  0
    7.9198  -14.8302   16.2040 C   0  0  0  0  0  0  0  0  0  0  0  0
    8.6302  -15.4112   17.2017 N   0  0  0  0  0  0  0  0  0  0  0  0
    9.2027  -14.3267   22.0359 C   0  0  0  0  0  0  0  0  0  0  0  0
   10.3187  -13.8933   22.4561 O   0  0  0  0  0  0  0  0  0  0  0  0
    5.8616  -10.1779   26.5367 O   0  0  0  0  0  0  0  0  0  0  0  0
    6.3302  -11.4553   26.1800 C   0  0  0  0  0  0  0  0  0  0  0  0
    6.1303  -11.9892   24.9413 C   0  0  0  0  0  0  0  0  0  0  0  0
    6.6226  -13.2577   24.6613 C   0  0  0  0  0  0  0  0  0  0  0  0
    7.3111  -14.0125   25.5853 C   0  0  0  0  0  0  0  0  0  0  0  0
    7.8220  -15.3615   25.2881 C   0  0  0  0  0  0  0  0  0  0  0  0
    8.9202  -15.4361   24.2936 C   0  0  2  0  0  0  0  0  0  0  0  0
    8.4902  -15.1607   22.9396 N   0  0  0  0  0  0  0  0  0  0  0  0
    9.5329  -16.7824   24.3024 C   0  0  0  0  0  0  0  0  0  0  0  0
    9.0437  -17.7723   23.6860 O   0  0  0  0  0  0  0  0  0  0  0  0
    7.5034  -13.4573   26.8299 C   0  0  0  0  0  0  0  0  0  0  0  0
    7.0161  -12.1868   27.1257 C   0  0  0  0  0  0  0  0  0  0  0  0
   10.7332  -17.0500   25.0193 N   0  0  0  0  0  0  0  0  0  0  0  0
   11.3677  -18.3732   24.9667 C   0  0  0  0  0  0  0  0  0  0  0  0
   11.1444  -19.1021   26.2215 C   0  0  0  0  0  0  0  0  0  0  0  0
   10.0178  -19.0515   26.8112 O   0  0  0  0  0  0  0  0  0  0  0  0
   12.1790  -19.8480   26.7570 O   0  0  0  0  0  0  0  0  0  0  0  0
  2  9  1  0
  2  1  1  6
  2  3  1  0
  4  3  1  0
  4  8  1  0
  5  4  2  0
  6  5  1  0
  6  7  1  0
  7  8  2  0
  9 18  1  0
 10  9  2  0
 12 11  1  0
 13 12  2  0
 14 13  1  0
 15 21  1  0
 15 14  2  0
 16 15  1  0
 17 16  1  1
 18 17  1  0
 19 23  1  0
 19 17  1  0
 20 19  2  0
 21 22  2  0
 22 12  1  0
 24 23  1  0
 25 24  1  0
 26 25  2  0
 27 25  1  0
M  END
$$$$
