LFL.pdb
     RDKit          3D

 28 28  0  0  1  0  0  0  0  0999 V2000
    8.1844  -12.6425   19.5603 C   0  0  0  0  0  0  0  0  0  0  0  0
    9.4255  -13.4803   19.7541 C   0  0  1  0  0  0  0  0  0  0  0  0
   10.6480  -12.8011   19.2087 C   0  0  0  0  0  0  0  0  0  0  0  0
    9.5691  -13.9761   21.1633 C   0  0  0  0  0  0  0  0  0  0  0  0
    8.5818  -15.0770   21.4856 C   0  0  2  0  0  0  0  0  0  0  0  0
    7.2387  -14.7946   21.0887 N   0  0  0  0  0  0  0  0  0  0  0  0
    8.6160  -15.3428   22.9425 C   0  0  0  0  0  0  0  0  0  0  0  0
    9.7033  -15.5985   23.5037 O   0  0  0  0  0  0  0  0  0  0  0  0
    7.4501  -15.3200   23.7444 N   0  0  0  0  0  0  0  0  0  0  0  0
    7.3570  -15.9174   25.0606 C   0  0  1  0  0  0  0  0  0  0  0  0
    6.3335  -15.1443   25.8444 C   0  0  0  0  0  0  0  0  0  0  0  0
    6.7892  -13.7744   26.1629 C   0  0  0  0  0  0  0  0  0  0  0  0
    8.0551  -13.4911   26.6398 C   0  0  0  0  0  0  0  0  0  0  0  0
    8.4197  -12.1928   26.9175 C   0  0  0  0  0  0  0  0  0  0  0  0
    7.5342  -11.1619   26.7263 C   0  0  0  0  0  0  0  0  0  0  0  0
    6.2778  -11.4434   26.2535 C   0  0  0  0  0  0  0  0  0  0  0  0
    5.9015  -12.7379   25.9714 C   0  0  0  0  0  0  0  0  0  0  0  0
    6.9882  -17.3703   24.9771 C   0  0  0  0  0  0  0  0  0  0  0  0
    6.6029  -18.0109   25.9870 O   0  0  0  0  0  0  0  0  0  0  0  0
    4.9258  -18.6452   20.1858 C   0  0  0  0  0  0  0  0  0  0  0  0
    5.2533  -18.5630   21.6453 C   0  0  1  0  0  0  0  0  0  0  0  0
    3.9424  -18.4287   22.3967 C   0  0  0  0  0  0  0  0  0  0  0  0
    6.1804  -19.5397   22.2080 C   0  0  0  0  0  0  0  0  0  0  0  0
    6.7536  -19.4263   23.5477 C   0  0  2  0  0  0  0  0  0  0  0  0
    7.0904  -17.9897   23.7198 N   0  0  0  0  0  0  0  0  0  0  0  0
    7.8456  -20.2717   23.9717 C   0  0  0  0  0  0  0  0  0  0  0  0
    9.0392  -19.8162   24.1695 O   0  0  0  0  0  0  0  0  0  0  0  0
    7.7699  -21.6325   24.2213 O   0  0  0  0  0  0  0  0  0  0  0  0
  2  3  1  1
  2  1  1  0
  4  2  1  0
  5  4  1  0
  5  6  1  1
  7  8  2  0
  7  5  1  0
  9  7  1  0
 10  9  1  0
 11 12  1  0
 10 11  1  1
 12 17  2  0
 12 13  1  0
 13 14  2  0
 14 15  1  0
 16 15  2  0
 17 16  1  0
 18 10  1  0
 18 19  2  0
 21 23  1  0
 21 20  1  6
 22 21  1  0
 24 25  1  0
 24 23  1  6
 25 18  1  0
 26 24  1  0
 27 26  2  0
 28 26  1  0
M  END
$$$$
