LFL.pdb
     RDKit          3D

 28 28  0  0  1  0  0  0  0  0999 V2000
    9.9815  -18.7919   17.2297 C   0  0  0  0  0  0  0  0  0  0  0  0
    9.9543  -19.1104   18.7054 C   0  0  1  0  0  0  0  0  0  0  0  0
   11.0751  -20.0282   19.0990 C   0  0  0  0  0  0  0  0  0  0  0  0
    9.8335  -17.8800   19.5561 C   0  0  0  0  0  0  0  0  0  0  0  0
    9.8335  -18.2045   21.0343 C   0  0  2  0  0  0  0  0  0  0  0  0
    8.7562  -19.0460   21.4498 N   0  0  0  0  0  0  0  0  0  0  0  0
    9.7918  -16.9399   21.8046 C   0  0  0  0  0  0  0  0  0  0  0  0
   10.6770  -16.0746   21.6301 O   0  0  0  0  0  0  0  0  0  0  0  0
    8.7749  -16.6608   22.7485 N   0  0  0  0  0  0  0  0  0  0  0  0
    8.6339  -15.3970   23.4418 C   0  0  1  0  0  0  0  0  0  0  0  0
    7.2406  -15.3337   24.0023 C   0  0  0  0  0  0  0  0  0  0  0  0
    6.9808  -14.0655   24.7164 C   0  0  0  0  0  0  0  0  0  0  0  0
    6.3194  -14.0026   25.9283 C   0  0  0  0  0  0  0  0  0  0  0  0
    6.1086  -12.7894   26.5440 C   0  0  0  0  0  0  0  0  0  0  0  0
    6.5503  -11.6258   25.9656 C   0  0  0  0  0  0  0  0  0  0  0  0
    7.2063  -11.6885   24.7627 C   0  0  0  0  0  0  0  0  0  0  0  0
    7.4237  -12.8961   24.1372 C   0  0  0  0  0  0  0  0  0  0  0  0
    9.6597  -15.2515   24.5283 C   0  0  0  0  0  0  0  0  0  0  0  0
   10.4966  -14.3144   24.5225 O   0  0  0  0  0  0  0  0  0  0  0  0
    8.7321  -14.3992   29.4345 C   0  0  0  0  0  0  0  0  0  0  0  0
    9.3073  -14.6574   28.0756 C   0  0  1  0  0  0  0  0  0  0  0  0
   10.0465  -13.4027   27.6509 C   0  0  0  0  0  0  0  0  0  0  0  0
   10.0394  -15.9002   27.8529 C   0  0  0  0  0  0  0  0  0  0  0  0
   10.7105  -16.2246   26.5957 C   0  0  2  0  0  0  0  0  0  0  0  0
    9.6480  -16.2082   25.5576 N   0  0  0  0  0  0  0  0  0  0  0  0
   11.5435  -17.3982   26.4698 C   0  0  0  0  0  0  0  0  0  0  0  0
   12.6503  -17.5366   27.1233 O   0  0  0  0  0  0  0  0  0  0  0  0
   11.2819  -18.4979   25.6686 O   0  0  0  0  0  0  0  0  0  0  0  0
  2  3  1  1
  2  1  1  0
  4  2  1  0
  5  4  1  0
  5  6  1  6
  7  8  2  0
  7  5  1  0
  9  7  1  0
 10  9  1  0
 11 12  1  0
 10 11  1  1
 12 17  2  0
 12 13  1  0
 13 14  2  0
 14 15  1  0
 16 15  2  0
 17 16  1  0
 18 10  1  0
 18 19  2  0
 21 23  1  0
 21 20  1  1
 22 21  1  0
 24 25  1  0
 24 23  1  1
 25 18  1  0
 26 24  1  0
 27 26  2  0
 28 26  1  0
M  END
$$$$
