LFL.pdb
     RDKit          3D

 28 28  0  0  1  0  0  0  0  0999 V2000
    8.1186  -12.4367   17.7944 C   0  0  0  0  0  0  0  0  0  0  0  0
    8.1995  -13.8104   18.4159 C   0  0  1  0  0  0  0  0  0  0  0  0
    8.3032  -14.8881   17.3762 C   0  0  0  0  0  0  0  0  0  0  0  0
    9.2371  -13.8910   19.4972 C   0  0  0  0  0  0  0  0  0  0  0  0
    9.2303  -15.2326   20.1974 C   0  0  2  0  0  0  0  0  0  0  0  0
    8.0717  -16.0258   19.9337 N   0  0  0  0  0  0  0  0  0  0  0  0
    9.3518  -15.0141   21.6575 C   0  0  0  0  0  0  0  0  0  0  0  0
   10.2524  -14.2705   22.1034 O   0  0  0  0  0  0  0  0  0  0  0  0
    8.4772  -15.6212   22.5899 N   0  0  0  0  0  0  0  0  0  0  0  0
    8.4631  -15.3201   24.0066 C   0  0  1  0  0  0  0  0  0  0  0  0
    7.0277  -15.2567   24.4483 C   0  0  0  0  0  0  0  0  0  0  0  0
    6.6937  -13.9646   25.0845 C   0  0  0  0  0  0  0  0  0  0  0  0
    7.0771  -12.7438   24.5620 C   0  0  0  0  0  0  0  0  0  0  0  0
    6.7342  -11.5742   25.2023 C   0  0  0  0  0  0  0  0  0  0  0  0
    6.0085  -11.6016   26.3668 C   0  0  0  0  0  0  0  0  0  0  0  0
    5.6285  -12.8132   26.8853 C   0  0  0  0  0  0  0  0  0  0  0  0
    5.9649  -13.9901   26.2538 C   0  0  0  0  0  0  0  0  0  0  0  0
    9.2244  -16.3484   24.7920 C   0  0  0  0  0  0  0  0  0  0  0  0
    9.6381  -17.4092   24.2609 O   0  0  0  0  0  0  0  0  0  0  0  0
   10.3109  -14.1944   29.7406 C   0  0  0  0  0  0  0  0  0  0  0  0
   10.3486  -14.7672   28.3570 C   0  0  1  0  0  0  0  0  0  0  0  0
   11.2439  -13.8728   27.5207 C   0  0  0  0  0  0  0  0  0  0  0  0
   10.5990  -16.1966   28.2007 C   0  0  0  0  0  0  0  0  0  0  0  0
   10.3900  -16.9178   26.9467 C   0  0  2  0  0  0  0  0  0  0  0  0
    9.4583  -16.0776   26.1510 N   0  0  0  0  0  0  0  0  0  0  0  0
    9.9804  -18.3031   26.9360 C   0  0  0  0  0  0  0  0  0  0  0  0
    8.7812  -18.6695   26.6217 O   0  0  0  0  0  0  0  0  0  0  0  0
   10.7832  -19.3899   27.2430 O   0  0  0  0  0  0  0  0  0  0  0  0
  2  3  1  6
  2  1  1  0
  4  2  1  0
  5  4  1  0
  5  6  1  1
  7  8  2  0
  7  5  1  0
  9  7  1  0
 10  9  1  0
 11 12  1  0
 10 11  1  1
 12 17  2  0
 12 13  1  0
 13 14  2  0
 14 15  1  0
 16 15  2  0
 17 16  1  0
 18 10  1  0
 18 19  2  0
 21 23  1  0
 21 20  1  1
 22 21  1  0
 24 25  1  0
 24 23  1  1
 25 18  1  0
 26 24  1  0
 27 26  2  0
 28 26  1  0
M  END
$$$$
