LFL.pdb
     RDKit          3D

 28 28  0  0  1  0  0  0  0  0999 V2000
   10.2571  -18.8325   17.4414 C   0  0  0  0  0  0  0  0  0  0  0  0
    9.9521  -19.1489   18.8859 C   0  0  1  0  0  0  0  0  0  0  0  0
   10.7184  -20.3459   19.3690 C   0  0  0  0  0  0  0  0  0  0  0  0
   10.0622  -17.9436   19.7732 C   0  0  0  0  0  0  0  0  0  0  0  0
    9.8113  -18.2791   21.2275 C   0  0  2  0  0  0  0  0  0  0  0  0
    8.6193  -19.0322   21.4582 N   0  0  0  0  0  0  0  0  0  0  0  0
    9.7548  -17.0218   22.0087 C   0  0  0  0  0  0  0  0  0  0  0  0
   10.6879  -16.1942   21.9255 O   0  0  0  0  0  0  0  0  0  0  0  0
    8.6705  -16.7084   22.8626 N   0  0  0  0  0  0  0  0  0  0  0  0
    8.5402  -15.4605   23.5863 C   0  0  1  0  0  0  0  0  0  0  0  0
    7.1058  -15.3265   24.0156 C   0  0  0  0  0  0  0  0  0  0  0  0
    6.8598  -14.0763   24.7655 C   0  0  0  0  0  0  0  0  0  0  0  0
    7.0556  -12.8197   24.2242 C   0  0  0  0  0  0  0  0  0  0  0  0
    6.8078  -11.6924   24.9747 C   0  0  0  0  0  0  0  0  0  0  0  0
    6.3640  -11.7978   26.2690 C   0  0  0  0  0  0  0  0  0  0  0  0
    6.1702  -13.0450   26.8061 C   0  0  0  0  0  0  0  0  0  0  0  0
    6.4141  -14.1802   26.0653 C   0  0  0  0  0  0  0  0  0  0  0  0
    9.4639  -15.4148   24.7688 C   0  0  0  0  0  0  0  0  0  0  0  0
   10.1036  -14.3747   25.0649 O   0  0  0  0  0  0  0  0  0  0  0  0
    9.9771  -13.9971   29.2436 C   0  0  0  0  0  0  0  0  0  0  0  0
   10.3253  -14.5838   27.9099 C   0  0  1  0  0  0  0  0  0  0  0  0
   11.6624  -14.0006   27.4938 C   0  0  0  0  0  0  0  0  0  0  0  0
   10.2087  -16.0276   27.7313 C   0  0  0  0  0  0  0  0  0  0  0  0
   10.6740  -16.7310   26.5376 C   0  0  2  0  0  0  0  0  0  0  0  0
    9.5862  -16.5856   25.5364 N   0  0  0  0  0  0  0  0  0  0  0  0
   11.1413  -18.0963   26.6044 C   0  0  0  0  0  0  0  0  0  0  0  0
   12.2244  -18.4292   27.2267 O   0  0  0  0  0  0  0  0  0  0  0  0
   10.5175  -19.1970   26.0393 O   0  0  0  0  0  0  0  0  0  0  0  0
  2  3  1  1
  2  1  1  0
  4  2  1  0
  5  4  1  0
  5  6  1  6
  7  8  2  0
  7  5  1  0
  9  7  1  0
 10  9  1  0
 11 12  1  0
 10 11  1  1
 12 17  2  0
 12 13  1  0
 13 14  2  0
 14 15  1  0
 16 15  2  0
 17 16  1  0
 18 10  1  0
 18 19  2  0
 21 23  1  0
 21 20  1  1
 22 21  1  0
 24 25  1  0
 24 23  1  1
 25 18  1  0
 26 24  1  0
 27 26  2  0
 28 26  1  0
M  END
$$$$
