LFL.pdb
     RDKit          3D

 28 28  0  0  1  0  0  0  0  0999 V2000
   11.6576  -19.0532   17.9027 C   0  0  0  0  0  0  0  0  0  0  0  0
   12.5355  -18.5002   18.9996 C   0  0  1  0  0  0  0  0  0  0  0  0
   13.9396  -18.2629   18.5246 C   0  0  0  0  0  0  0  0  0  0  0  0
   11.9114  -17.3276   19.6980 C   0  0  0  0  0  0  0  0  0  0  0  0
   10.5611  -17.6676   20.2909 C   0  0  2  0  0  0  0  0  0  0  0  0
    9.4836  -17.6331   19.3533 N   0  0  0  0  0  0  0  0  0  0  0  0
   10.2735  -16.7306   21.4016 C   0  0  0  0  0  0  0  0  0  0  0  0
   10.9153  -15.6621   21.4974 O   0  0  0  0  0  0  0  0  0  0  0  0
    9.2851  -16.9952   22.3794 N   0  0  0  0  0  0  0  0  0  0  0  0
    8.9784  -16.1114   23.4852 C   0  0  1  0  0  0  0  0  0  0  0  0
    7.5374  -15.7023   23.3599 C   0  0  0  0  0  0  0  0  0  0  0  0
    7.1728  -14.6346   24.3153 C   0  0  0  0  0  0  0  0  0  0  0  0
    7.5794  -13.3214   24.1719 C   0  0  0  0  0  0  0  0  0  0  0  0
    7.2059  -12.3722   25.0966 C   0  0  0  0  0  0  0  0  0  0  0  0
    6.4262  -12.7139   26.1731 C   0  0  0  0  0  0  0  0  0  0  0  0
    6.0232  -14.0172   26.3154 C   0  0  0  0  0  0  0  0  0  0  0  0
    6.3899  -14.9757   25.3969 C   0  0  0  0  0  0  0  0  0  0  0  0
    9.2376  -16.7768   24.8057 C   0  0  0  0  0  0  0  0  0  0  0  0
    9.0866  -18.0146   24.9601 O   0  0  0  0  0  0  0  0  0  0  0  0
    9.8881  -13.1111   28.9857 C   0  0  0  0  0  0  0  0  0  0  0  0
   10.1260  -14.0860   27.8734 C   0  0  1  0  0  0  0  0  0  0  0  0
   11.4352  -13.7043   27.2090 C   0  0  0  0  0  0  0  0  0  0  0  0
    9.9771  -15.5110   28.1514 C   0  0  0  0  0  0  0  0  0  0  0  0
   10.1493  -16.5508   27.1387 C   0  0  2  0  0  0  0  0  0  0  0  0
    9.6582  -15.9585   25.8679 N   0  0  0  0  0  0  0  0  0  0  0  0
    9.6216  -17.8817   27.3312 C   0  0  0  0  0  0  0  0  0  0  0  0
    8.4872  -18.2563   26.8373 O   0  0  0  0  0  0  0  0  0  0  0  0
   10.2339  -18.9039   28.0383 O   0  0  0  0  0  0  0  0  0  0  0  0
  2  3  1  6
  2  1  1  0
  4  2  1  0
  5  4  1  0
  5  6  1  6
  7  8  2  0
  7  5  1  0
  9  7  1  0
 10  9  1  0
 11 12  1  0
 10 11  1  1
 12 17  2  0
 12 13  1  0
 13 14  2  0
 14 15  1  0
 16 15  2  0
 17 16  1  0
 18 10  1  0
 18 19  2  0
 21 23  1  0
 21 20  1  1
 22 21  1  0
 24 25  1  0
 24 23  1  1
 25 18  1  0
 26 24  1  0
 27 26  2  0
 28 26  1  0
M  END
$$$$
