LFL.pdb
     RDKit          3D

 28 28  0  0  1  0  0  0  0  0999 V2000
   10.5253  -21.7215   20.5381 C   0  0  0  0  0  0  0  0  0  0  0  0
   10.4324  -20.3664   19.8787 C   0  0  1  0  0  0  0  0  0  0  0  0
    9.1720  -20.2214   19.0764 C   0  0  0  0  0  0  0  0  0  0  0  0
   10.6881  -19.2420   20.8392 C   0  0  0  0  0  0  0  0  0  0  0  0
   10.3952  -17.8892   20.2270 C   0  0  2  0  0  0  0  0  0  0  0  0
   11.3936  -17.4304   19.3138 N   0  0  0  0  0  0  0  0  0  0  0  0
   10.2311  -16.8949   21.3128 C   0  0  0  0  0  0  0  0  0  0  0  0
   11.2044  -16.1968   21.6706 O   0  0  0  0  0  0  0  0  0  0  0  0
    8.9976  -16.6952   21.9771 N   0  0  0  0  0  0  0  0  0  0  0  0
    8.8024  -15.7589   23.0648 C   0  0  1  0  0  0  0  0  0  0  0  0
    7.3376  -15.4270   23.1276 C   0  0  0  0  0  0  0  0  0  0  0  0
    7.0352  -14.4198   24.1668 C   0  0  0  0  0  0  0  0  0  0  0  0
    7.4461  -13.1027   24.0846 C   0  0  0  0  0  0  0  0  0  0  0  0
    7.1320  -12.2119   25.0863 C   0  0  0  0  0  0  0  0  0  0  0  0
    6.4080  -12.6164   26.1798 C   0  0  0  0  0  0  0  0  0  0  0  0
    6.0008  -13.9236   26.2613 C   0  0  0  0  0  0  0  0  0  0  0  0
    6.3083  -14.8241   25.2656 C   0  0  0  0  0  0  0  0  0  0  0  0
    9.2833  -16.3268   24.3686 C   0  0  0  0  0  0  0  0  0  0  0  0
    9.0058  -17.5014   24.7175 O   0  0  0  0  0  0  0  0  0  0  0  0
   10.7881  -14.7880   29.6848 C   0  0  0  0  0  0  0  0  0  0  0  0
   10.4447  -14.2628   28.3246 C   0  0  1  0  0  0  0  0  0  0  0  0
   10.4677  -12.7482   28.4049 C   0  0  0  0  0  0  0  0  0  0  0  0
   11.1351  -14.8217   27.1665 C   0  0  0  0  0  0  0  0  0  0  0  0
   10.6673  -16.0027   26.4434 C   0  0  2  0  0  0  0  0  0  0  0  0
   10.0603  -15.4903   25.1880 N   0  0  0  0  0  0  0  0  0  0  0  0
    9.8110  -16.9799   27.0749 C   0  0  0  0  0  0  0  0  0  0  0  0
   10.2735  -17.9266   27.8240 O   0  0  0  0  0  0  0  0  0  0  0  0
    8.4301  -17.0349   26.9757 O   0  0  0  0  0  0  0  0  0  0  0  0
  2  3  1  1
  2  1  1  0
  4  2  1  0
  5  4  1  0
  5  6  1  6
  7  8  2  0
  7  5  1  0
  9  7  1  0
 10  9  1  0
 11 12  1  0
 10 11  1  1
 12 17  2  0
 12 13  1  0
 13 14  2  0
 14 15  1  0
 16 15  2  0
 17 16  1  0
 18 10  1  0
 18 19  2  0
 21 23  1  0
 21 20  1  1
 22 21  1  0
 24 25  1  0
 24 23  1  1
 25 18  1  0
 26 24  1  0
 27 26  2  0
 28 26  1  0
M  END
$$$$
