LFL.pdb
     RDKit          3D

 28 28  0  0  1  0  0  0  0  0999 V2000
   10.3893  -18.6744   17.2523 C   0  0  0  0  0  0  0  0  0  0  0  0
   11.4766  -17.6767   17.5719 C   0  0  1  0  0  0  0  0  0  0  0  0
   12.0341  -17.0421   16.3310 C   0  0  0  0  0  0  0  0  0  0  0  0
   11.0657  -16.7010   18.6356 C   0  0  0  0  0  0  0  0  0  0  0  0
   10.6759  -17.3911   19.9249 C   0  0  2  0  0  0  0  0  0  0  0  0
    9.5824  -18.3013   19.7953 N   0  0  0  0  0  0  0  0  0  0  0  0
   10.3402  -16.3639   20.9381 C   0  0  0  0  0  0  0  0  0  0  0  0
   11.1299  -15.4189   21.1526 O   0  0  0  0  0  0  0  0  0  0  0  0
    9.1418  -16.4044   21.6899 N   0  0  0  0  0  0  0  0  0  0  0  0
    8.8297  -15.4932   22.7717 C   0  0  1  0  0  0  0  0  0  0  0  0
    7.3402  -15.2916   22.7868 C   0  0  0  0  0  0  0  0  0  0  0  0
    6.9139  -14.3410   23.8358 C   0  0  0  0  0  0  0  0  0  0  0  0
    6.2852  -14.7349   25.0019 C   0  0  0  0  0  0  0  0  0  0  0  0
    5.9128  -13.8002   25.9417 C   0  0  0  0  0  0  0  0  0  0  0  0
    6.1588  -12.4658   25.7362 C   0  0  0  0  0  0  0  0  0  0  0  0
    6.7824  -12.0752   24.5786 C   0  0  0  0  0  0  0  0  0  0  0  0
    7.1602  -13.0007   23.6312 C   0  0  0  0  0  0  0  0  0  0  0  0
    9.3160  -16.0219   24.0899 C   0  0  0  0  0  0  0  0  0  0  0  0
    9.2449  -17.2432   24.3762 O   0  0  0  0  0  0  0  0  0  0  0  0
   10.7317  -13.1573   29.3693 C   0  0  0  0  0  0  0  0  0  0  0  0
   10.8652  -14.4042   28.5498 C   0  0  1  0  0  0  0  0  0  0  0  0
   10.4015  -15.5638   29.4107 C   0  0  0  0  0  0  0  0  0  0  0  0
   10.3346  -14.4050   27.1901 C   0  0  0  0  0  0  0  0  0  0  0  0
   10.4564  -15.5418   26.2795 C   0  0  2  0  0  0  0  0  0  0  0  0
    9.8571  -15.0940   24.9961 N   0  0  0  0  0  0  0  0  0  0  0  0
    9.9779  -16.8541   26.6480 C   0  0  0  0  0  0  0  0  0  0  0  0
   10.7770  -17.8403   26.8934 O   0  0  0  0  0  0  0  0  0  0  0  0
    8.6503  -17.2244   26.7900 O   0  0  0  0  0  0  0  0  0  0  0  0
  2  3  1  6
  2  1  1  0
  4  2  1  0
  5  4  1  0
  5  6  1  6
  7  8  2  0
  7  5  1  0
  9  7  1  0
 10  9  1  0
 11 12  1  0
 10 11  1  1
 12 17  2  0
 12 13  1  0
 13 14  2  0
 14 15  1  0
 16 15  2  0
 17 16  1  0
 18 10  1  0
 18 19  2  0
 21 23  1  0
 21 20  1  1
 22 21  1  0
 24 25  1  0
 24 23  1  1
 25 18  1  0
 26 24  1  0
 27 26  2  0
 28 26  1  0
M  END
$$$$
