LFL.pdb
     RDKit          3D

 28 28  0  0  1  0  0  0  0  0999 V2000
   11.7043  -21.4638   20.9670 C   0  0  0  0  0  0  0  0  0  0  0  0
   11.4252  -20.1128   20.3532 C   0  0  1  0  0  0  0  0  0  0  0  0
   10.2153  -20.1425   19.4652 C   0  0  0  0  0  0  0  0  0  0  0  0
   11.4196  -19.0100   21.3710 C   0  0  0  0  0  0  0  0  0  0  0  0
   10.9571  -17.6934   20.7851 C   0  0  2  0  0  0  0  0  0  0  0  0
   11.8897  -17.0924   19.8850 N   0  0  0  0  0  0  0  0  0  0  0  0
   10.6662  -16.7507   21.8901 C   0  0  0  0  0  0  0  0  0  0  0  0
   11.5996  -16.1226   22.4352 O   0  0  0  0  0  0  0  0  0  0  0  0
    9.3531  -16.5239   22.3667 N   0  0  0  0  0  0  0  0  0  0  0  0
    9.0392  -15.7355   23.5405 C   0  0  1  0  0  0  0  0  0  0  0  0
    7.5957  -15.3268   23.4465 C   0  0  0  0  0  0  0  0  0  0  0  0
    7.2194  -14.3535   24.4937 C   0  0  0  0  0  0  0  0  0  0  0  0
    6.5148  -14.7016   25.6307 C   0  0  0  0  0  0  0  0  0  0  0  0
    6.1947  -13.7477   26.5704 C   0  0  0  0  0  0  0  0  0  0  0  0
    6.5688  -12.4392   26.3938 C   0  0  0  0  0  0  0  0  0  0  0  0
    7.2677  -12.0939   25.2652 C   0  0  0  0  0  0  0  0  0  0  0  0
    7.5943  -13.0390   24.3182 C   0  0  0  0  0  0  0  0  0  0  0  0
    9.3010  -16.5050   24.8026 C   0  0  0  0  0  0  0  0  0  0  0  0
    8.9771  -17.7137   24.9160 O   0  0  0  0  0  0  0  0  0  0  0  0
   10.1660  -13.1494   29.0274 C   0  0  0  0  0  0  0  0  0  0  0  0
   10.3816  -14.0877   27.8796 C   0  0  1  0  0  0  0  0  0  0  0  0
   11.5860  -13.5868   27.1053 C   0  0  0  0  0  0  0  0  0  0  0  0
   10.3810  -15.5232   28.1429 C   0  0  0  0  0  0  0  0  0  0  0  0
   10.3497  -16.5347   27.0883 C   0  0  2  0  0  0  0  0  0  0  0  0
    9.9258  -15.8186   25.8577 N   0  0  0  0  0  0  0  0  0  0  0  0
    9.6159  -17.7682   27.2521 C   0  0  0  0  0  0  0  0  0  0  0  0
    9.9393  -18.6560   28.1344 O   0  0  0  0  0  0  0  0  0  0  0  0
    8.5045  -18.1555   26.5208 O   0  0  0  0  0  0  0  0  0  0  0  0
  2  3  1  1
  2  1  1  0
  4  2  1  0
  5  4  1  0
  5  6  1  6
  7  8  2  0
  7  5  1  0
  9  7  1  0
 10  9  1  0
 11 12  1  0
 10 11  1  6
 12 17  2  0
 12 13  1  0
 13 14  2  0
 14 15  1  0
 16 15  2  0
 17 16  1  0
 18 10  1  0
 18 19  2  0
 21 23  1  0
 21 20  1  1
 22 21  1  0
 24 25  1  0
 24 23  1  1
 25 18  1  0
 26 24  1  0
 27 26  2  0
 28 26  1  0
M  END
$$$$
