LFL.pdb
     RDKit          3D

 28 28  0  0  1  0  0  0  0  0999 V2000
    7.3389  -15.0333   17.6498 C   0  0  0  0  0  0  0  0  0  0  0  0
    8.7154  -14.4158   17.7103 C   0  0  1  0  0  0  0  0  0  0  0  0
    8.8387  -13.2357   16.7908 C   0  0  0  0  0  0  0  0  0  0  0  0
    9.1657  -14.1540   19.1178 C   0  0  0  0  0  0  0  0  0  0  0  0
    9.5579  -15.4257   19.8386 C   0  0  2  0  0  0  0  0  0  0  0  0
    8.6712  -16.5235   19.6153 N   0  0  0  0  0  0  0  0  0  0  0  0
    9.6390  -15.1498   21.2917 C   0  0  0  0  0  0  0  0  0  0  0  0
   10.5007  -14.3562   21.7281 O   0  0  0  0  0  0  0  0  0  0  0  0
    8.7677  -15.7560   22.2278 N   0  0  0  0  0  0  0  0  0  0  0  0
    8.6114  -15.3133   23.5980 C   0  0  1  0  0  0  0  0  0  0  0  0
    7.1389  -15.2258   23.8871 C   0  0  0  0  0  0  0  0  0  0  0  0
    6.8378  -14.2770   24.9803 C   0  0  0  0  0  0  0  0  0  0  0  0
    6.3511  -14.6732   26.2117 C   0  0  0  0  0  0  0  0  0  0  0  0
    6.0907  -13.7401   27.1900 C   0  0  0  0  0  0  0  0  0  0  0  0
    6.3091  -12.4051   26.9587 C   0  0  0  0  0  0  0  0  0  0  0  0
    6.7917  -12.0122   25.7364 C   0  0  0  0  0  0  0  0  0  0  0  0
    7.0566  -12.9361   24.7499 C   0  0  0  0  0  0  0  0  0  0  0  0
    9.2948  -16.2459   24.5557 C   0  0  0  0  0  0  0  0  0  0  0  0
    9.4760  -17.4578   24.2784 O   0  0  0  0  0  0  0  0  0  0  0  0
   10.8670  -13.4094   29.0574 C   0  0  0  0  0  0  0  0  0  0  0  0
   10.7579  -14.2137   27.7983 C   0  0  1  0  0  0  0  0  0  0  0  0
   11.7769  -13.6626   26.8190 C   0  0  0  0  0  0  0  0  0  0  0  0
   10.7368  -15.6695   27.9004 C   0  0  0  0  0  0  0  0  0  0  0  0
   10.4433  -16.5511   26.7722 C   0  0  2  0  0  0  0  0  0  0  0  0
    9.7268  -15.7087   25.7803 N   0  0  0  0  0  0  0  0  0  0  0  0
    9.7726  -17.8164   26.9623 C   0  0  0  0  0  0  0  0  0  0  0  0
    8.5282  -17.9942   26.6604 O   0  0  0  0  0  0  0  0  0  0  0  0
   10.3459  -18.9717   27.4686 O   0  0  0  0  0  0  0  0  0  0  0  0
  2  3  1  6
  2  1  1  0
  4  2  1  0
  5  4  1  0
  5  6  1  1
  7  8  2  0
  7  5  1  0
  9  7  1  0
 10  9  1  0
 11 12  1  0
 10 11  1  1
 12 17  2  0
 12 13  1  0
 13 14  2  0
 14 15  1  0
 16 15  2  0
 17 16  1  0
 18 10  1  0
 18 19  2  0
 21 23  1  0
 21 20  1  1
 22 21  1  0
 24 25  1  0
 24 23  1  1
 25 18  1  0
 26 24  1  0
 27 26  2  0
 28 26  1  0
M  END
$$$$
