LFL.pdb
     RDKit          3D

 28 28  0  0  1  0  0  0  0  0999 V2000
   11.5545  -17.3821   16.8504 C   0  0  0  0  0  0  0  0  0  0  0  0
   10.9864  -18.1120   18.0438 C   0  0  1  0  0  0  0  0  0  0  0  0
   11.6154  -19.4631   18.2230 C   0  0  0  0  0  0  0  0  0  0  0  0
   10.9748  -17.2649   19.2826 C   0  0  0  0  0  0  0  0  0  0  0  0
   10.3794  -17.9935   20.4680 C   0  0  2  0  0  0  0  0  0  0  0  0
    9.1229  -18.6187   20.2011 N   0  0  0  0  0  0  0  0  0  0  0  0
   10.2227  -17.0392   21.5902 C   0  0  0  0  0  0  0  0  0  0  0  0
   11.2069  -16.3798   21.9893 O   0  0  0  0  0  0  0  0  0  0  0  0
    8.9845  -16.8360   22.2446 N   0  0  0  0  0  0  0  0  0  0  0  0
    8.7990  -15.9522   23.3771 C   0  0  1  0  0  0  0  0  0  0  0  0
    7.3627  -15.5087   23.3830 C   0  0  0  0  0  0  0  0  0  0  0  0
    7.1429  -14.3327   24.2516 C   0  0  0  0  0  0  0  0  0  0  0  0
    7.6908  -13.0903   23.9939 C   0  0  0  0  0  0  0  0  0  0  0  0
    7.4480  -12.0332   24.8419 C   0  0  0  0  0  0  0  0  0  0  0  0
    6.6604  -12.1957   25.9540 C   0  0  0  0  0  0  0  0  0  0  0  0
    6.1172  -13.4289   26.2097 C   0  0  0  0  0  0  0  0  0  0  0  0
    6.3523  -14.4940   25.3687 C   0  0  0  0  0  0  0  0  0  0  0  0
    9.1591  -16.6320   24.6663 C   0  0  0  0  0  0  0  0  0  0  0  0
    9.1905  -17.8842   24.7641 O   0  0  0  0  0  0  0  0  0  0  0  0
    9.4438  -13.0356   28.9679 C   0  0  0  0  0  0  0  0  0  0  0  0
    9.8305  -13.9574   27.8521 C   0  0  1  0  0  0  0  0  0  0  0  0
   11.1831  -13.5029   27.3374 C   0  0  0  0  0  0  0  0  0  0  0  0
    9.7118  -15.3966   28.0638 C   0  0  0  0  0  0  0  0  0  0  0  0
    9.9915  -16.3882   27.0270 C   0  0  2  0  0  0  0  0  0  0  0  0
    9.4619  -15.8100   25.7652 N   0  0  0  0  0  0  0  0  0  0  0  0
    9.5879  -17.7671   27.1779 C   0  0  0  0  0  0  0  0  0  0  0  0
    8.4776  -18.2215   26.6965 O   0  0  0  0  0  0  0  0  0  0  0  0
   10.3066  -18.7574   27.8279 O   0  0  0  0  0  0  0  0  0  0  0  0
  2  3  1  1
  2  1  1  0
  4  2  1  0
  5  4  1  0
  5  6  1  6
  7  8  2  0
  7  5  1  0
  9  7  1  0
 10  9  1  0
 11 12  1  0
 10 11  1  1
 12 17  2  0
 12 13  1  0
 13 14  2  0
 14 15  1  0
 16 15  2  0
 17 16  1  0
 18 10  1  0
 18 19  2  0
 21 23  1  0
 21 20  1  1
 22 21  1  0
 24 25  1  0
 24 23  1  1
 25 18  1  0
 26 24  1  0
 27 26  2  0
 28 26  1  0
M  END
$$$$
