CFI.pdb
     RDKit          3D

 26 26  0  0  1  0  0  0  0  0999 V2000
   11.1781  -17.2713   19.2374 N   0  0  0  0  0  0  0  0  0  0  0  0
   10.2363  -17.6504   20.2726 C   0  0  1  0  0  0  0  0  0  0  0  0
   10.6249  -18.9445   20.9379 C   0  0  0  0  0  0  0  0  0  0  0  0
   12.1755  -18.8294   21.8339 S   0  0  0  0  0  0  0  0  0  0  0  0
   10.1835  -16.5917   21.3186 C   0  0  0  0  0  0  0  0  0  0  0  0
   11.0979  -15.7407   21.4128 O   0  0  0  0  0  0  0  0  0  0  0  0
    9.1096  -16.5350   22.2108 N   0  0  0  0  0  0  0  0  0  0  0  0
    8.9392  -15.4364   23.1948 C   0  0  1  0  0  0  0  0  0  0  0  0
    7.4730  -15.1437   23.1709 C   0  0  0  0  0  0  0  0  0  0  0  0
    6.9906  -14.1626   24.1531 C   0  0  0  0  0  0  0  0  0  0  0  0
    7.3133  -12.8069   24.0297 C   0  0  0  0  0  0  0  0  0  0  0  0
    6.8614  -11.8689   24.9131 C   0  0  0  0  0  0  0  0  0  0  0  0
    6.0547  -12.2282   25.9804 C   0  0  0  0  0  0  0  0  0  0  0  0
    5.7187  -13.5565   26.1297 C   0  0  0  0  0  0  0  0  0  0  0  0
    6.1879  -14.4831   25.2243 C   0  0  0  0  0  0  0  0  0  0  0  0
    9.4698  -15.9499   24.4642 C   0  0  0  0  0  0  0  0  0  0  0  0
    9.3933  -17.1978   24.6924 O   0  0  0  0  0  0  0  0  0  0  0  0
   11.2384  -14.0648   30.1396 C   0  0  0  0  0  0  0  0  0  0  0  0
   11.2375  -15.1840   29.0850 C   0  0  0  0  0  0  0  0  0  0  0  0
   10.6906  -14.6799   27.7990 C   0  0  2  0  0  0  0  0  0  0  0  0
    9.4539  -13.8358   27.9678 C   0  0  0  0  0  0  0  0  0  0  0  0
   10.4892  -15.7689   26.7664 C   0  0  2  0  0  0  0  0  0  0  0  0
   10.0797  -15.2028   25.4970 N   0  0  0  0  0  0  0  0  0  0  0  0
    9.6815  -16.8927   27.2212 C   0  0  0  0  0  0  0  0  0  0  0  0
    8.4177  -16.8708   27.1282 O   0  0  0  0  0  0  0  0  0  0  0  0
   10.1844  -18.0568   27.7792 O   0  0  0  0  0  0  0  0  0  0  0  0
  2  1  1  6
  2  3  1  0
  3  4  1  0
  5  2  1  0
  6  5  2  0
  7  5  1  0
  8  7  1  0
  8  9  1  1
  9 10  1  0
 10 15  2  0
 11 12  2  0
 11 10  1  0
 12 13  1  0
 13 14  2  0
 15 14  1  0
 16 23  1  0
 16  8  1  0
 17 16  2  0
 19 18  1  0
 20 22  1  0
 20 19  1  0
 20 21  1  1
 22 24  1  0
 22 23  1  6
 24 26  1  0
 25 24  2  0
M  END
$$$$
