CFI.pdb
     RDKit          3D

 26 26  0  0  1  0  0  0  0  0999 V2000
   10.5156  -17.1106   19.2377 N   0  0  0  0  0  0  0  0  0  0  0  0
    9.9775  -17.6872   20.4543 C   0  0  1  0  0  0  0  0  0  0  0  0
   10.8008  -18.8537   20.9341 C   0  0  0  0  0  0  0  0  0  0  0  0
   10.1856  -19.5578   22.4658 S   0  0  0  0  0  0  0  0  0  0  0  0
    9.9587  -16.6612   21.5334 C   0  0  0  0  0  0  0  0  0  0  0  0
   10.9458  -15.9131   21.7208 O   0  0  0  0  0  0  0  0  0  0  0  0
    8.8356  -16.5202   22.3528 N   0  0  0  0  0  0  0  0  0  0  0  0
    8.7482  -15.5005   23.4284 C   0  0  1  0  0  0  0  0  0  0  0  0
    7.3045  -15.1116   23.4516 C   0  0  0  0  0  0  0  0  0  0  0  0
    6.9375  -14.0329   24.3799 C   0  0  0  0  0  0  0  0  0  0  0  0
    6.0655  -14.2719   25.4475 C   0  0  0  0  0  0  0  0  0  0  0  0
    5.7240  -13.2961   26.3394 C   0  0  0  0  0  0  0  0  0  0  0  0
    6.2346  -12.0139   26.2201 C   0  0  0  0  0  0  0  0  0  0  0  0
    7.0966  -11.7462   25.1786 C   0  0  0  0  0  0  0  0  0  0  0  0
    7.4252  -12.7487   24.2924 C   0  0  0  0  0  0  0  0  0  0  0  0
    9.2558  -16.1537   24.6417 C   0  0  0  0  0  0  0  0  0  0  0  0
    9.0853  -17.4064   24.7721 O   0  0  0  0  0  0  0  0  0  0  0  0
   10.6304  -13.6421   29.7142 C   0  0  0  0  0  0  0  0  0  0  0  0
    9.9609  -14.5925   28.7075 C   0  0  0  0  0  0  0  0  0  0  0  0
   10.9904  -15.3000   27.9034 C   0  0  2  0  0  0  0  0  0  0  0  0
   11.9984  -14.3716   27.2767 C   0  0  0  0  0  0  0  0  0  0  0  0
   10.4030  -16.2573   26.8879 C   0  0  2  0  0  0  0  0  0  0  0  0
    9.9376  -15.5413   25.7173 N   0  0  0  0  0  0  0  0  0  0  0  0
    9.4499  -17.2125   27.4367 C   0  0  0  0  0  0  0  0  0  0  0  0
    8.2088  -17.1076   27.2019 O   0  0  0  0  0  0  0  0  0  0  0  0
    9.7813  -18.2923   28.2388 O   0  0  0  0  0  0  0  0  0  0  0  0
  2  1  1  6
  2  3  1  0
  3  4  1  0
  5  2  1  0
  6  5  2  0
  7  5  1  0
  8  7  1  0
  8  9  1  1
  9 10  1  0
 10 15  2  0
 11 12  2  0
 11 10  1  0
 12 13  1  0
 13 14  2  0
 15 14  1  0
 16 23  1  0
 16  8  1  0
 17 16  2  0
 19 18  1  0
 20 22  1  0
 20 19  1  0
 20 21  1  6
 22 24  1  0
 22 23  1  6
 24 26  1  0
 25 24  2  0
M  END
$$$$
