CFI.pdb
     RDKit          3D

 26 26  0  0  1  0  0  0  0  0999 V2000
   10.0357  -17.0390   18.9512 N   0  0  0  0  0  0  0  0  0  0  0  0
    9.9687  -17.6502   20.2644 C   0  0  1  0  0  0  0  0  0  0  0  0
   11.1444  -18.5555   20.5223 C   0  0  0  0  0  0  0  0  0  0  0  0
   10.9742  -19.5050   22.0356 S   0  0  0  0  0  0  0  0  0  0  0  0
    9.9621  -16.5929   21.3131 C   0  0  0  0  0  0  0  0  0  0  0  0
   10.7352  -15.6104   21.2344 O   0  0  0  0  0  0  0  0  0  0  0  0
    9.0903  -16.6846   22.4012 N   0  0  0  0  0  0  0  0  0  0  0  0
    8.9865  -15.6282   23.4394 C   0  0  1  0  0  0  0  0  0  0  0  0
    7.5332  -15.2771   23.4645 C   0  0  0  0  0  0  0  0  0  0  0  0
    7.1267  -14.2645   24.4491 C   0  0  0  0  0  0  0  0  0  0  0  0
    7.5285  -12.9313   24.3135 C   0  0  0  0  0  0  0  0  0  0  0  0
    7.1483  -11.9640   25.1990 C   0  0  0  0  0  0  0  0  0  0  0  0
    6.3389  -12.2694   26.2809 C   0  0  0  0  0  0  0  0  0  0  0  0
    5.9258  -13.5744   26.4425 C   0  0  0  0  0  0  0  0  0  0  0  0
    6.3237  -14.5314   25.5346 C   0  0  0  0  0  0  0  0  0  0  0  0
    9.5240  -16.2221   24.6701 C   0  0  0  0  0  0  0  0  0  0  0  0
    9.2071  -17.4197   24.9537 O   0  0  0  0  0  0  0  0  0  0  0  0
    9.7543  -13.8842   29.7752 C   0  0  0  0  0  0  0  0  0  0  0  0
    9.6527  -15.0821   28.8162 C   0  0  0  0  0  0  0  0  0  0  0  0
   10.8621  -15.1583   27.9568 C   0  0  2  0  0  0  0  0  0  0  0  0
   11.2836  -13.8223   27.4018 C   0  0  0  0  0  0  0  0  0  0  0  0
   10.7597  -16.2090   26.8713 C   0  0  2  0  0  0  0  0  0  0  0  0
   10.3830  -15.6067   25.6084 N   0  0  0  0  0  0  0  0  0  0  0  0
    9.9855  -17.3867   27.2396 C   0  0  0  0  0  0  0  0  0  0  0  0
   10.4862  -18.2999   27.9620 O   0  0  0  0  0  0  0  0  0  0  0  0
    8.6753  -17.6260   26.8583 O   0  0  0  0  0  0  0  0  0  0  0  0
  2  1  1  6
  2  3  1  0
  3  4  1  0
  5  2  1  0
  6  5  2  0
  7  5  1  0
  8  7  1  0
  8  9  1  1
  9 10  1  0
 10 15  2  0
 11 12  2  0
 11 10  1  0
 12 13  1  0
 13 14  2  0
 15 14  1  0
 16 23  1  0
 16  8  1  0
 17 16  2  0
 19 18  1  0
 20 22  1  0
 20 19  1  0
 20 21  1  6
 22 24  1  0
 22 23  1  6
 24 26  1  0
 25 24  2  0
M  END
$$$$
