CFI.pdb
     RDKit          3D

 26 26  0  0  1  0  0  0  0  0999 V2000
   11.2469  -16.9868   19.4760 N   0  0  0  0  0  0  0  0  0  0  0  0
   10.4430  -17.5672   20.5339 C   0  0  1  0  0  0  0  0  0  0  0  0
   11.0328  -18.8559   21.0438 C   0  0  0  0  0  0  0  0  0  0  0  0
   10.7475  -20.2391   19.9367 S   0  0  0  0  0  0  0  0  0  0  0  0
   10.3522  -16.6174   21.6773 C   0  0  0  0  0  0  0  0  0  0  0  0
   11.3176  -15.8743   21.9686 O   0  0  0  0  0  0  0  0  0  0  0  0
    9.1847  -16.5436   22.4415 N   0  0  0  0  0  0  0  0  0  0  0  0
    8.9943  -15.5455   23.5240 C   0  0  1  0  0  0  0  0  0  0  0  0
    7.5297  -15.2448   23.4952 C   0  0  0  0  0  0  0  0  0  0  0  0
    7.0379  -14.3132   24.5200 C   0  0  0  0  0  0  0  0  0  0  0  0
    7.3182  -12.9450   24.4385 C   0  0  0  0  0  0  0  0  0  0  0  0
    6.8561  -12.0521   25.3624 C   0  0  0  0  0  0  0  0  0  0  0  0
    6.0812  -12.4722   26.4311 C   0  0  0  0  0  0  0  0  0  0  0  0
    5.7873  -13.8144   26.5397 C   0  0  0  0  0  0  0  0  0  0  0  0
    6.2658  -14.6945   25.5938 C   0  0  0  0  0  0  0  0  0  0  0  0
    9.4938  -16.1830   24.7489 C   0  0  0  0  0  0  0  0  0  0  0  0
    9.3189  -17.4331   24.8962 O   0  0  0  0  0  0  0  0  0  0  0  0
   10.8228  -12.8128   28.8727 C   0  0  0  0  0  0  0  0  0  0  0  0
   10.5711  -13.7842   27.7074 C   0  0  0  0  0  0  0  0  0  0  0  0
   10.7916  -15.1857   28.1481 C   0  0  2  0  0  0  0  0  0  0  0  0
   12.1609  -15.4179   28.7327 C   0  0  0  0  0  0  0  0  0  0  0  0
   10.4566  -16.2079   27.0824 C   0  0  2  0  0  0  0  0  0  0  0  0
   10.1721  -15.5574   25.8192 N   0  0  0  0  0  0  0  0  0  0  0  0
    9.4765  -17.2064   27.4877 C   0  0  0  0  0  0  0  0  0  0  0  0
    9.7717  -18.1119   28.3239 O   0  0  0  0  0  0  0  0  0  0  0  0
    8.1723  -17.2717   27.0248 O   0  0  0  0  0  0  0  0  0  0  0  0
  2  1  1  6
  2  3  1  0
  3  4  1  0
  5  2  1  0
  6  5  2  0
  7  5  1  0
  8  7  1  0
  8  9  1  1
  9 10  1  0
 10 15  2  0
 11 12  2  0
 11 10  1  0
 12 13  1  0
 13 14  2  0
 15 14  1  0
 16 23  1  0
 16  8  1  0
 17 16  2  0
 19 18  1  0
 20 22  1  0
 20 19  1  0
 20 21  1  6
 22 24  1  0
 22 23  1  6
 24 26  1  0
 25 24  2  0
M  END
$$$$
