CFI.pdb
     RDKit          3D

 26 26  0  0  1  0  0  0  0  0999 V2000
   11.3469  -16.8054   19.5055 N   0  0  0  0  0  0  0  0  0  0  0  0
   10.3045  -17.2577   20.4061 C   0  0  1  0  0  0  0  0  0  0  0  0
   10.5850  -18.6375   20.9409 C   0  0  0  0  0  0  0  0  0  0  0  0
   12.1304  -18.7325   21.8482 S   0  0  0  0  0  0  0  0  0  0  0  0
   10.1993  -16.3270   21.5639 C   0  0  0  0  0  0  0  0  0  0  0  0
   11.1443  -15.5569   21.8522 O   0  0  0  0  0  0  0  0  0  0  0  0
    9.0411  -16.3017   22.3452 N   0  0  0  0  0  0  0  0  0  0  0  0
    8.8605  -15.3673   23.4848 C   0  0  1  0  0  0  0  0  0  0  0  0
    7.4074  -15.0164   23.4475 C   0  0  0  0  0  0  0  0  0  0  0  0
    6.9277  -14.1228   24.5112 C   0  0  0  0  0  0  0  0  0  0  0  0
    6.1423  -14.6137   25.5596 C   0  0  0  0  0  0  0  0  0  0  0  0
    5.7010  -13.8130   26.5738 C   0  0  0  0  0  0  0  0  0  0  0  0
    6.0183  -12.4648   26.6042 C   0  0  0  0  0  0  0  0  0  0  0  0
    6.7908  -11.9503   25.5853 C   0  0  0  0  0  0  0  0  0  0  0  0
    7.2233  -12.7799   24.5738 C   0  0  0  0  0  0  0  0  0  0  0  0
    9.3135  -16.0966   24.6762 C   0  0  0  0  0  0  0  0  0  0  0  0
    9.3141  -17.3671   24.6453 O   0  0  0  0  0  0  0  0  0  0  0  0
   10.5615  -13.8571   29.9404 C   0  0  0  0  0  0  0  0  0  0  0  0
    9.8783  -14.7212   28.8673 C   0  0  0  0  0  0  0  0  0  0  0  0
   10.8972  -15.4314   28.0520 C   0  0  2  0  0  0  0  0  0  0  0  0
   11.9461  -14.5141   27.4784 C   0  0  0  0  0  0  0  0  0  0  0  0
   10.2954  -16.3277   26.9903 C   0  0  2  0  0  0  0  0  0  0  0  0
    9.7688  -15.5411   25.8932 N   0  0  0  0  0  0  0  0  0  0  0  0
    9.3873  -17.3458   27.5008 C   0  0  0  0  0  0  0  0  0  0  0  0
    8.1433  -17.2920   27.2639 O   0  0  0  0  0  0  0  0  0  0  0  0
    9.7674  -18.4362   28.2663 O   0  0  0  0  0  0  0  0  0  0  0  0
  2  1  1  6
  2  3  1  0
  3  4  1  0
  5  2  1  0
  6  5  2  0
  7  5  1  0
  8  7  1  0
  8  9  1  1
  9 10  1  0
 10 15  2  0
 11 12  2  0
 11 10  1  0
 12 13  1  0
 13 14  2  0
 15 14  1  0
 16 23  1  0
 16  8  1  0
 17 16  2  0
 19 18  1  0
 20 22  1  0
 20 19  1  0
 20 21  1  6
 22 24  1  0
 22 23  1  6
 24 26  1  0
 25 24  2  0
M  END
$$$$
