CFI.pdb
     RDKit          3D

 26 26  0  0  1  0  0  0  0  0999 V2000
   11.3181  -16.9200   19.4275 N   0  0  0  0  0  0  0  0  0  0  0  0
   10.3477  -17.4306   20.3762 C   0  0  1  0  0  0  0  0  0  0  0  0
   10.7094  -18.8099   20.8610 C   0  0  0  0  0  0  0  0  0  0  0  0
   12.2919  -18.8589   21.7059 S   0  0  0  0  0  0  0  0  0  0  0  0
   10.2770  -16.5296   21.5597 C   0  0  0  0  0  0  0  0  0  0  0  0
   11.2328  -15.7712   21.8431 O   0  0  0  0  0  0  0  0  0  0  0  0
    9.1394  -16.5194   22.3711 N   0  0  0  0  0  0  0  0  0  0  0  0
    8.9407  -15.5348   23.4645 C   0  0  1  0  0  0  0  0  0  0  0  0
    7.4686  -15.2720   23.4612 C   0  0  0  0  0  0  0  0  0  0  0  0
    6.9837  -14.2816   24.4328 C   0  0  0  0  0  0  0  0  0  0  0  0
    7.2923  -12.9248   24.2878 C   0  0  0  0  0  0  0  0  0  0  0  0
    6.8376  -11.9786   25.1610 C   0  0  0  0  0  0  0  0  0  0  0  0
    6.0421  -12.3303   26.2391 C   0  0  0  0  0  0  0  0  0  0  0  0
    5.7200  -13.6596   26.4098 C   0  0  0  0  0  0  0  0  0  0  0  0
    6.1918  -14.5944   25.5143 C   0  0  0  0  0  0  0  0  0  0  0  0
    9.4761  -16.1684   24.6762 C   0  0  0  0  0  0  0  0  0  0  0  0
    9.4508  -17.4364   24.7587 O   0  0  0  0  0  0  0  0  0  0  0  0
   10.0264  -14.5309   30.0621 C   0  0  0  0  0  0  0  0  0  0  0  0
   10.1517  -14.2997   28.5470 C   0  0  0  0  0  0  0  0  0  0  0  0
   11.1337  -15.2477   27.9604 C   0  0  2  0  0  0  0  0  0  0  0  0
   12.3477  -14.5665   27.3834 C   0  0  0  0  0  0  0  0  0  0  0  0
   10.5148  -16.2179   26.9764 C   0  0  2  0  0  0  0  0  0  0  0  0
   10.0392  -15.5205   25.7987 N   0  0  0  0  0  0  0  0  0  0  0  0
    9.5578  -17.1468   27.5624 C   0  0  0  0  0  0  0  0  0  0  0  0
    9.9328  -18.0550   28.3629 O   0  0  0  0  0  0  0  0  0  0  0  0
    8.1938  -17.1386   27.3201 O   0  0  0  0  0  0  0  0  0  0  0  0
  2  1  1  6
  2  3  1  0
  3  4  1  0
  5  2  1  0
  6  5  2  0
  7  5  1  0
  8  7  1  0
  8  9  1  1
  9 10  1  0
 10 15  2  0
 11 12  2  0
 11 10  1  0
 12 13  1  0
 13 14  2  0
 15 14  1  0
 16 23  1  0
 16  8  1  0
 17 16  2  0
 19 18  1  0
 20 22  1  0
 20 19  1  0
 20 21  1  6
 22 24  1  0
 22 23  1  6
 24 26  1  0
 25 24  2  0
M  END
$$$$
