CFI.pdb
     RDKit          3D

 26 26  0  0  1  0  0  0  0  0999 V2000
   11.1896  -16.5092   19.2147 N   0  0  0  0  0  0  0  0  0  0  0  0
   10.5374  -17.1631   20.3325 C   0  0  1  0  0  0  0  0  0  0  0  0
   11.3084  -18.3673   20.8055 C   0  0  0  0  0  0  0  0  0  0  0  0
   10.4454  -19.2913   22.0791 S   0  0  0  0  0  0  0  0  0  0  0  0
   10.4197  -16.2135   21.4735 C   0  0  0  0  0  0  0  0  0  0  0  0
   11.3445  -15.4095   21.7335 O   0  0  0  0  0  0  0  0  0  0  0  0
    9.2721  -16.2080   22.2708 N   0  0  0  0  0  0  0  0  0  0  0  0
    9.0826  -15.2633   23.4004 C   0  0  1  0  0  0  0  0  0  0  0  0
    7.6315  -14.9066   23.3435 C   0  0  0  0  0  0  0  0  0  0  0  0
    7.1481  -13.9853   24.3816 C   0  0  0  0  0  0  0  0  0  0  0  0
    7.4422  -12.6190   24.3205 C   0  0  0  0  0  0  0  0  0  0  0  0
    6.9884  -11.7352   25.2573 C   0  0  0  0  0  0  0  0  0  0  0  0
    6.2085  -12.1633   26.3191 C   0  0  0  0  0  0  0  0  0  0  0  0
    5.9010  -13.5039   26.4077 C   0  0  0  0  0  0  0  0  0  0  0  0
    6.3715  -14.3747   25.4493 C   0  0  0  0  0  0  0  0  0  0  0  0
    9.5188  -15.9844   24.6029 C   0  0  0  0  0  0  0  0  0  0  0  0
    9.6028  -17.2516   24.5527 O   0  0  0  0  0  0  0  0  0  0  0  0
   10.2589  -13.1333   29.3142 C   0  0  0  0  0  0  0  0  0  0  0  0
   10.4628  -13.9225   28.0102 C   0  0  0  0  0  0  0  0  0  0  0  0
   10.2816  -15.3767   28.2543 C   0  0  2  0  0  0  0  0  0  0  0  0
   11.2116  -15.9246   29.3056 C   0  0  0  0  0  0  0  0  0  0  0  0
   10.3177  -16.2052   26.9873 C   0  0  2  0  0  0  0  0  0  0  0  0
    9.8731  -15.4239   25.8508 N   0  0  0  0  0  0  0  0  0  0  0  0
    9.6974  -17.5180   27.1043 C   0  0  0  0  0  0  0  0  0  0  0  0
   10.3636  -18.5249   27.4901 O   0  0  0  0  0  0  0  0  0  0  0  0
    8.3704  -17.7966   26.8203 O   0  0  0  0  0  0  0  0  0  0  0  0
  2  1  1  6
  2  3  1  0
  3  4  1  0
  5  2  1  0
  6  5  2  0
  7  5  1  0
  8  7  1  0
  8  9  1  1
  9 10  1  0
 10 15  2  0
 11 12  2  0
 11 10  1  0
 12 13  1  0
 13 14  2  0
 15 14  1  0
 16 23  1  0
 16  8  1  0
 17 16  2  0
 19 18  1  0
 20 22  1  0
 20 19  1  0
 20 21  1  1
 22 24  1  0
 22 23  1  6
 24 26  1  0
 25 24  2  0
M  END
$$$$
