CFI.pdb
     RDKit          3D

 26 26  0  0  1  0  0  0  0  0999 V2000
   11.0026  -17.1622   19.1595 N   0  0  0  0  0  0  0  0  0  0  0  0
   10.0388  -17.5273   20.1793 C   0  0  1  0  0  0  0  0  0  0  0  0
   10.3720  -18.8501   20.8180 C   0  0  0  0  0  0  0  0  0  0  0  0
   12.0082  -18.8758   21.5547 S   0  0  0  0  0  0  0  0  0  0  0  0
   10.0188  -16.4910   21.2485 C   0  0  0  0  0  0  0  0  0  0  0  0
   10.9159  -15.6190   21.3097 O   0  0  0  0  0  0  0  0  0  0  0  0
    8.9952  -16.4791   22.1997 N   0  0  0  0  0  0  0  0  0  0  0  0
    8.8579  -15.4087   23.2194 C   0  0  1  0  0  0  0  0  0  0  0  0
    7.3852  -15.1614   23.2986 C   0  0  0  0  0  0  0  0  0  0  0  0
    6.9545  -14.0921   24.2103 C   0  0  0  0  0  0  0  0  0  0  0  0
    7.1883  -12.7482   23.8998 C   0  0  0  0  0  0  0  0  0  0  0  0
    6.7800  -11.7321   24.7154 C   0  0  0  0  0  0  0  0  0  0  0  0
    6.1092  -11.9962   25.8983 C   0  0  0  0  0  0  0  0  0  0  0  0
    5.8633  -13.3105   26.2328 C   0  0  0  0  0  0  0  0  0  0  0  0
    6.2860  -14.3171   25.3923 C   0  0  0  0  0  0  0  0  0  0  0  0
    9.4863  -15.9337   24.4383 C   0  0  0  0  0  0  0  0  0  0  0  0
    9.4848  -17.1904   24.6278 O   0  0  0  0  0  0  0  0  0  0  0  0
   11.1477  -14.1594   30.1580 C   0  0  0  0  0  0  0  0  0  0  0  0
   11.2963  -15.2025   29.0379 C   0  0  0  0  0  0  0  0  0  0  0  0
   10.6283  -14.7271   27.7990 C   0  0  2  0  0  0  0  0  0  0  0  0
    9.2645  -14.1362   28.0468 C   0  0  0  0  0  0  0  0  0  0  0  0
   10.5969  -15.7673   26.6991 C   0  0  2  0  0  0  0  0  0  0  0  0
   10.1179  -15.1891   25.4598 N   0  0  0  0  0  0  0  0  0  0  0  0
    9.9601  -17.0234   27.0715 C   0  0  0  0  0  0  0  0  0  0  0  0
    8.7175  -17.2039   26.8993 O   0  0  0  0  0  0  0  0  0  0  0  0
   10.6144  -18.1099   27.6288 O   0  0  0  0  0  0  0  0  0  0  0  0
  2  1  1  6
  2  3  1  0
  3  4  1  0
  5  2  1  0
  6  5  2  0
  7  5  1  0
  8  7  1  0
  8  9  1  1
  9 10  1  0
 10 15  2  0
 11 12  2  0
 11 10  1  0
 12 13  1  0
 13 14  2  0
 15 14  1  0
 16 23  1  0
 16  8  1  0
 17 16  2  0
 19 18  1  0
 20 22  1  0
 20 19  1  0
 20 21  1  1
 22 24  1  0
 22 23  1  6
 24 26  1  0
 25 24  2  0
M  END
$$$$
