CFI.pdb
     RDKit          3D

 26 26  0  0  1  0  0  0  0  0999 V2000
   11.3757  -17.0992   19.3639 N   0  0  0  0  0  0  0  0  0  0  0  0
   10.3880  -17.5348   20.3319 C   0  0  1  0  0  0  0  0  0  0  0  0
   10.7491  -18.8635   20.9425 C   0  0  0  0  0  0  0  0  0  0  0  0
   12.3037  -18.8196   21.8379 S   0  0  0  0  0  0  0  0  0  0  0  0
   10.2840  -16.5353   21.4310 C   0  0  0  0  0  0  0  0  0  0  0  0
   11.1898  -15.6895   21.6130 O   0  0  0  0  0  0  0  0  0  0  0  0
    9.1706  -16.5292   22.2752 N   0  0  0  0  0  0  0  0  0  0  0  0
    8.9863  -15.5272   23.3553 C   0  0  1  0  0  0  0  0  0  0  0  0
    7.5152  -15.2589   23.3625 C   0  0  0  0  0  0  0  0  0  0  0  0
    7.0476  -14.2298   24.3019 C   0  0  0  0  0  0  0  0  0  0  0  0
    7.2930  -12.8739   24.0599 C   0  0  0  0  0  0  0  0  0  0  0  0
    6.8516  -11.8938   24.9019 C   0  0  0  0  0  0  0  0  0  0  0  0
    6.1337  -12.2084   26.0442 C   0  0  0  0  0  0  0  0  0  0  0  0
    5.8753  -13.5357   26.3109 C   0  0  0  0  0  0  0  0  0  0  0  0
    6.3320  -14.5052   25.4450 C   0  0  0  0  0  0  0  0  0  0  0  0
    9.5313  -16.1443   24.5712 C   0  0  0  0  0  0  0  0  0  0  0  0
    9.7702  -17.3926   24.5625 O   0  0  0  0  0  0  0  0  0  0  0  0
   10.4931  -12.9227   28.9993 C   0  0  0  0  0  0  0  0  0  0  0  0
   10.6693  -13.8330   27.7725 C   0  0  0  0  0  0  0  0  0  0  0  0
   10.4263  -15.2509   28.1437 C   0  0  2  0  0  0  0  0  0  0  0  0
   11.3667  -15.7581   29.2061 C   0  0  0  0  0  0  0  0  0  0  0  0
   10.3746  -16.1815   26.9503 C   0  0  2  0  0  0  0  0  0  0  0  0
    9.8376  -15.4988   25.7904 N   0  0  0  0  0  0  0  0  0  0  0  0
    9.7780  -17.4823   27.2220 C   0  0  0  0  0  0  0  0  0  0  0  0
   10.4641  -18.4274   27.7145 O   0  0  0  0  0  0  0  0  0  0  0  0
    8.4541  -17.8134   26.9834 O   0  0  0  0  0  0  0  0  0  0  0  0
  2  1  1  6
  2  3  1  0
  3  4  1  0
  5  2  1  0
  6  5  2  0
  7  5  1  0
  8  7  1  0
  8  9  1  1
  9 10  1  0
 10 15  2  0
 11 12  2  0
 11 10  1  0
 12 13  1  0
 13 14  2  0
 15 14  1  0
 16 23  1  0
 16  8  1  0
 17 16  2  0
 19 18  1  0
 20 22  1  0
 20 19  1  0
 20 21  1  1
 22 24  1  0
 22 23  1  6
 24 26  1  0
 25 24  2  0
M  END
$$$$
