CFI.pdb
     RDKit          3D

 26 26  0  0  1  0  0  0  0  0999 V2000
   10.8039  -16.9330   19.1677 N   0  0  0  0  0  0  0  0  0  0  0  0
   10.3499  -17.5819   20.3822 C   0  0  1  0  0  0  0  0  0  0  0  0
   11.2905  -18.6738   20.8201 C   0  0  0  0  0  0  0  0  0  0  0  0
   10.8150  -19.4183   22.3822 S   0  0  0  0  0  0  0  0  0  0  0  0
   10.2579  -16.5835   21.4834 C   0  0  0  0  0  0  0  0  0  0  0  0
   11.1765  -15.7527   21.6707 O   0  0  0  0  0  0  0  0  0  0  0  0
    9.1417  -16.5616   22.3237 N   0  0  0  0  0  0  0  0  0  0  0  0
    8.9689  -15.5584   23.4046 C   0  0  1  0  0  0  0  0  0  0  0  0
    7.5114  -15.2259   23.3697 C   0  0  0  0  0  0  0  0  0  0  0  0
    7.0622  -14.1776   24.2967 C   0  0  0  0  0  0  0  0  0  0  0  0
    6.3155  -14.4995   25.4351 C   0  0  0  0  0  0  0  0  0  0  0  0
    5.9036  -13.5507   26.3264 C   0  0  0  0  0  0  0  0  0  0  0  0
    6.2134  -12.2141   26.1354 C   0  0  0  0  0  0  0  0  0  0  0  0
    6.9482  -11.8642   25.0230 C   0  0  0  0  0  0  0  0  0  0  0  0
    7.3515  -12.8411   24.1391 C   0  0  0  0  0  0  0  0  0  0  0  0
    9.4496  -16.2055   24.6320 C   0  0  0  0  0  0  0  0  0  0  0  0
    9.4028  -17.4733   24.7070 O   0  0  0  0  0  0  0  0  0  0  0  0
   10.1067  -13.8200   29.8813 C   0  0  0  0  0  0  0  0  0  0  0  0
    9.6575  -14.7592   28.7496 C   0  0  0  0  0  0  0  0  0  0  0  0
   10.8395  -15.3206   28.0460 C   0  0  2  0  0  0  0  0  0  0  0  0
   11.8061  -14.2666   27.5714 C   0  0  0  0  0  0  0  0  0  0  0  0
   10.4738  -16.2855   26.9379 C   0  0  2  0  0  0  0  0  0  0  0  0
    9.9801  -15.5711   25.7779 N   0  0  0  0  0  0  0  0  0  0  0  0
    9.6460  -17.4073   27.3604 C   0  0  0  0  0  0  0  0  0  0  0  0
    8.4395  -17.5084   26.9857 O   0  0  0  0  0  0  0  0  0  0  0  0
   10.0688  -18.4407   28.1805 O   0  0  0  0  0  0  0  0  0  0  0  0
  2  1  1  6
  2  3  1  0
  3  4  1  0
  5  2  1  0
  6  5  2  0
  7  5  1  0
  8  7  1  0
  8  9  1  1
  9 10  1  0
 10 15  2  0
 11 12  2  0
 11 10  1  0
 12 13  1  0
 13 14  2  0
 15 14  1  0
 16 23  1  0
 16  8  1  0
 17 16  2  0
 19 18  1  0
 20 22  1  0
 20 19  1  0
 20 21  1  6
 22 24  1  0
 22 23  1  6
 24 26  1  0
 25 24  2  0
M  END
$$$$
