VDE.pdb
     RDKit          3D

 25 24  0  0  1  0  0  0  0  0999 V2000
   16.0440  -12.3375  -16.6855 C   0  0  0  0  0  0  0  0  0  0  0  0
   17.5616  -12.3209  -16.8384 C   0  0  2  0  0  0  0  0  0  0  0  0
   18.1198  -13.6935  -16.5316 C   0  0  0  0  0  0  0  0  0  0  0  0
   18.0950  -11.2563  -15.9211 C   0  0  2  0  0  0  0  0  0  0  0  0
   17.9731  -11.6136  -14.5265 N   0  0  0  0  0  0  0  0  0  0  0  0
   17.4035   -9.9531  -16.0983 C   0  0  0  0  0  0  0  0  0  0  0  0
   17.4678   -9.4199  -17.2488 O   0  0  0  0  0  0  0  0  0  0  0  0
   16.7005   -9.3099  -15.0624 N   0  0  0  0  0  0  0  0  0  0  0  0
   16.1474   -7.9635  -15.2951 C   0  0  1  0  0  0  0  0  0  0  0  0
   14.7583   -7.9970  -14.7665 C   0  0  0  0  0  0  0  0  0  0  0  0
   13.7908   -8.8413  -15.4378 C   0  0  0  0  0  0  0  0  0  0  0  0
   13.5660   -8.7839  -16.6571 O   0  0  0  0  0  0  0  0  0  0  0  0
   17.0399   -6.9687  -14.6198 C   0  0  0  0  0  0  0  0  0  0  0  0
   17.5138   -7.2753  -13.5057 O   0  0  0  0  0  0  0  0  0  0  0  0
   13.0752   -9.7628  -14.6885 O   0  0  0  0  0  0  0  0  0  0  0  0
   17.3395   -5.7220  -15.2191 N   0  0  0  0  0  0  0  0  0  0  0  0
   18.3216   -4.8256  -14.6709 C   0  0  1  0  0  0  0  0  0  0  0  0
   19.6292   -5.5285  -14.5777 C   0  0  0  0  0  0  0  0  0  0  0  0
   20.7768   -4.7329  -14.0674 C   0  0  0  0  0  0  0  0  0  0  0  0
   22.0572   -5.4357  -13.9841 C   0  0  0  0  0  0  0  0  0  0  0  0
   23.0904   -4.8705  -13.6013 O   0  0  0  0  0  0  0  0  0  0  0  0
   18.3773   -3.6090  -15.5416 C   0  0  0  0  0  0  0  0  0  0  0  0
   17.7922   -3.6245  -16.8110 O   0  0  0  0  0  0  0  0  0  0  0  0
   22.1269   -6.7925  -14.3469 O   0  0  0  0  0  0  0  0  0  0  0  0
   18.9413   -2.5748  -15.1514 O   0  0  0  0  0  0  0  0  0  0  0  0
  2  1  1  1
  3  2  1  0
  4  2  1  0
  4  5  1  1
  6  7  2  0
  6  4  1  0
  8  6  1  0
  9 13  1  0
  9  8  1  0
  9 10  1  1
 11 12  2  0
 11 10  1  0
 13 16  1  0
 14 13  2  0
 15 11  1  0
 16 17  1  0
 17 22  1  0
 18 19  1  0
 17 18  1  6
 19 20  1  0
 20 21  2  0
 20 24  1  0
 22 25  2  0
 22 23  1  0
M  END
$$$$
