VDE.pdb
     RDKit          3D

 25 24  0  0  1  0  0  0  0  0999 V2000
   19.9830  -15.3846  -17.3935 C   0  0  0  0  0  0  0  0  0  0  0  0
   18.7661  -14.7709  -16.7082 C   0  0  2  0  0  0  0  0  0  0  0  0
   17.5028  -15.4011  -17.2527 C   0  0  0  0  0  0  0  0  0  0  0  0
   18.8221  -13.2862  -16.9363 C   0  0  2  0  0  0  0  0  0  0  0  0
   18.5690  -12.9263  -18.3125 N   0  0  0  0  0  0  0  0  0  0  0  0
   20.1384  -12.7027  -16.5692 C   0  0  0  0  0  0  0  0  0  0  0  0
   20.4583  -12.7331  -15.3409 O   0  0  0  0  0  0  0  0  0  0  0  0
   21.0160  -12.1344  -17.5116 N   0  0  0  0  0  0  0  0  0  0  0  0
   22.2963  -11.5663  -17.0524 C   0  0  1  0  0  0  0  0  0  0  0  0
   23.3534  -12.2606  -17.8338 C   0  0  0  0  0  0  0  0  0  0  0  0
   24.7345  -12.0653  -17.4410 C   0  0  0  0  0  0  0  0  0  0  0  0
   25.1919  -10.9693  -17.0804 O   0  0  0  0  0  0  0  0  0  0  0  0
   22.2505  -10.0839  -17.2593 C   0  0  0  0  0  0  0  0  0  0  0  0
   21.8453   -9.6633  -18.3633 O   0  0  0  0  0  0  0  0  0  0  0  0
   25.5957  -13.1516  -17.4660 O   0  0  0  0  0  0  0  0  0  0  0  0
   22.6515   -9.1855  -16.2419 N   0  0  0  0  0  0  0  0  0  0  0  0
   22.5090   -7.7609  -16.3789 C   0  0  1  0  0  0  0  0  0  0  0  0
   22.3579   -7.1513  -15.0305 C   0  0  0  0  0  0  0  0  0  0  0  0
   22.2722   -5.6680  -14.9773 C   0  0  0  0  0  0  0  0  0  0  0  0
   22.2166   -5.0768  -13.6402 C   0  0  0  0  0  0  0  0  0  0  0  0
   22.8641   -4.0633  -13.3452 O   0  0  0  0  0  0  0  0  0  0  0  0
   23.7030   -7.2437  -17.1192 C   0  0  0  0  0  0  0  0  0  0  0  0
   24.9642   -7.8056  -16.9012 O   0  0  0  0  0  0  0  0  0  0  0  0
   21.4074   -5.6694  -12.6545 O   0  0  0  0  0  0  0  0  0  0  0  0
   23.5912   -6.3131  -17.9325 O   0  0  0  0  0  0  0  0  0  0  0  0
  2  1  1  6
  3  2  1  0
  4  2  1  0
  4  5  1  6
  6  7  2  0
  6  4  1  0
  8  6  1  0
  9 13  1  0
  9  8  1  0
  9 10  1  6
 11 12  2  0
 11 10  1  0
 13 16  1  0
 14 13  2  0
 15 11  1  0
 16 17  1  0
 17 22  1  0
 18 19  1  0
 17 18  1  1
 19 20  1  0
 20 21  2  0
 20 24  1  0
 22 25  2  0
 22 23  1  0
M  END
$$$$
