VDE.pdb
     RDKit          3D

 25 24  0  0  1  0  0  0  0  0999 V2000
   18.4160  -13.3536  -18.3096 C   0  0  0  0  0  0  0  0  0  0  0  0
   19.9020  -13.1177  -18.0585 C   0  0  2  0  0  0  0  0  0  0  0  0
   20.6061  -14.4453  -17.8826 C   0  0  0  0  0  0  0  0  0  0  0  0
   20.0192  -12.2309  -16.8505 C   0  0  2  0  0  0  0  0  0  0  0  0
   19.5929  -12.8881  -15.6364 N   0  0  0  0  0  0  0  0  0  0  0  0
   19.2163  -10.9871  -16.9768 C   0  0  0  0  0  0  0  0  0  0  0  0
   19.5737  -10.1605  -17.8718 O   0  0  0  0  0  0  0  0  0  0  0  0
   18.1052  -10.7042  -16.1603 N   0  0  0  0  0  0  0  0  0  0  0  0
   17.3656   -9.4451  -16.3614 C   0  0  1  0  0  0  0  0  0  0  0  0
   15.9282   -9.7861  -16.1952 C   0  0  0  0  0  0  0  0  0  0  0  0
   15.2821  -10.5551  -17.2396 C   0  0  0  0  0  0  0  0  0  0  0  0
   15.4042  -10.3002  -18.4482 O   0  0  0  0  0  0  0  0  0  0  0  0
   17.8783   -8.4400  -15.3770 C   0  0  0  0  0  0  0  0  0  0  0  0
   18.5107   -8.8655  -14.3876 O   0  0  0  0  0  0  0  0  0  0  0  0
   14.4853  -11.6316  -16.8805 O   0  0  0  0  0  0  0  0  0  0  0  0
   17.6566   -7.0537  -15.5565 N   0  0  0  0  0  0  0  0  0  0  0  0
   18.3443   -6.0611  -14.7753 C   0  0  1  0  0  0  0  0  0  0  0  0
   19.8121   -6.2394  -14.9381 C   0  0  0  0  0  0  0  0  0  0  0  0
   20.6821   -5.2432  -14.2591 C   0  0  0  0  0  0  0  0  0  0  0  0
   22.1219   -5.4905  -14.3381 C   0  0  0  0  0  0  0  0  0  0  0  0
   22.5987   -6.3448  -15.0972 O   0  0  0  0  0  0  0  0  0  0  0  0
   17.8709   -4.7116  -15.2181 C   0  0  0  0  0  0  0  0  0  0  0  0
   17.7376   -3.6735  -14.2915 O   0  0  0  0  0  0  0  0  0  0  0  0
   22.9980   -4.7414  -13.5326 O   0  0  0  0  0  0  0  0  0  0  0  0
   17.5908   -4.4962  -16.4076 O   0  0  0  0  0  0  0  0  0  0  0  0
  2  1  1  1
  3  2  1  0
  4  2  1  0
  4  5  1  1
  6  7  2  0
  6  4  1  0
  8  6  1  0
  9 13  1  0
  9  8  1  0
  9 10  1  1
 11 12  2  0
 11 10  1  0
 13 16  1  0
 14 13  2  0
 15 11  1  0
 16 17  1  0
 17 22  1  0
 18 19  1  0
 17 18  1  6
 19 20  1  0
 20 21  2  0
 20 24  1  0
 22 25  2  0
 22 23  1  0
M  END
$$$$
