VDE.pdb
     RDKit          3D

 25 24  0  0  1  0  0  0  0  0999 V2000
   25.9521  -13.0216  -15.9717 C   0  0  0  0  0  0  0  0  0  0  0  0
   25.0404  -11.8273  -16.2350 C   0  0  2  0  0  0  0  0  0  0  0  0
   25.3539  -10.7204  -15.2523 C   0  0  0  0  0  0  0  0  0  0  0  0
   23.6215  -12.3130  -16.1329 C   0  0  2  0  0  0  0  0  0  0  0  0
   23.3267  -13.3671  -17.0761 N   0  0  0  0  0  0  0  0  0  0  0  0
   22.6308  -11.2306  -16.3667 C   0  0  0  0  0  0  0  0  0  0  0  0
   22.4596  -10.8576  -17.5682 O   0  0  0  0  0  0  0  0  0  0  0  0
   21.8977  -10.6236  -15.3297 N   0  0  0  0  0  0  0  0  0  0  0  0
   21.0391   -9.4656  -15.6369 C   0  0  1  0  0  0  0  0  0  0  0  0
   19.7030   -9.7875  -15.0702 C   0  0  0  0  0  0  0  0  0  0  0  0
   18.9214  -10.8275  -15.7084 C   0  0  0  0  0  0  0  0  0  0  0  0
   18.8020  -10.9317  -16.9394 O   0  0  0  0  0  0  0  0  0  0  0  0
   21.6775   -8.2430  -15.0536 C   0  0  0  0  0  0  0  0  0  0  0  0
   22.2323   -8.3521  -13.9400 O   0  0  0  0  0  0  0  0  0  0  0  0
   18.2707  -11.7575  -14.9121 O   0  0  0  0  0  0  0  0  0  0  0  0
   21.6559   -7.0037  -15.7367 N   0  0  0  0  0  0  0  0  0  0  0  0
   22.3855   -5.8572  -15.2656 C   0  0  1  0  0  0  0  0  0  0  0  0
   22.3813   -4.8067  -16.3188 C   0  0  0  0  0  0  0  0  0  0  0  0
   23.0651   -3.5292  -15.9861 C   0  0  0  0  0  0  0  0  0  0  0  0
   22.9582   -2.4660  -16.9854 C   0  0  0  0  0  0  0  0  0  0  0  0
   22.4362   -2.6577  -18.0918 O   0  0  0  0  0  0  0  0  0  0  0  0
   21.7561   -5.3995  -13.9867 C   0  0  0  0  0  0  0  0  0  0  0  0
   22.5368   -4.8040  -12.9918 O   0  0  0  0  0  0  0  0  0  0  0  0
   23.4598   -1.1858  -16.6902 O   0  0  0  0  0  0  0  0  0  0  0  0
   20.5389   -5.5420  -13.7919 O   0  0  0  0  0  0  0  0  0  0  0  0
  2  1  1  1
  3  2  1  0
  4  2  1  0
  4  5  1  6
  6  7  2  0
  6  4  1  0
  8  6  1  0
  9 13  1  0
  9  8  1  0
  9 10  1  1
 11 12  2  0
 11 10  1  0
 13 16  1  0
 14 13  2  0
 15 11  1  0
 16 17  1  0
 17 22  1  0
 18 19  1  0
 17 18  1  6
 19 20  1  0
 20 21  2  0
 20 24  1  0
 22 25  2  0
 22 23  1  0
M  END
$$$$
