VDE.pdb
     RDKit          3D

 25 24  0  0  1  0  0  0  0  0999 V2000
   16.6908  -14.1101  -17.9818 C   0  0  0  0  0  0  0  0  0  0  0  0
   16.7065  -15.5993  -17.6521 C   0  0  2  0  0  0  0  0  0  0  0  0
   15.7671  -15.8758  -16.4986 C   0  0  0  0  0  0  0  0  0  0  0  0
   18.1291  -15.9784  -17.3491 C   0  0  2  0  0  0  0  0  0  0  0  0
   18.2441  -16.8035  -16.1686 N   0  0  0  0  0  0  0  0  0  0  0  0
   19.0017  -14.7942  -17.1387 C   0  0  0  0  0  0  0  0  0  0  0  0
   19.1517  -14.3959  -15.9425 O   0  0  0  0  0  0  0  0  0  0  0  0
   19.6480  -14.1200  -18.1917 N   0  0  0  0  0  0  0  0  0  0  0  0
   20.5862  -13.0270  -17.8787 C   0  0  1  0  0  0  0  0  0  0  0  0
   21.8555  -13.3684  -18.5733 C   0  0  0  0  0  0  0  0  0  0  0  0
   22.8699  -14.0885  -17.8303 C   0  0  0  0  0  0  0  0  0  0  0  0
   22.9821  -15.3244  -17.8522 O   0  0  0  0  0  0  0  0  0  0  0  0
   19.9673  -11.7383  -18.3242 C   0  0  0  0  0  0  0  0  0  0  0  0
   19.3010  -11.7480  -19.3805 O   0  0  0  0  0  0  0  0  0  0  0  0
   23.7648  -13.3692  -17.0528 O   0  0  0  0  0  0  0  0  0  0  0  0
   20.1288  -10.5468  -17.5777 N   0  0  0  0  0  0  0  0  0  0  0  0
   19.5356   -9.3017  -17.9855 C   0  0  1  0  0  0  0  0  0  0  0  0
   19.0117   -8.5924  -16.7875 C   0  0  0  0  0  0  0  0  0  0  0  0
   18.4534   -7.2328  -17.0111 C   0  0  0  0  0  0  0  0  0  0  0  0
   17.9489   -6.5439  -15.8231 C   0  0  0  0  0  0  0  0  0  0  0  0
   17.9634   -7.0733  -14.7038 O   0  0  0  0  0  0  0  0  0  0  0  0
   20.5733   -8.5114  -18.7203 C   0  0  0  0  0  0  0  0  0  0  0  0
   20.1910   -7.5091  -19.6165 O   0  0  0  0  0  0  0  0  0  0  0  0
   17.4304   -5.2425  -15.9457 O   0  0  0  0  0  0  0  0  0  0  0  0
   21.7816   -8.7338  -18.5459 O   0  0  0  0  0  0  0  0  0  0  0  0
  2  1  1  1
  3  2  1  0
  4  2  1  0
  4  5  1  1
  6  7  2  0
  6  4  1  0
  8  6  1  0
  9 13  1  0
  9  8  1  0
  9 10  1  6
 11 12  2  0
 11 10  1  0
 13 16  1  0
 14 13  2  0
 15 11  1  0
 16 17  1  0
 17 22  1  0
 18 19  1  0
 17 18  1  1
 19 20  1  0
 20 21  2  0
 20 24  1  0
 22 25  2  0
 22 23  1  0
M  END
$$$$
