VDE.pdb
     RDKit          3D

 25 24  0  0  1  0  0  0  0  0999 V2000
   15.0257  -13.7074  -14.6070 C   0  0  0  0  0  0  0  0  0  0  0  0
   15.8566  -13.9376  -15.8654 C   0  0  2  0  0  0  0  0  0  0  0  0
   16.4321  -15.3369  -15.8471 C   0  0  0  0  0  0  0  0  0  0  0  0
   16.9159  -12.8720  -15.9067 C   0  0  2  0  0  0  0  0  0  0  0  0
   17.9350  -13.0636  -14.9006 N   0  0  0  0  0  0  0  0  0  0  0  0
   16.3601  -11.5083  -15.7086 C   0  0  0  0  0  0  0  0  0  0  0  0
   15.7719  -10.9776  -16.7008 O   0  0  0  0  0  0  0  0  0  0  0  0
   16.4617  -10.8069  -14.4926 N   0  0  0  0  0  0  0  0  0  0  0  0
   15.8485   -9.4714  -14.3780 C   0  0  1  0  0  0  0  0  0  0  0  0
   15.1001   -9.4757  -13.0935 C   0  0  0  0  0  0  0  0  0  0  0  0
   13.6520   -9.4808  -13.1452 C   0  0  0  0  0  0  0  0  0  0  0  0
   12.9864   -8.5857  -13.6896 O   0  0  0  0  0  0  0  0  0  0  0  0
   16.9397   -8.4486  -14.4520 C   0  0  0  0  0  0  0  0  0  0  0  0
   18.0598   -8.7595  -13.9954 O   0  0  0  0  0  0  0  0  0  0  0  0
   12.9667  -10.5344  -12.5597 O   0  0  0  0  0  0  0  0  0  0  0  0
   16.7148   -7.1714  -15.0189 N   0  0  0  0  0  0  0  0  0  0  0  0
   17.7653   -6.1984  -15.1544 C   0  0  1  0  0  0  0  0  0  0  0  0
   18.2640   -6.2071  -16.5558 C   0  0  0  0  0  0  0  0  0  0  0  0
   19.3085   -5.2054  -16.8960 C   0  0  0  0  0  0  0  0  0  0  0  0
   19.7569   -5.1948  -18.2886 C   0  0  0  0  0  0  0  0  0  0  0  0
   19.0590   -4.7251  -19.1973 O   0  0  0  0  0  0  0  0  0  0  0  0
   17.2212   -4.8666  -14.7402 C   0  0  0  0  0  0  0  0  0  0  0  0
   18.0891   -3.8393  -14.3589 O   0  0  0  0  0  0  0  0  0  0  0  0
   21.0152   -5.7311  -18.6147 O   0  0  0  0  0  0  0  0  0  0  0  0
   15.9982   -4.6565  -14.7287 O   0  0  0  0  0  0  0  0  0  0  0  0
  2  1  1  1
  3  2  1  0
  4  2  1  0
  4  5  1  1
  6  7  2  0
  6  4  1  0
  8  6  1  0
  9 13  1  0
  9  8  1  0
  9 10  1  1
 11 12  2  0
 11 10  1  0
 13 16  1  0
 14 13  2  0
 15 11  1  0
 16 17  1  0
 17 22  1  0
 18 19  1  0
 17 18  1  6
 19 20  1  0
 20 21  2  0
 20 24  1  0
 22 25  2  0
 22 23  1  0
M  END
$$$$
