VDE.pdb
     RDKit          3D

 25 24  0  0  1  0  0  0  0  0999 V2000
   24.7838  -12.3816  -15.4176 C   0  0  0  0  0  0  0  0  0  0  0  0
   23.9466  -13.6046  -15.0565 C   0  0  2  0  0  0  0  0  0  0  0  0
   24.8526  -14.7977  -14.8442 C   0  0  0  0  0  0  0  0  0  0  0  0
   22.9555  -13.8154  -16.1667 C   0  0  2  0  0  0  0  0  0  0  0  0
   23.5923  -14.0872  -17.4348 N   0  0  0  0  0  0  0  0  0  0  0  0
   22.0680  -12.6409  -16.3687 C   0  0  0  0  0  0  0  0  0  0  0  0
   22.4123  -11.8070  -17.2620 O   0  0  0  0  0  0  0  0  0  0  0  0
   20.8927  -12.4295  -15.6236 N   0  0  0  0  0  0  0  0  0  0  0  0
   20.0380  -11.2709  -15.9398 C   0  0  1  0  0  0  0  0  0  0  0  0
   18.6374  -11.7412  -15.7753 C   0  0  0  0  0  0  0  0  0  0  0  0
   18.1437  -12.7534  -16.6872 C   0  0  0  0  0  0  0  0  0  0  0  0
   18.4249  -12.7772  -17.8958 O   0  0  0  0  0  0  0  0  0  0  0  0
   20.4212  -10.1456  -15.0293 C   0  0  0  0  0  0  0  0  0  0  0  0
   20.6055  -10.4109  -13.8229 O   0  0  0  0  0  0  0  0  0  0  0  0
   17.3149  -13.7495  -16.1938 O   0  0  0  0  0  0  0  0  0  0  0  0
   20.5707   -8.8242  -15.5140 N   0  0  0  0  0  0  0  0  0  0  0  0
   21.0650   -7.7568  -14.6866 C   0  0  1  0  0  0  0  0  0  0  0  0
   21.6752   -6.7099  -15.5494 C   0  0  0  0  0  0  0  0  0  0  0  0
   22.1046   -5.4578  -14.8726 C   0  0  0  0  0  0  0  0  0  0  0  0
   22.5725   -4.3837  -15.7488 C   0  0  0  0  0  0  0  0  0  0  0  0
   22.8332   -4.5802  -16.9434 O   0  0  0  0  0  0  0  0  0  0  0  0
   19.9253   -7.2400  -13.8649 C   0  0  0  0  0  0  0  0  0  0  0  0
   18.6380   -7.1788  -14.4064 O   0  0  0  0  0  0  0  0  0  0  0  0
   22.7342   -3.0872  -15.2289 O   0  0  0  0  0  0  0  0  0  0  0  0
   20.1057   -6.8598  -12.6975 O   0  0  0  0  0  0  0  0  0  0  0  0
  2  1  1  6
  3  2  1  0
  4  2  1  0
  4  5  1  6
  6  7  2  0
  6  4  1  0
  8  6  1  0
  9 13  1  0
  9  8  1  0
  9 10  1  1
 11 12  2  0
 11 10  1  0
 13 16  1  0
 14 13  2  0
 15 11  1  0
 16 17  1  0
 17 22  1  0
 18 19  1  0
 17 18  1  6
 19 20  1  0
 20 21  2  0
 20 24  1  0
 22 25  2  0
 22 23  1  0
M  END
$$$$
