VDE.pdb
     RDKit          3D

 25 24  0  0  1  0  0  0  0  0999 V2000
   16.8069  -12.0705  -17.1329 C   0  0  0  0  0  0  0  0  0  0  0  0
   17.9568  -12.1885  -18.1283 C   0  0  2  0  0  0  0  0  0  0  0  0
   18.1509  -13.6389  -18.5131 C   0  0  0  0  0  0  0  0  0  0  0  0
   19.1744  -11.5886  -17.4826 C   0  0  2  0  0  0  0  0  0  0  0  0
   19.7296  -12.4350  -16.4516 N   0  0  0  0  0  0  0  0  0  0  0  0
   18.8968  -10.2688  -16.8591 C   0  0  0  0  0  0  0  0  0  0  0  0
   18.5315   -9.3320  -17.6345 O   0  0  0  0  0  0  0  0  0  0  0  0
   19.0219  -10.0307  -15.4775 N   0  0  0  0  0  0  0  0  0  0  0  0
   18.7322   -8.6854  -14.9493 C   0  0  1  0  0  0  0  0  0  0  0  0
   17.9879   -8.8979  -13.6800 C   0  0  0  0  0  0  0  0  0  0  0  0
   16.5503   -9.0652  -13.7496 C   0  0  0  0  0  0  0  0  0  0  0  0
   15.8940   -8.8957  -14.7893 O   0  0  0  0  0  0  0  0  0  0  0  0
   20.0308   -7.9575  -14.7877 C   0  0  0  0  0  0  0  0  0  0  0  0
   21.0060   -8.5999  -14.3447 O   0  0  0  0  0  0  0  0  0  0  0  0
   15.8646   -9.4331  -12.6019 O   0  0  0  0  0  0  0  0  0  0  0  0
   20.1545   -6.5883  -15.1238 N   0  0  0  0  0  0  0  0  0  0  0  0
   21.4180   -5.9022  -15.0869 C   0  0  1  0  0  0  0  0  0  0  0  0
   21.3657   -4.7290  -15.9999 C   0  0  0  0  0  0  0  0  0  0  0  0
   22.5375   -3.8144  -15.9748 C   0  0  0  0  0  0  0  0  0  0  0  0
   22.4459   -2.6318  -16.8314 C   0  0  0  0  0  0  0  0  0  0  0  0
   21.4807   -2.4415  -17.5834 O   0  0  0  0  0  0  0  0  0  0  0  0
   21.6980   -5.5204  -13.6667 C   0  0  0  0  0  0  0  0  0  0  0  0
   23.0154   -5.3613  -13.2272 O   0  0  0  0  0  0  0  0  0  0  0  0
   23.4789   -1.6780  -16.8071 O   0  0  0  0  0  0  0  0  0  0  0  0
   20.7696   -5.3412  -12.8629 O   0  0  0  0  0  0  0  0  0  0  0  0
  2  1  1  1
  3  2  1  0
  4  2  1  0
  4  5  1  1
  6  7  2  0
  6  4  1  0
  8  6  1  0
  9 13  1  0
  9  8  1  0
  9 10  1  1
 11 12  2  0
 11 10  1  0
 13 16  1  0
 14 13  2  0
 15 11  1  0
 16 17  1  0
 17 22  1  0
 18 19  1  0
 17 18  1  6
 19 20  1  0
 20 21  2  0
 20 24  1  0
 22 25  2  0
 22 23  1  0
M  END
$$$$
