VDE.pdb
     RDKit          3D

 25 24  0  0  1  0  0  0  0  0999 V2000
   18.1790  -13.1374  -17.4115 C   0  0  0  0  0  0  0  0  0  0  0  0
   17.3481  -13.7926  -16.3126 C   0  0  2  0  0  0  0  0  0  0  0  0
   16.4082  -14.8096  -16.9223 C   0  0  0  0  0  0  0  0  0  0  0  0
   16.6258  -12.6965  -15.5803 C   0  0  2  0  0  0  0  0  0  0  0  0
   15.6102  -12.0639  -16.3901 N   0  0  0  0  0  0  0  0  0  0  0  0
   17.5416  -11.6232  -15.1143 C   0  0  0  0  0  0  0  0  0  0  0  0
   18.4163  -11.9476  -14.2530 O   0  0  0  0  0  0  0  0  0  0  0  0
   17.4726  -10.2979  -15.5831 N   0  0  0  0  0  0  0  0  0  0  0  0
   18.5348   -9.3460  -15.2108 C   0  0  1  0  0  0  0  0  0  0  0  0
   19.8026   -9.9300  -15.7224 C   0  0  0  0  0  0  0  0  0  0  0  0
   21.0227   -9.1654  -15.5601 C   0  0  0  0  0  0  0  0  0  0  0  0
   21.4449   -8.7814  -14.4579 O   0  0  0  0  0  0  0  0  0  0  0  0
   18.1913   -8.0109  -15.7955 C   0  0  0  0  0  0  0  0  0  0  0  0
   17.8676   -7.9701  -17.0010 O   0  0  0  0  0  0  0  0  0  0  0  0
   21.7625   -8.8416  -16.6872 O   0  0  0  0  0  0  0  0  0  0  0  0
   18.2306   -6.8321  -15.0131 N   0  0  0  0  0  0  0  0  0  0  0  0
   17.8852   -5.5440  -15.5518 C   0  0  1  0  0  0  0  0  0  0  0  0
   16.8430   -4.9177  -14.6950 C   0  0  0  0  0  0  0  0  0  0  0  0
   16.4234   -3.5387  -15.0593 C   0  0  0  0  0  0  0  0  0  0  0  0
   15.3693   -2.9502  -14.2330 C   0  0  0  0  0  0  0  0  0  0  0  0
   14.9019   -3.5406  -13.2498 O   0  0  0  0  0  0  0  0  0  0  0  0
   19.1358   -4.7255  -15.6366 C   0  0  0  0  0  0  0  0  0  0  0  0
   20.3247   -5.1959  -15.0716 O   0  0  0  0  0  0  0  0  0  0  0  0
   14.8655   -1.6778  -14.5564 O   0  0  0  0  0  0  0  0  0  0  0  0
   19.1352   -3.6230  -16.2062 O   0  0  0  0  0  0  0  0  0  0  0  0
  2  1  1  6
  3  2  1  0
  4  2  1  0
  4  5  1  6
  6  7  2  0
  6  4  1  0
  8  6  1  0
  9 13  1  0
  9  8  1  0
  9 10  1  6
 11 12  2  0
 11 10  1  0
 13 16  1  0
 14 13  2  0
 15 11  1  0
 16 17  1  0
 17 22  1  0
 18 19  1  0
 17 18  1  1
 19 20  1  0
 20 21  2  0
 20 24  1  0
 22 25  2  0
 22 23  1  0
M  END
$$$$
