VDE.pdb
     RDKit          3D

 25 24  0  0  1  0  0  0  0  0999 V2000
   17.4522  -11.3120  -16.6607 C   0  0  0  0  0  0  0  0  0  0  0  0
   17.7844   -9.8503  -16.3781 C   0  0  2  0  0  0  0  0  0  0  0  0
   18.7350   -9.3303  -17.4343 C   0  0  0  0  0  0  0  0  0  0  0  0
   18.3588   -9.7792  -14.9909 C   0  0  2  0  0  0  0  0  0  0  0  0
   17.4342  -10.2448  -13.9830 N   0  0  0  0  0  0  0  0  0  0  0  0
   18.7590   -8.3998  -14.6100 C   0  0  0  0  0  0  0  0  0  0  0  0
   17.8236   -7.5713  -14.3851 O   0  0  0  0  0  0  0  0  0  0  0  0
   20.1019   -7.9943  -14.4940 N   0  0  0  0  0  0  0  0  0  0  0  0
   20.4061   -6.5747  -14.2395 C   0  0  1  0  0  0  0  0  0  0  0  0
   21.5859   -6.5669  -13.3349 C   0  0  0  0  0  0  0  0  0  0  0  0
   22.0766   -5.2884  -12.8613 C   0  0  0  0  0  0  0  0  0  0  0  0
   23.0078   -5.1745  -12.0487 O   0  0  0  0  0  0  0  0  0  0  0  0
   20.6359   -5.9027  -15.5578 C   0  0  0  0  0  0  0  0  0  0  0  0
   21.3504   -6.4934  -16.3947 O   0  0  0  0  0  0  0  0  0  0  0  0
   21.4821   -4.1284  -13.3341 O   0  0  0  0  0  0  0  0  0  0  0  0
   20.0653   -4.6410  -15.8507 N   0  0  0  0  0  0  0  0  0  0  0  0
   20.2616   -3.9876  -17.1169 C   0  0  1  0  0  0  0  0  0  0  0  0
   19.2936   -4.5337  -18.1056 C   0  0  0  0  0  0  0  0  0  0  0  0
   19.3135   -3.9245  -19.4617 C   0  0  0  0  0  0  0  0  0  0  0  0
   18.3617   -4.4762  -20.4261 C   0  0  0  0  0  0  0  0  0  0  0  0
   17.5626   -5.3708  -20.1186 O   0  0  0  0  0  0  0  0  0  0  0  0
   20.1080   -2.5133  -16.9075 C   0  0  0  0  0  0  0  0  0  0  0  0
   20.7763   -1.6107  -17.7398 O   0  0  0  0  0  0  0  0  0  0  0  0
   18.3463   -3.9830  -21.7429 O   0  0  0  0  0  0  0  0  0  0  0  0
   19.3895   -2.0731  -15.9965 O   0  0  0  0  0  0  0  0  0  0  0  0
  2  1  1  6
  3  2  1  0
  4  2  1  0
  4  5  1  1
  6  7  2  0
  6  4  1  0
  8  6  1  0
  9 13  1  0
  9  8  1  0
  9 10  1  1
 11 12  2  0
 11 10  1  0
 13 16  1  0
 14 13  2  0
 15 11  1  0
 16 17  1  0
 17 22  1  0
 18 19  1  0
 17 18  1  6
 19 20  1  0
 20 21  2  0
 20 24  1  0
 22 25  2  0
 22 23  1  0
M  END
$$$$
