VDE.pdb
     RDKit          3D

 25 24  0  0  1  0  0  0  0  0999 V2000
   18.0546  -12.7621  -17.0994 C   0  0  0  0  0  0  0  0  0  0  0  0
   19.1932  -12.7164  -18.1135 C   0  0  2  0  0  0  0  0  0  0  0  0
   19.6727  -14.1216  -18.4050 C   0  0  0  0  0  0  0  0  0  0  0  0
   20.2713  -11.8395  -17.5407 C   0  0  2  0  0  0  0  0  0  0  0  0
   20.9365  -12.4449  -16.4099 N   0  0  0  0  0  0  0  0  0  0  0  0
   19.7535  -10.5228  -17.0869 C   0  0  0  0  0  0  0  0  0  0  0  0
   19.3234   -9.7340  -17.9840 O   0  0  0  0  0  0  0  0  0  0  0  0
   19.7254  -10.1335  -15.7346 N   0  0  0  0  0  0  0  0  0  0  0  0
   19.3161   -8.7603  -15.3887 C   0  0  1  0  0  0  0  0  0  0  0  0
   18.0998   -8.8982  -14.5450 C   0  0  0  0  0  0  0  0  0  0  0  0
   17.4713   -7.6910  -14.0479 C   0  0  0  0  0  0  0  0  0  0  0  0
   18.1063   -6.6718  -13.7340 O   0  0  0  0  0  0  0  0  0  0  0  0
   20.4667   -8.0880  -14.7059 C   0  0  0  0  0  0  0  0  0  0  0  0
   21.1203   -8.7545  -13.8762 O   0  0  0  0  0  0  0  0  0  0  0  0
   16.0916   -7.6636  -13.9127 O   0  0  0  0  0  0  0  0  0  0  0  0
   20.8065   -6.7432  -14.9874 N   0  0  0  0  0  0  0  0  0  0  0  0
   22.0040   -6.1330  -14.4754 C   0  0  1  0  0  0  0  0  0  0  0  0
   22.7541   -5.5078  -15.5975 C   0  0  0  0  0  0  0  0  0  0  0  0
   22.1894   -4.2510  -16.1559 C   0  0  0  0  0  0  0  0  0  0  0  0
   22.9189   -3.6649  -17.2806 C   0  0  0  0  0  0  0  0  0  0  0  0
   22.8816   -4.1607  -18.4147 O   0  0  0  0  0  0  0  0  0  0  0  0
   21.6085   -5.1467  -13.4209 C   0  0  0  0  0  0  0  0  0  0  0  0
   22.5395   -4.7240  -12.4677 O   0  0  0  0  0  0  0  0  0  0  0  0
   23.6876   -2.5049  -17.0779 O   0  0  0  0  0  0  0  0  0  0  0  0
   20.4543   -4.6930  -13.3772 O   0  0  0  0  0  0  0  0  0  0  0  0
  2  1  1  1
  3  2  1  0
  4  2  1  0
  4  5  1  1
  6  7  2  0
  6  4  1  0
  8  6  1  0
  9 13  1  0
  9  8  1  0
  9 10  1  1
 11 12  2  0
 11 10  1  0
 13 16  1  0
 14 13  2  0
 15 11  1  0
 16 17  1  0
 17 22  1  0
 18 19  1  0
 17 18  1  6
 19 20  1  0
 20 21  2  0
 20 24  1  0
 22 25  2  0
 22 23  1  0
M  END
$$$$
