ATI.pdb
     RDKit          3D

 21 20  0  0  1  0  0  0  0  0999 V2000
    8.5296  -12.4264   18.6138 C   0  0  0  0  0  0  0  0  0  0  0  0
    8.5943  -13.9108   18.7596 C   0  0  2  0  0  0  0  0  0  0  0  0
    8.2039  -14.5730   17.5171 N   0  0  0  0  0  0  0  0  0  0  0  0
    7.8866  -14.4682   19.9000 C   0  0  0  0  0  0  0  0  0  0  0  0
    6.6279  -14.5016   19.8870 O   0  0  0  0  0  0  0  0  0  0  0  0
    9.5391  -17.4637   21.9676 C   0  0  0  0  0  0  0  0  0  0  0  0
    8.0875  -17.0706   22.0643 C   0  0  1  0  0  0  0  0  0  0  0  0
    7.4486  -17.6672   23.1396 O   0  0  0  0  0  0  0  0  0  0  0  0
    7.9192  -15.5599   22.1860 C   0  0  2  0  0  0  0  0  0  0  0  0
    8.5713  -14.9722   21.0193 N   0  0  0  0  0  0  0  0  0  0  0  0
    8.5280  -15.0373   23.4424 C   0  0  0  0  0  0  0  0  0  0  0  0
    9.8004  -14.8884   23.4535 O   0  0  0  0  0  0  0  0  0  0  0  0
    5.5109  -12.2186   27.3142 C   0  0  0  0  0  0  0  0  0  0  0  0
    6.2401  -13.3431   26.6592 C   0  0  0  0  0  0  0  0  0  0  0  0
    7.6828  -13.0409   26.3227 C   0  0  2  0  0  0  0  0  0  0  0  0
    7.8272  -11.9232   25.3493 C   0  0  0  0  0  0  0  0  0  0  0  0
    8.3846  -14.2622   25.7736 C   0  0  2  0  0  0  0  0  0  0  0  0
    7.7426  -14.7176   24.5749 N   0  0  0  0  0  0  0  0  0  0  0  0
    8.3891  -15.3424   26.8113 C   0  0  0  0  0  0  0  0  0  0  0  0
    7.7268  -16.3943   26.5626 O   0  0  0  0  0  0  0  0  0  0  0  0
    9.0619  -15.2631   28.0056 O   0  0  0  0  0  0  0  0  0  0  0  0
  2  4  1  0
  2  3  1  0
  2  1  1  6
  4  5  2  0
  7  6  1  1
  7  9  1  0
  8  7  1  0
  9 11  1  0
  9 10  1  6
 10  4  1  0
 11 18  1  0
 11 12  2  0
 13 14  1  0
 14 15  1  0
 15 16  1  6
 17 15  1  0
 17 18  1  6
 19 17  1  0
 19 21  1  0
 20 19  2  0
M  END
$$$$
