ATI.pdb
     RDKit          3D

 21 20  0  0  1  0  0  0  0  0999 V2000
    8.4130  -12.3333   19.3363 C   0  0  0  0  0  0  0  0  0  0  0  0
    8.3196  -13.8169   19.1985 C   0  0  2  0  0  0  0  0  0  0  0  0
    7.4896  -14.1816   18.0528 N   0  0  0  0  0  0  0  0  0  0  0  0
    7.9189  -14.5415   20.3928 C   0  0  0  0  0  0  0  0  0  0  0  0
    6.6965  -14.6177   20.6856 O   0  0  0  0  0  0  0  0  0  0  0  0
    8.9800  -18.2115   23.4121 C   0  0  0  0  0  0  0  0  0  0  0  0
    9.1880  -17.3178   22.2168 C   0  0  1  0  0  0  0  0  0  0  0  0
    8.7078  -17.8811   21.0453 O   0  0  0  0  0  0  0  0  0  0  0  0
    8.5188  -15.9604   22.4042 C   0  0  2  0  0  0  0  0  0  0  0  0
    8.8615  -15.1609   21.2315 N   0  0  0  0  0  0  0  0  0  0  0  0
    8.9823  -15.2851   23.6497 C   0  0  0  0  0  0  0  0  0  0  0  0
   10.1938  -14.8689   23.6687 O   0  0  0  0  0  0  0  0  0  0  0  0
    5.8190  -11.9071   26.1602 C   0  0  0  0  0  0  0  0  0  0  0  0
    6.9665  -12.6940   25.6224 C   0  0  0  0  0  0  0  0  0  0  0  0
    7.5957  -13.6421   26.6180 C   0  0  2  0  0  0  0  0  0  0  0  0
    8.2096  -12.9381   27.7778 C   0  0  0  0  0  0  0  0  0  0  0  0
    8.6450  -14.5098   25.9607 C   0  0  2  0  0  0  0  0  0  0  0  0
    8.1287  -15.1077   24.7638 N   0  0  0  0  0  0  0  0  0  0  0  0
    9.0938  -15.5646   26.9248 C   0  0  0  0  0  0  0  0  0  0  0  0
    9.8911  -15.2131   27.8457 O   0  0  0  0  0  0  0  0  0  0  0  0
    8.6971  -16.8780   26.8725 O   0  0  0  0  0  0  0  0  0  0  0  0
  2  4  1  0
  2  3  1  0
  2  1  1  1
  4  5  2  0
  7  6  1  1
  7  9  1  0
  8  7  1  0
  9 11  1  0
  9 10  1  6
 10  4  1  0
 11 18  1  0
 11 12  2  0
 13 14  1  0
 14 15  1  0
 15 16  1  1
 17 15  1  0
 17 18  1  6
 19 17  1  0
 19 21  1  0
 20 19  2  0
M  END
$$$$
