ATI.pdb
     RDKit          3D

 21 20  0  0  1  0  0  0  0  0999 V2000
    8.6039  -12.4591   18.9500 C   0  0  0  0  0  0  0  0  0  0  0  0
    8.5143  -13.9487   18.9088 C   0  0  2  0  0  0  0  0  0  0  0  0
    7.8867  -14.3979   17.6684 N   0  0  0  0  0  0  0  0  0  0  0  0
    7.9056  -14.5805   20.0675 C   0  0  0  0  0  0  0  0  0  0  0  0
    6.6943  -14.9211   20.0176 O   0  0  0  0  0  0  0  0  0  0  0  0
    7.8949  -17.5680   20.7560 C   0  0  0  0  0  0  0  0  0  0  0  0
    8.5546  -17.0846   22.0217 C   0  0  1  0  0  0  0  0  0  0  0  0
    9.9373  -17.1512   21.9561 O   0  0  0  0  0  0  0  0  0  0  0  0
    8.1600  -15.6488   22.3506 C   0  0  2  0  0  0  0  0  0  0  0  0
    8.6345  -14.8220   21.2447 N   0  0  0  0  0  0  0  0  0  0  0  0
    8.7600  -15.1937   23.6371 C   0  0  0  0  0  0  0  0  0  0  0  0
   10.0104  -14.9152   23.6289 O   0  0  0  0  0  0  0  0  0  0  0  0
    5.9684  -11.8035   26.5146 C   0  0  0  0  0  0  0  0  0  0  0  0
    6.9921  -12.6646   25.8545 C   0  0  0  0  0  0  0  0  0  0  0  0
    7.6391  -13.6798   26.7692 C   0  0  2  0  0  0  0  0  0  0  0  0
    8.3588  -13.0519   27.9118 C   0  0  0  0  0  0  0  0  0  0  0  0
    8.6020  -14.5652   26.0111 C   0  0  2  0  0  0  0  0  0  0  0  0
    7.9896  -15.0718   24.8175 N   0  0  0  0  0  0  0  0  0  0  0  0
    9.0438  -15.6911   26.8948 C   0  0  0  0  0  0  0  0  0  0  0  0
    8.3655  -16.7615   26.8605 O   0  0  0  0  0  0  0  0  0  0  0  0
   10.1303  -15.6347   27.7324 O   0  0  0  0  0  0  0  0  0  0  0  0
  2  4  1  0
  2  3  1  0
  2  1  1  1
  4  5  2  0
  7  6  1  6
  7  9  1  0
  8  7  1  0
  9 11  1  0
  9 10  1  6
 10  4  1  0
 11 18  1  0
 11 12  2  0
 13 14  1  0
 14 15  1  0
 15 16  1  1
 17 15  1  0
 17 18  1  6
 19 17  1  0
 19 21  1  0
 20 19  2  0
M  END
$$$$
