ATI.pdb
     RDKit          3D

 21 20  0  0  1  0  0  0  0  0999 V2000
    8.1746  -12.3883   19.1766 C   0  0  0  0  0  0  0  0  0  0  0  0
    8.4990  -13.8403   19.0527 C   0  0  2  0  0  0  0  0  0  0  0  0
    8.1335  -14.3440   17.7309 N   0  0  0  0  0  0  0  0  0  0  0  0
    7.9828  -14.6983   20.1060 C   0  0  0  0  0  0  0  0  0  0  0  0
    7.0584  -15.5111   19.8403 O   0  0  0  0  0  0  0  0  0  0  0  0
    7.8790  -17.3653   20.7487 C   0  0  0  0  0  0  0  0  0  0  0  0
    8.5478  -16.9563   22.0357 C   0  0  1  0  0  0  0  0  0  0  0  0
    9.9302  -16.9649   21.9394 O   0  0  0  0  0  0  0  0  0  0  0  0
    8.1081  -15.5662   22.4829 C   0  0  2  0  0  0  0  0  0  0  0  0
    8.4890  -14.6450   21.4162 N   0  0  0  0  0  0  0  0  0  0  0  0
    8.7526  -15.1716   23.7679 C   0  0  0  0  0  0  0  0  0  0  0  0
    9.9919  -14.8503   23.7219 O   0  0  0  0  0  0  0  0  0  0  0  0
    6.0321  -11.8158   26.4841 C   0  0  0  0  0  0  0  0  0  0  0  0
    7.1242  -12.6530   25.9081 C   0  0  0  0  0  0  0  0  0  0  0  0
    7.7137  -13.6598   26.8698 C   0  0  2  0  0  0  0  0  0  0  0  0
    8.4376  -13.0207   28.0034 C   0  0  0  0  0  0  0  0  0  0  0  0
    8.6536  -14.6088   26.1614 C   0  0  2  0  0  0  0  0  0  0  0  0
    8.0344  -15.1500   24.9866 N   0  0  0  0  0  0  0  0  0  0  0  0
    9.0527  -15.7064   27.0994 C   0  0  0  0  0  0  0  0  0  0  0  0
    9.7734  -15.3919   28.0938 O   0  0  0  0  0  0  0  0  0  0  0  0
    8.6880  -17.0215   26.9489 O   0  0  0  0  0  0  0  0  0  0  0  0
  2  4  1  0
  2  3  1  0
  2  1  1  1
  4  5  2  0
  7  6  1  6
  7  9  1  0
  8  7  1  0
  9 11  1  0
  9 10  1  6
 10  4  1  0
 11 18  1  0
 11 12  2  0
 13 14  1  0
 14 15  1  0
 15 16  1  1
 17 15  1  0
 17 18  1  6
 19 17  1  0
 19 21  1  0
 20 19  2  0
M  END
$$$$
