ATI.pdb
     RDKit          3D

 21 20  0  0  1  0  0  0  0  0999 V2000
    9.2633  -20.3936   22.8600 C   0  0  0  0  0  0  0  0  0  0  0  0
    9.0812  -19.2642   21.9008 C   0  0  2  0  0  0  0  0  0  0  0  0
    9.8066  -19.5155   20.6578 N   0  0  0  0  0  0  0  0  0  0  0  0
    9.3675  -17.9375   22.4203 C   0  0  0  0  0  0  0  0  0  0  0  0
   10.4591  -17.7308   23.0131 O   0  0  0  0  0  0  0  0  0  0  0  0
    6.7829  -14.7016   21.3351 C   0  0  0  0  0  0  0  0  0  0  0  0
    8.2640  -14.5921   21.5905 C   0  0  1  0  0  0  0  0  0  0  0  0
    8.6532  -13.2985   21.8995 O   0  0  0  0  0  0  0  0  0  0  0  0
    8.7103  -15.5096   22.7238 C   0  0  2  0  0  0  0  0  0  0  0  0
    8.4564  -16.8767   22.2784 N   0  0  0  0  0  0  0  0  0  0  0  0
    7.9697  -15.2260   23.9860 C   0  0  0  0  0  0  0  0  0  0  0  0
    6.8572  -15.8379   24.1571 O   0  0  0  0  0  0  0  0  0  0  0  0
   10.5963  -13.5592   28.6645 C   0  0  0  0  0  0  0  0  0  0  0  0
    9.6585  -14.2489   27.7317 C   0  0  0  0  0  0  0  0  0  0  0  0
    8.5639  -13.3646   27.1786 C   0  0  2  0  0  0  0  0  0  0  0  0
    7.6707  -12.8197   28.2382 C   0  0  0  0  0  0  0  0  0  0  0  0
    7.7234  -14.1040   26.1623 C   0  0  2  0  0  0  0  0  0  0  0  0
    8.4668  -14.3239   24.9559 N   0  0  0  0  0  0  0  0  0  0  0  0
    6.4800  -13.3184   25.8787 C   0  0  0  0  0  0  0  0  0  0  0  0
    6.4978  -12.5363   24.8812 O   0  0  0  0  0  0  0  0  0  0  0  0
    5.3313  -13.3938   26.6272 O   0  0  0  0  0  0  0  0  0  0  0  0
  2  4  1  0
  2  3  1  0
  2  1  1  1
  4  5  2  0
  7  6  1  1
  7  9  1  0
  8  7  1  0
  9 11  1  0
  9 10  1  6
 10  4  1  0
 11 18  1  0
 11 12  2  0
 13 14  1  0
 14 15  1  0
 15 16  1  1
 17 15  1  0
 17 18  1  6
 19 17  1  0
 19 21  1  0
 20 19  2  0
M  END
$$$$
