ATI.pdb
     RDKit          3D

 21 20  0  0  1  0  0  0  0  0999 V2000
    8.6191  -12.1639   18.8622 C   0  0  0  0  0  0  0  0  0  0  0  0
    8.5721  -13.6474   18.7017 C   0  0  2  0  0  0  0  0  0  0  0  0
    8.0509  -14.0121   17.3865 N   0  0  0  0  0  0  0  0  0  0  0  0
    7.8953  -14.3793   19.7593 C   0  0  0  0  0  0  0  0  0  0  0  0
    6.6366  -14.4083   19.7798 O   0  0  0  0  0  0  0  0  0  0  0  0
    7.7422  -17.7694   20.4125 C   0  0  0  0  0  0  0  0  0  0  0  0
    8.3020  -17.2352   21.7055 C   0  0  1  0  0  0  0  0  0  0  0  0
    9.6743  -17.4050   21.7980 O   0  0  0  0  0  0  0  0  0  0  0  0
    7.9902  -15.7534   21.8857 C   0  0  2  0  0  0  0  0  0  0  0  0
    8.6101  -15.0571   20.7620 N   0  0  0  0  0  0  0  0  0  0  0  0
    8.5194  -15.2325   23.1783 C   0  0  0  0  0  0  0  0  0  0  0  0
    9.4840  -14.3918   23.1149 O   0  0  0  0  0  0  0  0  0  0  0  0
    7.1977  -11.7361   27.3517 C   0  0  0  0  0  0  0  0  0  0  0  0
    8.0009  -12.9576   27.0547 C   0  0  0  0  0  0  0  0  0  0  0  0
    7.5295  -13.7380   25.8486 C   0  0  2  0  0  0  0  0  0  0  0  0
    6.1042  -14.1568   25.9525 C   0  0  0  0  0  0  0  0  0  0  0  0
    8.3847  -14.9638   25.6207 C   0  0  2  0  0  0  0  0  0  0  0  0
    7.9853  -15.6428   24.4225 N   0  0  0  0  0  0  0  0  0  0  0  0
    8.2736  -15.8751   26.8043 C   0  0  0  0  0  0  0  0  0  0  0  0
    7.4253  -16.8151   26.7402 O   0  0  0  0  0  0  0  0  0  0  0  0
    9.0288  -15.7554   27.9447 O   0  0  0  0  0  0  0  0  0  0  0  0
  2  4  1  0
  2  3  1  0
  2  1  1  1
  4  5  2  0
  7  6  1  6
  7  9  1  0
  8  7  1  0
  9 11  1  0
  9 10  1  6
 10  4  1  0
 11 18  1  0
 11 12  2  0
 13 14  1  0
 14 15  1  0
 15 16  1  1
 17 15  1  0
 17 18  1  6
 19 17  1  0
 19 21  1  0
 20 19  2  0
M  END
$$$$
