ATI.pdb
     RDKit          3D

 21 20  0  0  1  0  0  0  0  0999 V2000
   10.3859  -17.3830   18.1219 C   0  0  0  0  0  0  0  0  0  0  0  0
   10.5493  -17.3936   19.6058 C   0  0  2  0  0  0  0  0  0  0  0  0
   10.5151  -18.7595   20.1231 N   0  0  0  0  0  0  0  0  0  0  0  0
    9.6526  -16.5247   20.3495 C   0  0  0  0  0  0  0  0  0  0  0  0
    9.5515  -15.3144   20.0165 O   0  0  0  0  0  0  0  0  0  0  0  0
    6.0159  -17.6782   21.1093 C   0  0  0  0  0  0  0  0  0  0  0  0
    6.7053  -17.2342   22.3735 C   0  0  1  0  0  0  0  0  0  0  0  0
    7.2348  -18.2967   23.0884 O   0  0  0  0  0  0  0  0  0  0  0  0
    7.8288  -16.2442   22.0855 C   0  0  2  0  0  0  0  0  0  0  0  0
    8.8938  -17.0002   21.4328 N   0  0  0  0  0  0  0  0  0  0  0  0
    8.3328  -15.6046   23.3341 C   0  0  0  0  0  0  0  0  0  0  0  0
    9.4996  -15.9507   23.7343 O   0  0  0  0  0  0  0  0  0  0  0  0
    7.1448  -10.9647   27.3041 C   0  0  0  0  0  0  0  0  0  0  0  0
    7.8436  -12.2187   26.8986 C   0  0  0  0  0  0  0  0  0  0  0  0
    7.2402  -12.9102   25.6971 C   0  0  2  0  0  0  0  0  0  0  0  0
    5.8590  -13.4065   25.9495 C   0  0  0  0  0  0  0  0  0  0  0  0
    8.1005  -14.0669   25.2413 C   0  0  2  0  0  0  0  0  0  0  0  0
    7.5636  -14.6571   24.0497 N   0  0  0  0  0  0  0  0  0  0  0  0
    8.1897  -15.0832   26.3381 C   0  0  0  0  0  0  0  0  0  0  0  0
    8.9615  -14.8270   27.3106 O   0  0  0  0  0  0  0  0  0  0  0  0
    7.4916  -16.2654   26.3541 O   0  0  0  0  0  0  0  0  0  0  0  0
  2  4  1  0
  2  3  1  0
  2  1  1  6
  4  5  2  0
  7  6  1  6
  7  9  1  0
  8  7  1  0
  9 11  1  0
  9 10  1  1
 10  4  1  0
 11 18  1  0
 11 12  2  0
 13 14  1  0
 14 15  1  0
 15 16  1  1
 17 15  1  0
 17 18  1  6
 19 17  1  0
 19 21  1  0
 20 19  2  0
M  END
$$$$
