ATI.pdb
     RDKit          3D

 21 20  0  0  1  0  0  0  0  0999 V2000
    8.7350  -12.3660   18.8309 C   0  0  0  0  0  0  0  0  0  0  0  0
    8.6599  -13.8568   18.8027 C   0  0  2  0  0  0  0  0  0  0  0  0
    8.1424  -14.3274   17.5201 N   0  0  0  0  0  0  0  0  0  0  0  0
    7.9602  -14.4784   19.9145 C   0  0  0  0  0  0  0  0  0  0  0  0
    6.7058  -14.5809   19.8725 O   0  0  0  0  0  0  0  0  0  0  0  0
    7.6773  -17.6591   20.6993 C   0  0  0  0  0  0  0  0  0  0  0  0
    8.2751  -17.1376   21.9805 C   0  0  1  0  0  0  0  0  0  0  0  0
    9.6435  -17.3458   22.0489 O   0  0  0  0  0  0  0  0  0  0  0  0
    8.0084  -15.6472   22.1618 C   0  0  2  0  0  0  0  0  0  0  0  0
    8.6479  -14.9693   21.0379 N   0  0  0  0  0  0  0  0  0  0  0  0
    8.5545  -15.1432   23.4541 C   0  0  0  0  0  0  0  0  0  0  0  0
    9.7926  -14.8147   23.4733 O   0  0  0  0  0  0  0  0  0  0  0  0
    5.6157  -11.8745   26.4222 C   0  0  0  0  0  0  0  0  0  0  0  0
    6.6942  -12.6553   25.7497 C   0  0  0  0  0  0  0  0  0  0  0  0
    7.3168  -13.7312   26.6105 C   0  0  2  0  0  0  0  0  0  0  0  0
    7.9758  -13.1863   27.8297 C   0  0  0  0  0  0  0  0  0  0  0  0
    8.3258  -14.5421   25.8295 C   0  0  2  0  0  0  0  0  0  0  0  0
    7.7479  -15.0296   24.6109 N   0  0  0  0  0  0  0  0  0  0  0  0
    8.8109  -15.6800   26.6742 C   0  0  0  0  0  0  0  0  0  0  0  0
    8.2001  -16.7862   26.5708 O   0  0  0  0  0  0  0  0  0  0  0  0
    9.8684  -15.5986   27.5461 O   0  0  0  0  0  0  0  0  0  0  0  0
  2  4  1  0
  2  3  1  0
  2  1  1  6
  4  5  2  0
  7  6  1  6
  7  9  1  0
  8  7  1  0
  9 11  1  0
  9 10  1  6
 10  4  1  0
 11 18  1  0
 11 12  2  0
 13 14  1  0
 14 15  1  0
 15 16  1  1
 17 15  1  0
 17 18  1  6
 19 17  1  0
 19 21  1  0
 20 19  2  0
M  END
$$$$
