ANG.pdb
     RDKit          3D

 18 17  0  0  1  0  0  0  0  0999 V2000
   20.0521  -12.2636  -17.8754 C   0  0  0  0  0  0  0  0  0  0  0  0
   20.5176  -11.3466  -16.7541 C   0  0  2  0  0  0  0  0  0  0  0  0
   19.3431  -10.6653  -16.2494 N   0  0  0  0  0  0  0  0  0  0  0  0
   21.4756  -10.3829  -17.3674 C   0  0  0  0  0  0  0  0  0  0  0  0
   22.6011  -10.7676  -17.8090 O   0  0  0  0  0  0  0  0  0  0  0  0
   19.4678   -7.4055  -20.8019 N   0  0  0  0  0  0  0  0  0  0  0  0
   20.6993   -7.7298  -20.1981 C   0  0  0  0  0  0  0  0  0  0  0  0
   21.4672   -8.5232  -20.7956 O   0  0  0  0  0  0  0  0  0  0  0  0
   21.0324   -7.1238  -18.8918 C   0  0  0  0  0  0  0  0  0  0  0  0
   21.9221   -8.0174  -18.0406 C   0  0  2  0  0  0  0  0  0  0  0  0
   21.0758   -9.0215  -17.4360 N   0  0  0  0  0  0  0  0  0  0  0  0
   22.4589   -7.1545  -16.9644 C   0  0  0  0  0  0  0  0  0  0  0  0
   23.2175   -6.2045  -17.2807 O   0  0  0  0  0  0  0  0  0  0  0  0
   22.1273   -7.3881  -15.5870 N   0  0  0  0  0  0  0  0  0  0  0  0
   22.7049   -6.4745  -14.6226 C   0  0  0  0  0  0  0  0  0  0  0  0
   21.7217   -5.4005  -14.3544 C   0  0  0  0  0  0  0  0  0  0  0  0
   21.9777   -4.5847  -13.4276 O   0  0  0  0  0  0  0  0  0  0  0  0
   20.5472   -5.2299  -15.0462 O   0  0  0  0  0  0  0  0  0  0  0  0
  2  1  1  6
  2  3  1  0
  4  5  2  0
  4  2  1  0
  6  7  1  0
  7  8  2  0
  9  7  1  0
 10  9  1  6
 10 11  1  0
 11  4  1  0
 12 10  1  0
 12 14  1  0
 13 12  2  0
 15 14  1  0
 15 16  1  0
 16 17  2  0
 16 18  1  0
M  END
$$$$
