ANG.pdb
     RDKit          3D

 18 17  0  0  1  0  0  0  0  0999 V2000
   19.0872  -11.8778  -17.0936 C   0  0  0  0  0  0  0  0  0  0  0  0
   18.9769  -10.9019  -15.9315 C   0  0  2  0  0  0  0  0  0  0  0  0
   18.0264   -9.8818  -16.3243 N   0  0  0  0  0  0  0  0  0  0  0  0
   20.3367  -10.3226  -15.7366 C   0  0  0  0  0  0  0  0  0  0  0  0
   21.3024  -11.0376  -15.3291 O   0  0  0  0  0  0  0  0  0  0  0  0
   24.1806   -6.5401  -18.1360 N   0  0  0  0  0  0  0  0  0  0  0  0
   23.6626   -7.2370  -17.0260 C   0  0  0  0  0  0  0  0  0  0  0  0
   24.3645   -7.3136  -15.9879 O   0  0  0  0  0  0  0  0  0  0  0  0
   22.3199   -7.8456  -17.1317 C   0  0  0  0  0  0  0  0  0  0  0  0
   21.7595   -8.2679  -15.7817 C   0  0  2  0  0  0  0  0  0  0  0  0
   20.5040   -8.9418  -16.0255 N   0  0  0  0  0  0  0  0  0  0  0  0
   21.4777   -7.0150  -15.0455 C   0  0  0  0  0  0  0  0  0  0  0  0
   20.5182   -6.2994  -15.4263 O   0  0  0  0  0  0  0  0  0  0  0  0
   22.2760   -6.6165  -13.9205 N   0  0  0  0  0  0  0  0  0  0  0  0
   21.8476   -5.4242  -13.2181 C   0  0  0  0  0  0  0  0  0  0  0  0
   22.0882   -4.2567  -14.0963 C   0  0  0  0  0  0  0  0  0  0  0  0
   21.1587   -3.4144  -14.2254 O   0  0  0  0  0  0  0  0  0  0  0  0
   23.2559   -4.0260  -14.7821 O   0  0  0  0  0  0  0  0  0  0  0  0
  2  1  1  6
  2  3  1  0
  4  5  2  0
  4  2  1  0
  6  7  1  0
  7  8  2  0
  9  7  1  0
 10  9  1  6
 10 11  1  0
 11  4  1  0
 12 10  1  0
 12 14  1  0
 13 12  2  0
 15 14  1  0
 15 16  1  0
 16 17  2  0
 16 18  1  0
M  END
$$$$
