ANG.pdb
     RDKit          3D

 18 17  0  0  1  0  0  0  0  0999 V2000
   18.5582  -11.8071  -16.3227 C   0  0  0  0  0  0  0  0  0  0  0  0
   17.9597  -10.4602  -16.7004 C   0  0  2  0  0  0  0  0  0  0  0  0
   18.5621  -10.0671  -17.9578 N   0  0  0  0  0  0  0  0  0  0  0  0
   18.3283   -9.5138  -15.6090 C   0  0  0  0  0  0  0  0  0  0  0  0
   17.9146   -9.6875  -14.4223 O   0  0  0  0  0  0  0  0  0  0  0  0
   22.4509   -5.1807  -14.7372 N   0  0  0  0  0  0  0  0  0  0  0  0
   21.6933   -6.2687  -14.2593 C   0  0  0  0  0  0  0  0  0  0  0  0
   21.5590   -6.4042  -13.0184 O   0  0  0  0  0  0  0  0  0  0  0  0
   21.0916   -7.2002  -15.2365 C   0  0  0  0  0  0  0  0  0  0  0  0
   19.6226   -7.4782  -14.9540 C   0  0  2  0  0  0  0  0  0  0  0  0
   19.1589   -8.4141  -15.9535 N   0  0  0  0  0  0  0  0  0  0  0  0
   18.9163   -6.1936  -15.1587 C   0  0  0  0  0  0  0  0  0  0  0  0
   19.2201   -5.2196  -14.4259 O   0  0  0  0  0  0  0  0  0  0  0  0
   17.9053   -6.0520  -16.1683 N   0  0  0  0  0  0  0  0  0  0  0  0
   17.2473   -4.7637  -16.2434 C   0  0  0  0  0  0  0  0  0  0  0  0
   16.0273   -4.8163  -15.4062 C   0  0  0  0  0  0  0  0  0  0  0  0
   15.7541   -5.9041  -14.8300 O   0  0  0  0  0  0  0  0  0  0  0  0
   15.1699   -3.7606  -15.2127 O   0  0  0  0  0  0  0  0  0  0  0  0
  2  1  1  1
  2  3  1  0
  4  5  2  0
  4  2  1  0
  6  7  1  0
  7  8  2  0
  9  7  1  0
 10  9  1  6
 10 11  1  0
 11  4  1  0
 12 10  1  0
 12 14  1  0
 13 12  2  0
 15 14  1  0
 15 16  1  0
 16 17  2  0
 16 18  1  0
M  END
$$$$
