ANG.pdb
     RDKit          3D

 18 17  0  0  1  0  0  0  0  0999 V2000
   24.8839  -20.6810   -9.7290 C   0  0  0  0  0  0  0  0  0  0  0  0
   25.3808  -21.4726  -10.9296 C   0  0  2  0  0  0  0  0  0  0  0  0
   26.7666  -21.1043  -11.1352 N   0  0  0  0  0  0  0  0  0  0  0  0
   24.5373  -21.0577  -12.0868 C   0  0  0  0  0  0  0  0  0  0  0  0
   24.7816  -19.9903  -12.7277 O   0  0  0  0  0  0  0  0  0  0  0  0
   24.7171  -24.4392  -14.8646 N   0  0  0  0  0  0  0  0  0  0  0  0
   24.0872  -23.1942  -15.0632 C   0  0  0  0  0  0  0  0  0  0  0  0
   24.6850  -22.3237  -15.7422 O   0  0  0  0  0  0  0  0  0  0  0  0
   22.7545  -22.9681  -14.4655 C   0  0  0  0  0  0  0  0  0  0  0  0
   22.6886  -21.6873  -13.6469 C   0  0  2  0  0  0  0  0  0  0  0  0
   23.4531  -21.9052  -12.4395 N   0  0  0  0  0  0  0  0  0  0  0  0
   21.2674  -21.5146  -13.2709 C   0  0  0  0  0  0  0  0  0  0  0  0
   20.7962  -22.2408  -12.3608 O   0  0  0  0  0  0  0  0  0  0  0  0
   20.4368  -20.5427  -13.9244 N   0  0  0  0  0  0  0  0  0  0  0  0
   19.0719  -20.4401  -13.4500 C   0  0  0  0  0  0  0  0  0  0  0  0
   18.3866  -19.3867  -14.2329 C   0  0  0  0  0  0  0  0  0  0  0  0
   19.0503  -18.7864  -15.1212 O   0  0  0  0  0  0  0  0  0  0  0  0
   17.0752  -19.0165  -14.0590 O   0  0  0  0  0  0  0  0  0  0  0  0
  2  1  1  1
  2  3  1  0
  4  5  2  0
  4  2  1  0
  6  7  1  0
  7  8  2  0
  9  7  1  0
 10  9  1  6
 10 11  1  0
 11  4  1  0
 12 10  1  0
 12 14  1  0
 13 12  2  0
 15 14  1  0
 15 16  1  0
 16 17  2  0
 16 18  1  0
M  END
$$$$
