ANG.pdb
     RDKit          3D

 18 17  0  0  1  0  0  0  0  0999 V2000
   12.6573  -10.4401  -10.3428 C   0  0  0  0  0  0  0  0  0  0  0  0
   14.0914  -10.2255  -10.8036 C   0  0  2  0  0  0  0  0  0  0  0  0
   14.9366  -11.0303   -9.9454 N   0  0  0  0  0  0  0  0  0  0  0  0
   14.3774   -8.7727  -10.6296 C   0  0  0  0  0  0  0  0  0  0  0  0
   13.7710   -7.8972  -11.3192 O   0  0  0  0  0  0  0  0  0  0  0  0
   14.3638   -4.5350   -7.5040 N   0  0  0  0  0  0  0  0  0  0  0  0
   14.2734   -5.8996   -7.8446 C   0  0  0  0  0  0  0  0  0  0  0  0
   13.1332   -6.4084   -7.9757 O   0  0  0  0  0  0  0  0  0  0  0  0
   15.5207   -6.6699   -8.0321 C   0  0  0  0  0  0  0  0  0  0  0  0
   15.7691   -7.0388   -9.4871 C   0  0  2  0  0  0  0  0  0  0  0  0
   15.3539   -8.4124   -9.6627 N   0  0  0  0  0  0  0  0  0  0  0  0
   17.2347   -6.9690   -9.6826 C   0  0  0  0  0  0  0  0  0  0  0  0
   17.9823   -7.3661   -8.7545 O   0  0  0  0  0  0  0  0  0  0  0  0
   17.8003   -6.4609  -10.9006 N   0  0  0  0  0  0  0  0  0  0  0  0
   19.2457   -6.3807  -10.9540 C   0  0  0  0  0  0  0  0  0  0  0  0
   19.6337   -5.8856  -12.2944 C   0  0  0  0  0  0  0  0  0  0  0  0
   18.7353   -5.8032  -13.1753 O   0  0  0  0  0  0  0  0  0  0  0  0
   20.9069   -5.5088  -12.6465 O   0  0  0  0  0  0  0  0  0  0  0  0
  2  1  1  1
  2  3  1  0
  4  5  2  0
  4  2  1  0
  6  7  1  0
  7  8  2  0
  9  7  1  0
 10  9  1  1
 10 11  1  0
 11  4  1  0
 12 10  1  0
 12 14  1  0
 13 12  2  0
 15 14  1  0
 15 16  1  0
 16 17  2  0
 16 18  1  0
M  END
$$$$
