ANG.pdb
     RDKit          3D

 18 17  0  0  1  0  0  0  0  0999 V2000
   18.4816  -23.5030   -9.0470 C   0  0  0  0  0  0  0  0  0  0  0  0
   18.7889  -24.9622   -8.7449 C   0  0  2  0  0  0  0  0  0  0  0  0
   18.6829  -25.6848   -9.9959 N   0  0  0  0  0  0  0  0  0  0  0  0
   17.7554  -25.4183   -7.7720 C   0  0  0  0  0  0  0  0  0  0  0  0
   16.6498  -25.8998   -8.1664 O   0  0  0  0  0  0  0  0  0  0  0  0
   18.2388  -28.0758   -4.8042 N   0  0  0  0  0  0  0  0  0  0  0  0
   18.4725  -27.0642   -3.8512 C   0  0  0  0  0  0  0  0  0  0  0  0
   19.2064  -27.3282   -2.8673 O   0  0  0  0  0  0  0  0  0  0  0  0
   17.8457  -25.7407   -4.0506 C   0  0  0  0  0  0  0  0  0  0  0  0
   17.0964  -25.6396   -5.3709 C   0  0  2  0  0  0  0  0  0  0  0  0
   18.0604  -25.2910   -6.3903 N   0  0  0  0  0  0  0  0  0  0  0  0
   16.1521  -24.5097   -5.2201 C   0  0  0  0  0  0  0  0  0  0  0  0
   16.5938  -23.3400   -5.3403 O   0  0  0  0  0  0  0  0  0  0  0  0
   14.7612  -24.7334   -4.9429 N   0  0  0  0  0  0  0  0  0  0  0  0
   13.9146  -23.5583   -4.9118 C   0  0  0  0  0  0  0  0  0  0  0  0
   13.7139  -23.1684   -3.4975 C   0  0  0  0  0  0  0  0  0  0  0  0
   14.2585  -23.8767   -2.6077 O   0  0  0  0  0  0  0  0  0  0  0  0
   12.9743  -22.0865   -3.0858 O   0  0  0  0  0  0  0  0  0  0  0  0
  2  1  1  6
  2  3  1  0
  4  5  2  0
  4  2  1  0
  6  7  1  0
  7  8  2  0
  9  7  1  0
 10  9  1  1
 10 11  1  0
 11  4  1  0
 12 10  1  0
 12 14  1  0
 13 12  2  0
 15 14  1  0
 15 16  1  0
 16 17  2  0
 16 18  1  0
M  END
$$$$
