DSM.pdb
     RDKit          3D

 23 22  0  0  1  0  0  0  0  0999 V2000
   14.5534   -8.7185   -8.7503 N   0  0  0  0  0  0  0  0  0  0  0  0
   15.1692   -7.7131   -9.5583 C   0  0  1  0  0  0  0  0  0  0  0  0
   15.5963   -6.5325   -8.6938 C   0  0  0  0  0  0  0  0  0  0  0  0
   14.4165   -5.7530   -8.2956 C   0  0  0  0  0  0  0  0  0  0  0  0
   13.6630   -5.2718   -9.1861 O   0  0  0  0  0  0  0  0  0  0  0  0
   16.3952   -8.2276  -10.2571 C   0  0  0  0  0  0  0  0  0  0  0  0
   17.3333   -8.7410   -9.6012 O   0  0  0  0  0  0  0  0  0  0  0  0
   14.1133   -5.5349   -6.9798 O   0  0  0  0  0  0  0  0  0  0  0  0
   16.6322  -10.9481  -12.6252 O   0  0  0  0  0  0  0  0  0  0  0  0
   17.0747   -9.8498  -13.3490 C   0  0  0  0  0  0  0  0  0  0  0  0
   17.6260   -8.8087  -12.4024 C   0  0  2  0  0  0  0  0  0  0  0  0
   16.5381   -8.1540  -11.6655 N   0  0  0  0  0  0  0  0  0  0  0  0
   18.3211   -7.7690  -13.2030 C   0  0  0  0  0  0  0  0  0  0  0  0
   17.6871   -6.7177  -13.5463 O   0  0  0  0  0  0  0  0  0  0  0  0
   21.0364   -1.3744  -14.5217 C   0  0  0  0  0  0  0  0  0  0  0  0
   20.3403   -2.7774  -13.6243 S   0  0  0  0  0  0  0  0  0  0  0  0
   20.6694   -4.3398  -14.5216 C   0  0  0  0  0  0  0  0  0  0  0  0
   20.0576   -5.4899  -13.7759 C   0  0  0  0  0  0  0  0  0  0  0  0
   20.2326   -6.7973  -14.4823 C   0  0  2  0  0  0  0  0  0  0  0  0
   19.6582   -7.8411  -13.6294 N   0  0  0  0  0  0  0  0  0  0  0  0
   21.6584   -7.0981  -14.7685 C   0  0  0  0  0  0  0  0  0  0  0  0
   22.2673   -6.5218  -15.8737 O   0  0  0  0  0  0  0  0  0  0  0  0
   22.3515   -7.8532  -14.0584 O   0  0  0  0  0  0  0  0  0  0  0  0
  2  1  1  1
  3  4  1  0
  3  2  1  0
  4  8  1  0
  5  4  2  0
  6  7  2  0
  6  2  1  0
  9 10  1  0
 11 10  1  6
 11 13  1  0
 11 12  1  0
 12  6  1  0
 13 14  2  0
 16 15  1  0
 17 16  1  0
 18 17  1  0
 19 18  1  1
 20 13  1  0
 20 19  1  0
 21 22  1  0
 21 19  1  0
 23 21  2  0
M  END
$$$$
