DSM.pdb
     RDKit          3D

 23 22  0  0  1  0  0  0  0  0999 V2000
   18.0116  -12.9114  -17.9244 N   0  0  0  0  0  0  0  0  0  0  0  0
   17.8439  -12.0632  -16.7863 C   0  0  1  0  0  0  0  0  0  0  0  0
   18.3286  -12.7715  -15.5266 C   0  0  0  0  0  0  0  0  0  0  0  0
   17.4857  -13.9444  -15.2579 C   0  0  0  0  0  0  0  0  0  0  0  0
   16.2347  -13.8521  -15.3948 O   0  0  0  0  0  0  0  0  0  0  0  0
   18.6267  -10.7879  -16.9165 C   0  0  0  0  0  0  0  0  0  0  0  0
   19.7627  -10.7900  -17.4489 O   0  0  0  0  0  0  0  0  0  0  0  0
   18.0245  -15.1375  -14.8618 O   0  0  0  0  0  0  0  0  0  0  0  0
   17.4038   -7.3683  -14.9592 O   0  0  0  0  0  0  0  0  0  0  0  0
   17.9282   -7.1187  -16.2196 C   0  0  0  0  0  0  0  0  0  0  0  0
   18.8145   -8.2697  -16.6360 C   0  0  2  0  0  0  0  0  0  0  0  0
   18.1196   -9.5494  -16.4493 N   0  0  0  0  0  0  0  0  0  0  0  0
   20.0160   -8.2750  -15.7635 C   0  0  0  0  0  0  0  0  0  0  0  0
   19.9636   -8.8598  -14.6320 O   0  0  0  0  0  0  0  0  0  0  0  0
   27.4679   -9.8177  -15.0052 C   0  0  0  0  0  0  0  0  0  0  0  0
   26.0279   -9.4733  -16.0376 S   0  0  0  0  0  0  0  0  0  0  0  0
   24.7354   -8.6102  -15.0683 C   0  0  0  0  0  0  0  0  0  0  0  0
   23.4896   -8.4746  -15.8944 C   0  0  0  0  0  0  0  0  0  0  0  0
   22.3877   -7.7680  -15.1696 C   0  0  2  0  0  0  0  0  0  0  0  0
   21.2460   -7.6749  -16.0831 N   0  0  0  0  0  0  0  0  0  0  0  0
   22.7896   -6.4129  -14.7141 C   0  0  0  0  0  0  0  0  0  0  0  0
   22.4003   -5.3036  -15.4506 O   0  0  0  0  0  0  0  0  0  0  0  0
   23.4696   -6.2125  -13.6883 O   0  0  0  0  0  0  0  0  0  0  0  0
  2  1  1  6
  3  4  1  0
  3  2  1  0
  4  8  1  0
  5  4  2  0
  6  7  2  0
  6  2  1  0
  9 10  1  0
 11 10  1  1
 11 13  1  0
 11 12  1  0
 12  6  1  0
 13 14  2  0
 16 15  1  0
 17 16  1  0
 18 17  1  0
 19 18  1  6
 20 13  1  0
 20 19  1  0
 21 22  1  0
 21 19  1  0
 23 21  2  0
M  END
$$$$
