DSM.pdb
     RDKit          3D

 23 22  0  0  1  0  0  0  0  0999 V2000
   17.8037  -12.3273  -14.5182 N   0  0  0  0  0  0  0  0  0  0  0  0
   16.7999  -11.3454  -14.2513 C   0  0  1  0  0  0  0  0  0  0  0  0
   15.5454  -12.0126  -13.6993 C   0  0  0  0  0  0  0  0  0  0  0  0
   14.9331  -12.8573  -14.7336 C   0  0  0  0  0  0  0  0  0  0  0  0
   14.7286  -12.3784  -15.8830 O   0  0  0  0  0  0  0  0  0  0  0  0
   17.2575  -10.3360  -13.2375 C   0  0  0  0  0  0  0  0  0  0  0  0
   17.6411  -10.7042  -12.1012 O   0  0  0  0  0  0  0  0  0  0  0  0
   14.5781  -14.1539  -14.4812 O   0  0  0  0  0  0  0  0  0  0  0  0
   18.7634   -5.7786  -12.4589 O   0  0  0  0  0  0  0  0  0  0  0  0
   18.3786   -6.7682  -13.3527 C   0  0  0  0  0  0  0  0  0  0  0  0
   17.7996   -7.9390  -12.5926 C   0  0  2  0  0  0  0  0  0  0  0  0
   17.2735   -8.9473  -13.5211 N   0  0  0  0  0  0  0  0  0  0  0  0
   16.6669   -7.4479  -11.7676 C   0  0  0  0  0  0  0  0  0  0  0  0
   15.5209   -7.2989  -12.3057 O   0  0  0  0  0  0  0  0  0  0  0  0
   11.5863   -7.9577   -6.2601 C   0  0  0  0  0  0  0  0  0  0  0  0
   13.0099   -8.5192   -7.2174 S   0  0  0  0  0  0  0  0  0  0  0  0
   13.7628   -7.1198   -8.1280 C   0  0  0  0  0  0  0  0  0  0  0  0
   14.9986   -7.5864   -8.8409 C   0  0  0  0  0  0  0  0  0  0  0  0
   15.6049   -6.5257   -9.7045 C   0  0  2  0  0  0  0  0  0  0  0  0
   16.7463   -7.1227  -10.4027 N   0  0  0  0  0  0  0  0  0  0  0  0
   16.0462   -5.3437   -8.9212 C   0  0  0  0  0  0  0  0  0  0  0  0
   15.0957   -4.4718   -8.4104 O   0  0  0  0  0  0  0  0  0  0  0  0
   17.2446   -5.0863   -8.6925 O   0  0  0  0  0  0  0  0  0  0  0  0
  2  1  1  1
  3  4  1  0
  3  2  1  0
  4  8  1  0
  5  4  2  0
  6  7  2  0
  6  2  1  0
  9 10  1  0
 11 10  1  6
 11 13  1  0
 11 12  1  0
 12  6  1  0
 13 14  2  0
 16 15  1  0
 17 16  1  0
 18 17  1  0
 19 18  1  1
 20 13  1  0
 20 19  1  0
 21 22  1  0
 21 19  1  0
 23 21  2  0
M  END
$$$$
