DSM.pdb
     RDKit          3D

 23 22  0  0  1  0  0  0  0  0999 V2000
   13.7039   -9.7119  -11.2954 N   0  0  0  0  0  0  0  0  0  0  0  0
   15.0187   -9.5707  -10.7529 C   0  0  1  0  0  0  0  0  0  0  0  0
   15.9243  -10.6808  -11.2736 C   0  0  0  0  0  0  0  0  0  0  0  0
   15.4137  -11.9873  -10.8372 C   0  0  0  0  0  0  0  0  0  0  0  0
   14.6919  -12.0564   -9.8045 O   0  0  0  0  0  0  0  0  0  0  0  0
   15.6458   -8.2603  -11.1346 C   0  0  0  0  0  0  0  0  0  0  0  0
   15.7067   -7.9106  -12.3380 O   0  0  0  0  0  0  0  0  0  0  0  0
   15.7020  -13.1343  -11.5243 O   0  0  0  0  0  0  0  0  0  0  0  0
   17.0429   -5.7427   -8.1660 O   0  0  0  0  0  0  0  0  0  0  0  0
   16.6707   -5.1215   -9.3500 C   0  0  0  0  0  0  0  0  0  0  0  0
   16.8113   -6.0945  -10.4977 C   0  0  2  0  0  0  0  0  0  0  0  0
   16.1858   -7.3799  -10.1638 N   0  0  0  0  0  0  0  0  0  0  0  0
   18.2574   -6.3405  -10.7286 C   0  0  0  0  0  0  0  0  0  0  0  0
   18.8397   -7.2810  -10.0951 O   0  0  0  0  0  0  0  0  0  0  0  0
   22.9187  -10.3346  -14.3079 C   0  0  0  0  0  0  0  0  0  0  0  0
   21.3373   -9.6128  -13.8218 S   0  0  0  0  0  0  0  0  0  0  0  0
   21.5847   -7.9389  -13.1207 C   0  0  0  0  0  0  0  0  0  0  0  0
   20.2895   -7.4295  -12.5584 C   0  0  0  0  0  0  0  0  0  0  0  0
   20.4168   -6.0675  -11.9522 C   0  0  2  0  0  0  0  0  0  0  0  0
   19.0681   -5.6072  -11.6117 N   0  0  0  0  0  0  0  0  0  0  0  0
   21.0708   -5.1000  -12.8695 C   0  0  0  0  0  0  0  0  0  0  0  0
   22.4557   -5.0295  -12.9101 O   0  0  0  0  0  0  0  0  0  0  0  0
   20.4337   -4.3335  -13.6187 O   0  0  0  0  0  0  0  0  0  0  0  0
  2  1  1  6
  3  4  1  0
  3  2  1  0
  4  8  1  0
  5  4  2  0
  6  7  2  0
  6  2  1  0
  9 10  1  0
 11 10  1  1
 11 13  1  0
 11 12  1  0
 12  6  1  0
 13 14  2  0
 16 15  1  0
 17 16  1  0
 18 17  1  0
 19 18  1  6
 20 13  1  0
 20 19  1  0
 21 22  1  0
 21 19  1  0
 23 21  2  0
M  END
$$$$
