DSM.pdb
     RDKit          3D

 23 22  0  0  1  0  0  0  0  0999 V2000
   16.7113  -11.9498  -17.1045 N   0  0  0  0  0  0  0  0  0  0  0  0
   16.8265  -11.0766  -15.9789 C   0  0  1  0  0  0  0  0  0  0  0  0
   17.3921  -11.8329  -14.7823 C   0  0  0  0  0  0  0  0  0  0  0  0
   16.4565  -12.8884  -14.3716 C   0  0  0  0  0  0  0  0  0  0  0  0
   16.8881  -14.0591  -14.1826 O   0  0  0  0  0  0  0  0  0  0  0  0
   17.7444   -9.9206  -16.2569 C   0  0  0  0  0  0  0  0  0  0  0  0
   18.8168  -10.0960  -16.8841 O   0  0  0  0  0  0  0  0  0  0  0  0
   15.1252  -12.6335  -14.1883 O   0  0  0  0  0  0  0  0  0  0  0  0
   18.3796   -5.0751  -16.0729 O   0  0  0  0  0  0  0  0  0  0  0  0
   17.5702   -6.1599  -15.7658 C   0  0  0  0  0  0  0  0  0  0  0  0
   18.2870   -7.4423  -16.1198 C   0  0  2  0  0  0  0  0  0  0  0  0
   17.4391   -8.6046  -15.8275 N   0  0  0  0  0  0  0  0  0  0  0  0
   19.5048   -7.5462  -15.2765 C   0  0  0  0  0  0  0  0  0  0  0  0
   19.3953   -7.9305  -14.0661 O   0  0  0  0  0  0  0  0  0  0  0  0
   26.9046   -9.8160  -14.8477 C   0  0  0  0  0  0  0  0  0  0  0  0
   25.4614   -9.3582  -15.8305 S   0  0  0  0  0  0  0  0  0  0  0  0
   24.2510   -8.4430  -14.8048 C   0  0  0  0  0  0  0  0  0  0  0  0
   22.9899   -8.2208  -15.5879 C   0  0  0  0  0  0  0  0  0  0  0  0
   21.9581   -7.4563  -14.8201 C   0  0  2  0  0  0  0  0  0  0  0  0
   20.8097   -7.2504  -15.7064 N   0  0  0  0  0  0  0  0  0  0  0  0
   22.4693   -6.1495  -14.3339 C   0  0  0  0  0  0  0  0  0  0  0  0
   22.0420   -4.9805  -14.9467 O   0  0  0  0  0  0  0  0  0  0  0  0
   23.2756   -6.0419  -13.3889 O   0  0  0  0  0  0  0  0  0  0  0  0
  2  1  1  6
  3  4  1  0
  3  2  1  0
  4  8  1  0
  5  4  2  0
  6  7  2  0
  6  2  1  0
  9 10  1  0
 11 10  1  1
 11 13  1  0
 11 12  1  0
 12  6  1  0
 13 14  2  0
 16 15  1  0
 17 16  1  0
 18 17  1  0
 19 18  1  6
 20 13  1  0
 20 19  1  0
 21 22  1  0
 21 19  1  0
 23 21  2  0
M  END
$$$$
