DSM.pdb
     RDKit          3D

 23 22  0  0  1  0  0  0  0  0999 V2000
   18.1217  -11.0584  -17.9654 N   0  0  0  0  0  0  0  0  0  0  0  0
   19.0212  -10.8907  -16.8673 C   0  0  1  0  0  0  0  0  0  0  0  0
   20.4638  -10.9897  -17.3495 C   0  0  0  0  0  0  0  0  0  0  0  0
   20.7349  -12.3488  -17.8370 C   0  0  0  0  0  0  0  0  0  0  0  0
   20.4884  -13.3352  -17.0897 O   0  0  0  0  0  0  0  0  0  0  0  0
   18.8570   -9.5517  -16.2068 C   0  0  0  0  0  0  0  0  0  0  0  0
   18.9393   -8.4959  -16.8794 O   0  0  0  0  0  0  0  0  0  0  0  0
   21.2492  -12.5725  -19.0845 O   0  0  0  0  0  0  0  0  0  0  0  0
   19.0256   -9.0728  -12.0097 O   0  0  0  0  0  0  0  0  0  0  0  0
   18.0642   -8.3404  -12.6919 C   0  0  0  0  0  0  0  0  0  0  0  0
   18.5026   -8.1402  -14.1242 C   0  0  2  0  0  0  0  0  0  0  0  0
   18.6062   -9.4304  -14.8169 N   0  0  0  0  0  0  0  0  0  0  0  0
   19.8514   -7.5191  -14.1187 C   0  0  0  0  0  0  0  0  0  0  0  0
   20.8649   -8.2243  -14.4358 O   0  0  0  0  0  0  0  0  0  0  0  0
   25.0503   -4.7571  -18.0413 C   0  0  0  0  0  0  0  0  0  0  0  0
   23.4780   -5.5071  -17.5684 S   0  0  0  0  0  0  0  0  0  0  0  0
   23.1252   -5.1951  -15.7984 C   0  0  0  0  0  0  0  0  0  0  0  0
   21.8476   -5.8798  -15.4089 C   0  0  0  0  0  0  0  0  0  0  0  0
   21.4530   -5.6078  -13.9915 C   0  0  2  0  0  0  0  0  0  0  0  0
   20.1202   -6.1805  -13.7857 N   0  0  0  0  0  0  0  0  0  0  0  0
   21.4397   -4.1563  -13.6778 C   0  0  0  0  0  0  0  0  0  0  0  0
   22.5599   -3.5734  -13.1036 O   0  0  0  0  0  0  0  0  0  0  0  0
   20.4604   -3.4187  -13.9056 O   0  0  0  0  0  0  0  0  0  0  0  0
  2  1  1  6
  3  4  1  0
  3  2  1  0
  4  8  1  0
  5  4  2  0
  6  7  2  0
  6  2  1  0
  9 10  1  0
 11 10  1  1
 11 13  1  0
 11 12  1  0
 12  6  1  0
 13 14  2  0
 16 15  1  0
 17 16  1  0
 18 17  1  0
 19 18  1  6
 20 13  1  0
 20 19  1  0
 21 22  1  0
 21 19  1  0
 23 21  2  0
M  END
$$$$
