DSM.pdb
     RDKit          3D

 23 22  0  0  1  0  0  0  0  0999 V2000
   17.9294  -12.0271  -14.6296 N   0  0  0  0  0  0  0  0  0  0  0  0
   16.9240  -11.0362  -14.4053 C   0  0  1  0  0  0  0  0  0  0  0  0
   15.5890  -11.7028  -14.0939 C   0  0  0  0  0  0  0  0  0  0  0  0
   15.0743  -12.3743  -15.2948 C   0  0  0  0  0  0  0  0  0  0  0  0
   14.7486  -13.5918  -15.2318 O   0  0  0  0  0  0  0  0  0  0  0  0
   17.2642  -10.1438  -13.2460 C   0  0  0  0  0  0  0  0  0  0  0  0
   17.4356  -10.6261  -12.1005 O   0  0  0  0  0  0  0  0  0  0  0  0
   14.9389  -11.7110  -16.4833 O   0  0  0  0  0  0  0  0  0  0  0  0
   17.6877   -6.0717  -13.8724 O   0  0  0  0  0  0  0  0  0  0  0  0
   18.4490   -6.5990  -12.8387 C   0  0  0  0  0  0  0  0  0  0  0  0
   17.7796   -7.8425  -12.3008 C   0  0  2  0  0  0  0  0  0  0  0  0
   17.4029   -8.7414  -13.3987 N   0  0  0  0  0  0  0  0  0  0  0  0
   16.5352   -7.4381  -11.5988 C   0  0  0  0  0  0  0  0  0  0  0  0
   15.4460   -7.3557  -12.2561 O   0  0  0  0  0  0  0  0  0  0  0  0
   11.4789   -7.9090   -5.8481 C   0  0  0  0  0  0  0  0  0  0  0  0
   13.0537   -8.3510   -6.6114 S   0  0  0  0  0  0  0  0  0  0  0  0
   13.5169   -7.1196   -7.8857 C   0  0  0  0  0  0  0  0  0  0  0  0
   14.7809   -7.5513   -8.5705 C   0  0  0  0  0  0  0  0  0  0  0  0
   15.2018   -6.6117   -9.6562 C   0  0  2  0  0  0  0  0  0  0  0  0
   16.4464   -7.1289  -10.2308 N   0  0  0  0  0  0  0  0  0  0  0  0
   15.4053   -5.2277   -9.1577 C   0  0  0  0  0  0  0  0  0  0  0  0
   14.3013   -4.4334   -8.8837 O   0  0  0  0  0  0  0  0  0  0  0  0
   16.5329   -4.7304   -8.9681 O   0  0  0  0  0  0  0  0  0  0  0  0
  2  1  1  1
  3  4  1  0
  3  2  1  0
  4  8  1  0
  5  4  2  0
  6  7  2  0
  6  2  1  0
  9 10  1  0
 11 10  1  6
 11 13  1  0
 11 12  1  0
 12  6  1  0
 13 14  2  0
 16 15  1  0
 17 16  1  0
 18 17  1  0
 19 18  1  1
 20 13  1  0
 20 19  1  0
 21 22  1  0
 21 19  1  0
 23 21  2  0
M  END
$$$$
