DSM.pdb
     RDKit          3D

 23 22  0  0  1  0  0  0  0  0999 V2000
   20.5527  -11.8071  -19.8224 N   0  0  0  0  0  0  0  0  0  0  0  0
   20.6635  -11.7097  -18.4007 C   0  0  1  0  0  0  0  0  0  0  0  0
   22.0589  -12.1284  -17.9522 C   0  0  0  0  0  0  0  0  0  0  0  0
   22.2480  -13.5662  -18.1869 C   0  0  0  0  0  0  0  0  0  0  0  0
   21.4135  -14.3858  -17.7134 O   0  0  0  0  0  0  0  0  0  0  0  0
   20.4353  -10.3069  -17.9147 C   0  0  0  0  0  0  0  0  0  0  0  0
   20.8721   -9.3284  -18.5671 O   0  0  0  0  0  0  0  0  0  0  0  0
   23.3092  -14.0404  -18.9079 O   0  0  0  0  0  0  0  0  0  0  0  0
   17.1119   -9.0861  -15.7419 O   0  0  0  0  0  0  0  0  0  0  0  0
   18.3326   -8.7313  -15.1849 C   0  0  0  0  0  0  0  0  0  0  0  0
   19.3871   -8.6824  -16.2663 C   0  0  2  0  0  0  0  0  0  0  0  0
   19.7273  -10.0377  -16.7165 N   0  0  0  0  0  0  0  0  0  0  0  0
   20.6150   -8.0727  -15.6958 C   0  0  0  0  0  0  0  0  0  0  0  0
   21.3331   -8.7516  -14.8906 O   0  0  0  0  0  0  0  0  0  0  0  0
   25.3366   -2.5697  -17.3355 C   0  0  0  0  0  0  0  0  0  0  0  0
   25.3079   -4.3663  -17.5067 S   0  0  0  0  0  0  0  0  0  0  0  0
   24.4451   -5.1325  -16.0843 C   0  0  0  0  0  0  0  0  0  0  0  0
   23.1368   -5.7114  -16.5384 C   0  0  0  0  0  0  0  0  0  0  0  0
   22.3351   -6.2850  -15.4127 C   0  0  2  0  0  0  0  0  0  0  0  0
   21.0723   -6.7730  -15.9730 N   0  0  0  0  0  0  0  0  0  0  0  0
   22.0691   -5.2888  -14.3440 C   0  0  0  0  0  0  0  0  0  0  0  0
   20.8502   -4.6269  -14.3182 O   0  0  0  0  0  0  0  0  0  0  0  0
   22.8946   -5.0088  -13.4524 O   0  0  0  0  0  0  0  0  0  0  0  0
  2  1  1  6
  3  4  1  0
  3  2  1  0
  4  8  1  0
  5  4  2  0
  6  7  2  0
  6  2  1  0
  9 10  1  0
 11 10  1  1
 11 13  1  0
 11 12  1  0
 12  6  1  0
 13 14  2  0
 16 15  1  0
 17 16  1  0
 18 17  1  0
 19 18  1  6
 20 13  1  0
 20 19  1  0
 21 22  1  0
 21 19  1  0
 23 21  2  0
M  END
$$$$
