FHC.pdb
     RDKit          3D

 28 29  0  0  1  0  0  0  0  0999 V2000
    5.7102  -17.4422   24.4936 N   0  0  0  0  0  0  0  0  0  0  0  0
    6.5560  -16.2845   24.6975 C   0  0  1  0  0  0  0  0  0  0  0  0
    6.6815  -15.9803   26.1732 C   0  0  0  0  0  0  0  0  0  0  0  0
    6.7260  -14.5249   26.3513 C   0  0  0  0  0  0  0  0  0  0  0  0
    7.9645  -13.9085   26.4679 C   0  0  0  0  0  0  0  0  0  0  0  0
    8.0551  -12.5294   26.6396 C   0  0  0  0  0  0  0  0  0  0  0  0
    6.8938  -11.7952   26.6908 C   0  0  0  0  0  0  0  0  0  0  0  0
    5.6781  -12.4071   26.5755 C   0  0  0  0  0  0  0  0  0  0  0  0
    5.5727  -13.7683   26.4055 C   0  0  0  0  0  0  0  0  0  0  0  0
    7.9212  -16.5472   24.1525 C   0  0  0  0  0  0  0  0  0  0  0  0
    8.4122  -17.7044   24.1848 O   0  0  0  0  0  0  0  0  0  0  0  0
    8.6815  -15.4958   23.5915 N   0  0  0  0  0  0  0  0  0  0  0  0
    9.9850  -15.7644   22.9963 C   0  0  1  0  0  0  0  0  0  0  0  0
   10.2903  -14.7661   21.9039 C   0  0  0  0  0  0  0  0  0  0  0  0
    9.1589  -14.6553   20.9725 C   0  0  0  0  0  0  0  0  0  0  0  0
    8.3739  -13.5388   20.8081 C   0  0  0  0  0  0  0  0  0  0  0  0
    7.4407  -13.8408   19.8575 N   0  0  0  0  0  0  0  0  0  0  0  0
    7.6347  -15.0953   19.4446 C   0  0  0  0  0  0  0  0  0  0  0  0
    8.6815  -15.5687   20.1345 N   0  0  0  0  0  0  0  0  0  0  0  0
   11.0410  -15.7944   24.0528 C   0  0  0  0  0  0  0  0  0  0  0  0
   12.2377  -15.9059   23.7160 O   0  0  0  0  0  0  0  0  0  0  0  0
   10.6758  -15.6964   25.4226 N   0  0  0  0  0  0  0  0  0  0  0  0
   11.5677  -15.8844   26.5400 C   0  0  1  0  0  0  0  0  0  0  0  0
   10.8605  -15.6031   27.8180 C   0  0  0  0  0  0  0  0  0  0  0  0
   10.2413  -13.9271   27.9487 S   0  0  0  0  0  0  0  0  0  0  0  0
   12.2892  -17.1838   26.5051 C   0  0  0  0  0  0  0  0  0  0  0  0
   11.9011  -18.2114   25.6627 O   0  0  0  0  0  0  0  0  0  0  0  0
   13.2717  -17.3612   27.2515 O   0  0  0  0  0  0  0  0  0  0  0  0
  2  1  1  1
  2  3  1  0
  3  4  1  0
  4  9  2  0
  5  6  2  0
  5  4  1  0
  6  7  1  0
  7  8  2  0
  9  8  1  0
 10 12  1  0
 10  2  1  0
 11 10  2  0
 13 12  1  0
 13 14  1  6
 14 15  1  0
 15 16  2  0
 16 17  1  0
 18 17  1  0
 19 15  1  0
 19 18  2  0
 20 13  1  0
 21 20  2  0
 22 20  1  0
 23 26  1  0
 23 22  1  0
 23 24  1  1
 25 24  1  0
 26 27  1  0
 28 26  2  0
M  END
$$$$
