FHC.pdb
     RDKit          3D

 28 29  0  0  1  0  0  0  0  0999 V2000
    6.0767  -16.4968   25.3869 N   0  0  0  0  0  0  0  0  0  0  0  0
    6.7992  -16.2560   24.1550 C   0  0  1  0  0  0  0  0  0  0  0  0
    6.5635  -14.8410   23.6771 C   0  0  0  0  0  0  0  0  0  0  0  0
    6.6682  -13.9334   24.8247 C   0  0  0  0  0  0  0  0  0  0  0  0
    7.8762  -13.2877   25.0515 C   0  0  0  0  0  0  0  0  0  0  0  0
    8.0221  -12.4182   26.1297 C   0  0  0  0  0  0  0  0  0  0  0  0
    6.9461  -12.2148   26.9610 C   0  0  0  0  0  0  0  0  0  0  0  0
    5.7602  -12.8528   26.7329 C   0  0  0  0  0  0  0  0  0  0  0  0
    5.6008  -13.7145   25.6722 C   0  0  0  0  0  0  0  0  0  0  0  0
    8.2641  -16.4405   24.3779 C   0  0  0  0  0  0  0  0  0  0  0  0
    8.6883  -16.9928   25.4249 O   0  0  0  0  0  0  0  0  0  0  0  0
    9.1957  -15.9957   23.4122 N   0  0  0  0  0  0  0  0  0  0  0  0
   10.5966  -16.3894   23.5028 C   0  0  1  0  0  0  0  0  0  0  0  0
   11.3523  -15.9665   22.2646 C   0  0  0  0  0  0  0  0  0  0  0  0
   11.2492  -16.9937   21.2187 C   0  0  0  0  0  0  0  0  0  0  0  0
   11.1023  -18.3419   21.4433 C   0  0  0  0  0  0  0  0  0  0  0  0
   11.0459  -18.9486   20.2209 N   0  0  0  0  0  0  0  0  0  0  0  0
   11.1531  -18.0173   19.2707 C   0  0  0  0  0  0  0  0  0  0  0  0
   11.2754  -16.8401   19.8995 N   0  0  0  0  0  0  0  0  0  0  0  0
   11.2068  -15.8499   24.7554 C   0  0  0  0  0  0  0  0  0  0  0  0
   11.3705  -14.6181   24.8725 O   0  0  0  0  0  0  0  0  0  0  0  0
   11.5928  -16.7383   25.7952 N   0  0  0  0  0  0  0  0  0  0  0  0
   11.7738  -16.3755   27.1790 C   0  0  1  0  0  0  0  0  0  0  0  0
   10.6191  -15.5684   27.6564 C   0  0  0  0  0  0  0  0  0  0  0  0
   10.8645  -14.8409   29.2750 S   0  0  0  0  0  0  0  0  0  0  0  0
   12.1243  -17.5290   28.0488 C   0  0  0  0  0  0  0  0  0  0  0  0
   12.9008  -17.3770   29.1846 O   0  0  0  0  0  0  0  0  0  0  0  0
   11.7116  -18.6680   27.7546 O   0  0  0  0  0  0  0  0  0  0  0  0
  2  1  1  1
  2  3  1  0
  3  4  1  0
  4  9  2  0
  5  6  2  0
  5  4  1  0
  6  7  1  0
  7  8  2  0
  9  8  1  0
 10 12  1  0
 10  2  1  0
 11 10  2  0
 13 12  1  0
 13 14  1  6
 14 15  1  0
 15 16  2  0
 16 17  1  0
 18 17  1  0
 19 15  1  0
 19 18  2  0
 20 13  1  0
 21 20  2  0
 22 20  1  0
 23 26  1  0
 23 22  1  0
 23 24  1  1
 25 24  1  0
 26 27  1  0
 28 26  2  0
M  END
$$$$
