FHC.pdb
     RDKit          3D

 28 29  0  0  1  0  0  0  0  0999 V2000
    6.0016  -16.5736   25.4796 N   0  0  0  0  0  0  0  0  0  0  0  0
    6.6628  -16.3111   24.2182 C   0  0  1  0  0  0  0  0  0  0  0  0
    6.3636  -14.9041   23.7523 C   0  0  0  0  0  0  0  0  0  0  0  0
    6.6815  -13.9713   24.8388 C   0  0  0  0  0  0  0  0  0  0  0  0
    7.8574  -13.2374   24.7600 C   0  0  0  0  0  0  0  0  0  0  0  0
    8.2008  -12.3409   25.7689 C   0  0  0  0  0  0  0  0  0  0  0  0
    7.3513  -12.1999   26.8408 C   0  0  0  0  0  0  0  0  0  0  0  0
    6.1958  -12.9246   26.9129 C   0  0  0  0  0  0  0  0  0  0  0  0
    5.8432  -13.8139   25.9241 C   0  0  0  0  0  0  0  0  0  0  0  0
    8.1409  -16.4505   24.3778 C   0  0  0  0  0  0  0  0  0  0  0  0
    8.6303  -16.9046   25.4434 O   0  0  0  0  0  0  0  0  0  0  0  0
    9.0118  -16.0730   23.3303 N   0  0  0  0  0  0  0  0  0  0  0  0
   10.4424  -16.3362   23.4296 C   0  0  1  0  0  0  0  0  0  0  0  0
   11.1441  -15.9717   22.1419 C   0  0  0  0  0  0  0  0  0  0  0  0
   12.5438  -16.4186   22.1702 C   0  0  0  0  0  0  0  0  0  0  0  0
   13.6390  -15.5908   22.2402 C   0  0  0  0  0  0  0  0  0  0  0  0
   14.7466  -16.3901   22.2445 N   0  0  0  0  0  0  0  0  0  0  0  0
   14.3592  -17.6658   22.1797 C   0  0  0  0  0  0  0  0  0  0  0  0
   13.0198  -17.6583   22.1356 N   0  0  0  0  0  0  0  0  0  0  0  0
   11.0187  -15.6293   24.6130 C   0  0  0  0  0  0  0  0  0  0  0  0
   10.8146  -14.4057   24.7514 O   0  0  0  0  0  0  0  0  0  0  0  0
   11.7889  -16.3517   25.5639 N   0  0  0  0  0  0  0  0  0  0  0  0
   11.9971  -15.9642   26.9373 C   0  0  1  0  0  0  0  0  0  0  0  0
   10.7179  -15.5094   27.5449 C   0  0  0  0  0  0  0  0  0  0  0  0
   10.8848  -14.9243   29.2300 S   0  0  0  0  0  0  0  0  0  0  0  0
   12.7314  -16.9840   27.7316 C   0  0  0  0  0  0  0  0  0  0  0  0
   12.3527  -18.3154   27.7379 O   0  0  0  0  0  0  0  0  0  0  0  0
   13.7165  -16.6393   28.4134 O   0  0  0  0  0  0  0  0  0  0  0  0
  2  1  1  1
  2  3  1  0
  3  4  1  0
  4  9  2  0
  5  6  2  0
  5  4  1  0
  6  7  1  0
  7  8  2  0
  9  8  1  0
 10 12  1  0
 10  2  1  0
 11 10  2  0
 13 12  1  0
 13 14  1  6
 14 15  1  0
 15 16  2  0
 16 17  1  0
 18 17  1  0
 19 15  1  0
 19 18  2  0
 20 13  1  0
 21 20  2  0
 22 20  1  0
 23 26  1  0
 23 22  1  0
 23 24  1  1
 25 24  1  0
 26 27  1  0
 28 26  2  0
M  END
$$$$
