FHC.pdb
     RDKit          3D

 28 29  0  0  1  0  0  0  0  0999 V2000
    5.9290  -18.1479   18.8541 N   0  0  0  0  0  0  0  0  0  0  0  0
    6.7014  -16.9824   19.2316 C   0  0  1  0  0  0  0  0  0  0  0  0
    5.8551  -16.0361   20.0529 C   0  0  0  0  0  0  0  0  0  0  0  0
    6.6583  -14.8543   20.3845 C   0  0  0  0  0  0  0  0  0  0  0  0
    7.2292  -14.1282   19.3480 C   0  0  0  0  0  0  0  0  0  0  0  0
    8.0006  -13.0000   19.6156 C   0  0  0  0  0  0  0  0  0  0  0  0
    8.1831  -12.6233   20.9252 C   0  0  0  0  0  0  0  0  0  0  0  0
    7.6189  -13.3416   21.9409 C   0  0  0  0  0  0  0  0  0  0  0  0
    6.8545  -14.4581   21.6922 C   0  0  0  0  0  0  0  0  0  0  0  0
    7.8792  -17.3943   20.0519 C   0  0  0  0  0  0  0  0  0  0  0  0
    7.7425  -18.1925   21.0138 O   0  0  0  0  0  0  0  0  0  0  0  0
    9.1669  -16.8910   19.7570 N   0  0  0  0  0  0  0  0  0  0  0  0
   10.3388  -17.4115   20.4507 C   0  0  1  0  0  0  0  0  0  0  0  0
   11.5361  -17.4421   19.5294 C   0  0  0  0  0  0  0  0  0  0  0  0
   12.6458  -18.1820   20.1464 C   0  0  0  0  0  0  0  0  0  0  0  0
   12.5854  -18.8434   21.3501 C   0  0  0  0  0  0  0  0  0  0  0  0
   13.8151  -19.3977   21.5654 N   0  0  0  0  0  0  0  0  0  0  0  0
   14.6116  -19.0951   20.5380 C   0  0  0  0  0  0  0  0  0  0  0  0
   13.8810  -18.3577   19.6904 N   0  0  0  0  0  0  0  0  0  0  0  0
   10.5965  -16.6253   21.6948 C   0  0  0  0  0  0  0  0  0  0  0  0
   11.0859  -15.4807   21.6025 O   0  0  0  0  0  0  0  0  0  0  0  0
   10.2842  -17.1840   22.9635 N   0  0  0  0  0  0  0  0  0  0  0  0
   10.5868  -16.5818   24.2384 C   0  0  1  0  0  0  0  0  0  0  0  0
    9.3850  -16.5973   25.1148 C   0  0  0  0  0  0  0  0  0  0  0  0
    7.9057  -15.9661   24.3258 S   0  0  0  0  0  0  0  0  0  0  0  0
   11.8190  -17.1250   24.8682 C   0  0  0  0  0  0  0  0  0  0  0  0
   12.3586  -16.5683   26.0149 O   0  0  0  0  0  0  0  0  0  0  0  0
   12.3884  -18.1086   24.3560 O   0  0  0  0  0  0  0  0  0  0  0  0
  2  1  1  1
  2  3  1  0
  3  4  1  0
  4  9  2  0
  5  6  2  0
  5  4  1  0
  6  7  1  0
  7  8  2  0
  9  8  1  0
 10 12  1  0
 10  2  1  0
 11 10  2  0
 13 12  1  0
 13 14  1  6
 14 15  1  0
 15 16  2  0
 16 17  1  0
 18 17  1  0
 19 15  1  0
 19 18  2  0
 20 13  1  0
 21 20  2  0
 22 20  1  0
 23 26  1  0
 23 22  1  0
 23 24  1  1
 25 24  1  0
 26 27  1  0
 28 26  2  0
M  END
$$$$
