FHC.pdb
     RDKit          3D

 28 29  0  0  1  0  0  0  0  0999 V2000
    6.5192  -16.4742   22.9777 N   0  0  0  0  0  0  0  0  0  0  0  0
    7.5242  -16.0124   23.9126 C   0  0  1  0  0  0  0  0  0  0  0  0
    6.8984  -15.7360   25.2609 C   0  0  0  0  0  0  0  0  0  0  0  0
    6.8206  -14.2840   25.4546 C   0  0  0  0  0  0  0  0  0  0  0  0
    7.1745  -13.4543   24.3992 C   0  0  0  0  0  0  0  0  0  0  0  0
    7.1176  -12.0697   24.5380 C   0  0  0  0  0  0  0  0  0  0  0  0
    6.7042  -11.5455   25.7400 C   0  0  0  0  0  0  0  0  0  0  0  0
    6.3573  -12.3667   26.7747 C   0  0  0  0  0  0  0  0  0  0  0  0
    6.4084  -13.7362   26.6527 C   0  0  0  0  0  0  0  0  0  0  0  0
    8.5776  -17.0563   24.0868 C   0  0  0  0  0  0  0  0  0  0  0  0
    8.2927  -18.1783   24.5777 O   0  0  0  0  0  0  0  0  0  0  0  0
    9.9125  -16.7962   23.7011 N   0  0  0  0  0  0  0  0  0  0  0  0
   10.9766  -17.7292   24.0516 C   0  0  1  0  0  0  0  0  0  0  0  0
   12.1803  -17.5270   23.1609 C   0  0  0  0  0  0  0  0  0  0  0  0
   11.8457  -17.8275   21.7618 C   0  0  0  0  0  0  0  0  0  0  0  0
   10.8584  -18.6911   21.3506 C   0  0  0  0  0  0  0  0  0  0  0  0
   10.8682  -18.6909   19.9848 N   0  0  0  0  0  0  0  0  0  0  0  0
   11.8231  -17.8607   19.5595 C   0  0  0  0  0  0  0  0  0  0  0  0
   12.4021  -17.3490   20.6545 N   0  0  0  0  0  0  0  0  0  0  0  0
   11.3140  -17.6096   25.5022 C   0  0  0  0  0  0  0  0  0  0  0  0
   11.7850  -16.5367   25.9323 O   0  0  0  0  0  0  0  0  0  0  0  0
   11.0971  -18.7112   26.3732 N   0  0  0  0  0  0  0  0  0  0  0  0
   11.4894  -18.7691   27.7597 C   0  0  1  0  0  0  0  0  0  0  0  0
   10.2951  -18.6567   28.6392 C   0  0  0  0  0  0  0  0  0  0  0  0
    8.9599  -19.7643   28.1917 S   0  0  0  0  0  0  0  0  0  0  0  0
   12.3816  -19.9166   28.0714 C   0  0  0  0  0  0  0  0  0  0  0  0
   13.0107  -20.0395   29.2983 O   0  0  0  0  0  0  0  0  0  0  0  0
   12.5741  -20.7969   27.2100 O   0  0  0  0  0  0  0  0  0  0  0  0
  2  1  1  6
  2  3  1  0
  3  4  1  0
  4  9  2  0
  5  6  2  0
  5  4  1  0
  6  7  1  0
  7  8  2  0
  9  8  1  0
 10 12  1  0
 10  2  1  0
 11 10  2  0
 13 12  1  0
 13 14  1  6
 14 15  1  0
 15 16  2  0
 16 17  1  0
 18 17  1  0
 19 15  1  0
 19 18  2  0
 20 13  1  0
 21 20  2  0
 22 20  1  0
 23 26  1  0
 23 22  1  0
 23 24  1  1
 25 24  1  0
 26 27  1  0
 28 26  2  0
M  END
$$$$
