FHC.pdb
     RDKit          3D

 28 29  0  0  1  0  0  0  0  0999 V2000
    6.0716  -17.9542   23.6379 N   0  0  0  0  0  0  0  0  0  0  0  0
    6.7285  -16.7001   23.9432 C   0  0  1  0  0  0  0  0  0  0  0  0
    6.1255  -16.0809   25.1838 C   0  0  0  0  0  0  0  0  0  0  0  0
    6.5831  -14.6909   25.2856 C   0  0  0  0  0  0  0  0  0  0  0  0
    6.2876  -13.9783   26.4398 C   0  0  0  0  0  0  0  0  0  0  0  0
    6.7007  -12.6556   26.5799 C   0  0  0  0  0  0  0  0  0  0  0  0
    7.4052  -12.0741   25.5524 C   0  0  0  0  0  0  0  0  0  0  0  0
    7.6931  -12.7802   24.4192 C   0  0  0  0  0  0  0  0  0  0  0  0
    7.2918  -14.0873   24.2663 C   0  0  0  0  0  0  0  0  0  0  0  0
    8.1825  -16.9324   24.1912 C   0  0  0  0  0  0  0  0  0  0  0  0
    8.5612  -17.8223   24.9947 O   0  0  0  0  0  0  0  0  0  0  0  0
    9.1549  -16.1529   23.5240 N   0  0  0  0  0  0  0  0  0  0  0  0
   10.5745  -16.4329   23.7034 C   0  0  1  0  0  0  0  0  0  0  0  0
   11.3720  -15.9325   22.5216 C   0  0  0  0  0  0  0  0  0  0  0  0
   10.9789  -16.6394   21.2946 C   0  0  0  0  0  0  0  0  0  0  0  0
   11.2496  -17.9586   21.0184 C   0  0  0  0  0  0  0  0  0  0  0  0
   10.7196  -18.2281   19.7887 N   0  0  0  0  0  0  0  0  0  0  0  0
   10.1411  -17.1221   19.3156 C   0  0  0  0  0  0  0  0  0  0  0  0
   10.3110  -16.1723   20.2457 N   0  0  0  0  0  0  0  0  0  0  0  0
   11.0556  -15.8636   24.9983 C   0  0  0  0  0  0  0  0  0  0  0  0
   11.3065  -14.6431   25.0722 O   0  0  0  0  0  0  0  0  0  0  0  0
   11.2222  -16.7113   26.1266 N   0  0  0  0  0  0  0  0  0  0  0  0
   11.2344  -16.2779   27.5019 C   0  0  1  0  0  0  0  0  0  0  0  0
   10.0337  -15.4496   27.7927 C   0  0  0  0  0  0  0  0  0  0  0  0
   10.3803  -13.9927   28.7762 S   0  0  0  0  0  0  0  0  0  0  0  0
   11.4707  -17.3849   28.4656 C   0  0  0  0  0  0  0  0  0  0  0  0
   12.2013  -17.1982   29.6265 O   0  0  0  0  0  0  0  0  0  0  0  0
   11.0017  -18.5155   28.2297 O   0  0  0  0  0  0  0  0  0  0  0  0
  2  1  1  1
  2  3  1  0
  3  4  1  0
  4  9  2  0
  5  6  2  0
  5  4  1  0
  6  7  1  0
  7  8  2  0
  9  8  1  0
 10 12  1  0
 10  2  1  0
 11 10  2  0
 13 12  1  0
 13 14  1  6
 14 15  1  0
 15 16  2  0
 16 17  1  0
 18 17  1  0
 19 15  1  0
 19 18  2  0
 20 13  1  0
 21 20  2  0
 22 20  1  0
 23 26  1  0
 23 22  1  0
 23 24  1  1
 25 24  1  0
 26 27  1  0
 28 26  2  0
M  END
$$$$
