FHC.pdb
     RDKit          3D

 28 29  0  0  1  0  0  0  0  0999 V2000
    6.8886  -13.4572   23.2395 N   0  0  0  0  0  0  0  0  0  0  0  0
    7.9228  -14.0920   24.0300 C   0  0  1  0  0  0  0  0  0  0  0  0
    7.3527  -14.5846   25.3408 C   0  0  0  0  0  0  0  0  0  0  0  0
    6.9649  -13.4246   26.1506 C   0  0  0  0  0  0  0  0  0  0  0  0
    5.6324  -13.2856   26.5147 C   0  0  0  0  0  0  0  0  0  0  0  0
    5.2182  -12.1995   27.2818 C   0  0  0  0  0  0  0  0  0  0  0  0
    6.1561  -11.2717   27.6688 C   0  0  0  0  0  0  0  0  0  0  0  0
    7.4657  -11.4137   27.3077 C   0  0  0  0  0  0  0  0  0  0  0  0
    7.8899  -12.4810   26.5502 C   0  0  0  0  0  0  0  0  0  0  0  0
    8.4847  -15.2615   23.2909 C   0  0  0  0  0  0  0  0  0  0  0  0
    8.2974  -16.4329   23.7078 O   0  0  0  0  0  0  0  0  0  0  0  0
    9.2366  -15.0666   22.1098 N   0  0  0  0  0  0  0  0  0  0  0  0
    9.9926  -16.1685   21.5266 C   0  0  1  0  0  0  0  0  0  0  0  0
   10.5226  -15.7909   20.1629 C   0  0  0  0  0  0  0  0  0  0  0  0
    9.4635  -15.1820   19.3460 C   0  0  0  0  0  0  0  0  0  0  0  0
    8.4273  -15.8646   18.7544 C   0  0  0  0  0  0  0  0  0  0  0  0
    7.6679  -14.9441   18.0899 N   0  0  0  0  0  0  0  0  0  0  0  0
    8.2076  -13.7351   18.2594 C   0  0  0  0  0  0  0  0  0  0  0  0
    9.2951  -13.9042   19.0242 N   0  0  0  0  0  0  0  0  0  0  0  0
   11.0759  -16.6045   22.4587 C   0  0  0  0  0  0  0  0  0  0  0  0
   12.0495  -15.8493   22.6581 O   0  0  0  0  0  0  0  0  0  0  0  0
   10.9885  -17.8668   23.1055 N   0  0  0  0  0  0  0  0  0  0  0  0
   11.9981  -18.4376   23.9624 C   0  0  1  0  0  0  0  0  0  0  0  0
   11.3701  -19.0462   25.1656 C   0  0  0  0  0  0  0  0  0  0  0  0
   10.5698  -17.8595   26.2430 S   0  0  0  0  0  0  0  0  0  0  0  0
   12.9467  -19.3274   23.2424 C   0  0  0  0  0  0  0  0  0  0  0  0
   12.7474  -19.6901   21.9215 O   0  0  0  0  0  0  0  0  0  0  0  0
   13.9519  -19.7633   23.8371 O   0  0  0  0  0  0  0  0  0  0  0  0
  2  1  1  6
  2  3  1  0
  3  4  1  0
  4  9  2  0
  5  6  2  0
  5  4  1  0
  6  7  1  0
  7  8  2  0
  9  8  1  0
 10 12  1  0
 10  2  1  0
 11 10  2  0
 13 12  1  0
 13 14  1  6
 14 15  1  0
 15 16  2  0
 16 17  1  0
 18 17  1  0
 19 15  1  0
 19 18  2  0
 20 13  1  0
 21 20  2  0
 22 20  1  0
 23 26  1  0
 23 22  1  0
 23 24  1  1
 25 24  1  0
 26 27  1  0
 28 26  2  0
M  END
$$$$
