FHC.pdb
     RDKit          3D

 28 29  0  0  1  0  0  0  0  0999 V2000
    5.7528  -17.9746   25.4569 N   0  0  0  0  0  0  0  0  0  0  0  0
    6.0807  -16.5693   25.3342 C   0  0  1  0  0  0  0  0  0  0  0  0
    6.8290  -16.0966   26.5600 C   0  0  0  0  0  0  0  0  0  0  0  0
    6.8954  -14.6314   26.5345 C   0  0  0  0  0  0  0  0  0  0  0  0
    8.1279  -14.0269   26.3271 C   0  0  0  0  0  0  0  0  0  0  0  0
    8.2390  -12.6390   26.2965 C   0  0  0  0  0  0  0  0  0  0  0  0
    7.1039  -11.8841   26.4758 C   0  0  0  0  0  0  0  0  0  0  0  0
    5.8941  -12.4844   26.6795 C   0  0  0  0  0  0  0  0  0  0  0  0
    5.7686  -13.8541   26.7123 C   0  0  0  0  0  0  0  0  0  0  0  0
    6.9478  -16.3499   24.1386 C   0  0  0  0  0  0  0  0  0  0  0  0
    7.9001  -17.1312   23.8857 O   0  0  0  0  0  0  0  0  0  0  0  0
    6.7090  -15.2581   23.2729 N   0  0  0  0  0  0  0  0  0  0  0  0
    7.5170  -15.0781   22.0727 C   0  0  1  0  0  0  0  0  0  0  0  0
    6.9284  -14.0040   21.1878 C   0  0  0  0  0  0  0  0  0  0  0  0
    7.6664  -13.9153   19.9200 C   0  0  0  0  0  0  0  0  0  0  0  0
    8.4539  -12.8569   19.5335 C   0  0  0  0  0  0  0  0  0  0  0  0
    8.9584  -13.1611   18.3012 N   0  0  0  0  0  0  0  0  0  0  0  0
    8.5047  -14.3611   17.9325 C   0  0  0  0  0  0  0  0  0  0  0  0
    7.7235  -14.7988   18.9297 N   0  0  0  0  0  0  0  0  0  0  0  0
    8.9376  -14.7982   22.4413 C   0  0  0  0  0  0  0  0  0  0  0  0
    9.1829  -13.9523   23.3257 O   0  0  0  0  0  0  0  0  0  0  0  0
    9.9897  -15.4931   21.7859 N   0  0  0  0  0  0  0  0  0  0  0  0
   11.3263  -15.6620   22.3002 C   0  0  1  0  0  0  0  0  0  0  0  0
   11.2918  -16.3833   23.6006 C   0  0  0  0  0  0  0  0  0  0  0  0
   12.5359  -15.8335   24.7665 S   0  0  0  0  0  0  0  0  0  0  0  0
   12.2732  -16.2279   21.3036 C   0  0  0  0  0  0  0  0  0  0  0  0
   11.8356  -16.7714   20.1081 O   0  0  0  0  0  0  0  0  0  0  0  0
   13.4965  -16.2166   21.5431 O   0  0  0  0  0  0  0  0  0  0  0  0
  2  1  1  1
  2  3  1  0
  3  4  1  0
  4  9  2  0
  5  6  2  0
  5  4  1  0
  6  7  1  0
  7  8  2  0
  9  8  1  0
 10 12  1  0
 10  2  1  0
 11 10  2  0
 13 12  1  0
 13 14  1  1
 14 15  1  0
 15 16  2  0
 16 17  1  0
 18 17  1  0
 19 15  1  0
 19 18  2  0
 20 13  1  0
 21 20  2  0
 22 20  1  0
 23 26  1  0
 23 22  1  0
 23 24  1  1
 25 24  1  0
 26 27  1  0
 28 26  2  0
M  END
$$$$
