FHC.pdb
     RDKit          3D

 28 29  0  0  1  0  0  0  0  0999 V2000
    5.6128  -16.8527   24.3760 N   0  0  0  0  0  0  0  0  0  0  0  0
    6.6358  -15.8291   24.4316 C   0  0  1  0  0  0  0  0  0  0  0  0
    6.9681  -15.4973   25.8688 C   0  0  0  0  0  0  0  0  0  0  0  0
    6.8457  -14.0477   26.0572 C   0  0  0  0  0  0  0  0  0  0  0  0
    5.6620  -13.5445   26.5799 C   0  0  0  0  0  0  0  0  0  0  0  0
    5.5005  -12.1750   26.7748 C   0  0  0  0  0  0  0  0  0  0  0  0
    6.5367  -11.3360   26.4388 C   0  0  0  0  0  0  0  0  0  0  0  0
    7.6989  -11.8368   25.9250 C   0  0  0  0  0  0  0  0  0  0  0  0
    7.8731  -13.1871   25.7268 C   0  0  0  0  0  0  0  0  0  0  0  0
    7.8787  -16.3124   23.7597 C   0  0  0  0  0  0  0  0  0  0  0  0
    8.2489  -17.5080   23.8806 O   0  0  0  0  0  0  0  0  0  0  0  0
    8.6575  -15.4299   22.9768 N   0  0  0  0  0  0  0  0  0  0  0  0
    9.8685  -15.9028   22.3168 C   0  0  1  0  0  0  0  0  0  0  0  0
   10.3176  -14.9234   21.2575 C   0  0  0  0  0  0  0  0  0  0  0  0
    9.1995  -14.5690   20.3721 C   0  0  0  0  0  0  0  0  0  0  0  0
    8.0122  -15.2559   20.2807 C   0  0  0  0  0  0  0  0  0  0  0  0
    7.2456  -14.6105   19.3526 N   0  0  0  0  0  0  0  0  0  0  0  0
    7.9263  -13.5627   18.8829 C   0  0  0  0  0  0  0  0  0  0  0  0
    9.1077  -13.5578   19.5156 N   0  0  0  0  0  0  0  0  0  0  0  0
   10.9346  -16.1798   23.3262 C   0  0  0  0  0  0  0  0  0  0  0  0
   11.5352  -15.2230   23.8572 O   0  0  0  0  0  0  0  0  0  0  0  0
   11.2533  -17.5212   23.6703 N   0  0  0  0  0  0  0  0  0  0  0  0
   12.1492  -17.9219   24.7268 C   0  0  1  0  0  0  0  0  0  0  0  0
   11.7569  -17.2771   26.0085 C   0  0  0  0  0  0  0  0  0  0  0  0
   10.4414  -18.1303   26.8751 S   0  0  0  0  0  0  0  0  0  0  0  0
   12.3422  -19.3937   24.8082 C   0  0  0  0  0  0  0  0  0  0  0  0
   11.5488  -20.2743   24.0932 O   0  0  0  0  0  0  0  0  0  0  0  0
   13.2409  -19.8560   25.5380 O   0  0  0  0  0  0  0  0  0  0  0  0
  2  1  1  1
  2  3  1  0
  3  4  1  0
  4  9  2  0
  5  6  2  0
  5  4  1  0
  6  7  1  0
  7  8  2  0
  9  8  1  0
 10 12  1  0
 10  2  1  0
 11 10  2  0
 13 12  1  0
 13 14  1  6
 14 15  1  0
 15 16  2  0
 16 17  1  0
 18 17  1  0
 19 15  1  0
 19 18  2  0
 20 13  1  0
 21 20  2  0
 22 20  1  0
 23 26  1  0
 23 22  1  0
 23 24  1  1
 25 24  1  0
 26 27  1  0
 28 26  2  0
M  END
$$$$
