TRN.pdb
     RDKit          3D

 27 26  0  0  1  0  0  0  0  0999 V2000
    7.3227  -12.4194   19.6353 C   0  0  0  0  0  0  0  0  0  0  0  0
    8.2863  -13.4755   20.1374 C   0  0  1  0  0  0  0  0  0  0  0  0
    8.6699  -13.2743   21.4480 O   0  0  0  0  0  0  0  0  0  0  0  0
    7.6168  -14.8239   19.9261 C   0  0  2  0  0  0  0  0  0  0  0  0
    6.4290  -14.8784   20.7262 N   0  0  0  0  0  0  0  0  0  0  0  0
    8.6056  -15.8690   20.2457 C   0  0  0  0  0  0  0  0  0  0  0  0
    8.5208  -16.4170   21.3736 O   0  0  0  0  0  0  0  0  0  0  0  0
   13.7766  -20.2133   14.5742 N   0  0  0  0  0  0  0  0  0  0  0  0
   14.3608  -20.4043   15.8535 C   0  0  0  0  0  0  0  0  0  0  0  0
   15.5014  -20.9998   16.0125 N   0  0  0  0  0  0  0  0  0  0  0  0
   13.7091  -19.9393   17.0467 N   0  0  0  0  0  0  0  0  0  0  0  0
   12.3562  -19.3844   16.9321 C   0  0  0  0  0  0  0  0  0  0  0  0
   11.9961  -18.8907   18.2983 C   0  0  0  0  0  0  0  0  0  0  0  0
   11.0669  -17.7798   18.4443 C   0  0  0  0  0  0  0  0  0  0  0  0
   10.6134  -17.2393   19.7382 C   0  0  2  0  0  0  0  0  0  0  0  0
    9.5854  -16.2227   19.3270 N   0  0  0  0  0  0  0  0  0  0  0  0
   11.4848  -16.5870   20.6643 C   0  0  0  0  0  0  0  0  0  0  0  0
   11.9608  -15.4293   20.3984 O   0  0  0  0  0  0  0  0  0  0  0  0
   15.8412  -21.0921   16.9960 N   0  0  0  0  0  0  0  0  0  0  0  0
   10.7426  -15.9242   24.5591 C   0  0  0  0  0  0  0  0  0  0  0  0
   11.6385  -16.9600   24.9225 O   0  0  0  0  0  0  0  0  0  0  0  0
   11.3977  -17.5850   25.9711 C   0  0  0  0  0  0  0  0  0  0  0  0
   12.7743  -17.2475   24.0822 C   0  0  2  0  0  0  0  0  0  0  0  0
   12.8453  -16.4490   22.7717 N   0  0  0  0  0  0  0  0  0  0  0  0
   11.8665  -17.1374   21.9100 C   0  0  0  0  0  0  0  0  0  0  0  0
   14.1677  -16.5700   22.1562 O   0  0  0  0  0  0  0  0  0  0  0  0
   15.0174  -15.6189   22.2851 O   0  0  0  0  0  0  0  0  0  0  0  0
  2  1  1  1
  2  3  1  0
  4  2  1  0
  4  6  1  0
  4  5  1  1
  6  7  2  0
  9  8  1  0
  9 10  2  0
 11  9  1  0
 12 11  1  0
 13 12  1  0
 14 13  1  0
 15 14  1  6
 16  6  1  0
 16 15  1  0
 17 15  1  0
 17 18  2  0
 19 20  1  0
 20 21  2  0
 20 22  1  0
 23 22  1  1
 23 25  1  0
 23 24  1  0
 24 17  1  0
 25 27  1  0
 26 25  2  0
M  END
$$$$
