TRN.pdb
     RDKit          3D

 27 26  0  0  1  0  0  0  0  0999 V2000
   10.6372  -16.6374   14.6810 C   0  0  0  0  0  0  0  0  0  0  0  0
    9.8823  -15.3322   14.5308 C   0  0  1  0  0  0  0  0  0  0  0  0
   10.0262  -14.7685   13.2790 O   0  0  0  0  0  0  0  0  0  0  0  0
    8.4300  -15.6166   14.8787 C   0  0  2  0  0  0  0  0  0  0  0  0
    7.6409  -14.4717   14.5318 N   0  0  0  0  0  0  0  0  0  0  0  0
    8.3744  -15.9750   16.3071 C   0  0  0  0  0  0  0  0  0  0  0  0
    8.1488  -15.0480   17.1255 O   0  0  0  0  0  0  0  0  0  0  0  0
    6.5291  -23.8224   19.2915 N   0  0  0  0  0  0  0  0  0  0  0  0
    5.8164  -22.6869   19.7575 C   0  0  0  0  0  0  0  0  0  0  0  0
    4.5747  -22.7509   20.1249 N   0  0  0  0  0  0  0  0  0  0  0  0
    6.4455  -21.3981   19.8472 N   0  0  0  0  0  0  0  0  0  0  0  0
    7.8294  -21.2629   19.3805 C   0  0  0  0  0  0  0  0  0  0  0  0
    8.1493  -19.8028   19.4565 C   0  0  0  0  0  0  0  0  0  0  0  0
    8.2671  -19.0234   18.2328 C   0  0  0  0  0  0  0  0  0  0  0  0
    8.5683  -17.5814   18.1909 C   0  0  2  0  0  0  0  0  0  0  0  0
    8.5657  -17.2883   16.7166 N   0  0  0  0  0  0  0  0  0  0  0  0
    9.7706  -17.0158   18.7173 C   0  0  0  0  0  0  0  0  0  0  0  0
   10.8814  -17.1698   18.1006 O   0  0  0  0  0  0  0  0  0  0  0  0
    4.1342  -21.8516   20.4224 N   0  0  0  0  0  0  0  0  0  0  0  0
    9.5251  -12.7811   19.2620 C   0  0  0  0  0  0  0  0  0  0  0  0
   10.7527  -13.4017   19.6019 O   0  0  0  0  0  0  0  0  0  0  0  0
   11.7392  -13.1518   18.8860 C   0  0  0  0  0  0  0  0  0  0  0  0
   10.8144  -14.2829   20.7414 C   0  0  2  0  0  0  0  0  0  0  0  0
   11.1173  -15.7548   20.4224 N   0  0  0  0  0  0  0  0  0  0  0  0
    9.8291  -16.2551   19.9082 C   0  0  0  0  0  0  0  0  0  0  0  0
   11.4478  -16.4968   21.6400 O   0  0  0  0  0  0  0  0  0  0  0  0
   10.5430  -17.1903   22.2261 O   0  0  0  0  0  0  0  0  0  0  0  0
  2  1  1  6
  2  3  1  0
  4  2  1  0
  4  6  1  0
  4  5  1  1
  6  7  2  0
  9  8  1  0
  9 10  2  0
 11  9  1  0
 12 11  1  0
 13 12  1  0
 14 13  1  0
 15 14  1  6
 16  6  1  0
 16 15  1  0
 17 15  1  0
 17 18  2  0
 19 20  1  0
 20 21  2  0
 20 22  1  0
 23 22  1  6
 23 25  1  0
 23 24  1  0
 24 17  1  0
 25 27  1  0
 26 25  2  0
M  END
$$$$
