TRN.pdb
     RDKit          3D

 27 26  0  0  1  0  0  0  0  0999 V2000
   13.7376  -20.8424   19.7461 C   0  0  0  0  0  0  0  0  0  0  0  0
   14.0475  -20.7118   18.2687 C   0  0  1  0  0  0  0  0  0  0  0  0
   14.3455  -21.9207   17.6726 O   0  0  0  0  0  0  0  0  0  0  0  0
   12.8559  -20.0220   17.6243 C   0  0  2  0  0  0  0  0  0  0  0  0
   12.9679  -20.1441   16.2006 N   0  0  0  0  0  0  0  0  0  0  0  0
   12.8295  -18.6302   18.1082 C   0  0  0  0  0  0  0  0  0  0  0  0
   13.5965  -17.8094   17.5445 O   0  0  0  0  0  0  0  0  0  0  0  0
    7.9082  -13.6414   18.1315 N   0  0  0  0  0  0  0  0  0  0  0  0
    7.8423  -13.0978   19.4409 C   0  0  0  0  0  0  0  0  0  0  0  0
    7.6506  -11.8341   19.6578 N   0  0  0  0  0  0  0  0  0  0  0  0
    7.9844  -13.9327   20.6017 N   0  0  0  0  0  0  0  0  0  0  0  0
    8.3286  -15.3452   20.4077 C   0  0  0  0  0  0  0  0  0  0  0  0
    9.7748  -15.3680   20.0231 C   0  0  0  0  0  0  0  0  0  0  0  0
   10.4216  -16.6352   19.7156 C   0  0  0  0  0  0  0  0  0  0  0  0
   11.8671  -16.7948   19.4763 C   0  0  2  0  0  0  0  0  0  0  0  0
   11.9857  -18.2564   19.1461 N   0  0  0  0  0  0  0  0  0  0  0  0
   12.8609  -16.5179   20.4653 C   0  0  0  0  0  0  0  0  0  0  0  0
   12.9998  -15.3328   20.9278 O   0  0  0  0  0  0  0  0  0  0  0  0
    7.6273  -11.5355   20.6586 N   0  0  0  0  0  0  0  0  0  0  0  0
   13.7586  -16.1915   25.6367 C   0  0  0  0  0  0  0  0  0  0  0  0
   14.4570  -16.2248   24.4043 O   0  0  0  0  0  0  0  0  0  0  0  0
   15.6483  -15.8657   24.4102 C   0  0  0  0  0  0  0  0  0  0  0  0
   13.7769  -16.6640   23.2112 C   0  0  2  0  0  0  0  0  0  0  0  0
   14.6872  -17.1465   22.0717 N   0  0  0  0  0  0  0  0  0  0  0  0
   13.7292  -17.4945   21.0061 C   0  0  0  0  0  0  0  0  0  0  0  0
   15.4098  -18.3596   22.4571 O   0  0  0  0  0  0  0  0  0  0  0  0
   16.3412  -18.2918   23.3352 O   0  0  0  0  0  0  0  0  0  0  0  0
  2  1  1  1
  2  3  1  0
  4  2  1  0
  4  6  1  0
  4  5  1  6
  6  7  2  0
  9  8  1  0
  9 10  2  0
 11  9  1  0
 12 11  1  0
 13 12  1  0
 14 13  1  0
 15 14  1  1
 16  6  1  0
 16 15  1  0
 17 15  1  0
 17 18  2  0
 19 20  1  0
 20 21  2  0
 20 22  1  0
 23 22  1  6
 23 25  1  0
 23 24  1  0
 24 17  1  0
 25 27  1  0
 26 25  2  0
M  END
$$$$
