TRN.pdb
     RDKit          3D

 27 26  0  0  1  0  0  0  0  0999 V2000
    7.1256  -14.7197   16.6034 C   0  0  0  0  0  0  0  0  0  0  0  0
    8.0161  -14.6967   17.8291 C   0  0  1  0  0  0  0  0  0  0  0  0
    9.3605  -14.7339   17.5182 O   0  0  0  0  0  0  0  0  0  0  0  0
    7.6369  -13.4618   18.6305 C   0  0  2  0  0  0  0  0  0  0  0  0
    7.9027  -12.2985   17.8367 N   0  0  0  0  0  0  0  0  0  0  0  0
    8.3829  -13.5065   19.9006 C   0  0  0  0  0  0  0  0  0  0  0  0
    9.4378  -12.8270   19.9736 O   0  0  0  0  0  0  0  0  0  0  0  0
    8.7824  -17.6001   27.3404 N   0  0  0  0  0  0  0  0  0  0  0  0
    8.1649  -18.2521   26.2413 C   0  0  0  0  0  0  0  0  0  0  0  0
    8.2846  -19.5265   26.0353 N   0  0  0  0  0  0  0  0  0  0  0  0
    7.3667  -17.5223   25.2952 N   0  0  0  0  0  0  0  0  0  0  0  0
    7.3072  -16.0615   25.4121 C   0  0  0  0  0  0  0  0  0  0  0  0
    8.3292  -15.5296   24.4568 C   0  0  0  0  0  0  0  0  0  0  0  0
    7.9056  -14.9728   23.1803 C   0  0  0  0  0  0  0  0  0  0  0  0
    8.8252  -14.4449   22.1568 C   0  0  2  0  0  0  0  0  0  0  0  0
    7.9259  -14.2732   20.9647 N   0  0  0  0  0  0  0  0  0  0  0  0
    9.9790  -15.1531   21.6991 C   0  0  0  0  0  0  0  0  0  0  0  0
    9.8716  -16.0405   20.7833 O   0  0  0  0  0  0  0  0  0  0  0  0
    7.7990  -19.9056   25.1915 N   0  0  0  0  0  0  0  0  0  0  0  0
   15.1196  -15.0296   19.5250 C   0  0  0  0  0  0  0  0  0  0  0  0
   14.7431  -15.1150   20.8883 O   0  0  0  0  0  0  0  0  0  0  0  0
   15.5630  -15.6148   21.6796 C   0  0  0  0  0  0  0  0  0  0  0  0
   13.4499  -14.6301   21.3024 C   0  0  1  0  0  0  0  0  0  0  0  0
   12.4279  -15.7134   21.6789 N   0  0  0  0  0  0  0  0  0  0  0  0
   11.2870  -14.9306   22.1889 C   0  0  0  0  0  0  0  0  0  0  0  0
   12.9330  -16.5544   22.7651 O   0  0  0  0  0  0  0  0  0  0  0  0
   12.5799  -16.3110   23.9732 O   0  0  0  0  0  0  0  0  0  0  0  0
  2  1  1  6
  2  3  1  0
  4  2  1  0
  4  6  1  0
  4  5  1  6
  6  7  2  0
  9  8  1  0
  9 10  2  0
 11  9  1  0
 12 11  1  0
 13 12  1  0
 14 13  1  0
 15 14  1  1
 16  6  1  0
 16 15  1  0
 17 15  1  0
 17 18  2  0
 19 20  1  0
 20 21  2  0
 20 22  1  0
 23 22  1  6
 23 25  1  0
 23 24  1  0
 24 17  1  0
 25 27  1  0
 26 25  2  0
M  END
$$$$
