TRN.pdb
     RDKit          3D

 27 26  0  0  1  0  0  0  0  0999 V2000
   13.1611  -20.7346   19.2768 C   0  0  0  0  0  0  0  0  0  0  0  0
   13.5159  -20.0406   17.9774 C   0  0  1  0  0  0  0  0  0  0  0  0
   13.7349  -20.9229   16.9387 O   0  0  0  0  0  0  0  0  0  0  0  0
   12.3967  -19.0558   17.6799 C   0  0  2  0  0  0  0  0  0  0  0  0
   12.6462  -18.4464   16.4069 N   0  0  0  0  0  0  0  0  0  0  0  0
   12.3310  -18.1015   18.8010 C   0  0  0  0  0  0  0  0  0  0  0  0
   13.3676  -17.4372   19.0538 O   0  0  0  0  0  0  0  0  0  0  0  0
    7.9474  -13.3677   21.3626 N   0  0  0  0  0  0  0  0  0  0  0  0
    7.2633  -13.4092   20.1197 C   0  0  0  0  0  0  0  0  0  0  0  0
    6.8866  -12.3346   19.4998 N   0  0  0  0  0  0  0  0  0  0  0  0
    6.9541  -14.6589   19.4813 N   0  0  0  0  0  0  0  0  0  0  0  0
    7.3857  -15.9006   20.1319 C   0  0  0  0  0  0  0  0  0  0  0  0
    8.8573  -16.0075   19.8808 C   0  0  0  0  0  0  0  0  0  0  0  0
    9.7067  -16.6967   20.8411 C   0  0  0  0  0  0  0  0  0  0  0  0
   11.1473  -16.9428   20.6511 C   0  0  2  0  0  0  0  0  0  0  0  0
   11.1636  -17.9537   19.5388 N   0  0  0  0  0  0  0  0  0  0  0  0
   11.9978  -17.4539   21.6796 C   0  0  0  0  0  0  0  0  0  0  0  0
   12.0362  -18.7099   21.9219 O   0  0  0  0  0  0  0  0  0  0  0  0
    6.2961  -12.4749   18.6495 N   0  0  0  0  0  0  0  0  0  0  0  0
   16.0757  -18.1948   24.8585 C   0  0  0  0  0  0  0  0  0  0  0  0
   16.0651  -16.9013   24.2802 O   0  0  0  0  0  0  0  0  0  0  0  0
   16.9560  -16.1078   24.6334 C   0  0  0  0  0  0  0  0  0  0  0  0
   15.0435  -16.5568   23.3229 C   0  0  1  0  0  0  0  0  0  0  0  0
   13.6864  -17.2468   23.5281 N   0  0  0  0  0  0  0  0  0  0  0  0
   12.8469  -16.6485   22.4737 C   0  0  0  0  0  0  0  0  0  0  0  0
   13.1129  -16.8972   24.8286 O   0  0  0  0  0  0  0  0  0  0  0  0
   12.2458  -15.9564   24.9078 O   0  0  0  0  0  0  0  0  0  0  0  0
  2  1  1  1
  2  3  1  0
  4  2  1  0
  4  6  1  0
  4  5  1  6
  6  7  2  0
  9  8  1  0
  9 10  2  0
 11  9  1  0
 12 11  1  0
 13 12  1  0
 14 13  1  0
 15 14  1  1
 16  6  1  0
 16 15  1  0
 17 15  1  0
 17 18  2  0
 19 20  1  0
 20 21  2  0
 20 22  1  0
 23 22  1  6
 23 25  1  0
 23 24  1  0
 24 17  1  0
 25 27  1  0
 26 25  2  0
M  END
$$$$
