TRN.pdb
     RDKit          3D

 27 26  0  0  1  0  0  0  0  0999 V2000
   10.3452  -19.9540   23.4909 C   0  0  0  0  0  0  0  0  0  0  0  0
   10.6287  -19.8333   22.0073 C   0  0  1  0  0  0  0  0  0  0  0  0
   10.4108  -21.0106   21.3204 O   0  0  0  0  0  0  0  0  0  0  0  0
    9.7778  -18.6871   21.4845 C   0  0  2  0  0  0  0  0  0  0  0  0
    9.8405  -18.6833   20.0526 N   0  0  0  0  0  0  0  0  0  0  0  0
   10.2659  -17.4458   22.1111 C   0  0  0  0  0  0  0  0  0  0  0  0
   11.4366  -17.0820   21.8339 O   0  0  0  0  0  0  0  0  0  0  0  0
    5.4008  -12.8098   26.9546 N   0  0  0  0  0  0  0  0  0  0  0  0
    6.4307  -12.2905   26.1276 C   0  0  0  0  0  0  0  0  0  0  0  0
    6.8999  -11.0910   26.2759 N   0  0  0  0  0  0  0  0  0  0  0  0
    7.0103  -13.0798   25.0759 N   0  0  0  0  0  0  0  0  0  0  0  0
    6.7157  -14.5160   25.0377 C   0  0  0  0  0  0  0  0  0  0  0  0
    7.4201  -15.0493   23.8296 C   0  0  0  0  0  0  0  0  0  0  0  0
    8.7526  -14.5666   23.4974 C   0  0  0  0  0  0  0  0  0  0  0  0
    9.9643  -15.4054   23.4941 C   0  0  2  0  0  0  0  0  0  0  0  0
    9.4531  -16.7186   22.9711 N   0  0  0  0  0  0  0  0  0  0  0  0
   10.7169  -15.7006   24.6726 C   0  0  0  0  0  0  0  0  0  0  0  0
   11.4785  -14.8131   25.1924 O   0  0  0  0  0  0  0  0  0  0  0  0
    7.6488  -10.8021   25.6073 N   0  0  0  0  0  0  0  0  0  0  0  0
   11.2450  -15.1527   28.5214 C   0  0  0  0  0  0  0  0  0  0  0  0
   10.3256  -16.2262   28.6208 O   0  0  0  0  0  0  0  0  0  0  0  0
    9.5039  -16.1930   29.5546 C   0  0  0  0  0  0  0  0  0  0  0  0
   10.3734  -17.2973   27.6569 C   0  0  2  0  0  0  0  0  0  0  0  0
   11.4564  -17.1647   26.5755 N   0  0  0  0  0  0  0  0  0  0  0  0
   10.6728  -16.9435   25.3461 C   0  0  0  0  0  0  0  0  0  0  0  0
   12.2042  -18.4143   26.4277 O   0  0  0  0  0  0  0  0  0  0  0  0
   11.9636  -19.1840   25.4312 O   0  0  0  0  0  0  0  0  0  0  0  0
  2  1  1  1
  2  3  1  0
  4  2  1  0
  4  6  1  0
  4  5  1  6
  6  7  2  0
  9  8  1  0
  9 10  2  0
 11  9  1  0
 12 11  1  0
 13 12  1  0
 14 13  1  0
 15 14  1  1
 16  6  1  0
 16 15  1  0
 17 15  1  0
 17 18  2  0
 19 20  1  0
 20 21  2  0
 20 22  1  0
 23 22  1  1
 23 25  1  0
 23 24  1  0
 24 17  1  0
 25 27  1  0
 26 25  2  0
M  END
$$$$
