TRN.pdb
     RDKit          3D

 27 26  0  0  1  0  0  0  0  0999 V2000
   10.4930  -20.3716   20.2892 C   0  0  0  0  0  0  0  0  0  0  0  0
   11.3956  -19.9665   19.1415 C   0  0  1  0  0  0  0  0  0  0  0  0
   11.4021  -20.8859   18.1118 O   0  0  0  0  0  0  0  0  0  0  0  0
   10.9458  -18.5868   18.6885 C   0  0  2  0  0  0  0  0  0  0  0  0
   11.6640  -18.2361   17.4988 N   0  0  0  0  0  0  0  0  0  0  0  0
   11.1541  -17.6571   19.8128 C   0  0  0  0  0  0  0  0  0  0  0  0
   12.3311  -17.2768   20.0357 O   0  0  0  0  0  0  0  0  0  0  0  0
    6.9769  -13.4393   17.0333 N   0  0  0  0  0  0  0  0  0  0  0  0
    7.4404  -13.2051   18.3541 C   0  0  0  0  0  0  0  0  0  0  0  0
    8.3974  -12.3701   18.6147 N   0  0  0  0  0  0  0  0  0  0  0  0
    6.8627  -13.8887   19.4783 N   0  0  0  0  0  0  0  0  0  0  0  0
    7.4540  -13.6762   20.8036 C   0  0  0  0  0  0  0  0  0  0  0  0
    8.7980  -14.3336   20.7655 C   0  0  0  0  0  0  0  0  0  0  0  0
    9.0926  -15.4306   21.6758 C   0  0  0  0  0  0  0  0  0  0  0  0
   10.3430  -16.2106   21.6612 C   0  0  2  0  0  0  0  0  0  0  0  0
   10.0828  -17.2277   20.5855 N   0  0  0  0  0  0  0  0  0  0  0  0
   10.8310  -16.9312   22.7948 C   0  0  0  0  0  0  0  0  0  0  0  0
   10.2849  -18.0350   23.1431 O   0  0  0  0  0  0  0  0  0  0  0  0
    8.7234  -12.3361   19.6067 N   0  0  0  0  0  0  0  0  0  0  0  0
   15.2917  -15.8836   23.1969 C   0  0  0  0  0  0  0  0  0  0  0  0
   14.7108  -17.0140   23.8232 O   0  0  0  0  0  0  0  0  0  0  0  0
   14.9994  -18.1346   23.3660 C   0  0  0  0  0  0  0  0  0  0  0  0
   13.8238  -16.8301   24.9449 C   0  0  2  0  0  0  0  0  0  0  0  0
   12.3819  -17.3159   24.7333 N   0  0  0  0  0  0  0  0  0  0  0  0
   11.9250  -16.5100   23.5861 C   0  0  0  0  0  0  0  0  0  0  0  0
   11.5449  -16.9899   25.8890 O   0  0  0  0  0  0  0  0  0  0  0  0
   10.6929  -16.0356   25.8067 O   0  0  0  0  0  0  0  0  0  0  0  0
  2  1  1  1
  2  3  1  0
  4  2  1  0
  4  6  1  0
  4  5  1  6
  6  7  2  0
  9  8  1  0
  9 10  2  0
 11  9  1  0
 12 11  1  0
 13 12  1  0
 14 13  1  0
 15 14  1  1
 16  6  1  0
 16 15  1  0
 17 15  1  0
 17 18  2  0
 19 20  1  0
 20 21  2  0
 20 22  1  0
 23 22  1  6
 23 25  1  0
 23 24  1  0
 24 17  1  0
 25 27  1  0
 26 25  2  0
M  END
$$$$
