TRN.pdb
     RDKit          3D

 27 26  0  0  1  0  0  0  0  0999 V2000
    9.4124  -12.1651   20.5860 C   0  0  0  0  0  0  0  0  0  0  0  0
    8.1433  -12.0549   19.7655 C   0  0  1  0  0  0  0  0  0  0  0  0
    8.2066  -11.0632   18.8073 O   0  0  0  0  0  0  0  0  0  0  0  0
    7.8805  -13.4276   19.1674 C   0  0  2  0  0  0  0  0  0  0  0  0
    6.7353  -13.3444   18.3097 N   0  0  0  0  0  0  0  0  0  0  0  0
    7.7290  -14.3795   20.2823 C   0  0  0  0  0  0  0  0  0  0  0  0
    6.5692  -14.5611   20.7313 O   0  0  0  0  0  0  0  0  0  0  0  0
   11.1936  -21.7042   21.1977 N   0  0  0  0  0  0  0  0  0  0  0  0
   10.8049  -21.5335   22.5520 C   0  0  0  0  0  0  0  0  0  0  0  0
   11.3559  -22.1970   23.5200 N   0  0  0  0  0  0  0  0  0  0  0  0
    9.7716  -20.6047   22.9188 N   0  0  0  0  0  0  0  0  0  0  0  0
    9.1944  -19.7538   21.8727 C   0  0  0  0  0  0  0  0  0  0  0  0
    9.7677  -18.3883   22.0892 C   0  0  0  0  0  0  0  0  0  0  0  0
    9.2821  -17.2664   21.2991 C   0  0  0  0  0  0  0  0  0  0  0  0
    8.6031  -16.0853   21.8611 C   0  0  2  0  0  0  0  0  0  0  0  0
    8.8328  -15.0410   20.8047 N   0  0  0  0  0  0  0  0  0  0  0  0
    8.9676  -15.4910   23.1087 C   0  0  0  0  0  0  0  0  0  0  0  0
    9.6219  -14.3915   23.1341 O   0  0  0  0  0  0  0  0  0  0  0  0
   10.9810  -22.0137   24.4777 N   0  0  0  0  0  0  0  0  0  0  0  0
    5.9687  -12.4221   25.8063 C   0  0  0  0  0  0  0  0  0  0  0  0
    7.1759  -13.1524   25.9356 O   0  0  0  0  0  0  0  0  0  0  0  0
    8.1552  -12.5600   26.4236 C   0  0  0  0  0  0  0  0  0  0  0  0
    7.2266  -14.5277   25.5057 C   0  0  2  0  0  0  0  0  0  0  0  0
    8.6101  -15.1915   25.5772 N   0  0  0  0  0  0  0  0  0  0  0  0
    8.6351  -16.0378   24.3699 C   0  0  0  0  0  0  0  0  0  0  0  0
    8.7141  -16.0592   26.7514 O   0  0  0  0  0  0  0  0  0  0  0  0
    8.2795  -17.2637   26.6911 O   0  0  0  0  0  0  0  0  0  0  0  0
  2  1  1  6
  2  3  1  0
  4  2  1  0
  4  6  1  0
  4  5  1  1
  6  7  2  0
  9  8  1  0
  9 10  2  0
 11  9  1  0
 12 11  1  0
 13 12  1  0
 14 13  1  0
 15 14  1  6
 16  6  1  0
 16 15  1  0
 17 15  1  0
 17 18  2  0
 19 20  1  0
 20 21  2  0
 20 22  1  0
 23 22  1  6
 23 25  1  0
 23 24  1  0
 24 17  1  0
 25 27  1  0
 26 25  2  0
M  END
$$$$
