TRN.pdb
     RDKit          3D

 27 26  0  0  1  0  0  0  0  0999 V2000
    8.3537  -12.5346   18.9104 C   0  0  0  0  0  0  0  0  0  0  0  0
    8.7257  -13.8498   19.5646 C   0  0  1  0  0  0  0  0  0  0  0  0
    9.4091  -13.6854   20.7526 O   0  0  0  0  0  0  0  0  0  0  0  0
    7.4384  -14.6399   19.7369 C   0  0  2  0  0  0  0  0  0  0  0  0
    6.5527  -13.8976   20.5846 N   0  0  0  0  0  0  0  0  0  0  0  0
    7.7969  -15.9703   20.2597 C   0  0  0  0  0  0  0  0  0  0  0  0
    7.5933  -16.1834   21.4815 O   0  0  0  0  0  0  0  0  0  0  0  0
   11.0758  -18.0889   15.3853 N   0  0  0  0  0  0  0  0  0  0  0  0
   11.9126  -19.1992   15.6706 C   0  0  0  0  0  0  0  0  0  0  0  0
   13.1511  -19.2493   15.2904 N   0  0  0  0  0  0  0  0  0  0  0  0
   11.4214  -20.3326   16.4048 N   0  0  0  0  0  0  0  0  0  0  0  0
   10.0480  -20.2900   16.9179 C   0  0  0  0  0  0  0  0  0  0  0  0
   10.0794  -19.3784   18.1045 C   0  0  0  0  0  0  0  0  0  0  0  0
    8.8596  -19.1313   18.8593 C   0  0  0  0  0  0  0  0  0  0  0  0
    8.7724  -18.2425   20.0316 C   0  0  2  0  0  0  0  0  0  0  0  0
    8.3370  -16.9387   19.4233 N   0  0  0  0  0  0  0  0  0  0  0  0
    9.8869  -17.9469   20.8761 C   0  0  0  0  0  0  0  0  0  0  0  0
   10.5932  -16.8996   20.6712 O   0  0  0  0  0  0  0  0  0  0  0  0
   13.6819  -20.1084   15.5578 N   0  0  0  0  0  0  0  0  0  0  0  0
   11.5660  -15.5774   22.9777 C   0  0  0  0  0  0  0  0  0  0  0  0
   10.9337  -16.2504   24.0523 O   0  0  0  0  0  0  0  0  0  0  0  0
   10.5164  -15.5569   24.9973 C   0  0  0  0  0  0  0  0  0  0  0  0
   10.7989  -17.6854   24.0141 C   0  0  2  0  0  0  0  0  0  0  0  0
   11.4413  -18.3771   22.8022 N   0  0  0  0  0  0  0  0  0  0  0  0
   10.2776  -18.7465   21.9753 C   0  0  0  0  0  0  0  0  0  0  0  0
   12.1300  -19.6044   23.2044 O   0  0  0  0  0  0  0  0  0  0  0  0
   13.2472  -19.5301   23.8286 O   0  0  0  0  0  0  0  0  0  0  0  0
  2  1  1  1
  2  3  1  0
  4  2  1  0
  4  6  1  0
  4  5  1  1
  6  7  2  0
  9  8  1  0
  9 10  2  0
 11  9  1  0
 12 11  1  0
 13 12  1  0
 14 13  1  0
 15 14  1  6
 16  6  1  0
 16 15  1  0
 17 15  1  0
 17 18  2  0
 19 20  1  0
 20 21  2  0
 20 22  1  0
 23 22  1  6
 23 25  1  0
 23 24  1  0
 24 17  1  0
 25 27  1  0
 26 25  2  0
M  END
$$$$
