KWE.pdb
     RDKit          3D

 33 34  0  0  1  0  0  0  0  0999 V2000
   28.8608  -23.6884  -16.8459 N   0  0  0  0  0  0  0  0  0  0  0  0
   28.3938  -22.3480  -16.6224 C   0  0  1  0  0  0  0  0  0  0  0  0
   27.7109  -21.8080  -17.8120 C   0  0  0  0  0  0  0  0  0  0  0  0
   27.6239  -22.8004  -18.9253 C   0  0  0  0  0  0  0  0  0  0  0  0
   28.7269  -22.7694  -19.9286 C   0  0  0  0  0  0  0  0  0  0  0  0
   28.2862  -23.7515  -21.0455 C   0  0  0  0  0  0  0  0  0  0  0  0
   29.3457  -23.7673  -22.0087 N   0  0  0  0  0  0  0  0  0  0  0  0
   27.5472  -22.3029  -15.3894 C   0  0  0  0  0  0  0  0  0  0  0  0
   26.5307  -23.0289  -15.3183 O   0  0  0  0  0  0  0  0  0  0  0  0
   27.8593  -21.4628  -14.2969 N   0  0  0  0  0  0  0  0  0  0  0  0
   27.0774  -21.2744  -13.1276 C   0  0  1  0  0  0  0  0  0  0  0  0
   27.6117  -20.2767  -12.1141 C   0  0  0  0  0  0  0  0  0  0  0  0
   26.9032  -20.2368  -10.8489 C   0  0  0  0  0  0  0  0  0  0  0  0
   25.6034  -19.9999  -10.5610 C   0  0  0  0  0  0  0  0  0  0  0  0
   25.3794  -20.0708   -9.2164 N   0  0  0  0  0  0  0  0  0  0  0  0
   26.5543  -20.3570   -8.6470 C   0  0  0  0  0  0  0  0  0  0  0  0
   26.9245  -20.5489   -7.3232 C   0  0  0  0  0  0  0  0  0  0  0  0
   28.2153  -20.8447   -6.9502 C   0  0  0  0  0  0  0  0  0  0  0  0
   29.1735  -20.9534   -7.9343 C   0  0  0  0  0  0  0  0  0  0  0  0
   28.8209  -20.7650   -9.2589 C   0  0  0  0  0  0  0  0  0  0  0  0
   27.5244  -20.4694   -9.6122 C   0  0  0  0  0  0  0  0  0  0  0  0
   25.6654  -20.9193  -13.3785 C   0  0  0  0  0  0  0  0  0  0  0  0
   25.4664  -19.8754  -14.0706 O   0  0  0  0  0  0  0  0  0  0  0  0
   24.5641  -21.6379  -12.9159 N   0  0  0  0  0  0  0  0  0  0  0  0
   23.2201  -21.1844  -13.2879 C   0  0  1  0  0  0  0  0  0  0  0  0
   22.4459  -22.3386  -13.8881 C   0  0  0  0  0  0  0  0  0  0  0  0
   22.8688  -22.6113  -15.3035 C   0  0  0  0  0  0  0  0  0  0  0  0
   21.7277  -22.3753  -16.2481 C   0  0  0  0  0  0  0  0  0  0  0  0
   21.6000  -21.3124  -16.8698 O   0  0  0  0  0  0  0  0  0  0  0  0
   22.6059  -20.6508  -12.0599 C   0  0  0  0  0  0  0  0  0  0  0  0
   23.1260  -20.9094  -10.8103 O   0  0  0  0  0  0  0  0  0  0  0  0
   20.8048  -23.3898  -16.4120 O   0  0  0  0  0  0  0  0  0  0  0  0
   21.5800  -19.9418  -12.1397 O   0  0  0  0  0  0  0  0  0  0  0  0
  2  1  1  6
  2  3  1  0
  3  4  1  0
  4  5  1  0
  5  6  1  0
  6  7  1  0
  8  2  1  0
  8  9  2  0
 10  8  1  0
 11 10  1  0
 11 12  1  1
 13 12  1  0
 13 14  2  0
 15 14  1  0
 16 15  1  0
 17 16  2  0
 18 17  1  0
 19 18  2  0
 19 20  1  0
 20 21  2  0
 21 16  1  0
 21 13  1  0
 22 11  1  0
 23 22  2  0
 24 22  1  0
 25 24  1  0
 25 26  1  1
 26 27  1  0
 27 28  1  0
 28 29  2  0
 28 32  1  0
 30 31  1  0
 30 25  1  0
 33 30  2  0
M  END
$$$$
