KWE.pdb
     RDKit          3D

 33 34  0  0  1  0  0  0  0  0999 V2000
   29.0314  -21.8242  -14.7027 N   0  0  0  0  0  0  0  0  0  0  0  0
   27.9186  -20.9154  -14.7223 C   0  0  1  0  0  0  0  0  0  0  0  0
   27.1466  -21.0330  -15.9727 C   0  0  0  0  0  0  0  0  0  0  0  0
   27.9637  -20.7235  -17.1845 C   0  0  0  0  0  0  0  0  0  0  0  0
   28.6890  -21.8692  -17.8053 C   0  0  0  0  0  0  0  0  0  0  0  0
   29.4511  -21.2605  -19.0115 C   0  0  0  0  0  0  0  0  0  0  0  0
   30.3035  -22.2959  -19.5131 N   0  0  0  0  0  0  0  0  0  0  0  0
   27.0823  -21.1082  -13.4967 C   0  0  0  0  0  0  0  0  0  0  0  0
   25.9615  -21.6545  -13.6005 O   0  0  0  0  0  0  0  0  0  0  0  0
   27.5185  -20.6912  -12.2189 N   0  0  0  0  0  0  0  0  0  0  0  0
   26.7831  -20.7739  -11.0080 C   0  0  1  0  0  0  0  0  0  0  0  0
   27.3967  -20.0877   -9.7995 C   0  0  0  0  0  0  0  0  0  0  0  0
   26.8210  -20.4528   -8.5191 C   0  0  0  0  0  0  0  0  0  0  0  0
   25.6467  -21.0450   -8.2049 C   0  0  0  0  0  0  0  0  0  0  0  0
   25.5241  -21.2025   -6.8546 N   0  0  0  0  0  0  0  0  0  0  0  0
   26.6370  -20.7032   -6.3082 C   0  0  0  0  0  0  0  0  0  0  0  0
   27.0600  -20.5972   -4.9906 C   0  0  0  0  0  0  0  0  0  0  0  0
   28.2691  -20.0403   -4.6431 C   0  0  0  0  0  0  0  0  0  0  0  0
   29.0877  -19.5712   -5.6472 C   0  0  0  0  0  0  0  0  0  0  0  0
   28.6808  -19.6693   -6.9660 C   0  0  0  0  0  0  0  0  0  0  0  0
   27.4675  -20.2293   -7.2938 C   0  0  0  0  0  0  0  0  0  0  0  0
   25.3833  -20.3107  -11.1018 C   0  0  0  0  0  0  0  0  0  0  0  0
   25.1935  -19.0681  -10.9333 O   0  0  0  0  0  0  0  0  0  0  0  0
   24.2838  -21.1289  -11.3567 N   0  0  0  0  0  0  0  0  0  0  0  0
   22.9593  -20.5115  -11.4784 C   0  0  1  0  0  0  0  0  0  0  0  0
   22.2102  -21.1467  -12.6305 C   0  0  0  0  0  0  0  0  0  0  0  0
   22.8974  -20.8950  -13.9424 C   0  0  0  0  0  0  0  0  0  0  0  0
   22.3056  -19.6974  -14.6248 C   0  0  0  0  0  0  0  0  0  0  0  0
   21.1457  -19.3245  -14.4060 O   0  0  0  0  0  0  0  0  0  0  0  0
   22.2913  -20.6994  -10.1790 C   0  0  0  0  0  0  0  0  0  0  0  0
   21.0631  -20.1399   -9.9006 O   0  0  0  0  0  0  0  0  0  0  0  0
   23.0990  -19.0067  -15.5199 O   0  0  0  0  0  0  0  0  0  0  0  0
   22.8455  -21.3835   -9.2923 O   0  0  0  0  0  0  0  0  0  0  0  0
  2  1  1  6
  2  3  1  0
  3  4  1  0
  4  5  1  0
  5  6  1  0
  6  7  1  0
  8  2  1  0
  8  9  2  0
 10  8  1  0
 11 10  1  0
 11 12  1  1
 13 12  1  0
 13 14  2  0
 15 14  1  0
 16 15  1  0
 17 16  2  0
 18 17  1  0
 19 18  2  0
 19 20  1  0
 20 21  2  0
 21 16  1  0
 21 13  1  0
 22 11  1  0
 23 22  2  0
 24 22  1  0
 25 24  1  0
 25 26  1  6
 26 27  1  0
 27 28  1  0
 28 29  2  0
 28 32  1  0
 30 31  1  0
 30 25  1  0
 33 30  2  0
M  END
$$$$
