KWE.pdb
     RDKit          3D

 33 34  0  0  1  0  0  0  0  0999 V2000
   28.1590  -21.5194  -17.0773 N   0  0  0  0  0  0  0  0  0  0  0  0
   26.8398  -22.0880  -17.0432 C   0  0  1  0  0  0  0  0  0  0  0  0
   26.7603  -23.2127  -16.0935 C   0  0  0  0  0  0  0  0  0  0  0  0
   27.7794  -24.2701  -16.3675 C   0  0  0  0  0  0  0  0  0  0  0  0
   27.2609  -25.6534  -16.5718 C   0  0  0  0  0  0  0  0  0  0  0  0
   28.4997  -26.4946  -16.9770 C   0  0  0  0  0  0  0  0  0  0  0  0
   28.0610  -27.8566  -17.0316 N   0  0  0  0  0  0  0  0  0  0  0  0
   25.8310  -21.0173  -16.7697 C   0  0  0  0  0  0  0  0  0  0  0  0
   25.3840  -20.8799  -15.6092 O   0  0  0  0  0  0  0  0  0  0  0  0
   25.3636  -20.1518  -17.7841 N   0  0  0  0  0  0  0  0  0  0  0  0
   24.2970  -19.2221  -17.6744 C   0  0  1  0  0  0  0  0  0  0  0  0
   24.1963  -18.1799  -18.7752 C   0  0  0  0  0  0  0  0  0  0  0  0
   23.1707  -17.1720  -18.5844 C   0  0  0  0  0  0  0  0  0  0  0  0
   22.6805  -16.5988  -17.4621 C   0  0  0  0  0  0  0  0  0  0  0  0
   21.7149  -15.6821  -17.7627 N   0  0  0  0  0  0  0  0  0  0  0  0
   21.5938  -15.6759  -19.0938 C   0  0  0  0  0  0  0  0  0  0  0  0
   20.7789  -14.9491  -19.9506 C   0  0  0  0  0  0  0  0  0  0  0  0
   20.8199  -15.0996  -21.3175 C   0  0  0  0  0  0  0  0  0  0  0  0
   21.7070  -16.0091  -21.8506 C   0  0  0  0  0  0  0  0  0  0  0  0
   22.5263  -16.7418  -21.0102 C   0  0  0  0  0  0  0  0  0  0  0  0
   22.4705  -16.5774  -19.6453 C   0  0  0  0  0  0  0  0  0  0  0  0
   22.9581  -19.8308  -17.5338 C   0  0  0  0  0  0  0  0  0  0  0  0
   22.7762  -20.9276  -18.1441 O   0  0  0  0  0  0  0  0  0  0  0  0
   21.9069  -19.2926  -16.7931 N   0  0  0  0  0  0  0  0  0  0  0  0
   20.6681  -20.0664  -16.6631 C   0  0  1  0  0  0  0  0  0  0  0  0
   20.9262  -21.2940  -15.8155 C   0  0  0  0  0  0  0  0  0  0  0  0
   19.6786  -22.1098  -15.6299 C   0  0  0  0  0  0  0  0  0  0  0  0
   19.9851  -23.3789  -14.8912 C   0  0  0  0  0  0  0  0  0  0  0  0
   21.1130  -23.6200  -14.4416 O   0  0  0  0  0  0  0  0  0  0  0  0
   19.6686  -19.1570  -16.0767 C   0  0  0  0  0  0  0  0  0  0  0  0
   19.8291  -18.6036  -14.8249 O   0  0  0  0  0  0  0  0  0  0  0  0
   18.9611  -24.2901  -14.7207 O   0  0  0  0  0  0  0  0  0  0  0  0
   18.6380  -18.8717  -16.7230 O   0  0  0  0  0  0  0  0  0  0  0  0
  2  1  1  1
  2  3  1  0
  3  4  1  0
  4  5  1  0
  5  6  1  0
  6  7  1  0
  8  2  1  0
  8  9  2  0
 10  8  1  0
 11 10  1  0
 11 12  1  6
 13 12  1  0
 13 14  2  0
 15 14  1  0
 16 15  1  0
 17 16  2  0
 18 17  1  0
 19 18  2  0
 19 20  1  0
 20 21  2  0
 21 16  1  0
 21 13  1  0
 22 11  1  0
 23 22  2  0
 24 22  1  0
 25 24  1  0
 25 26  1  1
 26 27  1  0
 27 28  1  0
 28 29  2  0
 28 32  1  0
 30 31  1  0
 30 25  1  0
 33 30  2  0
M  END
$$$$
