KWE.pdb
     RDKit          3D

 33 34  0  0  1  0  0  0  0  0999 V2000
   28.4265  -22.4511  -15.7105 N   0  0  0  0  0  0  0  0  0  0  0  0
   27.7313  -21.2658  -15.2904 C   0  0  1  0  0  0  0  0  0  0  0  0
   27.0712  -20.5954  -16.4252 C   0  0  0  0  0  0  0  0  0  0  0  0
   28.0458  -20.0542  -17.4196 C   0  0  0  0  0  0  0  0  0  0  0  0
   28.6435  -18.7243  -17.1058 C   0  0  0  0  0  0  0  0  0  0  0  0
   29.5122  -18.3690  -18.3409 C   0  0  0  0  0  0  0  0  0  0  0  0
   30.1943  -17.1524  -18.0168 N   0  0  0  0  0  0  0  0  0  0  0  0
   26.7891  -21.5964  -14.1760 C   0  0  0  0  0  0  0  0  0  0  0  0
   26.0925  -22.6330  -14.2510 O   0  0  0  0  0  0  0  0  0  0  0  0
   26.6589  -20.7721  -13.0357 N   0  0  0  0  0  0  0  0  0  0  0  0
   25.7754  -20.9758  -11.9440 C   0  0  1  0  0  0  0  0  0  0  0  0
   26.1058  -20.2301  -10.6623 C   0  0  0  0  0  0  0  0  0  0  0  0
   27.3048  -20.6738   -9.9770 C   0  0  0  0  0  0  0  0  0  0  0  0
   28.3638  -21.3957  -10.4080 C   0  0  0  0  0  0  0  0  0  0  0  0
   29.2756  -21.5717   -9.4076 N   0  0  0  0  0  0  0  0  0  0  0  0
   28.7858  -20.9517   -8.3296 C   0  0  0  0  0  0  0  0  0  0  0  0
   29.2771  -20.7993   -7.0405 C   0  0  0  0  0  0  0  0  0  0  0  0
   28.5979  -20.1051   -6.0660 C   0  0  0  0  0  0  0  0  0  0  0  0
   27.3827  -19.5414   -6.3888 C   0  0  0  0  0  0  0  0  0  0  0  0
   26.8788  -19.6843   -7.6695 C   0  0  0  0  0  0  0  0  0  0  0  0
   27.5729  -20.3827   -8.6306 C   0  0  0  0  0  0  0  0  0  0  0  0
   24.3528  -20.7110  -12.2421 C   0  0  0  0  0  0  0  0  0  0  0  0
   24.1054  -19.6447  -12.8826 O   0  0  0  0  0  0  0  0  0  0  0  0
   23.2902  -21.5351  -11.8747 N   0  0  0  0  0  0  0  0  0  0  0  0
   21.9334  -21.1606  -12.2859 C   0  0  1  0  0  0  0  0  0  0  0  0
   21.0271  -22.3701  -12.1973 C   0  0  0  0  0  0  0  0  0  0  0  0
   19.6188  -22.0361  -12.5994 C   0  0  0  0  0  0  0  0  0  0  0  0
   18.7684  -23.2718  -12.6122 C   0  0  0  0  0  0  0  0  0  0  0  0
   19.2421  -24.3960  -12.4019 O   0  0  0  0  0  0  0  0  0  0  0  0
   21.5186  -20.0595  -11.3996 C   0  0  0  0  0  0  0  0  0  0  0  0
   20.6929  -19.0444  -11.8319 O   0  0  0  0  0  0  0  0  0  0  0  0
   17.4192  -23.1245  -12.8686 O   0  0  0  0  0  0  0  0  0  0  0  0
   21.9223  -20.0321  -10.2174 O   0  0  0  0  0  0  0  0  0  0  0  0
  2  1  1  6
  2  3  1  0
  3  4  1  0
  4  5  1  0
  5  6  1  0
  6  7  1  0
  8  2  1  0
  8  9  2  0
 10  8  1  0
 11 10  1  0
 11 12  1  1
 13 12  1  0
 13 14  2  0
 15 14  1  0
 16 15  1  0
 17 16  2  0
 18 17  1  0
 19 18  2  0
 19 20  1  0
 20 21  2  0
 21 16  1  0
 21 13  1  0
 22 11  1  0
 23 22  2  0
 24 22  1  0
 25 24  1  0
 25 26  1  1
 26 27  1  0
 27 28  1  0
 28 29  2  0
 28 32  1  0
 30 31  1  0
 30 25  1  0
 33 30  2  0
M  END
$$$$
