KWE.pdb
     RDKit          3D

 33 34  0  0  1  0  0  0  0  0999 V2000
   25.7419  -32.8036  -14.2406 N   0  0  0  0  0  0  0  0  0  0  0  0
   25.3659  -33.7593  -13.2357 C   0  0  1  0  0  0  0  0  0  0  0  0
   26.2148  -34.9633  -13.2900 C   0  0  0  0  0  0  0  0  0  0  0  0
   25.5156  -36.1330  -13.9020 C   0  0  0  0  0  0  0  0  0  0  0  0
   26.2205  -37.4446  -13.8186 C   0  0  0  0  0  0  0  0  0  0  0  0
   25.3208  -38.4384  -14.5991 C   0  0  0  0  0  0  0  0  0  0  0  0
   25.9352  -39.7253  -14.4690 N   0  0  0  0  0  0  0  0  0  0  0  0
   25.3598  -33.1065  -11.8893 C   0  0  0  0  0  0  0  0  0  0  0  0
   26.2038  -32.2182  -11.6363 O   0  0  0  0  0  0  0  0  0  0  0  0
   24.4275  -33.4620  -10.8887 N   0  0  0  0  0  0  0  0  0  0  0  0
   24.3573  -32.9312   -9.5744 C   0  0  1  0  0  0  0  0  0  0  0  0
   22.9822  -32.4974   -9.0961 C   0  0  0  0  0  0  0  0  0  0  0  0
   22.6034  -31.1408   -9.4428 C   0  0  0  0  0  0  0  0  0  0  0  0
   23.3197  -30.1203   -9.9664 C   0  0  0  0  0  0  0  0  0  0  0  0
   22.5411  -29.0119  -10.1345 N   0  0  0  0  0  0  0  0  0  0  0  0
   21.3156  -29.3370   -9.7116 C   0  0  0  0  0  0  0  0  0  0  0  0
   20.1310  -28.6163   -9.6497 C   0  0  0  0  0  0  0  0  0  0  0  0
   18.9591  -29.1565   -9.1725 C   0  0  0  0  0  0  0  0  0  0  0  0
   18.9684  -30.4649   -8.7406 C   0  0  0  0  0  0  0  0  0  0  0  0
   20.1411  -31.1971   -8.7956 C   0  0  0  0  0  0  0  0  0  0  0  0
   21.3035  -30.6391   -9.2759 C   0  0  0  0  0  0  0  0  0  0  0  0
   24.9235  -33.8030   -8.5245 C   0  0  0  0  0  0  0  0  0  0  0  0
   24.6153  -35.0314   -8.5921 O   0  0  0  0  0  0  0  0  0  0  0  0
   25.7534  -33.3753   -7.4893 N   0  0  0  0  0  0  0  0  0  0  0  0
   26.1951  -34.3539   -6.4905 C   0  0  1  0  0  0  0  0  0  0  0  0
   27.2989  -33.7515   -5.6474 C   0  0  0  0  0  0  0  0  0  0  0  0
   27.8302  -34.7373   -4.6462 C   0  0  0  0  0  0  0  0  0  0  0  0
   28.9922  -34.1533   -3.8986 C   0  0  0  0  0  0  0  0  0  0  0  0
   28.8698  -33.6826   -2.7603 O   0  0  0  0  0  0  0  0  0  0  0  0
   25.0014  -34.7182   -5.7080 C   0  0  0  0  0  0  0  0  0  0  0  0
   24.8079  -35.9923   -5.2200 O   0  0  0  0  0  0  0  0  0  0  0  0
   30.2255  -34.1524   -4.5205 O   0  0  0  0  0  0  0  0  0  0  0  0
   24.1287  -33.8550   -5.4740 O   0  0  0  0  0  0  0  0  0  0  0  0
  2  1  1  6
  2  3  1  0
  3  4  1  0
  4  5  1  0
  5  6  1  0
  6  7  1  0
  8  2  1  0
  8  9  2  0
 10  8  1  0
 11 10  1  0
 11 12  1  1
 13 12  1  0
 13 14  2  0
 15 14  1  0
 16 15  1  0
 17 16  2  0
 18 17  1  0
 19 18  2  0
 19 20  1  0
 20 21  2  0
 21 16  1  0
 21 13  1  0
 22 11  1  0
 23 22  2  0
 24 22  1  0
 25 24  1  0
 25 26  1  1
 26 27  1  0
 27 28  1  0
 28 29  2  0
 28 32  1  0
 30 31  1  0
 30 25  1  0
 33 30  2  0
M  END
$$$$
