KWE.pdb
     RDKit          3D

 33 34  0  0  1  0  0  0  0  0999 V2000
   23.7926  -12.7173  -17.9232 N   0  0  0  0  0  0  0  0  0  0  0  0
   22.9074  -11.6106  -18.1600 C   0  0  1  0  0  0  0  0  0  0  0  0
   21.4941  -12.0226  -18.0825 C   0  0  0  0  0  0  0  0  0  0  0  0
   21.1926  -13.2077  -18.9406 C   0  0  0  0  0  0  0  0  0  0  0  0
   21.4093  -13.0372  -20.4063 C   0  0  0  0  0  0  0  0  0  0  0  0
   21.0080  -14.3969  -21.0360 C   0  0  0  0  0  0  0  0  0  0  0  0
   21.2547  -14.2781  -22.4415 N   0  0  0  0  0  0  0  0  0  0  0  0
   23.2413  -10.4843  -17.2333 C   0  0  0  0  0  0  0  0  0  0  0  0
   22.9653  -10.5900  -16.0175 O   0  0  0  0  0  0  0  0  0  0  0  0
   23.8612   -9.2987  -17.6880 N   0  0  0  0  0  0  0  0  0  0  0  0
   24.2395   -8.1860  -16.8925 C   0  0  1  0  0  0  0  0  0  0  0  0
   25.5415   -7.5003  -17.2699 C   0  0  0  0  0  0  0  0  0  0  0  0
   26.6887   -8.3775  -17.4063 C   0  0  0  0  0  0  0  0  0  0  0  0
   27.7060   -8.3845  -18.2971 C   0  0  0  0  0  0  0  0  0  0  0  0
   28.5771   -9.4026  -18.0368 N   0  0  0  0  0  0  0  0  0  0  0  0
   28.1036  -10.0474  -16.9661 C   0  0  0  0  0  0  0  0  0  0  0  0
   28.5707  -11.1478  -16.2608 C   0  0  0  0  0  0  0  0  0  0  0  0
   27.9162  -11.6564  -15.1628 C   0  0  0  0  0  0  0  0  0  0  0  0
   26.7518  -11.0448  -14.7521 C   0  0  0  0  0  0  0  0  0  0  0  0
   26.2726   -9.9468  -15.4444 C   0  0  0  0  0  0  0  0  0  0  0  0
   26.9413   -9.4529  -16.5407 C   0  0  0  0  0  0  0  0  0  0  0  0
   23.2131   -7.1293  -16.7793 C   0  0  0  0  0  0  0  0  0  0  0  0
   22.8310   -6.6027  -17.8680 O   0  0  0  0  0  0  0  0  0  0  0  0
   22.6507   -6.6832  -15.5844 N   0  0  0  0  0  0  0  0  0  0  0  0
   21.6093   -5.6522  -15.6376 C   0  0  1  0  0  0  0  0  0  0  0  0
   20.2659   -6.2749  -15.3224 C   0  0  0  0  0  0  0  0  0  0  0  0
   19.1962   -5.2318  -15.1662 C   0  0  0  0  0  0  0  0  0  0  0  0
   17.8782   -5.8736  -14.8484 C   0  0  0  0  0  0  0  0  0  0  0  0
   17.1358   -5.4404  -13.9575 O   0  0  0  0  0  0  0  0  0  0  0  0
   22.0054   -4.6102  -14.6745 C   0  0  0  0  0  0  0  0  0  0  0  0
   22.9476   -4.8396  -13.6954 O   0  0  0  0  0  0  0  0  0  0  0  0
   17.5041   -6.9798  -15.5860 O   0  0  0  0  0  0  0  0  0  0  0  0
   21.4769   -3.4795  -14.7351 O   0  0  0  0  0  0  0  0  0  0  0  0
  2  1  1  1
  2  3  1  0
  3  4  1  0
  4  5  1  0
  5  6  1  0
  6  7  1  0
  8  2  1  0
  8  9  2  0
 10  8  1  0
 11 10  1  0
 11 12  1  6
 13 12  1  0
 13 14  2  0
 15 14  1  0
 16 15  1  0
 17 16  2  0
 18 17  1  0
 19 18  2  0
 19 20  1  0
 20 21  2  0
 21 16  1  0
 21 13  1  0
 22 11  1  0
 23 22  2  0
 24 22  1  0
 25 24  1  0
 25 26  1  1
 26 27  1  0
 27 28  1  0
 28 29  2  0
 28 32  1  0
 30 31  1  0
 30 25  1  0
 33 30  2  0
M  END
$$$$
