KWN.pdb
     RDKit          3D

 32 33  0  0  1  0  0  0  0  0999 V2000
   25.2762  -19.8100  -12.4967 N   0  0  0  0  0  0  0  0  0  0  0  0
   25.3355  -21.2190  -12.2863 C   0  0  1  0  0  0  0  0  0  0  0  0
   26.5531  -21.8443  -12.8315 C   0  0  0  0  0  0  0  0  0  0  0  0
   26.7678  -21.6028  -14.2843 C   0  0  0  0  0  0  0  0  0  0  0  0
   27.7875  -20.5437  -14.5525 C   0  0  0  0  0  0  0  0  0  0  0  0
   27.8760  -20.3636  -16.0775 C   0  0  0  0  0  0  0  0  0  0  0  0
   29.0722  -21.0477  -16.5098 N   0  0  0  0  0  0  0  0  0  0  0  0
   25.0754  -21.5896  -10.8584 C   0  0  0  0  0  0  0  0  0  0  0  0
   25.2107  -22.7792  -10.4702 O   0  0  0  0  0  0  0  0  0  0  0  0
   24.6691  -20.6460   -9.8733 N   0  0  0  0  0  0  0  0  0  0  0  0
   24.4105  -21.0113   -8.5011 C   0  0  1  0  0  0  0  0  0  0  0  0
   24.9643  -20.0096   -7.5162 C   0  0  0  0  0  0  0  0  0  0  0  0
   26.4203  -19.9725   -7.4350 C   0  0  0  0  0  0  0  0  0  0  0  0
   27.3389  -19.9994   -8.4549 C   0  0  0  0  0  0  0  0  0  0  0  0
   28.5678  -19.9443   -7.9135 N   0  0  0  0  0  0  0  0  0  0  0  0
   28.4738  -19.8828   -6.5843 C   0  0  0  0  0  0  0  0  0  0  0  0
   29.4007  -19.8118   -5.5623 C   0  0  0  0  0  0  0  0  0  0  0  0
   29.0644  -19.7564   -4.2358 C   0  0  0  0  0  0  0  0  0  0  0  0
   27.7126  -19.7729   -3.9101 C   0  0  0  0  0  0  0  0  0  0  0  0
   26.7798  -19.8438   -4.9262 C   0  0  0  0  0  0  0  0  0  0  0  0
   27.1404  -19.8992   -6.2648 C   0  0  0  0  0  0  0  0  0  0  0  0
   22.9315  -21.0132   -8.3106 C   0  0  0  0  0  0  0  0  0  0  0  0
   22.2592  -20.1130   -8.9142 O   0  0  0  0  0  0  0  0  0  0  0  0
   18.0204  -22.6393   -8.0800 N   0  0  0  0  0  0  0  0  0  0  0  0
   18.9673  -22.8514   -9.1106 C   0  0  0  0  0  0  0  0  0  0  0  0
   18.4965  -23.2511  -10.2242 O   0  0  0  0  0  0  0  0  0  0  0  0
   20.4184  -22.6497   -9.0041 C   0  0  0  0  0  0  0  0  0  0  0  0
   20.7735  -22.1064   -7.6612 C   0  0  2  0  0  0  0  0  0  0  0  0
   22.2254  -21.9232   -7.5235 N   0  0  0  0  0  0  0  0  0  0  0  0
   20.3444  -23.0215   -6.5873 C   0  0  0  0  0  0  0  0  0  0  0  0
   19.1750  -23.2800   -6.2670 O   0  0  0  0  0  0  0  0  0  0  0  0
   21.3383  -23.6786   -5.8372 O   0  0  0  0  0  0  0  0  0  0  0  0
  2  3  1  0
  2  1  1  1
  3  4  1  0
  5  4  1  0
  6  5  1  0
  7  6  1  0
  8  2  1  0
  8  9  2  0
 10  8  1  0
 11 22  1  0
 11 10  1  0
 11 12  1  1
 13 14  2  0
 13 12  1  0
 15 14  1  0
 16 21  2  0
 16 15  1  0
 17 16  1  0
 18 19  1  0
 18 17  2  0
 19 20  2  0
 20 21  1  0
 21 13  1  0
 22 29  1  0
 23 22  2  0
 24 25  1  0
 25 27  1  0
 26 25  2  0
 28 27  1  6
 28 30  1  0
 29 28  1  0
 30 31  2  0
 30 32  1  0
M  END
$$$$
