KWN.pdb
     RDKit          3D

 32 33  0  0  1  0  0  0  0  0999 V2000
   26.9657  -21.0680  -17.8643 N   0  0  0  0  0  0  0  0  0  0  0  0
   27.6221  -22.1403  -17.1917 C   0  0  1  0  0  0  0  0  0  0  0  0
   29.0776  -22.1725  -17.4169 C   0  0  0  0  0  0  0  0  0  0  0  0
   29.5029  -21.6625  -18.7489 C   0  0  0  0  0  0  0  0  0  0  0  0
   30.0909  -20.2900  -18.6845 C   0  0  0  0  0  0  0  0  0  0  0  0
   30.5819  -19.9314  -20.0974 C   0  0  0  0  0  0  0  0  0  0  0  0
   31.1186  -18.5925  -20.0254 N   0  0  0  0  0  0  0  0  0  0  0  0
   27.2516  -22.2103  -15.7419 C   0  0  0  0  0  0  0  0  0  0  0  0
   27.7348  -23.1045  -14.9995 O   0  0  0  0  0  0  0  0  0  0  0  0
   26.3531  -21.2947  -15.1253 N   0  0  0  0  0  0  0  0  0  0  0  0
   26.0461  -21.3309  -13.7154 C   0  0  1  0  0  0  0  0  0  0  0  0
   26.6747  -20.1899  -12.9518 C   0  0  0  0  0  0  0  0  0  0  0  0
   26.4046  -20.1912  -11.5182 C   0  0  0  0  0  0  0  0  0  0  0  0
   25.2628  -19.8093  -10.8585 C   0  0  0  0  0  0  0  0  0  0  0  0
   25.4632  -19.9807   -9.5406 N   0  0  0  0  0  0  0  0  0  0  0  0
   26.6904  -20.4585   -9.3284 C   0  0  0  0  0  0  0  0  0  0  0  0
   27.3978  -20.8076   -8.1943 C   0  0  0  0  0  0  0  0  0  0  0  0
   28.6799  -21.2887   -8.2181 C   0  0  0  0  0  0  0  0  0  0  0  0
   29.2947  -21.4299   -9.4574 C   0  0  0  0  0  0  0  0  0  0  0  0
   28.5941  -21.0830  -10.5959 C   0  0  0  0  0  0  0  0  0  0  0  0
   27.2953  -20.5972  -10.5512 C   0  0  0  0  0  0  0  0  0  0  0  0
   24.5705  -21.1667  -13.5753 C   0  0  0  0  0  0  0  0  0  0  0  0
   23.9861  -20.3788  -14.3903 O   0  0  0  0  0  0  0  0  0  0  0  0
   19.4795  -21.9526  -12.7052 N   0  0  0  0  0  0  0  0  0  0  0  0
   20.2459  -22.7124  -11.7892 C   0  0  0  0  0  0  0  0  0  0  0  0
   19.5868  -23.4776  -11.0137 O   0  0  0  0  0  0  0  0  0  0  0  0
   21.7094  -22.6932  -11.6641 C   0  0  0  0  0  0  0  0  0  0  0  0
   22.3118  -21.8156  -12.7088 C   0  0  2  0  0  0  0  0  0  0  0  0
   23.7792  -21.8079  -12.6221 N   0  0  0  0  0  0  0  0  0  0  0  0
   21.8575  -20.4207  -12.5579 C   0  0  0  0  0  0  0  0  0  0  0  0
   22.4035  -19.5407  -11.8764 O   0  0  0  0  0  0  0  0  0  0  0  0
   20.6938  -20.0228  -13.2432 O   0  0  0  0  0  0  0  0  0  0  0  0
  2  3  1  0
  2  1  1  1
  3  4  1  0
  5  4  1  0
  6  5  1  0
  7  6  1  0
  8  2  1  0
  8  9  2  0
 10  8  1  0
 11 22  1  0
 11 10  1  0
 11 12  1  1
 13 14  2  0
 13 12  1  0
 15 14  1  0
 16 21  2  0
 16 15  1  0
 17 16  1  0
 18 19  1  0
 18 17  2  0
 19 20  2  0
 20 21  1  0
 21 13  1  0
 22 29  1  0
 23 22  2  0
 24 25  1  0
 25 27  1  0
 26 25  2  0
 28 27  1  1
 28 30  1  0
 29 28  1  0
 30 31  2  0
 30 32  1  0
M  END
$$$$
