KWN.pdb
     RDKit          3D

 32 33  0  0  1  0  0  0  0  0999 V2000
   25.8237  -18.0287  -17.2182 N   0  0  0  0  0  0  0  0  0  0  0  0
   25.2517  -19.3317  -17.3088 C   0  0  1  0  0  0  0  0  0  0  0  0
   25.7732  -20.1260  -18.4347 C   0  0  0  0  0  0  0  0  0  0  0  0
   25.7621  -19.4155  -19.7425 C   0  0  0  0  0  0  0  0  0  0  0  0
   27.0748  -18.7803  -20.0694 C   0  0  0  0  0  0  0  0  0  0  0  0
   26.9216  -18.0770  -21.4287 C   0  0  0  0  0  0  0  0  0  0  0  0
   28.1560  -17.3684  -21.6735 N   0  0  0  0  0  0  0  0  0  0  0  0
   25.3011  -20.0636  -16.0027 C   0  0  0  0  0  0  0  0  0  0  0  0
   25.0249  -21.2902  -15.9447 O   0  0  0  0  0  0  0  0  0  0  0  0
   25.6542  -19.4368  -14.7746 N   0  0  0  0  0  0  0  0  0  0  0  0
   25.7642  -20.1612  -13.5310 C   0  0  1  0  0  0  0  0  0  0  0  0
   26.6986  -19.4959  -12.5488 C   0  0  0  0  0  0  0  0  0  0  0  0
   27.0660  -20.3182  -11.4012 C   0  0  0  0  0  0  0  0  0  0  0  0
   27.5149  -21.6154  -11.3820 C   0  0  0  0  0  0  0  0  0  0  0  0
   27.7306  -21.9652  -10.1024 N   0  0  0  0  0  0  0  0  0  0  0  0
   27.4375  -20.9419   -9.2985 C   0  0  0  0  0  0  0  0  0  0  0  0
   27.4764  -20.7595   -7.9297 C   0  0  0  0  0  0  0  0  0  0  0  0
   27.1196  -19.5916   -7.3096 C   0  0  0  0  0  0  0  0  0  0  0  0
   26.6963  -18.5370   -8.1111 C   0  0  0  0  0  0  0  0  0  0  0  0
   26.6546  -18.7115   -9.4805 C   0  0  0  0  0  0  0  0  0  0  0  0
   27.0203  -19.9030  -10.0902 C   0  0  0  0  0  0  0  0  0  0  0  0
   24.4162  -20.1612  -12.8933 C   0  0  0  0  0  0  0  0  0  0  0  0
   23.7885  -19.0520  -12.8439 O   0  0  0  0  0  0  0  0  0  0  0  0
   19.6415  -20.9783  -11.3838 N   0  0  0  0  0  0  0  0  0  0  0  0
   20.2171  -22.1832  -11.8534 C   0  0  0  0  0  0  0  0  0  0  0  0
   19.3997  -23.1212  -12.1242 O   0  0  0  0  0  0  0  0  0  0  0  0
   21.6507  -22.4344  -12.0526 C   0  0  0  0  0  0  0  0  0  0  0  0
   22.4427  -21.2054  -11.7581 C   0  0  2  0  0  0  0  0  0  0  0  0
   23.7877  -21.2801  -12.3465 N   0  0  0  0  0  0  0  0  0  0  0  0
   22.6108  -21.0168  -10.3052 C   0  0  0  0  0  0  0  0  0  0  0  0
   23.4918  -21.5250   -9.5963 O   0  0  0  0  0  0  0  0  0  0  0  0
   21.6962  -20.1840   -9.6327 O   0  0  0  0  0  0  0  0  0  0  0  0
  2  3  1  0
  2  1  1  1
  3  4  1  0
  5  4  1  0
  6  5  1  0
  7  6  1  0
  8  2  1  0
  8  9  2  0
 10  8  1  0
 11 22  1  0
 11 10  1  0
 11 12  1  1
 13 14  2  0
 13 12  1  0
 15 14  1  0
 16 21  2  0
 16 15  1  0
 17 16  1  0
 18 19  1  0
 18 17  2  0
 19 20  2  0
 20 21  1  0
 21 13  1  0
 22 29  1  0
 23 22  2  0
 24 25  1  0
 25 27  1  0
 26 25  2  0
 28 27  1  1
 28 30  1  0
 29 28  1  0
 30 31  2  0
 30 32  1  0
M  END
$$$$
