KWN.pdb
     RDKit          3D

 32 33  0  0  1  0  0  0  0  0999 V2000
   28.1240  -20.9483  -15.8442 N   0  0  0  0  0  0  0  0  0  0  0  0
   27.2405  -22.0546  -15.6748 C   0  0  1  0  0  0  0  0  0  0  0  0
   27.8612  -23.3552  -15.9808 C   0  0  0  0  0  0  0  0  0  0  0  0
   28.4053  -23.4645  -17.3619 C   0  0  0  0  0  0  0  0  0  0  0  0
   28.4303  -24.8710  -17.8665 C   0  0  0  0  0  0  0  0  0  0  0  0
   29.0692  -24.8482  -19.2655 C   0  0  0  0  0  0  0  0  0  0  0  0
   29.1060  -26.2152  -19.7298 N   0  0  0  0  0  0  0  0  0  0  0  0
   26.5536  -22.0317  -14.3438 C   0  0  0  0  0  0  0  0  0  0  0  0
   25.4249  -22.5686  -14.1959 O   0  0  0  0  0  0  0  0  0  0  0  0
   27.1172  -21.4178  -13.1899 N   0  0  0  0  0  0  0  0  0  0  0  0
   26.4602  -21.4186  -11.9048 C   0  0  1  0  0  0  0  0  0  0  0  0
   27.3385  -20.8816  -10.8000 C   0  0  0  0  0  0  0  0  0  0  0  0
   26.6625  -20.6850   -9.5223 C   0  0  0  0  0  0  0  0  0  0  0  0
   25.3345  -20.8534   -9.2178 C   0  0  0  0  0  0  0  0  0  0  0  0
   25.1623  -20.5598   -7.9176 N   0  0  0  0  0  0  0  0  0  0  0  0
   26.3294  -20.2092   -7.3750 C   0  0  0  0  0  0  0  0  0  0  0  0
   26.7161  -19.8208   -6.1069 C   0  0  0  0  0  0  0  0  0  0  0  0
   28.0047  -19.4996   -5.7719 C   0  0  0  0  0  0  0  0  0  0  0  0
   28.9697  -19.5717   -6.7706 C   0  0  0  0  0  0  0  0  0  0  0  0
   28.5909  -19.9593   -8.0409 C   0  0  0  0  0  0  0  0  0  0  0  0
   27.2797  -20.2808   -8.3609 C   0  0  0  0  0  0  0  0  0  0  0  0
   25.2931  -20.4951  -11.9991 C   0  0  0  0  0  0  0  0  0  0  0  0
   25.5360  -19.2449  -12.0680 O   0  0  0  0  0  0  0  0  0  0  0  0
   21.0348  -18.0936  -14.6083 N   0  0  0  0  0  0  0  0  0  0  0  0
   21.1223  -19.2838  -13.8470 C   0  0  0  0  0  0  0  0  0  0  0  0
   20.0469  -19.6603  -13.2786 O   0  0  0  0  0  0  0  0  0  0  0  0
   22.3266  -20.1049  -13.6647 C   0  0  0  0  0  0  0  0  0  0  0  0
   22.8672  -19.9408  -12.2844 C   0  0  2  0  0  0  0  0  0  0  0  0
   23.9559  -20.8919  -12.0181 N   0  0  0  0  0  0  0  0  0  0  0  0
   21.8214  -20.1787  -11.2722 C   0  0  0  0  0  0  0  0  0  0  0  0
   21.1555  -19.3118  -10.6874 O   0  0  0  0  0  0  0  0  0  0  0  0
   21.5307  -21.5096  -10.9168 O   0  0  0  0  0  0  0  0  0  0  0  0
  2  3  1  0
  2  1  1  1
  3  4  1  0
  5  4  1  0
  6  5  1  0
  7  6  1  0
  8  2  1  0
  8  9  2  0
 10  8  1  0
 11 22  1  0
 11 10  1  0
 11 12  1  1
 13 14  2  0
 13 12  1  0
 15 14  1  0
 16 21  2  0
 16 15  1  0
 17 16  1  0
 18 19  1  0
 18 17  2  0
 19 20  2  0
 20 21  1  0
 21 13  1  0
 22 29  1  0
 23 22  2  0
 24 25  1  0
 25 27  1  0
 26 25  2  0
 28 27  1  6
 28 30  1  0
 29 28  1  0
 30 31  2  0
 30 32  1  0
M  END
$$$$
