KWN.pdb
     RDKit          3D

 32 33  0  0  1  0  0  0  0  0999 V2000
   29.1870  -22.9726  -16.2472 N   0  0  0  0  0  0  0  0  0  0  0  0
   28.1601  -21.9907  -16.3669 C   0  0  1  0  0  0  0  0  0  0  0  0
   27.4018  -22.0834  -17.6266 C   0  0  0  0  0  0  0  0  0  0  0  0
   28.2253  -21.8981  -18.8525 C   0  0  0  0  0  0  0  0  0  0  0  0
   29.3601  -20.9466  -18.6514 C   0  0  0  0  0  0  0  0  0  0  0  0
   29.3738  -19.9842  -19.8512 C   0  0  0  0  0  0  0  0  0  0  0  0
   30.4834  -19.0820  -19.6499 N   0  0  0  0  0  0  0  0  0  0  0  0
   27.2804  -21.9410  -15.1555 C   0  0  0  0  0  0  0  0  0  0  0  0
   26.0975  -22.3682  -15.2047 O   0  0  0  0  0  0  0  0  0  0  0  0
   27.7128  -21.4214  -13.9030 N   0  0  0  0  0  0  0  0  0  0  0  0
   26.8839  -21.4394  -12.7215 C   0  0  1  0  0  0  0  0  0  0  0  0
   27.5690  -20.8358  -11.5188 C   0  0  0  0  0  0  0  0  0  0  0  0
   26.7454  -20.7665  -10.3167 C   0  0  0  0  0  0  0  0  0  0  0  0
   25.3962  -20.9836  -10.1856 C   0  0  0  0  0  0  0  0  0  0  0  0
   25.0677  -20.8114   -8.8938 N   0  0  0  0  0  0  0  0  0  0  0  0
   26.1547  -20.4922   -8.1896 C   0  0  0  0  0  0  0  0  0  0  0  0
   26.3823  -20.2135   -6.8559 C   0  0  0  0  0  0  0  0  0  0  0  0
   27.6147  -19.9027   -6.3454 C   0  0  0  0  0  0  0  0  0  0  0  0
   28.6898  -19.8685   -7.2268 C   0  0  0  0  0  0  0  0  0  0  0  0
   28.4703  -20.1459   -8.5618 C   0  0  0  0  0  0  0  0  0  0  0  0
   27.2138  -20.4588   -9.0600 C   0  0  0  0  0  0  0  0  0  0  0  0
   25.6931  -20.5854  -12.9983 C   0  0  0  0  0  0  0  0  0  0  0  0
   25.9028  -19.3676  -13.3137 O   0  0  0  0  0  0  0  0  0  0  0  0
   24.2877  -19.1734  -15.6870 N   0  0  0  0  0  0  0  0  0  0  0  0
   23.1590  -20.0268  -15.6513 C   0  0  0  0  0  0  0  0  0  0  0  0
   22.6921  -20.3785  -16.7825 O   0  0  0  0  0  0  0  0  0  0  0  0
   22.4971  -20.5319  -14.4411 C   0  0  0  0  0  0  0  0  0  0  0  0
   23.2442  -20.1091  -13.2214 C   0  0  2  0  0  0  0  0  0  0  0  0
   24.3671  -21.0148  -12.9393 N   0  0  0  0  0  0  0  0  0  0  0  0
   22.3696  -20.1140  -12.0340 C   0  0  0  0  0  0  0  0  0  0  0  0
   21.6617  -19.1755  -11.6402 O   0  0  0  0  0  0  0  0  0  0  0  0
   22.3141  -21.2848  -11.2541 O   0  0  0  0  0  0  0  0  0  0  0  0
  2  3  1  0
  2  1  1  1
  3  4  1  0
  5  4  1  0
  6  5  1  0
  7  6  1  0
  8  2  1  0
  8  9  2  0
 10  8  1  0
 11 22  1  0
 11 10  1  0
 11 12  1  1
 13 14  2  0
 13 12  1  0
 15 14  1  0
 16 21  2  0
 16 15  1  0
 17 16  1  0
 18 19  1  0
 18 17  2  0
 19 20  2  0
 20 21  1  0
 21 13  1  0
 22 29  1  0
 23 22  2  0
 24 25  1  0
 25 27  1  0
 26 25  2  0
 28 27  1  6
 28 30  1  0
 29 28  1  0
 30 31  2  0
 30 32  1  0
M  END
$$$$
