KWN.pdb
     RDKit          3D

 32 33  0  0  1  0  0  0  0  0999 V2000
   29.6854  -22.9515  -17.0391 N   0  0  0  0  0  0  0  0  0  0  0  0
   28.5307  -22.1163  -17.0851 C   0  0  1  0  0  0  0  0  0  0  0  0
   27.6920  -22.3374  -18.2759 C   0  0  0  0  0  0  0  0  0  0  0  0
   28.0761  -21.5167  -19.4567 C   0  0  0  0  0  0  0  0  0  0  0  0
   27.4805  -20.1463  -19.4299 C   0  0  0  0  0  0  0  0  0  0  0  0
   27.8471  -19.4576  -20.7555 C   0  0  0  0  0  0  0  0  0  0  0  0
   27.3528  -18.1032  -20.6728 N   0  0  0  0  0  0  0  0  0  0  0  0
   27.7531  -22.1546  -15.8053 C   0  0  0  0  0  0  0  0  0  0  0  0
   27.0353  -23.1487  -15.5212 O   0  0  0  0  0  0  0  0  0  0  0  0
   27.7744  -21.0978  -14.8522 N   0  0  0  0  0  0  0  0  0  0  0  0
   27.1265  -21.1924  -13.5659 C   0  0  1  0  0  0  0  0  0  0  0  0
   27.5627  -20.1066  -12.6114 C   0  0  0  0  0  0  0  0  0  0  0  0
   26.9476  -20.1706  -11.2902 C   0  0  0  0  0  0  0  0  0  0  0  0
   25.6362  -19.9622  -10.9417 C   0  0  0  0  0  0  0  0  0  0  0  0
   25.5245  -20.1274   -9.6126 N   0  0  0  0  0  0  0  0  0  0  0  0
   26.7144  -20.4342   -9.0937 C   0  0  0  0  0  0  0  0  0  0  0  0
   27.1591  -20.7018   -7.8134 C   0  0  0  0  0  0  0  0  0  0  0  0
   28.4608  -21.0000   -7.5093 C   0  0  0  0  0  0  0  0  0  0  0  0
   29.3778  -21.0329   -8.5543 C   0  0  0  0  0  0  0  0  0  0  0  0
   28.9409  -20.7664   -9.8371 C   0  0  0  0  0  0  0  0  0  0  0  0
   27.6174  -20.4661  -10.1251 C   0  0  0  0  0  0  0  0  0  0  0  0
   25.6649  -20.9945  -13.7865 C   0  0  0  0  0  0  0  0  0  0  0  0
   25.3096  -20.0413  -14.5558 O   0  0  0  0  0  0  0  0  0  0  0  0
   20.5113  -23.1196  -14.7959 N   0  0  0  0  0  0  0  0  0  0  0  0
   21.0375  -22.6570  -13.5659 C   0  0  0  0  0  0  0  0  0  0  0  0
   20.2093  -22.0819  -12.7882 O   0  0  0  0  0  0  0  0  0  0  0  0
   22.4315  -22.7857  -13.1208 C   0  0  0  0  0  0  0  0  0  0  0  0
   23.2534  -21.6558  -13.6427 C   0  0  2  0  0  0  0  0  0  0  0  0
   24.6556  -21.7710  -13.2169 N   0  0  0  0  0  0  0  0  0  0  0  0
   22.7511  -20.3604  -13.1481 C   0  0  0  0  0  0  0  0  0  0  0  0
   22.0765  -19.5417  -13.7895 O   0  0  0  0  0  0  0  0  0  0  0  0
   23.0523  -19.9930  -11.8228 O   0  0  0  0  0  0  0  0  0  0  0  0
  2  3  1  0
  2  1  1  1
  3  4  1  0
  5  4  1  0
  6  5  1  0
  7  6  1  0
  8  2  1  0
  8  9  2  0
 10  8  1  0
 11 22  1  0
 11 10  1  0
 11 12  1  1
 13 14  2  0
 13 12  1  0
 15 14  1  0
 16 21  2  0
 16 15  1  0
 17 16  1  0
 18 19  1  0
 18 17  2  0
 19 20  2  0
 20 21  1  0
 21 13  1  0
 22 29  1  0
 23 22  2  0
 24 25  1  0
 25 27  1  0
 26 25  2  0
 28 27  1  1
 28 30  1  0
 29 28  1  0
 30 31  2  0
 30 32  1  0
M  END
$$$$
