KWN.pdb
     RDKit          3D

 32 33  0  0  1  0  0  0  0  0999 V2000
   26.6532  -20.1406  -15.4039 N   0  0  0  0  0  0  0  0  0  0  0  0
   26.5290  -21.5479  -15.2111 C   0  0  1  0  0  0  0  0  0  0  0  0
   27.7750  -22.2895  -15.4718 C   0  0  0  0  0  0  0  0  0  0  0  0
   28.2329  -22.2397  -16.8871 C   0  0  0  0  0  0  0  0  0  0  0  0
   29.0944  -21.0535  -17.1773 C   0  0  0  0  0  0  0  0  0  0  0  0
   29.5005  -21.1293  -18.6590 C   0  0  0  0  0  0  0  0  0  0  0  0
   30.3116  -22.3148  -18.8092 N   0  0  0  0  0  0  0  0  0  0  0  0
   25.9115  -21.8858  -13.8888 C   0  0  0  0  0  0  0  0  0  0  0  0
   25.7830  -23.0852  -13.5294 O   0  0  0  0  0  0  0  0  0  0  0  0
   25.4423  -20.8992  -12.9765 N   0  0  0  0  0  0  0  0  0  0  0  0
   24.8517  -21.2313  -11.7022 C   0  0  1  0  0  0  0  0  0  0  0  0
   25.4091  -20.4054  -10.5676 C   0  0  0  0  0  0  0  0  0  0  0  0
   26.7652  -20.7592  -10.1624 C   0  0  0  0  0  0  0  0  0  0  0  0
   27.6888  -21.5257  -10.8287 C   0  0  0  0  0  0  0  0  0  0  0  0
   28.8037  -21.5832  -10.0804 N   0  0  0  0  0  0  0  0  0  0  0  0
   28.6316  -20.8825   -8.9584 C   0  0  0  0  0  0  0  0  0  0  0  0
   29.4336  -20.6141   -7.8661 C   0  0  0  0  0  0  0  0  0  0  0  0
   29.0351  -19.8494   -6.8020 C   0  0  0  0  0  0  0  0  0  0  0  0
   27.7503  -19.3183   -6.8325 C   0  0  0  0  0  0  0  0  0  0  0  0
   26.9424  -19.5821   -7.9212 C   0  0  0  0  0  0  0  0  0  0  0  0
   27.3644  -20.3595   -8.9900 C   0  0  0  0  0  0  0  0  0  0  0  0
   23.3990  -20.9045  -11.7844 C   0  0  0  0  0  0  0  0  0  0  0  0
   23.0275  -19.7623  -11.3555 O   0  0  0  0  0  0  0  0  0  0  0  0
   19.0111  -23.3425   -9.8582 N   0  0  0  0  0  0  0  0  0  0  0  0
   19.8630  -22.2410   -9.6042 C   0  0  0  0  0  0  0  0  0  0  0  0
   19.4192  -21.3723   -8.7858 O   0  0  0  0  0  0  0  0  0  0  0  0
   21.1911  -22.0235  -10.1930 C   0  0  0  0  0  0  0  0  0  0  0  0
   21.0870  -21.8615  -11.6720 C   0  0  2  0  0  0  0  0  0  0  0  0
   22.4142  -21.7508  -12.2942 N   0  0  0  0  0  0  0  0  0  0  0  0
   20.3370  -20.6407  -12.0215 C   0  0  0  0  0  0  0  0  0  0  0  0
   19.1135  -20.5578  -12.2029 O   0  0  0  0  0  0  0  0  0  0  0  0
   21.0553  -19.4389  -12.1698 O   0  0  0  0  0  0  0  0  0  0  0  0
  2  3  1  0
  2  1  1  1
  3  4  1  0
  5  4  1  0
  6  5  1  0
  7  6  1  0
  8  2  1  0
  8  9  2  0
 10  8  1  0
 11 22  1  0
 11 10  1  0
 11 12  1  1
 13 14  2  0
 13 12  1  0
 15 14  1  0
 16 21  2  0
 16 15  1  0
 17 16  1  0
 18 19  1  0
 18 17  2  0
 19 20  2  0
 20 21  1  0
 21 13  1  0
 22 29  1  0
 23 22  2  0
 24 25  1  0
 25 27  1  0
 26 25  2  0
 28 27  1  1
 28 30  1  0
 29 28  1  0
 30 31  2  0
 30 32  1  0
M  END
$$$$
