KWN.pdb
     RDKit          3D

 32 33  0  0  1  0  0  0  0  0999 V2000
   26.3418  -19.4906  -14.8036 N   0  0  0  0  0  0  0  0  0  0  0  0
   26.6464  -20.8690  -14.6024 C   0  0  1  0  0  0  0  0  0  0  0  0
   28.0316  -21.2231  -14.9578 C   0  0  0  0  0  0  0  0  0  0  0  0
   28.5325  -20.5686  -16.1971 C   0  0  0  0  0  0  0  0  0  0  0  0
   28.8998  -19.1350  -15.9890 C   0  0  0  0  0  0  0  0  0  0  0  0
   29.5096  -18.6191  -17.3034 C   0  0  0  0  0  0  0  0  0  0  0  0
   29.8330  -17.2270  -17.0954 N   0  0  0  0  0  0  0  0  0  0  0  0
   26.2524  -21.3423  -13.2369 C   0  0  0  0  0  0  0  0  0  0  0  0
   26.2389  -22.5709  -12.9637 O   0  0  0  0  0  0  0  0  0  0  0  0
   25.8775  -20.4575  -12.1869 N   0  0  0  0  0  0  0  0  0  0  0  0
   25.2047  -20.9049  -10.9909 C   0  0  1  0  0  0  0  0  0  0  0  0
   25.6942  -20.2009   -9.7479 C   0  0  0  0  0  0  0  0  0  0  0  0
   27.0492  -20.5539   -9.3387 C   0  0  0  0  0  0  0  0  0  0  0  0
   27.9856  -21.2954  -10.0154 C   0  0  0  0  0  0  0  0  0  0  0  0
   29.0938  -21.3630   -9.2578 N   0  0  0  0  0  0  0  0  0  0  0  0
   28.9050  -20.6928   -8.1200 C   0  0  0  0  0  0  0  0  0  0  0  0
   29.6942  -20.4461   -7.0133 C   0  0  0  0  0  0  0  0  0  0  0  0
   29.2790  -19.7124   -5.9339 C   0  0  0  0  0  0  0  0  0  0  0  0
   27.9901  -19.1912   -5.9634 C   0  0  0  0  0  0  0  0  0  0  0  0
   27.1949  -19.4335   -7.0664 C   0  0  0  0  0  0  0  0  0  0  0  0
   27.6338  -20.1797   -8.1506 C   0  0  0  0  0  0  0  0  0  0  0  0
   23.7624  -20.5532  -11.1316 C   0  0  0  0  0  0  0  0  0  0  0  0
   23.4671  -19.3187  -11.2562 O   0  0  0  0  0  0  0  0  0  0  0  0
   21.6230  -19.3683  -13.9453 N   0  0  0  0  0  0  0  0  0  0  0  0
   21.4871  -20.7623  -14.1499 C   0  0  0  0  0  0  0  0  0  0  0  0
   21.5513  -21.1554  -15.3594 O   0  0  0  0  0  0  0  0  0  0  0  0
   21.2849  -21.7725  -13.1028 C   0  0  0  0  0  0  0  0  0  0  0  0
   21.4114  -21.1563  -11.7505 C   0  0  2  0  0  0  0  0  0  0  0  0
   22.7104  -21.4693  -11.1377 N   0  0  0  0  0  0  0  0  0  0  0  0
   20.3659  -21.6563  -10.8386 C   0  0  0  0  0  0  0  0  0  0  0  0
   19.1441  -21.4838  -10.9581 O   0  0  0  0  0  0  0  0  0  0  0  0
   20.7660  -22.4052   -9.7155 O   0  0  0  0  0  0  0  0  0  0  0  0
  2  3  1  0
  2  1  1  1
  3  4  1  0
  5  4  1  0
  6  5  1  0
  7  6  1  0
  8  2  1  0
  8  9  2  0
 10  8  1  0
 11 22  1  0
 11 10  1  0
 11 12  1  1
 13 14  2  0
 13 12  1  0
 15 14  1  0
 16 21  2  0
 16 15  1  0
 17 16  1  0
 18 19  1  0
 18 17  2  0
 19 20  2  0
 20 21  1  0
 21 13  1  0
 22 29  1  0
 23 22  2  0
 24 25  1  0
 25 27  1  0
 26 25  2  0
 28 27  1  6
 28 30  1  0
 29 28  1  0
 30 31  2  0
 30 32  1  0
M  END
$$$$
