KWN.pdb
     RDKit          3D

 32 33  0  0  1  0  0  0  0  0999 V2000
   32.9843  -33.8784  -16.3172 N   0  0  0  0  0  0  0  0  0  0  0  0
   32.1760  -32.7038  -16.3020 C   0  0  1  0  0  0  0  0  0  0  0  0
   32.6055  -31.6818  -17.2724 C   0  0  0  0  0  0  0  0  0  0  0  0
   32.8439  -32.2030  -18.6460 C   0  0  0  0  0  0  0  0  0  0  0  0
   32.3551  -31.2762  -19.7117 C   0  0  0  0  0  0  0  0  0  0  0  0
   32.5615  -31.9786  -21.0645 C   0  0  0  0  0  0  0  0  0  0  0  0
   32.0793  -31.0742  -22.0820 N   0  0  0  0  0  0  0  0  0  0  0  0
   30.7149  -33.0211  -16.3930 C   0  0  0  0  0  0  0  0  0  0  0  0
   30.3284  -34.1632  -16.7541 O   0  0  0  0  0  0  0  0  0  0  0  0
   29.6950  -32.0771  -16.0854 N   0  0  0  0  0  0  0  0  0  0  0  0
   28.3065  -32.4451  -15.9444 C   0  0  1  0  0  0  0  0  0  0  0  0
   27.5661  -31.5652  -14.9657 C   0  0  0  0  0  0  0  0  0  0  0  0
   26.1576  -31.9003  -14.7865 C   0  0  0  0  0  0  0  0  0  0  0  0
   25.0493  -31.2096  -15.2101 C   0  0  0  0  0  0  0  0  0  0  0  0
   23.9576  -31.8915  -14.8233 N   0  0  0  0  0  0  0  0  0  0  0  0
   24.3223  -32.9942  -14.1672 C   0  0  0  0  0  0  0  0  0  0  0  0
   23.6248  -34.0254  -13.5685 C   0  0  0  0  0  0  0  0  0  0  0  0
   24.2261  -35.0813  -12.9365 C   0  0  0  0  0  0  0  0  0  0  0  0
   25.6160  -35.1075  -12.9011 C   0  0  0  0  0  0  0  0  0  0  0  0
   26.3205  -34.0801  -13.4975 C   0  0  0  0  0  0  0  0  0  0  0  0
   25.6929  -33.0185  -14.1332 C   0  0  0  0  0  0  0  0  0  0  0  0
   27.6535  -32.2405  -17.2694 C   0  0  0  0  0  0  0  0  0  0  0  0
   27.9736  -31.1964  -17.9283 O   0  0  0  0  0  0  0  0  0  0  0  0
   25.7253  -36.5337  -19.4975 N   0  0  0  0  0  0  0  0  0  0  0  0
   26.0929  -35.2170  -19.8648 C   0  0  0  0  0  0  0  0  0  0  0  0
   27.2133  -35.0978  -20.4581 O   0  0  0  0  0  0  0  0  0  0  0  0
   25.3030  -34.0020  -19.6251 C   0  0  0  0  0  0  0  0  0  0  0  0
   26.1871  -32.8797  -19.1967 C   0  0  2  0  0  0  0  0  0  0  0  0
   26.7196  -33.1023  -17.8448 N   0  0  0  0  0  0  0  0  0  0  0  0
   25.4503  -31.6025  -19.1718 C   0  0  0  0  0  0  0  0  0  0  0  0
   24.3854  -31.3811  -18.5770 O   0  0  0  0  0  0  0  0  0  0  0  0
   25.9858  -30.5122  -19.8837 O   0  0  0  0  0  0  0  0  0  0  0  0
  2  3  1  0
  2  1  1  6
  3  4  1  0
  5  4  1  0
  6  5  1  0
  7  6  1  0
  8  2  1  0
  8  9  2  0
 10  8  1  0
 11 22  1  0
 11 10  1  0
 11 12  1  1
 13 14  2  0
 13 12  1  0
 15 14  1  0
 16 21  2  0
 16 15  1  0
 17 16  1  0
 18 19  1  0
 18 17  2  0
 19 20  2  0
 20 21  1  0
 21 13  1  0
 22 29  1  0
 23 22  2  0
 24 25  1  0
 25 27  1  0
 26 25  2  0
 28 27  1  1
 28 30  1  0
 29 28  1  0
 30 31  2  0
 30 32  1  0
M  END
$$$$
