YWA.pdb
     RDKit          3D

 32 34  0  0  1  0  0  0  0  0999 V2000
   20.3291  -17.1242  -16.9960 O   0  0  0  0  0  0  0  0  0  0  0  0
   20.8786  -17.9452  -16.0171 C   0  0  0  0  0  0  0  0  0  0  0  0
   21.2100  -17.3597  -14.8096 C   0  0  0  0  0  0  0  0  0  0  0  0
   21.7652  -18.1588  -13.8030 C   0  0  0  0  0  0  0  0  0  0  0  0
   21.9755  -19.5047  -14.0172 C   0  0  0  0  0  0  0  0  0  0  0  0
   22.5659  -20.3012  -12.9208 C   0  0  0  0  0  0  0  0  0  0  0  0
   24.0610  -20.0720  -12.9492 C   0  0  2  0  0  0  0  0  0  0  0  0
   24.6971  -20.7089  -14.0643 N   0  0  0  0  0  0  0  0  0  0  0  0
   24.6029  -20.6808  -11.6813 C   0  0  0  0  0  0  0  0  0  0  0  0
   24.5625  -21.9203  -11.4821 O   0  0  0  0  0  0  0  0  0  0  0  0
   21.6509  -20.0962  -15.2099 C   0  0  0  0  0  0  0  0  0  0  0  0
   21.0985  -19.2937  -16.2076 C   0  0  0  0  0  0  0  0  0  0  0  0
   25.1734  -19.8681  -10.6795 N   0  0  0  0  0  0  0  0  0  0  0  0
   25.7146  -20.5152   -9.4798 C   0  0  1  0  0  0  0  0  0  0  0  0
   26.8610  -19.6380   -9.0620 C   0  0  0  0  0  0  0  0  0  0  0  0
   27.7390  -20.1964   -8.0313 C   0  0  0  0  0  0  0  0  0  0  0  0
   28.3656  -21.4176   -8.0491 C   0  0  0  0  0  0  0  0  0  0  0  0
   29.0629  -21.5501   -6.9046 N   0  0  0  0  0  0  0  0  0  0  0  0
   28.9236  -20.4651   -6.1286 C   0  0  0  0  0  0  0  0  0  0  0  0
   29.4087  -20.0989   -4.8977 C   0  0  0  0  0  0  0  0  0  0  0  0
   29.0917  -18.8769   -4.3157 C   0  0  0  0  0  0  0  0  0  0  0  0
   28.2538  -18.0081   -5.0174 C   0  0  0  0  0  0  0  0  0  0  0  0
   27.7840  -18.4085   -6.2527 C   0  0  0  0  0  0  0  0  0  0  0  0
   28.0950  -19.6165   -6.8324 C   0  0  0  0  0  0  0  0  0  0  0  0
   24.6153  -20.6091   -8.5065 C   0  0  0  0  0  0  0  0  0  0  0  0
   23.7999  -19.6622   -8.3651 O   0  0  0  0  0  0  0  0  0  0  0  0
   22.3381  -22.8404   -6.9270 C   0  0  0  0  0  0  0  0  0  0  0  0
   23.3560  -21.7391   -6.6591 C   0  0  2  0  0  0  0  0  0  0  0  0
   24.3938  -21.7401   -7.6799 N   0  0  0  0  0  0  0  0  0  0  0  0
   23.8870  -21.8242   -5.2813 C   0  0  0  0  0  0  0  0  0  0  0  0
   23.0396  -21.6630   -4.1961 O   0  0  0  0  0  0  0  0  0  0  0  0
   25.0969  -22.0405   -5.0478 O   0  0  0  0  0  0  0  0  0  0  0  0
  2  1  1  0
  3  2  2  0
  4  3  1  0
  5 11  1  0
  5  4  2  0
  6  5  1  0
  7  8  1  6
  7  6  1  0
  9  7  1  0
 10  9  2  0
 11 12  2  0
 12  2  1  0
 13  9  1  0
 14 13  1  0
 14 15  1  1
 16 24  1  0
 16 15  1  0
 17 16  2  0
 18 17  1  0
 18 19  1  0
 19 24  2  0
 20 19  1  0
 20 21  2  0
 21 22  1  0
 22 23  2  0
 24 23  1  0
 25 14  1  0
 26 25  2  0
 28 27  1  6
 28 29  1  0
 29 25  1  0
 30 28  1  0
 30 31  1  0
 32 30  2  0
M  END
$$$$
