YWA.pdb
     RDKit          3D

 32 34  0  0  1  0  0  0  0  0999 V2000
   28.6145  -14.2115  -17.6176 O   0  0  0  0  0  0  0  0  0  0  0  0
   28.0096  -15.2758  -16.9577 C   0  0  0  0  0  0  0  0  0  0  0  0
   27.7915  -16.4320  -17.6834 C   0  0  0  0  0  0  0  0  0  0  0  0
   27.1845  -17.5219  -17.0481 C   0  0  0  0  0  0  0  0  0  0  0  0
   26.8129  -17.4386  -15.7228 C   0  0  0  0  0  0  0  0  0  0  0  0
   26.1744  -18.6186  -15.1024 C   0  0  0  0  0  0  0  0  0  0  0  0
   27.2374  -19.3413  -14.3046 C   0  0  2  0  0  0  0  0  0  0  0  0
   28.1659  -20.0498  -15.1348 N   0  0  0  0  0  0  0  0  0  0  0  0
   26.5087  -20.3421  -13.4448 C   0  0  0  0  0  0  0  0  0  0  0  0
   26.2297  -21.4901  -13.8715 O   0  0  0  0  0  0  0  0  0  0  0  0
   27.0240  -16.2980  -14.9934 C   0  0  0  0  0  0  0  0  0  0  0  0
   27.6290  -15.2166  -15.6330 C   0  0  0  0  0  0  0  0  0  0  0  0
   26.1191  -20.0125  -12.1297 N   0  0  0  0  0  0  0  0  0  0  0  0
   25.3313  -20.9884  -11.3697 C   0  0  1  0  0  0  0  0  0  0  0  0
   25.6052  -20.6558   -9.9300 C   0  0  0  0  0  0  0  0  0  0  0  0
   26.9660  -20.9356   -9.4662 C   0  0  0  0  0  0  0  0  0  0  0  0
   27.9178  -21.6950  -10.1000 C   0  0  0  0  0  0  0  0  0  0  0  0
   29.0228  -21.7139   -9.3305 N   0  0  0  0  0  0  0  0  0  0  0  0
   28.8415  -20.9971   -8.2116 C   0  0  0  0  0  0  0  0  0  0  0  0
   29.6273  -20.7013   -7.1254 C   0  0  0  0  0  0  0  0  0  0  0  0
   29.1682  -19.9101   -6.0787 C   0  0  0  0  0  0  0  0  0  0  0  0
   27.8668  -19.4094   -6.1502 C   0  0  0  0  0  0  0  0  0  0  0  0
   27.1043  -19.7266   -7.2569 C   0  0  0  0  0  0  0  0  0  0  0  0
   27.5543  -20.5091   -8.2948 C   0  0  0  0  0  0  0  0  0  0  0  0
   23.9297  -20.8328  -11.7891 C   0  0  0  0  0  0  0  0  0  0  0  0
   23.4254  -19.6897  -11.9330 O   0  0  0  0  0  0  0  0  0  0  0  0
   21.2480  -22.7049  -13.5047 C   0  0  0  0  0  0  0  0  0  0  0  0
   21.6736  -21.7139  -12.4287 C   0  0  2  0  0  0  0  0  0  0  0  0
   23.0657  -21.9246  -12.0588 N   0  0  0  0  0  0  0  0  0  0  0  0
   20.7480  -21.7451  -11.2756 C   0  0  0  0  0  0  0  0  0  0  0  0
   19.4351  -21.3253  -11.4236 O   0  0  0  0  0  0  0  0  0  0  0  0
   21.1076  -22.1436  -10.1455 O   0  0  0  0  0  0  0  0  0  0  0  0
  2  1  1  0
  3  2  2  0
  4  3  1  0
  5 11  1  0
  5  4  2  0
  6  5  1  0
  7  8  1  6
  7  6  1  0
  9  7  1  0
 10  9  2  0
 11 12  2  0
 12  2  1  0
 13  9  1  0
 14 13  1  0
 14 15  1  1
 16 24  1  0
 16 15  1  0
 17 16  2  0
 18 17  1  0
 18 19  1  0
 19 24  2  0
 20 19  1  0
 20 21  2  0
 21 22  1  0
 22 23  2  0
 24 23  1  0
 25 14  1  0
 26 25  2  0
 28 27  1  6
 28 29  1  0
 29 25  1  0
 30 28  1  0
 30 31  1  0
 32 30  2  0
M  END
$$$$
