YWA.pdb
     RDKit          3D

 32 34  0  0  1  0  0  0  0  0999 V2000
   37.1140  -40.7378   -8.5440 O   0  0  0  0  0  0  0  0  0  0  0  0
   36.2265  -40.0610   -7.7144 C   0  0  0  0  0  0  0  0  0  0  0  0
   34.9911  -39.7316   -8.2399 C   0  0  0  0  0  0  0  0  0  0  0  0
   34.0745  -39.0500   -7.4304 C   0  0  0  0  0  0  0  0  0  0  0  0
   34.4027  -38.7158   -6.1335 C   0  0  0  0  0  0  0  0  0  0  0  0
   33.3979  -37.9950   -5.3237 C   0  0  0  0  0  0  0  0  0  0  0  0
   33.6748  -36.5151   -5.4710 C   0  0  2  0  0  0  0  0  0  0  0  0
   34.8538  -36.1005   -4.7699 N   0  0  0  0  0  0  0  0  0  0  0  0
   32.4894  -35.8046   -4.8695 C   0  0  0  0  0  0  0  0  0  0  0  0
   32.4221  -35.5740   -3.6366 O   0  0  0  0  0  0  0  0  0  0  0  0
   35.6241  -39.0371   -5.6017 C   0  0  0  0  0  0  0  0  0  0  0  0
   36.5317  -39.7159   -6.4140 C   0  0  0  0  0  0  0  0  0  0  0  0
   31.4182  -35.3774   -5.6818 N   0  0  0  0  0  0  0  0  0  0  0  0
   30.3270  -34.6220   -5.0578 C   0  0  1  0  0  0  0  0  0  0  0  0
   29.6822  -33.8808   -6.1949 C   0  0  0  0  0  0  0  0  0  0  0  0
   28.4180  -33.2135   -5.8762 C   0  0  0  0  0  0  0  0  0  0  0  0
   27.8731  -33.0216   -4.6310 C   0  0  0  0  0  0  0  0  0  0  0  0
   26.6966  -32.3834   -4.7797 N   0  0  0  0  0  0  0  0  0  0  0  0
   26.4397  -32.1444   -6.0742 C   0  0  0  0  0  0  0  0  0  0  0  0
   25.4085  -31.5417   -6.7509 C   0  0  0  0  0  0  0  0  0  0  0  0
   25.4037  -31.4296   -8.1365 C   0  0  0  0  0  0  0  0  0  0  0  0
   26.4877  -31.9508   -8.8455 C   0  0  0  0  0  0  0  0  0  0  0  0
   27.5075  -32.5503   -8.1330 C   0  0  0  0  0  0  0  0  0  0  0  0
   27.5164  -32.6635   -6.7622 C   0  0  0  0  0  0  0  0  0  0  0  0
   29.4597  -35.5972   -4.3786 C   0  0  0  0  0  0  0  0  0  0  0  0
   29.0719  -36.6355   -4.9731 O   0  0  0  0  0  0  0  0  0  0  0  0
   28.6796  -36.6953   -0.9578 C   0  0  0  0  0  0  0  0  0  0  0  0
   28.2151  -36.4825   -2.3930 C   0  0  2  0  0  0  0  0  0  0  0  0
   29.0098  -35.4498   -3.0418 N   0  0  0  0  0  0  0  0  0  0  0  0
   26.7594  -36.2279   -2.4526 C   0  0  0  0  0  0  0  0  0  0  0  0
   26.2431  -35.0230   -2.0015 O   0  0  0  0  0  0  0  0  0  0  0  0
   25.9548  -37.0734   -2.9033 O   0  0  0  0  0  0  0  0  0  0  0  0
  2  1  1  0
  3  2  2  0
  4  3  1  0
  5 11  1  0
  5  4  2  0
  6  5  1  0
  7  8  1  1
  7  6  1  0
  9  7  1  0
 10  9  2  0
 11 12  2  0
 12  2  1  0
 13  9  1  0
 14 13  1  0
 14 15  1  6
 16 24  1  0
 16 15  1  0
 17 16  2  0
 18 17  1  0
 18 19  1  0
 19 24  2  0
 20 19  1  0
 20 21  2  0
 21 22  1  0
 22 23  2  0
 24 23  1  0
 25 14  1  0
 26 25  2  0
 28 27  1  1
 28 29  1  0
 29 25  1  0
 30 28  1  0
 30 31  1  0
 32 30  2  0
M  END
$$$$
