YWA.pdb
     RDKit          3D

 32 34  0  0  1  0  0  0  0  0999 V2000
   20.2415  -17.4445  -17.0644 O   0  0  0  0  0  0  0  0  0  0  0  0
   20.7874  -18.1091  -15.9715 C   0  0  0  0  0  0  0  0  0  0  0  0
   21.0018  -19.4690  -16.0972 C   0  0  0  0  0  0  0  0  0  0  0  0
   21.5502  -20.1676  -15.0150 C   0  0  0  0  0  0  0  0  0  0  0  0
   21.8690  -19.5068  -13.8474 C   0  0  0  0  0  0  0  0  0  0  0  0
   22.4439  -20.2934  -12.7359 C   0  0  0  0  0  0  0  0  0  0  0  0
   23.9467  -20.1300  -12.7957 C   0  0  2  0  0  0  0  0  0  0  0  0
   24.5336  -20.8146  -13.9094 N   0  0  0  0  0  0  0  0  0  0  0  0
   24.4857  -20.7382  -11.5262 C   0  0  0  0  0  0  0  0  0  0  0  0
   24.5416  -21.9833  -11.3703 O   0  0  0  0  0  0  0  0  0  0  0  0
   21.6611  -18.1592  -13.7112 C   0  0  0  0  0  0  0  0  0  0  0  0
   21.1144  -17.4702  -14.7933 C   0  0  0  0  0  0  0  0  0  0  0  0
   24.9443  -19.9185  -10.4738 N   0  0  0  0  0  0  0  0  0  0  0  0
   25.5445  -20.5604   -9.2997 C   0  0  1  0  0  0  0  0  0  0  0  0
   26.6974  -19.6700   -8.9306 C   0  0  0  0  0  0  0  0  0  0  0  0
   27.6807  -20.2576   -8.0179 C   0  0  0  0  0  0  0  0  0  0  0  0
   28.3914  -21.4177   -8.2006 C   0  0  0  0  0  0  0  0  0  0  0  0
   29.1716  -21.6085   -7.1197 N   0  0  0  0  0  0  0  0  0  0  0  0
   29.0067  -20.6208   -6.2275 C   0  0  0  0  0  0  0  0  0  0  0  0
   29.5456  -20.3423   -4.9960 C   0  0  0  0  0  0  0  0  0  0  0  0
   29.1809  -19.2134   -4.2715 C   0  0  0  0  0  0  0  0  0  0  0  0
   28.2371  -18.3476   -4.8274 C   0  0  0  0  0  0  0  0  0  0  0  0
   27.7157  -18.6584   -6.0677 C   0  0  0  0  0  0  0  0  0  0  0  0
   28.0735  -19.7741   -6.7882 C   0  0  0  0  0  0  0  0  0  0  0  0
   24.4897  -20.6686   -8.2799 C   0  0  0  0  0  0  0  0  0  0  0  0
   23.7837  -19.6726   -7.9777 O   0  0  0  0  0  0  0  0  0  0  0  0
   22.6092  -23.3059   -6.3885 C   0  0  0  0  0  0  0  0  0  0  0  0
   23.1825  -21.9020   -6.5348 C   0  0  2  0  0  0  0  0  0  0  0  0
   24.1931  -21.8670   -7.5820 N   0  0  0  0  0  0  0  0  0  0  0  0
   23.6635  -21.3820   -5.2365 C   0  0  0  0  0  0  0  0  0  0  0  0
   22.7860  -21.2441   -4.1721 O   0  0  0  0  0  0  0  0  0  0  0  0
   24.8567  -21.0534   -5.0533 O   0  0  0  0  0  0  0  0  0  0  0  0
  2  1  1  0
  3  2  2  0
  4  3  1  0
  5 11  1  0
  5  4  2  0
  6  5  1  0
  7  8  1  6
  7  6  1  0
  9  7  1  0
 10  9  2  0
 11 12  2  0
 12  2  1  0
 13  9  1  0
 14 13  1  0
 14 15  1  1
 16 24  1  0
 16 15  1  0
 17 16  2  0
 18 17  1  0
 18 19  1  0
 19 24  2  0
 20 19  1  0
 20 21  2  0
 21 22  1  0
 22 23  2  0
 24 23  1  0
 25 14  1  0
 26 25  2  0
 28 27  1  1
 28 29  1  0
 29 25  1  0
 30 28  1  0
 30 31  1  0
 32 30  2  0
M  END
$$$$
