LAH.pdb
     RDKit          3D

 24 24  0  0  1  0  0  0  0  0999 V2000
   22.1792  -11.1320  -21.4277 C   0  0  0  0  0  0  0  0  0  0  0  0
   20.6783  -11.0878  -21.2981 C   0  0  2  0  0  0  0  0  0  0  0  0
   20.0380  -10.2691  -22.3952 C   0  0  0  0  0  0  0  0  0  0  0  0
   20.3632  -10.5290  -19.9247 C   0  0  0  0  0  0  0  0  0  0  0  0
   21.0240  -11.4471  -18.9217 C   0  0  2  0  0  0  0  0  0  0  0  0
   20.2153  -12.6459  -18.8438 N   0  0  0  0  0  0  0  0  0  0  0  0
   21.0831  -10.8487  -17.5683 C   0  0  0  0  0  0  0  0  0  0  0  0
   20.0044  -10.5530  -16.9892 O   0  0  0  0  0  0  0  0  0  0  0  0
   23.6223  -10.3136  -14.8327 C   0  0  0  0  0  0  0  0  0  0  0  0
   22.3051   -9.9724  -15.5431 C   0  0  2  0  0  0  0  0  0  0  0  0
   22.2855  -10.5815  -16.8687 N   0  0  0  0  0  0  0  0  0  0  0  0
   22.2943   -8.5053  -15.7093 C   0  0  0  0  0  0  0  0  0  0  0  0
   22.9017   -7.9827  -16.6700 O   0  0  0  0  0  0  0  0  0  0  0  0
   21.6124   -7.6077  -14.8147 N   0  0  0  0  0  0  0  0  0  0  0  0
   21.6450   -6.1757  -15.0363 C   0  0  1  0  0  0  0  0  0  0  0  0
   20.3230   -5.5371  -15.2367 C   0  0  0  0  0  0  0  0  0  0  0  0
   19.6297   -5.8723  -16.4950 C   0  0  0  0  0  0  0  0  0  0  0  0
   20.0278   -6.5743  -17.5989 C   0  0  0  0  0  0  0  0  0  0  0  0
   18.9604   -6.5922  -18.4445 N   0  0  0  0  0  0  0  0  0  0  0  0
   17.9363   -5.9325  -17.8986 C   0  0  0  0  0  0  0  0  0  0  0  0
   18.3309   -5.4913  -16.7153 N   0  0  0  0  0  0  0  0  0  0  0  0
   22.4173   -5.4886  -13.9609 C   0  0  0  0  0  0  0  0  0  0  0  0
   22.8537   -4.1844  -14.0867 O   0  0  0  0  0  0  0  0  0  0  0  0
   22.6632   -6.1405  -12.9204 O   0  0  0  0  0  0  0  0  0  0  0  0
  2  1  1  6
  3  2  1  0
  4  5  1  0
  4  2  1  0
  5  6  1  1
  5  7  1  0
  7  8  2  0
 10  9  1  6
 10 12  1  0
 11  7  1  0
 11 10  1  0
 12 14  1  0
 13 12  2  0
 14 15  1  0
 15 22  1  0
 15 16  1  1
 17 16  1  0
 18 17  2  0
 19 18  1  0
 20 19  1  0
 20 21  2  0
 21 17  1  0
 22 23  1  0
 24 22  2  0
M  END
$$$$
