LAH.pdb
     RDKit          3D

 24 24  0  0  1  0  0  0  0  0999 V2000
   30.9645  -33.6704   -5.0755 C   0  0  0  0  0  0  0  0  0  0  0  0
   32.1421  -34.1908   -5.8588 C   0  0  2  0  0  0  0  0  0  0  0  0
   31.7350  -34.7067   -7.2197 C   0  0  0  0  0  0  0  0  0  0  0  0
   32.7950  -35.2725   -5.0212 C   0  0  0  0  0  0  0  0  0  0  0  0
   33.0432  -34.6723   -3.6560 C   0  0  2  0  0  0  0  0  0  0  0  0
   34.1903  -33.7967   -3.7776 N   0  0  0  0  0  0  0  0  0  0  0  0
   33.3618  -35.7022   -2.6406 C   0  0  0  0  0  0  0  0  0  0  0  0
   32.4721  -36.5353   -2.3231 O   0  0  0  0  0  0  0  0  0  0  0  0
   36.3841  -36.7948   -0.6052 C   0  0  0  0  0  0  0  0  0  0  0  0
   34.9215  -36.8979   -1.0595 C   0  0  2  0  0  0  0  0  0  0  0  0
   34.6155  -35.8180   -1.9916 N   0  0  0  0  0  0  0  0  0  0  0  0
   34.0992  -36.7085    0.1522 C   0  0  0  0  0  0  0  0  0  0  0  0
   33.1432  -35.9018    0.1363 O   0  0  0  0  0  0  0  0  0  0  0  0
   34.3288  -37.4096    1.3877 N   0  0  0  0  0  0  0  0  0  0  0  0
   33.2197  -37.7897    2.2400 C   0  0  1  0  0  0  0  0  0  0  0  0
   32.1279  -38.5291    1.5642 C   0  0  0  0  0  0  0  0  0  0  0  0
   30.9780  -37.7178    1.1216 C   0  0  0  0  0  0  0  0  0  0  0  0
   30.9014  -36.4867    0.5312 C   0  0  0  0  0  0  0  0  0  0  0  0
   29.5775  -36.2478    0.3189 N   0  0  0  0  0  0  0  0  0  0  0  0
   28.8531  -37.2808    0.7548 C   0  0  0  0  0  0  0  0  0  0  0  0
   29.6924  -38.1790    1.2439 N   0  0  0  0  0  0  0  0  0  0  0  0
   33.7026  -38.5250    3.4448 C   0  0  0  0  0  0  0  0  0  0  0  0
   35.0221  -38.9035    3.5962 O   0  0  0  0  0  0  0  0  0  0  0  0
   32.8613  -38.7942    4.3323 O   0  0  0  0  0  0  0  0  0  0  0  0
  2  1  1  1
  3  2  1  0
  4  5  1  0
  4  2  1  0
  5  6  1  6
  5  7  1  0
  7  8  2  0
 10  9  1  1
 10 12  1  0
 11  7  1  0
 11 10  1  0
 12 14  1  0
 13 12  2  0
 14 15  1  0
 15 22  1  0
 15 16  1  6
 17 16  1  0
 18 17  2  0
 19 18  1  0
 20 19  1  0
 20 21  2  0
 21 17  1  0
 22 23  1  0
 24 22  2  0
M  END
$$$$
