LAH.pdb
     RDKit          3D

 24 24  0  0  1  0  0  0  0  0999 V2000
   17.6074  -13.9814  -19.2530 C   0  0  0  0  0  0  0  0  0  0  0  0
   18.4062  -15.0402  -18.5373 C   0  0  2  0  0  0  0  0  0  0  0  0
   17.5529  -16.2220  -18.1386 C   0  0  0  0  0  0  0  0  0  0  0  0
   19.0479  -14.3800  -17.3330 C   0  0  0  0  0  0  0  0  0  0  0  0
   19.8674  -13.2235  -17.8587 C   0  0  2  0  0  0  0  0  0  0  0  0
   20.9282  -13.7860  -18.6683 N   0  0  0  0  0  0  0  0  0  0  0  0
   20.4929  -12.4391  -16.7693 C   0  0  0  0  0  0  0  0  0  0  0  0
   19.7503  -11.9118  -15.8992 O   0  0  0  0  0  0  0  0  0  0  0  0
   23.9850  -11.6797  -15.4956 C   0  0  0  0  0  0  0  0  0  0  0  0
   22.4683  -11.4503  -15.5518 C   0  0  2  0  0  0  0  0  0  0  0  0
   21.8885  -12.2371  -16.6349 N   0  0  0  0  0  0  0  0  0  0  0  0
   22.2791  -10.0204  -15.8677 C   0  0  0  0  0  0  0  0  0  0  0  0
   22.3974   -9.6222  -17.0478 O   0  0  0  0  0  0  0  0  0  0  0  0
   21.9582   -9.0228  -14.8814 N   0  0  0  0  0  0  0  0  0  0  0  0
   21.1569   -7.8668  -15.2316 C   0  0  1  0  0  0  0  0  0  0  0  0
   19.8524   -8.1706  -15.8651 C   0  0  0  0  0  0  0  0  0  0  0  0
   19.0095   -7.0057  -16.1949 C   0  0  0  0  0  0  0  0  0  0  0  0
   19.2078   -5.6614  -16.0417 C   0  0  0  0  0  0  0  0  0  0  0  0
   18.1014   -5.0525  -16.5514 N   0  0  0  0  0  0  0  0  0  0  0  0
   17.2453   -5.9705  -17.0056 C   0  0  0  0  0  0  0  0  0  0  0  0
   17.7858   -7.1595  -16.7946 N   0  0  0  0  0  0  0  0  0  0  0  0
   20.9878   -6.9618  -14.0580 C   0  0  0  0  0  0  0  0  0  0  0  0
   21.4146   -7.3108  -12.7919 O   0  0  0  0  0  0  0  0  0  0  0  0
   20.4373   -5.8549  -14.2574 O   0  0  0  0  0  0  0  0  0  0  0  0
  2  1  1  1
  3  2  1  0
  4  5  1  0
  4  2  1  0
  5  6  1  6
  5  7  1  0
  7  8  2  0
 10  9  1  6
 10 12  1  0
 11  7  1  0
 11 10  1  0
 12 14  1  0
 13 12  2  0
 14 15  1  0
 15 22  1  0
 15 16  1  1
 17 16  1  0
 18 17  2  0
 19 18  1  0
 20 19  1  0
 20 21  2  0
 21 17  1  0
 22 23  1  0
 24 22  2  0
M  END
$$$$
