LAH.pdb
     RDKit          3D

 24 24  0  0  1  0  0  0  0  0999 V2000
   31.1620  -24.2283  -16.9205 C   0  0  0  0  0  0  0  0  0  0  0  0
   30.7494  -25.0365  -15.7171 C   0  0  2  0  0  0  0  0  0  0  0  0
   31.3798  -24.5208  -14.4441 C   0  0  0  0  0  0  0  0  0  0  0  0
   31.1352  -26.4766  -15.9907 C   0  0  0  0  0  0  0  0  0  0  0  0
   30.5009  -26.8515  -17.3109 C   0  0  2  0  0  0  0  0  0  0  0  0
   29.1533  -27.2979  -17.0247 N   0  0  0  0  0  0  0  0  0  0  0  0
   31.2160  -27.9619  -17.9809 C   0  0  0  0  0  0  0  0  0  0  0  0
   30.6278  -29.0675  -18.1152 O   0  0  0  0  0  0  0  0  0  0  0  0
   34.5603  -28.5106  -19.7084 C   0  0  0  0  0  0  0  0  0  0  0  0
   33.1858  -28.9637  -19.1968 C   0  0  2  0  0  0  0  0  0  0  0  0
   32.5348  -27.8666  -18.4889 N   0  0  0  0  0  0  0  0  0  0  0  0
   33.4433  -30.0489  -18.2292 C   0  0  0  0  0  0  0  0  0  0  0  0
   33.2736  -29.8464  -17.0064 O   0  0  0  0  0  0  0  0  0  0  0  0
   33.8898  -31.3636  -18.6075 N   0  0  0  0  0  0  0  0  0  0  0  0
   33.5531  -32.5200  -17.8011 C   0  0  1  0  0  0  0  0  0  0  0  0
   32.1146  -32.6680  -17.4781 C   0  0  0  0  0  0  0  0  0  0  0  0
   31.7669  -33.7890  -16.5844 C   0  0  0  0  0  0  0  0  0  0  0  0
   31.6922  -33.8824  -15.2222 C   0  0  0  0  0  0  0  0  0  0  0  0
   31.2918  -35.1552  -14.9490 N   0  0  0  0  0  0  0  0  0  0  0  0
   31.1214  -35.8326  -16.0865 C   0  0  0  0  0  0  0  0  0  0  0  0
   31.4067  -35.0136  -17.0856 N   0  0  0  0  0  0  0  0  0  0  0  0
   34.0999  -33.7685  -18.4073 C   0  0  0  0  0  0  0  0  0  0  0  0
   35.0298  -34.5560  -17.7575 O   0  0  0  0  0  0  0  0  0  0  0  0
   33.6836  -34.0885  -19.5440 O   0  0  0  0  0  0  0  0  0  0  0  0
  2  1  1  6
  3  2  1  0
  4  5  1  0
  4  2  1  0
  5  6  1  1
  5  7  1  0
  7  8  2  0
 10  9  1  1
 10 12  1  0
 11  7  1  0
 11 10  1  0
 12 14  1  0
 13 12  2  0
 14 15  1  0
 15 22  1  0
 15 16  1  6
 17 16  1  0
 18 17  2  0
 19 18  1  0
 20 19  1  0
 20 21  2  0
 21 17  1  0
 22 23  1  0
 24 22  2  0
M  END
$$$$
