LAH.pdb
     RDKit          3D

 24 24  0  0  1  0  0  0  0  0999 V2000
   28.0490  -18.7620  -18.0218 C   0  0  0  0  0  0  0  0  0  0  0  0
   28.6417  -19.9954  -17.3904 C   0  0  2  0  0  0  0  0  0  0  0  0
   29.3733  -20.8526  -18.3973 C   0  0  0  0  0  0  0  0  0  0  0  0
   27.5054  -20.7513  -16.7306 C   0  0  0  0  0  0  0  0  0  0  0  0
   26.9178  -19.8268  -15.6887 C   0  0  2  0  0  0  0  0  0  0  0  0
   28.0171  -19.3429  -14.8796 N   0  0  0  0  0  0  0  0  0  0  0  0
   25.9659  -20.5242  -14.7937 C   0  0  0  0  0  0  0  0  0  0  0  0
   24.9857  -21.1281  -15.3045 O   0  0  0  0  0  0  0  0  0  0  0  0
   25.5723  -21.1883  -11.0694 C   0  0  0  0  0  0  0  0  0  0  0  0
   25.0990  -21.2192  -12.5293 C   0  0  2  0  0  0  0  0  0  0  0  0
   26.0821  -20.5604  -13.3825 N   0  0  0  0  0  0  0  0  0  0  0  0
   23.8492  -20.4341  -12.5741 C   0  0  0  0  0  0  0  0  0  0  0  0
   23.8998  -19.1866  -12.6524 O   0  0  0  0  0  0  0  0  0  0  0  0
   22.5370  -21.0233  -12.5327 N   0  0  0  0  0  0  0  0  0  0  0  0
   21.5479  -20.6986  -13.5413 C   0  0  1  0  0  0  0  0  0  0  0  0
   22.0210  -20.7889  -14.9425 C   0  0  0  0  0  0  0  0  0  0  0  0
   22.1488  -19.5081  -15.6632 C   0  0  0  0  0  0  0  0  0  0  0  0
   21.8924  -18.2185  -15.2875 C   0  0  0  0  0  0  0  0  0  0  0  0
   22.2224  -17.4382  -16.3539 N   0  0  0  0  0  0  0  0  0  0  0  0
   22.6669  -18.2006  -17.3553 C   0  0  0  0  0  0  0  0  0  0  0  0
   22.6269  -19.4586  -16.9476 N   0  0  0  0  0  0  0  0  0  0  0  0
   20.3029  -21.4955  -13.3410 C   0  0  0  0  0  0  0  0  0  0  0  0
   20.2947  -22.8752  -13.3997 O   0  0  0  0  0  0  0  0  0  0  0  0
   19.2448  -20.8656  -13.1134 O   0  0  0  0  0  0  0  0  0  0  0  0
  2  1  1  6
  3  2  1  0
  4  5  1  0
  4  2  1  0
  5  6  1  1
  5  7  1  0
  7  8  2  0
 10  9  1  1
 10 12  1  0
 11  7  1  0
 11 10  1  0
 12 14  1  0
 13 12  2  0
 14 15  1  0
 15 22  1  0
 15 16  1  6
 17 16  1  0
 18 17  2  0
 19 18  1  0
 20 19  1  0
 20 21  2  0
 21 17  1  0
 22 23  1  0
 24 22  2  0
M  END
$$$$
