LAH.pdb
     RDKit          3D

 24 24  0  0  1  0  0  0  0  0999 V2000
   19.0340  -11.8288  -19.7059 C   0  0  0  0  0  0  0  0  0  0  0  0
   17.7806  -11.5064  -18.9336 C   0  0  2  0  0  0  0  0  0  0  0  0
   16.7413  -10.8284  -19.7962 C   0  0  0  0  0  0  0  0  0  0  0  0
   18.1883  -10.6383  -17.7597 C   0  0  0  0  0  0  0  0  0  0  0  0
   19.2133  -11.4249  -16.9748 C   0  0  2  0  0  0  0  0  0  0  0  0
   18.5121  -12.5177  -16.3334 N   0  0  0  0  0  0  0  0  0  0  0  0
   19.8540  -10.6109  -15.9164 C   0  0  0  0  0  0  0  0  0  0  0  0
   19.1203   -9.9743  -15.1145 O   0  0  0  0  0  0  0  0  0  0  0  0
   23.3212  -10.0448  -14.5027 C   0  0  0  0  0  0  0  0  0  0  0  0
   21.8506   -9.6552  -14.7073 C   0  0  2  0  0  0  0  0  0  0  0  0
   21.2547  -10.4963  -15.7396 N   0  0  0  0  0  0  0  0  0  0  0  0
   21.8575   -8.2614  -15.1948 C   0  0  0  0  0  0  0  0  0  0  0  0
   22.1274   -8.0218  -16.3926 O   0  0  0  0  0  0  0  0  0  0  0  0
   21.5661   -7.1251  -14.3613 N   0  0  0  0  0  0  0  0  0  0  0  0
   21.5878   -5.7823  -14.9068 C   0  0  1  0  0  0  0  0  0  0  0  0
   20.2580   -5.1610  -15.1095 C   0  0  0  0  0  0  0  0  0  0  0  0
   19.4079   -5.7813  -16.1434 C   0  0  0  0  0  0  0  0  0  0  0  0
   19.6954   -6.2847  -17.3818 C   0  0  0  0  0  0  0  0  0  0  0  0
   18.5210   -6.7592  -17.8823 N   0  0  0  0  0  0  0  0  0  0  0  0
   17.5386   -6.5644  -16.9998 C   0  0  0  0  0  0  0  0  0  0  0  0
   18.0651   -5.9718  -15.9406 N   0  0  0  0  0  0  0  0  0  0  0  0
   22.4792   -4.8963  -14.1033 C   0  0  0  0  0  0  0  0  0  0  0  0
   22.9977   -5.2848  -12.8838 O   0  0  0  0  0  0  0  0  0  0  0  0
   22.7494   -3.7684  -14.5754 O   0  0  0  0  0  0  0  0  0  0  0  0
  2  1  1  6
  3  2  1  0
  4  5  1  0
  4  2  1  0
  5  6  1  1
  5  7  1  0
  7  8  2  0
 10  9  1  6
 10 12  1  0
 11  7  1  0
 11 10  1  0
 12 14  1  0
 13 12  2  0
 14 15  1  0
 15 22  1  0
 15 16  1  1
 17 16  1  0
 18 17  2  0
 19 18  1  0
 20 19  1  0
 20 21  2  0
 21 17  1  0
 22 23  1  0
 24 22  2  0
M  END
$$$$
