LAH.pdb
     RDKit          3D

 24 24  0  0  1  0  0  0  0  0999 V2000
   21.4060  -17.9282  -14.1930 C   0  0  0  0  0  0  0  0  0  0  0  0
   20.7437  -19.2705  -14.3685 C   0  0  2  0  0  0  0  0  0  0  0  0
   19.4299  -19.1626  -15.1074 C   0  0  0  0  0  0  0  0  0  0  0  0
   20.5626  -19.8652  -12.9860 C   0  0  0  0  0  0  0  0  0  0  0  0
   21.9412  -20.2413  -12.4924 C   0  0  2  0  0  0  0  0  0  0  0  0
   22.5895  -20.9767  -13.5583 N   0  0  0  0  0  0  0  0  0  0  0  0
   21.8895  -21.1181  -11.3000 C   0  0  0  0  0  0  0  0  0  0  0  0
   21.3092  -22.2322  -11.3921 O   0  0  0  0  0  0  0  0  0  0  0  0
   23.1594  -21.0834   -7.7161 C   0  0  0  0  0  0  0  0  0  0  0  0
   22.3054  -21.6346   -8.8664 C   0  0  2  0  0  0  0  0  0  0  0  0
   22.4554  -20.7870  -10.0444 N   0  0  0  0  0  0  0  0  0  0  0  0
   20.9022  -21.5521   -8.4142 C   0  0  0  0  0  0  0  0  0  0  0  0
   20.1488  -20.6683   -8.8793 O   0  0  0  0  0  0  0  0  0  0  0  0
   20.3240  -22.4458   -7.4458 N   0  0  0  0  0  0  0  0  0  0  0  0
   19.1083  -23.1758   -7.7457 C   0  0  1  0  0  0  0  0  0  0  0  0
   19.1037  -23.8895   -9.0443 C   0  0  0  0  0  0  0  0  0  0  0  0
   17.8461  -24.5743   -9.3987 C   0  0  0  0  0  0  0  0  0  0  0  0
   16.6514  -24.6884   -8.7432 C   0  0  0  0  0  0  0  0  0  0  0  0
   15.8365  -25.4124   -9.5596 N   0  0  0  0  0  0  0  0  0  0  0  0
   16.4871  -25.7391  -10.6784 C   0  0  0  0  0  0  0  0  0  0  0  0
   17.7076  -25.2357  -10.5920 N   0  0  0  0  0  0  0  0  0  0  0  0
   18.7490  -24.0935   -6.6259 C   0  0  0  0  0  0  0  0  0  0  0  0
   19.7050  -24.7606   -5.8855 O   0  0  0  0  0  0  0  0  0  0  0  0
   17.5323  -24.2443   -6.3710 O   0  0  0  0  0  0  0  0  0  0  0  0
  2  1  1  1
  3  2  1  0
  4  5  1  0
  4  2  1  0
  5  6  1  6
  5  7  1  0
  7  8  2  0
 10  9  1  1
 10 12  1  0
 11  7  1  0
 11 10  1  0
 12 14  1  0
 13 12  2  0
 14 15  1  0
 15 22  1  0
 15 16  1  6
 17 16  1  0
 18 17  2  0
 19 18  1  0
 20 19  1  0
 20 21  2  0
 21 17  1  0
 22 23  1  0
 24 22  2  0
M  END
$$$$
