LAH.pdb
     RDKit          3D

 24 24  0  0  1  0  0  0  0  0999 V2000
   27.9416  -16.4808  -14.7709 C   0  0  0  0  0  0  0  0  0  0  0  0
   27.5878  -17.2088  -16.0422 C   0  0  2  0  0  0  0  0  0  0  0  0
   26.8898  -16.3092  -17.0358 C   0  0  0  0  0  0  0  0  0  0  0  0
   26.7246  -18.3932  -15.6550 C   0  0  0  0  0  0  0  0  0  0  0  0
   27.5482  -19.2390  -14.7106 C   0  0  2  0  0  0  0  0  0  0  0  0
   28.5169  -19.9550  -15.5144 N   0  0  0  0  0  0  0  0  0  0  0  0
   26.7255  -20.2384  -13.9911 C   0  0  0  0  0  0  0  0  0  0  0  0
   26.3170  -21.2513  -14.6185 O   0  0  0  0  0  0  0  0  0  0  0  0
   25.3655  -20.7644  -10.4778 C   0  0  0  0  0  0  0  0  0  0  0  0
   25.4809  -21.0964  -11.9720 C   0  0  2  0  0  0  0  0  0  0  0  0
   26.3601  -20.1337  -12.6266 N   0  0  0  0  0  0  0  0  0  0  0  0
   24.1248  -20.9400  -12.5349 C   0  0  0  0  0  0  0  0  0  0  0  0
   23.6811  -19.7967  -12.7820 O   0  0  0  0  0  0  0  0  0  0  0  0
   23.2519  -22.0459  -12.8277 N   0  0  0  0  0  0  0  0  0  0  0  0
   21.9361  -21.8207  -13.3923 C   0  0  1  0  0  0  0  0  0  0  0  0
   21.3692  -22.9618  -14.1486 C   0  0  0  0  0  0  0  0  0  0  0  0
   20.0324  -22.7462  -14.7342 C   0  0  0  0  0  0  0  0  0  0  0  0
   19.1401  -21.7163  -14.6204 C   0  0  0  0  0  0  0  0  0  0  0  0
   18.0784  -22.0433  -15.4083 N   0  0  0  0  0  0  0  0  0  0  0  0
   18.2918  -23.2245  -15.9923 C   0  0  0  0  0  0  0  0  0  0  0  0
   19.4746  -23.6605  -15.5907 N   0  0  0  0  0  0  0  0  0  0  0  0
   20.9846  -21.3407  -12.3486 C   0  0  0  0  0  0  0  0  0  0  0  0
   20.0079  -20.4024  -12.6186 O   0  0  0  0  0  0  0  0  0  0  0  0
   21.0986  -21.8222  -11.1983 O   0  0  0  0  0  0  0  0  0  0  0  0
  2  1  1  1
  3  2  1  0
  4  5  1  0
  4  2  1  0
  5  6  1  6
  5  7  1  0
  7  8  2  0
 10  9  1  1
 10 12  1  0
 11  7  1  0
 11 10  1  0
 12 14  1  0
 13 12  2  0
 14 15  1  0
 15 22  1  0
 15 16  1  1
 17 16  1  0
 18 17  2  0
 19 18  1  0
 20 19  1  0
 20 21  2  0
 21 17  1  0
 22 23  1  0
 24 22  2  0
M  END
$$$$
