NNM.pdb
     RDKit          3D

 25 24  0  0  1  0  0  0  0  0999 V2000
   13.4878  -11.2763   -9.0786 N   0  0  0  0  0  0  0  0  0  0  0  0
   14.7378  -11.2202   -9.7740 C   0  0  0  0  0  0  0  0  0  0  0  0
   15.3234  -12.2869  -10.0078 O   0  0  0  0  0  0  0  0  0  0  0  0
   15.2614   -9.9324  -10.1718 C   0  0  0  0  0  0  0  0  0  0  0  0
   14.5139   -8.7124   -9.6977 C   0  0  2  0  0  0  0  0  0  0  0  0
   13.2594   -8.7514  -10.4588 N   0  0  0  0  0  0  0  0  0  0  0  0
   15.3024   -7.5194  -10.0900 C   0  0  0  0  0  0  0  0  0  0  0  0
   15.2888   -7.1319  -11.2727 O   0  0  0  0  0  0  0  0  0  0  0  0
   18.0445   -2.4813   -8.2270 N   0  0  0  0  0  0  0  0  0  0  0  0
   17.1358   -3.2458   -9.0032 C   0  0  0  0  0  0  0  0  0  0  0  0
   16.8125   -2.8527  -10.1507 O   0  0  0  0  0  0  0  0  0  0  0  0
   16.5631   -4.4939   -8.4885 C   0  0  0  0  0  0  0  0  0  0  0  0
   16.7000   -5.5526   -9.5893 C   0  0  2  0  0  0  0  0  0  0  0  0
   16.0920   -6.7740   -9.1729 N   0  0  0  0  0  0  0  0  0  0  0  0
   18.1497   -5.6863   -9.8769 C   0  0  0  0  0  0  0  0  0  0  0  0
   18.9980   -6.0590   -9.0304 O   0  0  0  0  0  0  0  0  0  0  0  0
   22.9131  -10.0196  -13.0167 C   0  0  0  0  0  0  0  0  0  0  0  0
   21.4754   -9.0042  -13.1960 S   0  0  0  0  0  0  0  0  0  0  0  0
   21.3655   -7.5468  -12.1839 C   0  0  0  0  0  0  0  0  0  0  0  0
   20.1518   -6.7277  -12.4294 C   0  0  0  0  0  0  0  0  0  0  0  0
   19.9936   -5.4995  -11.5976 C   0  0  2  0  0  0  0  0  0  0  0  0
   18.5872   -5.3718  -11.1868 N   0  0  0  0  0  0  0  0  0  0  0  0
   20.3946   -4.2676  -12.2896 C   0  0  0  0  0  0  0  0  0  0  0  0
   19.5666   -3.4067  -12.6348 O   0  0  0  0  0  0  0  0  0  0  0  0
   21.7226   -4.0234  -12.5828 O   0  0  0  0  0  0  0  0  0  0  0  0
  2  1  1  0
  2  3  2  0
  4  2  1  0
  5  4  1  0
  5  6  1  6
  7  8  2  0
  7  5  1  0
  9 10  1  0
 10 11  2  0
 10 12  1  0
 13 12  1  1
 13 15  1  0
 13 14  1  0
 14  7  1  0
 15 22  1  0
 16 15  2  0
 18 17  1  0
 19 18  1  0
 21 20  1  6
 20 19  1  0
 21 23  1  0
 22 21  1  0
 23 24  2  0
 23 25  1  0
M  END
$$$$
