NNM.pdb
     RDKit          3D

 25 24  0  0  1  0  0  0  0  0999 V2000
   20.7323  -15.7464  -20.5784 N   0  0  0  0  0  0  0  0  0  0  0  0
   21.6430  -14.8250  -19.9694 C   0  0  0  0  0  0  0  0  0  0  0  0
   22.8570  -15.0507  -20.0726 O   0  0  0  0  0  0  0  0  0  0  0  0
   21.1136  -13.6786  -19.2649 C   0  0  0  0  0  0  0  0  0  0  0  0
   22.0732  -12.9028  -18.3993 C   0  0  2  0  0  0  0  0  0  0  0  0
   22.3348  -13.8035  -17.2702 N   0  0  0  0  0  0  0  0  0  0  0  0
   21.3688  -11.6890  -17.9206 C   0  0  0  0  0  0  0  0  0  0  0  0
   21.0523  -10.7989  -18.7309 O   0  0  0  0  0  0  0  0  0  0  0  0
   18.0832  -11.4664  -16.9132 N   0  0  0  0  0  0  0  0  0  0  0  0
   18.2299  -11.2243  -15.5231 C   0  0  0  0  0  0  0  0  0  0  0  0
   17.3301  -11.5914  -14.7284 O   0  0  0  0  0  0  0  0  0  0  0  0
   19.4189  -10.5496  -14.9927 C   0  0  0  0  0  0  0  0  0  0  0  0
   20.3588  -10.2755  -16.1729 C   0  0  2  0  0  0  0  0  0  0  0  0
   21.0253  -11.4765  -16.5579 N   0  0  0  0  0  0  0  0  0  0  0  0
   21.2870   -9.2013  -15.7407 C   0  0  0  0  0  0  0  0  0  0  0  0
   20.9219   -8.1654  -15.1336 O   0  0  0  0  0  0  0  0  0  0  0  0
   27.4108  -12.1682  -14.5005 C   0  0  0  0  0  0  0  0  0  0  0  0
   26.9411  -10.7503  -15.4487 S   0  0  0  0  0  0  0  0  0  0  0  0
   25.3839   -9.9830  -15.0658 C   0  0  0  0  0  0  0  0  0  0  0  0
   25.0218   -8.8614  -15.9687 C   0  0  0  0  0  0  0  0  0  0  0  0
   23.6482   -8.2990  -15.8199 C   0  0  2  0  0  0  0  0  0  0  0  0
   22.6619   -9.3682  -16.0371 N   0  0  0  0  0  0  0  0  0  0  0  0
   23.3615   -7.1993  -16.7502 C   0  0  0  0  0  0  0  0  0  0  0  0
   22.7477   -7.3814  -17.8162 O   0  0  0  0  0  0  0  0  0  0  0  0
   23.7704   -5.9103  -16.4665 O   0  0  0  0  0  0  0  0  0  0  0  0
  2  1  1  0
  2  3  2  0
  4  2  1  0
  5  4  1  0
  5  6  1  1
  7  8  2  0
  7  5  1  0
  9 10  1  0
 10 11  2  0
 10 12  1  0
 13 12  1  1
 13 15  1  0
 13 14  1  0
 14  7  1  0
 15 22  1  0
 16 15  2  0
 18 17  1  0
 19 18  1  0
 21 20  1  6
 20 19  1  0
 21 23  1  0
 22 21  1  0
 23 24  2  0
 23 25  1  0
M  END
$$$$
