NNM.pdb
     RDKit          3D

 25 24  0  0  1  0  0  0  0  0999 V2000
   17.2278  -12.6268  -19.1104 N   0  0  0  0  0  0  0  0  0  0  0  0
   17.7844  -12.4099  -17.8094 C   0  0  0  0  0  0  0  0  0  0  0  0
   17.3841  -13.1222  -16.8778 O   0  0  0  0  0  0  0  0  0  0  0  0
   18.7822  -11.3777  -17.6371 C   0  0  0  0  0  0  0  0  0  0  0  0
   19.1204  -10.5427  -18.8456 C   0  0  2  0  0  0  0  0  0  0  0  0
   20.2207  -11.2763  -19.4827 N   0  0  0  0  0  0  0  0  0  0  0  0
   19.6066   -9.2275  -18.3635 C   0  0  0  0  0  0  0  0  0  0  0  0
   20.7476   -9.1320  -17.8756 O   0  0  0  0  0  0  0  0  0  0  0  0
   17.2843   -5.3642  -20.5701 N   0  0  0  0  0  0  0  0  0  0  0  0
   18.4811   -5.5574  -19.8332 C   0  0  0  0  0  0  0  0  0  0  0  0
   19.5761   -5.6590  -20.4386 O   0  0  0  0  0  0  0  0  0  0  0  0
   18.4644   -5.6415  -18.3692 C   0  0  0  0  0  0  0  0  0  0  0  0
   19.3746   -6.8070  -17.9637 C   0  0  2  0  0  0  0  0  0  0  0  0
   18.8278   -8.0402  -18.4273 N   0  0  0  0  0  0  0  0  0  0  0  0
   19.5171   -6.7456  -16.4878 C   0  0  0  0  0  0  0  0  0  0  0  0
   18.5932   -7.0229  -15.6850 O   0  0  0  0  0  0  0  0  0  0  0  0
   23.1357   -9.8715  -10.7244 C   0  0  0  0  0  0  0  0  0  0  0  0
   22.7025   -9.5114  -12.4015 S   0  0  0  0  0  0  0  0  0  0  0  0
   22.0325   -7.9024  -12.7514 C   0  0  0  0  0  0  0  0  0  0  0  0
   21.7138   -7.6761  -14.1837 C   0  0  0  0  0  0  0  0  0  0  0  0
   21.0734   -6.3739  -14.5294 C   0  0  2  0  0  0  0  0  0  0  0  0
   20.7742   -6.3495  -15.9691 N   0  0  0  0  0  0  0  0  0  0  0  0
   21.9040   -5.2075  -14.2023 C   0  0  0  0  0  0  0  0  0  0  0  0
   22.6337   -4.6607  -15.0476 O   0  0  0  0  0  0  0  0  0  0  0  0
   21.9007   -4.6740  -12.9277 O   0  0  0  0  0  0  0  0  0  0  0  0
  2  1  1  0
  2  3  2  0
  4  2  1  0
  5  4  1  0
  5  6  1  1
  7  8  2  0
  7  5  1  0
  9 10  1  0
 10 11  2  0
 10 12  1  0
 13 12  1  1
 13 15  1  0
 13 14  1  0
 14  7  1  0
 15 22  1  0
 16 15  2  0
 18 17  1  0
 19 18  1  0
 21 20  1  6
 20 19  1  0
 21 23  1  0
 22 21  1  0
 23 24  2  0
 23 25  1  0
M  END
$$$$
