NNM.pdb
     RDKit          3D

 25 24  0  0  1  0  0  0  0  0999 V2000
   39.7461  -10.4662   -5.3171 N   0  0  0  0  0  0  0  0  0  0  0  0
   40.6054   -9.3273   -5.4353 C   0  0  0  0  0  0  0  0  0  0  0  0
   41.2066   -8.9429   -4.4224 O   0  0  0  0  0  0  0  0  0  0  0  0
   40.7355   -8.6780   -6.7207 C   0  0  0  0  0  0  0  0  0  0  0  0
   39.7829   -9.1095   -7.8063 C   0  0  2  0  0  0  0  0  0  0  0  0
   40.1669  -10.4998   -8.0782 N   0  0  0  0  0  0  0  0  0  0  0  0
   40.0503   -8.2720   -9.0003 C   0  0  0  0  0  0  0  0  0  0  0  0
   40.9437   -8.6047   -9.8004 O   0  0  0  0  0  0  0  0  0  0  0  0
   37.4230   -7.0211  -13.1419 N   0  0  0  0  0  0  0  0  0  0  0  0
   37.6914   -6.9914  -11.7492 C   0  0  0  0  0  0  0  0  0  0  0  0
   37.3650   -7.9677  -11.0307 O   0  0  0  0  0  0  0  0  0  0  0  0
   38.3467   -5.8357  -11.1282 C   0  0  0  0  0  0  0  0  0  0  0  0
   39.6373   -6.3365  -10.4687 C   0  0  2  0  0  0  0  0  0  0  0  0
   39.3290   -7.0826   -9.2925 N   0  0  0  0  0  0  0  0  0  0  0  0
   40.4744   -5.1404  -10.2029 C   0  0  0  0  0  0  0  0  0  0  0  0
   40.1975   -4.2720   -9.3402 O   0  0  0  0  0  0  0  0  0  0  0  0
   46.5985   -7.4682   -9.4841 C   0  0  0  0  0  0  0  0  0  0  0  0
   46.0662   -5.9986  -10.3130 S   0  0  0  0  0  0  0  0  0  0  0  0
   44.3648   -5.5183  -10.1259 C   0  0  0  0  0  0  0  0  0  0  0  0
   43.9766   -4.3334  -10.9318 C   0  0  0  0  0  0  0  0  0  0  0  0
   42.5725   -3.8524  -10.7815 C   0  0  2  0  0  0  0  0  0  0  0  0
   41.6512   -4.9824  -10.9751 N   0  0  0  0  0  0  0  0  0  0  0  0
   42.2140   -2.7867  -11.7265 C   0  0  0  0  0  0  0  0  0  0  0  0
   42.0019   -3.0172  -12.9298 O   0  0  0  0  0  0  0  0  0  0  0  0
   42.0999   -1.4766  -11.3024 O   0  0  0  0  0  0  0  0  0  0  0  0
  2  1  1  0
  2  3  2  0
  4  2  1  0
  5  4  1  0
  5  6  1  6
  7  8  2  0
  7  5  1  0
  9 10  1  0
 10 11  2  0
 10 12  1  0
 13 12  1  1
 13 15  1  0
 13 14  1  0
 14  7  1  0
 15 22  1  0
 16 15  2  0
 18 17  1  0
 19 18  1  0
 21 20  1  6
 20 19  1  0
 21 23  1  0
 22 21  1  0
 23 24  2  0
 23 25  1  0
M  END
$$$$
