NNM.pdb
     RDKit          3D

 25 24  0  0  1  0  0  0  0  0999 V2000
   12.3429  -11.2810  -13.2129 N   0  0  0  0  0  0  0  0  0  0  0  0
   13.5114  -10.9492  -12.4552 C   0  0  0  0  0  0  0  0  0  0  0  0
   13.5418  -11.2719  -11.2593 O   0  0  0  0  0  0  0  0  0  0  0  0
   14.5987  -10.2573  -13.1108 C   0  0  0  0  0  0  0  0  0  0  0  0
   14.3515   -9.7659  -14.5141 C   0  0  2  0  0  0  0  0  0  0  0  0
   14.4977  -10.9711  -15.3392 N   0  0  0  0  0  0  0  0  0  0  0  0
   15.4223   -8.7960  -14.8477 C   0  0  0  0  0  0  0  0  0  0  0  0
   16.4677   -9.1939  -15.3936 O   0  0  0  0  0  0  0  0  0  0  0  0
   17.1912   -4.4252  -17.2167 N   0  0  0  0  0  0  0  0  0  0  0  0
   16.8505   -4.3061  -15.8447 C   0  0  0  0  0  0  0  0  0  0  0  0
   17.4693   -3.4910  -15.1176 O   0  0  0  0  0  0  0  0  0  0  0  0
   15.7835   -5.1213  -15.2553 C   0  0  0  0  0  0  0  0  0  0  0  0
   16.3570   -6.5213  -15.0056 C   0  0  2  0  0  0  0  0  0  0  0  0
   15.3232   -7.4047  -14.5744 N   0  0  0  0  0  0  0  0  0  0  0  0
   17.4489   -6.3660  -14.0127 C   0  0  0  0  0  0  0  0  0  0  0  0
   17.2987   -6.5323  -12.7779 O   0  0  0  0  0  0  0  0  0  0  0  0
   23.4483   -9.8268  -11.5632 C   0  0  0  0  0  0  0  0  0  0  0  0
   22.0415   -9.4354  -12.5621 S   0  0  0  0  0  0  0  0  0  0  0  0
   21.6418   -7.7175  -12.7840 C   0  0  0  0  0  0  0  0  0  0  0  0
   20.3911   -7.4791  -13.5476 C   0  0  0  0  0  0  0  0  0  0  0  0
   19.9348   -6.0633  -13.6599 C   0  0  2  0  0  0  0  0  0  0  0  0
   18.7296   -6.0092  -14.5012 N   0  0  0  0  0  0  0  0  0  0  0  0
   20.9469   -5.1651  -14.2308 C   0  0  0  0  0  0  0  0  0  0  0  0
   20.9225   -4.8194  -15.4249 O   0  0  0  0  0  0  0  0  0  0  0  0
   21.9722   -4.6693  -13.4483 O   0  0  0  0  0  0  0  0  0  0  0  0
  2  1  1  0
  2  3  2  0
  4  2  1  0
  5  4  1  0
  5  6  1  6
  7  8  2  0
  7  5  1  0
  9 10  1  0
 10 11  2  0
 10 12  1  0
 13 12  1  1
 13 15  1  0
 13 14  1  0
 14  7  1  0
 15 22  1  0
 16 15  2  0
 18 17  1  0
 19 18  1  0
 21 20  1  6
 20 19  1  0
 21 23  1  0
 22 21  1  0
 23 24  2  0
 23 25  1  0
M  END
$$$$
