NNM.pdb
     RDKit          3D

 25 24  0  0  1  0  0  0  0  0999 V2000
   27.9842  -19.8348  -16.6672 N   0  0  0  0  0  0  0  0  0  0  0  0
   27.3454  -18.5796  -16.9239 C   0  0  0  0  0  0  0  0  0  0  0  0
   27.9024  -17.7897  -17.6992 O   0  0  0  0  0  0  0  0  0  0  0  0
   26.0875  -18.2875  -16.2735 C   0  0  0  0  0  0  0  0  0  0  0  0
   24.8402  -18.8421  -16.9130 C   0  0  2  0  0  0  0  0  0  0  0  0
   24.8548  -18.2707  -18.2649 N   0  0  0  0  0  0  0  0  0  0  0  0
   23.6756  -18.3185  -16.1591 C   0  0  0  0  0  0  0  0  0  0  0  0
   23.5633  -18.5682  -14.9449 O   0  0  0  0  0  0  0  0  0  0  0  0
   22.5664  -14.4433  -17.8662 N   0  0  0  0  0  0  0  0  0  0  0  0
   21.4393  -15.0862  -17.2926 C   0  0  0  0  0  0  0  0  0  0  0  0
   20.3937  -15.2337  -17.9714 O   0  0  0  0  0  0  0  0  0  0  0  0
   21.4714  -15.5849  -15.9139 C   0  0  0  0  0  0  0  0  0  0  0  0
   21.5325  -17.1157  -15.9784 C   0  0  2  0  0  0  0  0  0  0  0  0
   22.6551  -17.5291  -16.7554 N   0  0  0  0  0  0  0  0  0  0  0  0
   20.2341  -17.5731  -16.5327 C   0  0  0  0  0  0  0  0  0  0  0  0
   20.0244  -17.7611  -17.7556 O   0  0  0  0  0  0  0  0  0  0  0  0
   14.4676  -22.6266  -15.3283 C   0  0  0  0  0  0  0  0  0  0  0  0
   15.9996  -21.8043  -15.0014 S   0  0  0  0  0  0  0  0  0  0  0  0
   16.2506  -20.2070  -15.7402 C   0  0  0  0  0  0  0  0  0  0  0  0
   17.5660  -19.5937  -15.4274 C   0  0  0  0  0  0  0  0  0  0  0  0
   17.8510  -18.2677  -16.0488 C   0  0  2  0  0  0  0  0  0  0  0  0
   19.1793  -17.8071  -15.6168 N   0  0  0  0  0  0  0  0  0  0  0  0
   16.8624  -17.2364  -15.7081 C   0  0  0  0  0  0  0  0  0  0  0  0
   17.1286  -16.2978  -14.9372 O   0  0  0  0  0  0  0  0  0  0  0  0
   15.5880  -17.2773  -16.2405 O   0  0  0  0  0  0  0  0  0  0  0  0
  2  1  1  0
  2  3  2  0
  4  2  1  0
  5  4  1  0
  5  6  1  6
  7  8  2  0
  7  5  1  0
  9 10  1  0
 10 11  2  0
 10 12  1  0
 13 12  1  6
 13 15  1  0
 13 14  1  0
 14  7  1  0
 15 22  1  0
 16 15  2  0
 18 17  1  0
 19 18  1  0
 21 20  1  1
 20 19  1  0
 21 23  1  0
 22 21  1  0
 23 24  2  0
 23 25  1  0
M  END
$$$$
