NNM.pdb
     RDKit          3D

 25 24  0  0  1  0  0  0  0  0999 V2000
   11.7179  -12.0795  -11.0687 N   0  0  0  0  0  0  0  0  0  0  0  0
   11.7973  -11.2919   -9.8759 C   0  0  0  0  0  0  0  0  0  0  0  0
   11.0466  -11.5830   -8.9340 O   0  0  0  0  0  0  0  0  0  0  0  0
   12.7419  -10.1987   -9.8195 C   0  0  0  0  0  0  0  0  0  0  0  0
   13.5674   -9.9416  -11.0542 C   0  0  2  0  0  0  0  0  0  0  0  0
   14.6932  -10.8744  -10.9245 N   0  0  0  0  0  0  0  0  0  0  0  0
   14.0615   -8.5453  -10.9840 C   0  0  0  0  0  0  0  0  0  0  0  0
   13.2490   -7.6025  -10.9757 O   0  0  0  0  0  0  0  0  0  0  0  0
   15.4193   -6.2813   -8.3447 N   0  0  0  0  0  0  0  0  0  0  0  0
   16.7781   -6.3710   -8.7425 C   0  0  0  0  0  0  0  0  0  0  0  0
   17.6881   -6.1892   -7.8971 O   0  0  0  0  0  0  0  0  0  0  0  0
   17.1431   -6.6737  -10.1302 C   0  0  0  0  0  0  0  0  0  0  0  0
   15.8415   -6.8422  -10.9233 C   0  0  2  0  0  0  0  0  0  0  0  0
   15.4418   -8.2116  -10.9241 N   0  0  0  0  0  0  0  0  0  0  0  0
   16.0955   -6.3037  -12.2826 C   0  0  0  0  0  0  0  0  0  0  0  0
   16.6840   -6.9430  -13.1881 O   0  0  0  0  0  0  0  0  0  0  0  0
   12.9799   -0.9141  -17.2288 C   0  0  0  0  0  0  0  0  0  0  0  0
   13.1047   -1.8116  -15.7092 S   0  0  0  0  0  0  0  0  0  0  0  0
   14.5724   -2.7785  -15.4423 C   0  0  0  0  0  0  0  0  0  0  0  0
   14.5750   -3.5382  -14.1668 C   0  0  0  0  0  0  0  0  0  0  0  0
   15.7769   -4.3774  -13.8899 C   0  0  2  0  0  0  0  0  0  0  0  0
   15.6420   -4.9909  -12.5601 N   0  0  0  0  0  0  0  0  0  0  0  0
   17.0386   -3.6269  -13.9353 C   0  0  0  0  0  0  0  0  0  0  0  0
   17.5250   -3.0942  -12.9225 O   0  0  0  0  0  0  0  0  0  0  0  0
   17.7341   -3.4871  -15.1211 O   0  0  0  0  0  0  0  0  0  0  0  0
  2  1  1  0
  2  3  2  0
  4  2  1  0
  5  4  1  0
  5  6  1  1
  7  8  2  0
  7  5  1  0
  9 10  1  0
 10 11  2  0
 10 12  1  0
 13 12  1  1
 13 15  1  0
 13 14  1  0
 14  7  1  0
 15 22  1  0
 16 15  2  0
 18 17  1  0
 19 18  1  0
 21 20  1  1
 20 19  1  0
 21 23  1  0
 22 21  1  0
 23 24  2  0
 23 25  1  0
M  END
$$$$
