NNM.pdb
     RDKit          3D

 25 24  0  0  1  0  0  0  0  0999 V2000
   30.7955  -22.9988  -18.7565 N   0  0  0  0  0  0  0  0  0  0  0  0
   29.8786  -21.9172  -18.9540 C   0  0  0  0  0  0  0  0  0  0  0  0
   30.2409  -20.9678  -19.6629 O   0  0  0  0  0  0  0  0  0  0  0  0
   28.5786  -21.9765  -18.3237 C   0  0  0  0  0  0  0  0  0  0  0  0
   28.5334  -22.4295  -16.8868 C   0  0  2  0  0  0  0  0  0  0  0  0
   27.8740  -23.7392  -16.9519 N   0  0  0  0  0  0  0  0  0  0  0  0
   27.6805  -21.4744  -16.1392 C   0  0  0  0  0  0  0  0  0  0  0  0
   28.1057  -20.3316  -15.8894 O   0  0  0  0  0  0  0  0  0  0  0  0
   22.3637  -19.5851  -14.3877 N   0  0  0  0  0  0  0  0  0  0  0  0
   23.7150  -19.4081  -14.7817 C   0  0  0  0  0  0  0  0  0  0  0  0
   24.3470  -18.3923  -14.4014 O   0  0  0  0  0  0  0  0  0  0  0  0
   24.3925  -20.3942  -15.6297 C   0  0  0  0  0  0  0  0  0  0  0  0
   25.6513  -20.8554  -14.8854 C   0  0  2  0  0  0  0  0  0  0  0  0
   26.3741  -21.7944  -15.6797 N   0  0  0  0  0  0  0  0  0  0  0  0
   25.2007  -21.4102  -13.5848 C   0  0  0  0  0  0  0  0  0  0  0  0
   24.3333  -22.3102  -13.4726 O   0  0  0  0  0  0  0  0  0  0  0  0
   28.5075  -20.3517   -7.5074 C   0  0  0  0  0  0  0  0  0  0  0  0
   26.8067  -19.8660   -7.4701 S   0  0  0  0  0  0  0  0  0  0  0  0
   25.7047  -20.6370   -8.6326 C   0  0  0  0  0  0  0  0  0  0  0  0
   26.1269  -20.5029  -10.0496 C   0  0  0  0  0  0  0  0  0  0  0  0
   25.2976  -21.2142  -11.0653 C   0  0  2  0  0  0  0  0  0  0  0  0
   25.7925  -20.8842  -12.4104 N   0  0  0  0  0  0  0  0  0  0  0  0
   23.8694  -20.8786  -10.9948 C   0  0  0  0  0  0  0  0  0  0  0  0
   23.0461  -21.6186  -10.4284 O   0  0  0  0  0  0  0  0  0  0  0  0
   23.3892  -19.7145  -11.5634 O   0  0  0  0  0  0  0  0  0  0  0  0
  2  1  1  0
  2  3  2  0
  4  2  1  0
  5  4  1  0
  5  6  1  6
  7  8  2  0
  7  5  1  0
  9 10  1  0
 10 11  2  0
 10 12  1  0
 13 12  1  6
 13 15  1  0
 13 14  1  0
 14  7  1  0
 15 22  1  0
 16 15  2  0
 18 17  1  0
 19 18  1  0
 21 20  1  1
 20 19  1  0
 21 23  1  0
 22 21  1  0
 23 24  2  0
 23 25  1  0
M  END
$$$$
