NNM.pdb
     RDKit          3D

 25 24  0  0  1  0  0  0  0  0999 V2000
   14.6800  -10.2556  -11.3702 N   0  0  0  0  0  0  0  0  0  0  0  0
   16.1045  -10.2539  -11.2276 C   0  0  0  0  0  0  0  0  0  0  0  0
   16.5827  -10.6243  -10.1462 O   0  0  0  0  0  0  0  0  0  0  0  0
   16.9198   -9.8239  -12.3417 C   0  0  0  0  0  0  0  0  0  0  0  0
   16.1976   -9.3475  -13.5760 C   0  0  2  0  0  0  0  0  0  0  0  0
   15.9000  -10.5844  -14.3082 N   0  0  0  0  0  0  0  0  0  0  0  0
   17.1429   -8.5155  -14.3590 C   0  0  0  0  0  0  0  0  0  0  0  0
   18.2143   -9.0076  -14.7577 O   0  0  0  0  0  0  0  0  0  0  0  0
   18.0730   -3.2500  -17.3731 N   0  0  0  0  0  0  0  0  0  0  0  0
   18.0386   -4.6457  -17.1212 C   0  0  0  0  0  0  0  0  0  0  0  0
   18.8013   -5.4128  -17.7582 O   0  0  0  0  0  0  0  0  0  0  0  0
   17.1242   -5.2137  -16.1253 C   0  0  0  0  0  0  0  0  0  0  0  0
   17.8070   -6.4475  -15.5229 C   0  0  2  0  0  0  0  0  0  0  0  0
   16.8917   -7.1561  -14.6892 N   0  0  0  0  0  0  0  0  0  0  0  0
   19.0069   -5.9616  -14.7975 C   0  0  0  0  0  0  0  0  0  0  0  0
   18.9696   -5.4407  -13.6563 O   0  0  0  0  0  0  0  0  0  0  0  0
   24.5654  -10.3337  -14.1423 C   0  0  0  0  0  0  0  0  0  0  0  0
   24.1656   -8.8786  -15.0659 S   0  0  0  0  0  0  0  0  0  0  0  0
   22.8599   -7.8433  -14.4466 C   0  0  0  0  0  0  0  0  0  0  0  0
   22.6095   -6.6288  -15.2629 C   0  0  0  0  0  0  0  0  0  0  0  0
   21.5242   -5.7191  -14.7939 C   0  0  2  0  0  0  0  0  0  0  0  0
   20.2603   -6.1000  -15.4424 N   0  0  0  0  0  0  0  0  0  0  0  0
   21.7868   -4.3012  -15.0731 C   0  0  0  0  0  0  0  0  0  0  0  0
   21.3924   -3.7512  -16.1162 O   0  0  0  0  0  0  0  0  0  0  0  0
   22.4901   -3.5234  -14.1733 O   0  0  0  0  0  0  0  0  0  0  0  0
  2  1  1  0
  2  3  2  0
  4  2  1  0
  5  4  1  0
  5  6  1  6
  7  8  2  0
  7  5  1  0
  9 10  1  0
 10 11  2  0
 10 12  1  0
 13 12  1  1
 13 15  1  0
 13 14  1  0
 14  7  1  0
 15 22  1  0
 16 15  2  0
 18 17  1  0
 19 18  1  0
 21 20  1  6
 20 19  1  0
 21 23  1  0
 22 21  1  0
 23 24  2  0
 23 25  1  0
M  END
$$$$
