NNM.pdb
     RDKit          3D

 25 24  0  0  1  0  0  0  0  0999 V2000
   19.5548  -22.7459  -13.4879 N   0  0  0  0  0  0  0  0  0  0  0  0
   19.8249  -21.8422  -12.4109 C   0  0  0  0  0  0  0  0  0  0  0  0
   19.0338  -21.8183  -11.4575 O   0  0  0  0  0  0  0  0  0  0  0  0
   20.9996  -21.0018  -12.4790 C   0  0  0  0  0  0  0  0  0  0  0  0
   21.7661  -20.9990  -13.7769 C   0  0  2  0  0  0  0  0  0  0  0  0
   21.9883  -22.4227  -14.0567 N   0  0  0  0  0  0  0  0  0  0  0  0
   23.0648  -20.3265  -13.5325 C   0  0  0  0  0  0  0  0  0  0  0  0
   23.0873  -19.1212  -13.2227 O   0  0  0  0  0  0  0  0  0  0  0  0
   25.6743  -21.6016  -10.6588 N   0  0  0  0  0  0  0  0  0  0  0  0
   26.5169  -20.8001  -11.4713 C   0  0  0  0  0  0  0  0  0  0  0  0
   27.1768  -19.8661  -10.9535 O   0  0  0  0  0  0  0  0  0  0  0  0
   26.6329  -21.0422  -12.9130 C   0  0  0  0  0  0  0  0  0  0  0  0
   25.5264  -20.2384  -13.6063 C   0  0  2  0  0  0  0  0  0  0  0  0
   24.3161  -20.9930  -13.6335 N   0  0  0  0  0  0  0  0  0  0  0  0
   26.0321  -19.8906  -14.9574 C   0  0  0  0  0  0  0  0  0  0  0  0
   26.3312  -20.7405  -15.8311 O   0  0  0  0  0  0  0  0  0  0  0  0
   31.1245  -16.5375  -16.2041 C   0  0  0  0  0  0  0  0  0  0  0  0
   30.5545  -17.3067  -17.6919 S   0  0  0  0  0  0  0  0  0  0  0  0
   28.8124  -17.6300  -17.8363 C   0  0  0  0  0  0  0  0  0  0  0  0
   28.1409  -17.9246  -16.5454 C   0  0  0  0  0  0  0  0  0  0  0  0
   26.6549  -18.0512  -16.5774 C   0  0  2  0  0  0  0  0  0  0  0  0
   26.1810  -18.5161  -15.2650 N   0  0  0  0  0  0  0  0  0  0  0  0
   26.1679  -18.9776  -17.6079 C   0  0  0  0  0  0  0  0  0  0  0  0
   26.8487  -19.9400  -18.0032 O   0  0  0  0  0  0  0  0  0  0  0  0
   24.9211  -18.8063  -18.1783 O   0  0  0  0  0  0  0  0  0  0  0  0
  2  1  1  0
  2  3  2  0
  4  2  1  0
  5  4  1  0
  5  6  1  1
  7  8  2  0
  7  5  1  0
  9 10  1  0
 10 11  2  0
 10 12  1  0
 13 12  1  6
 13 15  1  0
 13 14  1  0
 14  7  1  0
 15 22  1  0
 16 15  2  0
 18 17  1  0
 19 18  1  0
 21 20  1  1
 20 19  1  0
 21 23  1  0
 22 21  1  0
 23 24  2  0
 23 25  1  0
M  END
$$$$
