DAI.pdb
     RDKit          3D

 22 21  0  0  1  0  0  0  0  0999 V2000
   22.1783  -10.4647  -15.8902 N   0  0  0  0  0  0  0  0  0  0  0  0
   21.7843   -9.3845  -16.7678 C   0  0  1  0  0  0  0  0  0  0  0  0
   20.7112   -9.9179  -17.6949 C   0  0  0  0  0  0  0  0  0  0  0  0
   21.3675  -10.9045  -18.5896 C   0  0  0  0  0  0  0  0  0  0  0  0
   21.0794  -12.1252  -18.4865 O   0  0  0  0  0  0  0  0  0  0  0  0
   21.3602   -8.2419  -15.9605 C   0  0  0  0  0  0  0  0  0  0  0  0
   20.3122   -8.3195  -15.2729 O   0  0  0  0  0  0  0  0  0  0  0  0
   22.2928  -10.5238  -19.5393 O   0  0  0  0  0  0  0  0  0  0  0  0
   22.7322   -4.9404  -14.8925 C   0  0  0  0  0  0  0  0  0  0  0  0
   21.5957   -5.9063  -15.0835 C   0  0  2  0  0  0  0  0  0  0  0  0
   22.0730   -7.0068  -15.8955 N   0  0  0  0  0  0  0  0  0  0  0  0
   20.4111   -5.2305  -15.7190 C   0  0  0  0  0  0  0  0  0  0  0  0
   20.4138   -5.2254  -16.9645 O   0  0  0  0  0  0  0  0  0  0  0  0
   14.8182   -5.6030  -14.9838 C   0  0  0  0  0  0  0  0  0  0  0  0
   16.1671   -5.0053  -14.5393 C   0  0  0  0  0  0  0  0  0  0  0  0
   17.0065   -4.6608  -15.7213 C   0  0  2  0  0  0  0  0  0  0  0  0
   17.2559   -5.9433  -16.4873 C   0  0  0  0  0  0  0  0  0  0  0  0
   18.2617   -3.8981  -15.4395 C   0  0  2  0  0  0  0  0  0  0  0  0
   19.3885   -4.6537  -14.9806 N   0  0  0  0  0  0  0  0  0  0  0  0
   18.1152   -2.5814  -14.8504 C   0  0  0  0  0  0  0  0  0  0  0  0
   18.5635   -2.1421  -13.6460 O   0  0  0  0  0  0  0  0  0  0  0  0
   17.4786   -1.7141  -15.5587 O   0  0  0  0  0  0  0  0  0  0  0  0
  2  6  1  0
  2  1  1  1
  2  3  1  0
  3  4  1  0
  4  5  2  0
  4  8  1  0
  6  7  2  0
 10  9  1  6
 10 12  1  0
 11 10  1  0
 11  6  1  0
 12 19  1  0
 12 13  2  0
 15 14  1  0
 16 15  1  0
 16 17  1  1
 18 16  1  0
 18 19  1  1
 20 21  1  0
 20 18  1  0
 22 20  2  0
M  END
$$$$
