DAI.pdb
     RDKit          3D

 22 21  0  0  1  0  0  0  0  0999 V2000
   14.7984   -9.8544  -16.1991 N   0  0  0  0  0  0  0  0  0  0  0  0
   15.1172   -9.2911  -14.9055 C   0  0  1  0  0  0  0  0  0  0  0  0
   15.4989  -10.4368  -13.9904 C   0  0  0  0  0  0  0  0  0  0  0  0
   14.2533  -11.1934  -13.7064 C   0  0  0  0  0  0  0  0  0  0  0  0
   14.2442  -12.4456  -13.8327 O   0  0  0  0  0  0  0  0  0  0  0  0
   16.1637   -8.2831  -15.0667 C   0  0  0  0  0  0  0  0  0  0  0  0
   17.1676   -8.5355  -15.7778 O   0  0  0  0  0  0  0  0  0  0  0  0
   13.0937  -10.5632  -13.3054 O   0  0  0  0  0  0  0  0  0  0  0  0
   16.6383   -4.6642  -14.3105 C   0  0  0  0  0  0  0  0  0  0  0  0
   17.1681   -6.0173  -14.6971 C   0  0  2  0  0  0  0  0  0  0  0  0
   16.1258   -6.9937  -14.4555 N   0  0  0  0  0  0  0  0  0  0  0  0
   18.4183   -6.3495  -13.9288 C   0  0  0  0  0  0  0  0  0  0  0  0
   18.2286   -6.7809  -12.7759 O   0  0  0  0  0  0  0  0  0  0  0  0
   23.0919   -9.5335  -13.3327 C   0  0  0  0  0  0  0  0  0  0  0  0
   22.9565   -8.0418  -13.6942 C   0  0  0  0  0  0  0  0  0  0  0  0
   21.6199   -7.7628  -14.2910 C   0  0  2  0  0  0  0  0  0  0  0  0
   21.7649   -7.8727  -15.7946 C   0  0  0  0  0  0  0  0  0  0  0  0
   20.9577   -6.4925  -13.8618 C   0  0  2  0  0  0  0  0  0  0  0  0
   19.6908   -6.1902  -14.4573 N   0  0  0  0  0  0  0  0  0  0  0  0
   21.8172   -5.3507  -13.6169 C   0  0  0  0  0  0  0  0  0  0  0  0
   21.8067   -4.1402  -14.2326 O   0  0  0  0  0  0  0  0  0  0  0  0
   22.7061   -5.5007  -12.6969 O   0  0  0  0  0  0  0  0  0  0  0  0
  2  6  1  0
  2  1  1  6
  2  3  1  0
  3  4  1  0
  4  5  2  0
  4  8  1  0
  6  7  2  0
 10  9  1  1
 10 12  1  0
 11 10  1  0
 11  6  1  0
 12 19  1  0
 12 13  2  0
 15 14  1  0
 16 15  1  0
 16 17  1  6
 18 16  1  0
 18 19  1  6
 20 21  1  0
 20 18  1  0
 22 20  2  0
M  END
$$$$
