DAI.pdb
     RDKit          3D

 22 21  0  0  1  0  0  0  0  0999 V2000
   15.9050  -10.8208  -16.8346 N   0  0  0  0  0  0  0  0  0  0  0  0
   16.1972  -10.5280  -15.4485 C   0  0  1  0  0  0  0  0  0  0  0  0
   17.0513  -11.6594  -14.9134 C   0  0  0  0  0  0  0  0  0  0  0  0
   16.1206  -12.7274  -14.4687 C   0  0  0  0  0  0  0  0  0  0  0  0
   15.0483  -12.4155  -13.8884 O   0  0  0  0  0  0  0  0  0  0  0  0
   16.8275   -9.2120  -15.3595 C   0  0  0  0  0  0  0  0  0  0  0  0
   17.7797   -8.9241  -16.1260 O   0  0  0  0  0  0  0  0  0  0  0  0
   16.3953  -14.0638  -14.6718 O   0  0  0  0  0  0  0  0  0  0  0  0
   16.2259   -5.9664  -13.6107 C   0  0  0  0  0  0  0  0  0  0  0  0
   17.0887   -6.9122  -14.3993 C   0  0  2  0  0  0  0  0  0  0  0  0
   16.4266   -8.1999  -14.4361 N   0  0  0  0  0  0  0  0  0  0  0  0
   18.4638   -7.0204  -13.7983 C   0  0  0  0  0  0  0  0  0  0  0  0
   18.5478   -7.7717  -12.8083 O   0  0  0  0  0  0  0  0  0  0  0  0
   23.8277   -8.8759  -14.6848 C   0  0  0  0  0  0  0  0  0  0  0  0
   23.1737   -7.5997  -14.1210 C   0  0  0  0  0  0  0  0  0  0  0  0
   21.7575   -7.4895  -14.5714 C   0  0  2  0  0  0  0  0  0  0  0  0
   21.7718   -7.3691  -16.0811 C   0  0  0  0  0  0  0  0  0  0  0  0
   20.9357   -6.4287  -13.9110 C   0  0  2  0  0  0  0  0  0  0  0  0
   19.5611   -6.3381  -14.3024 N   0  0  0  0  0  0  0  0  0  0  0  0
   21.5885   -5.1632  -13.6377 C   0  0  0  0  0  0  0  0  0  0  0  0
   21.2049   -3.9173  -14.0185 O   0  0  0  0  0  0  0  0  0  0  0  0
   22.6720   -5.2256  -12.9440 O   0  0  0  0  0  0  0  0  0  0  0  0
  2  6  1  0
  2  1  1  6
  2  3  1  0
  3  4  1  0
  4  5  2  0
  4  8  1  0
  6  7  2  0
 10  9  1  1
 10 12  1  0
 11 10  1  0
 11  6  1  0
 12 19  1  0
 12 13  2  0
 15 14  1  0
 16 15  1  0
 16 17  1  6
 18 16  1  0
 18 19  1  6
 20 21  1  0
 20 18  1  0
 22 20  2  0
M  END
$$$$
