DAI.pdb
     RDKit          3D

 22 21  0  0  1  0  0  0  0  0999 V2000
   16.2584  -10.6136  -14.9055 N   0  0  0  0  0  0  0  0  0  0  0  0
   15.3613  -10.7998  -13.7861 C   0  0  1  0  0  0  0  0  0  0  0  0
   15.2157  -12.2911  -13.5611 C   0  0  0  0  0  0  0  0  0  0  0  0
   14.3148  -12.8005  -14.6259 C   0  0  0  0  0  0  0  0  0  0  0  0
   14.0106  -12.0541  -15.5924 O   0  0  0  0  0  0  0  0  0  0  0  0
   15.8800  -10.0706  -12.6301 C   0  0  0  0  0  0  0  0  0  0  0  0
   15.3039  -10.1734  -11.5189 O   0  0  0  0  0  0  0  0  0  0  0  0
   13.7943  -14.0774  -14.5901 O   0  0  0  0  0  0  0  0  0  0  0  0
   18.8419   -7.9317  -11.8075 C   0  0  0  0  0  0  0  0  0  0  0  0
   17.5051   -8.5423  -11.4889 C   0  0  2  0  0  0  0  0  0  0  0  0
   17.0288   -9.2244  -12.6746 N   0  0  0  0  0  0  0  0  0  0  0  0
   16.5270   -7.4956  -11.0291 C   0  0  0  0  0  0  0  0  0  0  0  0
   15.8362   -6.9878  -11.9325 O   0  0  0  0  0  0  0  0  0  0  0  0
   12.0585   -5.9422   -7.5573 C   0  0  0  0  0  0  0  0  0  0  0  0
   13.4210   -5.3914   -8.0207 C   0  0  0  0  0  0  0  0  0  0  0  0
   14.2960   -6.4931   -8.5118 C   0  0  2  0  0  0  0  0  0  0  0  0
   14.4766   -7.4700   -7.3686 C   0  0  0  0  0  0  0  0  0  0  0  0
   15.5917   -6.0794   -9.1336 C   0  0  2  0  0  0  0  0  0  0  0  0
   16.3979   -7.1184   -9.7006 N   0  0  0  0  0  0  0  0  0  0  0  0
   16.3237   -5.0101   -8.4831 C   0  0  0  0  0  0  0  0  0  0  0  0
   15.9740   -3.7037   -8.3579 O   0  0  0  0  0  0  0  0  0  0  0  0
   17.4514   -5.3387   -7.9544 O   0  0  0  0  0  0  0  0  0  0  0  0
  2  6  1  0
  2  1  1  6
  2  3  1  0
  3  4  1  0
  4  5  2  0
  4  8  1  0
  6  7  2  0
 10  9  1  6
 10 12  1  0
 11 10  1  0
 11  6  1  0
 12 19  1  0
 12 13  2  0
 15 14  1  0
 16 15  1  0
 16 17  1  1
 18 16  1  0
 18 19  1  1
 20 21  1  0
 20 18  1  0
 22 20  2  0
M  END
$$$$
