DAI.pdb
     RDKit          3D

 22 21  0  0  1  0  0  0  0  0999 V2000
   23.5490  -19.7308  -17.7572 N   0  0  0  0  0  0  0  0  0  0  0  0
   23.5487  -18.9440  -16.5435 C   0  0  1  0  0  0  0  0  0  0  0  0
   22.1324  -18.9361  -16.0050 C   0  0  0  0  0  0  0  0  0  0  0  0
   21.3415  -18.0426  -16.8886 C   0  0  0  0  0  0  0  0  0  0  0  0
   21.8849  -17.0239  -17.3894 O   0  0  0  0  0  0  0  0  0  0  0  0
   24.5358  -19.4939  -15.6159 C   0  0  0  0  0  0  0  0  0  0  0  0
   24.2125  -20.4319  -14.8461 O   0  0  0  0  0  0  0  0  0  0  0  0
   20.0171  -18.2941  -17.1813 O   0  0  0  0  0  0  0  0  0  0  0  0
   28.1462  -18.9438  -14.7615 C   0  0  0  0  0  0  0  0  0  0  0  0
   26.8076  -19.5998  -14.5639 C   0  0  2  0  0  0  0  0  0  0  0  0
   25.8814  -19.0273  -15.5191 N   0  0  0  0  0  0  0  0  0  0  0  0
   26.3192  -19.4201  -13.1522 C   0  0  0  0  0  0  0  0  0  0  0  0
   25.7324  -18.3439  -12.9313 O   0  0  0  0  0  0  0  0  0  0  0  0
   23.0442  -21.3489   -8.7113 C   0  0  0  0  0  0  0  0  0  0  0  0
   24.4288  -20.7227   -8.9662 C   0  0  0  0  0  0  0  0  0  0  0  0
   24.8425  -20.9167  -10.3846 C   0  0  2  0  0  0  0  0  0  0  0  0
   24.7605  -22.3998  -10.6801 C   0  0  0  0  0  0  0  0  0  0  0  0
   26.1552  -20.3170  -10.7769 C   0  0  2  0  0  0  0  0  0  0  0  0
   26.5044  -20.3762  -12.1646 N   0  0  0  0  0  0  0  0  0  0  0  0
   27.2588  -20.4822   -9.8511 C   0  0  0  0  0  0  0  0  0  0  0  0
   27.3920  -19.9735   -8.5989 O   0  0  0  0  0  0  0  0  0  0  0  0
   28.2409  -21.2045  -10.2670 O   0  0  0  0  0  0  0  0  0  0  0  0
  2  6  1  0
  2  1  1  6
  2  3  1  0
  3  4  1  0
  4  5  2  0
  4  8  1  0
  6  7  2  0
 10  9  1  1
 10 12  1  0
 11 10  1  0
 11  6  1  0
 12 19  1  0
 12 13  2  0
 15 14  1  0
 16 15  1  0
 16 17  1  1
 18 16  1  0
 18 19  1  6
 20 21  1  0
 20 18  1  0
 22 20  2  0
M  END
$$$$
