DAI.pdb
     RDKit          3D

 22 21  0  0  1  0  0  0  0  0999 V2000
   16.5539  -11.8600  -12.0194 N   0  0  0  0  0  0  0  0  0  0  0  0
   16.3339  -10.5143  -12.5021 C   0  0  1  0  0  0  0  0  0  0  0  0
   14.9719  -10.4842  -13.1654 C   0  0  0  0  0  0  0  0  0  0  0  0
   15.0688  -11.3264  -14.3844 C   0  0  0  0  0  0  0  0  0  0  0  0
   15.9872  -11.1109  -15.2174 O   0  0  0  0  0  0  0  0  0  0  0  0
   16.4755   -9.5770  -11.3892 C   0  0  0  0  0  0  0  0  0  0  0  0
   15.7170   -9.6736  -10.3930 O   0  0  0  0  0  0  0  0  0  0  0  0
   14.1759  -12.3470  -14.6374 O   0  0  0  0  0  0  0  0  0  0  0  0
   18.8248   -6.8771  -10.3151 C   0  0  0  0  0  0  0  0  0  0  0  0
   17.5169   -7.6142  -10.2307 C   0  0  2  0  0  0  0  0  0  0  0  0
   17.4430   -8.5281  -11.3520 N   0  0  0  0  0  0  0  0  0  0  0  0
   16.3553   -6.6580  -10.2261 C   0  0  0  0  0  0  0  0  0  0  0  0
   15.8014   -6.4975  -11.3301 O   0  0  0  0  0  0  0  0  0  0  0  0
   11.6428   -5.1900   -6.8450 C   0  0  0  0  0  0  0  0  0  0  0  0
   13.0105   -4.6377   -7.2909 C   0  0  0  0  0  0  0  0  0  0  0  0
   13.5925   -5.4809   -8.3729 C   0  0  2  0  0  0  0  0  0  0  0  0
   13.6490   -6.9034   -7.8561 C   0  0  0  0  0  0  0  0  0  0  0  0
   14.8951   -5.0168   -8.9426 C   0  0  2  0  0  0  0  0  0  0  0  0
   15.9268   -6.0001   -9.0827 N   0  0  0  0  0  0  0  0  0  0  0  0
   15.3468   -3.6924   -8.5624 C   0  0  0  0  0  0  0  0  0  0  0  0
   14.6649   -2.5194   -8.6232 O   0  0  0  0  0  0  0  0  0  0  0  0
   16.5494   -3.6155   -8.1075 O   0  0  0  0  0  0  0  0  0  0  0  0
  2  6  1  0
  2  1  1  1
  2  3  1  0
  3  4  1  0
  4  5  2  0
  4  8  1  0
  6  7  2  0
 10  9  1  6
 10 12  1  0
 11 10  1  0
 11  6  1  0
 12 19  1  0
 12 13  2  0
 15 14  1  0
 16 15  1  0
 16 17  1  1
 18 16  1  0
 18 19  1  1
 20 21  1  0
 20 18  1  0
 22 20  2  0
M  END
$$$$
