DAI.pdb
     RDKit          3D

 22 21  0  0  1  0  0  0  0  0999 V2000
   26.0740  -21.5591  -15.0744 N   0  0  0  0  0  0  0  0  0  0  0  0
   27.2085  -21.0213  -14.3559 C   0  0  1  0  0  0  0  0  0  0  0  0
   27.9195  -20.0559  -15.2822 C   0  0  0  0  0  0  0  0  0  0  0  0
   28.2958  -20.8233  -16.4963 C   0  0  0  0  0  0  0  0  0  0  0  0
   29.1129  -21.7757  -16.4012 O   0  0  0  0  0  0  0  0  0  0  0  0
   26.7429  -20.4170  -13.1087 C   0  0  0  0  0  0  0  0  0  0  0  0
   27.4630  -19.5748  -12.5178 O   0  0  0  0  0  0  0  0  0  0  0  0
   27.7748  -20.5236  -17.7379 O   0  0  0  0  0  0  0  0  0  0  0  0
   23.5467  -20.0294  -11.2928 C   0  0  0  0  0  0  0  0  0  0  0  0
   25.0504  -20.0343  -11.3009 C   0  0  2  0  0  0  0  0  0  0  0  0
   25.4910  -20.7246  -12.4957 N   0  0  0  0  0  0  0  0  0  0  0  0
   25.5969  -20.6853  -10.0594 C   0  0  0  0  0  0  0  0  0  0  0  0
   25.7129  -21.9238  -10.1221 O   0  0  0  0  0  0  0  0  0  0  0  0
   29.1279  -19.4257   -5.1241 C   0  0  0  0  0  0  0  0  0  0  0  0
   27.9830  -20.2832   -5.6972 C   0  0  0  0  0  0  0  0  0  0  0  0
   27.4761  -19.7020   -6.9722 C   0  0  2  0  0  0  0  0  0  0  0  0
   27.1214  -18.2550   -6.6995 C   0  0  0  0  0  0  0  0  0  0  0  0
   26.3736  -20.4537   -7.6477 C   0  0  2  0  0  0  0  0  0  0  0  0
   25.9475  -19.9674   -8.9256 N   0  0  0  0  0  0  0  0  0  0  0  0
   25.3214  -20.9826   -6.8020 C   0  0  0  0  0  0  0  0  0  0  0  0
   25.4137  -21.9330   -5.8362 O   0  0  0  0  0  0  0  0  0  0  0  0
   24.1463  -20.4889   -6.9881 O   0  0  0  0  0  0  0  0  0  0  0  0
  2  6  1  0
  2  1  1  6
  2  3  1  0
  3  4  1  0
  4  5  2  0
  4  8  1  0
  6  7  2  0
 10  9  1  1
 10 12  1  0
 11 10  1  0
 11  6  1  0
 12 19  1  0
 12 13  2  0
 15 14  1  0
 16 15  1  0
 16 17  1  1
 18 16  1  0
 18 19  1  6
 20 21  1  0
 20 18  1  0
 22 20  2  0
M  END
$$$$
