DAI.pdb
     RDKit          3D

 22 21  0  0  1  0  0  0  0  0999 V2000
   15.9974  -18.4466  -16.8323 N   0  0  0  0  0  0  0  0  0  0  0  0
   16.8168  -17.8663  -17.8735 C   0  0  1  0  0  0  0  0  0  0  0  0
   15.9829  -17.8193  -19.1377 C   0  0  0  0  0  0  0  0  0  0  0  0
   15.8793  -19.2140  -19.6364 C   0  0  0  0  0  0  0  0  0  0  0  0
   14.8687  -19.5633  -20.3002 O   0  0  0  0  0  0  0  0  0  0  0  0
   17.3008  -16.5600  -17.4300 C   0  0  0  0  0  0  0  0  0  0  0  0
   16.4782  -15.6643  -17.1167 O   0  0  0  0  0  0  0  0  0  0  0  0
   16.8634  -20.1495  -19.3931 O   0  0  0  0  0  0  0  0  0  0  0  0
   20.5796  -14.9442  -16.6255 C   0  0  0  0  0  0  0  0  0  0  0  0
   19.0998  -14.9015  -16.8896 C   0  0  2  0  0  0  0  0  0  0  0  0
   18.6829  -16.2188  -17.3243 N   0  0  0  0  0  0  0  0  0  0  0  0
   18.7625  -13.8540  -17.9157 C   0  0  0  0  0  0  0  0  0  0  0  0
   18.8187  -14.2390  -19.0989 O   0  0  0  0  0  0  0  0  0  0  0  0
   15.0307  -10.1822  -20.3648 C   0  0  0  0  0  0  0  0  0  0  0  0
   16.4729  -10.1335  -19.8243 C   0  0  0  0  0  0  0  0  0  0  0  0
   16.7340  -11.2835  -18.9132 C   0  0  2  0  0  0  0  0  0  0  0  0
   15.7359  -11.1955  -17.7775 C   0  0  0  0  0  0  0  0  0  0  0  0
   18.1432  -11.4423  -18.4382 C   0  0  2  0  0  0  0  0  0  0  0  0
   18.4143  -12.5546  -17.5779 N   0  0  0  0  0  0  0  0  0  0  0  0
   18.8778  -10.2294  -18.1356 C   0  0  0  0  0  0  0  0  0  0  0  0
   19.1735   -9.1941  -18.9634 O   0  0  0  0  0  0  0  0  0  0  0  0
   19.3061  -10.1162  -16.9260 O   0  0  0  0  0  0  0  0  0  0  0  0
  2  6  1  0
  2  1  1  1
  2  3  1  0
  3  4  1  0
  4  5  2  0
  4  8  1  0
  6  7  2  0
 10  9  1  6
 10 12  1  0
 11 10  1  0
 11  6  1  0
 12 19  1  0
 12 13  2  0
 15 14  1  0
 16 15  1  0
 16 17  1  1
 18 16  1  0
 18 19  1  1
 20 21  1  0
 20 18  1  0
 22 20  2  0
M  END
$$$$
