GQP.pdb
     RDKit          3D

 21 21  0  0  1  0  0  0  0  0999 V2000
    7.0035  -16.0829   19.4712 N   0  0  0  0  0  0  0  0  0  0  0  0
    7.7526  -15.1649   20.2745 C   0  0  0  0  0  0  0  0  0  0  0  0
    7.3053  -15.2305   21.7106 C   0  0  0  0  0  0  0  0  0  0  0  0
    6.2099  -14.7412   22.0161 O   0  0  0  0  0  0  0  0  0  0  0  0
    8.3550  -19.6918   25.6329 N   0  0  0  0  0  0  0  0  0  0  0  0
    7.0594  -19.1291   25.8982 C   0  0  0  0  0  0  0  0  0  0  0  0
    6.2790  -19.8125   26.5954 O   0  0  0  0  0  0  0  0  0  0  0  0
    6.6894  -17.7747   25.3464 C   0  0  0  0  0  0  0  0  0  0  0  0
    7.8990  -17.2827   24.5977 C   0  0  0  0  0  0  0  0  0  0  0  0
    7.8296  -15.9009   24.0861 C   0  0  2  0  0  0  0  0  0  0  0  0
    8.1297  -15.8417   22.6814 N   0  0  0  0  0  0  0  0  0  0  0  0
    8.4619  -14.8321   24.8596 C   0  0  0  0  0  0  0  0  0  0  0  0
    9.7352  -14.7294   24.7073 O   0  0  0  0  0  0  0  0  0  0  0  0
    7.8426  -13.9227   25.7345 N   0  0  0  0  0  0  0  0  0  0  0  0
    6.3787  -13.6923   25.6707 C   0  0  0  0  0  0  0  0  0  0  0  0
    6.2172  -12.2659   26.1480 C   0  0  0  0  0  0  0  0  0  0  0  0
    7.1442  -12.2828   27.3408 C   0  0  0  0  0  0  0  0  0  0  0  0
    8.3414  -13.0687   26.7780 C   0  0  1  0  0  0  0  0  0  0  0  0
    8.9001  -13.7946   27.9312 C   0  0  0  0  0  0  0  0  0  0  0  0
    8.6336  -15.0012   28.0903 O   0  0  0  0  0  0  0  0  0  0  0  0
    9.7176  -13.1605   28.8439 O   0  0  0  0  0  0  0  0  0  0  0  0
  2  1  1  0
  2  3  1  0
  3 11  1  0
  4  3  2  0
  5  6  1  0
  6  8  1  0
  7  6  2  0
  8  9  1  0
 10  9  1  1
 11 10  1  0
 12 10  1  0
 12 14  1  0
 13 12  2  0
 14 18  1  0
 15 14  1  0
 15 16  1  0
 16 17  1  0
 18 17  1  0
 18 19  1  1
 19 21  1  0
 20 19  2  0
M  END
$$$$
