GQP.pdb
     RDKit          3D

 21 21  0  0  1  0  0  0  0  0999 V2000
    3.2225  -18.9268   21.3457 N   0  0  0  0  0  0  0  0  0  0  0  0
    4.2790  -18.8955   22.3111 C   0  0  0  0  0  0  0  0  0  0  0  0
    4.9305  -17.5385   22.3397 C   0  0  0  0  0  0  0  0  0  0  0  0
    4.5361  -16.6718   21.5484 O   0  0  0  0  0  0  0  0  0  0  0  0
    7.9717  -15.4115   27.1774 N   0  0  0  0  0  0  0  0  0  0  0  0
    8.2845  -14.3329   26.2807 C   0  0  0  0  0  0  0  0  0  0  0  0
    8.8790  -13.3475   26.7685 O   0  0  0  0  0  0  0  0  0  0  0  0
    7.8999  -14.4166   24.8244 C   0  0  0  0  0  0  0  0  0  0  0  0
    7.1663  -15.7206   24.6592 C   0  0  0  0  0  0  0  0  0  0  0  0
    6.7408  -16.0584   23.2879 C   0  0  2  0  0  0  0  0  0  0  0  0
    5.9711  -17.2721   23.2571 N   0  0  0  0  0  0  0  0  0  0  0  0
    7.7200  -15.9651   22.2048 C   0  0  0  0  0  0  0  0  0  0  0  0
    8.3483  -17.0567   21.9429 O   0  0  0  0  0  0  0  0  0  0  0  0
    8.0434  -14.8351   21.4339 N   0  0  0  0  0  0  0  0  0  0  0  0
    7.4769  -13.5059   21.7690 C   0  0  0  0  0  0  0  0  0  0  0  0
    7.4186  -12.7924   20.4364 C   0  0  0  0  0  0  0  0  0  0  0  0
    8.7778  -13.1553   19.8858 C   0  0  0  0  0  0  0  0  0  0  0  0
    8.8706  -14.6414   20.2739 C   0  0  1  0  0  0  0  0  0  0  0  0
   10.3032  -14.8871   20.5113 C   0  0  0  0  0  0  0  0  0  0  0  0
   10.7375  -14.9332   21.6782 O   0  0  0  0  0  0  0  0  0  0  0  0
   11.1785  -15.0683   19.4604 O   0  0  0  0  0  0  0  0  0  0  0  0
  2  1  1  0
  2  3  1  0
  3 11  1  0
  4  3  2  0
  5  6  1  0
  6  8  1  0
  7  6  2  0
  8  9  1  0
 10  9  1  1
 11 10  1  0
 12 10  1  0
 12 14  1  0
 13 12  2  0
 14 18  1  0
 15 14  1  0
 15 16  1  0
 16 17  1  0
 18 17  1  0
 18 19  1  1
 19 21  1  0
 20 19  2  0
M  END
$$$$
