GQP.pdb
     RDKit          3D

 21 21  0  0  1  0  0  0  0  0999 V2000
    7.7510  -12.9362   19.3264 N   0  0  0  0  0  0  0  0  0  0  0  0
    8.2965  -14.0187   20.0877 C   0  0  0  0  0  0  0  0  0  0  0  0
    7.6406  -14.0983   21.4406 C   0  0  0  0  0  0  0  0  0  0  0  0
    6.9807  -13.1300   21.8403 O   0  0  0  0  0  0  0  0  0  0  0  0
    7.5840  -19.2468   24.6736 N   0  0  0  0  0  0  0  0  0  0  0  0
    6.8899  -18.4346   25.6348 C   0  0  0  0  0  0  0  0  0  0  0  0
    6.7304  -18.9213   26.7750 O   0  0  0  0  0  0  0  0  0  0  0  0
    6.3897  -17.0632   25.2543 C   0  0  0  0  0  0  0  0  0  0  0  0
    6.9117  -16.7968   23.8677 C   0  0  0  0  0  0  0  0  0  0  0  0
    7.2912  -15.4023   23.5724 C   0  0  2  0  0  0  0  0  0  0  0  0
    7.7834  -15.2617   22.2290 N   0  0  0  0  0  0  0  0  0  0  0  0
    8.0797  -14.6641   24.5591 C   0  0  0  0  0  0  0  0  0  0  0  0
    9.3437  -14.9027   24.5353 O   0  0  0  0  0  0  0  0  0  0  0  0
    7.6166  -13.7405   25.5123 N   0  0  0  0  0  0  0  0  0  0  0  0
    6.2111  -13.2674   25.4834 C   0  0  0  0  0  0  0  0  0  0  0  0
    6.2862  -11.8783   26.0779 C   0  0  0  0  0  0  0  0  0  0  0  0
    7.1941  -12.1464   27.2552 C   0  0  0  0  0  0  0  0  0  0  0  0
    8.2466  -13.0697   26.6169 C   0  0  1  0  0  0  0  0  0  0  0  0
    8.6743  -13.9708   27.7006 C   0  0  0  0  0  0  0  0  0  0  0  0
    9.4539  -13.5549   28.5789 O   0  0  0  0  0  0  0  0  0  0  0  0
    8.2256  -15.2739   27.7621 O   0  0  0  0  0  0  0  0  0  0  0  0
  2  1  1  0
  2  3  1  0
  3 11  1  0
  4  3  2  0
  5  6  1  0
  6  8  1  0
  7  6  2  0
  8  9  1  0
 10  9  1  1
 11 10  1  0
 12 10  1  0
 12 14  1  0
 13 12  2  0
 14 18  1  0
 15 14  1  0
 15 16  1  0
 16 17  1  0
 18 17  1  0
 18 19  1  1
 19 21  1  0
 20 19  2  0
M  END
$$$$
