GQP.pdb
     RDKit          3D

 21 21  0  0  1  0  0  0  0  0999 V2000
    7.5634  -13.3177   19.5273 N   0  0  0  0  0  0  0  0  0  0  0  0
    8.1634  -14.3538   20.3120 C   0  0  0  0  0  0  0  0  0  0  0  0
    7.5151  -14.4340   21.6684 C   0  0  0  0  0  0  0  0  0  0  0  0
    6.7355  -13.5349   22.0099 O   0  0  0  0  0  0  0  0  0  0  0  0
    7.1122  -19.6167   24.8677 N   0  0  0  0  0  0  0  0  0  0  0  0
    6.7920  -18.7319   25.9540 C   0  0  0  0  0  0  0  0  0  0  0  0
    6.5258  -19.2620   27.0542 O   0  0  0  0  0  0  0  0  0  0  0  0
    6.7862  -17.2381   25.7438 C   0  0  0  0  0  0  0  0  0  0  0  0
    7.1684  -17.0161   24.3049 C   0  0  0  0  0  0  0  0  0  0  0  0
    7.3694  -15.6137   23.8942 C   0  0  2  0  0  0  0  0  0  0  0  0
    7.7995  -15.5201   22.5257 N   0  0  0  0  0  0  0  0  0  0  0  0
    8.0943  -14.7148   24.7927 C   0  0  0  0  0  0  0  0  0  0  0  0
    9.3754  -14.7481   24.6794 O   0  0  0  0  0  0  0  0  0  0  0  0
    7.5549  -13.8359   25.7478 N   0  0  0  0  0  0  0  0  0  0  0  0
    6.0900  -13.6179   25.8302 C   0  0  0  0  0  0  0  0  0  0  0  0
    5.9649  -12.2069   26.3609 C   0  0  0  0  0  0  0  0  0  0  0  0
    7.0014  -12.2477   27.4592 C   0  0  0  0  0  0  0  0  0  0  0  0
    8.1450  -13.0062   26.7630 C   0  0  1  0  0  0  0  0  0  0  0  0
    8.8161  -13.7583   27.8368 C   0  0  0  0  0  0  0  0  0  0  0  0
    8.5846  -14.9743   27.9777 O   0  0  0  0  0  0  0  0  0  0  0  0
    9.7012  -13.1385   28.6946 O   0  0  0  0  0  0  0  0  0  0  0  0
  2  1  1  0
  2  3  1  0
  3 11  1  0
  4  3  2  0
  5  6  1  0
  6  8  1  0
  7  6  2  0
  8  9  1  0
 10  9  1  1
 11 10  1  0
 12 10  1  0
 12 14  1  0
 13 12  2  0
 14 18  1  0
 15 14  1  0
 15 16  1  0
 16 17  1  0
 18 17  1  0
 18 19  1  1
 19 21  1  0
 20 19  2  0
M  END
$$$$
