GQP.pdb
     RDKit          3D

 21 21  0  0  1  0  0  0  0  0999 V2000
    4.0091  -19.4365   22.2075 N   0  0  0  0  0  0  0  0  0  0  0  0
    5.2992  -19.1925   22.7780 C   0  0  0  0  0  0  0  0  0  0  0  0
    5.7210  -17.7663   22.5436 C   0  0  0  0  0  0  0  0  0  0  0  0
    4.9684  -17.0204   21.9032 O   0  0  0  0  0  0  0  0  0  0  0  0
    8.2691  -13.3979   26.7002 N   0  0  0  0  0  0  0  0  0  0  0  0
    8.4165  -14.7639   26.2784 C   0  0  0  0  0  0  0  0  0  0  0  0
    9.3576  -15.4125   26.7843 O   0  0  0  0  0  0  0  0  0  0  0  0
    7.4635  -15.3574   25.2708 C   0  0  0  0  0  0  0  0  0  0  0  0
    8.2407  -15.4933   23.9888 C   0  0  0  0  0  0  0  0  0  0  0  0
    7.4868  -15.9853   22.8202 C   0  0  2  0  0  0  0  0  0  0  0  0
    6.9547  -17.3008   23.0502 N   0  0  0  0  0  0  0  0  0  0  0  0
    8.0681  -15.8197   21.4879 C   0  0  0  0  0  0  0  0  0  0  0  0
    8.5588  -16.8906   20.9706 O   0  0  0  0  0  0  0  0  0  0  0  0
    8.1479  -14.6413   20.7257 N   0  0  0  0  0  0  0  0  0  0  0  0
    7.4965  -13.3940   21.1946 C   0  0  0  0  0  0  0  0  0  0  0  0
    7.1626  -12.6588   19.9153 C   0  0  0  0  0  0  0  0  0  0  0  0
    8.4557  -12.8508   19.1582 C   0  0  0  0  0  0  0  0  0  0  0  0
    8.7667  -14.3259   19.4668 C   0  0  1  0  0  0  0  0  0  0  0  0
   10.2368  -14.4129   19.4827 C   0  0  0  0  0  0  0  0  0  0  0  0
   10.8482  -14.3481   20.5663 O   0  0  0  0  0  0  0  0  0  0  0  0
   10.9540  -14.5656   18.3141 O   0  0  0  0  0  0  0  0  0  0  0  0
  2  1  1  0
  2  3  1  0
  3 11  1  0
  4  3  2  0
  5  6  1  0
  6  8  1  0
  7  6  2  0
  8  9  1  0
 10  9  1  1
 11 10  1  0
 12 10  1  0
 12 14  1  0
 13 12  2  0
 14 18  1  0
 15 14  1  0
 15 16  1  0
 16 17  1  0
 18 17  1  0
 18 19  1  1
 19 21  1  0
 20 19  2  0
M  END
$$$$
