GQP.pdb
     RDKit          3D

 21 21  0  0  1  0  0  0  0  0999 V2000
    7.9207  -12.5301   19.3717 N   0  0  0  0  0  0  0  0  0  0  0  0
    8.2796  -13.7822   19.9657 C   0  0  0  0  0  0  0  0  0  0  0  0
    7.7073  -13.8934   21.3538 C   0  0  0  0  0  0  0  0  0  0  0  0
    7.1362  -12.9099   21.8430 O   0  0  0  0  0  0  0  0  0  0  0  0
    7.6900  -18.7523   26.1689 N   0  0  0  0  0  0  0  0  0  0  0  0
    6.7166  -18.4964   25.1430 C   0  0  0  0  0  0  0  0  0  0  0  0
    6.3005  -19.4844   24.5004 O   0  0  0  0  0  0  0  0  0  0  0  0
    6.2397  -17.0898   24.8787 C   0  0  0  0  0  0  0  0  0  0  0  0
    6.7747  -16.7139   23.5229 C   0  0  0  0  0  0  0  0  0  0  0  0
    7.2725  -15.3327   23.3801 C   0  0  2  0  0  0  0  0  0  0  0  0
    7.8264  -15.1029   22.0737 N   0  0  0  0  0  0  0  0  0  0  0  0
    8.0767  -14.7600   24.4599 C   0  0  0  0  0  0  0  0  0  0  0  0
    9.2993  -15.1586   24.4989 O   0  0  0  0  0  0  0  0  0  0  0  0
    7.6678  -13.8398   25.4406 N   0  0  0  0  0  0  0  0  0  0  0  0
    6.3789  -13.1180   25.3072 C   0  0  0  0  0  0  0  0  0  0  0  0
    6.6197  -11.8130   26.0335 C   0  0  0  0  0  0  0  0  0  0  0  0
    7.3185  -12.3272   27.2702 C   0  0  0  0  0  0  0  0  0  0  0  0
    8.2656  -13.3774   26.6637 C   0  0  1  0  0  0  0  0  0  0  0  0
    8.3972  -14.4180   27.6977 C   0  0  0  0  0  0  0  0  0  0  0  0
    7.7638  -15.4849   27.5851 O   0  0  0  0  0  0  0  0  0  0  0  0
    9.2130  -14.2328   28.7947 O   0  0  0  0  0  0  0  0  0  0  0  0
  2  1  1  0
  2  3  1  0
  3 11  1  0
  4  3  2  0
  5  6  1  0
  6  8  1  0
  7  6  2  0
  8  9  1  0
 10  9  1  1
 11 10  1  0
 12 10  1  0
 12 14  1  0
 13 12  2  0
 14 18  1  0
 15 14  1  0
 15 16  1  0
 16 17  1  0
 18 17  1  0
 18 19  1  1
 19 21  1  0
 20 19  2  0
M  END
$$$$
