GVG.pdb
     RDKit          3D

 16 15  0  0  1  0  0  0  0  0999 V2000
   28.1156  -11.8235  -16.5375 N   0  0  0  0  0  0  0  0  0  0  0  0
   27.2482  -11.3025  -15.4957 C   0  0  0  0  0  0  0  0  0  0  0  0
   26.1393  -10.4923  -16.0674 C   0  0  0  0  0  0  0  0  0  0  0  0
   26.3186  -10.0023  -17.2073 O   0  0  0  0  0  0  0  0  0  0  0  0
   21.5205   -9.7768  -16.9072 C   0  0  0  0  0  0  0  0  0  0  0  0
   22.6161  -10.4910  -16.1495 C   0  0  1  0  0  0  0  0  0  0  0  0
   22.9937  -11.6985  -16.9723 C   0  0  0  0  0  0  0  0  0  0  0  0
   23.8164   -9.5750  -15.9323 C   0  0  2  0  0  0  0  0  0  0  0  0
   24.9247  -10.2775  -15.3589 N   0  0  0  0  0  0  0  0  0  0  0  0
   23.4449   -8.3611  -15.1950 C   0  0  0  0  0  0  0  0  0  0  0  0
   23.1495   -8.4272  -13.9757 O   0  0  0  0  0  0  0  0  0  0  0  0
   23.4025   -7.0790  -15.8134 N   0  0  0  0  0  0  0  0  0  0  0  0
   23.1297   -5.8676  -15.0954 C   0  0  0  0  0  0  0  0  0  0  0  0
   21.6844   -5.6905  -14.8545 C   0  0  0  0  0  0  0  0  0  0  0  0
   21.2815   -4.6760  -13.9994 O   0  0  0  0  0  0  0  0  0  0  0  0
   20.8250   -6.4278  -15.3993 O   0  0  0  0  0  0  0  0  0  0  0  0
  2  3  1  0
  2  1  1  0
  3  9  1  0
  4  3  2  0
  6  5  1  6
  7  6  1  0
  8  6  1  0
  8  9  1  1
 10 11  2  0
 10  8  1  0
 12 10  1  0
 13 14  1  0
 13 12  1  0
 14 15  1  0
 16 14  2  0
M  END
$$$$
