GVG.pdb
     RDKit          3D

 16 15  0  0  1  0  0  0  0  0999 V2000
   20.0892  -20.5518  -12.3910 N   0  0  0  0  0  0  0  0  0  0  0  0
   21.1110  -21.2013  -13.1929 C   0  0  0  0  0  0  0  0  0  0  0  0
   22.4456  -20.5801  -12.9786 C   0  0  0  0  0  0  0  0  0  0  0  0
   22.4869  -19.3300  -12.8935 O   0  0  0  0  0  0  0  0  0  0  0  0
   26.9742  -20.5867  -11.3044 C   0  0  0  0  0  0  0  0  0  0  0  0
   25.6497  -21.2906  -11.4910 C   0  0  1  0  0  0  0  0  0  0  0  0
   24.8431  -21.0310  -10.2421 C   0  0  0  0  0  0  0  0  0  0  0  0
   24.9268  -20.7743  -12.7311 C   0  0  2  0  0  0  0  0  0  0  0  0
   23.6290  -21.3624  -12.8735 N   0  0  0  0  0  0  0  0  0  0  0  0
   25.7612  -20.8933  -13.9332 C   0  0  0  0  0  0  0  0  0  0  0  0
   25.7943  -21.9723  -14.5758 O   0  0  0  0  0  0  0  0  0  0  0  0
   26.5552  -19.8148  -14.4171 N   0  0  0  0  0  0  0  0  0  0  0  0
   27.3573  -19.8986  -15.6033 C   0  0  0  0  0  0  0  0  0  0  0  0
   28.1216  -21.1601  -15.6565 C   0  0  0  0  0  0  0  0  0  0  0  0
   27.7541  -22.1105  -16.5969 O   0  0  0  0  0  0  0  0  0  0  0  0
   29.0830  -21.3874  -14.8799 O   0  0  0  0  0  0  0  0  0  0  0  0
  2  3  1  0
  2  1  1  0
  3  9  1  0
  4  3  2  0
  6  5  1  1
  7  6  1  0
  8  6  1  0
  8  9  1  6
 10 11  2  0
 10  8  1  0
 12 10  1  0
 13 14  1  0
 13 12  1  0
 14 15  1  0
 16 14  2  0
M  END
$$$$
