GVG.pdb
     RDKit          3D

 16 15  0  0  1  0  0  0  0  0999 V2000
   12.4242  -15.6791  -11.9829 N   0  0  0  0  0  0  0  0  0  0  0  0
   12.9233  -14.3204  -11.8661 C   0  0  0  0  0  0  0  0  0  0  0  0
   13.8293  -13.9759  -12.9945 C   0  0  0  0  0  0  0  0  0  0  0  0
   13.9627  -14.8310  -13.9015 O   0  0  0  0  0  0  0  0  0  0  0  0
   13.5228  -13.4713  -15.5853 C   0  0  0  0  0  0  0  0  0  0  0  0
   14.3802  -12.2344  -15.4447 C   0  0  1  0  0  0  0  0  0  0  0  0
   13.4349  -11.0608  -15.3631 C   0  0  0  0  0  0  0  0  0  0  0  0
   15.2617  -12.3194  -14.2026 C   0  0  2  0  0  0  0  0  0  0  0  0
   14.5187  -12.7329  -13.0505 N   0  0  0  0  0  0  0  0  0  0  0  0
   16.0270  -11.0837  -13.9961 C   0  0  0  0  0  0  0  0  0  0  0  0
   15.5405  -10.1442  -13.3186 O   0  0  0  0  0  0  0  0  0  0  0  0
   17.3287  -10.8955  -14.5421 N   0  0  0  0  0  0  0  0  0  0  0  0
   18.0586   -9.6658  -14.4304 C   0  0  0  0  0  0  0  0  0  0  0  0
   19.4203   -9.7878  -14.9866 C   0  0  0  0  0  0  0  0  0  0  0  0
   20.2135   -8.6514  -15.0342 O   0  0  0  0  0  0  0  0  0  0  0  0
   19.8688  -10.8821  -15.4112 O   0  0  0  0  0  0  0  0  0  0  0  0
  2  3  1  0
  2  1  1  0
  3  9  1  0
  4  3  2  0
  6  5  1  1
  7  6  1  0
  8  6  1  0
  8  9  1  1
 10 11  2  0
 10  8  1  0
 12 10  1  0
 13 14  1  0
 13 12  1  0
 14 15  1  0
 16 14  2  0
M  END
$$$$
