GVG.pdb
     RDKit          3D

 16 15  0  0  1  0  0  0  0  0999 V2000
   19.6195  -12.3236  -19.6085 N   0  0  0  0  0  0  0  0  0  0  0  0
   20.2711  -11.0324  -19.4773 C   0  0  0  0  0  0  0  0  0  0  0  0
   20.4363  -10.6503  -18.0492 C   0  0  0  0  0  0  0  0  0  0  0  0
   19.4666  -10.8657  -17.2843 O   0  0  0  0  0  0  0  0  0  0  0  0
   23.0449   -9.9542  -14.0613 C   0  0  0  0  0  0  0  0  0  0  0  0
   22.9619  -10.3397  -15.5205 C   0  0  1  0  0  0  0  0  0  0  0  0
   22.8024  -11.8398  -15.5624 C   0  0  0  0  0  0  0  0  0  0  0  0
   21.7903   -9.6416  -16.2039 C   0  0  2  0  0  0  0  0  0  0  0  0
   21.6385  -10.0653  -17.5633 N   0  0  0  0  0  0  0  0  0  0  0  0
   21.8623   -8.1837  -16.0472 C   0  0  0  0  0  0  0  0  0  0  0  0
   22.7883   -7.5338  -16.5935 O   0  0  0  0  0  0  0  0  0  0  0  0
   20.9068   -7.4530  -15.2849 N   0  0  0  0  0  0  0  0  0  0  0  0
   20.9573   -6.0296  -15.1160 C   0  0  0  0  0  0  0  0  0  0  0  0
   21.7343   -5.6499  -13.9199 C   0  0  0  0  0  0  0  0  0  0  0  0
   22.0402   -4.3102  -13.7346 O   0  0  0  0  0  0  0  0  0  0  0  0
   22.1182   -6.5014  -13.0793 O   0  0  0  0  0  0  0  0  0  0  0  0
  2  3  1  0
  2  1  1  0
  3  9  1  0
  4  3  2  0
  6  5  1  1
  7  6  1  0
  8  6  1  0
  8  9  1  6
 10 11  2  0
 10  8  1  0
 12 10  1  0
 13 14  1  0
 13 12  1  0
 14 15  1  0
 16 14  2  0
M  END
$$$$
