GVG.pdb
     RDKit          3D

 16 15  0  0  1  0  0  0  0  0999 V2000
   18.4017  -13.3681  -15.6133 N   0  0  0  0  0  0  0  0  0  0  0  0
   18.0009  -11.9801  -15.7607 C   0  0  0  0  0  0  0  0  0  0  0  0
   19.1714  -11.1030  -16.0321 C   0  0  0  0  0  0  0  0  0  0  0  0
   20.2951  -11.6546  -16.1004 O   0  0  0  0  0  0  0  0  0  0  0  0
   21.2339   -7.2979  -18.1124 C   0  0  0  0  0  0  0  0  0  0  0  0
   19.9800   -8.0713  -17.7741 C   0  0  1  0  0  0  0  0  0  0  0  0
   19.7239   -9.0059  -18.9311 C   0  0  0  0  0  0  0  0  0  0  0  0
   20.1497   -8.8431  -16.4693 C   0  0  2  0  0  0  0  0  0  0  0  0
   19.0314   -9.6984  -16.2080 N   0  0  0  0  0  0  0  0  0  0  0  0
   20.4812   -7.9509  -15.3515 C   0  0  0  0  0  0  0  0  0  0  0  0
   19.6210   -7.1528  -14.9028 O   0  0  0  0  0  0  0  0  0  0  0  0
   21.7656   -7.9479  -14.7364 N   0  0  0  0  0  0  0  0  0  0  0  0
   22.1028   -7.1088  -13.6230 C   0  0  0  0  0  0  0  0  0  0  0  0
   22.3614   -5.7188  -14.0467 C   0  0  0  0  0  0  0  0  0  0  0  0
   22.7104   -4.7916  -13.0765 O   0  0  0  0  0  0  0  0  0  0  0  0
   22.2733   -5.3636  -15.2488 O   0  0  0  0  0  0  0  0  0  0  0  0
  2  3  1  0
  2  1  1  0
  3  9  1  0
  4  3  2  0
  6  5  1  6
  7  6  1  0
  8  6  1  0
  8  9  1  1
 10 11  2  0
 10  8  1  0
 12 10  1  0
 13 14  1  0
 13 12  1  0
 14 15  1  0
 16 14  2  0
M  END
$$$$
