GVG.pdb
     RDKit          3D

 16 15  0  0  1  0  0  0  0  0999 V2000
   28.1658  -11.6664  -16.6453 N   0  0  0  0  0  0  0  0  0  0  0  0
   27.2401  -11.2745  -15.5973 C   0  0  0  0  0  0  0  0  0  0  0  0
   26.2109  -10.3294  -16.1075 C   0  0  0  0  0  0  0  0  0  0  0  0
   26.5252   -9.6193  -17.0917 O   0  0  0  0  0  0  0  0  0  0  0  0
   21.6470   -9.2572  -17.1102 C   0  0  0  0  0  0  0  0  0  0  0  0
   22.6455  -10.1486  -16.4080 C   0  0  1  0  0  0  0  0  0  0  0  0
   22.9660  -11.2732  -17.3621 C   0  0  0  0  0  0  0  0  0  0  0  0
   23.9022   -9.3702  -16.0315 C   0  0  2  0  0  0  0  0  0  0  0  0
   24.9234  -10.2286  -15.5111 N   0  0  0  0  0  0  0  0  0  0  0  0
   23.5924   -8.2300  -15.1603 C   0  0  0  0  0  0  0  0  0  0  0  0
   23.2458   -8.4209  -13.9679 O   0  0  0  0  0  0  0  0  0  0  0  0
   23.6685   -6.8828  -15.6155 N   0  0  0  0  0  0  0  0  0  0  0  0
   23.3598   -5.7535  -14.7867 C   0  0  0  0  0  0  0  0  0  0  0  0
   21.9119   -5.4677  -14.7723 C   0  0  0  0  0  0  0  0  0  0  0  0
   21.4467   -4.4807  -13.9165 O   0  0  0  0  0  0  0  0  0  0  0  0
   21.1046   -6.0898  -15.5073 O   0  0  0  0  0  0  0  0  0  0  0  0
  2  3  1  0
  2  1  1  0
  3  9  1  0
  4  3  2  0
  6  5  1  6
  7  6  1  0
  8  6  1  0
  8  9  1  1
 10 11  2  0
 10  8  1  0
 12 10  1  0
 13 14  1  0
 13 12  1  0
 14 15  1  0
 16 14  2  0
M  END
$$$$
