GVG.pdb
     RDKit          3D

 16 15  0  0  1  0  0  0  0  0999 V2000
   22.2028  -19.7263  -16.2735 N   0  0  0  0  0  0  0  0  0  0  0  0
   23.2860  -19.1139  -15.5246 C   0  0  0  0  0  0  0  0  0  0  0  0
   23.8753  -20.0662  -14.5454 C   0  0  0  0  0  0  0  0  0  0  0  0
   23.1456  -21.0072  -14.1535 O   0  0  0  0  0  0  0  0  0  0  0  0
   27.2866  -21.6930  -14.8043 C   0  0  0  0  0  0  0  0  0  0  0  0
   27.1818  -21.1995  -13.3795 C   0  0  1  0  0  0  0  0  0  0  0  0
   28.1404  -20.0407  -13.2523 C   0  0  0  0  0  0  0  0  0  0  0  0
   25.7542  -20.7720  -13.0532 C   0  0  2  0  0  0  0  0  0  0  0  0
   25.2080  -19.9233  -14.0689 N   0  0  0  0  0  0  0  0  0  0  0  0
   25.6529  -20.2103  -11.7006 C   0  0  0  0  0  0  0  0  0  0  0  0
   25.8775  -18.9900  -11.5041 O   0  0  0  0  0  0  0  0  0  0  0  0
   25.3027  -21.0048  -10.5718 N   0  0  0  0  0  0  0  0  0  0  0  0
   25.2478  -20.4903   -9.2340 C   0  0  0  0  0  0  0  0  0  0  0  0
   26.5669  -20.5454   -8.5743 C   0  0  0  0  0  0  0  0  0  0  0  0
   26.6777  -20.0427   -7.2867 O   0  0  0  0  0  0  0  0  0  0  0  0
   27.5755  -21.0304   -9.1455 O   0  0  0  0  0  0  0  0  0  0  0  0
  2  3  1  0
  2  1  1  0
  3  9  1  0
  4  3  2  0
  6  5  1  6
  7  6  1  0
  8  6  1  0
  8  9  1  6
 10 11  2  0
 10  8  1  0
 12 10  1  0
 13 14  1  0
 13 12  1  0
 14 15  1  0
 16 14  2  0
M  END
$$$$
