GVG.pdb
     RDKit          3D

 16 15  0  0  1  0  0  0  0  0999 V2000
   19.4082  -11.6104  -19.8794 N   0  0  0  0  0  0  0  0  0  0  0  0
   19.8020  -11.0947  -18.5802 C   0  0  0  0  0  0  0  0  0  0  0  0
   20.2794   -9.6890  -18.6760 C   0  0  0  0  0  0  0  0  0  0  0  0
   20.5439   -9.2523  -19.8209 O   0  0  0  0  0  0  0  0  0  0  0  0
   18.4189   -6.6239  -17.5228 C   0  0  0  0  0  0  0  0  0  0  0  0
   19.6914   -6.6797  -18.3367 C   0  0  1  0  0  0  0  0  0  0  0  0
   20.1269   -5.2514  -18.5555 C   0  0  0  0  0  0  0  0  0  0  0  0
   20.7690   -7.4795  -17.6112 C   0  0  2  0  0  0  0  0  0  0  0  0
   20.4322   -8.8685  -17.5241 N   0  0  0  0  0  0  0  0  0  0  0  0
   21.1131   -6.8758  -16.3180 C   0  0  0  0  0  0  0  0  0  0  0  0
   20.3476   -7.0144  -15.3316 O   0  0  0  0  0  0  0  0  0  0  0  0
   22.3050   -6.1208  -16.1247 N   0  0  0  0  0  0  0  0  0  0  0  0
   22.7305   -5.6365  -14.8434 C   0  0  0  0  0  0  0  0  0  0  0  0
   21.9934   -4.4204  -14.4482 C   0  0  0  0  0  0  0  0  0  0  0  0
   21.0498   -3.9107  -15.3271 O   0  0  0  0  0  0  0  0  0  0  0  0
   22.1996   -3.8463  -13.3496 O   0  0  0  0  0  0  0  0  0  0  0  0
  2  3  1  0
  2  1  1  0
  3  9  1  0
  4  3  2  0
  6  5  1  1
  7  6  1  0
  8  6  1  0
  8  9  1  1
 10 11  2  0
 10  8  1  0
 12 10  1  0
 13 14  1  0
 13 12  1  0
 14 15  1  0
 16 14  2  0
M  END
$$$$
