GVG.pdb
     RDKit          3D

 16 15  0  0  1  0  0  0  0  0999 V2000
   16.7939  -12.3409  -14.9332 N   0  0  0  0  0  0  0  0  0  0  0  0
   16.9341  -10.9292  -15.2438 C   0  0  0  0  0  0  0  0  0  0  0  0
   18.3647  -10.5250  -15.2989 C   0  0  0  0  0  0  0  0  0  0  0  0
   19.2092  -11.3553  -14.8878 O   0  0  0  0  0  0  0  0  0  0  0  0
   22.1125   -8.4650  -17.3515 C   0  0  0  0  0  0  0  0  0  0  0  0
   20.6264   -8.7365  -17.3024 C   0  0  1  0  0  0  0  0  0  0  0  0
   20.3965  -10.0194  -18.0634 C   0  0  0  0  0  0  0  0  0  0  0  0
   20.1404   -8.8559  -15.8614 C   0  0  2  0  0  0  0  0  0  0  0  0
   18.7664   -9.2537  -15.7948 N   0  0  0  0  0  0  0  0  0  0  0  0
   20.4400   -7.6453  -15.0868 C   0  0  0  0  0  0  0  0  0  0  0  0
   19.7658   -6.5998  -15.2612 O   0  0  0  0  0  0  0  0  0  0  0  0
   21.4864   -7.5999  -14.1219 N   0  0  0  0  0  0  0  0  0  0  0  0
   21.7521   -6.4529  -13.3026 C   0  0  0  0  0  0  0  0  0  0  0  0
   22.3119   -5.3378  -14.0910 C   0  0  0  0  0  0  0  0  0  0  0  0
   22.4797   -4.1117  -13.4655 O   0  0  0  0  0  0  0  0  0  0  0  0
   22.6344   -5.4739  -15.2979 O   0  0  0  0  0  0  0  0  0  0  0  0
  2  3  1  0
  2  1  1  0
  3  9  1  0
  4  3  2  0
  6  5  1  1
  7  6  1  0
  8  6  1  0
  8  9  1  6
 10 11  2  0
 10  8  1  0
 12 10  1  0
 13 14  1  0
 13 12  1  0
 14 15  1  0
 16 14  2  0
M  END
$$$$
