MAI.pdb
     RDKit          3D

 22 21  0  0  1  0  0  0  0  0999 V2000
   33.7381  -25.2380  -18.0001 C   0  0  0  0  0  0  0  0  0  0  0  0
   33.3367  -25.3512  -16.2524 S   0  0  0  0  0  0  0  0  0  0  0  0
   31.5592  -25.1525  -15.9563 C   0  0  0  0  0  0  0  0  0  0  0  0
   31.2092  -23.6672  -16.0468 C   0  0  0  0  0  0  0  0  0  0  0  0
   29.9471  -23.5349  -16.8733 C   0  0  2  0  0  0  0  0  0  0  0  0
   30.3071  -23.3918  -18.2501 N   0  0  0  0  0  0  0  0  0  0  0  0
   29.1746  -22.3865  -16.3491 C   0  0  0  0  0  0  0  0  0  0  0  0
   29.7789  -21.3000  -16.1556 O   0  0  0  0  0  0  0  0  0  0  0  0
   26.1962  -20.7522  -16.6404 C   0  0  0  0  0  0  0  0  0  0  0  0
   27.0656  -21.2830  -15.5329 C   0  0  2  0  0  0  0  0  0  0  0  0
   27.7935  -22.4256  -16.0481 N   0  0  0  0  0  0  0  0  0  0  0  0
   26.2253  -21.6270  -14.3590 C   0  0  0  0  0  0  0  0  0  0  0  0
   25.6137  -22.7220  -14.4253 O   0  0  0  0  0  0  0  0  0  0  0  0
   27.6717  -20.7903   -9.0271 C   0  0  0  0  0  0  0  0  0  0  0  0
   27.0343  -21.3589  -10.2462 C   0  0  0  0  0  0  0  0  0  0  0  0
   25.8206  -20.6357  -10.7478 C   0  0  2  0  0  0  0  0  0  0  0  0
   24.7654  -20.7556   -9.6545 C   0  0  0  0  0  0  0  0  0  0  0  0
   25.2970  -21.0709  -12.0658 C   0  0  2  0  0  0  0  0  0  0  0  0
   26.0951  -20.7922  -13.2089 N   0  0  0  0  0  0  0  0  0  0  0  0
   23.9063  -20.5723  -12.3143 C   0  0  0  0  0  0  0  0  0  0  0  0
   23.6749  -19.6773  -13.3393 O   0  0  0  0  0  0  0  0  0  0  0  0
   22.9541  -20.9495  -11.6143 O   0  0  0  0  0  0  0  0  0  0  0  0
  2  1  1  0
  3  4  1  0
  3  2  1  0
  4  5  1  0
  5  7  1  0
  5  6  1  6
  7 11  1  0
  7  8  2  0
 10  9  1  6
 10 12  1  0
 11 10  1  0
 12 19  1  0
 12 13  2  0
 14 15  1  0
 16 18  1  0
 16 15  1  0
 16 17  1  1
 18 20  1  0
 18 19  1  6
 20 21  1  0
 22 20  2  0
M  END
$$$$
