MAI.pdb
     RDKit          3D

 22 21  0  0  1  0  0  0  0  0999 V2000
   26.5816  -20.6940   -3.3842 C   0  0  0  0  0  0  0  0  0  0  0  0
   28.2687  -20.9908   -3.9260 S   0  0  0  0  0  0  0  0  0  0  0  0
   28.7172  -19.9414   -5.3347 C   0  0  0  0  0  0  0  0  0  0  0  0
   27.6342  -20.0682   -6.4061 C   0  0  0  0  0  0  0  0  0  0  0  0
   28.0481  -19.2197   -7.5903 C   0  0  2  0  0  0  0  0  0  0  0  0
   27.7163  -17.8547   -7.3215 N   0  0  0  0  0  0  0  0  0  0  0  0
   27.3779  -19.7574   -8.7954 C   0  0  0  0  0  0  0  0  0  0  0  0
   26.1567  -19.5039   -8.9616 O   0  0  0  0  0  0  0  0  0  0  0  0
   28.5725  -21.3974  -11.9412 C   0  0  0  0  0  0  0  0  0  0  0  0
   27.5462  -20.6346  -11.1478 C   0  0  2  0  0  0  0  0  0  0  0  0
   28.0196  -20.5425   -9.7810 N   0  0  0  0  0  0  0  0  0  0  0  0
   26.2305  -21.3138  -11.2487 C   0  0  0  0  0  0  0  0  0  0  0  0
   26.0801  -22.3271  -10.5220 O   0  0  0  0  0  0  0  0  0  0  0  0
   20.4639  -20.5438  -10.4597 C   0  0  0  0  0  0  0  0  0  0  0  0
   21.4735  -21.2804  -11.2686 C   0  0  0  0  0  0  0  0  0  0  0  0
   22.8103  -20.6164  -11.4089 C   0  0  2  0  0  0  0  0  0  0  0  0
   22.5535  -19.2667  -12.0690 C   0  0  0  0  0  0  0  0  0  0  0  0
   23.8531  -21.3890  -12.1274 C   0  0  2  0  0  0  0  0  0  0  0  0
   25.1779  -20.8733  -12.1057 N   0  0  0  0  0  0  0  0  0  0  0  0
   23.4686  -21.6732  -13.5472 C   0  0  0  0  0  0  0  0  0  0  0  0
   24.1697  -21.0782  -14.5766 O   0  0  0  0  0  0  0  0  0  0  0  0
   22.5285  -22.4362  -13.8176 O   0  0  0  0  0  0  0  0  0  0  0  0
  2  1  1  0
  3  4  1  0
  3  2  1  0
  4  5  1  0
  5  7  1  0
  5  6  1  1
  7 11  1  0
  7  8  2  0
 10  9  1  6
 10 12  1  0
 11 10  1  0
 12 19  1  0
 12 13  2  0
 14 15  1  0
 16 18  1  0
 16 15  1  0
 16 17  1  6
 18 20  1  0
 18 19  1  6
 20 21  1  0
 22 20  2  0
M  END
$$$$
