MAI.pdb
     RDKit          3D

 22 21  0  0  1  0  0  0  0  0999 V2000
   16.6317  -21.1027  -15.0620 C   0  0  0  0  0  0  0  0  0  0  0  0
   17.5400  -20.3079  -16.3929 S   0  0  0  0  0  0  0  0  0  0  0  0
   19.3210  -20.2610  -16.0575 C   0  0  0  0  0  0  0  0  0  0  0  0
   19.6410  -21.2759  -14.9600 C   0  0  0  0  0  0  0  0  0  0  0  0
   20.4973  -22.3667  -15.5688 C   0  0  2  0  0  0  0  0  0  0  0  0
   19.7006  -23.5427  -15.7360 N   0  0  0  0  0  0  0  0  0  0  0  0
   21.6683  -22.5748  -14.6880 C   0  0  0  0  0  0  0  0  0  0  0  0
   21.4704  -23.0216  -13.5286 O   0  0  0  0  0  0  0  0  0  0  0  0
   25.3131  -22.9168  -15.0644 C   0  0  0  0  0  0  0  0  0  0  0  0
   24.1357  -22.5684  -14.1945 C   0  0  2  0  0  0  0  0  0  0  0  0
   23.0050  -22.3043  -15.0619 N   0  0  0  0  0  0  0  0  0  0  0  0
   24.4756  -21.4074  -13.3347 C   0  0  0  0  0  0  0  0  0  0  0  0
   24.0968  -20.2858  -13.7542 O   0  0  0  0  0  0  0  0  0  0  0  0
   26.6307  -19.8063   -7.6178 C   0  0  0  0  0  0  0  0  0  0  0  0
   26.2980  -19.5177   -9.0398 C   0  0  0  0  0  0  0  0  0  0  0  0
   25.9212  -20.7029   -9.8770 C   0  0  2  0  0  0  0  0  0  0  0  0
   27.0337  -21.7290   -9.6962 C   0  0  0  0  0  0  0  0  0  0  0  0
   25.6516  -20.4330  -11.3106 C   0  0  2  0  0  0  0  0  0  0  0  0
   25.1866  -21.5184  -12.1024 N   0  0  0  0  0  0  0  0  0  0  0  0
   26.8238  -19.8015  -11.9972 C   0  0  0  0  0  0  0  0  0  0  0  0
   26.9891  -18.4321  -11.9452 O   0  0  0  0  0  0  0  0  0  0  0  0
   27.6528  -20.4876  -12.6145 O   0  0  0  0  0  0  0  0  0  0  0  0
  2  1  1  0
  3  4  1  0
  3  2  1  0
  4  5  1  0
  5  7  1  0
  5  6  1  1
  7 11  1  0
  7  8  2  0
 10  9  1  6
 10 12  1  0
 11 10  1  0
 12 19  1  0
 12 13  2  0
 14 15  1  0
 16 18  1  0
 16 15  1  0
 16 17  1  6
 18 20  1  0
 18 19  1  6
 20 21  1  0
 22 20  2  0
M  END
$$$$
