MAI.pdb
     RDKit          3D

 22 21  0  0  1  0  0  0  0  0999 V2000
   28.3746  -16.0551  -15.5692 C   0  0  0  0  0  0  0  0  0  0  0  0
   28.9453  -17.6967  -16.0245 S   0  0  0  0  0  0  0  0  0  0  0  0
   27.7857  -18.9840  -15.4909 C   0  0  0  0  0  0  0  0  0  0  0  0
   27.2324  -18.6076  -14.1164 C   0  0  0  0  0  0  0  0  0  0  0  0
   26.3737  -19.7559  -13.6289 C   0  0  2  0  0  0  0  0  0  0  0  0
   25.2358  -19.8808  -14.4863 N   0  0  0  0  0  0  0  0  0  0  0  0
   26.0155  -19.4927  -12.2172 C   0  0  0  0  0  0  0  0  0  0  0  0
   25.5964  -18.3461  -11.9124 O   0  0  0  0  0  0  0  0  0  0  0  0
   24.4529  -20.9153   -9.5263 C   0  0  0  0  0  0  0  0  0  0  0  0
   25.7269  -20.1666   -9.8101 C   0  0  2  0  0  0  0  0  0  0  0  0
   26.1121  -20.4476  -11.1789 N   0  0  0  0  0  0  0  0  0  0  0  0
   26.7700  -20.5664   -8.8330 C   0  0  0  0  0  0  0  0  0  0  0  0
   27.4860  -21.5433   -9.1652 O   0  0  0  0  0  0  0  0  0  0  0  0
   30.4855  -18.7104   -4.2099 C   0  0  0  0  0  0  0  0  0  0  0  0
   29.6602  -19.7637   -4.8622 C   0  0  0  0  0  0  0  0  0  0  0  0
   28.7283  -19.2920   -5.9377 C   0  0  2  0  0  0  0  0  0  0  0  0
   27.9021  -18.1655   -5.3281 C   0  0  0  0  0  0  0  0  0  0  0  0
   27.8682  -20.3283   -6.5599 C   0  0  2  0  0  0  0  0  0  0  0  0
   26.9770  -19.9071   -7.5844 N   0  0  0  0  0  0  0  0  0  0  0  0
   27.0975  -21.1101   -5.5405 C   0  0  0  0  0  0  0  0  0  0  0  0
   27.7709  -21.9257   -4.6536 O   0  0  0  0  0  0  0  0  0  0  0  0
   25.8606  -21.0390   -5.4772 O   0  0  0  0  0  0  0  0  0  0  0  0
  2  1  1  0
  3  4  1  0
  3  2  1  0
  4  5  1  0
  5  7  1  0
  5  6  1  6
  7 11  1  0
  7  8  2  0
 10  9  1  1
 10 12  1  0
 11 10  1  0
 12 19  1  0
 12 13  2  0
 14 15  1  0
 16 18  1  0
 16 15  1  0
 16 17  1  1
 18 20  1  0
 18 19  1  6
 20 21  1  0
 22 20  2  0
M  END
$$$$
