MAI.pdb
     RDKit          3D

 22 21  0  0  1  0  0  0  0  0999 V2000
   24.7459  -24.2758  -20.7299 C   0  0  0  0  0  0  0  0  0  0  0  0
   23.5238  -23.8641  -19.4788 S   0  0  0  0  0  0  0  0  0  0  0  0
   24.1765  -24.0867  -17.8021 C   0  0  0  0  0  0  0  0  0  0  0  0
   25.5691  -24.7100  -17.8958 C   0  0  0  0  0  0  0  0  0  0  0  0
   26.5590  -23.5994  -18.1793 C   0  0  2  0  0  0  0  0  0  0  0  0
   27.7709  -24.1739  -18.6761 N   0  0  0  0  0  0  0  0  0  0  0  0
   26.7478  -22.8249  -16.9324 C   0  0  0  0  0  0  0  0  0  0  0  0
   27.3183  -23.3871  -15.9619 O   0  0  0  0  0  0  0  0  0  0  0  0
   26.2543  -19.2911  -15.8171 C   0  0  0  0  0  0  0  0  0  0  0  0
   26.5879  -20.7327  -15.5436 C   0  0  2  0  0  0  0  0  0  0  0  0
   26.3283  -21.4863  -16.7541 N   0  0  0  0  0  0  0  0  0  0  0  0
   25.7919  -21.2197  -14.3895 C   0  0  0  0  0  0  0  0  0  0  0  0
   24.7205  -21.8103  -14.6735 O   0  0  0  0  0  0  0  0  0  0  0  0
   25.6953  -21.0213   -8.0410 C   0  0  0  0  0  0  0  0  0  0  0  0
   25.0960  -21.3091   -9.3730 C   0  0  0  0  0  0  0  0  0  0  0  0
   25.9491  -20.9761  -10.5600 C   0  0  2  0  0  0  0  0  0  0  0  0
   26.3180  -19.5033  -10.4255 C   0  0  0  0  0  0  0  0  0  0  0  0
   25.3659  -21.2763  -11.8905 C   0  0  2  0  0  0  0  0  0  0  0  0
   26.1860  -21.0466  -13.0289 N   0  0  0  0  0  0  0  0  0  0  0  0
   24.0491  -20.5927  -12.0980 C   0  0  0  0  0  0  0  0  0  0  0  0
   24.0103  -19.3583  -12.7144 O   0  0  0  0  0  0  0  0  0  0  0  0
   22.9879  -21.1161  -11.7252 O   0  0  0  0  0  0  0  0  0  0  0  0
  2  1  1  0
  3  4  1  0
  3  2  1  0
  4  5  1  0
  5  7  1  0
  5  6  1  1
  7 11  1  0
  7  8  2  0
 10  9  1  6
 10 12  1  0
 11 10  1  0
 12 19  1  0
 12 13  2  0
 14 15  1  0
 16 18  1  0
 16 15  1  0
 16 17  1  6
 18 20  1  0
 18 19  1  6
 20 21  1  0
 22 20  2  0
M  END
$$$$
