MAI.pdb
     RDKit          3D

 22 21  0  0  1  0  0  0  0  0999 V2000
   19.8824  -16.5392  -19.3384 C   0  0  0  0  0  0  0  0  0  0  0  0
   19.8652  -16.6818  -17.5474 S   0  0  0  0  0  0  0  0  0  0  0  0
   21.4828  -16.2944  -16.8263 C   0  0  0  0  0  0  0  0  0  0  0  0
   22.2308  -17.6021  -16.5666 C   0  0  0  0  0  0  0  0  0  0  0  0
   23.5379  -17.5512  -17.3298 C   0  0  2  0  0  0  0  0  0  0  0  0
   23.3173  -18.0287  -18.6598 N   0  0  0  0  0  0  0  0  0  0  0  0
   24.5364  -18.3470  -16.5814 C   0  0  0  0  0  0  0  0  0  0  0  0
   24.1719  -19.4423  -16.0807 O   0  0  0  0  0  0  0  0  0  0  0  0
   28.1971  -18.1538  -15.8345 C   0  0  0  0  0  0  0  0  0  0  0  0
   26.8312  -18.7514  -15.6316 C   0  0  2  0  0  0  0  0  0  0  0  0
   25.8824  -17.9590  -16.3884 N   0  0  0  0  0  0  0  0  0  0  0  0
   26.5121  -18.7887  -14.1827 C   0  0  0  0  0  0  0  0  0  0  0  0
   26.1899  -17.6910  -13.6644 O   0  0  0  0  0  0  0  0  0  0  0  0
   23.5878  -20.8817   -9.4604 C   0  0  0  0  0  0  0  0  0  0  0  0
   24.9207  -20.4610   -9.9726 C   0  0  0  0  0  0  0  0  0  0  0  0
   25.0920  -20.5013  -11.4615 C   0  0  2  0  0  0  0  0  0  0  0  0
   24.7810  -21.9300  -11.8921 C   0  0  0  0  0  0  0  0  0  0  0  0
   26.4037  -20.0445  -11.9824 C   0  0  2  0  0  0  0  0  0  0  0  0
   26.5571  -19.9774  -13.3943 N   0  0  0  0  0  0  0  0  0  0  0  0
   27.5440  -20.8292  -11.4093 C   0  0  0  0  0  0  0  0  0  0  0  0
   27.8892  -20.6625  -10.0833 O   0  0  0  0  0  0  0  0  0  0  0  0
   28.1872  -21.6294  -12.1057 O   0  0  0  0  0  0  0  0  0  0  0  0
  2  1  1  0
  3  4  1  0
  3  2  1  0
  4  5  1  0
  5  7  1  0
  5  6  1  6
  7 11  1  0
  7  8  2  0
 10  9  1  1
 10 12  1  0
 11 10  1  0
 12 19  1  0
 12 13  2  0
 14 15  1  0
 16 18  1  0
 16 15  1  0
 16 17  1  1
 18 20  1  0
 18 19  1  6
 20 21  1  0
 22 20  2  0
M  END
$$$$
