MAI.pdb
     RDKit          3D

 22 21  0  0  1  0  0  0  0  0999 V2000
   31.6534  -23.4737  -19.0642 C   0  0  0  0  0  0  0  0  0  0  0  0
   30.8361  -24.1855  -17.6312 S   0  0  0  0  0  0  0  0  0  0  0  0
   29.1682  -23.5119  -17.4045 C   0  0  0  0  0  0  0  0  0  0  0  0
   29.2710  -22.1938  -16.6370 C   0  0  0  0  0  0  0  0  0  0  0  0
   28.2768  -21.2239  -17.2407 C   0  0  2  0  0  0  0  0  0  0  0  0
   28.9792  -20.3000  -18.0765 N   0  0  0  0  0  0  0  0  0  0  0  0
   27.5447  -20.5698  -16.1332 C   0  0  0  0  0  0  0  0  0  0  0  0
   28.1990  -20.1922  -15.1270 O   0  0  0  0  0  0  0  0  0  0  0  0
   24.3477  -18.8391  -15.6702 C   0  0  0  0  0  0  0  0  0  0  0  0
   25.4725  -19.6299  -15.0589 C   0  0  2  0  0  0  0  0  0  0  0  0
   26.1498  -20.3378  -16.1270 N   0  0  0  0  0  0  0  0  0  0  0  0
   24.9342  -20.5456  -14.0225 C   0  0  0  0  0  0  0  0  0  0  0  0
   24.5027  -21.6496  -14.4378 O   0  0  0  0  0  0  0  0  0  0  0  0
   25.8374  -19.8730   -8.2153 C   0  0  0  0  0  0  0  0  0  0  0  0
   25.1332  -19.8229   -9.5259 C   0  0  0  0  0  0  0  0  0  0  0  0
   25.1376  -21.0945  -10.3200 C   0  0  2  0  0  0  0  0  0  0  0  0
   26.6009  -21.4674  -10.5276 C   0  0  0  0  0  0  0  0  0  0  0  0
   24.3909  -21.0689  -11.6015 C   0  0  2  0  0  0  0  0  0  0  0  0
   24.8925  -20.2274  -12.6319 N   0  0  0  0  0  0  0  0  0  0  0  0
   22.9357  -20.7736  -11.4022 C   0  0  0  0  0  0  0  0  0  0  0  0
   22.3841  -19.6438  -11.9718 O   0  0  0  0  0  0  0  0  0  0  0  0
   22.2132  -21.5275  -10.7325 O   0  0  0  0  0  0  0  0  0  0  0  0
  2  1  1  0
  3  4  1  0
  3  2  1  0
  4  5  1  0
  5  7  1  0
  5  6  1  1
  7 11  1  0
  7  8  2  0
 10  9  1  6
 10 12  1  0
 11 10  1  0
 12 19  1  0
 12 13  2  0
 14 15  1  0
 16 18  1  0
 16 15  1  0
 16 17  1  6
 18 20  1  0
 18 19  1  6
 20 21  1  0
 22 20  2  0
M  END
$$$$
