MAI.pdb
     RDKit          3D

 22 21  0  0  1  0  0  0  0  0999 V2000
   24.0869  -25.5211  -14.4326 C   0  0  0  0  0  0  0  0  0  0  0  0
   22.9579  -24.4554  -15.3370 S   0  0  0  0  0  0  0  0  0  0  0  0
   22.7058  -22.8714  -14.4919 C   0  0  0  0  0  0  0  0  0  0  0  0
   22.7794  -23.1028  -12.9826 C   0  0  0  0  0  0  0  0  0  0  0  0
   22.5816  -21.7675  -12.2959 C   0  0  2  0  0  0  0  0  0  0  0  0
   21.4080  -21.1436  -12.8241 N   0  0  0  0  0  0  0  0  0  0  0  0
   23.8092  -20.9647  -12.4934 C   0  0  0  0  0  0  0  0  0  0  0  0
   23.7399  -19.9376  -13.2170 O   0  0  0  0  0  0  0  0  0  0  0  0
   27.4065  -21.1698  -11.4655 C   0  0  0  0  0  0  0  0  0  0  0  0
   26.2697  -20.5217  -12.2084 C   0  0  2  0  0  0  0  0  0  0  0  0
   25.0646  -21.2739  -11.9209 N   0  0  0  0  0  0  0  0  0  0  0  0
   26.5803  -20.4791  -13.6590 C   0  0  0  0  0  0  0  0  0  0  0  0
   26.3845  -21.5458  -14.2926 O   0  0  0  0  0  0  0  0  0  0  0  0
   25.1985  -16.3455  -17.9022 C   0  0  0  0  0  0  0  0  0  0  0  0
   26.0318  -17.5255  -17.5424 C   0  0  0  0  0  0  0  0  0  0  0  0
   26.1673  -17.8081  -16.0763 C   0  0  2  0  0  0  0  0  0  0  0  0
   26.7800  -16.5599  -15.4519 C   0  0  0  0  0  0  0  0  0  0  0  0
   26.9235  -19.0313  -15.7123 C   0  0  2  0  0  0  0  0  0  0  0  0
   27.0722  -19.3184  -14.3278 N   0  0  0  0  0  0  0  0  0  0  0  0
   28.2723  -19.0767  -16.3626 C   0  0  0  0  0  0  0  0  0  0  0  0
   28.3714  -19.3572  -17.7105 O   0  0  0  0  0  0  0  0  0  0  0  0
   29.3069  -18.8661  -15.7111 O   0  0  0  0  0  0  0  0  0  0  0  0
  2  1  1  0
  3  4  1  0
  3  2  1  0
  4  5  1  0
  5  7  1  0
  5  6  1  6
  7 11  1  0
  7  8  2  0
 10  9  1  1
 10 12  1  0
 11 10  1  0
 12 19  1  0
 12 13  2  0
 14 15  1  0
 16 18  1  0
 16 15  1  0
 16 17  1  1
 18 20  1  0
 18 19  1  1
 20 21  1  0
 22 20  2  0
M  END
$$$$
