MAI.pdb
     RDKit          3D

 22 21  0  0  1  0  0  0  0  0999 V2000
   32.2825  -23.0391  -12.5382 C   0  0  0  0  0  0  0  0  0  0  0  0
   32.3769  -23.8021  -14.1621 S   0  0  0  0  0  0  0  0  0  0  0  0
   30.9502  -23.3680  -15.1931 C   0  0  0  0  0  0  0  0  0  0  0  0
   30.1319  -22.2961  -14.4732 C   0  0  0  0  0  0  0  0  0  0  0  0
   28.9688  -21.9188  -15.3668 C   0  0  2  0  0  0  0  0  0  0  0  0
   29.4725  -21.2492  -16.5259 N   0  0  0  0  0  0  0  0  0  0  0  0
   28.0324  -21.0908  -14.5745 C   0  0  0  0  0  0  0  0  0  0  0  0
   28.3533  -19.8997  -14.3263 O   0  0  0  0  0  0  0  0  0  0  0  0
   24.5362  -20.8517  -13.7152 C   0  0  0  0  0  0  0  0  0  0  0  0
   25.9485  -20.7503  -13.2058 C   0  0  2  0  0  0  0  0  0  0  0  0
   26.7921  -21.5486  -14.0729 N   0  0  0  0  0  0  0  0  0  0  0  0
   26.0031  -21.1972  -11.7916 C   0  0  0  0  0  0  0  0  0  0  0  0
   26.1551  -22.4310  -11.6126 O   0  0  0  0  0  0  0  0  0  0  0  0
   27.2393  -19.2944   -5.9577 C   0  0  0  0  0  0  0  0  0  0  0  0
   26.5991  -20.2322   -6.9205 C   0  0  0  0  0  0  0  0  0  0  0  0
   26.5526  -19.7742   -8.3473 C   0  0  2  0  0  0  0  0  0  0  0  0
   25.8911  -18.4010   -8.3374 C   0  0  0  0  0  0  0  0  0  0  0  0
   25.8954  -20.6928   -9.3089 C   0  0  2  0  0  0  0  0  0  0  0  0
   25.8935  -20.3110  -10.6784 N   0  0  0  0  0  0  0  0  0  0  0  0
   24.4946  -21.0318   -8.9000 C   0  0  0  0  0  0  0  0  0  0  0  0
   24.2807  -21.8448   -7.8052 O   0  0  0  0  0  0  0  0  0  0  0  0
   23.5184  -20.5944   -9.5283 O   0  0  0  0  0  0  0  0  0  0  0  0
  2  1  1  0
  3  4  1  0
  3  2  1  0
  4  5  1  0
  5  7  1  0
  5  6  1  6
  7 11  1  0
  7  8  2  0
 10  9  1  6
 10 12  1  0
 11 10  1  0
 12 19  1  0
 12 13  2  0
 14 15  1  0
 16 18  1  0
 16 15  1  0
 16 17  1  1
 18 20  1  0
 18 19  1  6
 20 21  1  0
 22 20  2  0
M  END
$$$$
