LPK.pdb
     RDKit          3D

 25 25  0  0  1  0  0  0  0  0999 V2000
    8.1926  -13.2012   27.1280 C   0  0  0  0  0  0  0  0  0  0  0  0
    7.1879  -13.7525   26.1766 C   0  0  2  0  0  0  0  0  0  0  0  0
    6.0553  -12.7694   25.9066 C   0  0  0  0  0  0  0  0  0  0  0  0
    6.7139  -15.1054   26.5039 C   0  0  0  0  0  0  0  0  0  0  0  0
    6.2260  -16.0014   25.4265 C   0  0  2  0  0  0  0  0  0  0  0  0
    5.7101  -17.2740   25.8058 N   0  0  0  0  0  0  0  0  0  0  0  0
    7.2880  -16.0700   24.4051 C   0  0  0  0  0  0  0  0  0  0  0  0
    8.2038  -16.9205   24.6254 O   0  0  0  0  0  0  0  0  0  0  0  0
    7.3899  -15.2929   23.2107 N   0  0  0  0  0  0  0  0  0  0  0  0
    6.5283  -14.2537   22.7312 C   0  0  0  0  0  0  0  0  0  0  0  0
    7.4467  -13.4300   21.8410 C   0  0  0  0  0  0  0  0  0  0  0  0
    8.2665  -14.5364   21.1523 C   0  0  0  0  0  0  0  0  0  0  0  0
    8.4644  -15.4924   22.2756 C   0  0  1  0  0  0  0  0  0  0  0  0
    9.7999  -15.3196   22.9262 C   0  0  0  0  0  0  0  0  0  0  0  0
    9.8735  -14.5281   23.8947 O   0  0  0  0  0  0  0  0  0  0  0  0
   10.9540  -16.0023   22.4960 N   0  0  0  0  0  0  0  0  0  0  0  0
   12.2241  -16.0220   23.2327 C   0  0  1  0  0  0  0  0  0  0  0  0
   12.0266  -16.3727   24.6597 C   0  0  0  0  0  0  0  0  0  0  0  0
   11.4817  -17.7069   24.9763 C   0  0  0  0  0  0  0  0  0  0  0  0
   11.2944  -18.0905   26.3877 C   0  0  0  0  0  0  0  0  0  0  0  0
   10.7862  -19.4631   26.6583 C   0  0  0  0  0  0  0  0  0  0  0  0
   10.6607  -19.7418   28.0833 N   0  0  0  0  0  0  0  0  0  0  0  0
   13.2245  -16.7678   22.4757 C   0  0  0  0  0  0  0  0  0  0  0  0
   12.8552  -17.5628   21.4211 O   0  0  0  0  0  0  0  0  0  0  0  0
   14.4762  -16.7208   22.7562 O   0  0  0  0  0  0  0  0  0  0  0  0
  2  1  1  1
  3  2  1  0
  4  2  1  0
  5  4  1  0
  5  6  1  1
  7  5  1  0
  7  8  2  0
  9 10  1  0
  9  7  1  0
 11 10  1  0
 12 11  1  0
 12 13  1  0
 13  9  1  0
 14 15  2  0
 13 14  1  1
 16 14  1  0
 17 18  1  1
 17 16  1  0
 19 18  1  0
 19 20  1  0
 20 21  1  0
 21 22  1  0
 23 17  1  0
 24 23  1  0
 25 23  2  0
M  END
$$$$
