LPK.pdb
     RDKit          3D

 25 25  0  0  1  0  0  0  0  0999 V2000
    8.2321  -12.6144   26.9049 C   0  0  0  0  0  0  0  0  0  0  0  0
    7.1657  -13.2894   26.1139 C   0  0  2  0  0  0  0  0  0  0  0  0
    5.8960  -12.4507   26.0316 C   0  0  0  0  0  0  0  0  0  0  0  0
    6.9122  -14.6865   26.4964 C   0  0  0  0  0  0  0  0  0  0  0  0
    6.3452  -15.6354   25.5066 C   0  0  2  0  0  0  0  0  0  0  0  0
    5.7309  -16.8214   26.0020 N   0  0  0  0  0  0  0  0  0  0  0  0
    7.3906  -15.8841   24.4960 C   0  0  0  0  0  0  0  0  0  0  0  0
    8.2767  -16.7315   24.8235 O   0  0  0  0  0  0  0  0  0  0  0  0
    7.5058  -15.2821   23.2055 N   0  0  0  0  0  0  0  0  0  0  0  0
    6.6518  -14.3190   22.5770 C   0  0  0  0  0  0  0  0  0  0  0  0
    7.5808  -13.6294   21.5892 C   0  0  0  0  0  0  0  0  0  0  0  0
    8.4037  -14.8226   21.0701 C   0  0  0  0  0  0  0  0  0  0  0  0
    8.5885  -15.6122   22.3180 C   0  0  1  0  0  0  0  0  0  0  0  0
    9.9183  -15.3521   22.9508 C   0  0  0  0  0  0  0  0  0  0  0  0
    9.9304  -14.7203   24.0327 O   0  0  0  0  0  0  0  0  0  0  0  0
   11.1326  -15.7844   22.3836 N   0  0  0  0  0  0  0  0  0  0  0  0
   12.1518  -16.5568   23.1051 C   0  0  1  0  0  0  0  0  0  0  0  0
   11.5588  -17.7035   23.8343 C   0  0  0  0  0  0  0  0  0  0  0  0
   11.6550  -17.7129   25.3067 C   0  0  0  0  0  0  0  0  0  0  0  0
   11.7203  -19.0047   26.0146 C   0  0  0  0  0  0  0  0  0  0  0  0
   11.6646  -18.9696   27.5016 C   0  0  0  0  0  0  0  0  0  0  0  0
   11.5198  -20.2964   28.0870 N   0  0  0  0  0  0  0  0  0  0  0  0
   13.2896  -16.8164   22.2285 C   0  0  0  0  0  0  0  0  0  0  0  0
   14.5428  -16.3665   22.5562 O   0  0  0  0  0  0  0  0  0  0  0  0
   13.1754  -17.4634   21.1257 O   0  0  0  0  0  0  0  0  0  0  0  0
  2  1  1  1
  3  2  1  0
  4  2  1  0
  5  4  1  0
  5  6  1  1
  7  5  1  0
  7  8  2  0
  9 10  1  0
  9  7  1  0
 11 10  1  0
 12 11  1  0
 12 13  1  0
 13  9  1  0
 14 15  2  0
 13 14  1  1
 16 14  1  0
 17 18  1  6
 17 16  1  0
 19 18  1  0
 19 20  1  0
 20 21  1  0
 21 22  1  0
 23 17  1  0
 24 23  1  0
 25 23  2  0
M  END
$$$$
