LPK.pdb
     RDKit          3D

 25 25  0  0  1  0  0  0  0  0999 V2000
    7.6458  -12.7006   20.8808 C   0  0  0  0  0  0  0  0  0  0  0  0
    8.0932  -13.7391   19.9113 C   0  0  2  0  0  0  0  0  0  0  0  0
    8.9698  -13.1548   18.8102 C   0  0  0  0  0  0  0  0  0  0  0  0
    7.0175  -14.6005   19.3983 C   0  0  0  0  0  0  0  0  0  0  0  0
    7.3226  -15.9825   18.9525 C   0  0  2  0  0  0  0  0  0  0  0  0
    6.2529  -16.7589   18.4211 N   0  0  0  0  0  0  0  0  0  0  0  0
    8.0478  -16.6434   20.0540 C   0  0  0  0  0  0  0  0  0  0  0  0
    7.6073  -16.4036   21.2197 O   0  0  0  0  0  0  0  0  0  0  0  0
    9.1751  -17.5144   19.9466 N   0  0  0  0  0  0  0  0  0  0  0  0
    9.8516  -17.9778   18.7720 C   0  0  0  0  0  0  0  0  0  0  0  0
   11.2485  -18.2961   19.2837 C   0  0  0  0  0  0  0  0  0  0  0  0
   10.9291  -18.9312   20.6493 C   0  0  0  0  0  0  0  0  0  0  0  0
    9.8056  -18.0723   21.1129 C   0  0  1  0  0  0  0  0  0  0  0  0
   10.2703  -17.0048   22.0515 C   0  0  0  0  0  0  0  0  0  0  0  0
   10.7665  -15.9694   21.5500 O   0  0  0  0  0  0  0  0  0  0  0  0
   10.1710  -17.1214   23.4514 N   0  0  0  0  0  0  0  0  0  0  0  0
   10.7270  -16.1501   24.4021 C   0  0  1  0  0  0  0  0  0  0  0  0
    9.6937  -15.6409   25.3354 C   0  0  0  0  0  0  0  0  0  0  0  0
   10.1137  -14.6888   26.3815 C   0  0  0  0  0  0  0  0  0  0  0  0
    9.1005  -14.1359   27.2991 C   0  0  0  0  0  0  0  0  0  0  0  0
    9.5739  -13.1886   28.3450 C   0  0  0  0  0  0  0  0  0  0  0  0
    8.4928  -12.7121   29.1984 N   0  0  0  0  0  0  0  0  0  0  0  0
   11.9684  -16.6671   24.9695 C   0  0  0  0  0  0  0  0  0  0  0  0
   12.1084  -18.0027   25.2471 O   0  0  0  0  0  0  0  0  0  0  0  0
   12.9710  -15.9111   25.2356 O   0  0  0  0  0  0  0  0  0  0  0  0
  2  1  1  6
  3  2  1  0
  4  2  1  0
  5  4  1  0
  5  6  1  1
  7  5  1  0
  7  8  2  0
  9 10  1  0
  9  7  1  0
 11 10  1  0
 12 11  1  0
 12 13  1  0
 13  9  1  0
 14 15  2  0
 13 14  1  1
 16 14  1  0
 17 18  1  1
 17 16  1  0
 19 18  1  0
 19 20  1  0
 20 21  1  0
 21 22  1  0
 23 17  1  0
 24 23  1  0
 25 23  2  0
M  END
$$$$
