LPK.pdb
     RDKit          3D

 25 25  0  0  1  0  0  0  0  0999 V2000
    8.7246  -12.4911   18.0019 C   0  0  0  0  0  0  0  0  0  0  0  0
    9.0805  -13.8649   17.5498 C   0  0  2  0  0  0  0  0  0  0  0  0
    7.9262  -14.5462   16.8248 C   0  0  0  0  0  0  0  0  0  0  0  0
    9.6924  -14.7103   18.5858 C   0  0  0  0  0  0  0  0  0  0  0  0
   10.7830  -14.1706   19.4349 C   0  0  2  0  0  0  0  0  0  0  0  0
   12.1050  -14.1850   18.9041 N   0  0  0  0  0  0  0  0  0  0  0  0
   10.6649  -14.8170   20.7556 C   0  0  0  0  0  0  0  0  0  0  0  0
   11.4891  -15.7555   20.9803 O   0  0  0  0  0  0  0  0  0  0  0  0
    9.7357  -14.4994   21.7933 N   0  0  0  0  0  0  0  0  0  0  0  0
    8.6795  -13.5318   21.7968 C   0  0  0  0  0  0  0  0  0  0  0  0
    7.7099  -14.0859   22.8299 C   0  0  0  0  0  0  0  0  0  0  0  0
    8.6827  -14.6047   23.9046 C   0  0  0  0  0  0  0  0  0  0  0  0
    9.7676  -15.1769   23.0617 C   0  0  1  0  0  0  0  0  0  0  0  0
    9.6259  -16.6568   22.8993 C   0  0  0  0  0  0  0  0  0  0  0  0
    9.2196  -17.0811   21.7927 O   0  0  0  0  0  0  0  0  0  0  0  0
    9.9275  -17.5711   23.9271 N   0  0  0  0  0  0  0  0  0  0  0  0
   10.4777  -18.9138   23.7022 C   0  0  1  0  0  0  0  0  0  0  0  0
   11.5683  -18.9000   22.6979 C   0  0  0  0  0  0  0  0  0  0  0  0
   11.3156  -19.5385   21.3919 C   0  0  0  0  0  0  0  0  0  0  0  0
   12.3814  -19.5372   20.3729 C   0  0  0  0  0  0  0  0  0  0  0  0
   12.0865  -20.2105   19.0786 C   0  0  0  0  0  0  0  0  0  0  0  0
   13.2126  -20.1631   18.1545 N   0  0  0  0  0  0  0  0  0  0  0  0
   10.7334  -19.5654   24.9829 C   0  0  0  0  0  0  0  0  0  0  0  0
   11.4449  -18.9247   25.9647 O   0  0  0  0  0  0  0  0  0  0  0  0
   10.3162  -20.7500   25.2481 O   0  0  0  0  0  0  0  0  0  0  0  0
  2  1  1  1
  3  2  1  0
  4  2  1  0
  5  4  1  0
  5  6  1  6
  7  5  1  0
  7  8  2  0
  9 10  1  0
  9  7  1  0
 11 10  1  0
 12 11  1  0
 12 13  1  0
 13  9  1  0
 14 15  2  0
 13 14  1  6
 16 14  1  0
 17 18  1  1
 17 16  1  0
 19 18  1  0
 19 20  1  0
 20 21  1  0
 21 22  1  0
 23 17  1  0
 24 23  1  0
 25 23  2  0
M  END
$$$$
