LPK.pdb
     RDKit          3D

 25 25  0  0  1  0  0  0  0  0999 V2000
    5.5068  -12.2531   26.0567 C   0  0  0  0  0  0  0  0  0  0  0  0
    6.6989  -12.8171   26.7488 C   0  0  2  0  0  0  0  0  0  0  0  0
    7.6261  -11.7269   27.2724 C   0  0  0  0  0  0  0  0  0  0  0  0
    7.4048  -13.8643   25.9955 C   0  0  0  0  0  0  0  0  0  0  0  0
    6.6568  -15.0345   25.4732 C   0  0  2  0  0  0  0  0  0  0  0  0
    6.1369  -15.9645   26.4188 N   0  0  0  0  0  0  0  0  0  0  0  0
    7.4940  -15.6533   24.4282 C   0  0  0  0  0  0  0  0  0  0  0  0
    8.1300  -16.6929   24.7820 O   0  0  0  0  0  0  0  0  0  0  0  0
    7.6586  -15.2127   23.0792 N   0  0  0  0  0  0  0  0  0  0  0  0
    6.9818  -14.1599   22.3824 C   0  0  0  0  0  0  0  0  0  0  0  0
    7.9761  -13.7712   21.2985 C   0  0  0  0  0  0  0  0  0  0  0  0
    8.5157  -15.1508   20.8794 C   0  0  0  0  0  0  0  0  0  0  0  0
    8.6050  -15.8394   22.1958 C   0  0  1  0  0  0  0  0  0  0  0  0
    9.9917  -15.7968   22.7545 C   0  0  0  0  0  0  0  0  0  0  0  0
   10.3618  -14.7330   23.3033 O   0  0  0  0  0  0  0  0  0  0  0  0
   10.8774  -16.8895   22.6861 N   0  0  0  0  0  0  0  0  0  0  0  0
   12.2129  -16.9088   23.2962 C   0  0  1  0  0  0  0  0  0  0  0  0
   12.3536  -18.0121   24.2766 C   0  0  0  0  0  0  0  0  0  0  0  0
   11.4522  -18.0200   25.4448 C   0  0  0  0  0  0  0  0  0  0  0  0
   11.4704  -19.1768   26.3590 C   0  0  0  0  0  0  0  0  0  0  0  0
   10.6775  -19.0654   27.6137 C   0  0  0  0  0  0  0  0  0  0  0  0
   10.6098  -20.3238   28.3458 N   0  0  0  0  0  0  0  0  0  0  0  0
   13.2328  -16.7781   22.2603 C   0  0  0  0  0  0  0  0  0  0  0  0
   12.9732  -17.1626   20.9698 O   0  0  0  0  0  0  0  0  0  0  0  0
   14.4030  -16.3090   22.5016 O   0  0  0  0  0  0  0  0  0  0  0  0
  2  1  1  6
  3  2  1  0
  4  2  1  0
  5  4  1  0
  5  6  1  1
  7  5  1  0
  7  8  2  0
  9 10  1  0
  9  7  1  0
 11 10  1  0
 12 11  1  0
 12 13  1  0
 13  9  1  0
 14 15  2  0
 13 14  1  1
 16 14  1  0
 17 18  1  6
 17 16  1  0
 19 18  1  0
 19 20  1  0
 20 21  1  0
 21 22  1  0
 23 17  1  0
 24 23  1  0
 25 23  2  0
M  END
$$$$
