IPW.pdb
     RDKit          3D

 30 32  0  0  1  0  0  0  0  0999 V2000
    7.6416  -11.6188   19.5138 C   0  0  0  0  0  0  0  0  0  0  0  0
    7.5480  -13.0663   19.0923 C   0  0  0  0  0  0  0  0  0  0  0  0
    7.9359  -13.9346   20.2468 C   0  0  2  0  0  0  0  0  0  0  0  0
    9.3479  -13.6265   20.7288 C   0  0  0  0  0  0  0  0  0  0  0  0
    7.7907  -15.4139   19.9609 C   0  0  2  0  0  0  0  0  0  0  0  0
    6.4134  -15.5803   19.4914 N   0  0  0  0  0  0  0  0  0  0  0  0
    8.0421  -16.2385   21.1613 C   0  0  0  0  0  0  0  0  0  0  0  0
    7.4342  -15.9895   22.2316 O   0  0  0  0  0  0  0  0  0  0  0  0
    8.9706  -17.3453   21.1806 N   0  0  0  0  0  0  0  0  0  0  0  0
    9.6130  -17.9148   20.0395 C   0  0  0  0  0  0  0  0  0  0  0  0
   10.5810  -18.9373   20.5430 C   0  0  0  0  0  0  0  0  0  0  0  0
   10.4950  -18.9264   22.0287 C   0  0  0  0  0  0  0  0  0  0  0  0
    9.3579  -18.0116   22.3661 C   0  0  1  0  0  0  0  0  0  0  0  0
    9.8859  -17.0705   23.4145 C   0  0  0  0  0  0  0  0  0  0  0  0
   10.5390  -16.0361   23.1402 O   0  0  0  0  0  0  0  0  0  0  0  0
    9.6128  -17.4008   24.7686 N   0  0  0  0  0  0  0  0  0  0  0  0
   10.1682  -16.6608   25.9030 C   0  0  1  0  0  0  0  0  0  0  0  0
    9.8234  -15.2141   25.6810 C   0  0  0  0  0  0  0  0  0  0  0  0
    8.4034  -14.9057   25.8146 C   0  0  0  0  0  0  0  0  0  0  0  0
    7.3483  -15.7800   25.6657 C   0  0  0  0  0  0  0  0  0  0  0  0
    6.1897  -15.1326   25.8268 N   0  0  0  0  0  0  0  0  0  0  0  0
    6.4635  -13.8370   26.0819 C   0  0  0  0  0  0  0  0  0  0  0  0
    5.7071  -12.7227   26.3419 C   0  0  0  0  0  0  0  0  0  0  0  0
    6.2830  -11.5004   26.5898 C   0  0  0  0  0  0  0  0  0  0  0  0
    7.6437  -11.3482   26.5865 C   0  0  0  0  0  0  0  0  0  0  0  0
    8.4179  -12.4342   26.3314 C   0  0  0  0  0  0  0  0  0  0  0  0
    7.8509  -13.6754   26.0784 C   0  0  0  0  0  0  0  0  0  0  0  0
    9.8840  -17.2370   27.1925 C   0  0  0  0  0  0  0  0  0  0  0  0
   10.4899  -16.8720   28.3916 O   0  0  0  0  0  0  0  0  0  0  0  0
    9.0204  -18.1507   27.2821 O   0  0  0  0  0  0  0  0  0  0  0  0
  2  1  1  0
  3  2  1  0
  3  4  1  6
  5  3  1  0
  5  6  1  1
  7  5  1  0
  8  7  2  0
  9 13  1  0
  9  7  1  0
 10  9  1  0
 11 10  1  0
 11 12  1  0
 12 13  1  0
 13 14  1  1
 14 15  2  0
 16 14  1  0
 17 16  1  0
 17 28  1  0
 17 18  1  1
 19 27  1  0
 19 18  1  0
 20 19  2  0
 21 20  1  0
 21 22  1  0
 22 27  2  0
 23 22  1  0
 23 24  2  0
 24 25  1  0
 25 26  2  0
 27 26  1  0
 28 30  2  0
 28 29  1  0
M  END
$$$$
