IPW.pdb
     RDKit          3D

 30 32  0  0  1  0  0  0  0  0999 V2000
   14.0181  -18.3403   17.3319 C   0  0  0  0  0  0  0  0  0  0  0  0
   12.7100  -17.6423   17.0433 C   0  0  0  0  0  0  0  0  0  0  0  0
   12.1282  -17.1493   18.3301 C   0  0  2  0  0  0  0  0  0  0  0  0
   11.7289  -18.3027   19.2417 C   0  0  0  0  0  0  0  0  0  0  0  0
   10.9612  -16.2045   18.1384 C   0  0  2  0  0  0  0  0  0  0  0  0
   11.5219  -15.0361   17.4560 N   0  0  0  0  0  0  0  0  0  0  0  0
   10.3429  -15.8182   19.4240 C   0  0  0  0  0  0  0  0  0  0  0  0
   11.0056  -15.1650   20.2673 O   0  0  0  0  0  0  0  0  0  0  0  0
    8.9840  -16.1551   19.7811 N   0  0  0  0  0  0  0  0  0  0  0  0
    8.0479  -16.8392   18.9475 C   0  0  0  0  0  0  0  0  0  0  0  0
    6.8246  -17.0885   19.7706 C   0  0  0  0  0  0  0  0  0  0  0  0
    7.0925  -16.5420   21.1286 C   0  0  0  0  0  0  0  0  0  0  0  0
    8.4091  -15.8338   21.0323 C   0  0  1  0  0  0  0  0  0  0  0  0
    9.2281  -16.3315   22.1922 C   0  0  0  0  0  0  0  0  0  0  0  0
   10.1179  -17.2071   22.0768 O   0  0  0  0  0  0  0  0  0  0  0  0
    8.9534  -15.7601   23.4630 N   0  0  0  0  0  0  0  0  0  0  0  0
    9.6917  -16.1109   24.6774 C   0  0  1  0  0  0  0  0  0  0  0  0
    9.5678  -14.9365   25.6084 C   0  0  0  0  0  0  0  0  0  0  0  0
    8.1944  -14.5774   25.9460 C   0  0  0  0  0  0  0  0  0  0  0  0
    7.1045  -15.4201   25.9886 C   0  0  0  0  0  0  0  0  0  0  0  0
    6.0030  -14.7302   26.3022 N   0  0  0  0  0  0  0  0  0  0  0  0
    6.3494  -13.4376   26.4692 C   0  0  0  0  0  0  0  0  0  0  0  0
    5.6736  -12.2918   26.8038 C   0  0  0  0  0  0  0  0  0  0  0  0
    6.3152  -11.0827   26.9202 C   0  0  0  0  0  0  0  0  0  0  0  0
    7.6632  -10.9759   26.7050 C   0  0  0  0  0  0  0  0  0  0  0  0
    8.3580  -12.0939   26.3716 C   0  0  0  0  0  0  0  0  0  0  0  0
    7.7239  -13.3224   26.2494 C   0  0  0  0  0  0  0  0  0  0  0  0
    9.4035  -17.4233   25.1970 C   0  0  0  0  0  0  0  0  0  0  0  0
   10.2349  -18.1603   26.0360 O   0  0  0  0  0  0  0  0  0  0  0  0
    8.3175  -17.9834   24.8880 O   0  0  0  0  0  0  0  0  0  0  0  0
  2  1  1  0
  3  2  1  0
  3  4  1  1
  5  3  1  0
  5  6  1  1
  7  5  1  0
  8  7  2  0
  9 13  1  0
  9  7  1  0
 10  9  1  0
 11 10  1  0
 11 12  1  0
 12 13  1  0
 13 14  1  1
 14 15  2  0
 16 14  1  0
 17 16  1  0
 17 28  1  0
 17 18  1  1
 19 27  1  0
 19 18  1  0
 20 19  2  0
 21 20  1  0
 21 22  1  0
 22 27  2  0
 23 22  1  0
 23 24  2  0
 24 25  1  0
 25 26  2  0
 27 26  1  0
 28 30  2  0
 28 29  1  0
M  END
$$$$
