IPW.pdb
     RDKit          3D

 30 32  0  0  1  0  0  0  0  0999 V2000
    6.3389  -11.5551   26.6557 C   0  0  0  0  0  0  0  0  0  0  0  0
    5.8010  -12.8996   26.2261 C   0  0  0  0  0  0  0  0  0  0  0  0
    6.8980  -13.6739   25.5672 C   0  0  2  0  0  0  0  0  0  0  0  0
    7.6910  -12.8061   24.5981 C   0  0  0  0  0  0  0  0  0  0  0  0
    6.4137  -14.9281   24.8717 C   0  0  2  0  0  0  0  0  0  0  0  0
    5.8252  -15.7509   25.9309 N   0  0  0  0  0  0  0  0  0  0  0  0
    7.5132  -15.6470   24.1946 C   0  0  0  0  0  0  0  0  0  0  0  0
    8.2861  -16.3802   24.8596 O   0  0  0  0  0  0  0  0  0  0  0  0
    7.7611  -15.5563   22.7742 N   0  0  0  0  0  0  0  0  0  0  0  0
    6.9857  -14.8063   21.8385 C   0  0  0  0  0  0  0  0  0  0  0  0
    7.6827  -14.8932   20.5183 C   0  0  0  0  0  0  0  0  0  0  0  0
    8.9114  -15.7068   20.7254 C   0  0  0  0  0  0  0  0  0  0  0  0
    8.8296  -16.2216   22.1298 C   0  0  1  0  0  0  0  0  0  0  0  0
   10.1637  -15.9187   22.7559 C   0  0  0  0  0  0  0  0  0  0  0  0
   10.6910  -14.7816   22.7284 O   0  0  0  0  0  0  0  0  0  0  0  0
   10.8288  -16.9955   23.4002 N   0  0  0  0  0  0  0  0  0  0  0  0
   12.1873  -16.8944   23.9363 C   0  0  1  0  0  0  0  0  0  0  0  0
   12.1411  -15.8616   25.0284 C   0  0  0  0  0  0  0  0  0  0  0  0
   11.3384  -16.2438   26.1854 C   0  0  0  0  0  0  0  0  0  0  0  0
   10.8118  -17.4890   26.4536 C   0  0  0  0  0  0  0  0  0  0  0  0
   10.1032  -17.4534   27.5867 N   0  0  0  0  0  0  0  0  0  0  0  0
   10.1539  -16.1974   28.0753 C   0  0  0  0  0  0  0  0  0  0  0  0
    9.6469  -15.5716   29.1856 C   0  0  0  0  0  0  0  0  0  0  0  0
    9.8866  -14.2427   29.4383 C   0  0  0  0  0  0  0  0  0  0  0  0
   10.6460  -13.4882   28.5847 C   0  0  0  0  0  0  0  0  0  0  0  0
   11.1603  -14.0812   27.4767 C   0  0  0  0  0  0  0  0  0  0  0  0
   10.9266  -15.4225   27.2074 C   0  0  0  0  0  0  0  0  0  0  0  0
   12.8151  -18.1589   24.2229 C   0  0  0  0  0  0  0  0  0  0  0  0
   12.2072  -19.4064   24.1103 O   0  0  0  0  0  0  0  0  0  0  0  0
   14.0142  -18.1776   24.6106 O   0  0  0  0  0  0  0  0  0  0  0  0
  2  1  1  0
  3  2  1  0
  3  4  1  6
  5  3  1  0
  5  6  1  1
  7  5  1  0
  8  7  2  0
  9 13  1  0
  9  7  1  0
 10  9  1  0
 11 10  1  0
 11 12  1  0
 12 13  1  0
 13 14  1  1
 14 15  2  0
 16 14  1  0
 17 16  1  0
 17 28  1  0
 17 18  1  1
 19 27  1  0
 19 18  1  0
 20 19  2  0
 21 20  1  0
 21 22  1  0
 22 27  2  0
 23 22  1  0
 23 24  2  0
 24 25  1  0
 25 26  2  0
 27 26  1  0
 28 30  2  0
 28 29  1  0
M  END
$$$$
