IPW.pdb
     RDKit          3D

 30 32  0  0  1  0  0  0  0  0999 V2000
    8.3637  -19.7417   25.9640 C   0  0  0  0  0  0  0  0  0  0  0  0
    8.2392  -19.7747   24.4590 C   0  0  0  0  0  0  0  0  0  0  0  0
    6.9712  -19.0883   24.0612 C   0  0  2  0  0  0  0  0  0  0  0  0
    5.7480  -19.8073   24.6160 C   0  0  0  0  0  0  0  0  0  0  0  0
    6.8345  -18.8993   22.5655 C   0  0  2  0  0  0  0  0  0  0  0  0
    7.0436  -20.2299   21.9903 N   0  0  0  0  0  0  0  0  0  0  0  0
    7.8207  -17.9345   22.0356 C   0  0  0  0  0  0  0  0  0  0  0  0
    8.9851  -18.3158   21.7597 O   0  0  0  0  0  0  0  0  0  0  0  0
    7.5198  -16.5398   21.8086 N   0  0  0  0  0  0  0  0  0  0  0  0
    6.2981  -15.8839   22.1499 C   0  0  0  0  0  0  0  0  0  0  0  0
    6.4824  -14.4289   21.8584 C   0  0  0  0  0  0  0  0  0  0  0  0
    7.8717  -14.2567   21.3536 C   0  0  0  0  0  0  0  0  0  0  0  0
    8.4266  -15.6399   21.2024 C   0  0  1  0  0  0  0  0  0  0  0  0
    9.7677  -15.6204   21.8840 C   0  0  0  0  0  0  0  0  0  0  0  0
   10.7498  -14.9762   21.4454 O   0  0  0  0  0  0  0  0  0  0  0  0
    9.8909  -16.3787   23.0786 N   0  0  0  0  0  0  0  0  0  0  0  0
   10.8037  -16.0213   24.1657 C   0  0  1  0  0  0  0  0  0  0  0  0
   10.4565  -14.6156   24.5718 C   0  0  0  0  0  0  0  0  0  0  0  0
    9.4751  -14.5242   25.6478 C   0  0  0  0  0  0  0  0  0  0  0  0
    9.3916  -15.3294   26.7634 C   0  0  0  0  0  0  0  0  0  0  0  0
    8.3430  -14.9702   27.5111 N   0  0  0  0  0  0  0  0  0  0  0  0
    7.7289  -13.9341   26.9045 C   0  0  0  0  0  0  0  0  0  0  0  0
    6.6393  -13.1528   27.1942 C   0  0  0  0  0  0  0  0  0  0  0  0
    6.2485  -12.1245   26.3715 C   0  0  0  0  0  0  0  0  0  0  0  0
    6.9375  -11.8392   25.2232 C   0  0  0  0  0  0  0  0  0  0  0  0
    8.0202  -12.5967   24.9105 C   0  0  0  0  0  0  0  0  0  0  0  0
    8.4270  -13.6394   25.7311 C   0  0  0  0  0  0  0  0  0  0  0  0
   10.9247  -17.0171   25.1997 C   0  0  0  0  0  0  0  0  0  0  0  0
   10.0789  -18.1095   25.3719 O   0  0  0  0  0  0  0  0  0  0  0  0
   11.8623  -16.9251   26.0370 O   0  0  0  0  0  0  0  0  0  0  0  0
  2  1  1  0
  3  2  1  0
  3  4  1  6
  5  3  1  0
  5  6  1  6
  7  5  1  0
  8  7  2  0
  9 13  1  0
  9  7  1  0
 10  9  1  0
 11 10  1  0
 11 12  1  0
 12 13  1  0
 13 14  1  1
 14 15  2  0
 16 14  1  0
 17 16  1  0
 17 28  1  0
 17 18  1  1
 19 27  1  0
 19 18  1  0
 20 19  2  0
 21 20  1  0
 21 22  1  0
 22 27  2  0
 23 22  1  0
 23 24  2  0
 24 25  1  0
 25 26  2  0
 27 26  1  0
 28 30  2  0
 28 29  1  0
M  END
$$$$
