IPW.pdb
     RDKit          3D

 30 32  0  0  1  0  0  0  0  0999 V2000
   12.0021  -12.6073   18.1483 C   0  0  0  0  0  0  0  0  0  0  0  0
   10.6592  -13.2587   17.9161 C   0  0  0  0  0  0  0  0  0  0  0  0
   10.1841  -13.8632   19.1991 C   0  0  2  0  0  0  0  0  0  0  0  0
   11.1897  -14.8657   19.7513 C   0  0  0  0  0  0  0  0  0  0  0  0
    8.8147  -14.4993   19.0923 C   0  0  2  0  0  0  0  0  0  0  0  0
    7.8921  -13.3860   18.8586 N   0  0  0  0  0  0  0  0  0  0  0  0
    8.4491  -15.2389   20.3185 C   0  0  0  0  0  0  0  0  0  0  0  0
    8.2166  -14.6133   21.3823 O   0  0  0  0  0  0  0  0  0  0  0  0
    8.3394  -16.6786   20.3708 N   0  0  0  0  0  0  0  0  0  0  0  0
    8.4324  -17.5632   19.2538 C   0  0  0  0  0  0  0  0  0  0  0  0
    8.3966  -18.9580   19.7917 C   0  0  0  0  0  0  0  0  0  0  0  0
    8.3017  -18.8529   21.2731 C   0  0  0  0  0  0  0  0  0  0  0  0
    8.1183  -17.3960   21.5691 C   0  0  1  0  0  0  0  0  0  0  0  0
    9.1243  -17.0649   22.6377 C   0  0  0  0  0  0  0  0  0  0  0  0
   10.3322  -16.8343   22.3937 O   0  0  0  0  0  0  0  0  0  0  0  0
    8.6479  -17.0198   23.9750 N   0  0  0  0  0  0  0  0  0  0  0  0
    9.4930  -16.6660   25.1167 C   0  0  1  0  0  0  0  0  0  0  0  0
    9.3198  -15.1884   25.3362 C   0  0  0  0  0  0  0  0  0  0  0  0
    7.9751  -14.7931   25.7419 C   0  0  0  0  0  0  0  0  0  0  0  0
    6.8483  -15.5868   25.7601 C   0  0  0  0  0  0  0  0  0  0  0  0
    5.7900  -14.8724   26.1565 N   0  0  0  0  0  0  0  0  0  0  0  0
    6.2016  -13.6120   26.4028 C   0  0  0  0  0  0  0  0  0  0  0  0
    5.5905  -12.4639   26.8385 C   0  0  0  0  0  0  0  0  0  0  0  0
    6.2914  -11.2963   27.0191 C   0  0  0  0  0  0  0  0  0  0  0  0
    7.6362  -11.2351   26.7688 C   0  0  0  0  0  0  0  0  0  0  0  0
    8.2677  -12.3564   26.3356 C   0  0  0  0  0  0  0  0  0  0  0  0
    7.5732  -13.5432   26.1478 C   0  0  0  0  0  0  0  0  0  0  0  0
    9.3637  -17.5417   26.2533 C   0  0  0  0  0  0  0  0  0  0  0  0
    8.4076  -18.5436   26.3963 O   0  0  0  0  0  0  0  0  0  0  0  0
   10.1652  -17.4207   27.2185 O   0  0  0  0  0  0  0  0  0  0  0  0
  2  1  1  0
  3  2  1  0
  3  4  1  6
  5  3  1  0
  5  6  1  1
  7  5  1  0
  8  7  2  0
  9 13  1  0
  9  7  1  0
 10  9  1  0
 11 10  1  0
 11 12  1  0
 12 13  1  0
 13 14  1  1
 14 15  2  0
 16 14  1  0
 17 16  1  0
 17 28  1  0
 17 18  1  1
 19 27  1  0
 19 18  1  0
 20 19  2  0
 21 20  1  0
 21 22  1  0
 22 27  2  0
 23 22  1  0
 23 24  2  0
 24 25  1  0
 25 26  2  0
 27 26  1  0
 28 30  2  0
 28 29  1  0
M  END
$$$$
