GHW.pdb
     RDKit          3D

 29 31  0  0  1  0  0  0  0  0999 V2000
   11.6441  -19.8818   -8.3601 N   0  0  0  0  0  0  0  0  0  0  0  0
   10.5584  -19.0830   -7.9005 C   0  0  0  0  0  0  0  0  0  0  0  0
    9.8617  -19.7015   -6.7060 C   0  0  0  0  0  0  0  0  0  0  0  0
    9.0266  -19.0817   -6.0477 O   0  0  0  0  0  0  0  0  0  0  0  0
   10.2140  -21.0283   -6.3783 N   0  0  0  0  0  0  0  0  0  0  0  0
    9.5751  -21.8084   -5.3907 C   0  0  1  0  0  0  0  0  0  0  0  0
    9.0119  -23.1492   -5.8215 C   0  0  0  0  0  0  0  0  0  0  0  0
    7.9382  -23.0307   -6.8275 C   0  0  0  0  0  0  0  0  0  0  0  0
    6.9063  -22.0931   -6.8522 C   0  0  0  0  0  0  0  0  0  0  0  0
    6.1527  -22.3386   -7.9359 N   0  0  0  0  0  0  0  0  0  0  0  0
    6.6638  -23.3860   -8.5913 C   0  0  0  0  0  0  0  0  0  0  0  0
    7.7444  -23.7877   -7.9007 N   0  0  0  0  0  0  0  0  0  0  0  0
   10.2001  -21.9152   -4.0839 C   0  0  0  0  0  0  0  0  0  0  0  0
   11.2615  -22.6324   -4.0308 O   0  0  0  0  0  0  0  0  0  0  0  0
    9.7438  -21.3078   -2.8954 N   0  0  0  0  0  0  0  0  0  0  0  0
   10.4577  -21.4999   -1.6372 C   0  0  1  0  0  0  0  0  0  0  0  0
   11.8216  -20.8583   -1.7035 C   0  0  0  0  0  0  0  0  0  0  0  0
   11.7639  -19.5299   -1.0641 C   0  0  0  0  0  0  0  0  0  0  0  0
   10.8430  -18.5569   -1.4825 C   0  0  0  0  0  0  0  0  0  0  0  0
   11.0207  -17.5098   -0.6738 N   0  0  0  0  0  0  0  0  0  0  0  0
   11.9883  -17.7643    0.2176 C   0  0  0  0  0  0  0  0  0  0  0  0
   12.5657  -17.0516    1.2449 C   0  0  0  0  0  0  0  0  0  0  0  0
   13.5790  -17.5818    2.0059 C   0  0  0  0  0  0  0  0  0  0  0  0
   14.0587  -18.8625    1.7635 C   0  0  0  0  0  0  0  0  0  0  0  0
   13.4873  -19.5854    0.7369 C   0  0  0  0  0  0  0  0  0  0  0  0
   12.4755  -19.0469   -0.0153 C   0  0  0  0  0  0  0  0  0  0  0  0
    9.6433  -21.1583   -0.4730 C   0  0  0  0  0  0  0  0  0  0  0  0
    9.9998  -21.4861    0.8093 O   0  0  0  0  0  0  0  0  0  0  0  0
    8.5456  -20.5335   -0.6188 O   0  0  0  0  0  0  0  0  0  0  0  0
  1  2  1  0
  2  3  1  0
  3  4  2  0
  5  3  1  0
  5  6  1  0
  6 13  1  0
  6  7  1  6
  8  7  1  0
  9  8  2  0
 10  9  1  0
 11 10  1  0
 11 12  2  0
 12  8  1  0
 13 14  2  0
 15 16  1  0
 15 13  1  0
 16 27  1  0
 16 17  1  6
 18 17  1  0
 18 19  2  0
 20 19  1  0
 21 20  1  0
 22 21  2  0
 23 22  1  0
 24 23  2  0
 24 25  1  0
 25 26  2  0
 26 21  1  0
 26 18  1  0
 27 29  2  0
 27 28  1  0
M  END
$$$$
