GHW.pdb
     RDKit          3D

 29 31  0  0  1  0  0  0  0  0999 V2000
   25.1854  -26.4237  -16.6191 N   0  0  0  0  0  0  0  0  0  0  0  0
   26.3316  -25.6548  -16.9699 C   0  0  0  0  0  0  0  0  0  0  0  0
   26.5934  -24.5382  -15.9803 C   0  0  0  0  0  0  0  0  0  0  0  0
   26.9993  -24.7620  -14.8401 O   0  0  0  0  0  0  0  0  0  0  0  0
   26.3501  -23.2211  -16.4252 N   0  0  0  0  0  0  0  0  0  0  0  0
   26.5098  -22.0636  -15.6336 C   0  0  1  0  0  0  0  0  0  0  0  0
   26.7902  -20.7605  -16.3574 C   0  0  0  0  0  0  0  0  0  0  0  0
   27.1023  -19.6449  -15.4425 C   0  0  0  0  0  0  0  0  0  0  0  0
   28.3496  -19.3099  -14.9168 C   0  0  0  0  0  0  0  0  0  0  0  0
   28.1903  -18.2311  -14.1337 N   0  0  0  0  0  0  0  0  0  0  0  0
   26.9017  -17.8743  -14.1438 C   0  0  0  0  0  0  0  0  0  0  0  0
   26.2630  -18.7455  -14.9433 N   0  0  0  0  0  0  0  0  0  0  0  0
   25.5861  -21.8463  -14.5340 C   0  0  0  0  0  0  0  0  0  0  0  0
   24.3438  -21.9999  -14.8110 O   0  0  0  0  0  0  0  0  0  0  0  0
   25.9374  -21.4875  -13.2157 N   0  0  0  0  0  0  0  0  0  0  0  0
   24.9459  -21.5146  -12.1454 C   0  0  1  0  0  0  0  0  0  0  0  0
   25.6111  -21.7900  -10.8195 C   0  0  0  0  0  0  0  0  0  0  0  0
   26.0981  -20.5197  -10.2486 C   0  0  0  0  0  0  0  0  0  0  0  0
   26.0112  -19.3157  -10.9646 C   0  0  0  0  0  0  0  0  0  0  0  0
   26.4851  -18.3688  -10.1518 N   0  0  0  0  0  0  0  0  0  0  0  0
   26.8612  -18.9007   -8.9808 C   0  0  0  0  0  0  0  0  0  0  0  0
   27.4098  -18.3952   -7.8231 C   0  0  0  0  0  0  0  0  0  0  0  0
   27.7108  -19.2073   -6.7569 C   0  0  0  0  0  0  0  0  0  0  0  0
   27.4708  -20.5743   -6.8106 C   0  0  0  0  0  0  0  0  0  0  0  0
   26.9213  -21.0912   -7.9655 C   0  0  0  0  0  0  0  0  0  0  0  0
   26.6234  -20.2713   -9.0230 C   0  0  0  0  0  0  0  0  0  0  0  0
   24.0463  -20.3637  -12.1857 C   0  0  0  0  0  0  0  0  0  0  0  0
   24.1672  -19.3538  -13.1044 O   0  0  0  0  0  0  0  0  0  0  0  0
   23.1005  -20.2588  -11.3424 O   0  0  0  0  0  0  0  0  0  0  0  0
  1  2  1  0
  2  3  1  0
  3  4  2  0
  5  3  1  0
  5  6  1  0
  6 13  1  0
  6  7  1  6
  8  7  1  0
  9  8  2  0
 10  9  1  0
 11 10  1  0
 11 12  2  0
 12  8  1  0
 13 14  2  0
 15 16  1  0
 15 13  1  0
 16 27  1  0
 16 17  1  1
 18 17  1  0
 18 19  2  0
 20 19  1  0
 21 20  1  0
 22 21  2  0
 23 22  1  0
 24 23  2  0
 24 25  1  0
 25 26  2  0
 26 21  1  0
 26 18  1  0
 27 29  2  0
 27 28  1  0
M  END
$$$$
