GHW.pdb
     RDKit          3D

 29 31  0  0  1  0  0  0  0  0999 V2000
   30.0933  -23.5334  -15.6447 N   0  0  0  0  0  0  0  0  0  0  0  0
   29.3709  -22.5531  -16.3830 C   0  0  0  0  0  0  0  0  0  0  0  0
   28.5455  -21.6562  -15.4835 C   0  0  0  0  0  0  0  0  0  0  0  0
   28.9113  -20.5191  -15.1869 O   0  0  0  0  0  0  0  0  0  0  0  0
   27.3306  -22.1845  -14.9969 N   0  0  0  0  0  0  0  0  0  0  0  0
   26.3410  -21.4354  -14.3249 C   0  0  1  0  0  0  0  0  0  0  0  0
   24.9915  -21.3005  -15.0040 C   0  0  0  0  0  0  0  0  0  0  0  0
   24.0636  -20.4114  -14.2779 C   0  0  0  0  0  0  0  0  0  0  0  0
   23.9900  -19.0214  -14.3609 C   0  0  0  0  0  0  0  0  0  0  0  0
   23.0105  -18.6110  -13.5395 N   0  0  0  0  0  0  0  0  0  0  0  0
   22.4669  -19.6785  -12.9455 C   0  0  0  0  0  0  0  0  0  0  0  0
   23.1214  -20.7569  -13.4087 N   0  0  0  0  0  0  0  0  0  0  0  0
   26.1738  -21.6370  -12.8962 C   0  0  0  0  0  0  0  0  0  0  0  0
   25.8747  -22.8295  -12.5329 O   0  0  0  0  0  0  0  0  0  0  0  0
   26.3103  -20.6489  -11.8988 N   0  0  0  0  0  0  0  0  0  0  0  0
   26.0916  -20.9725  -10.4927 C   0  0  1  0  0  0  0  0  0  0  0  0
   27.3357  -20.6878   -9.6882 C   0  0  0  0  0  0  0  0  0  0  0  0
   26.9747  -20.5719   -8.2623 C   0  0  0  0  0  0  0  0  0  0  0  0
   25.7106  -20.9628   -7.7943 C   0  0  0  0  0  0  0  0  0  0  0  0
   25.7340  -20.7781   -6.4725 N   0  0  0  0  0  0  0  0  0  0  0  0
   26.9244  -20.2991   -6.0866 C   0  0  0  0  0  0  0  0  0  0  0  0
   27.4707  -19.9317   -4.8769 C   0  0  0  0  0  0  0  0  0  0  0  0
   28.7529  -19.4475   -4.7854 C   0  0  0  0  0  0  0  0  0  0  0  0
   29.5468  -19.3108   -5.9169 C   0  0  0  0  0  0  0  0  0  0  0  0
   29.0096  -19.6761   -7.1338 C   0  0  0  0  0  0  0  0  0  0  0  0
   27.7293  -20.1596   -7.2134 C   0  0  0  0  0  0  0  0  0  0  0  0
   24.8481  -20.4063   -9.9743 C   0  0  0  0  0  0  0  0  0  0  0  0
   24.1299  -19.4476  -10.6404 O   0  0  0  0  0  0  0  0  0  0  0  0
   24.3844  -20.7931   -8.8554 O   0  0  0  0  0  0  0  0  0  0  0  0
  1  2  1  0
  2  3  1  0
  3  4  2  0
  5  3  1  0
  5  6  1  0
  6 13  1  0
  6  7  1  6
  8  7  1  0
  9  8  2  0
 10  9  1  0
 11 10  1  0
 11 12  2  0
 12  8  1  0
 13 14  2  0
 15 16  1  0
 15 13  1  0
 16 27  1  0
 16 17  1  1
 18 17  1  0
 18 19  2  0
 20 19  1  0
 21 20  1  0
 22 21  2  0
 23 22  1  0
 24 23  2  0
 24 25  1  0
 25 26  2  0
 26 21  1  0
 26 18  1  0
 27 29  2  0
 27 28  1  0
M  END
$$$$
