GHW.pdb
     RDKit          3D

 29 31  0  0  1  0  0  0  0  0999 V2000
   30.4960  -22.2704  -17.7447 N   0  0  0  0  0  0  0  0  0  0  0  0
   29.3797  -22.9051  -17.1290 C   0  0  0  0  0  0  0  0  0  0  0  0
   28.8357  -22.0996  -15.9671 C   0  0  0  0  0  0  0  0  0  0  0  0
   29.3472  -22.1450  -14.8486 O   0  0  0  0  0  0  0  0  0  0  0  0
   27.7091  -21.2893  -16.2244 N   0  0  0  0  0  0  0  0  0  0  0  0
   27.0935  -20.4450  -15.2756 C   0  0  1  0  0  0  0  0  0  0  0  0
   26.6080  -19.0925  -15.7610 C   0  0  0  0  0  0  0  0  0  0  0  0
   27.6826  -18.2666  -16.3458 C   0  0  0  0  0  0  0  0  0  0  0  0
   29.0431  -18.5680  -16.3986 C   0  0  0  0  0  0  0  0  0  0  0  0
   29.6667  -17.5506  -17.0137 N   0  0  0  0  0  0  0  0  0  0  0  0
   28.7611  -16.6256  -17.3487 C   0  0  0  0  0  0  0  0  0  0  0  0
   27.5671  -17.0819  -16.9337 N   0  0  0  0  0  0  0  0  0  0  0  0
   26.1365  -21.0274  -14.3512 C   0  0  0  0  0  0  0  0  0  0  0  0
   25.3533  -21.9142  -14.8452 O   0  0  0  0  0  0  0  0  0  0  0  0
   26.0017  -20.7032  -12.9850 N   0  0  0  0  0  0  0  0  0  0  0  0
   25.0930  -21.4549  -12.1256 C   0  0  1  0  0  0  0  0  0  0  0  0
   25.8624  -22.1594  -11.0357 C   0  0  0  0  0  0  0  0  0  0  0  0
   26.2244  -21.1838   -9.9898 C   0  0  0  0  0  0  0  0  0  0  0  0
   25.2845  -20.2728   -9.4833 C   0  0  0  0  0  0  0  0  0  0  0  0
   25.9164  -19.5829   -8.5311 N   0  0  0  0  0  0  0  0  0  0  0  0
   27.1837  -20.0014   -8.4111 C   0  0  0  0  0  0  0  0  0  0  0  0
   28.2481  -19.6398   -7.6155 C   0  0  0  0  0  0  0  0  0  0  0  0
   29.4704  -20.2566   -7.7273 C   0  0  0  0  0  0  0  0  0  0  0  0
   29.6755  -21.2722   -8.6524 C   0  0  0  0  0  0  0  0  0  0  0  0
   28.6160  -21.6425   -9.4543 C   0  0  0  0  0  0  0  0  0  0  0  0
   27.4000  -21.0211   -9.3332 C   0  0  0  0  0  0  0  0  0  0  0  0
   23.9464  -20.6599  -11.6910 C   0  0  0  0  0  0  0  0  0  0  0  0
   22.8092  -21.2157  -11.1652 O   0  0  0  0  0  0  0  0  0  0  0  0
   23.9676  -19.3929  -11.7955 O   0  0  0  0  0  0  0  0  0  0  0  0
  1  2  1  0
  2  3  1  0
  3  4  2  0
  5  3  1  0
  5  6  1  0
  6 13  1  0
  6  7  1  6
  8  7  1  0
  9  8  2  0
 10  9  1  0
 11 10  1  0
 11 12  2  0
 12  8  1  0
 13 14  2  0
 15 16  1  0
 15 13  1  0
 16 27  1  0
 16 17  1  1
 18 17  1  0
 18 19  2  0
 20 19  1  0
 21 20  1  0
 22 21  2  0
 23 22  1  0
 24 23  2  0
 24 25  1  0
 25 26  2  0
 26 21  1  0
 26 18  1  0
 27 29  2  0
 27 28  1  0
M  END
$$$$
