GHW.pdb
     RDKit          3D

 29 31  0  0  1  0  0  0  0  0999 V2000
   21.8125  -12.3432  -19.0504 N   0  0  0  0  0  0  0  0  0  0  0  0
   21.4495  -10.9730  -18.9124 C   0  0  0  0  0  0  0  0  0  0  0  0
   21.9798  -10.3698  -17.6280 C   0  0  0  0  0  0  0  0  0  0  0  0
   21.4300  -10.5624  -16.5438 O   0  0  0  0  0  0  0  0  0  0  0  0
   23.1395   -9.5719  -17.7289 N   0  0  0  0  0  0  0  0  0  0  0  0
   23.7575   -8.9124  -16.6449 C   0  0  1  0  0  0  0  0  0  0  0  0
   25.2229   -9.2123  -16.3935 C   0  0  0  0  0  0  0  0  0  0  0  0
   25.5355  -10.6542  -16.4388 C   0  0  0  0  0  0  0  0  0  0  0  0
   24.6320  -11.7088  -16.5647 C   0  0  0  0  0  0  0  0  0  0  0  0
   25.3329  -12.8539  -16.5646 N   0  0  0  0  0  0  0  0  0  0  0  0
   26.6331  -12.5665  -16.4444 C   0  0  0  0  0  0  0  0  0  0  0  0
   26.7306  -11.2283  -16.3700 N   0  0  0  0  0  0  0  0  0  0  0  0
   23.4873   -7.4983  -16.4521 C   0  0  0  0  0  0  0  0  0  0  0  0
   23.9488   -6.7145  -17.3556 O   0  0  0  0  0  0  0  0  0  0  0  0
   22.7746   -6.9305  -15.3752 N   0  0  0  0  0  0  0  0  0  0  0  0
   22.4907   -5.4996  -15.3398 C   0  0  1  0  0  0  0  0  0  0  0  0
   21.7854   -5.0722  -16.6032 C   0  0  0  0  0  0  0  0  0  0  0  0
   20.4478   -5.6934  -16.6453 C   0  0  0  0  0  0  0  0  0  0  0  0
   19.6994   -5.8970  -15.4755 C   0  0  0  0  0  0  0  0  0  0  0  0
   18.5368   -6.4219  -15.8689 N   0  0  0  0  0  0  0  0  0  0  0  0
   18.5110   -6.5593  -17.2015 C   0  0  0  0  0  0  0  0  0  0  0  0
   17.5893   -7.0414  -18.1042 C   0  0  0  0  0  0  0  0  0  0  0  0
   17.8520   -7.0709  -19.4522 C   0  0  0  0  0  0  0  0  0  0  0  0
   19.0636   -6.6128  -19.9536 C   0  0  0  0  0  0  0  0  0  0  0  0
   19.9939   -6.1275  -19.0582 C   0  0  0  0  0  0  0  0  0  0  0  0
   19.7207   -6.1013  -17.7151 C   0  0  0  0  0  0  0  0  0  0  0  0
   21.8690   -5.0826  -14.0848 C   0  0  0  0  0  0  0  0  0  0  0  0
   21.7220   -3.7680  -13.7255 O   0  0  0  0  0  0  0  0  0  0  0  0
   21.4381   -5.9512  -13.2625 O   0  0  0  0  0  0  0  0  0  0  0  0
  1  2  1  0
  2  3  1  0
  3  4  2  0
  5  3  1  0
  5  6  1  0
  6 13  1  0
  6  7  1  6
  8  7  1  0
  9  8  2  0
 10  9  1  0
 11 10  1  0
 11 12  2  0
 12  8  1  0
 13 14  2  0
 15 16  1  0
 15 13  1  0
 16 27  1  0
 16 17  1  6
 18 17  1  0
 18 19  2  0
 20 19  1  0
 21 20  1  0
 22 21  2  0
 23 22  1  0
 24 23  2  0
 24 25  1  0
 25 26  2  0
 26 21  1  0
 26 18  1  0
 27 29  2  0
 27 28  1  0
M  END
$$$$
