GHW.pdb
     RDKit          3D

 29 31  0  0  1  0  0  0  0  0999 V2000
   28.8729  -22.3459  -17.0391 N   0  0  0  0  0  0  0  0  0  0  0  0
   27.7128  -22.3972  -16.2147 C   0  0  0  0  0  0  0  0  0  0  0  0
   27.8710  -21.5687  -14.9564 C   0  0  0  0  0  0  0  0  0  0  0  0
   28.9414  -21.5012  -14.3527 O   0  0  0  0  0  0  0  0  0  0  0  0
   26.7299  -20.8726  -14.5032 N   0  0  0  0  0  0  0  0  0  0  0  0
   26.6717  -20.1134  -13.3148 C   0  0  1  0  0  0  0  0  0  0  0  0
   26.0933  -18.7146  -13.4118 C   0  0  0  0  0  0  0  0  0  0  0  0
   26.7761  -17.8734  -14.4143 C   0  0  0  0  0  0  0  0  0  0  0  0
   27.8808  -18.2182  -15.1920 C   0  0  0  0  0  0  0  0  0  0  0  0
   28.1805  -17.1666  -15.9711 N   0  0  0  0  0  0  0  0  0  0  0  0
   27.3155  -16.1789  -15.7179 C   0  0  0  0  0  0  0  0  0  0  0  0
   26.4749  -16.6308  -14.7718 N   0  0  0  0  0  0  0  0  0  0  0  0
   26.2201  -20.7675  -12.0990 C   0  0  0  0  0  0  0  0  0  0  0  0
   25.2595  -21.6047  -12.2404 O   0  0  0  0  0  0  0  0  0  0  0  0
   26.7410  -20.5604  -10.8046 N   0  0  0  0  0  0  0  0  0  0  0  0
   26.2665  -21.3513   -9.6737 C   0  0  1  0  0  0  0  0  0  0  0  0
   27.3762  -21.5546   -8.6720 C   0  0  0  0  0  0  0  0  0  0  0  0
   27.4514  -20.3770   -7.7864 C   0  0  0  0  0  0  0  0  0  0  0  0
   26.7735  -19.1870   -8.0935 C   0  0  0  0  0  0  0  0  0  0  0  0
   27.0079  -18.3563   -7.0753 N   0  0  0  0  0  0  0  0  0  0  0  0
   27.7848  -18.9470   -6.1571 C   0  0  0  0  0  0  0  0  0  0  0  0
   28.3229  -18.5545   -4.9516 C   0  0  0  0  0  0  0  0  0  0  0  0
   29.1168  -19.3965   -4.2115 C   0  0  0  0  0  0  0  0  0  0  0  0
   29.4056  -20.6801   -4.6565 C   0  0  0  0  0  0  0  0  0  0  0  0
   28.8715  -21.0837   -5.8626 C   0  0  0  0  0  0  0  0  0  0  0  0
   28.0793  -20.2356   -6.5925 C   0  0  0  0  0  0  0  0  0  0  0  0
   24.9997  -20.8583   -9.1373 C   0  0  0  0  0  0  0  0  0  0  0  0
   24.3937  -19.7142   -9.5871 O   0  0  0  0  0  0  0  0  0  0  0  0
   24.4072  -21.4910   -8.2071 O   0  0  0  0  0  0  0  0  0  0  0  0
  1  2  1  0
  2  3  1  0
  3  4  2  0
  5  3  1  0
  5  6  1  0
  6 13  1  0
  6  7  1  6
  8  7  1  0
  9  8  2  0
 10  9  1  0
 11 10  1  0
 11 12  2  0
 12  8  1  0
 13 14  2  0
 15 16  1  0
 15 13  1  0
 16 27  1  0
 16 17  1  1
 18 17  1  0
 18 19  2  0
 20 19  1  0
 21 20  1  0
 22 21  2  0
 23 22  1  0
 24 23  2  0
 24 25  1  0
 25 26  2  0
 26 21  1  0
 26 18  1  0
 27 29  2  0
 27 28  1  0
M  END
$$$$
