GHW.pdb
     RDKit          3D

 29 31  0  0  1  0  0  0  0  0999 V2000
   26.7077  -22.8556  -16.5699 N   0  0  0  0  0  0  0  0  0  0  0  0
   25.7101  -23.1210  -15.5888 C   0  0  0  0  0  0  0  0  0  0  0  0
   25.7104  -22.0869  -14.4818 C   0  0  0  0  0  0  0  0  0  0  0  0
   26.7547  -21.6121  -14.0361 O   0  0  0  0  0  0  0  0  0  0  0  0
   24.4527  -21.6889  -13.9802 N   0  0  0  0  0  0  0  0  0  0  0  0
   24.2594  -20.7082  -12.9837 C   0  0  1  0  0  0  0  0  0  0  0  0
   22.9103  -20.0162  -12.9428 C   0  0  0  0  0  0  0  0  0  0  0  0
   22.6535  -19.1762  -14.1291 C   0  0  0  0  0  0  0  0  0  0  0  0
   23.5366  -18.8979  -15.1717 C   0  0  0  0  0  0  0  0  0  0  0  0
   22.9043  -18.0973  -16.0444 N   0  0  0  0  0  0  0  0  0  0  0  0
   21.6665  -17.8606  -15.5976 C   0  0  0  0  0  0  0  0  0  0  0  0
   21.5384  -18.5246  -14.4363 N   0  0  0  0  0  0  0  0  0  0  0  0
   24.7279  -20.9895  -11.6379 C   0  0  0  0  0  0  0  0  0  0  0  0
   24.3688  -22.1183  -11.1474 O   0  0  0  0  0  0  0  0  0  0  0  0
   25.5275  -20.1402  -10.8448 N   0  0  0  0  0  0  0  0  0  0  0  0
   26.0261  -20.5822   -9.5466 C   0  0  1  0  0  0  0  0  0  0  0  0
   27.2000  -19.7367   -9.1186 C   0  0  0  0  0  0  0  0  0  0  0  0
   27.7192  -20.2430   -7.8338 C   0  0  0  0  0  0  0  0  0  0  0  0
   27.8918  -21.6171   -7.6058 C   0  0  0  0  0  0  0  0  0  0  0  0
   28.4183  -21.7244   -6.3838 N   0  0  0  0  0  0  0  0  0  0  0  0
   28.5842  -20.5126   -5.8364 C   0  0  0  0  0  0  0  0  0  0  0  0
   29.0635  -20.0569   -4.6283 C   0  0  0  0  0  0  0  0  0  0  0  0
   29.1039  -18.7164   -4.3314 C   0  0  0  0  0  0  0  0  0  0  0  0
   28.6597  -17.7691   -5.2450 C   0  0  0  0  0  0  0  0  0  0  0  0
   28.1778  -18.2146   -6.4583 C   0  0  0  0  0  0  0  0  0  0  0  0
   28.1434  -19.5548   -6.7447 C   0  0  0  0  0  0  0  0  0  0  0  0
   24.9585  -20.7441   -8.5618 C   0  0  0  0  0  0  0  0  0  0  0  0
   24.9101  -21.7916   -7.6792 O   0  0  0  0  0  0  0  0  0  0  0  0
   24.0127  -19.8970   -8.4957 O   0  0  0  0  0  0  0  0  0  0  0  0
  1  2  1  0
  2  3  1  0
  3  4  2  0
  5  3  1  0
  5  6  1  0
  6 13  1  0
  6  7  1  1
  8  7  1  0
  9  8  2  0
 10  9  1  0
 11 10  1  0
 11 12  2  0
 12  8  1  0
 13 14  2  0
 15 16  1  0
 15 13  1  0
 16 27  1  0
 16 17  1  1
 18 17  1  0
 18 19  2  0
 20 19  1  0
 21 20  1  0
 22 21  2  0
 23 22  1  0
 24 23  2  0
 24 25  1  0
 25 26  2  0
 26 21  1  0
 26 18  1  0
 27 29  2  0
 27 28  1  0
M  END
$$$$
