LFC.pdb
     RDKit          3D

 26 26  0  0  1  0  0  0  0  0999 V2000
    9.8599  -21.2771   20.5847 C   0  0  0  0  0  0  0  0  0  0  0  0
    9.6765  -19.8302   20.1889 C   0  0  1  0  0  0  0  0  0  0  0  0
    8.3287  -19.6242   19.5301 C   0  0  0  0  0  0  0  0  0  0  0  0
    9.8198  -18.8922   21.3737 C   0  0  0  0  0  0  0  0  0  0  0  0
    9.5964  -17.4906   20.8421 C   0  0  2  0  0  0  0  0  0  0  0  0
   10.6499  -17.1960   19.8925 N   0  0  0  0  0  0  0  0  0  0  0  0
    9.5916  -16.4754   21.8908 C   0  0  0  0  0  0  0  0  0  0  0  0
   10.6752  -15.9624   22.2702 O   0  0  0  0  0  0  0  0  0  0  0  0
    8.4152  -16.0038   22.5406 N   0  0  0  0  0  0  0  0  0  0  0  0
    8.4470  -15.0767   23.6451 C   0  0  1  0  0  0  0  0  0  0  0  0
    7.1259  -14.3582   23.8191 C   0  0  0  0  0  0  0  0  0  0  0  0
    7.1368  -13.4537   24.9875 C   0  0  0  0  0  0  0  0  0  0  0  0
    6.3029  -13.7218   26.0500 C   0  0  0  0  0  0  0  0  0  0  0  0
    6.2507  -12.9316   27.1753 C   0  0  0  0  0  0  0  0  0  0  0  0
    7.0533  -11.8157   27.2784 C   0  0  0  0  0  0  0  0  0  0  0  0
    7.8966  -11.5262   26.2281 C   0  0  0  0  0  0  0  0  0  0  0  0
    7.9371  -12.3314   25.1028 C   0  0  0  0  0  0  0  0  0  0  0  0
    8.7294  -15.7835   24.9168 C   0  0  0  0  0  0  0  0  0  0  0  0
    7.9614  -16.7076   25.2698 O   0  0  0  0  0  0  0  0  0  0  0  0
    9.8275  -15.4644   25.7544 N   0  0  0  0  0  0  0  0  0  0  0  0
   10.0447  -16.2498   26.9587 C   0  0  1  0  0  0  0  0  0  0  0  0
   11.4039  -16.9422   26.8049 C   0  0  0  0  0  0  0  0  0  0  0  0
   11.3403  -17.9889   25.3217 S   0  0  0  0  0  0  0  0  0  0  0  0
   10.1662  -15.3632   28.1386 C   0  0  0  0  0  0  0  0  0  0  0  0
   10.3305  -15.8488   29.4188 O   0  0  0  0  0  0  0  0  0  0  0  0
   10.1173  -14.1197   27.9630 O   0  0  0  0  0  0  0  0  0  0  0  0
  2  1  1  1
  2  4  1  0
  3  2  1  0
  4  5  1  0
  5  6  1  6
  7  9  1  0
  7  5  1  0
  8  7  2  0
 10  9  1  0
 11 12  1  0
 10 11  1  1
 12 13  2  0
 12 17  1  0
 13 14  1  0
 14 15  2  0
 16 15  1  0
 17 16  2  0
 18 20  1  0
 18 10  1  0
 19 18  2  0
 21 20  1  0
 21 24  1  0
 22 23  1  0
 21 22  1  6
 24 25  1  0
 26 24  2  0
M  END
$$$$
