LFC.pdb
     RDKit          3D

 26 26  0  0  1  0  0  0  0  0999 V2000
    7.1928  -12.1988   18.8501 C   0  0  0  0  0  0  0  0  0  0  0  0
    7.5507  -13.6081   19.2615 C   0  0  1  0  0  0  0  0  0  0  0  0
    7.8782  -14.4513   18.0470 C   0  0  0  0  0  0  0  0  0  0  0  0
    8.7115  -13.6397   20.2391 C   0  0  0  0  0  0  0  0  0  0  0  0
    8.7376  -15.0347   20.8308 C   0  0  2  0  0  0  0  0  0  0  0  0
    7.3709  -15.5014   20.9443 N   0  0  0  0  0  0  0  0  0  0  0  0
    9.3781  -15.0880   22.1413 C   0  0  0  0  0  0  0  0  0  0  0  0
   10.5983  -14.8054   22.2534 O   0  0  0  0  0  0  0  0  0  0  0  0
    8.7064  -15.4472   23.3448 N   0  0  0  0  0  0  0  0  0  0  0  0
    9.3548  -15.4544   24.6331 C   0  0  1  0  0  0  0  0  0  0  0  0
    8.3821  -15.1697   25.7578 C   0  0  0  0  0  0  0  0  0  0  0  0
    9.0677  -15.0172   27.0579 C   0  0  0  0  0  0  0  0  0  0  0  0
    9.4209  -13.7567   27.4852 C   0  0  0  0  0  0  0  0  0  0  0  0
   10.0611  -13.5266   28.6813 C   0  0  0  0  0  0  0  0  0  0  0  0
   10.3783  -14.5789   29.5131 C   0  0  0  0  0  0  0  0  0  0  0  0
   10.0353  -15.8501   29.1076 C   0  0  0  0  0  0  0  0  0  0  0  0
    9.3913  -16.0647   27.9012 C   0  0  0  0  0  0  0  0  0  0  0  0
    9.9635  -16.7774   24.9080 C   0  0  0  0  0  0  0  0  0  0  0  0
    9.2584  -17.8017   24.7601 O   0  0  0  0  0  0  0  0  0  0  0  0
   11.3066  -16.9406   25.3307 N   0  0  0  0  0  0  0  0  0  0  0  0
   11.8342  -18.2858   25.4928 C   0  0  1  0  0  0  0  0  0  0  0  0
   13.0694  -18.3961   24.5915 C   0  0  0  0  0  0  0  0  0  0  0  0
   13.8072  -20.0370   24.8420 S   0  0  0  0  0  0  0  0  0  0  0  0
   12.3169  -18.4878   26.8783 C   0  0  0  0  0  0  0  0  0  0  0  0
   12.3190  -17.4790   27.8185 O   0  0  0  0  0  0  0  0  0  0  0  0
   12.7406  -19.6244   27.2068 O   0  0  0  0  0  0  0  0  0  0  0  0
  2  1  1  6
  2  4  1  0
  3  2  1  0
  4  5  1  0
  5  6  1  1
  7  9  1  0
  7  5  1  0
  8  7  2  0
 10  9  1  0
 11 12  1  0
 10 11  1  1
 12 13  2  0
 12 17  1  0
 13 14  1  0
 14 15  2  0
 16 15  1  0
 17 16  2  0
 18 20  1  0
 18 10  1  0
 19 18  2  0
 21 20  1  0
 21 24  1  0
 22 23  1  0
 21 22  1  6
 24 25  1  0
 26 24  2  0
M  END
$$$$
