LFC.pdb
     RDKit          3D

 26 26  0  0  1  0  0  0  0  0999 V2000
   10.5130  -17.1533   16.8949 C   0  0  0  0  0  0  0  0  0  0  0  0
   10.3960  -17.7096   18.2951 C   0  0  1  0  0  0  0  0  0  0  0  0
   11.3962  -18.8259   18.5109 C   0  0  0  0  0  0  0  0  0  0  0  0
   10.5844  -16.6371   19.3527 C   0  0  0  0  0  0  0  0  0  0  0  0
   10.3782  -17.3139   20.6930 C   0  0  2  0  0  0  0  0  0  0  0  0
    9.2172  -18.1739   20.5893 N   0  0  0  0  0  0  0  0  0  0  0  0
   10.1841  -16.3677   21.7873 C   0  0  0  0  0  0  0  0  0  0  0  0
   11.0991  -15.5579   22.0842 O   0  0  0  0  0  0  0  0  0  0  0  0
    8.9985  -16.2868   22.5725 N   0  0  0  0  0  0  0  0  0  0  0  0
    8.8238  -15.3249   23.6329 C   0  0  1  0  0  0  0  0  0  0  0  0
    7.3634  -15.0068   23.8735 C   0  0  0  0  0  0  0  0  0  0  0  0
    7.1867  -13.9546   24.8959 C   0  0  0  0  0  0  0  0  0  0  0  0
    6.4870  -14.2479   26.0451 C   0  0  0  0  0  0  0  0  0  0  0  0
    6.2767  -13.3273   27.0460 C   0  0  0  0  0  0  0  0  0  0  0  0
    6.7731  -12.0469   26.9276 C   0  0  0  0  0  0  0  0  0  0  0  0
    7.4769  -11.7289   25.7867 C   0  0  0  0  0  0  0  0  0  0  0  0
    7.6797  -12.6667   24.7889 C   0  0  0  0  0  0  0  0  0  0  0  0
    9.3728  -15.8428   24.9083 C   0  0  0  0  0  0  0  0  0  0  0  0
    9.3136  -17.0743   25.1278 O   0  0  0  0  0  0  0  0  0  0  0  0
    9.9626  -15.0116   25.8935 N   0  0  0  0  0  0  0  0  0  0  0  0
   10.7924  -15.6193   26.9212 C   0  0  1  0  0  0  0  0  0  0  0  0
   11.3689  -14.4779   27.7669 C   0  0  0  0  0  0  0  0  0  0  0  0
    9.9832  -13.4915   28.4047 S   0  0  0  0  0  0  0  0  0  0  0  0
    9.9637  -16.4334   27.8397 C   0  0  0  0  0  0  0  0  0  0  0  0
   10.5087  -17.2124   28.8386 O   0  0  0  0  0  0  0  0  0  0  0  0
    8.7149  -16.4113   27.7007 O   0  0  0  0  0  0  0  0  0  0  0  0
  2  1  1  6
  2  4  1  0
  3  2  1  0
  4  5  1  0
  5  6  1  6
  7  9  1  0
  7  5  1  0
  8  7  2  0
 10  9  1  0
 11 12  1  0
 10 11  1  1
 12 13  2  0
 12 17  1  0
 13 14  1  0
 14 15  2  0
 16 15  1  0
 17 16  2  0
 18 20  1  0
 18 10  1  0
 19 18  2  0
 21 20  1  0
 21 24  1  0
 22 23  1  0
 21 22  1  1
 24 25  1  0
 26 24  2  0
M  END
$$$$
