LFC.pdb
     RDKit          3D

 26 26  0  0  1  0  0  0  0  0999 V2000
   10.5673  -17.4707   17.1606 C   0  0  0  0  0  0  0  0  0  0  0  0
   10.0351  -17.9322   18.4975 C   0  0  1  0  0  0  0  0  0  0  0  0
   10.6233  -19.2769   18.8705 C   0  0  0  0  0  0  0  0  0  0  0  0
   10.3107  -16.9255   19.5997 C   0  0  0  0  0  0  0  0  0  0  0  0
    9.6866  -17.4874   20.8613 C   0  0  2  0  0  0  0  0  0  0  0  0
    8.3239  -17.8728   20.5565 N   0  0  0  0  0  0  0  0  0  0  0  0
    9.6851  -16.5382   21.9701 C   0  0  0  0  0  0  0  0  0  0  0  0
   10.7751  -16.1314   22.4472 O   0  0  0  0  0  0  0  0  0  0  0  0
    8.5051  -16.0184   22.5751 N   0  0  0  0  0  0  0  0  0  0  0  0
    8.5324  -15.1094   23.6946 C   0  0  1  0  0  0  0  0  0  0  0  0
    7.2129  -14.3884   23.8705 C   0  0  0  0  0  0  0  0  0  0  0  0
    7.2133  -13.5150   25.0624 C   0  0  0  0  0  0  0  0  0  0  0  0
    6.3905  -13.8267   26.1217 C   0  0  0  0  0  0  0  0  0  0  0  0
    6.3298  -13.0676   27.2678 C   0  0  0  0  0  0  0  0  0  0  0  0
    7.1119  -11.9399   27.3963 C   0  0  0  0  0  0  0  0  0  0  0  0
    7.9437  -11.6070   26.3498 C   0  0  0  0  0  0  0  0  0  0  0  0
    7.9931  -12.3813   25.2034 C   0  0  0  0  0  0  0  0  0  0  0  0
    8.8026  -15.8377   24.9568 C   0  0  0  0  0  0  0  0  0  0  0  0
    8.1129  -16.8486   25.2225 O   0  0  0  0  0  0  0  0  0  0  0  0
    9.8049  -15.4457   25.8794 N   0  0  0  0  0  0  0  0  0  0  0  0
   10.0996  -16.3134   27.0082 C   0  0  1  0  0  0  0  0  0  0  0  0
   11.3995  -17.0558   26.6773 C   0  0  0  0  0  0  0  0  0  0  0  0
   12.6545  -15.8234   26.2237 S   0  0  0  0  0  0  0  0  0  0  0  0
   10.3827  -15.5083   28.2185 C   0  0  0  0  0  0  0  0  0  0  0  0
   10.6362  -16.0793   29.4478 O   0  0  0  0  0  0  0  0  0  0  0  0
   10.3915  -14.2556   28.1178 O   0  0  0  0  0  0  0  0  0  0  0  0
  2  1  1  6
  2  4  1  0
  3  2  1  0
  4  5  1  0
  5  6  1  6
  7  9  1  0
  7  5  1  0
  8  7  2  0
 10  9  1  0
 11 12  1  0
 10 11  1  1
 12 13  2  0
 12 17  1  0
 13 14  1  0
 14 15  2  0
 16 15  1  0
 17 16  2  0
 18 20  1  0
 18 10  1  0
 19 18  2  0
 21 20  1  0
 21 24  1  0
 22 23  1  0
 21 22  1  6
 24 25  1  0
 26 24  2  0
M  END
$$$$
