LFC.pdb
     RDKit          3D

 26 26  0  0  1  0  0  0  0  0999 V2000
    7.9121  -15.8744   16.8059 C   0  0  0  0  0  0  0  0  0  0  0  0
    9.0758  -16.4168   17.6029 C   0  0  1  0  0  0  0  0  0  0  0  0
   10.3301  -16.4574   16.7553 C   0  0  0  0  0  0  0  0  0  0  0  0
    9.3308  -15.6087   18.8623 C   0  0  0  0  0  0  0  0  0  0  0  0
    9.1228  -16.5535   20.0290 C   0  0  2  0  0  0  0  0  0  0  0  0
    7.8135  -17.1577   19.8913 N   0  0  0  0  0  0  0  0  0  0  0  0
    9.2162  -15.8899   21.3257 C   0  0  0  0  0  0  0  0  0  0  0  0
   10.2516  -15.2414   21.6237 O   0  0  0  0  0  0  0  0  0  0  0  0
    8.1913  -15.9202   22.3142 N   0  0  0  0  0  0  0  0  0  0  0  0
    8.2899  -15.2151   23.5685 C   0  0  1  0  0  0  0  0  0  0  0  0
    6.9278  -14.8793   24.1376 C   0  0  0  0  0  0  0  0  0  0  0  0
    7.0240  -14.0115   25.3297 C   0  0  0  0  0  0  0  0  0  0  0  0
    7.1755  -12.6535   25.1593 C   0  0  0  0  0  0  0  0  0  0  0  0
    7.2730  -11.7755   26.2144 C   0  0  0  0  0  0  0  0  0  0  0  0
    7.2207  -12.2394   27.5113 C   0  0  0  0  0  0  0  0  0  0  0  0
    7.0694  -13.5946   27.7079 C   0  0  0  0  0  0  0  0  0  0  0  0
    6.9729  -14.4646   26.6355 C   0  0  0  0  0  0  0  0  0  0  0  0
    8.9939  -16.0379   24.5803 C   0  0  0  0  0  0  0  0  0  0  0  0
    8.5992  -17.2101   24.7767 O   0  0  0  0  0  0  0  0  0  0  0  0
   10.0938  -15.5628   25.3379 N   0  0  0  0  0  0  0  0  0  0  0  0
   10.8135  -16.4934   26.1923 C   0  0  1  0  0  0  0  0  0  0  0  0
   12.3075  -16.1906   26.0289 C   0  0  0  0  0  0  0  0  0  0  0  0
   12.7364  -16.3913   24.2752 S   0  0  0  0  0  0  0  0  0  0  0  0
   10.4958  -16.2387   27.6162 C   0  0  0  0  0  0  0  0  0  0  0  0
   11.0401  -16.9812   28.6429 O   0  0  0  0  0  0  0  0  0  0  0  0
    9.6985  -15.3086   27.8965 O   0  0  0  0  0  0  0  0  0  0  0  0
  2  1  1  6
  2  4  1  0
  3  2  1  0
  4  5  1  0
  5  6  1  6
  7  9  1  0
  7  5  1  0
  8  7  2  0
 10  9  1  0
 11 12  1  0
 10 11  1  1
 12 13  2  0
 12 17  1  0
 13 14  1  0
 14 15  2  0
 16 15  1  0
 17 16  2  0
 18 20  1  0
 18 10  1  0
 19 18  2  0
 21 20  1  0
 21 24  1  0
 22 23  1  0
 21 22  1  1
 24 25  1  0
 26 24  2  0
M  END
$$$$
