LFC.pdb
     RDKit          3D

 26 26  0  0  1  0  0  0  0  0999 V2000
    6.9387  -18.4361   18.7376 C   0  0  0  0  0  0  0  0  0  0  0  0
    8.1964  -19.1229   19.2174 C   0  0  1  0  0  0  0  0  0  0  0  0
    9.2776  -19.0557   18.1593 C   0  0  0  0  0  0  0  0  0  0  0  0
    8.7097  -18.5303   20.5172 C   0  0  0  0  0  0  0  0  0  0  0  0
    9.0310  -17.0772   20.2301 C   0  0  2  0  0  0  0  0  0  0  0  0
   10.2732  -17.0291   19.4865 N   0  0  0  0  0  0  0  0  0  0  0  0
    9.1588  -16.2702   21.4397 C   0  0  0  0  0  0  0  0  0  0  0  0
   10.2438  -16.2628   22.0753 O   0  0  0  0  0  0  0  0  0  0  0  0
    8.1150  -15.4626   21.9751 N   0  0  0  0  0  0  0  0  0  0  0  0
    8.2239  -14.7759   23.2387 C   0  0  1  0  0  0  0  0  0  0  0  0
    7.0092  -13.9184   23.5235 C   0  0  0  0  0  0  0  0  0  0  0  0
    7.0667  -13.3047   24.8664 C   0  0  0  0  0  0  0  0  0  0  0  0
    8.0124  -12.3365   25.1206 C   0  0  0  0  0  0  0  0  0  0  0  0
    8.1341  -11.7150   26.3422 C   0  0  0  0  0  0  0  0  0  0  0  0
    7.2904  -12.0505   27.3794 C   0  0  0  0  0  0  0  0  0  0  0  0
    6.3356  -13.0167   27.1498 C   0  0  0  0  0  0  0  0  0  0  0  0
    6.2262  -13.6325   25.9149 C   0  0  0  0  0  0  0  0  0  0  0  0
    8.3451  -15.7439   24.3544 C   0  0  0  0  0  0  0  0  0  0  0  0
    7.4180  -16.5661   24.5352 O   0  0  0  0  0  0  0  0  0  0  0  0
    9.4604  -15.7849   25.2283 N   0  0  0  0  0  0  0  0  0  0  0  0
    9.5706  -16.8814   26.1768 C   0  0  1  0  0  0  0  0  0  0  0  0
   10.6463  -17.8332   25.6407 C   0  0  0  0  0  0  0  0  0  0  0  0
   10.9558  -19.1039   26.9015 S   0  0  0  0  0  0  0  0  0  0  0  0
   10.0708  -16.3883   27.4805 C   0  0  0  0  0  0  0  0  0  0  0  0
   10.4389  -15.0753   27.6864 O   0  0  0  0  0  0  0  0  0  0  0  0
   10.1622  -17.2008   28.4349 O   0  0  0  0  0  0  0  0  0  0  0  0
  2  1  1  6
  2  4  1  0
  3  2  1  0
  4  5  1  0
  5  6  1  1
  7  9  1  0
  7  5  1  0
  8  7  2  0
 10  9  1  0
 11 12  1  0
 10 11  1  1
 12 13  2  0
 12 17  1  0
 13 14  1  0
 14 15  2  0
 16 15  1  0
 17 16  2  0
 18 20  1  0
 18 10  1  0
 19 18  2  0
 21 20  1  0
 21 24  1  0
 22 23  1  0
 21 22  1  6
 24 25  1  0
 26 24  2  0
M  END
$$$$
