LFC.pdb
     RDKit          3D

 26 26  0  0  1  0  0  0  0  0999 V2000
    6.6186  -12.8713   20.2456 C   0  0  0  0  0  0  0  0  0  0  0  0
    7.7462  -13.3841   19.3802 C   0  0  1  0  0  0  0  0  0  0  0  0
    8.0373  -12.4149   18.2537 C   0  0  0  0  0  0  0  0  0  0  0  0
    9.0103  -13.6376   20.1815 C   0  0  0  0  0  0  0  0  0  0  0  0
    8.8374  -14.9913   20.8409 C   0  0  2  0  0  0  0  0  0  0  0  0
    7.4192  -15.2291   21.0157 N   0  0  0  0  0  0  0  0  0  0  0  0
    9.5078  -15.0872   22.1339 C   0  0  0  0  0  0  0  0  0  0  0  0
   10.7436  -14.8696   22.2157 O   0  0  0  0  0  0  0  0  0  0  0  0
    8.8494  -15.4195   23.3523 N   0  0  0  0  0  0  0  0  0  0  0  0
    9.5246  -15.4479   24.6265 C   0  0  1  0  0  0  0  0  0  0  0  0
    8.5580  -15.3022   25.7825 C   0  0  0  0  0  0  0  0  0  0  0  0
    9.2566  -15.0583   27.0616 C   0  0  0  0  0  0  0  0  0  0  0  0
    9.4710  -16.1136   27.9197 C   0  0  0  0  0  0  0  0  0  0  0  0
   10.1126  -15.9735   29.1289 C   0  0  0  0  0  0  0  0  0  0  0  0
   10.5740  -14.7386   29.5315 C   0  0  0  0  0  0  0  0  0  0  0  0
   10.3715  -13.6667   28.6900 C   0  0  0  0  0  0  0  0  0  0  0  0
    9.7242  -13.8245   27.4766 C   0  0  0  0  0  0  0  0  0  0  0  0
   10.2384  -16.7330   24.8148 C   0  0  0  0  0  0  0  0  0  0  0  0
    9.5622  -17.7810   24.9273 O   0  0  0  0  0  0  0  0  0  0  0  0
   11.6510  -16.8344   24.8738 N   0  0  0  0  0  0  0  0  0  0  0  0
   12.2573  -18.1511   24.9875 C   0  0  1  0  0  0  0  0  0  0  0  0
   13.1270  -18.3548   23.7416 C   0  0  0  0  0  0  0  0  0  0  0  0
   12.0271  -18.6572   22.3279 S   0  0  0  0  0  0  0  0  0  0  0  0
   13.1802  -18.1965   26.1449 C   0  0  0  0  0  0  0  0  0  0  0  0
   13.4073  -17.1053   26.9569 O   0  0  0  0  0  0  0  0  0  0  0  0
   13.7783  -19.2733   26.3941 O   0  0  0  0  0  0  0  0  0  0  0  0
  2  1  1  1
  2  4  1  0
  3  2  1  0
  4  5  1  0
  5  6  1  1
  7  9  1  0
  7  5  1  0
  8  7  2  0
 10  9  1  0
 11 12  1  0
 10 11  1  1
 12 13  2  0
 12 17  1  0
 13 14  1  0
 14 15  2  0
 16 15  1  0
 17 16  2  0
 18 20  1  0
 18 10  1  0
 19 18  2  0
 21 20  1  0
 21 24  1  0
 22 23  1  0
 21 22  1  6
 24 25  1  0
 26 24  2  0
M  END
$$$$
