LFC.pdb
     RDKit          3D

 26 26  0  0  1  0  0  0  0  0999 V2000
    7.5314  -13.2424   16.7324 C   0  0  0  0  0  0  0  0  0  0  0  0
    7.9492  -14.4186   17.5842 C   0  0  1  0  0  0  0  0  0  0  0  0
    8.7630  -15.4036   16.7713 C   0  0  0  0  0  0  0  0  0  0  0  0
    8.7364  -13.9858   18.8078 C   0  0  0  0  0  0  0  0  0  0  0  0
    8.8962  -15.2187   19.6747 C   0  0  2  0  0  0  0  0  0  0  0  0
    7.7064  -16.0314   19.5254 N   0  0  0  0  0  0  0  0  0  0  0  0
    9.0937  -14.9035   21.0861 C   0  0  0  0  0  0  0  0  0  0  0  0
   10.1413  -14.3138   21.4550 O   0  0  0  0  0  0  0  0  0  0  0  0
    8.1608  -15.2224   22.1139 N   0  0  0  0  0  0  0  0  0  0  0  0
    8.3521  -14.8435   23.4924 C   0  0  1  0  0  0  0  0  0  0  0  0
    7.0421  -14.7778   24.2483 C   0  0  0  0  0  0  0  0  0  0  0  0
    7.1415  -13.9333   25.4568 C   0  0  0  0  0  0  0  0  0  0  0  0
    6.3598  -14.2334   26.5500 C   0  0  0  0  0  0  0  0  0  0  0  0
    6.3907  -13.4993   27.7134 C   0  0  0  0  0  0  0  0  0  0  0  0
    7.2280  -12.4101   27.8255 C   0  0  0  0  0  0  0  0  0  0  0  0
    8.0203  -12.0895   26.7450 C   0  0  0  0  0  0  0  0  0  0  0  0
    7.9773  -12.8383   25.5815 C   0  0  0  0  0  0  0  0  0  0  0  0
    9.2108  -15.8270   24.1936 C   0  0  0  0  0  0  0  0  0  0  0  0
   10.0347  -16.4877   23.5205 O   0  0  0  0  0  0  0  0  0  0  0  0
    9.1455  -16.0569   25.5908 N   0  0  0  0  0  0  0  0  0  0  0  0
   10.0432  -17.0340   26.1854 C   0  0  1  0  0  0  0  0  0  0  0  0
   11.4716  -16.5171   25.9781 C   0  0  0  0  0  0  0  0  0  0  0  0
   11.8932  -16.7099   24.2218 S   0  0  0  0  0  0  0  0  0  0  0  0
    9.8383  -17.0994   27.6506 C   0  0  0  0  0  0  0  0  0  0  0  0
    8.8432  -16.3935   28.2936 O   0  0  0  0  0  0  0  0  0  0  0  0
   10.6029  -17.8276   28.3320 O   0  0  0  0  0  0  0  0  0  0  0  0
  2  1  1  6
  2  4  1  0
  3  2  1  0
  4  5  1  0
  5  6  1  1
  7  9  1  0
  7  5  1  0
  8  7  2  0
 10  9  1  0
 11 12  1  0
 10 11  1  1
 12 13  2  0
 12 17  1  0
 13 14  1  0
 14 15  2  0
 16 15  1  0
 17 16  2  0
 18 20  1  0
 18 10  1  0
 19 18  2  0
 21 20  1  0
 21 24  1  0
 22 23  1  0
 21 22  1  1
 24 25  1  0
 26 24  2  0
M  END
$$$$
