GWI.pdb
     RDKit          3D

 27 28  0  0  1  0  0  0  0  0999 V2000
   27.7159  -22.8630  -15.1734 N   0  0  0  0  0  0  0  0  0  0  0  0
   27.9173  -21.6387  -14.4347 C   0  0  0  0  0  0  0  0  0  0  0  0
   27.1150  -21.6704  -13.1466 C   0  0  0  0  0  0  0  0  0  0  0  0
   25.9673  -22.1408  -13.2024 O   0  0  0  0  0  0  0  0  0  0  0  0
   27.6810  -21.1792  -11.9570 N   0  0  0  0  0  0  0  0  0  0  0  0
   27.0669  -20.9713  -10.6956 C   0  0  1  0  0  0  0  0  0  0  0  0
   27.9168  -20.6156   -9.5263 C   0  0  0  0  0  0  0  0  0  0  0  0
   27.1750  -20.6329   -8.2427 C   0  0  0  0  0  0  0  0  0  0  0  0
   25.8812  -21.0591   -8.0093 C   0  0  0  0  0  0  0  0  0  0  0  0
   25.6436  -20.8503   -6.7113 N   0  0  0  0  0  0  0  0  0  0  0  0
   26.7201  -20.3094   -6.0830 C   0  0  0  0  0  0  0  0  0  0  0  0
   26.9509  -19.9247   -4.7803 C   0  0  0  0  0  0  0  0  0  0  0  0
   28.1533  -19.3908   -4.4058 C   0  0  0  0  0  0  0  0  0  0  0  0
   29.1545  -19.2397   -5.3740 C   0  0  0  0  0  0  0  0  0  0  0  0
   28.9474  -19.6189   -6.6865 C   0  0  0  0  0  0  0  0  0  0  0  0
   27.7133  -20.1583   -7.0349 C   0  0  0  0  0  0  0  0  0  0  0  0
   25.7892  -20.2451  -10.8065 C   0  0  0  0  0  0  0  0  0  0  0  0
   25.8414  -18.9876  -10.8460 O   0  0  0  0  0  0  0  0  0  0  0  0
   22.2211  -21.8774  -14.3993 C   0  0  0  0  0  0  0  0  0  0  0  0
   22.6316  -21.6458  -12.9738 C   0  0  0  0  0  0  0  0  0  0  0  0
   23.0061  -20.2139  -12.6734 C   0  0  2  0  0  0  0  0  0  0  0  0
   24.1841  -19.8868  -13.5942 C   0  0  0  0  0  0  0  0  0  0  0  0
   23.3560  -20.0482  -11.2405 C   0  0  2  0  0  0  0  0  0  0  0  0
   24.5162  -20.8746  -10.8692 N   0  0  0  0  0  0  0  0  0  0  0  0
   22.2695  -20.4574  -10.2940 C   0  0  0  0  0  0  0  0  0  0  0  0
   21.0536  -19.7939  -10.1887 O   0  0  0  0  0  0  0  0  0  0  0  0
   22.4199  -21.4442   -9.5346 O   0  0  0  0  0  0  0  0  0  0  0  0
  2  1  1  0
  3  2  1  0
  4  3  2  0
  5  3  1  0
  6  5  1  0
  6  7  1  1
  8  7  1  0
  9  8  2  0
 10 11  1  0
 10  9  1  0
 11 16  2  0
 12 11  1  0
 12 13  2  0
 13 14  1  0
 14 15  2  0
 16  8  1  0
 16 15  1  0
 17  6  1  0
 17 18  2  0
 20 21  1  0
 20 19  1  0
 21 22  1  6
 23 21  1  0
 23 24  1  1
 24 17  1  0
 25 23  1  0
 26 25  1  0
 27 25  2  0
M  END
$$$$
