GWI.pdb
     RDKit          3D

 27 28  0  0  1  0  0  0  0  0999 V2000
   20.3211  -13.0532  -18.0489 N   0  0  0  0  0  0  0  0  0  0  0  0
   19.5612  -11.8946  -18.4557 C   0  0  0  0  0  0  0  0  0  0  0  0
   19.5281  -10.8739  -17.3329 C   0  0  0  0  0  0  0  0  0  0  0  0
   18.6929  -11.0470  -16.4307 O   0  0  0  0  0  0  0  0  0  0  0  0
   20.4226   -9.7893  -17.3463 N   0  0  0  0  0  0  0  0  0  0  0  0
   20.5642   -8.7372  -16.4056 C   0  0  1  0  0  0  0  0  0  0  0  0
   21.9243   -8.3827  -15.9149 C   0  0  0  0  0  0  0  0  0  0  0  0
   22.4636   -9.3621  -14.9413 C   0  0  0  0  0  0  0  0  0  0  0  0
   23.2956  -10.4387  -15.1842 C   0  0  0  0  0  0  0  0  0  0  0  0
   23.4803  -11.0455  -14.0083 N   0  0  0  0  0  0  0  0  0  0  0  0
   22.8106  -10.4172  -13.0068 C   0  0  0  0  0  0  0  0  0  0  0  0
   22.6952  -10.6637  -11.6561 C   0  0  0  0  0  0  0  0  0  0  0  0
   21.9347   -9.8568  -10.8551 C   0  0  0  0  0  0  0  0  0  0  0  0
   21.2696   -8.7676  -11.4329 C   0  0  0  0  0  0  0  0  0  0  0  0
   21.3706   -8.4992  -12.7845 C   0  0  0  0  0  0  0  0  0  0  0  0
   22.1517   -9.3391  -13.5717 C   0  0  0  0  0  0  0  0  0  0  0  0
   19.6685   -7.6028  -16.6936 C   0  0  0  0  0  0  0  0  0  0  0  0
   19.8427   -6.9910  -17.7804 O   0  0  0  0  0  0  0  0  0  0  0  0
   14.3032   -7.3993  -15.6624 C   0  0  0  0  0  0  0  0  0  0  0  0
   15.7479   -7.0708  -15.4190 C   0  0  0  0  0  0  0  0  0  0  0  0
   16.4343   -6.4315  -16.6027 C   0  0  2  0  0  0  0  0  0  0  0  0
   16.4153   -7.4819  -17.7158 C   0  0  0  0  0  0  0  0  0  0  0  0
   17.8153   -6.0158  -16.2521 C   0  0  2  0  0  0  0  0  0  0  0  0
   18.6324   -7.1633  -15.8252 N   0  0  0  0  0  0  0  0  0  0  0  0
   17.8915   -5.0415  -15.1169 C   0  0  0  0  0  0  0  0  0  0  0  0
   18.4927   -5.3291  -13.8981 O   0  0  0  0  0  0  0  0  0  0  0  0
   17.3988   -3.8930  -15.2246 O   0  0  0  0  0  0  0  0  0  0  0  0
  2  1  1  0
  3  2  1  0
  4  3  2  0
  5  3  1  0
  6  5  1  0
  6  7  1  6
  8  7  1  0
  9  8  2  0
 10 11  1  0
 10  9  1  0
 11 16  2  0
 12 11  1  0
 12 13  2  0
 13 14  1  0
 14 15  2  0
 16  8  1  0
 16 15  1  0
 17  6  1  0
 17 18  2  0
 20 21  1  0
 20 19  1  0
 21 22  1  6
 23 21  1  0
 23 24  1  1
 24 17  1  0
 25 23  1  0
 26 25  1  0
 27 25  2  0
M  END
$$$$
