GWI.pdb
     RDKit          3D

 27 28  0  0  1  0  0  0  0  0999 V2000
   29.3080  -21.3520  -14.0737 N   0  0  0  0  0  0  0  0  0  0  0  0
   28.7530  -20.3266  -13.2219 C   0  0  0  0  0  0  0  0  0  0  0  0
   27.6073  -20.8939  -12.4039 C   0  0  0  0  0  0  0  0  0  0  0  0
   27.0522  -21.9174  -12.8350 O   0  0  0  0  0  0  0  0  0  0  0  0
   27.2179  -20.2601  -11.2108 N   0  0  0  0  0  0  0  0  0  0  0  0
   26.1240  -20.5568  -10.3581 C   0  0  1  0  0  0  0  0  0  0  0  0
   26.2198  -20.2160   -8.9121 C   0  0  0  0  0  0  0  0  0  0  0  0
   27.5050  -20.6324   -8.3015 C   0  0  0  0  0  0  0  0  0  0  0  0
   28.4809  -21.4503   -8.8388 C   0  0  0  0  0  0  0  0  0  0  0  0
   29.4325  -21.5639   -7.9079 N   0  0  0  0  0  0  0  0  0  0  0  0
   29.1275  -20.8586   -6.7874 C   0  0  0  0  0  0  0  0  0  0  0  0
   29.7799  -20.6742   -5.5879 C   0  0  0  0  0  0  0  0  0  0  0  0
   29.2355  -19.8983   -4.6017 C   0  0  0  0  0  0  0  0  0  0  0  0
   27.9949  -19.2892   -4.8310 C   0  0  0  0  0  0  0  0  0  0  0  0
   27.3217  -19.4581   -6.0258 C   0  0  0  0  0  0  0  0  0  0  0  0
   27.9025  -20.2536   -7.0083 C   0  0  0  0  0  0  0  0  0  0  0  0
   24.8243  -20.2860  -10.9980 C   0  0  0  0  0  0  0  0  0  0  0  0
   24.5677  -19.0909  -11.3008 O   0  0  0  0  0  0  0  0  0  0  0  0
   23.9479  -22.2774  -15.5286 C   0  0  0  0  0  0  0  0  0  0  0  0
   23.8579  -21.4064  -14.3091 C   0  0  0  0  0  0  0  0  0  0  0  0
   22.7085  -21.7572  -13.3943 C   0  0  2  0  0  0  0  0  0  0  0  0
   21.4363  -21.5368  -14.2163 C   0  0  0  0  0  0  0  0  0  0  0  0
   22.7328  -20.9192  -12.1694 C   0  0  2  0  0  0  0  0  0  0  0  0
   23.8542  -21.2837  -11.2883 N   0  0  0  0  0  0  0  0  0  0  0  0
   21.5096  -21.0494  -11.3146 C   0  0  0  0  0  0  0  0  0  0  0  0
   21.3243  -22.0700  -10.3907 O   0  0  0  0  0  0  0  0  0  0  0  0
   20.5749  -20.2176  -11.4034 O   0  0  0  0  0  0  0  0  0  0  0  0
  2  1  1  0
  3  2  1  0
  4  3  2  0
  5  3  1  0
  6  5  1  0
  6  7  1  1
  8  7  1  0
  9  8  2  0
 10 11  1  0
 10  9  1  0
 11 16  2  0
 12 11  1  0
 12 13  2  0
 13 14  1  0
 14 15  2  0
 16  8  1  0
 16 15  1  0
 17  6  1  0
 17 18  2  0
 20 21  1  0
 20 19  1  0
 21 22  1  6
 23 21  1  0
 23 24  1  1
 24 17  1  0
 25 23  1  0
 26 25  1  0
 27 25  2  0
M  END
$$$$
