GWI.pdb
     RDKit          3D

 27 28  0  0  1  0  0  0  0  0999 V2000
   30.5001  -22.9409  -13.8893 N   0  0  0  0  0  0  0  0  0  0  0  0
   30.3136  -21.6087  -13.3644 C   0  0  0  0  0  0  0  0  0  0  0  0
   29.1665  -21.5972  -12.3705 C   0  0  0  0  0  0  0  0  0  0  0  0
   28.1219  -22.1818  -12.7001 O   0  0  0  0  0  0  0  0  0  0  0  0
   29.3168  -20.9418  -11.1357 N   0  0  0  0  0  0  0  0  0  0  0  0
   28.3536  -20.7244  -10.1174 C   0  0  1  0  0  0  0  0  0  0  0  0
   28.7714  -20.0498   -8.8578 C   0  0  0  0  0  0  0  0  0  0  0  0
   27.7906  -20.2146   -7.7582 C   0  0  0  0  0  0  0  0  0  0  0  0
   26.4433  -20.5083   -7.8519 C   0  0  0  0  0  0  0  0  0  0  0  0
   25.9720  -20.5202   -6.6018 N   0  0  0  0  0  0  0  0  0  0  0  0
   26.9461  -20.2500   -5.6939 C   0  0  0  0  0  0  0  0  0  0  0  0
   26.9468  -20.1513   -4.3196 C   0  0  0  0  0  0  0  0  0  0  0  0
   28.0935  -19.8561   -3.6349 C   0  0  0  0  0  0  0  0  0  0  0  0
   29.2766  -19.6538   -4.3574 C   0  0  0  0  0  0  0  0  0  0  0  0
   29.3016  -19.7483   -5.7356 C   0  0  0  0  0  0  0  0  0  0  0  0
   28.1182  -20.0498   -6.4020 C   0  0  0  0  0  0  0  0  0  0  0  0
   27.0448  -20.3194  -10.6604 C   0  0  0  0  0  0  0  0  0  0  0  0
   26.9205  -19.1240  -11.0362 O   0  0  0  0  0  0  0  0  0  0  0  0
   25.4523  -21.7208  -15.0966 C   0  0  0  0  0  0  0  0  0  0  0  0
   25.5388  -20.9629  -13.8035 C   0  0  0  0  0  0  0  0  0  0  0  0
   24.5259  -21.4010  -12.7725 C   0  0  2  0  0  0  0  0  0  0  0  0
   23.1533  -21.0991  -13.3788 C   0  0  0  0  0  0  0  0  0  0  0  0
   24.7367  -20.6882  -11.4878 C   0  0  2  0  0  0  0  0  0  0  0  0
   25.9270  -21.1893  -10.7816 N   0  0  0  0  0  0  0  0  0  0  0  0
   23.6121  -20.8427  -10.5105 C   0  0  0  0  0  0  0  0  0  0  0  0
   22.5233  -19.9821  -10.4515 O   0  0  0  0  0  0  0  0  0  0  0  0
   23.6100  -21.7828   -9.6802 O   0  0  0  0  0  0  0  0  0  0  0  0
  2  1  1  0
  3  2  1  0
  4  3  2  0
  5  3  1  0
  6  5  1  0
  6  7  1  1
  8  7  1  0
  9  8  2  0
 10 11  1  0
 10  9  1  0
 11 16  2  0
 12 11  1  0
 12 13  2  0
 13 14  1  0
 14 15  2  0
 16  8  1  0
 16 15  1  0
 17  6  1  0
 17 18  2  0
 20 21  1  0
 20 19  1  0
 21 22  1  6
 23 21  1  0
 23 24  1  1
 24 17  1  0
 25 23  1  0
 26 25  1  0
 27 25  2  0
M  END
$$$$
