GWI.pdb
     RDKit          3D

 27 28  0  0  1  0  0  0  0  0999 V2000
   21.1955  -20.7898  -10.7532 N   0  0  0  0  0  0  0  0  0  0  0  0
   21.8768  -21.0519  -11.9992 C   0  0  0  0  0  0  0  0  0  0  0  0
   23.2838  -20.4848  -11.9518 C   0  0  0  0  0  0  0  0  0  0  0  0
   23.3996  -19.2486  -11.9525 O   0  0  0  0  0  0  0  0  0  0  0  0
   24.3879  -21.3543  -11.9090 N   0  0  0  0  0  0  0  0  0  0  0  0
   25.7707  -21.0450  -11.9720 C   0  0  1  0  0  0  0  0  0  0  0  0
   26.6852  -21.6022  -10.9378 C   0  0  0  0  0  0  0  0  0  0  0  0
   26.5996  -20.8877   -9.6416 C   0  0  0  0  0  0  0  0  0  0  0  0
   25.5041  -20.2544   -9.0857 C   0  0  0  0  0  0  0  0  0  0  0  0
   25.9192  -19.7270   -7.9306 N   0  0  0  0  0  0  0  0  0  0  0  0
   27.2335  -19.9856   -7.7024 C   0  0  0  0  0  0  0  0  0  0  0  0
   28.0898  -19.6574   -6.6741 C   0  0  0  0  0  0  0  0  0  0  0  0
   29.3998  -20.0503   -6.6955 C   0  0  0  0  0  0  0  0  0  0  0  0
   29.8616  -20.7973   -7.7870 C   0  0  0  0  0  0  0  0  0  0  0  0
   29.0222  -21.1398   -8.8296 C   0  0  0  0  0  0  0  0  0  0  0  0
   27.6954  -20.7245   -8.7777 C   0  0  0  0  0  0  0  0  0  0  0  0
   26.2840  -21.0485  -13.3535 C   0  0  0  0  0  0  0  0  0  0  0  0
   25.9494  -22.0125  -14.0913 O   0  0  0  0  0  0  0  0  0  0  0  0
   27.5274  -16.3253  -15.9965 C   0  0  0  0  0  0  0  0  0  0  0  0
   26.9753  -17.6836  -15.6737 C   0  0  0  0  0  0  0  0  0  0  0  0
   27.9821  -18.7999  -15.8191 C   0  0  2  0  0  0  0  0  0  0  0  0
   28.3392  -18.8511  -17.3066 C   0  0  0  0  0  0  0  0  0  0  0  0
   27.4194  -20.0858  -15.3364 C   0  0  2  0  0  0  0  0  0  0  0  0
   27.1263  -20.0392  -13.8946 N   0  0  0  0  0  0  0  0  0  0  0  0
   28.3362  -21.2579  -15.5083 C   0  0  0  0  0  0  0  0  0  0  0  0
   29.3109  -21.6115  -14.5840 O   0  0  0  0  0  0  0  0  0  0  0  0
   28.2588  -21.9875  -16.5256 O   0  0  0  0  0  0  0  0  0  0  0  0
  2  1  1  0
  3  2  1  0
  4  3  2  0
  5  3  1  0
  6  5  1  0
  6  7  1  1
  8  7  1  0
  9  8  2  0
 10 11  1  0
 10  9  1  0
 11 16  2  0
 12 11  1  0
 12 13  2  0
 13 14  1  0
 14 15  2  0
 16  8  1  0
 16 15  1  0
 17  6  1  0
 17 18  2  0
 20 21  1  0
 20 19  1  0
 21 22  1  6
 23 21  1  0
 23 24  1  1
 24 17  1  0
 25 23  1  0
 26 25  1  0
 27 25  2  0
M  END
$$$$
