QNI.pdb
     RDKit          3D

 26 25  0  0  1  0  0  0  0  0999 V2000
   22.2081  -29.8970  -12.3930 N   0  0  0  0  0  0  0  0  0  0  0  0
   21.6526  -30.7873  -11.4043 C   0  0  0  0  0  0  0  0  0  0  0  0
   22.2788  -31.8424  -11.2239 O   0  0  0  0  0  0  0  0  0  0  0  0
   20.4308  -30.4321  -10.6896 C   0  0  0  0  0  0  0  0  0  0  0  0
   19.7957  -29.1251  -11.0305 C   0  0  0  0  0  0  0  0  0  0  0  0
   20.0850  -27.9974  -10.0866 C   0  0  2  0  0  0  0  0  0  0  0  0
   20.0385  -28.3681   -8.7253 N   0  0  0  0  0  0  0  0  0  0  0  0
   19.2286  -26.7943  -10.4266 C   0  0  0  0  0  0  0  0  0  0  0  0
   18.6587  -26.8029  -11.5385 O   0  0  0  0  0  0  0  0  0  0  0  0
   18.2482  -24.7829   -6.2175 N   0  0  0  0  0  0  0  0  0  0  0  0
   17.5645  -24.6598   -7.4499 C   0  0  0  0  0  0  0  0  0  0  0  0
   16.5377  -25.3728   -7.6486 O   0  0  0  0  0  0  0  0  0  0  0  0
   18.0717  -23.6977   -8.4748 C   0  0  0  0  0  0  0  0  0  0  0  0
   18.3464  -24.4988   -9.7362 C   0  0  2  0  0  0  0  0  0  0  0  0
   19.0704  -25.7109   -9.5472 N   0  0  0  0  0  0  0  0  0  0  0  0
   18.7756  -23.6802  -10.8820 C   0  0  0  0  0  0  0  0  0  0  0  0
   19.9153  -23.1718  -10.8524 O   0  0  0  0  0  0  0  0  0  0  0  0
   20.0867  -25.1772  -15.4322 C   0  0  0  0  0  0  0  0  0  0  0  0
   19.7339  -24.3996  -14.1852 C   0  0  0  0  0  0  0  0  0  0  0  0
   18.6069  -23.4201  -14.4166 C   0  0  2  0  0  0  0  0  0  0  0  0
   19.0222  -22.5086  -15.5573 C   0  0  0  0  0  0  0  0  0  0  0  0
   18.1916  -22.6854  -13.1781 C   0  0  2  0  0  0  0  0  0  0  0  0
   17.9547  -23.4494  -12.0081 N   0  0  0  0  0  0  0  0  0  0  0  0
   17.2435  -21.6076  -13.4247 C   0  0  0  0  0  0  0  0  0  0  0  0
   17.6439  -20.2892  -13.7209 O   0  0  0  0  0  0  0  0  0  0  0  0
   16.0160  -21.8103  -13.3830 O   0  0  0  0  0  0  0  0  0  0  0  0
  1  2  1  0
  2  3  2  0
  4  2  1  0
  4  5  1  0
  6  5  1  0
  6  7  1  1
  8  6  1  0
  8  9  2  0
 10 11  1  0
 11 13  1  0
 12 11  2  0
 14 13  1  1
 14 15  1  0
 15  8  1  0
 16 14  1  0
 17 16  2  0
 18 19  1  0
 19 20  1  0
 20 22  1  0
 20 21  1  6
 22 23  1  1
 22 24  1  0
 23 16  1  0
 24 25  1  0
 26 24  2  0
M  END
$$$$
