QNI.pdb
     RDKit          3D

 26 25  0  0  1  0  0  0  0  0999 V2000
   28.6744  -23.2066  -19.2424 N   0  0  0  0  0  0  0  0  0  0  0  0
   27.3673  -22.6355  -19.4530 C   0  0  0  0  0  0  0  0  0  0  0  0
   27.3040  -21.7529  -20.3219 O   0  0  0  0  0  0  0  0  0  0  0  0
   26.2234  -23.0929  -18.6708 C   0  0  0  0  0  0  0  0  0  0  0  0
   26.3393  -23.0203  -17.1846 C   0  0  0  0  0  0  0  0  0  0  0  0
   26.8175  -21.7107  -16.6342 C   0  0  2  0  0  0  0  0  0  0  0  0
   28.0042  -21.8109  -15.8762 N   0  0  0  0  0  0  0  0  0  0  0  0
   25.6882  -20.9974  -15.9186 C   0  0  0  0  0  0  0  0  0  0  0  0
   25.5338  -21.2584  -14.7064 O   0  0  0  0  0  0  0  0  0  0  0  0
   22.6377  -16.6548  -14.8868 N   0  0  0  0  0  0  0  0  0  0  0  0
   22.2931  -17.4078  -16.0338 C   0  0  0  0  0  0  0  0  0  0  0  0
   21.0745  -17.4817  -16.3681 O   0  0  0  0  0  0  0  0  0  0  0  0
   23.3712  -18.0900  -16.8121 C   0  0  0  0  0  0  0  0  0  0  0  0
   23.7417  -19.3484  -16.0456 C   0  0  2  0  0  0  0  0  0  0  0  0
   24.8441  -20.0830  -16.5693 N   0  0  0  0  0  0  0  0  0  0  0  0
   22.5841  -20.1581  -15.6315 C   0  0  0  0  0  0  0  0  0  0  0  0
   22.1644  -21.0349  -16.4147 O   0  0  0  0  0  0  0  0  0  0  0  0
   20.3460  -22.9875  -10.7297 C   0  0  0  0  0  0  0  0  0  0  0  0
   20.0172  -22.2771  -12.0225 C   0  0  0  0  0  0  0  0  0  0  0  0
   21.1143  -21.3333  -12.4565 C   0  0  2  0  0  0  0  0  0  0  0  0
   21.3124  -20.3215  -11.3422 C   0  0  0  0  0  0  0  0  0  0  0  0
   20.8707  -20.7124  -13.7986 C   0  0  2  0  0  0  0  0  0  0  0  0
   21.9336  -19.9848  -14.3897 N   0  0  0  0  0  0  0  0  0  0  0  0
   19.5495  -20.1154  -13.9384 C   0  0  0  0  0  0  0  0  0  0  0  0
   18.3591  -20.8660  -13.8641 O   0  0  0  0  0  0  0  0  0  0  0  0
   19.4146  -18.8934  -14.1333 O   0  0  0  0  0  0  0  0  0  0  0  0
  1  2  1  0
  2  3  2  0
  4  2  1  0
  4  5  1  0
  6  5  1  0
  6  7  1  1
  8  6  1  0
  8  9  2  0
 10 11  1  0
 11 13  1  0
 12 11  2  0
 14 13  1  6
 14 15  1  0
 15  8  1  0
 16 14  1  0
 17 16  2  0
 18 19  1  0
 19 20  1  0
 20 22  1  0
 20 21  1  1
 22 23  1  1
 22 24  1  0
 23 16  1  0
 24 25  1  0
 26 24  2  0
M  END
$$$$
