QNI.pdb
     RDKit          3D

 26 25  0  0  1  0  0  0  0  0999 V2000
   24.5302  -19.1944  -20.5893 N   0  0  0  0  0  0  0  0  0  0  0  0
   25.4599  -20.2947  -20.5260 C   0  0  0  0  0  0  0  0  0  0  0  0
   25.6515  -20.8939  -21.5947 O   0  0  0  0  0  0  0  0  0  0  0  0
   26.1068  -20.6473  -19.2662 C   0  0  0  0  0  0  0  0  0  0  0  0
   25.7795  -19.8122  -18.0732 C   0  0  0  0  0  0  0  0  0  0  0  0
   26.2748  -18.3983  -18.1153 C   0  0  2  0  0  0  0  0  0  0  0  0
   27.6751  -18.2812  -17.9794 N   0  0  0  0  0  0  0  0  0  0  0  0
   25.4883  -17.5366  -17.1482 C   0  0  0  0  0  0  0  0  0  0  0  0
   25.7730  -17.6437  -15.9363 O   0  0  0  0  0  0  0  0  0  0  0  0
   23.5798  -13.1598  -14.8318 N   0  0  0  0  0  0  0  0  0  0  0  0
   23.0483  -13.5411  -16.0863 C   0  0  0  0  0  0  0  0  0  0  0  0
   21.8492  -13.2375  -16.3554 O   0  0  0  0  0  0  0  0  0  0  0  0
   23.9126  -14.2868  -17.0507 C   0  0  0  0  0  0  0  0  0  0  0  0
   23.6791  -15.7673  -16.8011 C   0  0  2  0  0  0  0  0  0  0  0  0
   24.4827  -16.6536  -17.5742 N   0  0  0  0  0  0  0  0  0  0  0  0
   22.2586  -16.1376  -16.6915 C   0  0  0  0  0  0  0  0  0  0  0  0
   21.6669  -16.5258  -17.7199 O   0  0  0  0  0  0  0  0  0  0  0  0
   20.4314  -19.1920  -12.5140 C   0  0  0  0  0  0  0  0  0  0  0  0
   20.6241  -18.5061  -13.8468 C   0  0  0  0  0  0  0  0  0  0  0  0
   19.9348  -17.1630  -13.9086 C   0  0  2  0  0  0  0  0  0  0  0  0
   18.4603  -17.3941  -13.6309 C   0  0  0  0  0  0  0  0  0  0  0  0
   20.1990  -16.4149  -15.1802 C   0  0  2  0  0  0  0  0  0  0  0  0
   21.5424  -16.0733  -15.4757 N   0  0  0  0  0  0  0  0  0  0  0  0
   19.2123  -15.3836  -15.4707 C   0  0  0  0  0  0  0  0  0  0  0  0
   17.9340  -15.6723  -15.9892 O   0  0  0  0  0  0  0  0  0  0  0  0
   19.4623  -14.1810  -15.2693 O   0  0  0  0  0  0  0  0  0  0  0  0
  1  2  1  0
  2  3  2  0
  4  2  1  0
  4  5  1  0
  6  5  1  0
  6  7  1  1
  8  6  1  0
  8  9  2  0
 10 11  1  0
 11 13  1  0
 12 11  2  0
 14 13  1  6
 14 15  1  0
 15  8  1  0
 16 14  1  0
 17 16  2  0
 18 19  1  0
 19 20  1  0
 20 22  1  0
 20 21  1  6
 22 23  1  1
 22 24  1  0
 23 16  1  0
 24 25  1  0
 26 24  2  0
M  END
$$$$
