QNI.pdb
     RDKit          3D

 26 25  0  0  1  0  0  0  0  0999 V2000
   26.2777  -15.2841  -15.2925 N   0  0  0  0  0  0  0  0  0  0  0  0
   27.0747  -15.8642  -16.3447 C   0  0  0  0  0  0  0  0  0  0  0  0
   27.7106  -15.0575  -17.0394 O   0  0  0  0  0  0  0  0  0  0  0  0
   27.0991  -17.3095  -16.5453 C   0  0  0  0  0  0  0  0  0  0  0  0
   26.3542  -18.1484  -15.5609 C   0  0  0  0  0  0  0  0  0  0  0  0
   27.1536  -18.6424  -14.3933 C   0  0  2  0  0  0  0  0  0  0  0  0
   28.1680  -19.5592  -14.7447 N   0  0  0  0  0  0  0  0  0  0  0  0
   26.2321  -19.1349  -13.2958 C   0  0  0  0  0  0  0  0  0  0  0  0
   25.0748  -18.6642  -13.2766 O   0  0  0  0  0  0  0  0  0  0  0  0
   25.3545  -22.2291  -15.0917 N   0  0  0  0  0  0  0  0  0  0  0  0
   24.8924  -21.8698  -13.8037 C   0  0  0  0  0  0  0  0  0  0  0  0
   23.8517  -21.1554  -13.7093 O   0  0  0  0  0  0  0  0  0  0  0  0
   25.6421  -22.3410  -12.5999 C   0  0  0  0  0  0  0  0  0  0  0  0
   25.8901  -21.1219  -11.7277 C   0  0  2  0  0  0  0  0  0  0  0  0
   26.6406  -20.0752  -12.3361 N   0  0  0  0  0  0  0  0  0  0  0  0
   26.2680  -21.4457  -10.3423 C   0  0  0  0  0  0  0  0  0  0  0  0
   26.8541  -22.5264  -10.1257 O   0  0  0  0  0  0  0  0  0  0  0  0
   28.7403  -19.6431   -5.1840 C   0  0  0  0  0  0  0  0  0  0  0  0
   27.5969  -20.4172   -5.7983 C   0  0  0  0  0  0  0  0  0  0  0  0
   27.3016  -19.9820   -7.2147 C   0  0  2  0  0  0  0  0  0  0  0  0
   27.0464  -18.4857   -7.1879 C   0  0  0  0  0  0  0  0  0  0  0  0
   26.2041  -20.7695   -7.8641 C   0  0  2  0  0  0  0  0  0  0  0  0
   25.9970  -20.5867   -9.2542 N   0  0  0  0  0  0  0  0  0  0  0  0
   24.9947  -20.8663   -7.0582 C   0  0  0  0  0  0  0  0  0  0  0  0
   23.7128  -20.5710   -7.5638 O   0  0  0  0  0  0  0  0  0  0  0  0
   25.0444  -21.2205   -5.8659 O   0  0  0  0  0  0  0  0  0  0  0  0
  1  2  1  0
  2  3  2  0
  4  2  1  0
  4  5  1  0
  6  5  1  0
  6  7  1  6
  8  6  1  0
  8  9  2  0
 10 11  1  0
 11 13  1  0
 12 11  2  0
 14 13  1  6
 14 15  1  0
 15  8  1  0
 16 14  1  0
 17 16  2  0
 18 19  1  0
 19 20  1  0
 20 22  1  0
 20 21  1  1
 22 23  1  6
 22 24  1  0
 23 16  1  0
 24 25  1  0
 26 24  2  0
M  END
$$$$
