QNI.pdb
     RDKit          3D

 26 25  0  0  1  0  0  0  0  0999 V2000
   19.4494  -20.8299  -16.6779 N   0  0  0  0  0  0  0  0  0  0  0  0
   19.5467  -19.4416  -16.3011 C   0  0  0  0  0  0  0  0  0  0  0  0
   18.8146  -18.6645  -16.9321 O   0  0  0  0  0  0  0  0  0  0  0  0
   20.4617  -19.0224  -15.2443 C   0  0  0  0  0  0  0  0  0  0  0  0
   21.2749  -20.0853  -14.5837 C   0  0  0  0  0  0  0  0  0  0  0  0
   22.7571  -19.8628  -14.5843 C   0  0  2  0  0  0  0  0  0  0  0  0
   23.2747  -19.4789  -15.8403 N   0  0  0  0  0  0  0  0  0  0  0  0
   23.4670  -21.0483  -13.9622 C   0  0  0  0  0  0  0  0  0  0  0  0
   23.1843  -22.1776  -14.4159 O   0  0  0  0  0  0  0  0  0  0  0  0
   28.3418  -21.8830  -12.8867 N   0  0  0  0  0  0  0  0  0  0  0  0
   27.9604  -21.1436  -14.0309 C   0  0  0  0  0  0  0  0  0  0  0  0
   28.8260  -20.9229  -14.9277 O   0  0  0  0  0  0  0  0  0  0  0  0
   26.5554  -20.6475  -14.1464 C   0  0  0  0  0  0  0  0  0  0  0  0
   25.8019  -21.1660  -12.9332 C   0  0  2  0  0  0  0  0  0  0  0  0
   24.4015  -20.9052  -12.9237 N   0  0  0  0  0  0  0  0  0  0  0  0
   26.4951  -20.9338  -11.6555 C   0  0  0  0  0  0  0  0  0  0  0  0
   27.6489  -21.3898  -11.5166 O   0  0  0  0  0  0  0  0  0  0  0  0
   27.9513  -19.2819   -6.9370 C   0  0  0  0  0  0  0  0  0  0  0  0
   27.4150  -20.0123   -8.1466 C   0  0  0  0  0  0  0  0  0  0  0  0
   25.9162  -20.1953   -8.0913 C   0  0  2  0  0  0  0  0  0  0  0  0
   25.6098  -21.0910   -6.9045 C   0  0  0  0  0  0  0  0  0  0  0  0
   25.3266  -20.6805   -9.3810 C   0  0  2  0  0  0  0  0  0  0  0  0
   25.9111  -20.2184  -10.5867 N   0  0  0  0  0  0  0  0  0  0  0  0
   23.8715  -20.7435   -9.3746 C   0  0  0  0  0  0  0  0  0  0  0  0
   23.1464  -21.5959   -8.5179 O   0  0  0  0  0  0  0  0  0  0  0  0
   23.1948  -20.0333  -10.1409 O   0  0  0  0  0  0  0  0  0  0  0  0
  1  2  1  0
  2  3  2  0
  4  2  1  0
  4  5  1  0
  6  5  1  0
  6  7  1  6
  8  6  1  0
  8  9  2  0
 10 11  1  0
 11 13  1  0
 12 11  2  0
 14 13  1  6
 14 15  1  0
 15  8  1  0
 16 14  1  0
 17 16  2  0
 18 19  1  0
 19 20  1  0
 20 22  1  0
 20 21  1  1
 22 23  1  6
 22 24  1  0
 23 16  1  0
 24 25  1  0
 26 24  2  0
M  END
$$$$
