QNI.pdb
     RDKit          3D

 26 25  0  0  1  0  0  0  0  0999 V2000
   18.1779  -14.0971  -17.1830 N   0  0  0  0  0  0  0  0  0  0  0  0
   18.8623  -15.3659  -17.2074 C   0  0  0  0  0  0  0  0  0  0  0  0
   18.2477  -16.2936  -17.7547 O   0  0  0  0  0  0  0  0  0  0  0  0
   20.1876  -15.5051  -16.6125 C   0  0  0  0  0  0  0  0  0  0  0  0
   20.7630  -14.3044  -15.9381 C   0  0  0  0  0  0  0  0  0  0  0  0
   21.2338  -13.2115  -16.8494 C   0  0  2  0  0  0  0  0  0  0  0  0
   21.6179  -13.6642  -18.1302 N   0  0  0  0  0  0  0  0  0  0  0  0
   22.2811  -12.3636  -16.1564 C   0  0  0  0  0  0  0  0  0  0  0  0
   21.9948  -11.9292  -15.0204 O   0  0  0  0  0  0  0  0  0  0  0  0
   26.4565  -10.0157  -14.8712 N   0  0  0  0  0  0  0  0  0  0  0  0
   26.9382  -10.8229  -15.9285 C   0  0  0  0  0  0  0  0  0  0  0  0
   28.1848  -10.8589  -16.1455 O   0  0  0  0  0  0  0  0  0  0  0  0
   25.9673  -11.6043  -16.7531 C   0  0  0  0  0  0  0  0  0  0  0  0
   24.5767  -11.2479  -16.2555 C   0  0  2  0  0  0  0  0  0  0  0  0
   23.5209  -12.0684  -16.7465 N   0  0  0  0  0  0  0  0  0  0  0  0
   24.2987   -9.8023  -16.2445 C   0  0  0  0  0  0  0  0  0  0  0  0
   25.1535   -9.0388  -15.7497 O   0  0  0  0  0  0  0  0  0  0  0  0
   20.3997   -5.7165  -19.0459 C   0  0  0  0  0  0  0  0  0  0  0  0
   21.3607   -6.0619  -17.9318 C   0  0  0  0  0  0  0  0  0  0  0  0
   21.6455   -7.5437  -17.8553 C   0  0  2  0  0  0  0  0  0  0  0  0
   20.3163   -8.2545  -17.6738 C   0  0  0  0  0  0  0  0  0  0  0  0
   22.6674   -7.9020  -16.8191 C   0  0  2  0  0  0  0  0  0  0  0  0
   23.1108   -9.2472  -16.7697 N   0  0  0  0  0  0  0  0  0  0  0  0
   22.4398   -7.2699  -15.5267 C   0  0  0  0  0  0  0  0  0  0  0  0
   22.0850   -7.9957  -14.3720 O   0  0  0  0  0  0  0  0  0  0  0  0
   22.5513   -6.0381  -15.3860 O   0  0  0  0  0  0  0  0  0  0  0  0
  1  2  1  0
  2  3  2  0
  4  2  1  0
  4  5  1  0
  6  5  1  0
  6  7  1  6
  8  6  1  0
  8  9  2  0
 10 11  1  0
 11 13  1  0
 12 11  2  0
 14 13  1  6
 14 15  1  0
 15  8  1  0
 16 14  1  0
 17 16  2  0
 18 19  1  0
 19 20  1  0
 20 22  1  0
 20 21  1  1
 22 23  1  1
 22 24  1  0
 23 16  1  0
 24 25  1  0
 26 24  2  0
M  END
$$$$
