QNI.pdb
     RDKit          3D

 26 25  0  0  1  0  0  0  0  0999 V2000
   27.9833  -16.2765  -17.1687 N   0  0  0  0  0  0  0  0  0  0  0  0
   28.4265  -17.6096  -17.4932 C   0  0  0  0  0  0  0  0  0  0  0  0
   28.9324  -17.7453  -18.6173 O   0  0  0  0  0  0  0  0  0  0  0  0
   28.2675  -18.6980  -16.5340 C   0  0  0  0  0  0  0  0  0  0  0  0
   27.7335  -18.3470  -15.1852 C   0  0  0  0  0  0  0  0  0  0  0  0
   27.6148  -19.4857  -14.2179 C   0  0  2  0  0  0  0  0  0  0  0  0
   27.1924  -20.6950  -14.8111 N   0  0  0  0  0  0  0  0  0  0  0  0
   26.7927  -19.0700  -13.0147 C   0  0  0  0  0  0  0  0  0  0  0  0
   26.0180  -18.1016  -13.1674 O   0  0  0  0  0  0  0  0  0  0  0  0
   23.8180  -20.5395   -9.2578 N   0  0  0  0  0  0  0  0  0  0  0  0
   23.5857  -20.9901  -10.5786 C   0  0  0  0  0  0  0  0  0  0  0  0
   22.4605  -21.4982  -10.8578 O   0  0  0  0  0  0  0  0  0  0  0  0
   24.6690  -20.8541  -11.5990 C   0  0  0  0  0  0  0  0  0  0  0  0
   25.8380  -20.1661  -10.9144 C   0  0  2  0  0  0  0  0  0  0  0  0
   26.8832  -19.7289  -11.7779 N   0  0  0  0  0  0  0  0  0  0  0  0
   26.2789  -20.8286   -9.6760 C   0  0  0  0  0  0  0  0  0  0  0  0
   26.2199  -22.0742   -9.6177 O   0  0  0  0  0  0  0  0  0  0  0  0
   29.4388  -19.7570   -4.3598 C   0  0  0  0  0  0  0  0  0  0  0  0
   28.3520  -20.4842   -5.1174 C   0  0  0  0  0  0  0  0  0  0  0  0
   27.9763  -19.7823   -6.4015 C   0  0  2  0  0  0  0  0  0  0  0  0
   27.5432  -18.3727   -6.0406 C   0  0  0  0  0  0  0  0  0  0  0  0
   26.9680  -20.5324   -7.2184 C   0  0  2  0  0  0  0  0  0  0  0  0
   26.7648  -20.1156   -8.5576 N   0  0  0  0  0  0  0  0  0  0  0  0
   25.7616  -20.8855   -6.4826 C   0  0  0  0  0  0  0  0  0  0  0  0
   24.4660  -20.5843   -6.9481 O   0  0  0  0  0  0  0  0  0  0  0  0
   25.8264  -21.4793   -5.3905 O   0  0  0  0  0  0  0  0  0  0  0  0
  1  2  1  0
  2  3  2  0
  4  2  1  0
  4  5  1  0
  6  5  1  0
  6  7  1  6
  8  6  1  0
  8  9  2  0
 10 11  1  0
 11 13  1  0
 12 11  2  0
 14 13  1  6
 14 15  1  0
 15  8  1  0
 16 14  1  0
 17 16  2  0
 18 19  1  0
 19 20  1  0
 20 22  1  0
 20 21  1  1
 22 23  1  6
 22 24  1  0
 23 16  1  0
 24 25  1  0
 26 24  2  0
M  END
$$$$
