QNI.pdb
     RDKit          3D

 26 25  0  0  1  0  0  0  0  0999 V2000
   13.4765  -13.4035  -15.2733 N   0  0  0  0  0  0  0  0  0  0  0  0
   12.6010  -12.9813  -14.2084 C   0  0  0  0  0  0  0  0  0  0  0  0
   11.6654  -13.7527  -13.9488 O   0  0  0  0  0  0  0  0  0  0  0  0
   12.8354  -11.7205  -13.5117 C   0  0  0  0  0  0  0  0  0  0  0  0
   13.9504  -10.8622  -14.0094 C   0  0  0  0  0  0  0  0  0  0  0  0
   15.1661  -10.8061  -13.1346 C   0  0  2  0  0  0  0  0  0  0  0  0
   14.9773  -11.3820  -11.8597 N   0  0  0  0  0  0  0  0  0  0  0  0
   15.7225   -9.3971  -13.0974 C   0  0  0  0  0  0  0  0  0  0  0  0
   15.7560   -8.7744  -14.1802 O   0  0  0  0  0  0  0  0  0  0  0  0
   15.5720   -6.5220   -8.2529 N   0  0  0  0  0  0  0  0  0  0  0  0
   16.0034   -7.2446   -9.3901 C   0  0  0  0  0  0  0  0  0  0  0  0
   16.4914   -8.4009   -9.2258 O   0  0  0  0  0  0  0  0  0  0  0  0
   15.8714   -6.6251  -10.7437 C   0  0  0  0  0  0  0  0  0  0  0  0
   16.6791   -7.4824  -11.7034 C   0  0  2  0  0  0  0  0  0  0  0  0
   16.1840   -8.8017  -11.9122 N   0  0  0  0  0  0  0  0  0  0  0  0
   18.1355   -7.3778  -11.5165 C   0  0  0  0  0  0  0  0  0  0  0  0
   18.6543   -7.9843  -10.5567 O   0  0  0  0  0  0  0  0  0  0  0  0
   22.9528   -9.4282  -13.4368 C   0  0  0  0  0  0  0  0  0  0  0  0
   22.4244   -8.0525  -13.1019 C   0  0  0  0  0  0  0  0  0  0  0  0
   20.9146   -7.9967  -13.1132 C   0  0  2  0  0  0  0  0  0  0  0  0
   20.4559   -8.3485  -14.5170 C   0  0  0  0  0  0  0  0  0  0  0  0
   20.3619   -6.6993  -12.6055 C   0  0  2  0  0  0  0  0  0  0  0  0
   18.9654   -6.6240  -12.3759 N   0  0  0  0  0  0  0  0  0  0  0  0
   20.9588   -5.5241  -13.2252 C   0  0  0  0  0  0  0  0  0  0  0  0
   22.3250   -5.2027  -13.0978 O   0  0  0  0  0  0  0  0  0  0  0  0
   20.2732   -4.7393  -13.9062 O   0  0  0  0  0  0  0  0  0  0  0  0
  1  2  1  0
  2  3  2  0
  4  2  1  0
  4  5  1  0
  6  5  1  0
  6  7  1  1
  8  6  1  0
  8  9  2  0
 10 11  1  0
 11 13  1  0
 12 11  2  0
 14 13  1  1
 14 15  1  0
 15  8  1  0
 16 14  1  0
 17 16  2  0
 18 19  1  0
 19 20  1  0
 20 22  1  0
 20 21  1  6
 22 23  1  6
 22 24  1  0
 23 16  1  0
 24 25  1  0
 26 24  2  0
M  END
$$$$
