QNI.pdb
     RDKit          3D

 26 25  0  0  1  0  0  0  0  0999 V2000
   30.5273  -23.1618  -17.9802 N   0  0  0  0  0  0  0  0  0  0  0  0
   30.1507  -21.9658  -18.6920 C   0  0  0  0  0  0  0  0  0  0  0  0
   30.9377  -21.6021  -19.5787 O   0  0  0  0  0  0  0  0  0  0  0  0
   28.9183  -21.2600  -18.3561 C   0  0  0  0  0  0  0  0  0  0  0  0
   28.0982  -21.8120  -17.2379 C   0  0  0  0  0  0  0  0  0  0  0  0
   27.7439  -20.8411  -16.1524 C   0  0  2  0  0  0  0  0  0  0  0  0
   28.8368  -20.0720  -15.6974 N   0  0  0  0  0  0  0  0  0  0  0  0
   26.9826  -21.5437  -15.0465 C   0  0  0  0  0  0  0  0  0  0  0  0
   27.6035  -22.4117  -14.3967 O   0  0  0  0  0  0  0  0  0  0  0  0
   25.1170  -21.9737  -10.2621 N   0  0  0  0  0  0  0  0  0  0  0  0
   24.9774  -20.8395  -11.0962 C   0  0  0  0  0  0  0  0  0  0  0  0
   24.1348  -19.9506  -10.7765 O   0  0  0  0  0  0  0  0  0  0  0  0
   25.8234  -20.7250  -12.3227 C   0  0  0  0  0  0  0  0  0  0  0  0
   24.9850  -21.2251  -13.4870 C   0  0  2  0  0  0  0  0  0  0  0  0
   25.6421  -21.2476  -14.7506 N   0  0  0  0  0  0  0  0  0  0  0  0
   23.6094  -20.7009  -13.5009 C   0  0  0  0  0  0  0  0  0  0  0  0
   23.4473  -19.4658  -13.5812 O   0  0  0  0  0  0  0  0  0  0  0  0
   21.0544  -22.6974  -17.3697 C   0  0  0  0  0  0  0  0  0  0  0  0
   21.5432  -21.8900  -16.1894 C   0  0  0  0  0  0  0  0  0  0  0  0
   20.5920  -21.9496  -15.0170 C   0  0  2  0  0  0  0  0  0  0  0  0
   19.2577  -21.3962  -15.4839 C   0  0  0  0  0  0  0  0  0  0  0  0
   21.1228  -21.2835  -13.7837 C   0  0  2  0  0  0  0  0  0  0  0  0
   22.4717  -21.5350  -13.4289 N   0  0  0  0  0  0  0  0  0  0  0  0
   20.1778  -21.2604  -12.6757 C   0  0  0  0  0  0  0  0  0  0  0  0
   19.3294  -20.1654  -12.4164 O   0  0  0  0  0  0  0  0  0  0  0  0
   20.0786  -22.2259  -11.8963 O   0  0  0  0  0  0  0  0  0  0  0  0
  1  2  1  0
  2  3  2  0
  4  2  1  0
  4  5  1  0
  6  5  1  0
  6  7  1  1
  8  6  1  0
  8  9  2  0
 10 11  1  0
 11 13  1  0
 12 11  2  0
 14 13  1  1
 14 15  1  0
 15  8  1  0
 16 14  1  0
 17 16  2  0
 18 19  1  0
 19 20  1  0
 20 22  1  0
 20 21  1  6
 22 23  1  1
 22 24  1  0
 23 16  1  0
 24 25  1  0
 26 24  2  0
M  END
$$$$
