QNI.pdb
     RDKit          3D

 26 25  0  0  1  0  0  0  0  0999 V2000
   17.3205  -16.2799  -14.1747 N   0  0  0  0  0  0  0  0  0  0  0  0
   16.5952  -15.3114  -14.9588 C   0  0  0  0  0  0  0  0  0  0  0  0
   15.6048  -14.8104  -14.4056 O   0  0  0  0  0  0  0  0  0  0  0  0
   17.0307  -14.9758  -16.3106 C   0  0  0  0  0  0  0  0  0  0  0  0
   17.7137  -13.6625  -16.5018 C   0  0  0  0  0  0  0  0  0  0  0  0
   17.2259  -12.8394  -17.6556 C   0  0  2  0  0  0  0  0  0  0  0  0
   17.4770  -13.4217  -18.9168 N   0  0  0  0  0  0  0  0  0  0  0  0
   17.7174  -11.4117  -17.5278 C   0  0  0  0  0  0  0  0  0  0  0  0
   18.7314  -11.1022  -18.1892 O   0  0  0  0  0  0  0  0  0  0  0  0
   18.3537   -6.6565  -16.1710 N   0  0  0  0  0  0  0  0  0  0  0  0
   16.9486   -6.7913  -16.0750 C   0  0  0  0  0  0  0  0  0  0  0  0
   16.2486   -5.7499  -15.9085 O   0  0  0  0  0  0  0  0  0  0  0  0
   16.3360   -8.1509  -16.1721 C   0  0  0  0  0  0  0  0  0  0  0  0
   17.4725   -9.1332  -16.3997 C   0  0  2  0  0  0  0  0  0  0  0  0
   17.0777  -10.4663  -16.7098 N   0  0  0  0  0  0  0  0  0  0  0  0
   18.5712   -9.0110  -15.4276 C   0  0  0  0  0  0  0  0  0  0  0  0
   18.2839   -8.9474  -14.2144 O   0  0  0  0  0  0  0  0  0  0  0  0
   23.3253  -11.6333  -16.5081 C   0  0  0  0  0  0  0  0  0  0  0  0
   22.0866  -10.9772  -15.9433 C   0  0  0  0  0  0  0  0  0  0  0  0
   22.3367   -9.5519  -15.5088 C   0  0  2  0  0  0  0  0  0  0  0  0
   23.4649   -9.5762  -14.4933 C   0  0  0  0  0  0  0  0  0  0  0  0
   21.1038   -8.8511  -15.0239 C   0  0  2  0  0  0  0  0  0  0  0  0
   19.9301   -8.9646  -15.8102 N   0  0  0  0  0  0  0  0  0  0  0  0
   21.3598   -7.5293  -14.4682 C   0  0  0  0  0  0  0  0  0  0  0  0
   21.4982   -6.3770  -15.2677 O   0  0  0  0  0  0  0  0  0  0  0  0
   21.4693   -7.3595  -13.2399 O   0  0  0  0  0  0  0  0  0  0  0  0
  1  2  1  0
  2  3  2  0
  4  2  1  0
  4  5  1  0
  6  5  1  0
  6  7  1  6
  8  6  1  0
  8  9  2  0
 10 11  1  0
 11 13  1  0
 12 11  2  0
 14 13  1  1
 14 15  1  0
 15  8  1  0
 16 14  1  0
 17 16  2  0
 18 19  1  0
 19 20  1  0
 20 22  1  0
 20 21  1  1
 22 23  1  6
 22 24  1  0
 23 16  1  0
 24 25  1  0
 26 24  2  0
M  END
$$$$
