GKM.pdb
     RDKit          3D

 22 21  0  0  1  0  0  0  0  0999 V2000
   15.3884   -6.4756   -7.3630 N   0  0  0  0  0  0  0  0  0  0  0  0
   15.3483   -6.1098   -8.7589 C   0  0  0  0  0  0  0  0  0  0  0  0
   15.8714   -7.2508   -9.5703 C   0  0  0  0  0  0  0  0  0  0  0  0
   16.7820   -8.0167   -9.1341 O   0  0  0  0  0  0  0  0  0  0  0  0
   15.3806   -7.5381  -10.8666 N   0  0  0  0  0  0  0  0  0  0  0  0
   15.9096   -8.6739  -11.6487 C   0  0  1  0  0  0  0  0  0  0  0  0
   14.6966   -9.3647  -12.2481 C   0  0  0  0  0  0  0  0  0  0  0  0
   13.9248  -10.2040  -11.2978 C   0  0  0  0  0  0  0  0  0  0  0  0
   12.7435  -10.8881  -11.9924 C   0  0  0  0  0  0  0  0  0  0  0  0
   11.9817  -11.7486  -11.0292 C   0  0  0  0  0  0  0  0  0  0  0  0
   12.7379  -12.9237  -10.6436 N   0  0  0  0  0  0  0  0  0  0  0  0
   16.8528   -8.1360  -12.6256 C   0  0  0  0  0  0  0  0  0  0  0  0
   16.6140   -7.0074  -13.1931 O   0  0  0  0  0  0  0  0  0  0  0  0
   23.0128   -4.5772  -14.7548 C   0  0  0  0  0  0  0  0  0  0  0  0
   21.8220   -5.2252  -13.5570 S   0  0  0  0  0  0  0  0  0  0  0  0
   20.7899   -6.4911  -14.3327 C   0  0  0  0  0  0  0  0  0  0  0  0
   19.8107   -7.1338  -13.4099 C   0  0  0  0  0  0  0  0  0  0  0  0
   18.9168   -8.1599  -14.0718 C   0  0  2  0  0  0  0  0  0  0  0  0
   18.0702   -8.7375  -13.0471 N   0  0  0  0  0  0  0  0  0  0  0  0
   19.6722   -9.1392  -14.8498 C   0  0  0  0  0  0  0  0  0  0  0  0
   20.2008   -8.9311  -16.1157 O   0  0  0  0  0  0  0  0  0  0  0  0
   19.8672  -10.2723  -14.3397 O   0  0  0  0  0  0  0  0  0  0  0  0
  1  2  1  0
  2  3  1  0
  3  4  2  0
  5  3  1  0
  5  6  1  0
  6  7  1  6
  8  7  1  0
  9 10  1  0
  9  8  1  0
 10 11  1  0
 12  6  1  0
 12 19  1  0
 13 12  2  0
 15 14  1  0
 16 15  1  0
 17 16  1  0
 18 19  1  0
 18 17  1  1
 20 18  1  0
 21 20  1  0
 22 20  2  0
M  END
$$$$
