GKM.pdb
     RDKit          3D

 22 21  0  0  1  0  0  0  0  0999 V2000
   19.3397  -17.5799  -14.2078 N   0  0  0  0  0  0  0  0  0  0  0  0
   20.6419  -16.9666  -14.3184 C   0  0  0  0  0  0  0  0  0  0  0  0
   21.6412  -18.0202  -14.6724 C   0  0  0  0  0  0  0  0  0  0  0  0
   21.5144  -19.2182  -14.2791 O   0  0  0  0  0  0  0  0  0  0  0  0
   22.7808  -17.7392  -15.4636 N   0  0  0  0  0  0  0  0  0  0  0  0
   23.7744  -18.7881  -15.7706 C   0  0  1  0  0  0  0  0  0  0  0  0
   24.5901  -18.2573  -16.9371 C   0  0  0  0  0  0  0  0  0  0  0  0
   24.5073  -19.0703  -18.1763 C   0  0  0  0  0  0  0  0  0  0  0  0
   23.0586  -19.2124  -18.6526 C   0  0  0  0  0  0  0  0  0  0  0  0
   22.9893  -19.9991  -19.9274 C   0  0  0  0  0  0  0  0  0  0  0  0
   22.7599  -19.1440  -21.0752 N   0  0  0  0  0  0  0  0  0  0  0  0
   24.5401  -19.0408  -14.5528 C   0  0  0  0  0  0  0  0  0  0  0  0
   24.6080  -18.1386  -13.6395 O   0  0  0  0  0  0  0  0  0  0  0  0
   22.7411  -20.5494   -9.7980 C   0  0  0  0  0  0  0  0  0  0  0  0
   24.4016  -20.9418   -9.1970 S   0  0  0  0  0  0  0  0  0  0  0  0
   25.6027  -20.7671  -10.5372 C   0  0  0  0  0  0  0  0  0  0  0  0
   24.9993  -20.4522  -11.8640 C   0  0  0  0  0  0  0  0  0  0  0  0
   25.9979  -20.3874  -12.9992 C   0  0  2  0  0  0  0  0  0  0  0  0
   25.2561  -20.2271  -14.2338 N   0  0  0  0  0  0  0  0  0  0  0  0
   26.9213  -21.5199  -12.9955 C   0  0  0  0  0  0  0  0  0  0  0  0
   28.0166  -21.6663  -12.1564 O   0  0  0  0  0  0  0  0  0  0  0  0
   26.7171  -22.4486  -13.8188 O   0  0  0  0  0  0  0  0  0  0  0  0
  1  2  1  0
  2  3  1  0
  3  4  2  0
  5  3  1  0
  5  6  1  0
  6  7  1  6
  8  7  1  0
  9 10  1  0
  9  8  1  0
 10 11  1  0
 12  6  1  0
 12 19  1  0
 13 12  2  0
 15 14  1  0
 16 15  1  0
 17 16  1  0
 18 19  1  0
 18 17  1  1
 20 18  1  0
 21 20  1  0
 22 20  2  0
M  END
$$$$
