GKM.pdb
     RDKit          3D

 22 21  0  0  1  0  0  0  0  0999 V2000
   27.8489  -22.8483  -15.6296 N   0  0  0  0  0  0  0  0  0  0  0  0
   27.6585  -21.5761  -14.9745 C   0  0  0  0  0  0  0  0  0  0  0  0
   26.5261  -21.6983  -14.0066 C   0  0  0  0  0  0  0  0  0  0  0  0
   25.5870  -22.5312  -14.1811 O   0  0  0  0  0  0  0  0  0  0  0  0
   26.4401  -20.8933  -12.8454 N   0  0  0  0  0  0  0  0  0  0  0  0
   25.2517  -20.9413  -11.9697 C   0  0  1  0  0  0  0  0  0  0  0  0
   25.6349  -20.1845  -10.7094 C   0  0  0  0  0  0  0  0  0  0  0  0
   24.5205  -19.9580   -9.7556 C   0  0  0  0  0  0  0  0  0  0  0  0
   24.2228  -21.2187   -8.9383 C   0  0  0  0  0  0  0  0  0  0  0  0
   23.0932  -20.9815   -7.9810 C   0  0  0  0  0  0  0  0  0  0  0  0
   22.8214  -22.1514   -7.1694 N   0  0  0  0  0  0  0  0  0  0  0  0
   24.1326  -20.3672  -12.7122 C   0  0  0  0  0  0  0  0  0  0  0  0
   24.2676  -19.2305  -13.2976 O   0  0  0  0  0  0  0  0  0  0  0  0
   21.2337  -21.8754  -18.1136 C   0  0  0  0  0  0  0  0  0  0  0  0
   19.8205  -21.6995  -16.9979 S   0  0  0  0  0  0  0  0  0  0  0  0
   20.2663  -20.6500  -15.5946 C   0  0  0  0  0  0  0  0  0  0  0  0
   21.3826  -21.1820  -14.7614 C   0  0  0  0  0  0  0  0  0  0  0  0
   21.7790  -20.2838  -13.6098 C   0  0  2  0  0  0  0  0  0  0  0  0
   22.8432  -20.9426  -12.8794 N   0  0  0  0  0  0  0  0  0  0  0  0
   20.6362  -19.8949  -12.7865 C   0  0  0  0  0  0  0  0  0  0  0  0
   19.7520  -18.8632  -13.0675 O   0  0  0  0  0  0  0  0  0  0  0  0
   20.4246  -20.5429  -11.7294 O   0  0  0  0  0  0  0  0  0  0  0  0
  1  2  1  0
  2  3  1  0
  3  4  2  0
  5  3  1  0
  5  6  1  0
  6  7  1  1
  8  7  1  0
  9 10  1  0
  9  8  1  0
 10 11  1  0
 12  6  1  0
 12 19  1  0
 13 12  2  0
 15 14  1  0
 16 15  1  0
 17 16  1  0
 18 19  1  0
 18 17  1  6
 20 18  1  0
 21 20  1  0
 22 20  2  0
M  END
$$$$
