GKM.pdb
     RDKit          3D

 22 21  0  0  1  0  0  0  0  0999 V2000
   14.8165  -12.7157  -13.6834 N   0  0  0  0  0  0  0  0  0  0  0  0
   16.1378  -12.6945  -14.2646 C   0  0  0  0  0  0  0  0  0  0  0  0
   16.8773  -11.5086  -13.7347 C   0  0  0  0  0  0  0  0  0  0  0  0
   17.2868  -11.4594  -12.5364 O   0  0  0  0  0  0  0  0  0  0  0  0
   17.1602  -10.3787  -14.5390 N   0  0  0  0  0  0  0  0  0  0  0  0
   17.9732   -9.2587  -14.0230 C   0  0  1  0  0  0  0  0  0  0  0  0
   18.6201   -8.6210  -15.2407 C   0  0  0  0  0  0  0  0  0  0  0  0
   19.7490   -9.3904  -15.8212 C   0  0  0  0  0  0  0  0  0  0  0  0
   20.4136   -8.6232  -16.9681 C   0  0  0  0  0  0  0  0  0  0  0  0
   21.5952   -9.3766  -17.5019 C   0  0  0  0  0  0  0  0  0  0  0  0
   22.2690   -8.6438  -18.5556 N   0  0  0  0  0  0  0  0  0  0  0  0
   17.0841   -8.3779  -13.2702 C   0  0  0  0  0  0  0  0  0  0  0  0
   15.8598   -8.2377  -13.6367 O   0  0  0  0  0  0  0  0  0  0  0  0
   13.9636   -6.1771   -6.5861 C   0  0  0  0  0  0  0  0  0  0  0  0
   15.2541   -7.0958   -7.4597 S   0  0  0  0  0  0  0  0  0  0  0  0
   15.3899   -6.5046   -9.1630 C   0  0  0  0  0  0  0  0  0  0  0  0
   16.3439   -7.2801  -10.0069 C   0  0  0  0  0  0  0  0  0  0  0  0
   16.4686   -6.7727  -11.4271 C   0  0  2  0  0  0  0  0  0  0  0  0
   17.4226   -7.6173  -12.1176 N   0  0  0  0  0  0  0  0  0  0  0  0
   16.7771   -5.3456  -11.4849 C   0  0  0  0  0  0  0  0  0  0  0  0
   15.8659   -4.3144  -11.3076 O   0  0  0  0  0  0  0  0  0  0  0  0
   17.9672   -5.0095  -11.7144 O   0  0  0  0  0  0  0  0  0  0  0  0
  1  2  1  0
  2  3  1  0
  3  4  2  0
  5  3  1  0
  5  6  1  0
  6  7  1  6
  8  7  1  0
  9 10  1  0
  9  8  1  0
 10 11  1  0
 12  6  1  0
 12 19  1  0
 13 12  2  0
 15 14  1  0
 16 15  1  0
 17 16  1  0
 18 19  1  0
 18 17  1  1
 20 18  1  0
 21 20  1  0
 22 20  2  0
M  END
$$$$
