GKM.pdb
     RDKit          3D

 22 21  0  0  1  0  0  0  0  0999 V2000
   25.6932  -16.6528  -17.2678 N   0  0  0  0  0  0  0  0  0  0  0  0
   26.2446  -16.3317  -15.9728 C   0  0  0  0  0  0  0  0  0  0  0  0
   25.5839  -17.1897  -14.9426 C   0  0  0  0  0  0  0  0  0  0  0  0
   25.5771  -16.8724  -13.7157 O   0  0  0  0  0  0  0  0  0  0  0  0
   24.9314  -18.4000  -15.2791 N   0  0  0  0  0  0  0  0  0  0  0  0
   24.2191  -19.1929  -14.2566 C   0  0  1  0  0  0  0  0  0  0  0  0
   23.2986  -20.1268  -15.0237 C   0  0  0  0  0  0  0  0  0  0  0  0
   22.5044  -21.0524  -14.1777 C   0  0  0  0  0  0  0  0  0  0  0  0
   21.1328  -20.4599  -13.8410 C   0  0  0  0  0  0  0  0  0  0  0  0
   20.3633  -21.3733  -12.9342 C   0  0  0  0  0  0  0  0  0  0  0  0
   19.4774  -20.6366  -12.0546 N   0  0  0  0  0  0  0  0  0  0  0  0
   25.2257  -19.8624  -13.4369 C   0  0  0  0  0  0  0  0  0  0  0  0
   26.2136  -20.4635  -13.9987 O   0  0  0  0  0  0  0  0  0  0  0  0
   26.4042  -18.5993   -7.1624 C   0  0  0  0  0  0  0  0  0  0  0  0
   27.1524  -20.2452   -7.2275 S   0  0  0  0  0  0  0  0  0  0  0  0
   27.1950  -20.8389   -8.9349 C   0  0  0  0  0  0  0  0  0  0  0  0
   26.1756  -20.2150   -9.8265 C   0  0  0  0  0  0  0  0  0  0  0  0
   26.3070  -20.6017  -11.2837 C   0  0  2  0  0  0  0  0  0  0  0  0
   25.2512  -19.9328  -12.0170 N   0  0  0  0  0  0  0  0  0  0  0  0
   26.3477  -22.0497  -11.4752 C   0  0  0  0  0  0  0  0  0  0  0  0
   27.4907  -22.8359  -11.4519 O   0  0  0  0  0  0  0  0  0  0  0  0
   25.2599  -22.6472  -11.6797 O   0  0  0  0  0  0  0  0  0  0  0  0
  1  2  1  0
  2  3  1  0
  3  4  2  0
  5  3  1  0
  5  6  1  0
  6  7  1  6
  8  7  1  0
  9 10  1  0
  9  8  1  0
 10 11  1  0
 12  6  1  0
 12 19  1  0
 13 12  2  0
 15 14  1  0
 16 15  1  0
 17 16  1  0
 18 19  1  0
 18 17  1  1
 20 18  1  0
 21 20  1  0
 22 20  2  0
M  END
$$$$
