GKM.pdb
     RDKit          3D

 22 21  0  0  1  0  0  0  0  0999 V2000
   28.0972  -17.6355  -17.5432 N   0  0  0  0  0  0  0  0  0  0  0  0
   28.7371  -17.8196  -16.2623 C   0  0  0  0  0  0  0  0  0  0  0  0
   27.6862  -18.0881  -15.2339 C   0  0  0  0  0  0  0  0  0  0  0  0
   27.2431  -17.1719  -14.4787 O   0  0  0  0  0  0  0  0  0  0  0  0
   27.1298  -19.3762  -15.0469 N   0  0  0  0  0  0  0  0  0  0  0  0
   26.0019  -19.5929  -14.1183 C   0  0  1  0  0  0  0  0  0  0  0  0
   25.0327  -20.5060  -14.8496 C   0  0  0  0  0  0  0  0  0  0  0  0
   25.4051  -21.9428  -14.8433 C   0  0  0  0  0  0  0  0  0  0  0  0
   24.4256  -22.7751  -15.6762 C   0  0  0  0  0  0  0  0  0  0  0  0
   24.8509  -24.2122  -15.7243 C   0  0  0  0  0  0  0  0  0  0  0  0
   23.9117  -25.0264  -16.4701 N   0  0  0  0  0  0  0  0  0  0  0  0
   26.5482  -20.1450  -12.8814 C   0  0  0  0  0  0  0  0  0  0  0  0
   27.4627  -21.0472  -12.9311 O   0  0  0  0  0  0  0  0  0  0  0  0
   28.4661  -18.2659   -6.9119 C   0  0  0  0  0  0  0  0  0  0  0  0
   27.1803  -19.4703   -6.5011 S   0  0  0  0  0  0  0  0  0  0  0  0
   26.8327  -20.5178   -7.9333 C   0  0  0  0  0  0  0  0  0  0  0  0
   26.6198  -19.7677   -9.2042 C   0  0  0  0  0  0  0  0  0  0  0  0
   26.4075  -20.6491  -10.4159 C   0  0  2  0  0  0  0  0  0  0  0  0
   26.1758  -19.7862  -11.5569 N   0  0  0  0  0  0  0  0  0  0  0  0
   25.3679  -21.6530  -10.2005 C   0  0  0  0  0  0  0  0  0  0  0  0
   24.0070  -21.4602  -10.3905 O   0  0  0  0  0  0  0  0  0  0  0  0
   25.7236  -22.7942   -9.8092 O   0  0  0  0  0  0  0  0  0  0  0  0
  1  2  1  0
  2  3  1  0
  3  4  2  0
  5  3  1  0
  5  6  1  0
  6  7  1  6
  8  7  1  0
  9 10  1  0
  9  8  1  0
 10 11  1  0
 12  6  1  0
 12 19  1  0
 13 12  2  0
 15 14  1  0
 16 15  1  0
 17 16  1  0
 18 19  1  0
 18 17  1  1
 20 18  1  0
 21 20  1  0
 22 20  2  0
M  END
$$$$
