MVI.pdb
     RDKit          3D

 24 23  0  0  1  0  0  0  0  0999 V2000
   21.6238  -19.7873  -10.3391 C   0  0  0  0  0  0  0  0  0  0  0  0
   22.5994  -20.4011   -8.9625 S   0  0  0  0  0  0  0  0  0  0  0  0
   24.1544  -21.1267   -9.4601 C   0  0  0  0  0  0  0  0  0  0  0  0
   24.8003  -20.3017  -10.5120 C   0  0  0  0  0  0  0  0  0  0  0  0
   25.9387  -20.9030  -11.2512 C   0  0  2  0  0  0  0  0  0  0  0  0
   26.9837  -21.4784  -10.4581 N   0  0  0  0  0  0  0  0  0  0  0  0
   26.5656  -19.9193  -12.1920 C   0  0  0  0  0  0  0  0  0  0  0  0
   27.2297  -18.9324  -11.7718 O   0  0  0  0  0  0  0  0  0  0  0  0
   27.2836  -20.9549  -16.2895 C   0  0  0  0  0  0  0  0  0  0  0  0
   27.9622  -19.8853  -15.4836 C   0  0  1  0  0  0  0  0  0  0  0  0
   28.6053  -18.9268  -16.4987 C   0  0  0  0  0  0  0  0  0  0  0  0
   27.0761  -19.1329  -14.5360 C   0  0  2  0  0  0  0  0  0  0  0  0
   26.4388  -20.0588  -13.5891 N   0  0  0  0  0  0  0  0  0  0  0  0
   26.0443  -18.3350  -15.2371 C   0  0  0  0  0  0  0  0  0  0  0  0
   24.9450  -18.8980  -15.6018 O   0  0  0  0  0  0  0  0  0  0  0  0
   22.3647  -14.0449  -15.5228 C   0  0  0  0  0  0  0  0  0  0  0  0
   23.5918  -14.2236  -16.3896 C   0  0  0  0  0  0  0  0  0  0  0  0
   24.6699  -14.9773  -15.6665 C   0  0  2  0  0  0  0  0  0  0  0  0
   25.8967  -14.1346  -15.4186 C   0  0  0  0  0  0  0  0  0  0  0  0
   25.0285  -16.2872  -16.2901 C   0  0  2  0  0  0  0  0  0  0  0  0
   26.1100  -16.9709  -15.5721 N   0  0  0  0  0  0  0  0  0  0  0  0
   25.4615  -16.1500  -17.6946 C   0  0  0  0  0  0  0  0  0  0  0  0
   24.5973  -16.1141  -18.6039 O   0  0  0  0  0  0  0  0  0  0  0  0
   26.7991  -16.0574  -18.0675 O   0  0  0  0  0  0  0  0  0  0  0  0
  1  2  1  0
  3  2  1  0
  4  3  1  0
  5  6  1  1
  5  4  1  0
  7  5  1  0
  8  7  2  0
 10  9  1  6
 10 12  1  0
 11 10  1  0
 12 14  1  0
 12 13  1  1
 13  7  1  0
 14 15  2  0
 16 17  1  0
 18 17  1  0
 18 19  1  6
 18 20  1  0
 20 22  1  0
 20 21  1  1
 21 14  1  0
 22 23  2  0
 22 24  1  0
M  END
$$$$
