MVI.pdb
     RDKit          3D

 24 23  0  0  1  0  0  0  0  0999 V2000
   19.1046  -20.9300  -11.2669 C   0  0  0  0  0  0  0  0  0  0  0  0
   19.4824  -19.5586  -12.3624 S   0  0  0  0  0  0  0  0  0  0  0  0
   21.1553  -19.5886  -12.9891 C   0  0  0  0  0  0  0  0  0  0  0  0
   22.0568  -20.2786  -12.0321 C   0  0  0  0  0  0  0  0  0  0  0  0
   23.5098  -20.2762  -12.3366 C   0  0  2  0  0  0  0  0  0  0  0  0
   23.9003  -20.8368  -13.5956 N   0  0  0  0  0  0  0  0  0  0  0  0
   24.2984  -20.9638  -11.2638 C   0  0  0  0  0  0  0  0  0  0  0  0
   24.0336  -22.1425  -10.9003 O   0  0  0  0  0  0  0  0  0  0  0  0
   27.3287  -22.1783  -11.7501 C   0  0  0  0  0  0  0  0  0  0  0  0
   27.5479  -21.4093  -10.4793 C   0  0  1  0  0  0  0  0  0  0  0  0
   28.3446  -20.1541  -10.8697 C   0  0  0  0  0  0  0  0  0  0  0  0
   26.3036  -21.0327   -9.7315 C   0  0  2  0  0  0  0  0  0  0  0  0
   25.3724  -20.3192  -10.6169 N   0  0  0  0  0  0  0  0  0  0  0  0
   26.5894  -20.2142   -8.5310 C   0  0  0  0  0  0  0  0  0  0  0  0
   26.1823  -18.9934   -8.4828 O   0  0  0  0  0  0  0  0  0  0  0  0
   28.4530  -20.3226   -2.5845 C   0  0  0  0  0  0  0  0  0  0  0  0
   27.8529  -19.5699   -3.7518 C   0  0  0  0  0  0  0  0  0  0  0  0
   27.7016  -20.4537   -4.9557 C   0  0  2  0  0  0  0  0  0  0  0  0
   28.8148  -21.4655   -5.0727 C   0  0  0  0  0  0  0  0  0  0  0  0
   27.5026  -19.7151   -6.2395 C   0  0  2  0  0  0  0  0  0  0  0  0
   27.2814  -20.6173   -7.3751 N   0  0  0  0  0  0  0  0  0  0  0  0
   28.6522  -18.8569   -6.5870 C   0  0  0  0  0  0  0  0  0  0  0  0
   29.4506  -19.2302   -7.4804 O   0  0  0  0  0  0  0  0  0  0  0  0
   28.8998  -17.6368   -5.9649 O   0  0  0  0  0  0  0  0  0  0  0  0
  1  2  1  0
  3  2  1  0
  4  3  1  0
  5  6  1  6
  5  4  1  0
  7  5  1  0
  8  7  2  0
 10  9  1  6
 10 12  1  0
 11 10  1  0
 12 14  1  0
 12 13  1  6
 13  7  1  0
 14 15  2  0
 16 17  1  0
 18 17  1  0
 18 19  1  6
 18 20  1  0
 20 22  1  0
 20 21  1  6
 21 14  1  0
 22 23  2  0
 22 24  1  0
M  END
$$$$
