TDR.pdb
     RDKit          3D

 27 26  0  0  1  0  0  0  0  0999 V2000
   21.0097   -9.4064  -19.7225 C   0  0  0  0  0  0  0  0  0  0  0  0
   19.8737  -10.3742  -19.5516 C   0  0  1  0  0  0  0  0  0  0  0  0
   19.9515  -11.3324  -20.5537 O   0  0  0  0  0  0  0  0  0  0  0  0
   19.9101  -11.0339  -18.1667 C   0  0  2  0  0  0  0  0  0  0  0  0
   18.8635  -12.0178  -18.0630 N   0  0  0  0  0  0  0  0  0  0  0  0
   19.7354   -9.9166  -17.1983 C   0  0  0  0  0  0  0  0  0  0  0  0
   18.5907   -9.4216  -17.0723 O   0  0  0  0  0  0  0  0  0  0  0  0
   20.7854   -9.3896  -16.4198 N   0  0  0  0  0  0  0  0  0  0  0  0
   20.7051   -8.2190  -15.5774 C   0  0  1  0  0  0  0  0  0  0  0  0
   21.0930   -8.6332  -14.1813 C   0  0  0  0  0  0  0  0  0  0  0  0
   20.9140   -7.4785  -13.2717 C   0  0  0  0  0  0  0  0  0  0  0  0
   21.9006   -6.9832  -12.6756 O   0  0  0  0  0  0  0  0  0  0  0  0
   21.4497   -7.0697  -16.1129 C   0  0  0  0  0  0  0  0  0  0  0  0
   22.6443   -7.2123  -16.4867 O   0  0  0  0  0  0  0  0  0  0  0  0
   19.6668   -6.8879  -13.0287 O   0  0  0  0  0  0  0  0  0  0  0  0
   19.3917    0.3379  -20.4527 N   0  0  0  0  0  0  0  0  0  0  0  0
   19.0902   -0.9987  -20.1247 C   0  0  0  0  0  0  0  0  0  0  0  0
   17.9561   -1.5264  -20.4614 N   0  0  0  0  0  0  0  0  0  0  0  0
   20.0150   -1.8059  -19.4168 N   0  0  0  0  0  0  0  0  0  0  0  0
   20.9069   -1.2648  -18.4253 C   0  0  0  0  0  0  0  0  0  0  0  0
   21.7241   -2.4063  -17.8685 C   0  0  0  0  0  0  0  0  0  0  0  0
   20.8541   -3.5224  -17.3394 C   0  0  0  0  0  0  0  0  0  0  0  0
   21.6777   -4.6153  -16.7342 C   0  0  2  0  0  0  0  0  0  0  0  0
   20.9141   -5.7483  -16.2494 N   0  0  0  0  0  0  0  0  0  0  0  0
   22.5691   -4.0847  -15.6502 C   0  0  0  0  0  0  0  0  0  0  0  0
   23.4746   -3.2592  -15.9899 O   0  0  0  0  0  0  0  0  0  0  0  0
   22.4870   -4.4158  -14.3323 O   0  0  0  0  0  0  0  0  0  0  0  0
  2  1  1  1
  2  3  1  0
  4  2  1  0
  4  5  1  6
  6  4  1  0
  6  7  2  0
  8  6  1  0
  9  8  1  0
  9 10  1  1
 10 11  1  0
 11 12  2  0
 13  9  1  0
 14 13  2  0
 15 11  1  0
 17 18  2  0
 17 16  1  0
 19 17  1  0
 20 19  1  0
 21 20  1  0
 22 21  1  0
 23 22  1  1
 23 24  1  0
 24 13  1  0
 25 23  1  0
 26 25  2  0
 27 25  1  0
M  END
$$$$
