TDR.pdb
     RDKit          3D

 27 26  0  0  1  0  0  0  0  0999 V2000
   14.4561  -15.9052    3.3751 C   0  0  0  0  0  0  0  0  0  0  0  0
   15.6279  -15.1131    2.8692 C   0  0  1  0  0  0  0  0  0  0  0  0
   15.3482  -13.7610    3.0184 O   0  0  0  0  0  0  0  0  0  0  0  0
   16.9146  -15.4863    3.6171 C   0  0  2  0  0  0  0  0  0  0  0  0
   17.9836  -14.6033    3.2276 N   0  0  0  0  0  0  0  0  0  0  0  0
   17.1850  -16.9022    3.2447 C   0  0  0  0  0  0  0  0  0  0  0  0
   17.9206  -17.1189    2.2531 O   0  0  0  0  0  0  0  0  0  0  0  0
   16.6593  -18.0058    3.9461 N   0  0  0  0  0  0  0  0  0  0  0  0
   16.9702  -19.3931    3.6905 C   0  0  1  0  0  0  0  0  0  0  0  0
   17.1725  -20.0689    5.0222 C   0  0  0  0  0  0  0  0  0  0  0  0
   17.7295  -21.4217    4.7934 C   0  0  0  0  0  0  0  0  0  0  0  0
   17.9156  -21.8406    3.6256 O   0  0  0  0  0  0  0  0  0  0  0  0
   15.9983  -20.0489    2.8033 C   0  0  0  0  0  0  0  0  0  0  0  0
   14.7666  -19.9817    3.0594 O   0  0  0  0  0  0  0  0  0  0  0  0
   18.0711  -22.2903    5.8385 O   0  0  0  0  0  0  0  0  0  0  0  0
   15.0197  -23.7369   -4.0662 N   0  0  0  0  0  0  0  0  0  0  0  0
   16.1696  -24.3720   -3.5567 C   0  0  0  0  0  0  0  0  0  0  0  0
   17.2107  -24.5612   -4.3038 N   0  0  0  0  0  0  0  0  0  0  0  0
   16.2231  -24.8240   -2.2148 N   0  0  0  0  0  0  0  0  0  0  0  0
   15.1405  -24.6163   -1.2894 C   0  0  0  0  0  0  0  0  0  0  0  0
   15.0307  -23.1318   -1.0343 C   0  0  0  0  0  0  0  0  0  0  0  0
   15.9665  -22.6727    0.0593 C   0  0  0  0  0  0  0  0  0  0  0  0
   15.3856  -21.5285    0.8290 C   0  0  2  0  0  0  0  0  0  0  0  0
   16.3443  -20.7900    1.6273 N   0  0  0  0  0  0  0  0  0  0  0  0
   14.2341  -21.9773    1.6797 C   0  0  0  0  0  0  0  0  0  0  0  0
   14.4942  -22.7523    2.6537 O   0  0  0  0  0  0  0  0  0  0  0  0
   12.9332  -21.6223    1.4929 O   0  0  0  0  0  0  0  0  0  0  0  0
  2  1  1  1
  2  3  1  0
  4  2  1  0
  4  5  1  6
  6  4  1  0
  6  7  2  0
  8  6  1  0
  9  8  1  0
  9 10  1  1
 10 11  1  0
 11 12  2  0
 13  9  1  0
 14 13  2  0
 15 11  1  0
 17 18  2  0
 17 16  1  0
 19 17  1  0
 20 19  1  0
 21 20  1  0
 22 21  1  0
 23 22  1  1
 23 24  1  0
 24 13  1  0
 25 23  1  0
 26 25  2  0
 27 25  1  0
M  END
$$$$
