TDR.pdb
     RDKit          3D

 27 26  0  0  1  0  0  0  0  0999 V2000
   22.4337  -11.9736  -14.5643 C   0  0  0  0  0  0  0  0  0  0  0  0
   23.7119  -11.4123  -15.1189 C   0  0  1  0  0  0  0  0  0  0  0  0
   24.4957  -12.4623  -15.5793 O   0  0  0  0  0  0  0  0  0  0  0  0
   23.4346  -10.4082  -16.2454 C   0  0  2  0  0  0  0  0  0  0  0  0
   24.6769   -9.9370  -16.8011 N   0  0  0  0  0  0  0  0  0  0  0  0
   22.6482   -9.3160  -15.6089 C   0  0  0  0  0  0  0  0  0  0  0  0
   23.2626   -8.4874  -14.8967 O   0  0  0  0  0  0  0  0  0  0  0  0
   21.2555   -9.1663  -15.7652 N   0  0  0  0  0  0  0  0  0  0  0  0
   20.4390   -8.1588  -15.1289 C   0  0  1  0  0  0  0  0  0  0  0  0
   20.3861   -6.9658  -16.0483 C   0  0  0  0  0  0  0  0  0  0  0  0
   19.5790   -5.9025  -15.4075 C   0  0  0  0  0  0  0  0  0  0  0  0
   19.7073   -5.6613  -14.1831 O   0  0  0  0  0  0  0  0  0  0  0  0
   19.1291   -8.6662  -14.6949 C   0  0  0  0  0  0  0  0  0  0  0  0
   18.3711   -9.2404  -15.5213 O   0  0  0  0  0  0  0  0  0  0  0  0
   18.6493   -5.1253  -16.1109 O   0  0  0  0  0  0  0  0  0  0  0  0
   14.3524   -7.9485   -7.2529 N   0  0  0  0  0  0  0  0  0  0  0  0
   14.6075   -7.1934   -8.4148 C   0  0  0  0  0  0  0  0  0  0  0  0
   14.4007   -5.9148   -8.4355 N   0  0  0  0  0  0  0  0  0  0  0  0
   15.0958   -7.8072   -9.5949 N   0  0  0  0  0  0  0  0  0  0  0  0
   15.3187   -9.2259   -9.6884 C   0  0  0  0  0  0  0  0  0  0  0  0
   15.7186   -9.5368  -11.1112 C   0  0  0  0  0  0  0  0  0  0  0  0
   16.9777   -8.8084  -11.5193 C   0  0  0  0  0  0  0  0  0  0  0  0
   17.3458   -9.1091  -12.9382 C   0  0  2  0  0  0  0  0  0  0  0  0
   18.6181   -8.5575  -13.3612 N   0  0  0  0  0  0  0  0  0  0  0  0
   16.2562   -8.6900  -13.8807 C   0  0  0  0  0  0  0  0  0  0  0  0
   16.1633   -7.4513  -14.1528 O   0  0  0  0  0  0  0  0  0  0  0  0
   15.3588   -9.5285  -14.4677 O   0  0  0  0  0  0  0  0  0  0  0  0
  2  1  1  6
  2  3  1  0
  4  2  1  0
  4  5  1  1
  6  4  1  0
  6  7  2  0
  8  6  1  0
  9  8  1  0
  9 10  1  6
 10 11  1  0
 11 12  2  0
 13  9  1  0
 14 13  2  0
 15 11  1  0
 17 18  2  0
 17 16  1  0
 19 17  1  0
 20 19  1  0
 21 20  1  0
 22 21  1  0
 23 22  1  1
 23 24  1  0
 24 13  1  0
 25 23  1  0
 26 25  2  0
 27 25  1  0
M  END
$$$$
