TDR.pdb
     RDKit          3D

 27 26  0  0  1  0  0  0  0  0999 V2000
   22.0855  -10.3380  -18.2106 C   0  0  0  0  0  0  0  0  0  0  0  0
   23.0141  -10.7347  -17.0986 C   0  0  1  0  0  0  0  0  0  0  0  0
   23.9579  -11.6203  -17.6022 O   0  0  0  0  0  0  0  0  0  0  0  0
   23.6974   -9.5073  -16.4815 C   0  0  2  0  0  0  0  0  0  0  0  0
   24.7226   -9.9261  -15.5607 N   0  0  0  0  0  0  0  0  0  0  0  0
   22.6059   -8.7510  -15.8085 C   0  0  0  0  0  0  0  0  0  0  0  0
   21.9191   -9.3506  -14.9483 O   0  0  0  0  0  0  0  0  0  0  0  0
   22.3065   -7.4022  -16.0871 N   0  0  0  0  0  0  0  0  0  0  0  0
   21.2429   -6.6327  -15.4845 C   0  0  1  0  0  0  0  0  0  0  0  0
   21.7372   -5.2181  -15.3233 C   0  0  0  0  0  0  0  0  0  0  0  0
   22.6175   -5.1507  -14.1346 C   0  0  0  0  0  0  0  0  0  0  0  0
   22.3893   -5.8749  -13.1358 O   0  0  0  0  0  0  0  0  0  0  0  0
   19.9613   -6.7650  -16.1929 C   0  0  0  0  0  0  0  0  0  0  0  0
   19.9260   -6.6897  -17.4500 O   0  0  0  0  0  0  0  0  0  0  0  0
   23.7258   -4.2971  -14.0564 O   0  0  0  0  0  0  0  0  0  0  0  0
   12.7587  -11.9640  -16.4634 N   0  0  0  0  0  0  0  0  0  0  0  0
   12.5788  -10.8537  -17.3120 C   0  0  0  0  0  0  0  0  0  0  0  0
   11.5556  -10.7803  -18.1030 N   0  0  0  0  0  0  0  0  0  0  0  0
   13.5098   -9.7856  -17.3282 N   0  0  0  0  0  0  0  0  0  0  0  0
   14.6944   -9.7852  -16.5110 C   0  0  0  0  0  0  0  0  0  0  0  0
   15.4822   -8.5399  -16.8419 C   0  0  0  0  0  0  0  0  0  0  0  0
   16.7444   -8.4308  -16.0189 C   0  0  0  0  0  0  0  0  0  0  0  0
   17.4471   -7.1334  -16.2679 C   0  0  2  0  0  0  0  0  0  0  0  0
   18.6981   -6.9778  -15.5519 N   0  0  0  0  0  0  0  0  0  0  0  0
   16.5428   -5.9672  -15.9976 C   0  0  0  0  0  0  0  0  0  0  0  0
   16.7574   -5.2940  -14.9403 O   0  0  0  0  0  0  0  0  0  0  0  0
   15.5108   -5.5716  -16.7923 O   0  0  0  0  0  0  0  0  0  0  0  0
  2  1  1  6
  2  3  1  0
  4  2  1  0
  4  5  1  1
  6  4  1  0
  6  7  2  0
  8  6  1  0
  9  8  1  0
  9 10  1  6
 10 11  1  0
 11 12  2  0
 13  9  1  0
 14 13  2  0
 15 11  1  0
 17 18  2  0
 17 16  1  0
 19 17  1  0
 20 19  1  0
 21 20  1  0
 22 21  1  0
 23 22  1  1
 23 24  1  0
 24 13  1  0
 25 23  1  0
 26 25  2  0
 27 25  1  0
M  END
$$$$
