TDR.pdb
     RDKit          3D

 27 26  0  0  1  0  0  0  0  0999 V2000
   34.8300  -13.1448  -19.5250 C   0  0  0  0  0  0  0  0  0  0  0  0
   34.5012  -11.8287  -18.8798 C   0  0  1  0  0  0  0  0  0  0  0  0
   33.6848  -11.1044  -19.7385 O   0  0  0  0  0  0  0  0  0  0  0  0
   33.8155  -12.0319  -17.5224 C   0  0  2  0  0  0  0  0  0  0  0  0
   32.5474  -12.6895  -17.7054 N   0  0  0  0  0  0  0  0  0  0  0  0
   33.6677  -10.6646  -16.9520 C   0  0  0  0  0  0  0  0  0  0  0  0
   32.5086  -10.2086  -16.8113 O   0  0  0  0  0  0  0  0  0  0  0  0
   34.7583   -9.8607  -16.5639 N   0  0  0  0  0  0  0  0  0  0  0  0
   34.6680   -8.5671  -15.9277 C   0  0  1  0  0  0  0  0  0  0  0  0
   35.9939   -8.2889  -15.2674 C   0  0  0  0  0  0  0  0  0  0  0  0
   36.0960   -9.1039  -14.0354 C   0  0  0  0  0  0  0  0  0  0  0  0
   35.1305   -9.1679  -13.2368 O   0  0  0  0  0  0  0  0  0  0  0  0
   34.1917   -7.5104  -16.8323 C   0  0  0  0  0  0  0  0  0  0  0  0
   34.7774   -7.3095  -17.9294 O   0  0  0  0  0  0  0  0  0  0  0  0
   37.2453   -9.8305  -13.6972 O   0  0  0  0  0  0  0  0  0  0  0  0
   26.4525   -3.5220  -19.2547 N   0  0  0  0  0  0  0  0  0  0  0  0
   27.5491   -2.9734  -19.9487 C   0  0  0  0  0  0  0  0  0  0  0  0
   27.3744   -2.0695  -20.8600 N   0  0  0  0  0  0  0  0  0  0  0  0
   28.8743   -3.3930  -19.6738 N   0  0  0  0  0  0  0  0  0  0  0  0
   29.1736   -4.4031  -18.6933 C   0  0  0  0  0  0  0  0  0  0  0  0
   30.6756   -4.5415  -18.6180 C   0  0  0  0  0  0  0  0  0  0  0  0
   31.1002   -5.5808  -17.6069 C   0  0  0  0  0  0  0  0  0  0  0  0
   32.5902   -5.6479  -17.4871 C   0  0  2  0  0  0  0  0  0  0  0  0
   33.0764   -6.6530  -16.5624 N   0  0  0  0  0  0  0  0  0  0  0  0
   33.1672   -4.3049  -17.1486 C   0  0  0  0  0  0  0  0  0  0  0  0
   33.3957   -4.0593  -15.9221 O   0  0  0  0  0  0  0  0  0  0  0  0
   33.4656   -3.3278  -18.0484 O   0  0  0  0  0  0  0  0  0  0  0  0
  2  1  1  6
  2  3  1  0
  4  2  1  0
  4  5  1  6
  6  4  1  0
  6  7  2  0
  8  6  1  0
  9  8  1  0
  9 10  1  6
 10 11  1  0
 11 12  2  0
 13  9  1  0
 14 13  2  0
 15 11  1  0
 17 18  2  0
 17 16  1  0
 19 17  1  0
 20 19  1  0
 21 20  1  0
 22 21  1  0
 23 22  1  1
 23 24  1  0
 24 13  1  0
 25 23  1  0
 26 25  2  0
 27 25  1  0
M  END
$$$$
