TDR.pdb
     RDKit          3D

 27 26  0  0  1  0  0  0  0  0999 V2000
   17.5297  -12.6914  -17.0869 C   0  0  0  0  0  0  0  0  0  0  0  0
   18.6782  -13.4874  -16.5360 C   0  0  1  0  0  0  0  0  0  0  0  0
   18.6963  -14.7296  -17.1567 O   0  0  0  0  0  0  0  0  0  0  0  0
   20.0111  -12.7570  -16.7457 C   0  0  2  0  0  0  0  0  0  0  0  0
   21.1042  -13.6015  -16.3381 N   0  0  0  0  0  0  0  0  0  0  0  0
   19.9120  -11.5211  -15.9216 C   0  0  0  0  0  0  0  0  0  0  0  0
   19.7661  -11.6504  -14.6834 O   0  0  0  0  0  0  0  0  0  0  0  0
   19.9737  -10.2197  -16.4591 N   0  0  0  0  0  0  0  0  0  0  0  0
   19.7095   -8.9962  -15.7381 C   0  0  1  0  0  0  0  0  0  0  0  0
   20.3392   -7.8656  -16.5105 C   0  0  0  0  0  0  0  0  0  0  0  0
   21.8071   -7.9164  -16.3231 C   0  0  0  0  0  0  0  0  0  0  0  0
   22.2929   -8.1778  -15.1963 O   0  0  0  0  0  0  0  0  0  0  0  0
   18.2868   -8.8110  -15.4164 C   0  0  0  0  0  0  0  0  0  0  0  0
   17.4128   -8.9779  -16.3081 O   0  0  0  0  0  0  0  0  0  0  0  0
   22.7153   -7.6806  -17.3638 O   0  0  0  0  0  0  0  0  0  0  0  0
   11.7505  -12.1390  -10.8877 N   0  0  0  0  0  0  0  0  0  0  0  0
   11.3025  -10.9485  -11.4936 C   0  0  0  0  0  0  0  0  0  0  0  0
   10.0385  -10.6754  -11.5687 N   0  0  0  0  0  0  0  0  0  0  0  0
   12.2180  -10.0150  -12.0399 N   0  0  0  0  0  0  0  0  0  0  0  0
   13.6388  -10.2445  -12.0462 C   0  0  0  0  0  0  0  0  0  0  0  0
   14.2821   -9.1299  -12.8368 C   0  0  0  0  0  0  0  0  0  0  0  0
   15.7711   -9.3314  -12.9943 C   0  0  0  0  0  0  0  0  0  0  0  0
   16.3822   -8.2502  -13.8289 C   0  0  2  0  0  0  0  0  0  0  0  0
   17.7885   -8.4394  -14.1259 N   0  0  0  0  0  0  0  0  0  0  0  0
   16.1555   -6.8996  -13.2160 C   0  0  0  0  0  0  0  0  0  0  0  0
   17.1258   -6.3745  -12.5838 O   0  0  0  0  0  0  0  0  0  0  0  0
   14.9950   -6.1911  -13.2815 O   0  0  0  0  0  0  0  0  0  0  0  0
  2  1  1  6
  2  3  1  0
  4  2  1  0
  4  5  1  1
  6  4  1  0
  6  7  2  0
  8  6  1  0
  9  8  1  0
  9 10  1  6
 10 11  1  0
 11 12  2  0
 13  9  1  0
 14 13  2  0
 15 11  1  0
 17 18  2  0
 17 16  1  0
 19 17  1  0
 20 19  1  0
 21 20  1  0
 22 21  1  0
 23 22  1  1
 23 24  1  0
 24 13  1  0
 25 23  1  0
 26 25  2  0
 27 25  1  0
M  END
$$$$
