TDR.pdb
     RDKit          3D

 27 26  0  0  1  0  0  0  0  0999 V2000
   26.6112  -22.0615  -18.8414 C   0  0  0  0  0  0  0  0  0  0  0  0
   27.2547  -22.3504  -17.5152 C   0  0  1  0  0  0  0  0  0  0  0  0
   28.1463  -23.4033  -17.6737 O   0  0  0  0  0  0  0  0  0  0  0  0
   27.9720  -21.1109  -16.9645 C   0  0  2  0  0  0  0  0  0  0  0  0
   28.6890  -21.4509  -15.7627 N   0  0  0  0  0  0  0  0  0  0  0  0
   26.8938  -20.1142  -16.7182 C   0  0  0  0  0  0  0  0  0  0  0  0
   26.4716  -19.9827  -15.5454 O   0  0  0  0  0  0  0  0  0  0  0  0
   26.3264  -19.3147  -17.7308 N   0  0  0  0  0  0  0  0  0  0  0  0
   25.3533  -18.2660  -17.5312 C   0  0  1  0  0  0  0  0  0  0  0  0
   25.3134  -17.4345  -18.7874 C   0  0  0  0  0  0  0  0  0  0  0  0
   24.4102  -16.2814  -18.5703 C   0  0  0  0  0  0  0  0  0  0  0  0
   23.8694  -15.7081  -19.5465 O   0  0  0  0  0  0  0  0  0  0  0  0
   24.0477  -18.7681  -17.0778 C   0  0  0  0  0  0  0  0  0  0  0  0
   23.4960  -19.7246  -17.6842 O   0  0  0  0  0  0  0  0  0  0  0  0
   24.1152  -15.7754  -17.2974 O   0  0  0  0  0  0  0  0  0  0  0  0
   25.0807  -23.2015  -13.4633 N   0  0  0  0  0  0  0  0  0  0  0  0
   23.7115  -23.5335  -13.4819 C   0  0  0  0  0  0  0  0  0  0  0  0
   23.3276  -24.7701  -13.5165 N   0  0  0  0  0  0  0  0  0  0  0  0
   22.7135  -22.5276  -13.4649 N   0  0  0  0  0  0  0  0  0  0  0  0
   23.0260  -21.1313  -13.6200 C   0  0  0  0  0  0  0  0  0  0  0  0
   21.7233  -20.3677  -13.6454 C   0  0  0  0  0  0  0  0  0  0  0  0
   21.9207  -18.9206  -14.0320 C   0  0  0  0  0  0  0  0  0  0  0  0
   22.0427  -18.7643  -15.5151 C   0  0  2  0  0  0  0  0  0  0  0  0
   23.3181  -18.2409  -15.9637 N   0  0  0  0  0  0  0  0  0  0  0  0
   20.9172  -17.9399  -16.0671 C   0  0  0  0  0  0  0  0  0  0  0  0
   21.1481  -16.7091  -16.2882 O   0  0  0  0  0  0  0  0  0  0  0  0
   19.6687  -18.4028  -16.3501 O   0  0  0  0  0  0  0  0  0  0  0  0
  2  1  1  6
  2  3  1  0
  4  2  1  0
  4  5  1  1
  6  4  1  0
  6  7  2  0
  8  6  1  0
  9  8  1  0
  9 10  1  6
 10 11  1  0
 11 12  2  0
 13  9  1  0
 14 13  2  0
 15 11  1  0
 17 18  2  0
 17 16  1  0
 19 17  1  0
 20 19  1  0
 21 20  1  0
 22 21  1  0
 23 22  1  1
 23 24  1  0
 24 13  1  0
 25 23  1  0
 26 25  2  0
 27 25  1  0
M  END
$$$$
