TDR.pdb
     RDKit          3D

 27 26  0  0  1  0  0  0  0  0999 V2000
   20.7936  -18.9554  -11.9541 C   0  0  0  0  0  0  0  0  0  0  0  0
   20.6384  -20.4296  -12.1964 C   0  0  1  0  0  0  0  0  0  0  0  0
   20.5549  -21.0754  -10.9697 O   0  0  0  0  0  0  0  0  0  0  0  0
   19.3978  -20.7243  -13.0498 C   0  0  2  0  0  0  0  0  0  0  0  0
   19.2655  -22.1442  -13.2515 N   0  0  0  0  0  0  0  0  0  0  0  0
   19.6187  -19.9889  -14.3253 C   0  0  0  0  0  0  0  0  0  0  0  0
   20.3683  -20.5119  -15.1831 O   0  0  0  0  0  0  0  0  0  0  0  0
   19.0312  -18.7414  -14.6166 N   0  0  0  0  0  0  0  0  0  0  0  0
   19.2695  -17.9538  -15.8039 C   0  0  1  0  0  0  0  0  0  0  0  0
   17.9844  -17.2459  -16.1481 C   0  0  0  0  0  0  0  0  0  0  0  0
   17.0376  -18.2260  -16.7272 C   0  0  0  0  0  0  0  0  0  0  0  0
   17.4382  -19.3618  -17.0787 O   0  0  0  0  0  0  0  0  0  0  0  0
   20.4475  -17.0813  -15.6914 C   0  0  0  0  0  0  0  0  0  0  0  0
   20.5331  -16.2583  -14.7414 O   0  0  0  0  0  0  0  0  0  0  0  0
   15.6764  -17.9503  -16.9130 O   0  0  0  0  0  0  0  0  0  0  0  0
   28.2964  -19.8972  -17.0599 N   0  0  0  0  0  0  0  0  0  0  0  0
   27.3599  -20.2906  -16.0835 C   0  0  0  0  0  0  0  0  0  0  0  0
   27.5957  -21.2976  -15.3036 N   0  0  0  0  0  0  0  0  0  0  0  0
   26.1328  -19.5999  -15.9250 N   0  0  0  0  0  0  0  0  0  0  0  0
   25.7940  -18.4432  -16.7115 C   0  0  0  0  0  0  0  0  0  0  0  0
   24.4564  -17.9339  -16.2295 C   0  0  0  0  0  0  0  0  0  0  0  0
   23.9678  -16.7604  -17.0460 C   0  0  0  0  0  0  0  0  0  0  0  0
   22.6949  -16.2027  -16.4912 C   0  0  2  0  0  0  0  0  0  0  0  0
   21.5494  -17.0837  -16.6067 N   0  0  0  0  0  0  0  0  0  0  0  0
   22.3847  -14.8624  -17.0900 C   0  0  0  0  0  0  0  0  0  0  0  0
   21.6524  -14.8420  -18.1293 O   0  0  0  0  0  0  0  0  0  0  0  0
   22.8241  -13.6664  -16.6108 O   0  0  0  0  0  0  0  0  0  0  0  0
  2  1  1  1
  2  3  1  0
  4  2  1  0
  4  5  1  6
  6  4  1  0
  6  7  2  0
  8  6  1  0
  9  8  1  0
  9 10  1  1
 10 11  1  0
 11 12  2  0
 13  9  1  0
 14 13  2  0
 15 11  1  0
 17 18  2  0
 17 16  1  0
 19 17  1  0
 20 19  1  0
 21 20  1  0
 22 21  1  0
 23 22  1  6
 23 24  1  0
 24 13  1  0
 25 23  1  0
 26 25  2  0
 27 25  1  0
M  END
$$$$
