NPF.pdb
     RDKit          3D

 27 28  0  0  1  0  0  0  0  0999 V2000
   21.9022  -40.0695  -17.5703 N   0  0  0  0  0  0  0  0  0  0  0  0
   22.1825  -38.7128  -17.2514 C   0  0  0  0  0  0  0  0  0  0  0  0
   21.5573  -37.8025  -17.8761 O   0  0  0  0  0  0  0  0  0  0  0  0
   23.1630  -38.2809  -16.2339 C   0  0  0  0  0  0  0  0  0  0  0  0
   24.1009  -37.2078  -16.7469 C   0  0  2  0  0  0  0  0  0  0  0  0
   25.1500  -37.7457  -17.5651 N   0  0  0  0  0  0  0  0  0  0  0  0
   24.6382  -36.3917  -15.6268 C   0  0  0  0  0  0  0  0  0  0  0  0
   25.8284  -36.6306  -15.2007 O   0  0  0  0  0  0  0  0  0  0  0  0
   23.9407  -35.3477  -14.9689 N   0  0  0  0  0  0  0  0  0  0  0  0
   22.6057  -34.8250  -15.1639 C   0  0  0  0  0  0  0  0  0  0  0  0
   22.7555  -33.3149  -14.8994 C   0  0  0  0  0  0  0  0  0  0  0  0
   24.0223  -33.1784  -14.1458 C   0  0  0  0  0  0  0  0  0  0  0  0
   24.4821  -34.5723  -13.8698 C   0  0  1  0  0  0  0  0  0  0  0  0
   23.9900  -35.1402  -12.5894 C   0  0  0  0  0  0  0  0  0  0  0  0
   22.8172  -35.6499  -12.5670 O   0  0  0  0  0  0  0  0  0  0  0  0
   24.7037  -35.1686  -11.3885 N   0  0  0  0  0  0  0  0  0  0  0  0
   24.2570  -35.8729  -10.1741 C   0  0  1  0  0  0  0  0  0  0  0  0
   25.3109  -35.7179   -9.1068 C   0  0  0  0  0  0  0  0  0  0  0  0
   25.4676  -34.2888   -8.7654 C   0  0  0  0  0  0  0  0  0  0  0  0
   26.4611  -33.5524   -9.4218 C   0  0  0  0  0  0  0  0  0  0  0  0
   26.6770  -32.2131   -9.1954 C   0  0  0  0  0  0  0  0  0  0  0  0
   25.8597  -31.6063   -8.2766 C   0  0  0  0  0  0  0  0  0  0  0  0
   24.8610  -32.3067   -7.6044 C   0  0  0  0  0  0  0  0  0  0  0  0
   24.6506  -33.6395   -7.8332 C   0  0  0  0  0  0  0  0  0  0  0  0
   22.9317  -35.4302   -9.7622 C   0  0  0  0  0  0  0  0  0  0  0  0
   22.2275  -36.1094   -8.9887 O   0  0  0  0  0  0  0  0  0  0  0  0
   22.4270  -34.2296  -10.2313 O   0  0  0  0  0  0  0  0  0  0  0  0
  2  1  1  0
  3  2  2  0
  4  2  1  0
  5  4  1  0
  5  6  1  1
  7  5  1  0
  7  8  2  0
  9  7  1  0
 10  9  1  0
 11 10  1  0
 12 11  1  0
 12 13  1  0
 13  9  1  0
 13 14  1  1
 15 14  2  0
 16 14  1  0
 17 16  1  0
 17 25  1  0
 17 18  1  1
 19 18  1  0
 20 19  2  0
 21 20  1  0
 22 21  2  0
 22 23  1  0
 23 24  2  0
 24 19  1  0
 25 27  1  0
 26 25  2  0
M  END
$$$$
