NPF.pdb
     RDKit          3D

 27 28  0  0  1  0  0  0  0  0999 V2000
   18.1859  -13.0526  -19.5633 N   0  0  0  0  0  0  0  0  0  0  0  0
   17.7492  -12.4195  -18.3677 C   0  0  0  0  0  0  0  0  0  0  0  0
   16.5278  -12.5219  -18.0398 O   0  0  0  0  0  0  0  0  0  0  0  0
   18.6253  -11.6394  -17.4693 C   0  0  0  0  0  0  0  0  0  0  0  0
   20.0327  -12.1950  -17.4008 C   0  0  2  0  0  0  0  0  0  0  0  0
   20.0635  -13.5446  -16.9139 N   0  0  0  0  0  0  0  0  0  0  0  0
   20.9185  -11.3023  -16.6084 C   0  0  0  0  0  0  0  0  0  0  0  0
   21.2170  -11.6363  -15.4024 O   0  0  0  0  0  0  0  0  0  0  0  0
   21.4785  -10.0857  -17.0727 N   0  0  0  0  0  0  0  0  0  0  0  0
   21.3474   -9.4007  -18.3404 C   0  0  0  0  0  0  0  0  0  0  0  0
   22.7359   -8.7743  -18.5698 C   0  0  0  0  0  0  0  0  0  0  0  0
   23.3799   -8.7637  -17.2369 C   0  0  0  0  0  0  0  0  0  0  0  0
   22.3333   -9.2262  -16.2772 C   0  0  1  0  0  0  0  0  0  0  0  0
   21.5120   -8.1371  -15.6908 C   0  0  0  0  0  0  0  0  0  0  0  0
   20.2980   -8.0229  -16.0767 O   0  0  0  0  0  0  0  0  0  0  0  0
   21.9526   -7.2120  -14.7410 N   0  0  0  0  0  0  0  0  0  0  0  0
   21.0593   -6.4110  -13.8861 C   0  0  1  0  0  0  0  0  0  0  0  0
   20.1901   -7.3446  -13.0818 C   0  0  0  0  0  0  0  0  0  0  0  0
   19.2636   -6.5606  -12.2393 C   0  0  0  0  0  0  0  0  0  0  0  0
   19.4370   -6.5932  -10.8504 C   0  0  0  0  0  0  0  0  0  0  0  0
   18.6455   -5.8841   -9.9772 C   0  0  0  0  0  0  0  0  0  0  0  0
   17.6505   -5.1209  -10.5322 C   0  0  0  0  0  0  0  0  0  0  0  0
   17.4481   -5.0639  -11.9090 C   0  0  0  0  0  0  0  0  0  0  0  0
   18.2386   -5.7717  -12.7734 C   0  0  0  0  0  0  0  0  0  0  0  0
   21.8116   -5.4621  -13.0763 C   0  0  0  0  0  0  0  0  0  0  0  0
   21.4756   -4.2638  -12.9938 O   0  0  0  0  0  0  0  0  0  0  0  0
   22.9282   -5.8841  -12.3753 O   0  0  0  0  0  0  0  0  0  0  0  0
  2  1  1  0
  3  2  2  0
  4  2  1  0
  5  4  1  0
  5  6  1  1
  7  5  1  0
  7  8  2  0
  9  7  1  0
 10  9  1  0
 11 10  1  0
 12 11  1  0
 12 13  1  0
 13  9  1  0
 13 14  1  6
 15 14  2  0
 16 14  1  0
 17 16  1  0
 17 25  1  0
 17 18  1  1
 19 18  1  0
 20 19  2  0
 21 20  1  0
 22 21  2  0
 22 23  1  0
 23 24  2  0
 24 19  1  0
 25 27  1  0
 26 25  2  0
M  END
$$$$
