NPF.pdb
     RDKit          3D

 27 28  0  0  1  0  0  0  0  0999 V2000
   25.6086  -14.2111  -21.7534 N   0  0  0  0  0  0  0  0  0  0  0  0
   24.8056  -13.0536  -21.5629 C   0  0  0  0  0  0  0  0  0  0  0  0
   24.1555  -12.5982  -22.5527 O   0  0  0  0  0  0  0  0  0  0  0  0
   24.6732  -12.3324  -20.2801 C   0  0  0  0  0  0  0  0  0  0  0  0
   25.4799  -12.9693  -19.1674 C   0  0  2  0  0  0  0  0  0  0  0  0
   25.0881  -14.3271  -18.9178 N   0  0  0  0  0  0  0  0  0  0  0  0
   25.4264  -12.1437  -17.9326 C   0  0  0  0  0  0  0  0  0  0  0  0
   24.7372  -12.5678  -16.9324 O   0  0  0  0  0  0  0  0  0  0  0  0
   26.0825  -10.9002  -17.7523 N   0  0  0  0  0  0  0  0  0  0  0  0
   26.9251  -10.1312  -18.6424 C   0  0  0  0  0  0  0  0  0  0  0  0
   27.9705   -9.4947  -17.7071 C   0  0  0  0  0  0  0  0  0  0  0  0
   27.3775   -9.5754  -16.3530 C   0  0  0  0  0  0  0  0  0  0  0  0
   25.9923  -10.0984  -16.5476 C   0  0  1  0  0  0  0  0  0  0  0  0
   24.9601   -9.0490  -16.7419 C   0  0  0  0  0  0  0  0  0  0  0  0
   24.8353   -8.5342  -17.9060 O   0  0  0  0  0  0  0  0  0  0  0  0
   24.0999   -8.5660  -15.7525 N   0  0  0  0  0  0  0  0  0  0  0  0
   22.9124   -7.7356  -16.0185 C   0  0  1  0  0  0  0  0  0  0  0  0
   21.6780   -8.5864  -15.8566 C   0  0  0  0  0  0  0  0  0  0  0  0
   21.5637   -9.0363  -14.4539 C   0  0  0  0  0  0  0  0  0  0  0  0
   20.6533   -8.3809  -13.6163 C   0  0  0  0  0  0  0  0  0  0  0  0
   20.4526   -8.7335  -12.3021 C   0  0  0  0  0  0  0  0  0  0  0  0
   21.1982   -9.7819  -11.8272 C   0  0  0  0  0  0  0  0  0  0  0  0
   22.1133  -10.4574  -12.6309 C   0  0  0  0  0  0  0  0  0  0  0  0
   22.3093  -10.1022  -13.9380 C   0  0  0  0  0  0  0  0  0  0  0  0
   22.9116   -6.5334  -15.1957 C   0  0  0  0  0  0  0  0  0  0  0  0
   23.7041   -6.3940  -14.2427 O   0  0  0  0  0  0  0  0  0  0  0  0
   22.0165   -5.5123  -15.4644 O   0  0  0  0  0  0  0  0  0  0  0  0
  2  1  1  0
  3  2  2  0
  4  2  1  0
  5  4  1  0
  5  6  1  1
  7  5  1  0
  7  8  2  0
  9  7  1  0
 10  9  1  0
 11 10  1  0
 12 11  1  0
 12 13  1  0
 13  9  1  0
 13 14  1  6
 15 14  2  0
 16 14  1  0
 17 16  1  0
 17 25  1  0
 17 18  1  1
 19 18  1  0
 20 19  2  0
 21 20  1  0
 22 21  2  0
 22 23  1  0
 23 24  2  0
 24 19  1  0
 25 27  1  0
 26 25  2  0
M  END
$$$$
