NPF.pdb
     RDKit          3D

 27 28  0  0  1  0  0  0  0  0999 V2000
   22.1545  -20.6212  -11.5423 N   0  0  0  0  0  0  0  0  0  0  0  0
   22.5113  -20.3745  -12.8960 C   0  0  0  0  0  0  0  0  0  0  0  0
   22.8337  -19.1943  -13.2317 O   0  0  0  0  0  0  0  0  0  0  0  0
   22.5321  -21.4058  -13.9541 C   0  0  0  0  0  0  0  0  0  0  0  0
   23.8195  -21.3961  -14.7521 C   0  0  2  0  0  0  0  0  0  0  0  0
   23.7740  -22.2923  -15.8720 N   0  0  0  0  0  0  0  0  0  0  0  0
   24.9897  -21.6665  -13.8763 C   0  0  0  0  0  0  0  0  0  0  0  0
   25.2234  -22.8775  -13.5100 O   0  0  0  0  0  0  0  0  0  0  0  0
   25.8943  -20.6866  -13.3961 N   0  0  0  0  0  0  0  0  0  0  0  0
   25.8751  -19.2434  -13.4969 C   0  0  0  0  0  0  0  0  0  0  0  0
   27.3600  -18.8614  -13.6458 C   0  0  0  0  0  0  0  0  0  0  0  0
   28.1128  -20.0421  -13.1654 C   0  0  0  0  0  0  0  0  0  0  0  0
   27.0873  -20.9856  -12.6282 C   0  0  1  0  0  0  0  0  0  0  0  0
   26.7884  -20.8123  -11.1842 C   0  0  0  0  0  0  0  0  0  0  0  0
   25.7493  -20.1410  -10.8599 O   0  0  0  0  0  0  0  0  0  0  0  0
   27.5516  -21.3247  -10.1320 N   0  0  0  0  0  0  0  0  0  0  0  0
   27.2667  -21.0847   -8.7066 C   0  0  1  0  0  0  0  0  0  0  0  0
   28.5713  -21.0314   -7.9523 C   0  0  0  0  0  0  0  0  0  0  0  0
   28.3593  -20.3970   -6.6349 C   0  0  0  0  0  0  0  0  0  0  0  0
   28.1653  -21.2232   -5.5213 C   0  0  0  0  0  0  0  0  0  0  0  0
   27.9813  -20.7373   -4.2479 C   0  0  0  0  0  0  0  0  0  0  0  0
   27.9953  -19.3737   -4.1032 C   0  0  0  0  0  0  0  0  0  0  0  0
   28.1855  -18.5207   -5.1876 C   0  0  0  0  0  0  0  0  0  0  0  0
   28.3679  -19.0095   -6.4529 C   0  0  0  0  0  0  0  0  0  0  0  0
   26.4322  -19.9045   -8.5246 C   0  0  0  0  0  0  0  0  0  0  0  0
   25.3656  -19.9521   -7.8800 O   0  0  0  0  0  0  0  0  0  0  0  0
   26.8179  -18.6937   -9.0737 O   0  0  0  0  0  0  0  0  0  0  0  0
  2  1  1  0
  3  2  2  0
  4  2  1  0
  5  4  1  0
  5  6  1  6
  7  5  1  0
  7  8  2  0
  9  7  1  0
 10  9  1  0
 11 10  1  0
 12 11  1  0
 12 13  1  0
 13  9  1  0
 13 14  1  1
 15 14  2  0
 16 14  1  0
 17 16  1  0
 17 25  1  0
 17 18  1  1
 19 18  1  0
 20 19  2  0
 21 20  1  0
 22 21  2  0
 22 23  1  0
 23 24  2  0
 24 19  1  0
 25 27  1  0
 26 25  2  0
M  END
$$$$
