NPF.pdb
     RDKit          3D

 27 28  0  0  1  0  0  0  0  0999 V2000
   21.0193  -16.1176  -16.2434 N   0  0  0  0  0  0  0  0  0  0  0  0
   21.2839  -17.2158  -15.3804 C   0  0  0  0  0  0  0  0  0  0  0  0
   20.4924  -17.4293  -14.4121 O   0  0  0  0  0  0  0  0  0  0  0  0
   22.4296  -18.1369  -15.5301 C   0  0  0  0  0  0  0  0  0  0  0  0
   23.3687  -17.7226  -16.6441 C   0  0  2  0  0  0  0  0  0  0  0  0
   22.7198  -17.6980  -17.9239 N   0  0  0  0  0  0  0  0  0  0  0  0
   24.5853  -18.5764  -16.6587 C   0  0  0  0  0  0  0  0  0  0  0  0
   24.6637  -19.5296  -17.5192 O   0  0  0  0  0  0  0  0  0  0  0  0
   25.6950  -18.4321  -15.7887 N   0  0  0  0  0  0  0  0  0  0  0  0
   25.8704  -17.6336  -14.5949 C   0  0  0  0  0  0  0  0  0  0  0  0
   27.3448  -17.1914  -14.6568 C   0  0  0  0  0  0  0  0  0  0  0  0
   27.9893  -18.1273  -15.6057 C   0  0  0  0  0  0  0  0  0  0  0  0
   26.9486  -19.1443  -15.9420 C   0  0  1  0  0  0  0  0  0  0  0  0
   26.9405  -20.3334  -15.0530 C   0  0  0  0  0  0  0  0  0  0  0  0
   27.8327  -21.2308  -15.2383 O   0  0  0  0  0  0  0  0  0  0  0  0
   26.0323  -20.5635  -14.0165 N   0  0  0  0  0  0  0  0  0  0  0  0
   25.7253  -21.8936  -13.4623 C   0  0  1  0  0  0  0  0  0  0  0  0
   26.6331  -22.1515  -12.2862 C   0  0  0  0  0  0  0  0  0  0  0  0
   26.4120  -21.1207  -11.2509 C   0  0  0  0  0  0  0  0  0  0  0  0
   25.8416  -21.5113  -10.0334 C   0  0  0  0  0  0  0  0  0  0  0  0
   25.6132  -20.6378   -8.9958 C   0  0  0  0  0  0  0  0  0  0  0  0
   25.9753  -19.3313   -9.2024 C   0  0  0  0  0  0  0  0  0  0  0  0
   26.5451  -18.9064  -10.4001 C   0  0  0  0  0  0  0  0  0  0  0  0
   26.7699  -19.7798  -11.4295 C   0  0  0  0  0  0  0  0  0  0  0  0
   24.3078  -22.0240  -13.1523 C   0  0  0  0  0  0  0  0  0  0  0  0
   23.7998  -23.1278  -12.8713 O   0  0  0  0  0  0  0  0  0  0  0  0
   23.4915  -20.9061  -13.1654 O   0  0  0  0  0  0  0  0  0  0  0  0
  2  1  1  0
  3  2  2  0
  4  2  1  0
  5  4  1  0
  5  6  1  6
  7  5  1  0
  7  8  2  0
  9  7  1  0
 10  9  1  0
 11 10  1  0
 12 11  1  0
 12 13  1  0
 13  9  1  0
 13 14  1  1
 15 14  2  0
 16 14  1  0
 17 16  1  0
 17 25  1  0
 17 18  1  1
 19 18  1  0
 20 19  2  0
 21 20  1  0
 22 21  2  0
 22 23  1  0
 23 24  2  0
 24 19  1  0
 25 27  1  0
 26 25  2  0
M  END
$$$$
