NPF.pdb
     RDKit          3D

 27 28  0  0  1  0  0  0  0  0999 V2000
   21.7089  -19.5254  -15.3806 N   0  0  0  0  0  0  0  0  0  0  0  0
   21.6686  -19.5132  -13.9597 C   0  0  0  0  0  0  0  0  0  0  0  0
   20.7623  -18.8359  -13.3856 O   0  0  0  0  0  0  0  0  0  0  0  0
   22.6189  -20.2397  -13.0923 C   0  0  0  0  0  0  0  0  0  0  0  0
   23.6396  -21.0328  -13.8819 C   0  0  2  0  0  0  0  0  0  0  0  0
   23.0476  -22.1318  -14.5899 N   0  0  0  0  0  0  0  0  0  0  0  0
   24.7581  -21.4769  -13.0095 C   0  0  0  0  0  0  0  0  0  0  0  0
   24.7195  -22.6602  -12.5059 O   0  0  0  0  0  0  0  0  0  0  0  0
   25.8920  -20.6955  -12.6739 N   0  0  0  0  0  0  0  0  0  0  0  0
   26.2505  -19.3386  -13.0260 C   0  0  0  0  0  0  0  0  0  0  0  0
   27.7821  -19.3875  -13.1826 C   0  0  0  0  0  0  0  0  0  0  0  0
   28.2038  -20.6175  -12.4748 C   0  0  0  0  0  0  0  0  0  0  0  0
   26.9720  -21.1513  -11.8205 C   0  0  1  0  0  0  0  0  0  0  0  0
   26.7420  -20.6513  -10.4416 C   0  0  0  0  0  0  0  0  0  0  0  0
   26.1737  -19.5144  -10.2993 O   0  0  0  0  0  0  0  0  0  0  0  0
   27.0958  -21.3213   -9.2676 N   0  0  0  0  0  0  0  0  0  0  0  0
   27.0153  -20.7324   -7.9196 C   0  0  1  0  0  0  0  0  0  0  0  0
   27.9412  -21.4903   -7.0019 C   0  0  0  0  0  0  0  0  0  0  0  0
   28.1900  -20.6978   -5.7800 C   0  0  0  0  0  0  0  0  0  0  0  0
   29.2432  -19.7753   -5.7875 C   0  0  0  0  0  0  0  0  0  0  0  0
   29.5469  -18.9725   -4.7128 C   0  0  0  0  0  0  0  0  0  0  0  0
   28.7575  -19.1118   -3.6001 C   0  0  0  0  0  0  0  0  0  0  0  0
   27.7014  -20.0187   -3.5562 C   0  0  0  0  0  0  0  0  0  0  0  0
   27.4036  -20.8154   -4.6285 C   0  0  0  0  0  0  0  0  0  0  0  0
   27.2634  -19.2973   -7.9529 C   0  0  0  0  0  0  0  0  0  0  0  0
   28.2046  -18.8125   -8.6122 O   0  0  0  0  0  0  0  0  0  0  0  0
   26.4445  -18.4374   -7.2414 O   0  0  0  0  0  0  0  0  0  0  0  0
  2  1  1  0
  3  2  2  0
  4  2  1  0
  5  4  1  0
  5  6  1  1
  7  5  1  0
  7  8  2  0
  9  7  1  0
 10  9  1  0
 11 10  1  0
 12 11  1  0
 12 13  1  0
 13  9  1  0
 13 14  1  1
 15 14  2  0
 16 14  1  0
 17 16  1  0
 17 25  1  0
 17 18  1  1
 19 18  1  0
 20 19  2  0
 21 20  1  0
 22 21  2  0
 22 23  1  0
 23 24  2  0
 24 19  1  0
 25 27  1  0
 26 25  2  0
M  END
$$$$
