VHD.pdb
     RDKit          3D

 26 26  0  0  1  0  0  0  0  0999 V2000
    8.6482  -13.1736   21.5772 C   0  0  0  0  0  0  0  0  0  0  0  0
    8.1237  -13.4054   20.1886 C   0  0  1  0  0  0  0  0  0  0  0  0
    8.1387  -12.0994   19.4413 C   0  0  0  0  0  0  0  0  0  0  0  0
    9.0098  -14.3929   19.4667 C   0  0  2  0  0  0  0  0  0  0  0  0
    8.6811  -14.5256   18.0798 N   0  0  0  0  0  0  0  0  0  0  0  0
    8.9346  -15.7282   20.1094 C   0  0  0  0  0  0  0  0  0  0  0  0
    7.9450  -16.4931   19.9109 O   0  0  0  0  0  0  0  0  0  0  0  0
    9.9744  -16.1740   20.9614 N   0  0  0  0  0  0  0  0  0  0  0  0
    9.8615  -17.4587   21.7139 C   0  0  1  0  0  0  0  0  0  0  0  0
    9.4788  -18.5278   20.7819 C   0  0  0  0  0  0  0  0  0  0  0  0
   10.2771  -18.6217   19.5478 C   0  0  0  0  0  0  0  0  0  0  0  0
   11.2939  -17.7840   19.1055 C   0  0  0  0  0  0  0  0  0  0  0  0
   11.7222  -18.2133   17.9065 N   0  0  0  0  0  0  0  0  0  0  0  0
   11.0117  -19.3025   17.5631 C   0  0  0  0  0  0  0  0  0  0  0  0
   10.1529  -19.5417   18.5431 N   0  0  0  0  0  0  0  0  0  0  0  0
   11.0403  -17.5535   22.5296 C   0  0  0  0  0  0  0  0  0  0  0  0
   12.0344  -16.7812   22.2471 O   0  0  0  0  0  0  0  0  0  0  0  0
   11.2855  -18.4018   23.6536 N   0  0  0  0  0  0  0  0  0  0  0  0
   12.5409  -18.2912   24.4095 C   0  0  1  0  0  0  0  0  0  0  0  0
   12.3418  -18.8318   25.8071 C   0  0  0  0  0  0  0  0  0  0  0  0
   11.3702  -18.0447   26.5860 C   0  0  0  0  0  0  0  0  0  0  0  0
   10.2499  -18.5662   26.9348 O   0  0  0  0  0  0  0  0  0  0  0  0
   13.5647  -19.0886   23.7116 C   0  0  0  0  0  0  0  0  0  0  0  0
   13.2634  -19.7804   22.7227 O   0  0  0  0  0  0  0  0  0  0  0  0
   11.5475  -16.7305   27.0008 O   0  0  0  0  0  0  0  0  0  0  0  0
   14.8639  -19.0806   24.1401 O   0  0  0  0  0  0  0  0  0  0  0  0
  2  4  1  0
  2  1  1  1
  3  2  1  0
  4  5  1  6
  4  6  1  0
  6  7  2  0
  8  6  1  0
  8  9  1  0
  9 16  1  0
  9 10  1  6
 10 11  1  0
 11 12  2  0
 12 13  1  0
 14 13  1  0
 15 11  1  0
 15 14  2  0
 16 17  2  0
 18 19  1  0
 18 16  1  0
 19 23  1  0
 20 21  1  0
 19 20  1  1
 21 22  2  0
 23 24  2  0
 23 26  1  0
 25 21  1  0
M  END
$$$$
