VHD.pdb
     RDKit          3D

 26 26  0  0  1  0  0  0  0  0999 V2000
    8.3785  -11.9644   18.7320 C   0  0  0  0  0  0  0  0  0  0  0  0
    8.7212  -13.1243   19.6234 C   0  0  1  0  0  0  0  0  0  0  0  0
    8.0468  -12.9277   20.9542 C   0  0  0  0  0  0  0  0  0  0  0  0
    8.2200  -14.4081   19.0053 C   0  0  2  0  0  0  0  0  0  0  0  0
    6.8009  -14.4189   18.8179 N   0  0  0  0  0  0  0  0  0  0  0  0
    8.6045  -15.5735   19.8394 C   0  0  0  0  0  0  0  0  0  0  0  0
    7.9037  -15.9233   20.8346 O   0  0  0  0  0  0  0  0  0  0  0  0
    9.7690  -16.3202   19.5358 N   0  0  0  0  0  0  0  0  0  0  0  0
   10.1521  -17.5184   20.3402 C   0  0  1  0  0  0  0  0  0  0  0  0
   10.0879  -18.7106   19.4843 C   0  0  0  0  0  0  0  0  0  0  0  0
    8.7400  -19.1269   19.0612 C   0  0  0  0  0  0  0  0  0  0  0  0
    7.5173  -18.5316   19.3478 C   0  0  0  0  0  0  0  0  0  0  0  0
    6.5355  -19.2644   18.7960 N   0  0  0  0  0  0  0  0  0  0  0  0
    7.0890  -20.3140   18.1628 C   0  0  0  0  0  0  0  0  0  0  0  0
    8.4013  -20.2278   18.3234 N   0  0  0  0  0  0  0  0  0  0  0  0
   11.3488  -17.1617   21.0506 C   0  0  0  0  0  0  0  0  0  0  0  0
   11.5890  -15.9082   21.2390 O   0  0  0  0  0  0  0  0  0  0  0  0
   12.3485  -18.0183   21.6072 N   0  0  0  0  0  0  0  0  0  0  0  0
   13.4452  -17.4587   22.4096 C   0  0  1  0  0  0  0  0  0  0  0  0
   12.8878  -16.8431   23.6728 C   0  0  0  0  0  0  0  0  0  0  0  0
   13.9421  -16.4410   24.6200 C   0  0  0  0  0  0  0  0  0  0  0  0
   14.8827  -15.6532   24.2412 O   0  0  0  0  0  0  0  0  0  0  0  0
   14.3621  -18.5583   22.7579 C   0  0  0  0  0  0  0  0  0  0  0  0
   15.5565  -18.3286   23.0187 O   0  0  0  0  0  0  0  0  0  0  0  0
   14.0305  -16.8477   25.9456 O   0  0  0  0  0  0  0  0  0  0  0  0
   13.9142  -19.8503   22.8002 O   0  0  0  0  0  0  0  0  0  0  0  0
  2  4  1  0
  2  1  1  6
  3  2  1  0
  4  5  1  1
  4  6  1  0
  6  7  2  0
  8  6  1  0
  8  9  1  0
  9 16  1  0
  9 10  1  6
 10 11  1  0
 11 12  2  0
 12 13  1  0
 14 13  1  0
 15 11  1  0
 15 14  2  0
 16 17  2  0
 18 19  1  0
 18 16  1  0
 19 23  1  0
 20 21  1  0
 19 20  1  1
 21 22  2  0
 23 24  2  0
 23 26  1  0
 25 21  1  0
M  END
$$$$
