VHD.pdb
     RDKit          3D

 26 26  0  0  1  0  0  0  0  0999 V2000
    9.5157  -12.6466   20.5328 C   0  0  0  0  0  0  0  0  0  0  0  0
    8.5751  -13.5314   19.7650 C   0  0  1  0  0  0  0  0  0  0  0  0
    7.3071  -12.7685   19.4921 C   0  0  0  0  0  0  0  0  0  0  0  0
    9.2036  -13.9236   18.4487 C   0  0  2  0  0  0  0  0  0  0  0  0
    8.3089  -14.6492   17.5988 N   0  0  0  0  0  0  0  0  0  0  0  0
   10.4216  -14.7403   18.6749 C   0  0  0  0  0  0  0  0  0  0  0  0
   10.3506  -15.9992   18.7926 O   0  0  0  0  0  0  0  0  0  0  0  0
   11.6932  -14.1229   18.7637 N   0  0  0  0  0  0  0  0  0  0  0  0
   12.9302  -14.9275   18.9913 C   0  0  1  0  0  0  0  0  0  0  0  0
   13.9976  -14.4226   18.1173 C   0  0  0  0  0  0  0  0  0  0  0  0
   14.0488  -15.0018   16.7641 C   0  0  0  0  0  0  0  0  0  0  0  0
   13.3674  -16.1057   16.2656 C   0  0  0  0  0  0  0  0  0  0  0  0
   13.7410  -16.3099   14.9912 N   0  0  0  0  0  0  0  0  0  0  0  0
   14.6428  -15.3708   14.6539 C   0  0  0  0  0  0  0  0  0  0  0  0
   14.8228  -14.5946   15.7123 N   0  0  0  0  0  0  0  0  0  0  0  0
   13.0980  -15.0155   20.4154 C   0  0  0  0  0  0  0  0  0  0  0  0
   13.1308  -13.9158   21.0892 O   0  0  0  0  0  0  0  0  0  0  0  0
   13.2328  -16.1817   21.2307 N   0  0  0  0  0  0  0  0  0  0  0  0
   13.4084  -16.0573   22.6844 C   0  0  1  0  0  0  0  0  0  0  0  0
   12.8782  -17.2968   23.3683 C   0  0  0  0  0  0  0  0  0  0  0  0
   11.4372  -17.4985   23.1378 C   0  0  0  0  0  0  0  0  0  0  0  0
   10.6423  -16.4907   23.1053 O   0  0  0  0  0  0  0  0  0  0  0  0
   14.8494  -15.9186   22.9590 C   0  0  0  0  0  0  0  0  0  0  0  0
   15.6828  -16.0350   22.0429 O   0  0  0  0  0  0  0  0  0  0  0  0
   10.8176  -18.7271   22.9449 O   0  0  0  0  0  0  0  0  0  0  0  0
   15.2941  -15.6592   24.2266 O   0  0  0  0  0  0  0  0  0  0  0  0
  2  4  1  0
  2  1  1  6
  3  2  1  0
  4  5  1  6
  4  6  1  0
  6  7  2  0
  8  6  1  0
  8  9  1  0
  9 16  1  0
  9 10  1  6
 10 11  1  0
 11 12  2  0
 12 13  1  0
 14 13  1  0
 15 11  1  0
 15 14  2  0
 16 17  2  0
 18 19  1  0
 18 16  1  0
 19 23  1  0
 20 21  1  0
 19 20  1  1
 21 22  2  0
 23 24  2  0
 23 26  1  0
 25 21  1  0
M  END
$$$$
