VHD.pdb
     RDKit          3D

 26 26  0  0  1  0  0  0  0  0999 V2000
   13.6141  -22.3376   14.4283 C   0  0  0  0  0  0  0  0  0  0  0  0
   13.1135  -21.7120   15.6992 C   0  0  1  0  0  0  0  0  0  0  0  0
   13.8890  -20.4479   15.9544 C   0  0  0  0  0  0  0  0  0  0  0  0
   11.6498  -21.3681   15.5565 C   0  0  2  0  0  0  0  0  0  0  0  0
   11.3882  -20.4936   14.4537 N   0  0  0  0  0  0  0  0  0  0  0  0
   11.1374  -20.7413   16.8000 C   0  0  0  0  0  0  0  0  0  0  0  0
   11.2596  -19.4971   17.0019 O   0  0  0  0  0  0  0  0  0  0  0  0
   10.4987  -21.5280   17.7895 N   0  0  0  0  0  0  0  0  0  0  0  0
    9.9224  -20.9072   19.0192 C   0  0  1  0  0  0  0  0  0  0  0  0
    8.4581  -21.0143   18.9687 C   0  0  0  0  0  0  0  0  0  0  0  0
    7.7943  -20.2559   17.8948 C   0  0  0  0  0  0  0  0  0  0  0  0
    7.6522  -18.8796   17.7637 C   0  0  0  0  0  0  0  0  0  0  0  0
    6.9412  -18.6183   16.6539 N   0  0  0  0  0  0  0  0  0  0  0  0
    6.6209  -19.7850   16.0663 C   0  0  0  0  0  0  0  0  0  0  0  0
    7.1309  -20.7568   16.8085 N   0  0  0  0  0  0  0  0  0  0  0  0
   10.6802  -21.4238   20.1250 C   0  0  0  0  0  0  0  0  0  0  0  0
   10.8714  -22.6983   20.1839 O   0  0  0  0  0  0  0  0  0  0  0  0
   11.2828  -20.7115   21.2079 N   0  0  0  0  0  0  0  0  0  0  0  0
   12.0803  -21.4247   22.2154 C   0  0  1  0  0  0  0  0  0  0  0  0
   13.3384  -20.6420   22.5150 C   0  0  0  0  0  0  0  0  0  0  0  0
   14.3216  -20.7092   21.4199 C   0  0  0  0  0  0  0  0  0  0  0  0
   14.2170  -21.6135   20.5143 O   0  0  0  0  0  0  0  0  0  0  0  0
   11.2680  -21.5431   23.4391 C   0  0  0  0  0  0  0  0  0  0  0  0
   10.1994  -20.9166   23.5530 O   0  0  0  0  0  0  0  0  0  0  0  0
   15.4057  -19.8553   21.2585 O   0  0  0  0  0  0  0  0  0  0  0  0
   11.6762  -22.3445   24.4700 O   0  0  0  0  0  0  0  0  0  0  0  0
  2  4  1  0
  2  1  1  6
  3  2  1  0
  4  5  1  6
  4  6  1  0
  6  7  2  0
  8  6  1  0
  8  9  1  0
  9 16  1  0
  9 10  1  1
 10 11  1  0
 11 12  2  0
 12 13  1  0
 14 13  1  0
 15 11  1  0
 15 14  2  0
 16 17  2  0
 18 19  1  0
 18 16  1  0
 19 23  1  0
 20 21  1  0
 19 20  1  1
 21 22  2  0
 23 24  2  0
 23 26  1  0
 25 21  1  0
M  END
$$$$
