VHD.pdb
     RDKit          3D

 26 26  0  0  1  0  0  0  0  0999 V2000
    8.9544  -18.4211   19.6278 C   0  0  0  0  0  0  0  0  0  0  0  0
    9.2125  -17.6593   20.8967 C   0  0  1  0  0  0  0  0  0  0  0  0
   10.5569  -18.0632   21.4388 C   0  0  0  0  0  0  0  0  0  0  0  0
    9.2262  -16.1768   20.6079 C   0  0  2  0  0  0  0  0  0  0  0  0
   10.2534  -15.7988   19.6852 N   0  0  0  0  0  0  0  0  0  0  0  0
    9.3969  -15.4025   21.8621 C   0  0  0  0  0  0  0  0  0  0  0  0
    9.6105  -14.1546   21.8347 O   0  0  0  0  0  0  0  0  0  0  0  0
    9.3236  -16.0490   23.1201 N   0  0  0  0  0  0  0  0  0  0  0  0
    9.0919  -15.2752   24.3759 C   0  0  1  0  0  0  0  0  0  0  0  0
    8.0119  -14.3056   24.1488 C   0  0  0  0  0  0  0  0  0  0  0  0
    7.5692  -13.5471   25.3311 C   0  0  0  0  0  0  0  0  0  0  0  0
    8.0111  -13.6506   26.6447 C   0  0  0  0  0  0  0  0  0  0  0  0
    7.3075  -12.7993   27.4099 N   0  0  0  0  0  0  0  0  0  0  0  0
    6.4255  -12.1505   26.6286 C   0  0  0  0  0  0  0  0  0  0  0  0
    6.5851  -12.5990   25.3922 N   0  0  0  0  0  0  0  0  0  0  0  0
    9.0302  -16.2399   25.4387 C   0  0  0  0  0  0  0  0  0  0  0  0
    8.5320  -15.8641   26.5679 O   0  0  0  0  0  0  0  0  0  0  0  0
    9.4471  -17.6070   25.4322 N   0  0  0  0  0  0  0  0  0  0  0  0
   10.5109  -18.0649   26.3369 C   0  0  1  0  0  0  0  0  0  0  0  0
   11.8610  -17.7657   25.7263 C   0  0  0  0  0  0  0  0  0  0  0  0
   12.2935  -18.8018   24.7723 C   0  0  0  0  0  0  0  0  0  0  0  0
   11.5067  -19.7716   24.4735 O   0  0  0  0  0  0  0  0  0  0  0  0
   10.3712  -17.3363   27.6101 C   0  0  0  0  0  0  0  0  0  0  0  0
   10.2081  -17.9529   28.6781 O   0  0  0  0  0  0  0  0  0  0  0  0
   13.5262  -18.8423   24.1327 O   0  0  0  0  0  0  0  0  0  0  0  0
   10.4190  -15.9694   27.6380 O   0  0  0  0  0  0  0  0  0  0  0  0
  2  4  1  0
  2  1  1  6
  3  2  1  0
  4  5  1  6
  4  6  1  0
  6  7  2  0
  8  6  1  0
  8  9  1  0
  9 16  1  0
  9 10  1  6
 10 11  1  0
 11 12  2  0
 12 13  1  0
 14 13  1  0
 15 11  1  0
 15 14  2  0
 16 17  2  0
 18 19  1  0
 18 16  1  0
 19 23  1  0
 20 21  1  0
 19 20  1  6
 21 22  2  0
 23 24  2  0
 23 26  1  0
 25 21  1  0
M  END
$$$$
