VHD.pdb
     RDKit          3D

 26 26  0  0  1  0  0  0  0  0999 V2000
    9.6752  -12.6191   20.4799 C   0  0  0  0  0  0  0  0  0  0  0  0
    8.6957  -13.4830   19.7375 C   0  0  1  0  0  0  0  0  0  0  0  0
    7.4383  -12.6922   19.4968 C   0  0  0  0  0  0  0  0  0  0  0  0
    9.2810  -13.8894   18.4058 C   0  0  2  0  0  0  0  0  0  0  0  0
    8.3534  -14.6084   17.5860 N   0  0  0  0  0  0  0  0  0  0  0  0
   10.4951  -14.7198   18.6011 C   0  0  0  0  0  0  0  0  0  0  0  0
   10.4153  -15.9800   18.6967 O   0  0  0  0  0  0  0  0  0  0  0  0
   11.7727  -14.1143   18.6845 N   0  0  0  0  0  0  0  0  0  0  0  0
   13.0065  -14.9331   18.8759 C   0  0  1  0  0  0  0  0  0  0  0  0
   14.0447  -14.4585   17.9511 C   0  0  0  0  0  0  0  0  0  0  0  0
   14.0447  -15.0743   16.6133 C   0  0  0  0  0  0  0  0  0  0  0  0
   13.3988  -16.2294   16.1889 C   0  0  0  0  0  0  0  0  0  0  0  0
   13.7031  -16.4505   14.8991 N   0  0  0  0  0  0  0  0  0  0  0  0
   14.5259  -15.4726   14.4797 C   0  0  0  0  0  0  0  0  0  0  0  0
   14.7262  -14.6559   15.5035 N   0  0  0  0  0  0  0  0  0  0  0  0
   13.2305  -15.0000   20.2934 C   0  0  0  0  0  0  0  0  0  0  0  0
   13.3449  -13.8897   20.9403 O   0  0  0  0  0  0  0  0  0  0  0  0
   13.3438  -16.1546   21.1283 N   0  0  0  0  0  0  0  0  0  0  0  0
   13.5967  -16.0093   22.5687 C   0  0  1  0  0  0  0  0  0  0  0  0
   13.1420  -17.2560   23.2928 C   0  0  0  0  0  0  0  0  0  0  0  0
   11.6991  -17.5085   23.1348 C   0  0  0  0  0  0  0  0  0  0  0  0
   10.8942  -16.5324   22.9155 O   0  0  0  0  0  0  0  0  0  0  0  0
   15.0461  -15.8264   22.7607 C   0  0  0  0  0  0  0  0  0  0  0  0
   15.8363  -15.9925   21.8144 O   0  0  0  0  0  0  0  0  0  0  0  0
   11.0880  -18.7543   23.2045 O   0  0  0  0  0  0  0  0  0  0  0  0
   15.5463  -15.4707   23.9833 O   0  0  0  0  0  0  0  0  0  0  0  0
  2  4  1  0
  2  1  1  6
  3  2  1  0
  4  5  1  1
  4  6  1  0
  6  7  2  0
  8  6  1  0
  8  9  1  0
  9 16  1  0
  9 10  1  6
 10 11  1  0
 11 12  2  0
 12 13  1  0
 14 13  1  0
 15 11  1  0
 15 14  2  0
 16 17  2  0
 18 19  1  0
 18 16  1  0
 19 23  1  0
 20 21  1  0
 19 20  1  1
 21 22  2  0
 23 24  2  0
 23 26  1  0
 25 21  1  0
M  END
$$$$
