VHD.pdb
     RDKit          3D

 26 26  0  0  1  0  0  0  0  0999 V2000
    8.5760  -21.4833   18.9350 C   0  0  0  0  0  0  0  0  0  0  0  0
    9.2527  -20.3098   19.5847 C   0  0  1  0  0  0  0  0  0  0  0  0
   10.7038  -20.6457   19.7993 C   0  0  0  0  0  0  0  0  0  0  0  0
    9.1578  -19.1023   18.6823 C   0  0  2  0  0  0  0  0  0  0  0  0
    9.7666  -19.3134   17.4040 N   0  0  0  0  0  0  0  0  0  0  0  0
    9.7842  -17.9205   19.3247 C   0  0  0  0  0  0  0  0  0  0  0  0
   10.9326  -17.5188   18.9733 O   0  0  0  0  0  0  0  0  0  0  0  0
    9.1048  -17.2161   20.3485 N   0  0  0  0  0  0  0  0  0  0  0  0
    9.7014  -16.0015   20.9798 C   0  0  1  0  0  0  0  0  0  0  0  0
    8.6365  -15.0222   21.2351 C   0  0  0  0  0  0  0  0  0  0  0  0
    8.1042  -14.3273   20.0507 C   0  0  0  0  0  0  0  0  0  0  0  0
    8.5796  -14.3481   18.7450 C   0  0  0  0  0  0  0  0  0  0  0  0
    7.8180  -13.5380   17.9906 N   0  0  0  0  0  0  0  0  0  0  0  0
    6.8663  -12.9959   18.7712 C   0  0  0  0  0  0  0  0  0  0  0  0
    7.0407  -13.4687   19.9965 N   0  0  0  0  0  0  0  0  0  0  0  0
   10.5616  -16.4734   22.0292 C   0  0  0  0  0  0  0  0  0  0  0  0
   10.0929  -17.3580   22.8430 O   0  0  0  0  0  0  0  0  0  0  0  0
   11.9117  -16.1017   22.3153 N   0  0  0  0  0  0  0  0  0  0  0  0
   12.7155  -16.8880   23.2616 C   0  0  1  0  0  0  0  0  0  0  0  0
   12.7438  -18.3349   22.8246 C   0  0  0  0  0  0  0  0  0  0  0  0
   13.5732  -19.1764   23.7046 C   0  0  0  0  0  0  0  0  0  0  0  0
   13.5566  -18.9925   24.9753 O   0  0  0  0  0  0  0  0  0  0  0  0
   14.0847  -16.3433   23.2589 C   0  0  0  0  0  0  0  0  0  0  0  0
   14.4145  -15.4631   22.4442 O   0  0  0  0  0  0  0  0  0  0  0  0
   14.4155  -20.1972   23.2815 O   0  0  0  0  0  0  0  0  0  0  0  0
   15.0154  -16.7971   24.1530 O   0  0  0  0  0  0  0  0  0  0  0  0
  2  4  1  0
  2  1  1  6
  3  2  1  0
  4  5  1  6
  4  6  1  0
  6  7  2  0
  8  6  1  0
  8  9  1  0
  9 16  1  0
  9 10  1  1
 10 11  1  0
 11 12  2  0
 12 13  1  0
 14 13  1  0
 15 11  1  0
 15 14  2  0
 16 17  2  0
 18 19  1  0
 18 16  1  0
 19 23  1  0
 20 21  1  0
 19 20  1  6
 21 22  2  0
 23 24  2  0
 23 26  1  0
 25 21  1  0
M  END
$$$$
