VHD.pdb
     RDKit          3D

 26 26  0  0  1  0  0  0  0  0999 V2000
    8.5052  -12.0007   18.5006 C   0  0  0  0  0  0  0  0  0  0  0  0
    8.5501  -13.0596   19.5653 C   0  0  1  0  0  0  0  0  0  0  0  0
    7.2889  -12.9786   20.3822 C   0  0  0  0  0  0  0  0  0  0  0  0
    8.6313  -14.4247   18.9240 C   0  0  2  0  0  0  0  0  0  0  0  0
    7.5539  -14.6784   18.0162 N   0  0  0  0  0  0  0  0  0  0  0  0
    8.6488  -15.4874   19.9595 C   0  0  0  0  0  0  0  0  0  0  0  0
    7.6301  -16.2096   20.1707 O   0  0  0  0  0  0  0  0  0  0  0  0
    9.8119  -15.7146   20.7350 N   0  0  0  0  0  0  0  0  0  0  0  0
    9.9596  -16.9456   21.5669 C   0  0  1  0  0  0  0  0  0  0  0  0
    9.6482  -18.1211   20.7427 C   0  0  0  0  0  0  0  0  0  0  0  0
    9.6560  -19.4173   21.4418 C   0  0  0  0  0  0  0  0  0  0  0  0
    9.9755  -19.6873   22.7671 C   0  0  0  0  0  0  0  0  0  0  0  0
    9.8919  -21.0121   22.9748 N   0  0  0  0  0  0  0  0  0  0  0  0
    9.5283  -21.6038   21.8229 C   0  0  0  0  0  0  0  0  0  0  0  0
    9.3891  -20.6505   20.9134 N   0  0  0  0  0  0  0  0  0  0  0  0
   11.2126  -16.8177   22.2580 C   0  0  0  0  0  0  0  0  0  0  0  0
   12.2954  -16.8517   21.5574 O   0  0  0  0  0  0  0  0  0  0  0  0
   11.4500  -16.6456   23.6569 N   0  0  0  0  0  0  0  0  0  0  0  0
   12.6125  -17.2764   24.2976 C   0  0  1  0  0  0  0  0  0  0  0  0
   12.3547  -18.7553   24.4750 C   0  0  0  0  0  0  0  0  0  0  0  0
   11.6109  -19.0565   25.7105 C   0  0  0  0  0  0  0  0  0  0  0  0
   11.3022  -18.1119   26.5236 O   0  0  0  0  0  0  0  0  0  0  0  0
   13.7794  -17.0793   23.4196 C   0  0  0  0  0  0  0  0  0  0  0  0
   14.5972  -16.1702   23.6476 O   0  0  0  0  0  0  0  0  0  0  0  0
   11.1901  -20.3194   26.1086 O   0  0  0  0  0  0  0  0  0  0  0  0
   13.9821  -17.8936   22.3391 O   0  0  0  0  0  0  0  0  0  0  0  0
  2  4  1  0
  2  1  1  6
  3  2  1  0
  4  5  1  6
  4  6  1  0
  6  7  2  0
  8  6  1  0
  8  9  1  0
  9 16  1  0
  9 10  1  6
 10 11  1  0
 11 12  2  0
 12 13  1  0
 14 13  1  0
 15 11  1  0
 15 14  2  0
 16 17  2  0
 18 19  1  0
 18 16  1  0
 19 23  1  0
 20 21  1  0
 19 20  1  6
 21 22  2  0
 23 24  2  0
 23 26  1  0
 25 21  1  0
M  END
$$$$
