VHD.pdb
     RDKit          3D

 26 26  0  0  1  0  0  0  0  0999 V2000
-1948.2325-15693.6045-21830.8047 C   0  0  0  0  0  0  0  0  0  0  0  0
-1946.7687-15693.3018-21830.6465 C   0  0  1  0  0  0  0  0  0  0  0  0
-1946.1031-15694.4756-21829.9824 C   0  0  0  0  0  0  0  0  0  0  0  0
-1946.1427-15693.0908-21832.0078 C   0  0  2  0  0  0  0  0  0  0  0  0
-1947.0646-15693.2939-21833.0840 N   0  0  0  0  0  0  0  0  0  0  0  0
-1944.9801-15693.9941-21832.1895 C   0  0  0  0  0  0  0  0  0  0  0  0
-1943.7946-15693.5605-21832.0918 O   0  0  0  0  0  0  0  0  0  0  0  0
-1945.1769-15695.3662-21832.4824 N   0  0  0  0  0  0  0  0  0  0  0  0
-1945.6979-15695.8086-21833.8086 C   0  0  1  0  0  0  0  0  0  0  0  0
-1944.6061-15696.4326-21834.5684 C   0  0  0  0  0  0  0  0  0  0  0  0
-1944.9611-15696.9434-21835.9043 C   0  0  0  0  0  0  0  0  0  0  0  0
-1946.1237-15697.5898-21836.3066 C   0  0  0  0  0  0  0  0  0  0  0  0
-1946.0123-15697.9219-21837.6035 N   0  0  0  0  0  0  0  0  0  0  0  0
-1944.8126-15697.5088-21838.0488 C   0  0  0  0  0  0  0  0  0  0  0  0
-1944.1906-15696.9268-21837.0332 N   0  0  0  0  0  0  0  0  0  0  0  0
-1946.9288-15696.5010-21833.5488 C   0  0  0  0  0  0  0  0  0  0  0  0
-1947.4835-15696.3369-21832.3965 O   0  0  0  0  0  0  0  0  0  0  0  0
-1947.6647-15697.3750-21834.4082 N   0  0  0  0  0  0  0  0  0  0  0  0
-1948.6349-15696.8301-21835.3691 C   0  0  1  0  0  0  0  0  0  0  0  0
-1948.4679-15697.5176-21836.7070 C   0  0  0  0  0  0  0  0  0  0  0  0
-1949.6066-15698.3936-21837.0410 C   0  0  0  0  0  0  0  0  0  0  0  0
-1949.6774-15699.5732-21836.5449 O   0  0  0  0  0  0  0  0  0  0  0  0
-1949.9884-15697.0898-21834.8477 C   0  0  0  0  0  0  0  0  0  0  0  0
-1950.2750-15698.1914-21834.3496 O   0  0  0  0  0  0  0  0  0  0  0  0
-1950.6608-15698.0547-21837.8789 O   0  0  0  0  0  0  0  0  0  0  0  0
-1950.9503-15696.1172-21834.8945 O   0  0  0  0  0  0  0  0  0  0  0  0
  2  4  1  0
  2  1  1  6
  3  2  1  0
  4  5  1  6
  4  6  1  0
  6  7  2  0
  8  6  1  0
  8  9  1  0
  9 16  1  0
  9 10  1  1
 10 11  1  0
 11 12  2  0
 12 13  1  0
 14 13  1  0
 15 11  1  0
 15 14  2  0
 16 17  2  0
 18 19  1  0
 18 16  1  0
 19 23  1  0
 20 21  1  0
 19 20  1  6
 21 22  2  0
 23 24  2  0
 23 26  1  0
 25 21  1  0
M  END
$$$$
