SWQ.pdb
     RDKit          3D

 30 31  0  0  1  0  0  0  0  0999 V2000
    9.4518  -18.8192   18.7842 O   0  0  0  0  0  0  0  0  0  0  0  0
    8.1863  -18.2602   18.5598 C   0  0  0  0  0  0  0  0  0  0  0  0
    8.3871  -16.7475   18.5345 C   0  0  2  0  0  0  0  0  0  0  0  0
    9.3339  -16.3874   17.5256 N   0  0  0  0  0  0  0  0  0  0  0  0
    8.7912  -16.2642   19.9003 C   0  0  0  0  0  0  0  0  0  0  0  0
    9.9886  -16.0320   20.1825 O   0  0  0  0  0  0  0  0  0  0  0  0
    7.7877  -16.0737   20.8732 N   0  0  0  0  0  0  0  0  0  0  0  0
    8.0425  -15.6642   22.2290 C   0  0  1  0  0  0  0  0  0  0  0  0
    6.6739  -15.4745   22.8982 C   0  0  0  0  0  0  0  0  0  0  0  0
    6.7890  -15.1162   24.3156 C   0  0  0  0  0  0  0  0  0  0  0  0
    6.7379  -15.9491   25.4125 C   0  0  0  0  0  0  0  0  0  0  0  0
    6.8857  -15.2185   26.5396 N   0  0  0  0  0  0  0  0  0  0  0  0
    7.0338  -13.9193   26.2170 C   0  0  0  0  0  0  0  0  0  0  0  0
    7.2149  -12.7787   26.9677 C   0  0  0  0  0  0  0  0  0  0  0  0
    7.3443  -11.5279   26.3873 C   0  0  0  0  0  0  0  0  0  0  0  0
    7.2859  -11.4561   25.0193 C   0  0  0  0  0  0  0  0  0  0  0  0
    7.1037  -12.6007   24.2565 C   0  0  0  0  0  0  0  0  0  0  0  0
    6.9741  -13.8500   24.8289 C   0  0  0  0  0  0  0  0  0  0  0  0
    8.6885  -16.7855   22.9526 C   0  0  0  0  0  0  0  0  0  0  0  0
    8.5502  -17.9443   22.4647 O   0  0  0  0  0  0  0  0  0  0  0  0
   13.9970  -18.9425   23.0137 N   0  0  0  0  0  0  0  0  0  0  0  0
   13.9929  -17.5634   23.2446 C   0  0  0  0  0  0  0  0  0  0  0  0
   15.0214  -16.8805   23.0511 O   0  0  0  0  0  0  0  0  0  0  0  0
   12.7669  -16.8464   23.7302 C   0  0  0  0  0  0  0  0  0  0  0  0
   11.5267  -17.5691   23.3375 C   0  0  0  0  0  0  0  0  0  0  0  0
   10.5054  -17.5806   24.4195 C   0  0  2  0  0  0  0  0  0  0  0  0
    9.4350  -16.6109   24.1388 N   0  0  0  0  0  0  0  0  0  0  0  0
   11.1057  -17.2421   25.7275 C   0  0  0  0  0  0  0  0  0  0  0  0
   11.9904  -17.9013   26.3128 O   0  0  0  0  0  0  0  0  0  0  0  0
   10.6848  -16.0861   26.4258 O   0  0  0  0  0  0  0  0  0  0  0  0
  2  1  1  0
  3  2  1  0
  3  4  1  6
  5  3  1  0
  5  6  2  0
  7  5  1  0
  8  7  1  0
  9 10  1  0
  8  9  1  1
 10 18  1  0
 11 10  2  0
 11 12  1  0
 12 13  1  0
 13 14  1  0
 14 15  2  0
 16 15  1  0
 17 16  2  0
 18 13  2  0
 18 17  1  0
 19  8  1  0
 19 27  1  0
 20 19  2  0
 21 22  1  0
 22 23  2  0
 22 24  1  0
 24 25  1  0
 26 25  1  6
 26 27  1  0
 26 28  1  0
 28 29  2  0
 28 30  1  0
M  END
$$$$
