SWQ.pdb
     RDKit          3D

 30 31  0  0  1  0  0  0  0  0999 V2000
    8.4050  -17.4771   20.2264 O   0  0  0  0  0  0  0  0  0  0  0  0
    7.1022  -17.0672   20.5415 C   0  0  0  0  0  0  0  0  0  0  0  0
    7.1934  -15.5824   20.8826 C   0  0  2  0  0  0  0  0  0  0  0  0
    7.2855  -14.8017   19.6885 N   0  0  0  0  0  0  0  0  0  0  0  0
    8.3489  -15.3440   21.8155 C   0  0  0  0  0  0  0  0  0  0  0  0
    9.3554  -14.6929   21.4545 O   0  0  0  0  0  0  0  0  0  0  0  0
    8.2820  -15.8722   23.1218 N   0  0  0  0  0  0  0  0  0  0  0  0
    9.2769  -15.6481   24.1371 C   0  0  1  0  0  0  0  0  0  0  0  0
    8.5938  -15.8999   25.4886 C   0  0  0  0  0  0  0  0  0  0  0  0
    7.5132  -14.9451   25.7559 C   0  0  0  0  0  0  0  0  0  0  0  0
    6.1634  -15.1966   25.8757 C   0  0  0  0  0  0  0  0  0  0  0  0
    5.5104  -14.0398   26.1231 N   0  0  0  0  0  0  0  0  0  0  0  0
    6.3950  -13.0253   26.1705 C   0  0  0  0  0  0  0  0  0  0  0  0
    6.2625  -11.6714   26.3867 C   0  0  0  0  0  0  0  0  0  0  0  0
    7.3516  -10.8157   26.3870 C   0  0  0  0  0  0  0  0  0  0  0  0
    8.5876  -11.3647   26.1617 C   0  0  0  0  0  0  0  0  0  0  0  0
    8.7288  -12.7276   25.9432 C   0  0  0  0  0  0  0  0  0  0  0  0
    7.6476  -13.5855   25.9417 C   0  0  0  0  0  0  0  0  0  0  0  0
   10.3233  -16.6917   24.0182 C   0  0  0  0  0  0  0  0  0  0  0  0
   10.3541  -17.5840   24.9143 O   0  0  0  0  0  0  0  0  0  0  0  0
   14.1169  -18.2473   19.1501 N   0  0  0  0  0  0  0  0  0  0  0  0
   12.7206  -18.2234   19.2199 C   0  0  0  0  0  0  0  0  0  0  0  0
   12.0280  -18.2922   18.1821 O   0  0  0  0  0  0  0  0  0  0  0  0
   11.9960  -18.1150   20.5300 C   0  0  0  0  0  0  0  0  0  0  0  0
   12.9450  -17.9080   21.6573 C   0  0  0  0  0  0  0  0  0  0  0  0
   12.2569  -17.8112   22.9730 C   0  0  2  0  0  0  0  0  0  0  0  0
   11.2645  -16.7250   22.9657 N   0  0  0  0  0  0  0  0  0  0  0  0
   13.2200  -17.5515   24.0642 C   0  0  0  0  0  0  0  0  0  0  0  0
   13.2316  -16.5403   24.7972 O   0  0  0  0  0  0  0  0  0  0  0  0
   14.2388  -18.4898   24.3524 O   0  0  0  0  0  0  0  0  0  0  0  0
  2  1  1  0
  3  2  1  0
  3  4  1  6
  5  3  1  0
  5  6  2  0
  7  5  1  0
  8  7  1  0
  9 10  1  0
  8  9  1  1
 10 18  1  0
 11 10  2  0
 11 12  1  0
 12 13  1  0
 13 14  1  0
 14 15  2  0
 16 15  1  0
 17 16  2  0
 18 13  2  0
 18 17  1  0
 19  8  1  0
 19 27  1  0
 20 19  2  0
 21 22  1  0
 22 23  2  0
 22 24  1  0
 24 25  1  0
 26 25  1  6
 26 27  1  0
 26 28  1  0
 28 29  2  0
 28 30  1  0
M  END
$$$$
