SWQ.pdb
     RDKit          3D

 30 31  0  0  1  0  0  0  0  0999 V2000
   10.6825  -18.5335   18.8686 O   0  0  0  0  0  0  0  0  0  0  0  0
    9.4562  -18.0682   19.3626 C   0  0  0  0  0  0  0  0  0  0  0  0
    9.4404  -16.5625   19.1144 C   0  0  2  0  0  0  0  0  0  0  0  0
   10.5011  -16.1922   18.2302 N   0  0  0  0  0  0  0  0  0  0  0  0
    9.5034  -15.8292   20.4261 C   0  0  0  0  0  0  0  0  0  0  0  0
   10.4985  -15.1372   20.7397 O   0  0  0  0  0  0  0  0  0  0  0  0
    8.4099  -15.9337   21.3111 N   0  0  0  0  0  0  0  0  0  0  0  0
    8.4297  -15.4847   22.6782 C   0  0  1  0  0  0  0  0  0  0  0  0
    7.0041  -15.6580   23.2210 C   0  0  0  0  0  0  0  0  0  0  0  0
    6.8942  -15.2829   24.6345 C   0  0  0  0  0  0  0  0  0  0  0  0
    6.7226  -16.1083   25.7248 C   0  0  0  0  0  0  0  0  0  0  0  0
    6.6700  -15.3622   26.8502 N   0  0  0  0  0  0  0  0  0  0  0  0
    6.8027  -14.0601   26.5330 C   0  0  0  0  0  0  0  0  0  0  0  0
    6.8189  -12.9060   27.2847 C   0  0  0  0  0  0  0  0  0  0  0  0
    6.9731  -11.6552   26.7104 C   0  0  0  0  0  0  0  0  0  0  0  0
    7.1117  -11.5975   25.3475 C   0  0  0  0  0  0  0  0  0  0  0  0
    7.0964  -12.7558   24.5837 C   0  0  0  0  0  0  0  0  0  0  0  0
    6.9431  -14.0051   25.1501 C   0  0  0  0  0  0  0  0  0  0  0  0
    9.2740  -16.4096   23.4718 C   0  0  0  0  0  0  0  0  0  0  0  0
    9.1328  -17.6483   23.2583 O   0  0  0  0  0  0  0  0  0  0  0  0
   15.1381  -15.8924   24.1393 N   0  0  0  0  0  0  0  0  0  0  0  0
   14.3975  -16.6205   23.2031 C   0  0  0  0  0  0  0  0  0  0  0  0
   14.9365  -17.0606   22.1652 O   0  0  0  0  0  0  0  0  0  0  0  0
   12.9366  -16.9047   23.3985 C   0  0  0  0  0  0  0  0  0  0  0  0
   12.5188  -16.6469   24.8032 C   0  0  0  0  0  0  0  0  0  0  0  0
   11.0882  -16.9779   25.0436 C   0  0  2  0  0  0  0  0  0  0  0  0
   10.2081  -15.9681   24.4349 N   0  0  0  0  0  0  0  0  0  0  0  0
   10.7882  -17.0423   26.4899 C   0  0  0  0  0  0  0  0  0  0  0  0
   11.3809  -17.7593   27.3233 O   0  0  0  0  0  0  0  0  0  0  0  0
    9.7533  -16.2486   27.0380 O   0  0  0  0  0  0  0  0  0  0  0  0
  2  1  1  0
  3  2  1  0
  3  4  1  6
  5  3  1  0
  5  6  2  0
  7  5  1  0
  8  7  1  0
  9 10  1  0
  8  9  1  1
 10 18  1  0
 11 10  2  0
 11 12  1  0
 12 13  1  0
 13 14  1  0
 14 15  2  0
 16 15  1  0
 17 16  2  0
 18 13  2  0
 18 17  1  0
 19  8  1  0
 19 27  1  0
 20 19  2  0
 21 22  1  0
 22 23  2  0
 22 24  1  0
 24 25  1  0
 26 25  1  1
 26 27  1  0
 26 28  1  0
 28 29  2  0
 28 30  1  0
M  END
$$$$
