SWQ.pdb
     RDKit          3D

 30 31  0  0  1  0  0  0  0  0999 V2000
    9.5494  -17.8781   18.6679 O   0  0  0  0  0  0  0  0  0  0  0  0
    8.1789  -17.5896   18.6136 C   0  0  0  0  0  0  0  0  0  0  0  0
    8.0601  -16.0699   18.6889 C   0  0  2  0  0  0  0  0  0  0  0  0
    8.7894  -15.4597   17.6215 N   0  0  0  0  0  0  0  0  0  0  0  0
    8.5113  -15.5900   20.0411 C   0  0  0  0  0  0  0  0  0  0  0  0
    9.6344  -15.0617   20.2047 O   0  0  0  0  0  0  0  0  0  0  0  0
    7.6387  -15.7458   21.1385 N   0  0  0  0  0  0  0  0  0  0  0  0
    7.9663  -15.3797   22.4911 C   0  0  1  0  0  0  0  0  0  0  0  0
    6.7272  -15.6852   23.3443 C   0  0  0  0  0  0  0  0  0  0  0  0
    6.8988  -15.2835   24.7442 C   0  0  0  0  0  0  0  0  0  0  0  0
    7.0843  -16.0903   25.8462 C   0  0  0  0  0  0  0  0  0  0  0  0
    7.1997  -15.3222   26.9519 N   0  0  0  0  0  0  0  0  0  0  0  0
    7.0952  -14.0236   26.6102 C   0  0  0  0  0  0  0  0  0  0  0  0
    7.1414  -12.8537   27.3358 C   0  0  0  0  0  0  0  0  0  0  0  0
    7.0050  -11.6113   26.7391 C   0  0  0  0  0  0  0  0  0  0  0  0
    6.8195  -11.5786   25.3810 C   0  0  0  0  0  0  0  0  0  0  0  0
    6.7720  -12.7530   24.6435 C   0  0  0  0  0  0  0  0  0  0  0  0
    6.9072  -13.9940   25.2322 C   0  0  0  0  0  0  0  0  0  0  0  0
    9.0269  -16.2890   22.9878 C   0  0  0  0  0  0  0  0  0  0  0  0
    8.9707  -17.4979   22.6200 O   0  0  0  0  0  0  0  0  0  0  0  0
   16.1399  -17.0601   23.9375 N   0  0  0  0  0  0  0  0  0  0  0  0
   14.9067  -16.5953   23.4702 C   0  0  0  0  0  0  0  0  0  0  0  0
   14.8492  -15.6789   22.6226 O   0  0  0  0  0  0  0  0  0  0  0  0
   13.6085  -17.1686   23.9592 C   0  0  0  0  0  0  0  0  0  0  0  0
   12.4638  -16.2796   23.6219 C   0  0  0  0  0  0  0  0  0  0  0  0
   11.1624  -16.8160   24.1042 C   0  0  2  0  0  0  0  0  0  0  0  0
   10.0728  -15.8643   23.8366 N   0  0  0  0  0  0  0  0  0  0  0  0
   11.1978  -17.0829   25.5579 C   0  0  0  0  0  0  0  0  0  0  0  0
   10.5337  -16.4758   26.4241 O   0  0  0  0  0  0  0  0  0  0  0  0
   12.0350  -18.0995   26.0745 O   0  0  0  0  0  0  0  0  0  0  0  0
  2  1  1  0
  3  2  1  0
  3  4  1  6
  5  3  1  0
  5  6  2  0
  7  5  1  0
  8  7  1  0
  9 10  1  0
  8  9  1  1
 10 18  1  0
 11 10  2  0
 11 12  1  0
 12 13  1  0
 13 14  1  0
 14 15  2  0
 16 15  1  0
 17 16  2  0
 18 13  2  0
 18 17  1  0
 19  8  1  0
 19 27  1  0
 20 19  2  0
 21 22  1  0
 22 23  2  0
 22 24  1  0
 24 25  1  0
 26 25  1  1
 26 27  1  0
 26 28  1  0
 28 29  2  0
 28 30  1  0
M  END
$$$$
