SWQ.pdb
     RDKit          3D

 30 31  0  0  1  0  0  0  0  0999 V2000
   10.2001  -18.9358   20.5957 O   0  0  0  0  0  0  0  0  0  0  0  0
   10.7774  -18.2129   19.5428 C   0  0  0  0  0  0  0  0  0  0  0  0
    9.9053  -16.9758   19.3469 C   0  0  2  0  0  0  0  0  0  0  0  0
   10.3509  -16.2267   18.2136 N   0  0  0  0  0  0  0  0  0  0  0  0
    9.8925  -16.1565   20.6082 C   0  0  0  0  0  0  0  0  0  0  0  0
   10.8326  -15.3798   20.8915 O   0  0  0  0  0  0  0  0  0  0  0  0
    8.7904  -16.2774   21.4804 N   0  0  0  0  0  0  0  0  0  0  0  0
    8.6592  -15.5623   22.7223 C   0  0  1  0  0  0  0  0  0  0  0  0
    7.1880  -15.6773   23.1453 C   0  0  0  0  0  0  0  0  0  0  0  0
    6.9376  -15.0889   24.4651 C   0  0  0  0  0  0  0  0  0  0  0  0
    6.5295  -15.7238   25.6183 C   0  0  0  0  0  0  0  0  0  0  0  0
    6.4165  -14.8182   26.6148 N   0  0  0  0  0  0  0  0  0  0  0  0
    6.7401  -13.5961   26.1505 C   0  0  0  0  0  0  0  0  0  0  0  0
    6.7913  -12.3507   26.7367 C   0  0  0  0  0  0  0  0  0  0  0  0
    7.1637  -11.2191   26.0303 C   0  0  0  0  0  0  0  0  0  0  0  0
    7.4859  -11.3768   24.7069 C   0  0  0  0  0  0  0  0  0  0  0  0
    7.4367  -12.6283   24.1097 C   0  0  0  0  0  0  0  0  0  0  0  0
    7.0664  -13.7596   24.8081 C   0  0  0  0  0  0  0  0  0  0  0  0
    9.4319  -16.2755   23.7675 C   0  0  0  0  0  0  0  0  0  0  0  0
    9.3358  -17.5364   23.7980 O   0  0  0  0  0  0  0  0  0  0  0  0
    8.2070  -19.2872   27.4710 N   0  0  0  0  0  0  0  0  0  0  0  0
    9.4536  -19.0905   28.0731 C   0  0  0  0  0  0  0  0  0  0  0  0
    9.7768  -19.7312   29.0961 O   0  0  0  0  0  0  0  0  0  0  0  0
   10.4510  -18.1116   27.5253 C   0  0  0  0  0  0  0  0  0  0  0  0
    9.8839  -17.3437   26.3837 C   0  0  0  0  0  0  0  0  0  0  0  0
   10.8788  -16.4303   25.7593 C   0  0  2  0  0  0  0  0  0  0  0  0
   10.2519  -15.6138   24.7081 N   0  0  0  0  0  0  0  0  0  0  0  0
   11.9956  -17.1867   25.1540 C   0  0  0  0  0  0  0  0  0  0  0  0
   12.1878  -17.3428   23.9298 O   0  0  0  0  0  0  0  0  0  0  0  0
   12.9619  -17.8102   25.9779 O   0  0  0  0  0  0  0  0  0  0  0  0
  2  1  1  0
  3  2  1  0
  3  4  1  6
  5  3  1  0
  5  6  2  0
  7  5  1  0
  8  7  1  0
  9 10  1  0
  8  9  1  1
 10 18  1  0
 11 10  2  0
 11 12  1  0
 12 13  1  0
 13 14  1  0
 14 15  2  0
 16 15  1  0
 17 16  2  0
 18 13  2  0
 18 17  1  0
 19  8  1  0
 19 27  1  0
 20 19  2  0
 21 22  1  0
 22 23  2  0
 22 24  1  0
 24 25  1  0
 26 25  1  6
 26 27  1  0
 26 28  1  0
 28 29  2  0
 28 30  1  0
M  END
$$$$
