SWQ.pdb
     RDKit          3D

 30 31  0  0  1  0  0  0  0  0999 V2000
    9.5797  -15.0460   17.8438 O   0  0  0  0  0  0  0  0  0  0  0  0
    8.1786  -15.0736   17.8664 C   0  0  0  0  0  0  0  0  0  0  0  0
    7.7388  -13.7980   18.5797 C   0  0  2  0  0  0  0  0  0  0  0  0
    8.1515  -12.6462   17.8403 N   0  0  0  0  0  0  0  0  0  0  0  0
    8.2648  -13.7951   19.9889 C   0  0  0  0  0  0  0  0  0  0  0  0
    9.3538  -13.2494   20.2777 O   0  0  0  0  0  0  0  0  0  0  0  0
    7.5029  -14.4250   20.9951 N   0  0  0  0  0  0  0  0  0  0  0  0
    7.8683  -14.4560   22.3867 C   0  0  1  0  0  0  0  0  0  0  0  0
    6.5827  -14.7429   23.1750 C   0  0  0  0  0  0  0  0  0  0  0  0
    6.8031  -14.7403   24.6249 C   0  0  0  0  0  0  0  0  0  0  0  0
    6.9282  -15.8216   25.4703 C   0  0  0  0  0  0  0  0  0  0  0  0
    7.1218  -15.3847   26.7342 N   0  0  0  0  0  0  0  0  0  0  0  0
    7.1282  -14.0380   26.7484 C   0  0  0  0  0  0  0  0  0  0  0  0
    7.2841  -13.1088   27.7532 C   0  0  0  0  0  0  0  0  0  0  0  0
    7.2512  -11.7461   27.5077 C   0  0  0  0  0  0  0  0  0  0  0  0
    7.0555  -11.3411   26.2124 C   0  0  0  0  0  0  0  0  0  0  0  0
    6.8977  -12.2713   25.1950 C   0  0  0  0  0  0  0  0  0  0  0  0
    6.9295  -13.6304   25.4332 C   0  0  0  0  0  0  0  0  0  0  0  0
    8.7501  -15.6243   22.6224 C   0  0  0  0  0  0  0  0  0  0  0  0
    8.4970  -16.6799   21.9729 O   0  0  0  0  0  0  0  0  0  0  0  0
   13.7153  -16.4175   20.6537 N   0  0  0  0  0  0  0  0  0  0  0  0
   13.6799  -15.5083   21.7153 C   0  0  0  0  0  0  0  0  0  0  0  0
   14.4436  -14.5193   21.7348 O   0  0  0  0  0  0  0  0  0  0  0  0
   12.7338  -15.6753   22.8686 C   0  0  0  0  0  0  0  0  0  0  0  0
   11.7681  -16.7799   22.6200 C   0  0  0  0  0  0  0  0  0  0  0  0
   10.6675  -16.8125   23.6208 C   0  0  2  0  0  0  0  0  0  0  0  0
    9.8367  -15.6020   23.5244 N   0  0  0  0  0  0  0  0  0  0  0  0
   11.1973  -16.9022   24.9981 C   0  0  0  0  0  0  0  0  0  0  0  0
   10.9731  -16.0865   25.9170 O   0  0  0  0  0  0  0  0  0  0  0  0
   12.0354  -17.9798   25.3694 O   0  0  0  0  0  0  0  0  0  0  0  0
  2  1  1  0
  3  2  1  0
  3  4  1  6
  5  3  1  0
  5  6  2  0
  7  5  1  0
  8  7  1  0
  9 10  1  0
  8  9  1  1
 10 18  1  0
 11 10  2  0
 11 12  1  0
 12 13  1  0
 13 14  1  0
 14 15  2  0
 16 15  1  0
 17 16  2  0
 18 13  2  0
 18 17  1  0
 19  8  1  0
 19 27  1  0
 20 19  2  0
 21 22  1  0
 22 23  2  0
 22 24  1  0
 24 25  1  0
 26 25  1  6
 26 27  1  0
 26 28  1  0
 28 29  2  0
 28 30  1  0
M  END
$$$$
