RAK.pdb
     RDKit          3D

 26 25  0  0  1  0  0  0  0  0999 V2000
    9.8272  -13.9731   17.6786 N   0  0  0  0  0  0  0  0  0  0  0  0
    8.7921  -13.1457   18.1705 C   0  0  0  0  0  0  0  0  0  0  0  0
    9.0072  -11.8937   18.4962 N   0  0  0  0  0  0  0  0  0  0  0  0
    7.4933  -13.7061   18.3081 N   0  0  0  0  0  0  0  0  0  0  0  0
    7.0897  -14.3820   19.4950 C   0  0  0  0  0  0  0  0  0  0  0  0
    7.9554  -14.0531   20.6922 C   0  0  0  0  0  0  0  0  0  0  0  0
    7.4050  -14.8456   21.8670 C   0  0  0  0  0  0  0  0  0  0  0  0
    7.8985  -16.2810   21.8322 C   0  0  2  0  0  0  0  0  0  0  0  0
    6.9019  -17.1806   21.3447 N   0  0  0  0  0  0  0  0  0  0  0  0
    8.3578  -16.7250   23.1655 C   0  0  0  0  0  0  0  0  0  0  0  0
    7.4907  -16.8846   24.0897 O   0  0  0  0  0  0  0  0  0  0  0  0
    8.2433  -11.2946   18.8589 C   0  0  0  0  0  0  0  0  0  0  0  0
   11.4973  -18.2448   24.5233 C   0  0  1  0  0  0  0  0  0  0  0  0
   10.1765  -17.5129   24.6804 N   0  0  0  0  0  0  0  0  0  0  0  0
    9.7235  -16.9673   23.4111 C   0  0  0  0  0  0  0  0  0  0  0  0
   10.3768  -16.4144   25.6512 O   0  0  0  0  0  0  0  0  0  0  0  0
   10.9129  -15.3424   25.2741 N   0  0  0  0  0  0  0  0  0  0  0  0
    9.9706  -16.5686   26.9882 C   0  0  1  0  0  0  0  0  0  0  0  0
   10.2567  -15.4205   27.9451 C   0  0  0  0  0  0  0  0  0  0  0  0
    8.9397  -14.7870   28.1266 C   0  0  0  0  0  0  0  0  0  0  0  0
    8.4360  -13.6547   27.3819 C   0  0  0  0  0  0  0  0  0  0  0  0
    7.0185  -13.2345   27.4198 C   0  0  0  0  0  0  0  0  0  0  0  0
    6.8458  -11.9498   26.5367 N   0  0  0  0  0  0  0  0  0  0  0  0
    5.4573  -11.5375   26.6107 C   0  0  0  0  0  0  0  0  0  0  0  0
   10.8265  -16.0853   29.1508 O   0  0  0  0  0  0  0  0  0  0  0  0
   10.7559  -17.2946   29.3822 O   0  0  0  0  0  0  0  0  0  0  0  0
  1  2  1  0
  2  4  1  0
  3  2  2  0
  5  4  1  0
  5  6  1  0
  6  7  1  0
  7  8  1  0
  8 10  1  0
  8  9  1  1
 10 11  2  0
 13 12  1  6
 13 15  1  0
 14 10  1  0
 14 13  1  0
 15 17  1  0
 15 16  2  0
 17 18  1  0
 18 24  1  0
 18 19  1  1
 20 19  1  0
 21 20  1  0
 22 23  1  0
 22 21  1  0
 24 25  2  0
 24 26  1  0
M  END
$$$$
