RAK.pdb
     RDKit          3D

 26 25  0  0  1  0  0  0  0  0999 V2000
   13.4245  -15.8018   18.1703 N   0  0  0  0  0  0  0  0  0  0  0  0
   12.0614  -15.4362   18.2472 C   0  0  0  0  0  0  0  0  0  0  0  0
   11.6337  -14.2760   17.8105 N   0  0  0  0  0  0  0  0  0  0  0  0
   11.1487  -16.3650   18.8168 N   0  0  0  0  0  0  0  0  0  0  0  0
    9.7709  -16.0508   18.9936 C   0  0  0  0  0  0  0  0  0  0  0  0
    9.5462  -14.7523   19.7382 C   0  0  0  0  0  0  0  0  0  0  0  0
    8.0442  -14.5214   19.7813 C   0  0  0  0  0  0  0  0  0  0  0  0
    7.7131  -13.2423   20.5293 C   0  0  2  0  0  0  0  0  0  0  0  0
    8.3505  -12.1016   19.9523 N   0  0  0  0  0  0  0  0  0  0  0  0
    8.0780  -13.3443   21.9583 C   0  0  0  0  0  0  0  0  0  0  0  0
    9.3153  -13.3915   22.2723 O   0  0  0  0  0  0  0  0  0  0  0  0
   10.6252  -14.0376   17.8193 C   0  0  0  0  0  0  0  0  0  0  0  0
    6.2431  -13.0788   25.2369 C   0  0  2  0  0  0  0  0  0  0  0  0
    7.4265  -13.4557   24.3639 N   0  0  0  0  0  0  0  0  0  0  0  0
    7.0816  -13.3882   22.9530 C   0  0  0  0  0  0  0  0  0  0  0  0
    7.8286  -14.8362   24.7124 O   0  0  0  0  0  0  0  0  0  0  0  0
    7.2766  -15.8077   24.1376 N   0  0  0  0  0  0  0  0  0  0  0  0
    8.8221  -15.0608   25.6814 C   0  0  1  0  0  0  0  0  0  0  0  0
    9.1998  -16.5049   25.9772 C   0  0  0  0  0  0  0  0  0  0  0  0
   10.5529  -16.6303   25.4098 C   0  0  0  0  0  0  0  0  0  0  0  0
   11.4085  -17.7913   25.5118 C   0  0  0  0  0  0  0  0  0  0  0  0
   12.7515  -17.8562   24.8959 C   0  0  0  0  0  0  0  0  0  0  0  0
   13.3869  -19.2555   25.2092 N   0  0  0  0  0  0  0  0  0  0  0  0
   14.7058  -19.2946   24.6072 C   0  0  0  0  0  0  0  0  0  0  0  0
    9.1083  -16.6081   27.4609 O   0  0  0  0  0  0  0  0  0  0  0  0
    9.1308  -17.6678   28.0914 O   0  0  0  0  0  0  0  0  0  0  0  0
  1  2  1  0
  2  4  1  0
  3  2  2  0
  5  4  1  0
  5  6  1  0
  6  7  1  0
  7  8  1  0
  8 10  1  0
  8  9  1  6
 10 11  2  0
 13 12  1  6
 13 15  1  0
 14 10  1  0
 14 13  1  0
 15 17  1  0
 15 16  2  0
 17 18  1  0
 18 24  1  0
 18 19  1  1
 20 19  1  0
 21 20  1  0
 22 23  1  0
 22 21  1  0
 24 25  2  0
 24 26  1  0
M  END
$$$$
