RAK.pdb
     RDKit          3D

 26 25  0  0  1  0  0  0  0  0999 V2000
    8.5463  -12.5184   16.6653 N   0  0  0  0  0  0  0  0  0  0  0  0
    8.2117  -13.8329   16.2681 C   0  0  0  0  0  0  0  0  0  0  0  0
    7.3525  -14.0637   15.3047 N   0  0  0  0  0  0  0  0  0  0  0  0
    8.8341  -14.9171   16.9444 N   0  0  0  0  0  0  0  0  0  0  0  0
    8.0747  -15.9232   17.6072 C   0  0  0  0  0  0  0  0  0  0  0  0
    6.9478  -15.3627   18.4480 C   0  0  0  0  0  0  0  0  0  0  0  0
    7.0905  -15.9644   19.8367 C   0  0  0  0  0  0  0  0  0  0  0  0
    8.2626  -15.3463   20.5781 C   0  0  2  0  0  0  0  0  0  0  0  0
    9.4720  -15.4105   19.8210 N   0  0  0  0  0  0  0  0  0  0  0  0
    8.4665  -15.9888   21.8939 C   0  0  0  0  0  0  0  0  0  0  0  0
    7.5264  -15.9291   22.7565 O   0  0  0  0  0  0  0  0  0  0  0  0
    7.0435  -15.0271   15.0804 C   0  0  0  0  0  0  0  0  0  0  0  0
   11.1943  -18.0397   23.5232 C   0  0  2  0  0  0  0  0  0  0  0  0
    9.9243  -17.2081   23.5100 N   0  0  0  0  0  0  0  0  0  0  0  0
    9.6728  -16.6533   22.1897 C   0  0  0  0  0  0  0  0  0  0  0  0
   10.0883  -16.1102   24.4882 O   0  0  0  0  0  0  0  0  0  0  0  0
   10.8575  -15.1526   24.2238 N   0  0  0  0  0  0  0  0  0  0  0  0
    9.3883  -16.1378   25.7071 C   0  0  1  0  0  0  0  0  0  0  0  0
    9.4947  -14.9139   26.6050 C   0  0  0  0  0  0  0  0  0  0  0  0
    8.2430  -14.1839   26.3421 C   0  0  0  0  0  0  0  0  0  0  0  0
    7.8047  -12.9849   27.0210 C   0  0  0  0  0  0  0  0  0  0  0  0
    6.5386  -12.2939   26.6941 C   0  0  0  0  0  0  0  0  0  0  0  0
    6.4053  -11.0218   27.6019 N   0  0  0  0  0  0  0  0  0  0  0  0
    5.1672  -10.3507   27.2553 C   0  0  0  0  0  0  0  0  0  0  0  0
    9.6379  -15.4799   27.9759 O   0  0  0  0  0  0  0  0  0  0  0  0
    9.3250  -16.6295   28.2945 O   0  0  0  0  0  0  0  0  0  0  0  0
  1  2  1  0
  2  4  1  0
  3  2  2  0
  5  4  1  0
  5  6  1  0
  6  7  1  0
  7  8  1  0
  8 10  1  0
  8  9  1  6
 10 11  2  0
 13 12  1  6
 13 15  1  0
 14 10  1  0
 14 13  1  0
 15 17  1  0
 15 16  2  0
 17 18  1  0
 18 24  1  0
 18 19  1  1
 20 19  1  0
 21 20  1  0
 22 23  1  0
 22 21  1  0
 24 25  2  0
 24 26  1  0
M  END
$$$$
