RAK.pdb
     RDKit          3D

 26 25  0  0  1  0  0  0  0  0999 V2000
    9.1787  -14.8600   15.9017 N   0  0  0  0  0  0  0  0  0  0  0  0
    8.2136  -13.8798   15.5768 C   0  0  0  0  0  0  0  0  0  0  0  0
    7.6115  -13.8655   14.4120 N   0  0  0  0  0  0  0  0  0  0  0  0
    7.9040  -12.8938   16.5526 N   0  0  0  0  0  0  0  0  0  0  0  0
    8.4989  -12.9061   17.8466 C   0  0  0  0  0  0  0  0  0  0  0  0
    8.0206  -14.0521   18.7119 C   0  0  0  0  0  0  0  0  0  0  0  0
    8.7630  -13.9476   20.0343 C   0  0  0  0  0  0  0  0  0  0  0  0
    8.3927  -15.0954   20.9567 C   0  0  2  0  0  0  0  0  0  0  0  0
    6.9964  -15.3929   20.9113 N   0  0  0  0  0  0  0  0  0  0  0  0
    8.7951  -14.8163   22.3517 C   0  0  0  0  0  0  0  0  0  0  0  0
   10.0404  -14.7466   22.6273 O   0  0  0  0  0  0  0  0  0  0  0  0
    6.8925  -13.1535   14.1880 C   0  0  0  0  0  0  0  0  0  0  0  0
    7.0695  -13.7497   25.5166 C   0  0  2  0  0  0  0  0  0  0  0  0
    8.2063  -14.3864   24.7375 N   0  0  0  0  0  0  0  0  0  0  0  0
    7.8248  -14.6308   23.3559 C   0  0  0  0  0  0  0  0  0  0  0  0
    8.5470  -15.6679   25.3939 O   0  0  0  0  0  0  0  0  0  0  0  0
    7.6272  -16.4355   25.7727 N   0  0  0  0  0  0  0  0  0  0  0  0
    9.8919  -16.0253   25.5937 C   0  0  1  0  0  0  0  0  0  0  0  0
   10.1713  -17.3846   26.2181 C   0  0  0  0  0  0  0  0  0  0  0  0
   11.4892  -17.7502   25.6720 C   0  0  0  0  0  0  0  0  0  0  0  0
   12.0696  -19.0744   25.6790 C   0  0  0  0  0  0  0  0  0  0  0  0
   13.4011  -19.3709   25.1075 C   0  0  0  0  0  0  0  0  0  0  0  0
   13.7058  -20.8980   25.2953 N   0  0  0  0  0  0  0  0  0  0  0  0
   14.9960  -21.1756   24.6939 C   0  0  0  0  0  0  0  0  0  0  0  0
   10.1277  -17.1268   27.6851 O   0  0  0  0  0  0  0  0  0  0  0  0
    9.7862  -17.9562   28.5315 O   0  0  0  0  0  0  0  0  0  0  0  0
  1  2  1  0
  2  4  1  0
  3  2  2  0
  5  4  1  0
  5  6  1  0
  6  7  1  0
  7  8  1  0
  8 10  1  0
  8  9  1  1
 10 11  2  0
 13 12  1  6
 13 15  1  0
 14 10  1  0
 14 13  1  0
 15 17  1  0
 15 16  2  0
 17 18  1  0
 18 24  1  0
 18 19  1  1
 20 19  1  0
 21 20  1  0
 22 23  1  0
 22 21  1  0
 24 25  2  0
 24 26  1  0
M  END
$$$$
