RAK.pdb
     RDKit          3D

 26 25  0  0  1  0  0  0  0  0999 V2000
    7.9753  -14.2324   15.6062 N   0  0  0  0  0  0  0  0  0  0  0  0
    8.2122  -13.7795   16.9240 C   0  0  0  0  0  0  0  0  0  0  0  0
    7.5097  -12.8080   17.4552 N   0  0  0  0  0  0  0  0  0  0  0  0
    9.2435  -14.4072   17.6739 N   0  0  0  0  0  0  0  0  0  0  0  0
    9.5445  -14.0156   19.0098 C   0  0  0  0  0  0  0  0  0  0  0  0
    8.6382  -14.6578   20.0380 C   0  0  0  0  0  0  0  0  0  0  0  0
    9.0972  -14.1655   21.4011 C   0  0  0  0  0  0  0  0  0  0  0  0
    8.2482  -14.7643   22.5084 C   0  0  2  0  0  0  0  0  0  0  0  0
    6.8787  -14.8959   22.1246 N   0  0  0  0  0  0  0  0  0  0  0  0
    8.3410  -13.9660   23.7493 C   0  0  0  0  0  0  0  0  0  0  0  0
    9.4579  -13.4212   24.0447 O   0  0  0  0  0  0  0  0  0  0  0  0
    7.6530  -12.5181   18.4398 C   0  0  0  0  0  0  0  0  0  0  0  0
    5.8675  -12.5786   26.2224 C   0  0  2  0  0  0  0  0  0  0  0  0
    7.2652  -12.9395   25.7525 N   0  0  0  0  0  0  0  0  0  0  0  0
    7.2203  -13.8094   24.5883 C   0  0  0  0  0  0  0  0  0  0  0  0
    7.9554  -13.6307   26.8638 O   0  0  0  0  0  0  0  0  0  0  0  0
    8.0680  -13.0584   27.9767 N   0  0  0  0  0  0  0  0  0  0  0  0
    8.4830  -14.9203   26.6764 C   0  0  2  0  0  0  0  0  0  0  0  0
    9.2131  -15.5569   27.8500 C   0  0  0  0  0  0  0  0  0  0  0  0
    9.6064  -16.8792   27.3348 C   0  0  0  0  0  0  0  0  0  0  0  0
   10.4245  -17.8482   28.0292 C   0  0  0  0  0  0  0  0  0  0  0  0
   10.8321  -19.1353   27.4255 C   0  0  0  0  0  0  0  0  0  0  0  0
   11.6877  -19.9368   28.4675 N   0  0  0  0  0  0  0  0  0  0  0  0
   12.0008  -21.2303   27.8912 C   0  0  0  0  0  0  0  0  0  0  0  0
   10.3318  -14.6152   28.1364 O   0  0  0  0  0  0  0  0  0  0  0  0
   10.8853  -13.9082   27.2909 O   0  0  0  0  0  0  0  0  0  0  0  0
  1  2  1  0
  2  4  1  0
  3  2  2  0
  5  4  1  0
  5  6  1  0
  6  7  1  0
  7  8  1  0
  8 10  1  0
  8  9  1  6
 10 11  2  0
 13 12  1  6
 13 15  1  0
 14 10  1  0
 14 13  1  0
 15 17  1  0
 15 16  2  0
 17 18  1  0
 18 24  1  0
 18 19  1  6
 20 19  1  0
 21 20  1  0
 22 23  1  0
 22 21  1  0
 24 25  2  0
 24 26  1  0
M  END
$$$$
