RAK.pdb
     RDKit          3D

 26 25  0  0  1  0  0  0  0  0999 V2000
    7.8954  -13.3500   18.0752 N   0  0  0  0  0  0  0  0  0  0  0  0
    8.2514  -12.6894   19.2730 C   0  0  0  0  0  0  0  0  0  0  0  0
    9.2196  -11.8057   19.3107 N   0  0  0  0  0  0  0  0  0  0  0  0
    7.5286  -13.0072   20.4548 N   0  0  0  0  0  0  0  0  0  0  0  0
    6.5831  -14.0717   20.4926 C   0  0  0  0  0  0  0  0  0  0  0  0
    7.0748  -15.3304   19.8108 C   0  0  0  0  0  0  0  0  0  0  0  0
    8.2097  -15.8792   20.6605 C   0  0  0  0  0  0  0  0  0  0  0  0
    8.7531  -17.1692   20.0724 C   0  0  2  0  0  0  0  0  0  0  0  0
    7.7543  -18.1873   19.9944 N   0  0  0  0  0  0  0  0  0  0  0  0
    9.9102  -17.6679   20.8457 C   0  0  0  0  0  0  0  0  0  0  0  0
    9.6946  -18.4365   21.8429 O   0  0  0  0  0  0  0  0  0  0  0  0
    9.4630  -11.3132   20.1895 C   0  0  0  0  0  0  0  0  0  0  0  0
   13.6732  -17.3256   20.6057 C   0  0  1  0  0  0  0  0  0  0  0  0
   12.3735  -17.8331   21.2041 N   0  0  0  0  0  0  0  0  0  0  0  0
   11.2234  -17.3032   20.4896 C   0  0  0  0  0  0  0  0  0  0  0  0
   12.3234  -17.4006   22.6182 O   0  0  0  0  0  0  0  0  0  0  0  0
   11.7367  -16.3314   22.9202 N   0  0  0  0  0  0  0  0  0  0  0  0
   12.9292  -18.1806   23.6188 C   0  0  1  0  0  0  0  0  0  0  0  0
   12.5924  -17.8504   25.0656 C   0  0  0  0  0  0  0  0  0  0  0  0
   11.1744  -18.2295   25.1844 C   0  0  0  0  0  0  0  0  0  0  0  0
   10.0699  -17.3192   25.3888 C   0  0  0  0  0  0  0  0  0  0  0  0
    8.6598  -17.7632   25.4292 C   0  0  0  0  0  0  0  0  0  0  0  0
    7.7420  -16.5171   25.6843 N   0  0  0  0  0  0  0  0  0  0  0  0
    6.3620  -16.9622   25.6540 C   0  0  0  0  0  0  0  0  0  0  0  0
   13.5502  -18.6717   25.8584 O   0  0  0  0  0  0  0  0  0  0  0  0
   14.2613  -18.2353   26.7666 O   0  0  0  0  0  0  0  0  0  0  0  0
  1  2  1  0
  2  4  1  0
  3  2  2  0
  5  4  1  0
  5  6  1  0
  6  7  1  0
  7  8  1  0
  8 10  1  0
  8  9  1  1
 10 11  2  0
 13 12  1  6
 13 15  1  0
 14 10  1  0
 14 13  1  0
 15 17  1  0
 15 16  2  0
 17 18  1  0
 18 24  1  0
 18 19  1  1
 20 19  1  0
 21 20  1  0
 22 23  1  0
 22 21  1  0
 24 25  2  0
 24 26  1  0
M  END
$$$$
