NGV.pdb
     RDKit          3D

 20 19  0  0  1  0  0  0  0  0999 V2000
    7.6005  -21.0326   27.4075 N   0  0  0  0  0  0  0  0  0  0  0  0
    7.2815  -20.6645   26.0706 C   0  0  0  0  0  0  0  0  0  0  0  0
    7.1892  -21.5346   25.1650 O   0  0  0  0  0  0  0  0  0  0  0  0
    7.0611  -19.2394   25.7691 C   0  0  0  0  0  0  0  0  0  0  0  0
    6.7574  -19.0416   24.2911 C   0  0  2  0  0  0  0  0  0  0  0  0
    7.9180  -19.4570   23.5596 N   0  0  0  0  0  0  0  0  0  0  0  0
    6.4828  -17.5919   24.0295 C   0  0  0  0  0  0  0  0  0  0  0  0
    5.5617  -16.9967   24.6586 O   0  0  0  0  0  0  0  0  0  0  0  0
    7.2541  -16.8903   23.0791 N   0  0  0  0  0  0  0  0  0  0  0  0
    7.0934  -15.4956   22.7790 C   0  0  0  0  0  0  0  0  0  0  0  0
    7.7591  -14.6745   23.7912 C   0  0  0  0  0  0  0  0  0  0  0  0
    8.9855  -14.3987   23.5662 O   0  0  0  0  0  0  0  0  0  0  0  0
    5.9248  -12.5462   26.9705 C   0  0  0  0  0  0  0  0  0  0  0  0
    7.2634  -12.2011   26.3729 C   0  0  2  0  0  0  0  0  0  0  0  0
    7.1122  -11.2776   25.1980 C   0  0  0  0  0  0  0  0  0  0  0  0
    7.9787  -13.4740   25.9264 C   0  0  2  0  0  0  0  0  0  0  0  0
    7.1424  -14.1854   24.9716 N   0  0  0  0  0  0  0  0  0  0  0  0
    8.2696  -14.3473   27.0979 C   0  0  0  0  0  0  0  0  0  0  0  0
    9.1702  -13.9188   28.0626 O   0  0  0  0  0  0  0  0  0  0  0  0
    7.7360  -15.4738   27.2677 O   0  0  0  0  0  0  0  0  0  0  0  0
  1  2  1  0
  2  3  2  0
  4  2  1  0
  4  5  1  0
  5  6  1  6
  7  5  1  0
  8  7  2  0
  9  7  1  0
 10  9  1  0
 11 17  1  0
 11 10  1  0
 12 11  2  0
 14 13  1  6
 14 15  1  0
 16 17  1  6
 16 14  1  0
 18 16  1  0
 19 18  1  0
 20 18  2  0
M  END
$$$$
