NGV.pdb
     RDKit          3D

 20 19  0  0  1  0  0  0  0  0999 V2000
   10.5917  -18.0016   18.3852 N   0  0  0  0  0  0  0  0  0  0  0  0
    9.1991  -17.9507   18.0976 C   0  0  0  0  0  0  0  0  0  0  0  0
    8.7583  -18.3012   16.9714 O   0  0  0  0  0  0  0  0  0  0  0  0
    8.2826  -17.4775   19.1495 C   0  0  0  0  0  0  0  0  0  0  0  0
    9.0442  -17.1728   20.4313 C   0  0  2  0  0  0  0  0  0  0  0  0
    9.2559  -18.4195   21.1062 N   0  0  0  0  0  0  0  0  0  0  0  0
    8.2241  -16.2609   21.2923 C   0  0  0  0  0  0  0  0  0  0  0  0
    8.0711  -15.0486   20.9673 O   0  0  0  0  0  0  0  0  0  0  0  0
    7.6217  -16.7566   22.4677 N   0  0  0  0  0  0  0  0  0  0  0  0
    6.7404  -15.9950   23.3069 C   0  0  0  0  0  0  0  0  0  0  0  0
    7.5085  -15.1406   24.2136 C   0  0  0  0  0  0  0  0  0  0  0  0
    8.7790  -15.2340   24.1242 O   0  0  0  0  0  0  0  0  0  0  0  0
    5.9209  -12.4581   27.1655 C   0  0  0  0  0  0  0  0  0  0  0  0
    7.1346  -12.1275   26.3375 C   0  0  2  0  0  0  0  0  0  0  0  0
    6.7580  -11.3548   25.1058 C   0  0  0  0  0  0  0  0  0  0  0  0
    7.8522  -13.4117   25.9286 C   0  0  2  0  0  0  0  0  0  0  0  0
    6.9425  -14.2460   25.1581 N   0  0  0  0  0  0  0  0  0  0  0  0
    8.3249  -14.1512   27.1325 C   0  0  0  0  0  0  0  0  0  0  0  0
    9.3689  -13.6338   27.8859 O   0  0  0  0  0  0  0  0  0  0  0  0
    7.8231  -15.2397   27.5143 O   0  0  0  0  0  0  0  0  0  0  0  0
  1  2  1  0
  2  3  2  0
  4  2  1  0
  4  5  1  0
  5  6  1  1
  7  5  1  0
  8  7  2  0
  9  7  1  0
 10  9  1  0
 11 17  1  0
 11 10  1  0
 12 11  2  0
 14 13  1  6
 14 15  1  0
 16 17  1  1
 16 14  1  0
 18 16  1  0
 19 18  1  0
 20 18  2  0
M  END
$$$$
