NGV.pdb
     RDKit          3D

 20 19  0  0  1  0  0  0  0  0999 V2000
    9.3967  -22.9803   23.7162 N   0  0  0  0  0  0  0  0  0  0  0  0
    8.2477  -22.3168   23.2021 C   0  0  0  0  0  0  0  0  0  0  0  0
    7.6125  -22.7892   22.2229 O   0  0  0  0  0  0  0  0  0  0  0  0
    7.8171  -21.0619   23.8427 C   0  0  0  0  0  0  0  0  0  0  0  0
    7.0310  -20.1998   22.8657 C   0  0  2  0  0  0  0  0  0  0  0  0
    7.9835  -19.4695   22.0820 N   0  0  0  0  0  0  0  0  0  0  0  0
    6.1633  -19.2468   23.6302 C   0  0  0  0  0  0  0  0  0  0  0  0
    4.9889  -19.5810   23.9583 O   0  0  0  0  0  0  0  0  0  0  0  0
    6.6586  -17.9741   23.9844 N   0  0  0  0  0  0  0  0  0  0  0  0
    6.0840  -17.1375   24.9998 C   0  0  0  0  0  0  0  0  0  0  0  0
    6.8369  -15.8883   25.1201 C   0  0  0  0  0  0  0  0  0  0  0  0
    8.0375  -15.9176   24.6859 O   0  0  0  0  0  0  0  0  0  0  0  0
    7.2769  -11.0572   25.8765 C   0  0  0  0  0  0  0  0  0  0  0  0
    6.3971  -12.2746   25.9859 C   0  0  2  0  0  0  0  0  0  0  0  0
    5.7606  -12.3650   27.3434 C   0  0  0  0  0  0  0  0  0  0  0  0
    7.2181  -13.5359   25.7279 C   0  0  2  0  0  0  0  0  0  0  0  0
    6.3285  -14.6861   25.6760 N   0  0  0  0  0  0  0  0  0  0  0  0
    8.2339  -13.7259   26.8010 C   0  0  0  0  0  0  0  0  0  0  0  0
    9.3865  -12.9534   26.7953 O   0  0  0  0  0  0  0  0  0  0  0  0
    8.1058  -14.5628   27.7314 O   0  0  0  0  0  0  0  0  0  0  0  0
  1  2  1  0
  2  3  2  0
  4  2  1  0
  4  5  1  0
  5  6  1  6
  7  5  1  0
  8  7  2  0
  9  7  1  0
 10  9  1  0
 11 17  1  0
 11 10  1  0
 12 11  2  0
 14 13  1  1
 14 15  1  0
 16 17  1  1
 16 14  1  0
 18 16  1  0
 19 18  1  0
 20 18  2  0
M  END
$$$$
