NGV.pdb
     RDKit          3D

 20 19  0  0  1  0  0  0  0  0999 V2000
   11.4028  -19.1050   19.0189 N   0  0  0  0  0  0  0  0  0  0  0  0
   10.3565  -18.5438   18.2347 C   0  0  0  0  0  0  0  0  0  0  0  0
   10.0167  -19.0667   17.1408 O   0  0  0  0  0  0  0  0  0  0  0  0
    9.6783  -17.3343   18.7326 C   0  0  0  0  0  0  0  0  0  0  0  0
    9.4850  -17.4066   20.2403 C   0  0  2  0  0  0  0  0  0  0  0  0
    8.4145  -18.3272   20.4876 N   0  0  0  0  0  0  0  0  0  0  0  0
    9.1196  -16.0495   20.7603 C   0  0  0  0  0  0  0  0  0  0  0  0
    9.9533  -15.1009   20.6999 O   0  0  0  0  0  0  0  0  0  0  0  0
    7.8425  -15.8307   21.3185 N   0  0  0  0  0  0  0  0  0  0  0  0
    7.3868  -14.5657   21.8216 C   0  0  0  0  0  0  0  0  0  0  0  0
    7.7775  -14.4013   23.2224 C   0  0  0  0  0  0  0  0  0  0  0  0
    8.8499  -14.9982   23.5752 O   0  0  0  0  0  0  0  0  0  0  0  0
    7.5915  -12.0203   27.5297 C   0  0  0  0  0  0  0  0  0  0  0  0
    6.9458  -12.2849   26.1951 C   0  0  2  0  0  0  0  0  0  0  0  0
    5.5039  -12.6733   26.3565 C   0  0  0  0  0  0  0  0  0  0  0  0
    7.6914  -13.4013   25.4676 C   0  0  2  0  0  0  0  0  0  0  0  0
    7.0560  -13.6447   24.1815 N   0  0  0  0  0  0  0  0  0  0  0  0
    7.6867  -14.6488   26.2820 C   0  0  0  0  0  0  0  0  0  0  0  0
    8.6455  -14.8237   27.2696 O   0  0  0  0  0  0  0  0  0  0  0  0
    6.8473  -15.5723   26.1239 O   0  0  0  0  0  0  0  0  0  0  0  0
  1  2  1  0
  2  3  2  0
  4  2  1  0
  4  5  1  0
  5  6  1  6
  7  5  1  0
  8  7  2  0
  9  7  1  0
 10  9  1  0
 11 17  1  0
 11 10  1  0
 12 11  2  0
 14 13  1  1
 14 15  1  0
 16 17  1  6
 16 14  1  0
 18 16  1  0
 19 18  1  0
 20 18  2  0
M  END
$$$$
