NGV.pdb
     RDKit          3D

 20 19  0  0  1  0  0  0  0  0999 V2000
    6.8369  -21.7377   19.9938 N   0  0  0  0  0  0  0  0  0  0  0  0
    7.4505  -20.4586   20.1040 C   0  0  0  0  0  0  0  0  0  0  0  0
    8.5212  -20.2005   19.4937 O   0  0  0  0  0  0  0  0  0  0  0  0
    6.8035  -19.4409   20.9502 C   0  0  0  0  0  0  0  0  0  0  0  0
    7.8190  -18.7802   21.8709 C   0  0  2  0  0  0  0  0  0  0  0  0
    8.2981  -19.7895   22.7690 N   0  0  0  0  0  0  0  0  0  0  0  0
    7.1499  -17.6857   22.6455 C   0  0  0  0  0  0  0  0  0  0  0  0
    6.7017  -16.6666   22.0464 O   0  0  0  0  0  0  0  0  0  0  0  0
    7.0202  -17.7934   24.0462 N   0  0  0  0  0  0  0  0  0  0  0  0
    6.3219  -16.8458   24.8681 C   0  0  0  0  0  0  0  0  0  0  0  0
    7.1768  -15.6945   25.1609 C   0  0  0  0  0  0  0  0  0  0  0  0
    8.3617  -15.7460   24.6874 O   0  0  0  0  0  0  0  0  0  0  0  0
    6.1720  -12.1688   27.4814 C   0  0  0  0  0  0  0  0  0  0  0  0
    7.0088  -12.1610   26.2293 C   0  0  2  0  0  0  0  0  0  0  0  0
    6.1612  -11.9321   25.0106 C   0  0  0  0  0  0  0  0  0  0  0  0
    7.7481  -13.4895   26.0883 C   0  0  2  0  0  0  0  0  0  0  0  0
    6.7801  -14.5625   25.9184 N   0  0  0  0  0  0  0  0  0  0  0  0
    8.5894  -13.7486   27.2903 C   0  0  0  0  0  0  0  0  0  0  0  0
    9.6961  -12.9482   27.5350 O   0  0  0  0  0  0  0  0  0  0  0  0
    8.3508  -14.6693   28.1136 O   0  0  0  0  0  0  0  0  0  0  0  0
  1  2  1  0
  2  3  2  0
  4  2  1  0
  4  5  1  0
  5  6  1  1
  7  5  1  0
  8  7  2  0
  9  7  1  0
 10  9  1  0
 11 17  1  0
 11 10  1  0
 12 11  2  0
 14 13  1  1
 14 15  1  0
 16 17  1  1
 16 14  1  0
 18 16  1  0
 19 18  1  0
 20 18  2  0
M  END
$$$$
