KNR.pdb
     RDKit          3D

 29 28  0  0  1  0  0  0  0  0999 V2000
   23.1318  -24.6642  -19.5189 N   0  0  0  0  0  0  0  0  0  0  0  0
   23.1483  -24.7362  -18.0896 C   0  0  1  0  0  0  0  0  0  0  0  0
   24.4438  -25.2824  -17.5150 C   0  0  0  0  0  0  0  0  0  0  0  0
   24.9587  -26.3123  -18.4583 C   0  0  0  0  0  0  0  0  0  0  0  0
   24.4065  -27.6847  -18.3114 C   0  0  0  0  0  0  0  0  0  0  0  0
   25.2768  -28.6877  -17.6453 C   0  0  0  0  0  0  0  0  0  0  0  0
   26.4226  -29.1230  -18.3669 N   0  0  0  0  0  0  0  0  0  0  0  0
   22.8610  -23.3882  -17.5433 C   0  0  0  0  0  0  0  0  0  0  0  0
   23.7262  -22.8477  -16.8162 O   0  0  0  0  0  0  0  0  0  0  0  0
   21.5074  -18.9790  -16.3210 N   0  0  0  0  0  0  0  0  0  0  0  0
   20.4211  -19.2661  -17.1984 C   0  0  0  0  0  0  0  0  0  0  0  0
   19.6683  -18.3713  -17.6410 O   0  0  0  0  0  0  0  0  0  0  0  0
   20.2216  -20.7092  -17.5702 C   0  0  0  0  0  0  0  0  0  0  0  0
   21.3148  -21.5678  -16.9660 C   0  0  2  0  0  0  0  0  0  0  0  0
   21.6626  -22.6773  -17.7977 N   0  0  0  0  0  0  0  0  0  0  0  0
   20.7970  -22.0273  -15.6305 C   0  0  0  0  0  0  0  0  0  0  0  0
   19.6073  -22.4076  -15.5500 O   0  0  0  0  0  0  0  0  0  0  0  0
   25.7201  -20.6822   -9.3899 N   0  0  0  0  0  0  0  0  0  0  0  0
   25.1346  -21.4078  -10.4609 C   0  0  0  0  0  0  0  0  0  0  0  0
   25.6495  -22.5300  -10.8069 N   0  0  0  0  0  0  0  0  0  0  0  0
   23.9913  -20.9249  -11.1620 N   0  0  0  0  0  0  0  0  0  0  0  0
   23.3017  -19.7125  -10.7729 C   0  0  0  0  0  0  0  0  0  0  0  0
   22.0465  -19.5860  -11.6615 C   0  0  0  0  0  0  0  0  0  0  0  0
   22.2835  -20.2444  -12.9887 C   0  0  0  0  0  0  0  0  0  0  0  0
   21.3180  -21.3262  -13.2445 C   0  0  2  0  0  0  0  0  0  0  0  0
   21.5972  -22.0439  -14.4811 N   0  0  0  0  0  0  0  0  0  0  0  0
   19.9263  -20.8999  -13.1771 C   0  0  0  0  0  0  0  0  0  0  0  0
   19.5288  -19.9019  -13.8945 O   0  0  0  0  0  0  0  0  0  0  0  0
   18.9511  -21.4800  -12.3955 O   0  0  0  0  0  0  0  0  0  0  0  0
  2  1  1  6
  2  3  1  0
  3  4  1  0
  4  5  1  0
  6  7  1  0
  6  5  1  0
  8  9  2  0
  8  2  1  0
 11 10  1  0
 11 13  1  0
 12 11  2  0
 14 13  1  6
 14 16  1  0
 14 15  1  0
 15  8  1  0
 16 26  1  0
 17 16  2  0
 19 20  2  0
 19 18  1  0
 21 22  1  0
 21 19  1  0
 22 23  1  0
 23 24  1  0
 25 24  1  6
 25 27  1  0
 26 25  1  0
 27 28  2  0
 27 29  1  0
M  END
$$$$
