KNR.pdb
     RDKit          3D

 29 28  0  0  1  0  0  0  0  0999 V2000
   19.7591  -27.7239   -1.9309 N   0  0  0  0  0  0  0  0  0  0  0  0
   18.6735  -27.9317   -2.8402 C   0  0  1  0  0  0  0  0  0  0  0  0
   17.5370  -28.7584   -2.2643 C   0  0  0  0  0  0  0  0  0  0  0  0
   17.9335  -30.1909   -2.3445 C   0  0  0  0  0  0  0  0  0  0  0  0
   17.5452  -30.9207   -3.5801 C   0  0  0  0  0  0  0  0  0  0  0  0
   17.7753  -32.3884   -3.5898 C   0  0  0  0  0  0  0  0  0  0  0  0
   17.3293  -33.1003   -4.7376 N   0  0  0  0  0  0  0  0  0  0  0  0
   18.1796  -26.6112   -3.2991 C   0  0  0  0  0  0  0  0  0  0  0  0
   18.2545  -25.6437   -2.5069 O   0  0  0  0  0  0  0  0  0  0  0  0
   19.4298  -24.7716   -6.2873 N   0  0  0  0  0  0  0  0  0  0  0  0
   18.2660  -24.7339   -7.1097 C   0  0  0  0  0  0  0  0  0  0  0  0
   18.3305  -24.5699   -8.3475 O   0  0  0  0  0  0  0  0  0  0  0  0
   16.9450  -24.9022   -6.4120 C   0  0  0  0  0  0  0  0  0  0  0  0
   17.1521  -25.0775   -4.9208 C   0  0  2  0  0  0  0  0  0  0  0  0
   17.6279  -26.3828   -4.5835 N   0  0  0  0  0  0  0  0  0  0  0  0
   15.8217  -24.7978   -4.2770 C   0  0  0  0  0  0  0  0  0  0  0  0
   14.9495  -25.6953   -4.2941 O   0  0  0  0  0  0  0  0  0  0  0  0
   13.3132  -18.7845    2.0479 N   0  0  0  0  0  0  0  0  0  0  0  0
   12.3101  -19.7683    1.8429 C   0  0  0  0  0  0  0  0  0  0  0  0
   11.2731  -19.7661    2.5972 N   0  0  0  0  0  0  0  0  0  0  0  0
   12.4224  -20.7579    0.8230 N   0  0  0  0  0  0  0  0  0  0  0  0
   13.5923  -20.8653   -0.0236 C   0  0  0  0  0  0  0  0  0  0  0  0
   13.3365  -22.0091   -1.0271 C   0  0  0  0  0  0  0  0  0  0  0  0
   14.5547  -22.2381   -1.8724 C   0  0  0  0  0  0  0  0  0  0  0  0
   14.3304  -23.2815   -2.8867 C   0  0  2  0  0  0  0  0  0  0  0  0
   15.5283  -23.5739   -3.6625 N   0  0  0  0  0  0  0  0  0  0  0  0
   13.1846  -23.0255   -3.7497 C   0  0  0  0  0  0  0  0  0  0  0  0
   13.3711  -22.5336   -4.9294 O   0  0  0  0  0  0  0  0  0  0  0  0
   11.8685  -23.2684   -3.4216 O   0  0  0  0  0  0  0  0  0  0  0  0
  2  1  1  1
  2  3  1  0
  3  4  1  0
  4  5  1  0
  6  7  1  0
  6  5  1  0
  8  9  2  0
  8  2  1  0
 11 10  1  0
 11 13  1  0
 12 11  2  0
 14 13  1  6
 14 16  1  0
 14 15  1  0
 15  8  1  0
 16 26  1  0
 17 16  2  0
 19 20  2  0
 19 18  1  0
 21 22  1  0
 21 19  1  0
 22 23  1  0
 23 24  1  0
 25 24  1  6
 25 27  1  0
 26 25  1  0
 27 28  2  0
 27 29  1  0
M  END
$$$$
