KNR.pdb
     RDKit          3D

 29 28  0  0  1  0  0  0  0  0999 V2000
   27.7484  -18.4194  -17.1011 N   0  0  0  0  0  0  0  0  0  0  0  0
   27.6435  -18.1156  -15.7065 C   0  0  1  0  0  0  0  0  0  0  0  0
   27.1103  -16.7231  -15.4175 C   0  0  0  0  0  0  0  0  0  0  0  0
   27.3374  -15.8907  -16.6305 C   0  0  0  0  0  0  0  0  0  0  0  0
   27.0188  -14.4434  -16.5136 C   0  0  0  0  0  0  0  0  0  0  0  0
   27.2592  -13.6067  -17.7174 C   0  0  0  0  0  0  0  0  0  0  0  0
   26.8905  -12.2357  -17.6300 N   0  0  0  0  0  0  0  0  0  0  0  0
   26.7956  -19.1452  -15.0591 C   0  0  0  0  0  0  0  0  0  0  0  0
   26.0993  -19.8847  -15.7923 O   0  0  0  0  0  0  0  0  0  0  0  0
   25.6014  -23.2518  -11.6840 N   0  0  0  0  0  0  0  0  0  0  0  0
   25.3707  -21.9078  -11.2684 C   0  0  0  0  0  0  0  0  0  0  0  0
   24.4251  -21.5980  -10.5113 O   0  0  0  0  0  0  0  0  0  0  0  0
   26.3271  -20.8707  -11.7880 C   0  0  0  0  0  0  0  0  0  0  0  0
   25.8577  -20.3417  -13.1286 C   0  0  2  0  0  0  0  0  0  0  0  0
   26.7291  -19.3394  -13.6576 N   0  0  0  0  0  0  0  0  0  0  0  0
   24.4732  -19.7985  -12.9035 C   0  0  0  0  0  0  0  0  0  0  0  0
   24.3529  -18.6260  -12.4825 O   0  0  0  0  0  0  0  0  0  0  0  0
   20.0006  -14.7825  -16.3155 N   0  0  0  0  0  0  0  0  0  0  0  0
   18.9356  -15.7171  -16.2220 C   0  0  0  0  0  0  0  0  0  0  0  0
   17.7274  -15.2891  -16.2581 N   0  0  0  0  0  0  0  0  0  0  0  0
   19.1708  -17.1168  -16.0895 N   0  0  0  0  0  0  0  0  0  0  0  0
   20.5052  -17.6694  -15.9854 C   0  0  0  0  0  0  0  0  0  0  0  0
   20.5485  -18.5436  -14.7147 C   0  0  0  0  0  0  0  0  0  0  0  0
   21.9015  -19.1750  -14.5667 C   0  0  0  0  0  0  0  0  0  0  0  0
   21.9842  -20.0195  -13.3635 C   0  0  2  0  0  0  0  0  0  0  0  0
   23.3211  -20.5565  -13.1479 N   0  0  0  0  0  0  0  0  0  0  0  0
   20.9730  -21.0674  -13.3104 C   0  0  0  0  0  0  0  0  0  0  0  0
   21.3212  -22.2997  -13.4794 O   0  0  0  0  0  0  0  0  0  0  0  0
   19.6283  -20.8679  -13.0858 O   0  0  0  0  0  0  0  0  0  0  0  0
  2  1  1  6
  2  3  1  0
  3  4  1  0
  4  5  1  0
  6  7  1  0
  6  5  1  0
  8  9  2  0
  8  2  1  0
 11 10  1  0
 11 13  1  0
 12 11  2  0
 14 13  1  1
 14 16  1  0
 14 15  1  0
 15  8  1  0
 16 26  1  0
 17 16  2  0
 19 20  2  0
 19 18  1  0
 21 22  1  0
 21 19  1  0
 22 23  1  0
 23 24  1  0
 25 24  1  6
 25 27  1  0
 26 25  1  0
 27 28  2  0
 27 29  1  0
M  END
$$$$
