KNR.pdb
     RDKit          3D

 29 28  0  0  1  0  0  0  0  0999 V2000
   30.8648  -25.8709  -20.1953 N   0  0  0  0  0  0  0  0  0  0  0  0
   30.7910  -26.1517  -18.7939 C   0  0  1  0  0  0  0  0  0  0  0  0
   31.2228  -24.9946  -17.9099 C   0  0  0  0  0  0  0  0  0  0  0  0
   32.6790  -24.7770  -18.1283 C   0  0  0  0  0  0  0  0  0  0  0  0
   33.6000  -25.7648  -17.5069 C   0  0  0  0  0  0  0  0  0  0  0  0
   35.0538  -25.5552  -17.7295 C   0  0  0  0  0  0  0  0  0  0  0  0
   35.9361  -26.5047  -17.1435 N   0  0  0  0  0  0  0  0  0  0  0  0
   29.4075  -26.5723  -18.4666 C   0  0  0  0  0  0  0  0  0  0  0  0
   28.4595  -25.9773  -19.0292 O   0  0  0  0  0  0  0  0  0  0  0  0
   25.2479  -28.9421  -17.3801 N   0  0  0  0  0  0  0  0  0  0  0  0
   26.1479  -29.7128  -16.5875 C   0  0  0  0  0  0  0  0  0  0  0  0
   25.7774  -30.7246  -15.9532 O   0  0  0  0  0  0  0  0  0  0  0  0
   27.5770  -29.2474  -16.5500 C   0  0  0  0  0  0  0  0  0  0  0  0
   27.7296  -27.9441  -17.3086 C   0  0  2  0  0  0  0  0  0  0  0  0
   29.0979  -27.6095  -17.5530 N   0  0  0  0  0  0  0  0  0  0  0  0
   27.0503  -26.8920  -16.4754 C   0  0  0  0  0  0  0  0  0  0  0  0
   27.6618  -26.4253  -15.4880 O   0  0  0  0  0  0  0  0  0  0  0  0
   21.0531  -21.7385  -17.2537 N   0  0  0  0  0  0  0  0  0  0  0  0
   22.2780  -21.0554  -17.4761 C   0  0  0  0  0  0  0  0  0  0  0  0
   22.2839  -20.0184  -18.2305 N   0  0  0  0  0  0  0  0  0  0  0  0
   23.5006  -21.4887  -16.8849 N   0  0  0  0  0  0  0  0  0  0  0  0
   23.6019  -22.7253  -16.1383 C   0  0  0  0  0  0  0  0  0  0  0  0
   25.0696  -22.8767  -15.6867 C   0  0  0  0  0  0  0  0  0  0  0  0
   25.7239  -24.0078  -16.4240 C   0  0  0  0  0  0  0  0  0  0  0  0
   25.1022  -25.3036  -16.1041 C   0  0  2  0  0  0  0  0  0  0  0  0
   25.7642  -26.4199  -16.7659 N   0  0  0  0  0  0  0  0  0  0  0  0
   23.6614  -25.3333  -16.3196 C   0  0  0  0  0  0  0  0  0  0  0  0
   22.8636  -25.0707  -15.3382 O   0  0  0  0  0  0  0  0  0  0  0  0
   23.0392  -25.6221  -17.5145 O   0  0  0  0  0  0  0  0  0  0  0  0
  2  1  1  6
  2  3  1  0
  3  4  1  0
  4  5  1  0
  6  7  1  0
  6  5  1  0
  8  9  2  0
  8  2  1  0
 11 10  1  0
 11 13  1  0
 12 11  2  0
 14 13  1  1
 14 16  1  0
 14 15  1  0
 15  8  1  0
 16 26  1  0
 17 16  2  0
 19 20  2  0
 19 18  1  0
 21 22  1  0
 21 19  1  0
 22 23  1  0
 23 24  1  0
 25 24  1  6
 25 27  1  0
 26 25  1  0
 27 28  2  0
 27 29  1  0
M  END
$$$$
