KNR.pdb
     RDKit          3D

 29 28  0  0  1  0  0  0  0  0999 V2000
   16.0191  -12.8411  -18.1665 N   0  0  0  0  0  0  0  0  0  0  0  0
   16.0425  -12.3687  -16.8157 C   0  0  1  0  0  0  0  0  0  0  0  0
   17.0565  -13.0755  -15.9331 C   0  0  0  0  0  0  0  0  0  0  0  0
   16.6742  -14.5125  -15.8657 C   0  0  0  0  0  0  0  0  0  0  0  0
   17.3639  -15.3372  -14.8389 C   0  0  0  0  0  0  0  0  0  0  0  0
   16.8612  -16.7217  -14.6453 C   0  0  0  0  0  0  0  0  0  0  0  0
   17.4741  -17.4889  -13.6162 N   0  0  0  0  0  0  0  0  0  0  0  0
   16.2890  -10.9068  -16.8286 C   0  0  0  0  0  0  0  0  0  0  0  0
   16.9332  -10.4239  -17.7884 O   0  0  0  0  0  0  0  0  0  0  0  0
   13.1108   -6.5657  -15.9859 N   0  0  0  0  0  0  0  0  0  0  0  0
   13.7397   -7.8242  -15.7560 C   0  0  0  0  0  0  0  0  0  0  0  0
   13.1892   -8.9074  -16.0510 O   0  0  0  0  0  0  0  0  0  0  0  0
   15.1090   -7.7873  -15.1363 C   0  0  0  0  0  0  0  0  0  0  0  0
   16.0798   -8.6229  -15.9466 C   0  0  2  0  0  0  0  0  0  0  0  0
   15.8368  -10.0257  -15.8161 N   0  0  0  0  0  0  0  0  0  0  0  0
   17.4552   -8.2590  -15.4581 C   0  0  0  0  0  0  0  0  0  0  0  0
   17.8410   -8.7215  -14.3610 O   0  0  0  0  0  0  0  0  0  0  0  0
   24.5138  -10.3671  -16.3786 N   0  0  0  0  0  0  0  0  0  0  0  0
   23.6671   -9.8906  -15.3431 C   0  0  0  0  0  0  0  0  0  0  0  0
   23.5710  -10.5664  -14.2576 N   0  0  0  0  0  0  0  0  0  0  0  0
   22.9213   -8.6830  -15.4754 N   0  0  0  0  0  0  0  0  0  0  0  0
   22.9280   -7.9005  -16.6938 C   0  0  0  0  0  0  0  0  0  0  0  0
   21.9979   -6.6891  -16.4735 C   0  0  0  0  0  0  0  0  0  0  0  0
   20.6028   -7.0207  -16.9150 C   0  0  0  0  0  0  0  0  0  0  0  0
   19.6593   -7.0379  -15.7849 C   0  0  2  0  0  0  0  0  0  0  0  0
   18.3134   -7.4251  -16.1859 N   0  0  0  0  0  0  0  0  0  0  0  0
   19.6510   -5.8055  -15.0074 C   0  0  0  0  0  0  0  0  0  0  0  0
   20.7474   -5.3805  -14.4729 O   0  0  0  0  0  0  0  0  0  0  0  0
   18.5466   -5.0139  -14.7785 O   0  0  0  0  0  0  0  0  0  0  0  0
  2  1  1  6
  2  3  1  0
  3  4  1  0
  4  5  1  0
  6  7  1  0
  6  5  1  0
  8  9  2  0
  8  2  1  0
 11 10  1  0
 11 13  1  0
 12 11  2  0
 14 13  1  1
 14 16  1  0
 14 15  1  0
 15  8  1  0
 16 26  1  0
 17 16  2  0
 19 20  2  0
 19 18  1  0
 21 22  1  0
 21 19  1  0
 22 23  1  0
 23 24  1  0
 25 24  1  6
 25 27  1  0
 26 25  1  0
 27 28  2  0
 27 29  1  0
M  END
$$$$
