KNR.pdb
     RDKit          3D

 29 28  0  0  1  0  0  0  0  0999 V2000
   20.1090   -8.7413  -16.3317 N   0  0  0  0  0  0  0  0  0  0  0  0
   20.2996   -9.5997  -15.2025 C   0  0  1  0  0  0  0  0  0  0  0  0
   21.4138  -10.6162  -15.3823 C   0  0  0  0  0  0  0  0  0  0  0  0
   21.4660  -10.9802  -16.8247 C   0  0  0  0  0  0  0  0  0  0  0  0
   20.7688  -12.2321  -17.2208 C   0  0  0  0  0  0  0  0  0  0  0  0
   20.9081  -12.6550  -18.6381 C   0  0  0  0  0  0  0  0  0  0  0  0
   20.1259  -13.7671  -19.0557 N   0  0  0  0  0  0  0  0  0  0  0  0
   20.5450   -8.7608  -14.0049 C   0  0  0  0  0  0  0  0  0  0  0  0
   20.6422   -9.3304  -12.8934 O   0  0  0  0  0  0  0  0  0  0  0  0
   20.8083   -3.0551  -13.9717 N   0  0  0  0  0  0  0  0  0  0  0  0
   20.7252   -4.4747  -14.0724 C   0  0  0  0  0  0  0  0  0  0  0  0
   20.1046   -5.0413  -14.9982 O   0  0  0  0  0  0  0  0  0  0  0  0
   21.4255   -5.2658  -13.0029 C   0  0  0  0  0  0  0  0  0  0  0  0
   20.7627   -6.6171  -12.8239 C   0  0  2  0  0  0  0  0  0  0  0  0
   20.6756   -7.3511  -14.0476 N   0  0  0  0  0  0  0  0  0  0  0  0
   19.3982   -6.3424  -12.2534 C   0  0  0  0  0  0  0  0  0  0  0  0
   18.4604   -6.0905  -13.0430 O   0  0  0  0  0  0  0  0  0  0  0  0
   12.8633  -10.6781   -9.3607 N   0  0  0  0  0  0  0  0  0  0  0  0
   12.5832   -9.3178   -9.0652 C   0  0  0  0  0  0  0  0  0  0  0  0
   11.3960   -8.9907   -8.7074 N   0  0  0  0  0  0  0  0  0  0  0  0
   13.5832   -8.3059   -9.1545 N   0  0  0  0  0  0  0  0  0  0  0  0
   14.9162   -8.5788   -9.6498 C   0  0  0  0  0  0  0  0  0  0  0  0
   15.6969   -7.2478   -9.6413 C   0  0  0  0  0  0  0  0  0  0  0  0
   17.0769   -7.4537  -10.1929 C   0  0  0  0  0  0  0  0  0  0  0  0
   17.8366   -6.1940  -10.2545 C   0  0  2  0  0  0  0  0  0  0  0  0
   19.1437   -6.3591  -10.8762 N   0  0  0  0  0  0  0  0  0  0  0  0
   17.9374   -5.5053   -8.9743 C   0  0  0  0  0  0  0  0  0  0  0  0
   18.9326   -5.7574   -8.1905 O   0  0  0  0  0  0  0  0  0  0  0  0
   17.0429   -4.5718   -8.4979 O   0  0  0  0  0  0  0  0  0  0  0  0
  2  1  1  6
  2  3  1  0
  3  4  1  0
  4  5  1  0
  6  7  1  0
  6  5  1  0
  8  9  2  0
  8  2  1  0
 11 10  1  0
 11 13  1  0
 12 11  2  0
 14 13  1  6
 14 16  1  0
 14 15  1  0
 15  8  1  0
 16 26  1  0
 17 16  2  0
 19 20  2  0
 19 18  1  0
 21 22  1  0
 21 19  1  0
 22 23  1  0
 23 24  1  0
 25 24  1  1
 25 27  1  0
 26 25  1  0
 27 28  2  0
 27 29  1  0
M  END
$$$$
