KNR.pdb
     RDKit          3D

 29 28  0  0  1  0  0  0  0  0999 V2000
   25.0351  -21.1904  -17.0885 N   0  0  0  0  0  0  0  0  0  0  0  0
   23.8819  -20.4443  -16.6866 C   0  0  1  0  0  0  0  0  0  0  0  0
   22.7280  -20.5148  -17.6717 C   0  0  0  0  0  0  0  0  0  0  0  0
   22.9956  -19.5282  -18.7536 C   0  0  0  0  0  0  0  0  0  0  0  0
   23.8193  -20.0015  -19.8971 C   0  0  0  0  0  0  0  0  0  0  0  0
   24.0433  -19.0365  -21.0042 C   0  0  0  0  0  0  0  0  0  0  0  0
   24.7957  -19.5013  -22.1182 N   0  0  0  0  0  0  0  0  0  0  0  0
   23.4555  -20.9150  -15.3468 C   0  0  0  0  0  0  0  0  0  0  0  0
   23.4680  -22.1471  -15.1211 O   0  0  0  0  0  0  0  0  0  0  0  0
   23.3978  -21.1423  -10.0359 N   0  0  0  0  0  0  0  0  0  0  0  0
   22.3793  -20.3324  -10.6182 C   0  0  0  0  0  0  0  0  0  0  0  0
   21.2553  -20.1931  -10.0886 O   0  0  0  0  0  0  0  0  0  0  0  0
   22.7237  -19.6472  -11.9113 C   0  0  0  0  0  0  0  0  0  0  0  0
   22.5702  -20.6053  -13.0757 C   0  0  2  0  0  0  0  0  0  0  0  0
   23.0348  -20.0490  -14.3079 N   0  0  0  0  0  0  0  0  0  0  0  0
   21.1069  -20.9465  -13.1477 C   0  0  0  0  0  0  0  0  0  0  0  0
   20.3482  -20.1892  -13.7938 O   0  0  0  0  0  0  0  0  0  0  0  0
   17.6280  -26.7978   -7.5481 N   0  0  0  0  0  0  0  0  0  0  0  0
   18.0472  -25.4879   -7.1947 C   0  0  0  0  0  0  0  0  0  0  0  0
   18.2443  -25.2101   -5.9585 N   0  0  0  0  0  0  0  0  0  0  0  0
   18.2554  -24.4734   -8.1742 N   0  0  0  0  0  0  0  0  0  0  0  0
   18.4307  -24.7799   -9.5786 C   0  0  0  0  0  0  0  0  0  0  0  0
   18.7032  -23.4510  -10.3140 C   0  0  0  0  0  0  0  0  0  0  0  0
   18.9128  -23.7032  -11.7781 C   0  0  0  0  0  0  0  0  0  0  0  0
   19.1618  -22.4558  -12.5195 C   0  0  2  0  0  0  0  0  0  0  0  0
   20.5684  -22.0768  -12.5199 N   0  0  0  0  0  0  0  0  0  0  0  0
   18.3102  -21.3474  -12.1077 C   0  0  0  0  0  0  0  0  0  0  0  0
   18.7888  -20.4260  -11.3393 O   0  0  0  0  0  0  0  0  0  0  0  0
   16.9930  -21.1748  -12.4731 O   0  0  0  0  0  0  0  0  0  0  0  0
  2  1  1  6
  2  3  1  0
  3  4  1  0
  4  5  1  0
  6  7  1  0
  6  5  1  0
  8  9  2  0
  8  2  1  0
 11 10  1  0
 11 13  1  0
 12 11  2  0
 14 13  1  1
 14 16  1  0
 14 15  1  0
 15  8  1  0
 16 26  1  0
 17 16  2  0
 19 20  2  0
 19 18  1  0
 21 22  1  0
 21 19  1  0
 22 23  1  0
 23 24  1  0
 25 24  1  1
 25 27  1  0
 26 25  1  0
 27 28  2  0
 27 29  1  0
M  END
$$$$
