KNR.pdb
     RDKit          3D

 29 28  0  0  1  0  0  0  0  0999 V2000
   15.1103  -25.0282   -7.0982 N   0  0  0  0  0  0  0  0  0  0  0  0
   16.1339  -25.4388   -6.1861 C   0  0  1  0  0  0  0  0  0  0  0  0
   17.3558  -24.5367   -6.1843 C   0  0  0  0  0  0  0  0  0  0  0  0
   17.7153  -24.2587   -7.6017 C   0  0  0  0  0  0  0  0  0  0  0  0
   18.2275  -25.4064   -8.3958 C   0  0  0  0  0  0  0  0  0  0  0  0
   18.5335  -25.1461   -9.8261 C   0  0  0  0  0  0  0  0  0  0  0  0
   19.1636  -26.1966  -10.5490 N   0  0  0  0  0  0  0  0  0  0  0  0
   15.5491  -25.5303   -4.8267 C   0  0  0  0  0  0  0  0  0  0  0  0
   14.6705  -24.6980   -4.5034 O   0  0  0  0  0  0  0  0  0  0  0  0
   13.0643  -28.4659   -0.9148 N   0  0  0  0  0  0  0  0  0  0  0  0
   14.4115  -28.0191   -0.7824 C   0  0  0  0  0  0  0  0  0  0  0  0
   14.8947  -27.6781    0.3193 O   0  0  0  0  0  0  0  0  0  0  0  0
   15.2318  -27.9767   -2.0416 C   0  0  0  0  0  0  0  0  0  0  0  0
   15.2314  -26.5788   -2.6273 C   0  0  2  0  0  0  0  0  0  0  0  0
   15.9287  -26.5065   -3.8732 N   0  0  0  0  0  0  0  0  0  0  0  0
   15.8674  -25.6908   -1.5930 C   0  0  0  0  0  0  0  0  0  0  0  0
   17.1154  -25.5971   -1.5723 O   0  0  0  0  0  0  0  0  0  0  0  0
   13.7783  -17.8304    2.1151 N   0  0  0  0  0  0  0  0  0  0  0  0
   14.8507  -18.4209    2.8345 C   0  0  0  0  0  0  0  0  0  0  0  0
   15.4556  -17.7290    3.7287 N   0  0  0  0  0  0  0  0  0  0  0  0
   15.2739  -19.7603    2.5915 N   0  0  0  0  0  0  0  0  0  0  0  0
   14.7084  -20.5688    1.5316 C   0  0  0  0  0  0  0  0  0  0  0  0
   15.4991  -21.8930    1.4847 C   0  0  0  0  0  0  0  0  0  0  0  0
   14.9169  -22.8070    0.4471 C   0  0  0  0  0  0  0  0  0  0  0  0
   15.6556  -24.0776    0.3585 C   0  0  2  0  0  0  0  0  0  0  0  0
   15.1142  -24.9695   -0.6582 N   0  0  0  0  0  0  0  0  0  0  0  0
   15.8105  -24.7577    1.6379 C   0  0  0  0  0  0  0  0  0  0  0  0
   14.9120  -25.6009    2.0254 O   0  0  0  0  0  0  0  0  0  0  0  0
   16.8636  -24.5872    2.5098 O   0  0  0  0  0  0  0  0  0  0  0  0
  2  1  1  6
  2  3  1  0
  3  4  1  0
  4  5  1  0
  6  7  1  0
  6  5  1  0
  8  9  2  0
  8  2  1  0
 11 10  1  0
 11 13  1  0
 12 11  2  0
 14 13  1  1
 14 16  1  0
 14 15  1  0
 15  8  1  0
 16 26  1  0
 17 16  2  0
 19 20  2  0
 19 18  1  0
 21 22  1  0
 21 19  1  0
 22 23  1  0
 23 24  1  0
 25 24  1  1
 25 27  1  0
 26 25  1  0
 27 28  2  0
 27 29  1  0
M  END
$$$$
