LLT.pdb
     RDKit          3D

 24 23  0  0  1  0  0  0  0  0999 V2000
    8.6640  -14.2461   18.6585 C   0  0  0  0  0  0  0  0  0  0  0  0
    7.8617  -13.3364   19.5306 C   0  0  2  0  0  0  0  0  0  0  0  0
    7.7917  -11.9667   18.9403 C   0  0  0  0  0  0  0  0  0  0  0  0
    8.4969  -13.3069   20.9143 C   0  0  0  0  0  0  0  0  0  0  0  0
    8.3608  -14.6995   21.4892 C   0  0  2  0  0  0  0  0  0  0  0  0
    7.0109  -15.1879   21.2868 N   0  0  0  0  0  0  0  0  0  0  0  0
    8.7040  -14.7394   22.9289 C   0  0  0  0  0  0  0  0  0  0  0  0
    9.8721  -14.5304   23.3593 O   0  0  0  0  0  0  0  0  0  0  0  0
    5.6744  -12.1125   26.5042 C   0  0  0  0  0  0  0  0  0  0  0  0
    6.9326  -12.7356   25.8251 C   0  0  1  0  0  0  0  0  0  0  0  0
    8.0838  -12.0577   26.5353 C   0  0  0  0  0  0  0  0  0  0  0  0
    6.8619  -14.2143   25.9730 C   0  0  0  0  0  0  0  0  0  0  0  0
    7.9042  -14.9963   25.3296 C   0  0  2  0  0  0  0  0  0  0  0  0
    7.7073  -15.0180   23.8634 N   0  0  0  0  0  0  0  0  0  0  0  0
    8.1524  -16.3787   25.7142 C   0  0  0  0  0  0  0  0  0  0  0  0
    7.3117  -17.1881   26.1955 O   0  0  0  0  0  0  0  0  0  0  0  0
    9.7702  -19.2142   23.7653 C   0  0  0  0  0  0  0  0  0  0  0  0
   10.5640  -19.0555   25.0299 C   0  0  1  0  0  0  0  0  0  0  0  0
   11.7332  -18.3173   24.7958 O   0  0  0  0  0  0  0  0  0  0  0  0
    9.7094  -18.2958   26.0302 C   0  0  2  0  0  0  0  0  0  0  0  0
    9.4700  -16.9529   25.5585 N   0  0  0  0  0  0  0  0  0  0  0  0
   10.4453  -18.1981   27.3173 C   0  0  0  0  0  0  0  0  0  0  0  0
   10.8129  -17.0894   27.7681 O   0  0  0  0  0  0  0  0  0  0  0  0
   10.7612  -19.3238   28.0816 O   0  0  0  0  0  0  0  0  0  0  0  0
  2  1  1  6
  2  3  1  0
  4  2  1  0
  4  5  1  0
  5  7  1  0
  5  6  1  1
  7  8  2  0
 10  9  1  1
 10 12  1  0
 11 10  1  0
 13 12  1  1
 14 13  1  0
 14  7  1  0
 15 16  2  0
 15 13  1  0
 18 17  1  6
 18 20  1  0
 19 18  1  0
 20 21  1  6
 21 15  1  0
 22 20  1  0
 22 24  1  0
 23 22  2  0
M  END
$$$$
