LLT.pdb
     RDKit          3D

 24 23  0  0  1  0  0  0  0  0999 V2000
    8.1837  -14.2954   18.5277 C   0  0  0  0  0  0  0  0  0  0  0  0
    7.7466  -13.6135   19.7829 C   0  0  2  0  0  0  0  0  0  0  0  0
    7.5093  -12.1598   19.5378 C   0  0  0  0  0  0  0  0  0  0  0  0
    8.8156  -13.8244   20.8467 C   0  0  0  0  0  0  0  0  0  0  0  0
    8.4563  -15.0956   21.5836 C   0  0  2  0  0  0  0  0  0  0  0  0
    7.0838  -15.4629   21.2953 N   0  0  0  0  0  0  0  0  0  0  0  0
    8.6488  -14.9606   23.0454 C   0  0  0  0  0  0  0  0  0  0  0  0
    9.7555  -14.6429   23.5628 O   0  0  0  0  0  0  0  0  0  0  0  0
    5.5657  -12.0434   26.2588 C   0  0  0  0  0  0  0  0  0  0  0  0
    6.8198  -12.7869   25.7046 C   0  0  1  0  0  0  0  0  0  0  0  0
    7.9638  -12.1599   26.4710 C   0  0  0  0  0  0  0  0  0  0  0  0
    6.6278  -14.2479   25.9096 C   0  0  0  0  0  0  0  0  0  0  0  0
    7.6510  -15.1328   25.3786 C   0  0  2  0  0  0  0  0  0  0  0  0
    7.5731  -15.1904   23.9022 N   0  0  0  0  0  0  0  0  0  0  0  0
    7.7522  -16.5162   25.8220 C   0  0  0  0  0  0  0  0  0  0  0  0
    6.7974  -17.3256   25.9853 O   0  0  0  0  0  0  0  0  0  0  0  0
    8.9667  -19.4798   24.4289 C   0  0  0  0  0  0  0  0  0  0  0  0
    9.8306  -19.3390   25.6488 C   0  0  1  0  0  0  0  0  0  0  0  0
   11.0584  -18.7437   25.3248 O   0  0  0  0  0  0  0  0  0  0  0  0
    9.1075  -18.4395   26.6367 C   0  0  2  0  0  0  0  0  0  0  0  0
    9.0435  -17.0915   26.1248 N   0  0  0  0  0  0  0  0  0  0  0  0
    9.8754  -18.4038   27.9083 C   0  0  0  0  0  0  0  0  0  0  0  0
   10.4263  -17.3500   28.3002 O   0  0  0  0  0  0  0  0  0  0  0  0
   10.0208  -19.5298   28.7221 O   0  0  0  0  0  0  0  0  0  0  0  0
  2  1  1  6
  2  3  1  0
  4  2  1  0
  4  5  1  0
  5  7  1  0
  5  6  1  1
  7  8  2  0
 10  9  1  1
 10 12  1  0
 11 10  1  0
 13 12  1  1
 14 13  1  0
 14  7  1  0
 15 16  2  0
 15 13  1  0
 18 17  1  6
 18 20  1  0
 19 18  1  0
 20 21  1  6
 21 15  1  0
 22 20  1  0
 22 24  1  0
 23 22  2  0
M  END
$$$$
