LLT.pdb
     RDKit          3D

 24 23  0  0  1  0  0  0  0  0999 V2000
    8.7989  -14.3903   18.7128 C   0  0  0  0  0  0  0  0  0  0  0  0
    7.7678  -13.6236   19.4748 C   0  0  2  0  0  0  0  0  0  0  0  0
    7.4696  -12.3259   18.7988 C   0  0  0  0  0  0  0  0  0  0  0  0
    8.2786  -13.4006   20.8919 C   0  0  0  0  0  0  0  0  0  0  0  0
    8.4414  -14.7673   21.5195 C   0  0  2  0  0  0  0  0  0  0  0  0
    7.2307  -15.5431   21.3353 N   0  0  0  0  0  0  0  0  0  0  0  0
    8.7725  -14.6785   22.9599 C   0  0  0  0  0  0  0  0  0  0  0  0
    9.9170  -14.3502   23.3793 O   0  0  0  0  0  0  0  0  0  0  0  0
    5.6819  -12.3094   26.7085 C   0  0  0  0  0  0  0  0  0  0  0  0
    6.9574  -12.8370   25.9823 C   0  0  1  0  0  0  0  0  0  0  0  0
    8.0844  -12.1174   26.6902 C   0  0  0  0  0  0  0  0  0  0  0  0
    6.9741  -14.3213   26.0820 C   0  0  0  0  0  0  0  0  0  0  0  0
    8.0270  -15.0228   25.3670 C   0  0  2  0  0  0  0  0  0  0  0  0
    7.7911  -14.9661   23.9076 N   0  0  0  0  0  0  0  0  0  0  0  0
    8.3374  -16.4146   25.6621 C   0  0  0  0  0  0  0  0  0  0  0  0
    7.5159  -17.3706   25.7294 O   0  0  0  0  0  0  0  0  0  0  0  0
   10.2549  -18.8309   23.8721 C   0  0  0  0  0  0  0  0  0  0  0  0
   10.9507  -18.7759   25.2014 C   0  0  1  0  0  0  0  0  0  0  0  0
   12.0743  -17.9387   25.1423 O   0  0  0  0  0  0  0  0  0  0  0  0
    9.9786  -18.2026   26.2184 C   0  0  2  0  0  0  0  0  0  0  0  0
    9.7023  -16.8188   25.9147 N   0  0  0  0  0  0  0  0  0  0  0  0
   10.6038  -18.2533   27.5654 C   0  0  0  0  0  0  0  0  0  0  0  0
   10.9699  -17.2067   28.1469 O   0  0  0  0  0  0  0  0  0  0  0  0
   10.8129  -19.4561   28.2443 O   0  0  0  0  0  0  0  0  0  0  0  0
  2  1  1  6
  2  3  1  0
  4  2  1  0
  4  5  1  0
  5  7  1  0
  5  6  1  1
  7  8  2  0
 10  9  1  1
 10 12  1  0
 11 10  1  0
 13 12  1  1
 14 13  1  0
 14  7  1  0
 15 16  2  0
 15 13  1  0
 18 17  1  6
 18 20  1  0
 19 18  1  0
 20 21  1  6
 21 15  1  0
 22 20  1  0
 22 24  1  0
 23 22  2  0
M  END
$$$$
