LLT.pdb
     RDKit          3D

 24 23  0  0  1  0  0  0  0  0999 V2000
    8.0186  -12.4412   27.4296 C   0  0  0  0  0  0  0  0  0  0  0  0
    6.9268  -12.7922   26.4722 C   0  0  2  0  0  0  0  0  0  0  0  0
    5.7861  -11.8372   26.6007 C   0  0  0  0  0  0  0  0  0  0  0  0
    6.4808  -14.2217   26.7486 C   0  0  0  0  0  0  0  0  0  0  0  0
    7.4960  -15.1322   26.0940 C   0  0  2  0  0  0  0  0  0  0  0  0
    8.8329  -14.6104   26.2996 N   0  0  0  0  0  0  0  0  0  0  0  0
    7.2348  -15.3015   24.6465 C   0  0  0  0  0  0  0  0  0  0  0  0
    6.1294  -15.7103   24.1945 O   0  0  0  0  0  0  0  0  0  0  0  0
    6.6736  -14.1300   19.8080 C   0  0  0  0  0  0  0  0  0  0  0  0
    8.1881  -13.9028   20.1031 C   0  0  1  0  0  0  0  0  0  0  0  0
    8.4829  -12.5859   19.4189 C   0  0  0  0  0  0  0  0  0  0  0  0
    8.3875  -13.9246   21.5773 C   0  0  0  0  0  0  0  0  0  0  0  0
    8.1189  -15.1764   22.2650 C   0  0  2  0  0  0  0  0  0  0  0  0
    8.2410  -15.0015   23.7290 N   0  0  0  0  0  0  0  0  0  0  0  0
    8.8688  -16.3838   21.9485 C   0  0  0  0  0  0  0  0  0  0  0  0
    8.5844  -17.2349   21.0607 O   0  0  0  0  0  0  0  0  0  0  0  0
   10.3066  -17.3810   19.9350 C   0  0  0  0  0  0  0  0  0  0  0  0
   11.4438  -17.6032   20.8899 C   0  0  1  0  0  0  0  0  0  0  0  0
   12.2713  -16.4727   20.9519 O   0  0  0  0  0  0  0  0  0  0  0  0
   10.8586  -17.8455   22.2708 C   0  0  2  0  0  0  0  0  0  0  0  0
   10.0716  -16.7077   22.6823 N   0  0  0  0  0  0  0  0  0  0  0  0
   11.9697  -18.0022   23.2449 C   0  0  0  0  0  0  0  0  0  0  0  0
   12.1781  -17.1419   24.1302 O   0  0  0  0  0  0  0  0  0  0  0  0
   12.8286  -19.1036   23.2236 O   0  0  0  0  0  0  0  0  0  0  0  0
  2  1  1  1
  2  3  1  0
  4  2  1  0
  4  5  1  0
  5  7  1  0
  5  6  1  6
  7  8  2  0
 10  9  1  1
 10 12  1  0
 11 10  1  0
 13 12  1  6
 14 13  1  0
 14  7  1  0
 15 16  2  0
 15 13  1  0
 18 17  1  6
 18 20  1  0
 19 18  1  0
 20 21  1  1
 21 15  1  0
 22 20  1  0
 22 24  1  0
 23 22  2  0
M  END
$$$$
