LLT.pdb
     RDKit          3D

 24 23  0  0  1  0  0  0  0  0999 V2000
    7.0166  -18.1623   19.9343 C   0  0  0  0  0  0  0  0  0  0  0  0
    8.3633  -17.5174   19.9803 C   0  0  2  0  0  0  0  0  0  0  0  0
    9.3700  -18.3470   19.2535 C   0  0  0  0  0  0  0  0  0  0  0  0
    8.7590  -17.3249   21.4381 C   0  0  0  0  0  0  0  0  0  0  0  0
    8.8165  -15.8333   21.6836 C   0  0  2  0  0  0  0  0  0  0  0  0
    9.8345  -15.2331   20.8439 N   0  0  0  0  0  0  0  0  0  0  0  0
    9.0807  -15.5168   23.1056 C   0  0  0  0  0  0  0  0  0  0  0  0
   10.2466  -15.3868   23.5718 O   0  0  0  0  0  0  0  0  0  0  0  0
    5.5573  -12.4347   26.1297 C   0  0  0  0  0  0  0  0  0  0  0  0
    6.9026  -12.9961   25.5750 C   0  0  1  0  0  0  0  0  0  0  0  0
    7.9389  -12.0657   26.1664 C   0  0  0  0  0  0  0  0  0  0  0  0
    7.0144  -14.4253   25.9727 C   0  0  0  0  0  0  0  0  0  0  0  0
    8.1416  -15.1752   25.4445 C   0  0  2  0  0  0  0  0  0  0  0  0
    8.0086  -15.3516   23.9816 N   0  0  0  0  0  0  0  0  0  0  0  0
    8.4827  -16.4895   25.9704 C   0  0  0  0  0  0  0  0  0  0  0  0
    7.6928  -17.4588   26.1432 O   0  0  0  0  0  0  0  0  0  0  0  0
   10.6868  -19.1174   24.8082 C   0  0  0  0  0  0  0  0  0  0  0  0
   11.2338  -18.7712   26.1630 C   0  0  1  0  0  0  0  0  0  0  0  0
   12.3252  -17.8975   26.0520 O   0  0  0  0  0  0  0  0  0  0  0  0
   10.1377  -18.0718   26.9487 C   0  0  2  0  0  0  0  0  0  0  0  0
    9.8436  -16.7893   26.3554 N   0  0  0  0  0  0  0  0  0  0  0  0
   10.6169  -17.8293   28.3342 C   0  0  0  0  0  0  0  0  0  0  0  0
   10.8249  -16.6673   28.7511 O   0  0  0  0  0  0  0  0  0  0  0  0
   10.8572  -18.8722   29.2320 O   0  0  0  0  0  0  0  0  0  0  0  0
  2  1  1  1
  2  3  1  0
  4  2  1  0
  4  5  1  0
  5  7  1  0
  5  6  1  6
  7  8  2  0
 10  9  1  1
 10 12  1  0
 11 10  1  0
 13 12  1  1
 14 13  1  0
 14  7  1  0
 15 16  2  0
 15 13  1  0
 18 17  1  6
 18 20  1  0
 19 18  1  0
 20 21  1  6
 21 15  1  0
 22 20  1  0
 22 24  1  0
 23 22  2  0
M  END
$$$$
