LLT.pdb
     RDKit          3D

 24 23  0  0  1  0  0  0  0  0999 V2000
    8.2843  -14.8440   18.2403 C   0  0  0  0  0  0  0  0  0  0  0  0
    7.7989  -13.8248   19.2187 C   0  0  2  0  0  0  0  0  0  0  0  0
    7.7302  -12.4752   18.5834 C   0  0  0  0  0  0  0  0  0  0  0  0
    8.7361  -13.8203   20.4189 C   0  0  0  0  0  0  0  0  0  0  0  0
    8.3601  -15.0106   21.2734 C   0  0  2  0  0  0  0  0  0  0  0  0
    6.9385  -15.2714   21.1594 N   0  0  0  0  0  0  0  0  0  0  0  0
    8.7264  -14.8095   22.6938 C   0  0  0  0  0  0  0  0  0  0  0  0
    9.9057  -14.5569   23.0665 O   0  0  0  0  0  0  0  0  0  0  0  0
    7.3179  -11.6657   25.1756 C   0  0  0  0  0  0  0  0  0  0  0  0
    7.3051  -12.7051   26.3384 C   0  0  1  0  0  0  0  0  0  0  0  0
    6.3218  -12.1131   27.3243 C   0  0  0  0  0  0  0  0  0  0  0  0
    6.9382  -14.0331   25.7770 C   0  0  0  0  0  0  0  0  0  0  0  0
    7.9929  -14.7943   25.1291 C   0  0  2  0  0  0  0  0  0  0  0  0
    7.7400  -14.8993   23.6751 N   0  0  0  0  0  0  0  0  0  0  0  0
    8.3264  -16.1417   25.5692 C   0  0  0  0  0  0  0  0  0  0  0  0
    7.5485  -17.1351   25.6062 O   0  0  0  0  0  0  0  0  0  0  0  0
   11.6276  -19.6166   25.9547 C   0  0  0  0  0  0  0  0  0  0  0  0
   11.2708  -18.2113   25.5646 C   0  0  1  0  0  0  0  0  0  0  0  0
   11.0145  -18.1253   24.1885 O   0  0  0  0  0  0  0  0  0  0  0  0
   10.0075  -17.8212   26.3129 C   0  0  2  0  0  0  0  0  0  0  0  0
    9.6638  -16.4495   26.0240 N   0  0  0  0  0  0  0  0  0  0  0  0
   10.2601  -17.9256   27.7734 C   0  0  0  0  0  0  0  0  0  0  0  0
   10.4967  -16.9071   28.4619 O   0  0  0  0  0  0  0  0  0  0  0  0
   10.2471  -19.1501   28.4455 O   0  0  0  0  0  0  0  0  0  0  0  0
  2  1  1  6
  2  3  1  0
  4  2  1  0
  4  5  1  0
  5  7  1  0
  5  6  1  1
  7  8  2  0
 10  9  1  6
 10 12  1  0
 11 10  1  0
 13 12  1  1
 14 13  1  0
 14  7  1  0
 15 16  2  0
 15 13  1  0
 18 17  1  6
 18 20  1  0
 19 18  1  0
 20 21  1  1
 21 15  1  0
 22 20  1  0
 22 24  1  0
 23 22  2  0
M  END
$$$$
