LLT.pdb
     RDKit          3D

 24 23  0  0  1  0  0  0  0  0999 V2000
    6.0465  -18.9971   19.6624 C   0  0  0  0  0  0  0  0  0  0  0  0
    6.4441  -17.5573   19.6394 C   0  0  2  0  0  0  0  0  0  0  0  0
    7.2557  -17.2541   18.4231 C   0  0  0  0  0  0  0  0  0  0  0  0
    7.2231  -17.2491   20.9110 C   0  0  0  0  0  0  0  0  0  0  0  0
    7.3028  -15.7427   21.0223 C   0  0  2  0  0  0  0  0  0  0  0  0
    8.0065  -15.1990   19.8774 N   0  0  0  0  0  0  0  0  0  0  0  0
    7.9660  -15.3151   22.2751 C   0  0  0  0  0  0  0  0  0  0  0  0
    9.2130  -15.1394   22.3629 O   0  0  0  0  0  0  0  0  0  0  0  0
    5.9678  -11.7283   26.4421 C   0  0  0  0  0  0  0  0  0  0  0  0
    7.1578  -12.4256   25.7139 C   0  0  1  0  0  0  0  0  0  0  0  0
    8.3114  -12.2407   26.6753 C   0  0  0  0  0  0  0  0  0  0  0  0
    6.7730  -13.8341   25.4285 C   0  0  0  0  0  0  0  0  0  0  0  0
    7.7404  -14.6563   24.7213 C   0  0  2  0  0  0  0  0  0  0  0  0
    7.1966  -15.0922   23.4163 N   0  0  0  0  0  0  0  0  0  0  0  0
    8.3008  -15.8525   25.3340 C   0  0  0  0  0  0  0  0  0  0  0  0
    7.6660  -16.8852   25.6862 O   0  0  0  0  0  0  0  0  0  0  0  0
   12.1766  -18.7323   25.8461 C   0  0  0  0  0  0  0  0  0  0  0  0
   11.6118  -17.4394   25.3325 C   0  0  1  0  0  0  0  0  0  0  0  0
   11.3919  -17.5057   23.9490 O   0  0  0  0  0  0  0  0  0  0  0  0
   10.2776  -17.2024   26.0193 C   0  0  2  0  0  0  0  0  0  0  0  0
    9.7197  -15.9401   25.5966 N   0  0  0  0  0  0  0  0  0  0  0  0
   10.4967  -17.1306   27.4872 C   0  0  0  0  0  0  0  0  0  0  0  0
   10.4289  -16.0394   28.0973 O   0  0  0  0  0  0  0  0  0  0  0  0
   10.7861  -18.2624   28.2530 O   0  0  0  0  0  0  0  0  0  0  0  0
  2  1  1  1
  2  3  1  0
  4  2  1  0
  4  5  1  0
  5  7  1  0
  5  6  1  6
  7  8  2  0
 10  9  1  1
 10 12  1  0
 11 10  1  0
 13 12  1  1
 14 13  1  0
 14  7  1  0
 15 16  2  0
 15 13  1  0
 18 17  1  1
 18 20  1  0
 19 18  1  0
 20 21  1  6
 21 15  1  0
 22 20  1  0
 22 24  1  0
 23 22  2  0
M  END
$$$$
