GQE.pdb
     RDKit          3D

 23 22  0  0  1  0  0  0  0  0999 V2000
    7.5921  -16.0883   19.1087 N   0  0  0  0  0  0  0  0  0  0  0  0
    6.9040  -16.1379   20.3599 C   0  0  0  0  0  0  0  0  0  0  0  0
    7.6958  -15.4751   21.4551 C   0  0  0  0  0  0  0  0  0  0  0  0
    8.9231  -15.2823   21.2969 O   0  0  0  0  0  0  0  0  0  0  0  0
    5.4284  -12.8091   26.7255 N   0  0  0  0  0  0  0  0  0  0  0  0
    6.8106  -12.5426   26.8273 C   0  0  0  0  0  0  0  0  0  0  0  0
    7.2262  -11.8230   27.7528 O   0  0  0  0  0  0  0  0  0  0  0  0
    7.7568  -13.1071   25.8516 C   0  0  0  0  0  0  0  0  0  0  0  0
    7.0039  -13.8043   24.7723 C   0  0  0  0  0  0  0  0  0  0  0  0
    7.8811  -14.4426   23.7312 C   0  0  2  0  0  0  0  0  0  0  0  0
    7.1016  -15.0589   22.6649 N   0  0  0  0  0  0  0  0  0  0  0  0
    8.7700  -15.4830   24.3106 C   0  0  0  0  0  0  0  0  0  0  0  0
    8.3118  -16.6229   24.6613 O   0  0  0  0  0  0  0  0  0  0  0  0
   10.1567  -15.2891   24.5107 N   0  0  0  0  0  0  0  0  0  0  0  0
   11.0525  -16.4190   24.8317 C   0  0  1  0  0  0  0  0  0  0  0  0
   12.4752  -16.0562   24.4991 C   0  0  0  0  0  0  0  0  0  0  0  0
   13.4971  -17.0647   24.8770 C   0  0  0  0  0  0  0  0  0  0  0  0
   14.7369  -17.0420   24.0969 C   0  0  0  0  0  0  0  0  0  0  0  0
   15.3722  -15.9866   23.8554 O   0  0  0  0  0  0  0  0  0  0  0  0
   10.9632  -16.6590   26.2899 C   0  0  0  0  0  0  0  0  0  0  0  0
   11.4607  -17.6744   26.8215 O   0  0  0  0  0  0  0  0  0  0  0  0
   15.2930  -18.2105   23.5682 O   0  0  0  0  0  0  0  0  0  0  0  0
   10.3184  -15.7535   27.1116 O   0  0  0  0  0  0  0  0  0  0  0  0
  2  1  1  0
  3  4  2  0
  3  2  1  0
  6  7  2  0
  6  5  1  0
  8  6  1  0
 10  9  1  1
  9  8  1  0
 10 11  1  0
 11  3  1  0
 12 10  1  0
 13 12  2  0
 14 12  1  0
 15 14  1  0
 15 16  1  1
 17 16  1  0
 18 19  2  0
 18 17  1  0
 20 23  1  0
 20 15  1  0
 21 20  2  0
 22 18  1  0
M  END
$$$$
