GQE.pdb
     RDKit          3D

 23 22  0  0  1  0  0  0  0  0999 V2000
   10.8705  -16.1474   13.5142 N   0  0  0  0  0  0  0  0  0  0  0  0
   10.3495  -16.4650   14.8061 C   0  0  0  0  0  0  0  0  0  0  0  0
   10.7608  -15.4472   15.8359 C   0  0  0  0  0  0  0  0  0  0  0  0
   11.8031  -14.7766   15.6562 O   0  0  0  0  0  0  0  0  0  0  0  0
    7.5129  -13.1687   20.7892 N   0  0  0  0  0  0  0  0  0  0  0  0
    7.3084  -12.8157   19.4381 C   0  0  0  0  0  0  0  0  0  0  0  0
    6.2678  -12.2154   19.1157 O   0  0  0  0  0  0  0  0  0  0  0  0
    8.3120  -13.1512   18.4155 C   0  0  0  0  0  0  0  0  0  0  0  0
    9.3955  -13.9683   19.0288 C   0  0  0  0  0  0  0  0  0  0  0  0
   10.4913  -14.3459   18.0709 C   0  0  2  0  0  0  0  0  0  0  0  0
   10.0091  -15.2181   17.0074 N   0  0  0  0  0  0  0  0  0  0  0  0
   11.6180  -15.0336   18.7535 C   0  0  0  0  0  0  0  0  0  0  0  0
   11.6047  -16.2974   18.9408 O   0  0  0  0  0  0  0  0  0  0  0  0
   12.7605  -14.3522   19.2341 N   0  0  0  0  0  0  0  0  0  0  0  0
   13.8552  -15.0728   19.9158 C   0  0  1  0  0  0  0  0  0  0  0  0
   15.1033  -14.2312   19.9126 C   0  0  0  0  0  0  0  0  0  0  0  0
   16.2802  -14.8307   20.5906 C   0  0  0  0  0  0  0  0  0  0  0  0
   17.5024  -14.0228   20.5836 C   0  0  0  0  0  0  0  0  0  0  0  0
   17.5239  -12.8147   20.9237 O   0  0  0  0  0  0  0  0  0  0  0  0
   13.4421  -15.2856   21.3214 C   0  0  0  0  0  0  0  0  0  0  0  0
   12.6094  -14.5422   21.8827 O   0  0  0  0  0  0  0  0  0  0  0  0
   18.7334  -14.5574   20.1924 O   0  0  0  0  0  0  0  0  0  0  0  0
   13.9746  -16.3266   22.0590 O   0  0  0  0  0  0  0  0  0  0  0  0
  2  1  1  0
  3  4  2  0
  3  2  1  0
  6  7  2  0
  6  5  1  0
  8  6  1  0
 10  9  1  1
  9  8  1  0
 10 11  1  0
 11  3  1  0
 12 10  1  0
 13 12  2  0
 14 12  1  0
 15 14  1  0
 15 16  1  1
 17 16  1  0
 18 19  2  0
 18 17  1  0
 20 23  1  0
 20 15  1  0
 21 20  2  0
 22 18  1  0
M  END
$$$$
