GQE.pdb
     RDKit          3D

 23 22  0  0  1  0  0  0  0  0999 V2000
    5.0044  -18.8974   21.7200 N   0  0  0  0  0  0  0  0  0  0  0  0
    5.1372  -17.5536   22.1869 C   0  0  0  0  0  0  0  0  0  0  0  0
    6.3850  -16.9018   21.6541 C   0  0  0  0  0  0  0  0  0  0  0  0
    7.1813  -17.5735   20.9590 O   0  0  0  0  0  0  0  0  0  0  0  0
    9.4468  -12.9079   19.0355 N   0  0  0  0  0  0  0  0  0  0  0  0
    8.0848  -13.2472   18.8882 C   0  0  0  0  0  0  0  0  0  0  0  0
    7.6642  -13.6115   17.7758 O   0  0  0  0  0  0  0  0  0  0  0  0
    7.1656  -13.1732   20.0351 C   0  0  0  0  0  0  0  0  0  0  0  0
    7.9012  -13.5056   21.2865 C   0  0  0  0  0  0  0  0  0  0  0  0
    7.9911  -14.9799   21.5679 C   0  0  2  0  0  0  0  0  0  0  0  0
    6.6940  -15.5496   21.9107 N   0  0  0  0  0  0  0  0  0  0  0  0
    8.9327  -15.2808   22.6774 C   0  0  0  0  0  0  0  0  0  0  0  0
    8.5909  -15.1155   23.8973 O   0  0  0  0  0  0  0  0  0  0  0  0
   10.2461  -15.7613   22.4660 N   0  0  0  0  0  0  0  0  0  0  0  0
   11.1034  -16.1775   23.5947 C   0  0  1  0  0  0  0  0  0  0  0  0
   10.8568  -17.6267   23.9190 C   0  0  0  0  0  0  0  0  0  0  0  0
   11.7311  -18.2041   24.9708 C   0  0  0  0  0  0  0  0  0  0  0  0
   11.3055  -17.9736   26.3536 C   0  0  0  0  0  0  0  0  0  0  0  0
   10.1570  -18.2608   26.7710 O   0  0  0  0  0  0  0  0  0  0  0  0
   12.5120  -16.0313   23.1631 C   0  0  0  0  0  0  0  0  0  0  0  0
   13.4578  -16.0697   23.9786 O   0  0  0  0  0  0  0  0  0  0  0  0
   12.1652  -17.4127   27.3025 O   0  0  0  0  0  0  0  0  0  0  0  0
   12.8209  -15.8460   21.8284 O   0  0  0  0  0  0  0  0  0  0  0  0
  2  1  1  0
  3  4  2  0
  3  2  1  0
  6  7  2  0
  6  5  1  0
  8  6  1  0
 10  9  1  1
  9  8  1  0
 10 11  1  0
 11  3  1  0
 12 10  1  0
 13 12  2  0
 14 12  1  0
 15 14  1  0
 15 16  1  6
 17 16  1  0
 18 19  2  0
 18 17  1  0
 20 23  1  0
 20 15  1  0
 21 20  2  0
 22 18  1  0
M  END
$$$$
