GQE.pdb
     RDKit          3D

 23 22  0  0  1  0  0  0  0  0999 V2000
    1.4263  -19.9333   21.3226 N   0  0  0  0  0  0  0  0  0  0  0  0
    1.9660  -19.0507   22.3082 C   0  0  0  0  0  0  0  0  0  0  0  0
    3.4628  -19.1759   22.4050 C   0  0  0  0  0  0  0  0  0  0  0  0
    4.0032  -20.2840   22.1848 O   0  0  0  0  0  0  0  0  0  0  0  0
    8.1193  -16.0906   20.1445 N   0  0  0  0  0  0  0  0  0  0  0  0
    7.1654  -15.3374   20.8618 C   0  0  0  0  0  0  0  0  0  0  0  0
    7.0805  -14.1127   20.6622 O   0  0  0  0  0  0  0  0  0  0  0  0
    6.2765  -15.9879   21.8378 C   0  0  0  0  0  0  0  0  0  0  0  0
    6.4585  -17.4644   21.7718 C   0  0  0  0  0  0  0  0  0  0  0  0
    5.7345  -18.2172   22.8535 C   0  0  2  0  0  0  0  0  0  0  0  0
    4.2880  -18.0812   22.7377 N   0  0  0  0  0  0  0  0  0  0  0  0
    6.1314  -17.7635   24.2118 C   0  0  0  0  0  0  0  0  0  0  0  0
    5.5318  -16.7921   24.7854 O   0  0  0  0  0  0  0  0  0  0  0  0
    7.1787  -18.3623   24.9500 N   0  0  0  0  0  0  0  0  0  0  0  0
    7.5211  -17.9014   26.3111 C   0  0  1  0  0  0  0  0  0  0  0  0
    7.3875  -19.0399   27.2870 C   0  0  0  0  0  0  0  0  0  0  0  0
    8.3015  -20.1874   27.0594 C   0  0  0  0  0  0  0  0  0  0  0  0
    7.8801  -21.4653   27.6389 C   0  0  0  0  0  0  0  0  0  0  0  0
    7.8565  -21.6792   28.8756 O   0  0  0  0  0  0  0  0  0  0  0  0
    8.9368  -17.4689   26.2931 C   0  0  0  0  0  0  0  0  0  0  0  0
    9.6545  -17.6069   25.2797 O   0  0  0  0  0  0  0  0  0  0  0  0
    7.4739  -22.5363   26.8376 O   0  0  0  0  0  0  0  0  0  0  0  0
    9.5088  -16.8934   27.4124 O   0  0  0  0  0  0  0  0  0  0  0  0
  2  1  1  0
  3  4  2  0
  3  2  1  0
  6  7  2  0
  6  5  1  0
  8  6  1  0
 10  9  1  6
  9  8  1  0
 10 11  1  0
 11  3  1  0
 12 10  1  0
 13 12  2  0
 14 12  1  0
 15 14  1  0
 15 16  1  1
 17 16  1  0
 18 19  2  0
 18 17  1  0
 20 23  1  0
 20 15  1  0
 21 20  2  0
 22 18  1  0
M  END
$$$$
