GQE.pdb
     RDKit          3D

 23 22  0  0  1  0  0  0  0  0999 V2000
   13.5740  -18.5976   19.9095 N   0  0  0  0  0  0  0  0  0  0  0  0
   12.1544  -18.4421   19.8640 C   0  0  0  0  0  0  0  0  0  0  0  0
   11.6911  -17.3156   20.7483 C   0  0  0  0  0  0  0  0  0  0  0  0
   12.4862  -16.8175   21.5778 O   0  0  0  0  0  0  0  0  0  0  0  0
    6.8289  -13.4797   19.8525 N   0  0  0  0  0  0  0  0  0  0  0  0
    7.2601  -13.0821   21.1362 C   0  0  0  0  0  0  0  0  0  0  0  0
    6.7127  -12.1121   21.6898 O   0  0  0  0  0  0  0  0  0  0  0  0
    8.3461  -13.8033   21.8190 C   0  0  0  0  0  0  0  0  0  0  0  0
    8.8399  -14.9042   20.9461 C   0  0  0  0  0  0  0  0  0  0  0  0
    9.9278  -15.7349   21.5686 C   0  0  2  0  0  0  0  0  0  0  0  0
   10.3820  -16.7948   20.6772 N   0  0  0  0  0  0  0  0  0  0  0  0
    9.4921  -16.3621   22.8434 C   0  0  0  0  0  0  0  0  0  0  0  0
    8.9358  -17.5121   22.8577 O   0  0  0  0  0  0  0  0  0  0  0  0
    9.6588  -15.7433   24.1043 N   0  0  0  0  0  0  0  0  0  0  0  0
    9.2848  -16.4344   25.3552 C   0  0  1  0  0  0  0  0  0  0  0  0
    9.8598  -15.7015   26.5378 C   0  0  0  0  0  0  0  0  0  0  0  0
    9.6035  -16.3232   27.8614 C   0  0  0  0  0  0  0  0  0  0  0  0
   10.1550  -15.6138   29.0186 C   0  0  0  0  0  0  0  0  0  0  0  0
   10.7701  -14.5239   28.9214 O   0  0  0  0  0  0  0  0  0  0  0  0
    7.8085  -16.3997   25.4603 C   0  0  0  0  0  0  0  0  0  0  0  0
    7.1352  -15.4697   24.9675 O   0  0  0  0  0  0  0  0  0  0  0  0
   10.0267  -16.1158   30.3169 O   0  0  0  0  0  0  0  0  0  0  0  0
    7.1280  -17.4091   26.1153 O   0  0  0  0  0  0  0  0  0  0  0  0
  2  1  1  0
  3  4  2  0
  3  2  1  0
  6  7  2  0
  6  5  1  0
  8  6  1  0
 10  9  1  6
  9  8  1  0
 10 11  1  0
 11  3  1  0
 12 10  1  0
 13 12  2  0
 14 12  1  0
 15 14  1  0
 15 16  1  1
 17 16  1  0
 18 19  2  0
 18 17  1  0
 20 23  1  0
 20 15  1  0
 21 20  2  0
 22 18  1  0
M  END
$$$$
