GQE.pdb
     RDKit          3D

 23 22  0  0  1  0  0  0  0  0999 V2000
    2.9341  -18.9873   22.0649 N   0  0  0  0  0  0  0  0  0  0  0  0
    3.4489  -17.6606   22.1931 C   0  0  0  0  0  0  0  0  0  0  0  0
    4.9162  -17.6005   21.8633 C   0  0  0  0  0  0  0  0  0  0  0  0
    5.5605  -18.6658   21.7274 O   0  0  0  0  0  0  0  0  0  0  0  0
    7.8864  -13.7535   18.1755 N   0  0  0  0  0  0  0  0  0  0  0  0
    8.0467  -13.2209   19.4727 C   0  0  0  0  0  0  0  0  0  0  0  0
    8.4167  -12.0409   19.6057 O   0  0  0  0  0  0  0  0  0  0  0  0
    7.7805  -14.0477   20.6607 C   0  0  0  0  0  0  0  0  0  0  0  0
    7.3067  -15.3940   20.2356 C   0  0  0  0  0  0  0  0  0  0  0  0
    7.0205  -16.3287   21.3782 C   0  0  2  0  0  0  0  0  0  0  0  0
    5.5998  -16.3774   21.6999 N   0  0  0  0  0  0  0  0  0  0  0  0
    7.7578  -15.9470   22.6107 C   0  0  0  0  0  0  0  0  0  0  0  0
    7.2756  -15.0955   23.4321 O   0  0  0  0  0  0  0  0  0  0  0  0
    9.0186  -16.4880   22.9543 N   0  0  0  0  0  0  0  0  0  0  0  0
    9.7307  -16.0619   24.1765 C   0  0  1  0  0  0  0  0  0  0  0  0
    9.4026  -16.9937   25.3125 C   0  0  0  0  0  0  0  0  0  0  0  0
   10.1768  -18.2601   25.3443 C   0  0  0  0  0  0  0  0  0  0  0  0
    9.8020  -19.2125   26.3926 C   0  0  0  0  0  0  0  0  0  0  0  0
   10.4157  -20.2902   26.5868 O   0  0  0  0  0  0  0  0  0  0  0  0
   11.1826  -16.1562   23.9030 C   0  0  0  0  0  0  0  0  0  0  0  0
   11.6247  -16.7243   22.8818 O   0  0  0  0  0  0  0  0  0  0  0  0
    8.7241  -18.9738   27.2500 O   0  0  0  0  0  0  0  0  0  0  0  0
   12.0989  -15.6105   24.7827 O   0  0  0  0  0  0  0  0  0  0  0  0
  2  1  1  0
  3  4  2  0
  3  2  1  0
  6  7  2  0
  6  5  1  0
  8  6  1  0
 10  9  1  6
  9  8  1  0
 10 11  1  0
 11  3  1  0
 12 10  1  0
 13 12  2  0
 14 12  1  0
 15 14  1  0
 15 16  1  1
 17 16  1  0
 18 19  2  0
 18 17  1  0
 20 23  1  0
 20 15  1  0
 21 20  2  0
 22 18  1  0
M  END
$$$$
