GQE.pdb
     RDKit          3D

 23 22  0  0  1  0  0  0  0  0999 V2000
    2.7644  -19.5202   21.3266 N   0  0  0  0  0  0  0  0  0  0  0  0
    3.0453  -18.3451   22.0893 C   0  0  0  0  0  0  0  0  0  0  0  0
    4.5049  -17.9820   22.0317 C   0  0  0  0  0  0  0  0  0  0  0  0
    5.3675  -18.8867   22.1081 O   0  0  0  0  0  0  0  0  0  0  0  0
    6.9784  -12.9146   19.4322 N   0  0  0  0  0  0  0  0  0  0  0  0
    8.1346  -13.5560   19.9259 C   0  0  0  0  0  0  0  0  0  0  0  0
    9.2556  -13.1424   19.5806 O   0  0  0  0  0  0  0  0  0  0  0  0
    8.0225  -14.7035   20.8405 C   0  0  0  0  0  0  0  0  0  0  0  0
    6.5856  -15.0245   21.0644 C   0  0  0  0  0  0  0  0  0  0  0  0
    6.3570  -16.3079   21.8139 C   0  0  2  0  0  0  0  0  0  0  0  0
    4.9420  -16.6480   21.8936 N   0  0  0  0  0  0  0  0  0  0  0  0
    6.8942  -16.2500   23.1982 C   0  0  0  0  0  0  0  0  0  0  0  0
    6.2973  -15.5851   24.1114 O   0  0  0  0  0  0  0  0  0  0  0  0
    8.0792  -16.9129   23.5944 N   0  0  0  0  0  0  0  0  0  0  0  0
    8.5587  -16.8616   24.9907 C   0  0  1  0  0  0  0  0  0  0  0  0
    8.7723  -18.2578   25.5114 C   0  0  0  0  0  0  0  0  0  0  0  0
    9.0489  -18.3621   26.9663 C   0  0  0  0  0  0  0  0  0  0  0  0
    9.2440  -19.7185   27.4845 C   0  0  0  0  0  0  0  0  0  0  0  0
    8.2911  -20.4707   27.8039 O   0  0  0  0  0  0  0  0  0  0  0  0
    9.8633  -16.1618   24.9893 C   0  0  0  0  0  0  0  0  0  0  0  0
   10.5209  -15.9972   23.9398 O   0  0  0  0  0  0  0  0  0  0  0  0
   10.5203  -20.2623   27.6561 O   0  0  0  0  0  0  0  0  0  0  0  0
   10.3945  -15.6658   26.1653 O   0  0  0  0  0  0  0  0  0  0  0  0
  2  1  1  0
  3  4  2  0
  3  2  1  0
  6  7  2  0
  6  5  1  0
  8  6  1  0
 10  9  1  1
  9  8  1  0
 10 11  1  0
 11  3  1  0
 12 10  1  0
 13 12  2  0
 14 12  1  0
 15 14  1  0
 15 16  1  6
 17 16  1  0
 18 19  2  0
 18 17  1  0
 20 23  1  0
 20 15  1  0
 21 20  2  0
 22 18  1  0
M  END
$$$$
