GQE.pdb
     RDKit          3D

 23 22  0  0  1  0  0  0  0  0999 V2000
    9.2260  -18.7769   15.5058 N   0  0  0  0  0  0  0  0  0  0  0  0
    8.9972  -18.2550   16.8161 C   0  0  0  0  0  0  0  0  0  0  0  0
    9.9383  -17.1244   17.1351 C   0  0  0  0  0  0  0  0  0  0  0  0
   10.9791  -16.9793   16.4539 O   0  0  0  0  0  0  0  0  0  0  0  0
    8.1706  -12.0976   20.2111 N   0  0  0  0  0  0  0  0  0  0  0  0
    7.7041  -12.6062   18.9800 C   0  0  0  0  0  0  0  0  0  0  0  0
    6.6050  -12.2248   18.5401 O   0  0  0  0  0  0  0  0  0  0  0  0
    8.5049  -13.5784   18.2188 C   0  0  0  0  0  0  0  0  0  0  0  0
    9.7558  -13.8877   18.9653 C   0  0  0  0  0  0  0  0  0  0  0  0
   10.5329  -15.0446   18.4006 C   0  0  2  0  0  0  0  0  0  0  0  0
    9.6895  -16.2132   18.1829 N   0  0  0  0  0  0  0  0  0  0  0  0
   11.6571  -15.4476   19.2848 C   0  0  0  0  0  0  0  0  0  0  0  0
   11.4421  -15.9929   20.4200 O   0  0  0  0  0  0  0  0  0  0  0  0
   13.0158  -15.2601   18.9396 N   0  0  0  0  0  0  0  0  0  0  0  0
   14.1047  -15.7124   19.8296 C   0  0  1  0  0  0  0  0  0  0  0  0
   15.1166  -16.5012   19.0421 C   0  0  0  0  0  0  0  0  0  0  0  0
   14.6408  -17.8049   18.5147 C   0  0  0  0  0  0  0  0  0  0  0  0
   15.6237  -18.5866   17.7604 C   0  0  0  0  0  0  0  0  0  0  0  0
   15.7159  -19.8354   17.8491 O   0  0  0  0  0  0  0  0  0  0  0  0
   14.7727  -14.5054   20.3669 C   0  0  0  0  0  0  0  0  0  0  0  0
   14.5466  -13.3670   19.9043 O   0  0  0  0  0  0  0  0  0  0  0  0
   16.5292  -17.9795   16.8854 O   0  0  0  0  0  0  0  0  0  0  0  0
   15.6759  -14.6086   21.4083 O   0  0  0  0  0  0  0  0  0  0  0  0
  2  1  1  0
  3  4  2  0
  3  2  1  0
  6  7  2  0
  6  5  1  0
  8  6  1  0
 10  9  1  1
  9  8  1  0
 10 11  1  0
 11  3  1  0
 12 10  1  0
 13 12  2  0
 14 12  1  0
 15 14  1  0
 15 16  1  6
 17 16  1  0
 18 19  2  0
 18 17  1  0
 20 23  1  0
 20 15  1  0
 21 20  2  0
 22 18  1  0
M  END
$$$$
