IHH.pdb
     RDKit          3D

 29 30  0  0  1  0  0  0  0  0999 V2000
   25.5330  -22.8462  -18.3268 C   0  0  0  0  0  0  0  0  0  0  0  0
   25.0101  -23.8728  -17.3489 C   0  0  0  0  0  0  0  0  0  0  0  0
   25.5905  -25.2570  -17.6712 C   0  0  2  0  0  0  0  0  0  0  0  0
   25.1615  -25.5615  -19.0902 C   0  0  0  0  0  0  0  0  0  0  0  0
   24.9090  -26.2524  -16.7615 C   0  0  2  0  0  0  0  0  0  0  0  0
   25.3083  -26.0035  -15.3918 N   0  0  0  0  0  0  0  0  0  0  0  0
   25.2995  -27.6577  -17.1107 C   0  0  0  0  0  0  0  0  0  0  0  0
   25.1848  -28.0961  -18.2844 O   0  0  0  0  0  0  0  0  0  0  0  0
   25.8145  -28.5539  -16.1367 N   0  0  0  0  0  0  0  0  0  0  0  0
   26.2880  -29.8909  -16.4332 C   0  0  1  0  0  0  0  0  0  0  0  0
   27.7771  -29.9582  -16.1107 C   0  0  0  0  0  0  0  0  0  0  0  0
   28.5639  -29.2429  -17.1327 C   0  0  0  0  0  0  0  0  0  0  0  0
   29.2050  -28.0344  -17.0110 C   0  0  0  0  0  0  0  0  0  0  0  0
   29.7874  -27.7798  -18.1844 N   0  0  0  0  0  0  0  0  0  0  0  0
   29.5383  -28.7790  -19.0385 C   0  0  0  0  0  0  0  0  0  0  0  0
   28.7894  -29.6693  -18.3868 N   0  0  0  0  0  0  0  0  0  0  0  0
   25.5353  -30.8381  -15.5695 C   0  0  0  0  0  0  0  0  0  0  0  0
   25.1514  -30.5095  -14.3957 O   0  0  0  0  0  0  0  0  0  0  0  0
   25.2559  -32.1274  -16.0958 N   0  0  0  0  0  0  0  0  0  0  0  0
   24.4250  -33.0666  -15.3845 C   0  0  1  0  0  0  0  0  0  0  0  0
   23.1948  -33.4470  -16.1670 C   0  0  0  0  0  0  0  0  0  0  0  0
   22.1652  -32.4131  -16.1854 C   0  0  0  0  0  0  0  0  0  0  0  0
   21.5054  -31.9199  -15.0911 C   0  0  0  0  0  0  0  0  0  0  0  0
   20.6489  -30.9935  -15.5454 N   0  0  0  0  0  0  0  0  0  0  0  0
   20.7664  -30.9071  -16.8801 C   0  0  0  0  0  0  0  0  0  0  0  0
   21.6935  -31.7776  -17.2550 N   0  0  0  0  0  0  0  0  0  0  0  0
   25.2304  -34.2092  -14.9599 C   0  0  0  0  0  0  0  0  0  0  0  0
   26.2146  -34.6680  -15.5997 O   0  0  0  0  0  0  0  0  0  0  0  0
   24.9224  -34.8613  -13.7760 O   0  0  0  0  0  0  0  0  0  0  0  0
  2  1  1  0
  3  2  1  0
  3  4  1  6
  5  3  1  0
  5  6  1  1
  7  5  1  0
  7  8  2  0
  9  7  1  0
 10  9  1  0
 10 11  1  1
 12 11  1  0
 12 16  1  0
 13 14  1  0
 13 12  2  0
 14 15  1  0
 15 16  2  0
 17 10  1  0
 18 17  2  0
 19 17  1  0
 20 19  1  0
 20 21  1  6
 21 22  1  0
 22 26  1  0
 23 22  2  0
 23 24  1  0
 24 25  1  0
 26 25  2  0
 27 29  1  0
 27 20  1  0
 28 27  2  0
M  END
$$$$
