IHH.pdb
     RDKit          3D

 29 30  0  0  1  0  0  0  0  0999 V2000
   17.5749  -14.7254  -16.1415 C   0  0  0  0  0  0  0  0  0  0  0  0
   18.5103  -14.1413  -17.1746 C   0  0  0  0  0  0  0  0  0  0  0  0
   19.1899  -12.8801  -16.6228 C   0  0  2  0  0  0  0  0  0  0  0  0
   18.0791  -11.8738  -16.4132 C   0  0  0  0  0  0  0  0  0  0  0  0
   20.0946  -12.3461  -17.7087 C   0  0  2  0  0  0  0  0  0  0  0  0
   21.1619  -13.2938  -17.9541 N   0  0  0  0  0  0  0  0  0  0  0  0
   20.7155  -11.0431  -17.3011 C   0  0  0  0  0  0  0  0  0  0  0  0
   21.7027  -11.0042  -16.5222 O   0  0  0  0  0  0  0  0  0  0  0  0
   20.2195   -9.7991  -17.7738 N   0  0  0  0  0  0  0  0  0  0  0  0
   20.8232   -8.5167  -17.4720 C   0  0  1  0  0  0  0  0  0  0  0  0
   20.5918   -7.5837  -18.6560 C   0  0  0  0  0  0  0  0  0  0  0  0
   21.5597   -7.8605  -19.7338 C   0  0  0  0  0  0  0  0  0  0  0  0
   22.6041   -8.7524  -19.7215 C   0  0  0  0  0  0  0  0  0  0  0  0
   23.2074   -8.6659  -20.9087 N   0  0  0  0  0  0  0  0  0  0  0  0
   22.5846   -7.7560  -21.6664 C   0  0  0  0  0  0  0  0  0  0  0  0
   21.5783   -7.2686  -20.9400 N   0  0  0  0  0  0  0  0  0  0  0  0
   20.1544   -7.9775  -16.2588 C   0  0  0  0  0  0  0  0  0  0  0  0
   18.8865   -8.0410  -16.1122 O   0  0  0  0  0  0  0  0  0  0  0  0
   20.9768   -7.3863  -15.2631 N   0  0  0  0  0  0  0  0  0  0  0  0
   20.4226   -6.8834  -14.0308 C   0  0  1  0  0  0  0  0  0  0  0  0
   21.3172   -7.1563  -12.8494 C   0  0  0  0  0  0  0  0  0  0  0  0
   20.8325   -6.5826  -11.5983 C   0  0  0  0  0  0  0  0  0  0  0  0
   19.6289   -5.9538  -11.4185 C   0  0  0  0  0  0  0  0  0  0  0  0
   19.5805   -5.5799  -10.1316 N   0  0  0  0  0  0  0  0  0  0  0  0
   20.7150   -5.9607   -9.5230 C   0  0  0  0  0  0  0  0  0  0  0  0
   21.4673   -6.5700  -10.4290 N   0  0  0  0  0  0  0  0  0  0  0  0
   20.0710   -5.4744  -14.1910 C   0  0  0  0  0  0  0  0  0  0  0  0
   20.8023   -4.6136  -14.7501 O   0  0  0  0  0  0  0  0  0  0  0  0
   18.8563   -5.0132  -13.7076 O   0  0  0  0  0  0  0  0  0  0  0  0
  2  1  1  0
  3  2  1  0
  3  4  1  6
  5  3  1  0
  5  6  1  1
  7  5  1  0
  7  8  2  0
  9  7  1  0
 10  9  1  0
 10 11  1  6
 12 11  1  0
 12 16  1  0
 13 14  1  0
 13 12  2  0
 14 15  1  0
 15 16  2  0
 17 10  1  0
 18 17  2  0
 19 17  1  0
 20 19  1  0
 20 21  1  1
 21 22  1  0
 22 26  1  0
 23 22  2  0
 23 24  1  0
 24 25  1  0
 26 25  2  0
 27 29  1  0
 27 20  1  0
 28 27  2  0
M  END
$$$$
