IHH.pdb
     RDKit          3D

 29 30  0  0  1  0  0  0  0  0999 V2000
   36.5811   -9.2897  -14.7633 C   0  0  0  0  0  0  0  0  0  0  0  0
   35.8895   -8.1717  -15.5086 C   0  0  0  0  0  0  0  0  0  0  0  0
   34.4096   -8.5157  -15.7280 C   0  0  2  0  0  0  0  0  0  0  0  0
   34.3994   -9.7085  -16.6594 C   0  0  0  0  0  0  0  0  0  0  0  0
   33.7827   -7.3538  -16.4627 C   0  0  2  0  0  0  0  0  0  0  0  0
   33.7705   -6.1902  -15.6004 N   0  0  0  0  0  0  0  0  0  0  0  0
   32.3662   -7.6605  -16.8484 C   0  0  0  0  0  0  0  0  0  0  0  0
   31.4492   -7.7059  -15.9883 O   0  0  0  0  0  0  0  0  0  0  0  0
   31.9969   -7.9126  -18.1965 N   0  0  0  0  0  0  0  0  0  0  0  0
   30.6333   -8.1245  -18.6388 C   0  0  1  0  0  0  0  0  0  0  0  0
   30.5612   -7.8381  -20.1350 C   0  0  0  0  0  0  0  0  0  0  0  0
   29.1694   -7.9247  -20.6151 C   0  0  0  0  0  0  0  0  0  0  0  0
   28.0166   -7.6821  -19.9089 C   0  0  0  0  0  0  0  0  0  0  0  0
   26.9956   -7.8825  -20.7445 N   0  0  0  0  0  0  0  0  0  0  0  0
   27.4599   -8.2411  -21.9469 C   0  0  0  0  0  0  0  0  0  0  0  0
   28.7901   -8.2644  -21.8585 N   0  0  0  0  0  0  0  0  0  0  0  0
   30.2888   -9.5461  -18.3739 C   0  0  0  0  0  0  0  0  0  0  0  0
   31.1447  -10.4812  -18.5359 O   0  0  0  0  0  0  0  0  0  0  0  0
   28.9694   -9.8312  -17.9323 N   0  0  0  0  0  0  0  0  0  0  0  0
   28.5810  -11.1603  -17.5309 C   0  0  1  0  0  0  0  0  0  0  0  0
   27.5552  -11.1462  -16.4273 C   0  0  0  0  0  0  0  0  0  0  0  0
   27.0652  -12.4712  -16.0615 C   0  0  0  0  0  0  0  0  0  0  0  0
   27.7775  -13.6386  -16.1395 C   0  0  0  0  0  0  0  0  0  0  0  0
   26.9626  -14.6140  -15.7120 N   0  0  0  0  0  0  0  0  0  0  0  0
   25.7782  -14.0780  -15.3765 C   0  0  0  0  0  0  0  0  0  0  0  0
   25.8562  -12.7726  -15.5948 N   0  0  0  0  0  0  0  0  0  0  0  0
   28.1728  -11.9270  -18.7056 C   0  0  0  0  0  0  0  0  0  0  0  0
   28.7012  -13.0111  -19.0714 O   0  0  0  0  0  0  0  0  0  0  0  0
   27.1353  -11.4625  -19.4991 O   0  0  0  0  0  0  0  0  0  0  0  0
  2  1  1  0
  3  2  1  0
  3  4  1  6
  5  3  1  0
  5  6  1  1
  7  5  1  0
  7  8  2  0
  9  7  1  0
 10  9  1  0
 10 11  1  6
 12 11  1  0
 12 16  1  0
 13 14  1  0
 13 12  2  0
 14 15  1  0
 15 16  2  0
 17 10  1  0
 18 17  2  0
 19 17  1  0
 20 19  1  0
 20 21  1  1
 21 22  1  0
 22 26  1  0
 23 22  2  0
 23 24  1  0
 24 25  1  0
 26 25  2  0
 27 29  1  0
 27 20  1  0
 28 27  2  0
M  END
$$$$
