IHH.pdb
     RDKit          3D

 29 30  0  0  1  0  0  0  0  0999 V2000
   23.3905  -38.2994  -13.2865 C   0  0  0  0  0  0  0  0  0  0  0  0
   23.5002  -38.8212  -11.8726 C   0  0  0  0  0  0  0  0  0  0  0  0
   24.4862  -37.9647  -11.0657 C   0  0  2  0  0  0  0  0  0  0  0  0
   25.8532  -38.2564  -11.6459 C   0  0  0  0  0  0  0  0  0  0  0  0
   24.4705  -38.4801   -9.6454 C   0  0  2  0  0  0  0  0  0  0  0  0
   23.1962  -38.1646   -9.0338 N   0  0  0  0  0  0  0  0  0  0  0  0
   25.5502  -37.8376   -8.8265 C   0  0  0  0  0  0  0  0  0  0  0  0
   26.7669  -38.0198   -9.0895 O   0  0  0  0  0  0  0  0  0  0  0  0
   25.2498  -36.9976   -7.7214 N   0  0  0  0  0  0  0  0  0  0  0  0
   26.2510  -36.3585   -6.8913 C   0  0  1  0  0  0  0  0  0  0  0  0
   25.7744  -34.9483   -6.5594 C   0  0  0  0  0  0  0  0  0  0  0  0
   26.0777  -34.0223   -7.6666 C   0  0  0  0  0  0  0  0  0  0  0  0
   26.7519  -34.2928   -8.8321 C   0  0  0  0  0  0  0  0  0  0  0  0
   26.7886  -33.1594   -9.5357 N   0  0  0  0  0  0  0  0  0  0  0  0
   26.1648  -32.1879   -8.8597 C   0  0  0  0  0  0  0  0  0  0  0  0
   25.7334  -32.7245   -7.7179 N   0  0  0  0  0  0  0  0  0  0  0  0
   26.3826  -37.1593   -5.6458 C   0  0  0  0  0  0  0  0  0  0  0  0
   25.3565  -37.6001   -5.0247 O   0  0  0  0  0  0  0  0  0  0  0  0
   27.6943  -37.4191   -5.1671 N   0  0  0  0  0  0  0  0  0  0  0  0
   27.9269  -38.3009   -4.0505 C   0  0  1  0  0  0  0  0  0  0  0  0
   29.1711  -39.1319   -4.2291 C   0  0  0  0  0  0  0  0  0  0  0  0
   29.0965  -40.0728   -5.3419 C   0  0  0  0  0  0  0  0  0  0  0  0
   29.4205  -39.8003   -6.6446 C   0  0  0  0  0  0  0  0  0  0  0  0
   29.2104  -40.9299   -7.3361 N   0  0  0  0  0  0  0  0  0  0  0  0
   28.7693  -41.8804   -6.4965 C   0  0  0  0  0  0  0  0  0  0  0  0
   28.7053  -41.3433   -5.2860 N   0  0  0  0  0  0  0  0  0  0  0  0
   27.9036  -37.5337   -2.8074 C   0  0  0  0  0  0  0  0  0  0  0  0
   27.8634  -38.0409   -1.6544 O   0  0  0  0  0  0  0  0  0  0  0  0
   27.9261  -36.1485   -2.8578 O   0  0  0  0  0  0  0  0  0  0  0  0
  2  1  1  0
  3  2  1  0
  3  4  1  6
  5  3  1  0
  5  6  1  1
  7  5  1  0
  7  8  2  0
  9  7  1  0
 10  9  1  0
 10 11  1  1
 12 11  1  0
 12 16  1  0
 13 14  1  0
 13 12  2  0
 14 15  1  0
 15 16  2  0
 17 10  1  0
 18 17  2  0
 19 17  1  0
 20 19  1  0
 20 21  1  6
 21 22  1  0
 22 26  1  0
 23 22  2  0
 23 24  1  0
 24 25  1  0
 26 25  2  0
 27 29  1  0
 27 20  1  0
 28 27  2  0
M  END
$$$$
