IHH.pdb
     RDKit          3D

 29 30  0  0  1  0  0  0  0  0999 V2000
   26.7024  -15.5948  -15.5383 C   0  0  0  0  0  0  0  0  0  0  0  0
   25.2055  -15.7965  -15.4927 C   0  0  0  0  0  0  0  0  0  0  0  0
   24.4862  -14.5624  -16.0552 C   0  0  2  0  0  0  0  0  0  0  0  0
   24.7656  -13.4428  -15.0759 C   0  0  0  0  0  0  0  0  0  0  0  0
   23.0033  -14.8495  -16.0138 C   0  0  2  0  0  0  0  0  0  0  0  0
   22.7301  -16.0723  -16.7401 N   0  0  0  0  0  0  0  0  0  0  0  0
   22.2215  -13.7430  -16.6571 C   0  0  0  0  0  0  0  0  0  0  0  0
   22.3543  -13.4727  -17.8786 O   0  0  0  0  0  0  0  0  0  0  0  0
   21.2996  -12.9533  -15.9199 N   0  0  0  0  0  0  0  0  0  0  0  0
   20.4902  -11.8990  -16.4972 C   0  0  1  0  0  0  0  0  0  0  0  0
   19.0272  -12.3255  -16.4368 C   0  0  0  0  0  0  0  0  0  0  0  0
   18.7285  -13.3118  -17.4920 C   0  0  0  0  0  0  0  0  0  0  0  0
   19.0085  -13.2230  -18.8336 C   0  0  0  0  0  0  0  0  0  0  0  0
   18.5591  -14.3432  -19.4028 N   0  0  0  0  0  0  0  0  0  0  0  0
   18.0082  -15.1323  -18.4733 C   0  0  0  0  0  0  0  0  0  0  0  0
   18.1163  -14.4936  -17.3079 N   0  0  0  0  0  0  0  0  0  0  0  0
   20.6985  -10.6729  -15.6828 C   0  0  0  0  0  0  0  0  0  0  0  0
   20.6862  -10.7105  -14.4055 O   0  0  0  0  0  0  0  0  0  0  0  0
   20.9129   -9.4521  -16.3762 N   0  0  0  0  0  0  0  0  0  0  0  0
   20.9818   -8.1924  -15.6782 C   0  0  1  0  0  0  0  0  0  0  0  0
   21.4765   -7.0767  -16.5619 C   0  0  0  0  0  0  0  0  0  0  0  0
   21.5481   -5.7822  -15.8920 C   0  0  0  0  0  0  0  0  0  0  0  0
   21.4171   -5.5687  -14.5454 C   0  0  0  0  0  0  0  0  0  0  0  0
   21.5462   -4.2479  -14.3525 N   0  0  0  0  0  0  0  0  0  0  0  0
   21.7515   -3.6514  -15.5377 C   0  0  0  0  0  0  0  0  0  0  0  0
   21.7501   -4.5987  -16.4654 N   0  0  0  0  0  0  0  0  0  0  0  0
   19.6967   -7.9145  -15.0414 C   0  0  0  0  0  0  0  0  0  0  0  0
   18.5759   -8.0553  -15.6005 O   0  0  0  0  0  0  0  0  0  0  0  0
   19.6658   -7.4628  -13.7311 O   0  0  0  0  0  0  0  0  0  0  0  0
  2  1  1  0
  3  2  1  0
  3  4  1  1
  5  3  1  0
  5  6  1  6
  7  5  1  0
  7  8  2  0
  9  7  1  0
 10  9  1  0
 10 11  1  1
 12 11  1  0
 12 16  1  0
 13 14  1  0
 13 12  2  0
 14 15  1  0
 15 16  2  0
 17 10  1  0
 18 17  2  0
 19 17  1  0
 20 19  1  0
 20 21  1  6
 21 22  1  0
 22 26  1  0
 23 22  2  0
 23 24  1  0
 24 25  1  0
 26 25  2  0
 27 29  1  0
 27 20  1  0
 28 27  2  0
M  END
$$$$
