IHH.pdb
     RDKit          3D

 29 30  0  0  1  0  0  0  0  0999 V2000
   34.8312  -31.0420  -21.3033 C   0  0  0  0  0  0  0  0  0  0  0  0
   34.7900  -30.2665  -20.0069 C   0  0  0  0  0  0  0  0  0  0  0  0
   34.9039  -28.7610  -20.2850 C   0  0  2  0  0  0  0  0  0  0  0  0
   36.3364  -28.5306  -20.7156 C   0  0  0  0  0  0  0  0  0  0  0  0
   34.6985  -28.0450  -18.9704 C   0  0  2  0  0  0  0  0  0  0  0  0
   35.6579  -28.5339  -18.0019 N   0  0  0  0  0  0  0  0  0  0  0  0
   33.3228  -28.2962  -18.4286 C   0  0  0  0  0  0  0  0  0  0  0  0
   33.1311  -29.0928  -17.4739 O   0  0  0  0  0  0  0  0  0  0  0  0
   32.1786  -27.6489  -18.9660 N   0  0  0  0  0  0  0  0  0  0  0  0
   30.8352  -27.8113  -18.4474 C   0  0  1  0  0  0  0  0  0  0  0  0
   30.2289  -26.4280  -18.2358 C   0  0  0  0  0  0  0  0  0  0  0  0
   30.8440  -25.7625  -17.0722 C   0  0  0  0  0  0  0  0  0  0  0  0
   31.7949  -26.2649  -16.2180 C   0  0  0  0  0  0  0  0  0  0  0  0
   32.0534  -25.3152  -15.3169 N   0  0  0  0  0  0  0  0  0  0  0  0
   31.3036  -24.2364  -15.5701 C   0  0  0  0  0  0  0  0  0  0  0  0
   30.5672  -24.5189  -16.6452 N   0  0  0  0  0  0  0  0  0  0  0  0
   30.0487  -28.5640  -19.4597 C   0  0  0  0  0  0  0  0  0  0  0  0
   30.5582  -28.9063  -20.5805 O   0  0  0  0  0  0  0  0  0  0  0  0
   28.7049  -28.8914  -19.1370 N   0  0  0  0  0  0  0  0  0  0  0  0
   27.9540  -29.8429  -19.9177 C   0  0  1  0  0  0  0  0  0  0  0  0
   28.6342  -31.1856  -19.9893 C   0  0  0  0  0  0  0  0  0  0  0  0
   27.9256  -32.1620  -20.8102 C   0  0  0  0  0  0  0  0  0  0  0  0
   26.9514  -31.8786  -21.7305 C   0  0  0  0  0  0  0  0  0  0  0  0
   26.5682  -33.0512  -22.2562 N   0  0  0  0  0  0  0  0  0  0  0  0
   27.2773  -34.0383  -21.6857 C   0  0  0  0  0  0  0  0  0  0  0  0
   28.0996  -33.4811  -20.8075 N   0  0  0  0  0  0  0  0  0  0  0  0
   26.5796  -29.9037  -19.4262 C   0  0  0  0  0  0  0  0  0  0  0  0
   26.2083  -29.5068  -18.2890 O   0  0  0  0  0  0  0  0  0  0  0  0
   25.5853  -30.4278  -20.2376 O   0  0  0  0  0  0  0  0  0  0  0  0
  2  1  1  0
  3  2  1  0
  3  4  1  1
  5  3  1  0
  5  6  1  1
  7  5  1  0
  7  8  2  0
  9  7  1  0
 10  9  1  0
 10 11  1  6
 12 11  1  0
 12 16  1  0
 13 14  1  0
 13 12  2  0
 14 15  1  0
 15 16  2  0
 17 10  1  0
 18 17  2  0
 19 17  1  0
 20 19  1  0
 20 21  1  1
 21 22  1  0
 22 26  1  0
 23 22  2  0
 23 24  1  0
 24 25  1  0
 26 25  2  0
 27 29  1  0
 27 20  1  0
 28 27  2  0
M  END
$$$$
