IHH.pdb
     RDKit          3D

 29 30  0  0  1  0  0  0  0  0999 V2000
   13.4834  -15.3116  -20.1008 C   0  0  0  0  0  0  0  0  0  0  0  0
   14.3395  -14.0990  -20.3843 C   0  0  0  0  0  0  0  0  0  0  0  0
   15.0267  -13.6217  -19.0972 C   0  0  2  0  0  0  0  0  0  0  0  0
   13.9143  -13.1309  -18.1959 C   0  0  0  0  0  0  0  0  0  0  0  0
   15.8827  -12.4308  -19.4605 C   0  0  2  0  0  0  0  0  0  0  0  0
   16.8530  -12.8238  -20.4613 N   0  0  0  0  0  0  0  0  0  0  0  0
   16.6302  -11.9190  -18.2651 C   0  0  0  0  0  0  0  0  0  0  0  0
   16.0301  -11.5939  -17.2083 O   0  0  0  0  0  0  0  0  0  0  0  0
   18.0435  -11.7787  -18.2717 N   0  0  0  0  0  0  0  0  0  0  0  0
   18.8271  -11.3980  -17.1137 C   0  0  1  0  0  0  0  0  0  0  0  0
   20.1004  -12.2371  -17.0954 C   0  0  0  0  0  0  0  0  0  0  0  0
   19.7884  -13.6507  -16.8131 C   0  0  0  0  0  0  0  0  0  0  0  0
   19.7933  -14.7073  -17.6904 C   0  0  0  0  0  0  0  0  0  0  0  0
   19.4497  -15.7943  -16.9967 N   0  0  0  0  0  0  0  0  0  0  0  0
   19.2291  -15.4637  -15.7192 C   0  0  0  0  0  0  0  0  0  0  0  0
   19.4385  -14.1509  -15.6161 N   0  0  0  0  0  0  0  0  0  0  0  0
   19.1669   -9.9575  -17.2526 C   0  0  0  0  0  0  0  0  0  0  0  0
   19.4011   -9.4345  -18.3948 O   0  0  0  0  0  0  0  0  0  0  0  0
   19.2226   -9.1782  -16.0665 N   0  0  0  0  0  0  0  0  0  0  0  0
   19.3374   -7.7418  -16.1147 C   0  0  1  0  0  0  0  0  0  0  0  0
   18.3030   -7.1165  -17.0144 C   0  0  0  0  0  0  0  0  0  0  0  0
   18.3985   -5.6630  -17.1006 C   0  0  0  0  0  0  0  0  0  0  0  0
   17.4905   -4.7691  -16.5977 C   0  0  0  0  0  0  0  0  0  0  0  0
   17.9542   -3.5456  -16.8915 N   0  0  0  0  0  0  0  0  0  0  0  0
   19.1144   -3.6662  -17.5565 C   0  0  0  0  0  0  0  0  0  0  0  0
   19.3716   -4.9613  -17.6760 N   0  0  0  0  0  0  0  0  0  0  0  0
   19.3391   -7.2049  -14.7560 C   0  0  0  0  0  0  0  0  0  0  0  0
   19.4911   -5.9873  -14.4681 O   0  0  0  0  0  0  0  0  0  0  0  0
   19.1643   -8.0627  -13.6811 O   0  0  0  0  0  0  0  0  0  0  0  0
  2  1  1  0
  3  2  1  0
  3  4  1  1
  5  3  1  0
  5  6  1  6
  7  5  1  0
  7  8  2  0
  9  7  1  0
 10  9  1  0
 10 11  1  6
 12 11  1  0
 12 16  1  0
 13 14  1  0
 13 12  2  0
 14 15  1  0
 15 16  2  0
 17 10  1  0
 18 17  2  0
 19 17  1  0
 20 19  1  0
 20 21  1  6
 21 22  1  0
 22 26  1  0
 23 22  2  0
 23 24  1  0
 24 25  1  0
 26 25  2  0
 27 29  1  0
 27 20  1  0
 28 27  2  0
M  END
$$$$
