IHH.pdb
     RDKit          3D

 29 30  0  0  1  0  0  0  0  0999 V2000
   16.8612  -22.2733    4.7621 C   0  0  0  0  0  0  0  0  0  0  0  0
   17.1164  -20.8006    4.5394 C   0  0  0  0  0  0  0  0  0  0  0  0
   16.8262  -20.4263    3.0791 C   0  0  2  0  0  0  0  0  0  0  0  0
   17.9137  -19.4519    2.6814 C   0  0  0  0  0  0  0  0  0  0  0  0
   15.5120  -19.6811    3.0594 C   0  0  2  0  0  0  0  0  0  0  0  0
   15.1200  -19.4345    1.6871 N   0  0  0  0  0  0  0  0  0  0  0  0
   15.6324  -18.3568    3.7529 C   0  0  0  0  0  0  0  0  0  0  0  0
   16.1525  -17.3640    3.1814 O   0  0  0  0  0  0  0  0  0  0  0  0
   15.1666  -18.1638    5.0807 N   0  0  0  0  0  0  0  0  0  0  0  0
   15.2389  -16.9029    5.7913 C   0  0  1  0  0  0  0  0  0  0  0  0
   14.0866  -16.8442    6.7886 C   0  0  0  0  0  0  0  0  0  0  0  0
   12.8519  -17.3848    6.1899 C   0  0  0  0  0  0  0  0  0  0  0  0
   12.6682  -17.8511    4.9112 C   0  0  0  0  0  0  0  0  0  0  0  0
   11.3953  -18.2402    4.8149 N   0  0  0  0  0  0  0  0  0  0  0  0
   10.7717  -18.0373    5.9811 C   0  0  0  0  0  0  0  0  0  0  0  0
   11.6701  -17.5140    6.8160 N   0  0  0  0  0  0  0  0  0  0  0  0
   16.5392  -16.8643    6.5107 C   0  0  0  0  0  0  0  0  0  0  0  0
   17.3256  -17.8716    6.5218 O   0  0  0  0  0  0  0  0  0  0  0  0
   16.8796  -15.6637    7.1887 N   0  0  0  0  0  0  0  0  0  0  0  0
   18.1270  -15.5283    7.8988 C   0  0  1  0  0  0  0  0  0  0  0  0
   19.2872  -15.2754    6.9712 C   0  0  0  0  0  0  0  0  0  0  0  0
   19.2918  -13.9395    6.3841 C   0  0  0  0  0  0  0  0  0  0  0  0
   18.2204  -13.3174    5.7999 C   0  0  0  0  0  0  0  0  0  0  0  0
   18.6506  -12.1140    5.3938 N   0  0  0  0  0  0  0  0  0  0  0  0
   19.9485  -11.9839    5.7119 C   0  0  0  0  0  0  0  0  0  0  0  0
   20.3246  -13.1035    6.3144 N   0  0  0  0  0  0  0  0  0  0  0  0
   17.9847  -14.5257    8.9520 C   0  0  0  0  0  0  0  0  0  0  0  0
   16.9672  -13.8005    9.1165 O   0  0  0  0  0  0  0  0  0  0  0  0
   19.0194  -14.3286    9.8533 O   0  0  0  0  0  0  0  0  0  0  0  0
  2  1  1  0
  3  2  1  0
  3  4  1  1
  5  3  1  0
  5  6  1  6
  7  5  1  0
  7  8  2  0
  9  7  1  0
 10  9  1  0
 10 11  1  1
 12 11  1  0
 12 16  1  0
 13 14  1  0
 13 12  2  0
 14 15  1  0
 15 16  2  0
 17 10  1  0
 18 17  2  0
 19 17  1  0
 20 19  1  0
 20 21  1  6
 21 22  1  0
 22 26  1  0
 23 22  2  0
 23 24  1  0
 24 25  1  0
 26 25  2  0
 27 29  1  0
 27 20  1  0
 28 27  2  0
M  END
$$$$
