IHH.pdb
     RDKit          3D

 29 30  0  0  1  0  0  0  0  0999 V2000
   45.9420   -8.7835   -2.7211 C   0  0  0  0  0  0  0  0  0  0  0  0
   45.3334   -9.8506   -3.6012 C   0  0  0  0  0  0  0  0  0  0  0  0
   44.8520   -9.2373   -4.9236 C   0  0  2  0  0  0  0  0  0  0  0  0
   43.7212   -8.3017   -4.5543 C   0  0  0  0  0  0  0  0  0  0  0  0
   44.2688  -10.3581   -5.7522 C   0  0  2  0  0  0  0  0  0  0  0  0
   45.3170  -11.2959   -6.0976 N   0  0  0  0  0  0  0  0  0  0  0  0
   43.6760   -9.8347   -7.0265 C   0  0  0  0  0  0  0  0  0  0  0  0
   44.3999   -9.5409   -8.0126 O   0  0  0  0  0  0  0  0  0  0  0  0
   42.2762   -9.6475   -7.1776 N   0  0  0  0  0  0  0  0  0  0  0  0
   41.6562   -9.0718   -8.3541 C   0  0  1  0  0  0  0  0  0  0  0  0
   40.6596  -10.0797   -8.9167 C   0  0  0  0  0  0  0  0  0  0  0  0
   41.3234  -10.9954   -9.8632 C   0  0  0  0  0  0  0  0  0  0  0  0
   42.6663  -11.1057  -10.1295 C   0  0  0  0  0  0  0  0  0  0  0  0
   42.8061  -12.0617  -11.0500 N   0  0  0  0  0  0  0  0  0  0  0  0
   41.6058  -12.5567  -11.3729 C   0  0  0  0  0  0  0  0  0  0  0  0
   40.7051  -11.8987  -10.6424 N   0  0  0  0  0  0  0  0  0  0  0  0
   40.9481   -7.8350   -7.9314 C   0  0  0  0  0  0  0  0  0  0  0  0
   40.0652   -7.8545   -7.0076 O   0  0  0  0  0  0  0  0  0  0  0  0
   41.2878   -6.6247   -8.5925 N   0  0  0  0  0  0  0  0  0  0  0  0
   40.6159   -5.3862   -8.2869 C   0  0  1  0  0  0  0  0  0  0  0  0
   41.3737   -4.1860   -8.7926 C   0  0  0  0  0  0  0  0  0  0  0  0
   40.7418   -2.9111   -8.4691 C   0  0  0  0  0  0  0  0  0  0  0  0
   41.0315   -2.1255   -7.3850 C   0  0  0  0  0  0  0  0  0  0  0  0
   40.2300   -1.0533   -7.4637 N   0  0  0  0  0  0  0  0  0  0  0  0
   39.4626   -1.1610   -8.5601 C   0  0  0  0  0  0  0  0  0  0  0  0
   39.7858   -2.2974   -9.1618 N   0  0  0  0  0  0  0  0  0  0  0  0
   39.2334   -5.4507   -8.7548 C   0  0  0  0  0  0  0  0  0  0  0  0
   38.8422   -6.1344   -9.7387 O   0  0  0  0  0  0  0  0  0  0  0  0
   38.2538   -4.7232   -8.0968 O   0  0  0  0  0  0  0  0  0  0  0  0
  2  1  1  0
  3  2  1  0
  3  4  1  1
  5  3  1  0
  5  6  1  6
  7  5  1  0
  7  8  2  0
  9  7  1  0
 10  9  1  0
 10 11  1  1
 12 11  1  0
 12 16  1  0
 13 14  1  0
 13 12  2  0
 14 15  1  0
 15 16  2  0
 17 10  1  0
 18 17  2  0
 19 17  1  0
 20 19  1  0
 20 21  1  6
 21 22  1  0
 22 26  1  0
 23 22  2  0
 23 24  1  0
 24 25  1  0
 26 25  2  0
 27 29  1  0
 27 20  1  0
 28 27  2  0
M  END
$$$$
