IHH.pdb
     RDKit          3D

 29 30  0  0  1  0  0  0  0  0999 V2000
   13.1570  -11.8109  -19.5956 C   0  0  0  0  0  0  0  0  0  0  0  0
   14.6355  -12.1199  -19.5485 C   0  0  0  0  0  0  0  0  0  0  0  0
   15.3055  -11.3369  -18.4106 C   0  0  2  0  0  0  0  0  0  0  0  0
   15.3029   -9.8892  -18.8518 C   0  0  0  0  0  0  0  0  0  0  0  0
   16.7443  -11.7926  -18.3386 C   0  0  2  0  0  0  0  0  0  0  0  0
   16.7858  -13.2040  -18.0167 N   0  0  0  0  0  0  0  0  0  0  0  0
   17.4922  -11.0509  -17.2709 C   0  0  0  0  0  0  0  0  0  0  0  0
   17.5184  -11.4644  -16.0830 O   0  0  0  0  0  0  0  0  0  0  0  0
   18.2020   -9.8530  -17.5510 N   0  0  0  0  0  0  0  0  0  0  0  0
   18.8913   -9.0645  -16.5494 C   0  0  1  0  0  0  0  0  0  0  0  0
   20.3501   -9.5069  -16.5066 C   0  0  0  0  0  0  0  0  0  0  0  0
   20.9345   -9.2460  -15.1778 C   0  0  0  0  0  0  0  0  0  0  0  0
   20.3371   -8.6460  -14.0964 C   0  0  0  0  0  0  0  0  0  0  0  0
   21.2390   -8.6232  -13.1131 N   0  0  0  0  0  0  0  0  0  0  0  0
   22.3787   -9.1845  -13.5326 C   0  0  0  0  0  0  0  0  0  0  0  0
   22.1834   -9.5624  -14.7963 N   0  0  0  0  0  0  0  0  0  0  0  0
   18.8022   -7.6381  -16.9582 C   0  0  0  0  0  0  0  0  0  0  0  0
   19.1325   -7.2590  -18.1331 O   0  0  0  0  0  0  0  0  0  0  0  0
   18.3350   -6.7060  -15.9937 N   0  0  0  0  0  0  0  0  0  0  0  0
   18.2924   -5.2922  -16.2727 C   0  0  1  0  0  0  0  0  0  0  0  0
   17.0372   -4.6445  -15.7477 C   0  0  0  0  0  0  0  0  0  0  0  0
   16.9747   -3.2055  -15.9814 C   0  0  0  0  0  0  0  0  0  0  0  0
   16.7782   -2.5984  -17.1934 C   0  0  0  0  0  0  0  0  0  0  0  0
   16.7889   -1.2768  -16.9663 N   0  0  0  0  0  0  0  0  0  0  0  0
   16.9855   -1.0604  -15.6559 C   0  0  0  0  0  0  0  0  0  0  0  0
   17.0967   -2.2443  -15.0695 N   0  0  0  0  0  0  0  0  0  0  0  0
   19.5229   -4.6624  -15.7998 C   0  0  0  0  0  0  0  0  0  0  0  0
   20.2398   -5.1068  -14.8633 O   0  0  0  0  0  0  0  0  0  0  0  0
   19.9664   -3.4929  -16.3975 O   0  0  0  0  0  0  0  0  0  0  0  0
  2  1  1  0
  3  2  1  0
  3  4  1  6
  5  3  1  0
  5  6  1  1
  7  5  1  0
  7  8  2  0
  9  7  1  0
 10  9  1  0
 10 11  1  6
 12 11  1  0
 12 16  1  0
 13 14  1  0
 13 12  2  0
 14 15  1  0
 15 16  2  0
 17 10  1  0
 18 17  2  0
 19 17  1  0
 20 19  1  0
 20 21  1  1
 21 22  1  0
 22 26  1  0
 23 22  2  0
 23 24  1  0
 24 25  1  0
 26 25  2  0
 27 29  1  0
 27 20  1  0
 28 27  2  0
M  END
$$$$
