IHH.pdb
     RDKit          3D

 29 30  0  0  1  0  0  0  0  0999 V2000
   29.8019  -21.4355  -10.7487 C   0  0  0  0  0  0  0  0  0  0  0  0
   28.3057  -21.6375  -10.6830 C   0  0  0  0  0  0  0  0  0  0  0  0
   27.6077  -20.7878  -11.7541 C   0  0  2  0  0  0  0  0  0  0  0  0
   27.8883  -19.3478  -11.3826 C   0  0  0  0  0  0  0  0  0  0  0  0
   26.1212  -21.0178  -11.6112 C   0  0  2  0  0  0  0  0  0  0  0  0
   25.8308  -22.4225  -11.8112 N   0  0  0  0  0  0  0  0  0  0  0  0
   25.3534  -20.2348  -12.6344 C   0  0  0  0  0  0  0  0  0  0  0  0
   25.0221  -19.0386  -12.4293 O   0  0  0  0  0  0  0  0  0  0  0  0
   24.9671  -20.8056  -13.8762 N   0  0  0  0  0  0  0  0  0  0  0  0
   24.2198  -20.0991  -14.8972 C   0  0  1  0  0  0  0  0  0  0  0  0
   24.9989  -20.1763  -16.2059 C   0  0  0  0  0  0  0  0  0  0  0  0
   26.0207  -19.1144  -16.2669 C   0  0  0  0  0  0  0  0  0  0  0  0
   26.2375  -18.0995  -15.3674 C   0  0  0  0  0  0  0  0  0  0  0  0
   27.2630  -17.3802  -15.8277 N   0  0  0  0  0  0  0  0  0  0  0  0
   27.6994  -17.9020  -16.9798 C   0  0  0  0  0  0  0  0  0  0  0  0
   26.9339  -18.9621  -17.2407 N   0  0  0  0  0  0  0  0  0  0  0  0
   22.9053  -20.7773  -15.0448 C   0  0  0  0  0  0  0  0  0  0  0  0
   22.8054  -22.0511  -15.0201 O   0  0  0  0  0  0  0  0  0  0  0  0
   21.7582  -19.9573  -15.2152 N   0  0  0  0  0  0  0  0  0  0  0  0
   20.4790  -20.3289  -14.6638 C   0  0  1  0  0  0  0  0  0  0  0  0
   20.4734  -20.2885  -13.1575 C   0  0  0  0  0  0  0  0  0  0  0  0
   19.1910  -20.6512  -12.5632 C   0  0  0  0  0  0  0  0  0  0  0  0
   18.1101  -19.8217  -12.4222 C   0  0  0  0  0  0  0  0  0  0  0  0
   17.1468  -20.5445  -11.8323 N   0  0  0  0  0  0  0  0  0  0  0  0
   17.6065  -21.7862  -11.6100 C   0  0  0  0  0  0  0  0  0  0  0  0
   18.8525  -21.8357  -12.0605 N   0  0  0  0  0  0  0  0  0  0  0  0
   19.4276  -19.5225  -15.2791 C   0  0  0  0  0  0  0  0  0  0  0  0
   18.3354  -19.9799  -15.7109 O   0  0  0  0  0  0  0  0  0  0  0  0
   19.6059  -18.1546  -15.4156 O   0  0  0  0  0  0  0  0  0  0  0  0
  2  1  1  0
  3  2  1  0
  3  4  1  1
  5  3  1  0
  5  6  1  6
  7  5  1  0
  7  8  2  0
  9  7  1  0
 10  9  1  0
 10 11  1  6
 12 11  1  0
 12 16  1  0
 13 14  1  0
 13 12  2  0
 14 15  1  0
 15 16  2  0
 17 10  1  0
 18 17  2  0
 19 17  1  0
 20 19  1  0
 20 21  1  1
 21 22  1  0
 22 26  1  0
 23 22  2  0
 23 24  1  0
 24 25  1  0
 26 25  2  0
 27 29  1  0
 27 20  1  0
 28 27  2  0
M  END
$$$$
