IHH.pdb
     RDKit          3D

 29 30  0  0  1  0  0  0  0  0999 V2000
   22.0435  -34.6489  -13.8963 C   0  0  0  0  0  0  0  0  0  0  0  0
   22.0525  -33.4319  -14.7922 C   0  0  0  0  0  0  0  0  0  0  0  0
   22.2455  -32.1588  -13.9563 C   0  0  2  0  0  0  0  0  0  0  0  0
   21.0271  -32.0657  -13.0634 C   0  0  0  0  0  0  0  0  0  0  0  0
   22.2077  -30.9864  -14.9087 C   0  0  2  0  0  0  0  0  0  0  0  0
   23.4291  -30.9596  -15.6864 N   0  0  0  0  0  0  0  0  0  0  0  0
   22.1034  -29.6892  -14.1634 C   0  0  0  0  0  0  0  0  0  0  0  0
   23.1055  -29.1735  -13.6043 O   0  0  0  0  0  0  0  0  0  0  0  0
   20.8738  -28.9866  -14.0552 N   0  0  0  0  0  0  0  0  0  0  0  0
   20.7160  -27.7296  -13.3517 C   0  0  1  0  0  0  0  0  0  0  0  0
   19.8982  -26.7858  -14.2270 C   0  0  0  0  0  0  0  0  0  0  0  0
   20.7586  -26.1266  -15.2272 C   0  0  0  0  0  0  0  0  0  0  0  0
   22.1187  -26.2436  -15.3784 C   0  0  0  0  0  0  0  0  0  0  0  0
   22.4663  -25.4704  -16.4090 N   0  0  0  0  0  0  0  0  0  0  0  0
   21.3801  -24.8724  -16.9115 C   0  0  0  0  0  0  0  0  0  0  0  0
   20.3404  -25.2795  -16.1826 N   0  0  0  0  0  0  0  0  0  0  0  0
   19.9896  -28.0094  -12.0852 C   0  0  0  0  0  0  0  0  0  0  0  0
   18.9743  -28.7850  -12.0560 O   0  0  0  0  0  0  0  0  0  0  0  0
   20.4647  -27.3824  -10.9028 N   0  0  0  0  0  0  0  0  0  0  0  0
   19.6540  -27.3076   -9.7129 C   0  0  1  0  0  0  0  0  0  0  0  0
   19.5682  -25.9054   -9.1680 C   0  0  0  0  0  0  0  0  0  0  0  0
   18.6808  -25.7738   -8.0171 C   0  0  0  0  0  0  0  0  0  0  0  0
   17.9146  -26.7730   -7.4778 C   0  0  0  0  0  0  0  0  0  0  0  0
   17.2546  -26.2335   -6.4426 N   0  0  0  0  0  0  0  0  0  0  0  0
   17.5943  -24.9390   -6.3348 C   0  0  0  0  0  0  0  0  0  0  0  0
   18.4634  -24.6741   -7.3004 N   0  0  0  0  0  0  0  0  0  0  0  0
   18.3531  -27.9219   -9.9673 C   0  0  0  0  0  0  0  0  0  0  0  0
   17.5451  -27.5435  -10.8574 O   0  0  0  0  0  0  0  0  0  0  0  0
   17.9426  -28.9988   -9.1969 O   0  0  0  0  0  0  0  0  0  0  0  0
  2  1  1  0
  3  2  1  0
  3  4  1  1
  5  3  1  0
  5  6  1  1
  7  5  1  0
  7  8  2  0
  9  7  1  0
 10  9  1  0
 10 11  1  6
 12 11  1  0
 12 16  1  0
 13 14  1  0
 13 12  2  0
 14 15  1  0
 15 16  2  0
 17 10  1  0
 18 17  2  0
 19 17  1  0
 20 19  1  0
 20 21  1  6
 21 22  1  0
 22 26  1  0
 23 22  2  0
 23 24  1  0
 24 25  1  0
 26 25  2  0
 27 29  1  0
 27 20  1  0
 28 27  2  0
M  END
$$$$
