EVI.pdb
     RDKit          3D

 25 24  0  0  1  0  0  0  0  0999 V2000
   12.2284  -16.1027   18.8662 N   0  0  0  0  0  0  0  0  0  0  0  0
   11.6323  -17.0197   19.8441 C   0  0  1  0  0  0  0  0  0  0  0  0
   12.7766  -17.7649   20.4891 C   0  0  0  0  0  0  0  0  0  0  0  0
   12.3688  -18.7466   21.5367 C   0  0  0  0  0  0  0  0  0  0  0  0
   13.5340  -19.4653   22.0831 C   0  0  0  0  0  0  0  0  0  0  0  0
   14.6597  -19.4473   21.5684 O   0  0  0  0  0  0  0  0  0  0  0  0
   10.9746  -16.2252   20.9390 C   0  0  0  0  0  0  0  0  0  0  0  0
   11.6989  -15.4194   21.5688 O   0  0  0  0  0  0  0  0  0  0  0  0
   13.3488  -20.2092   23.2518 O   0  0  0  0  0  0  0  0  0  0  0  0
    6.7955  -14.7461   23.1918 C   0  0  0  0  0  0  0  0  0  0  0  0
    7.4443  -15.5392   22.0543 C   0  0  1  0  0  0  0  0  0  0  0  0
    6.9935  -15.0098   20.7287 C   0  0  0  0  0  0  0  0  0  0  0  0
    8.9711  -15.4968   22.2056 C   0  0  2  0  0  0  0  0  0  0  0  0
    9.6026  -16.3747   21.2496 N   0  0  0  0  0  0  0  0  0  0  0  0
    9.2517  -15.8933   23.6066 C   0  0  0  0  0  0  0  0  0  0  0  0
    9.5543  -17.0795   23.8421 O   0  0  0  0  0  0  0  0  0  0  0  0
   10.3240  -13.3885   29.2445 C   0  0  0  0  0  0  0  0  0  0  0  0
   10.2716  -14.5596   28.2846 C   0  0  0  0  0  0  0  0  0  0  0  0
    9.7261  -14.1261   26.9441 C   0  0  2  0  0  0  0  0  0  0  0  0
    8.3873  -13.4592   27.1225 C   0  0  0  0  0  0  0  0  0  0  0  0
    9.6775  -15.3176   26.0389 C   0  0  2  0  0  0  0  0  0  0  0  0
    9.1962  -14.9962   24.7067 N   0  0  0  0  0  0  0  0  0  0  0  0
    8.8003  -16.3753   26.5947 C   0  0  0  0  0  0  0  0  0  0  0  0
    9.3735  -17.2924   27.4660 O   0  0  0  0  0  0  0  0  0  0  0  0
    7.5944  -16.5322   26.3628 O   0  0  0  0  0  0  0  0  0  0  0  0
  2  1  1  6
  3  2  1  0
  4  3  1  0
  5  6  2  0
  5  4  1  0
  7  2  1  0
  7  8  2  0
  9  5  1  0
 11 10  1  1
 11 12  1  0
 13 14  1  6
 13 11  1  0
 14  7  1  0
 15 13  1  0
 16 15  2  0
 18 17  1  0
 19 18  1  0
 19 20  1  1
 21 19  1  0
 21 22  1  6
 22 15  1  0
 23 24  1  0
 23 21  1  0
 25 23  2  0
M  END
$$$$
