EVI.pdb
     RDKit          3D

 25 24  0  0  1  0  0  0  0  0999 V2000
   12.2892  -16.4036   19.5507 N   0  0  0  0  0  0  0  0  0  0  0  0
   12.0147  -17.3474   20.6398 C   0  0  1  0  0  0  0  0  0  0  0  0
   13.3556  -17.8267   21.1427 C   0  0  0  0  0  0  0  0  0  0  0  0
   14.0572  -18.7803   20.2338 C   0  0  0  0  0  0  0  0  0  0  0  0
   15.2726  -19.3277   20.8630 C   0  0  0  0  0  0  0  0  0  0  0  0
   15.2606  -20.1570   21.7819 O   0  0  0  0  0  0  0  0  0  0  0  0
   11.3703  -16.6161   21.7854 C   0  0  0  0  0  0  0  0  0  0  0  0
   12.0531  -15.7281   22.3474 O   0  0  0  0  0  0  0  0  0  0  0  0
   16.5083  -18.8787   20.3884 O   0  0  0  0  0  0  0  0  0  0  0  0
    7.2483  -15.2862   24.1688 C   0  0  0  0  0  0  0  0  0  0  0  0
    7.8939  -16.1375   23.0723 C   0  0  1  0  0  0  0  0  0  0  0  0
    7.4547  -15.6653   21.7215 C   0  0  0  0  0  0  0  0  0  0  0  0
    9.4204  -16.1038   23.2291 C   0  0  2  0  0  0  0  0  0  0  0  0
   10.0550  -16.9110   22.2146 N   0  0  0  0  0  0  0  0  0  0  0  0
    9.6991  -16.5980   24.5991 C   0  0  0  0  0  0  0  0  0  0  0  0
    9.7918  -17.8275   24.7828 O   0  0  0  0  0  0  0  0  0  0  0  0
    9.6310  -13.2165   29.2586 C   0  0  0  0  0  0  0  0  0  0  0  0
    9.3619  -14.3528   28.2931 C   0  0  0  0  0  0  0  0  0  0  0  0
   10.6410  -15.0858   27.9629 C   0  0  2  0  0  0  0  0  0  0  0  0
   11.6604  -14.1233   27.4119 C   0  0  0  0  0  0  0  0  0  0  0  0
   10.3212  -16.2089   27.0261 C   0  0  2  0  0  0  0  0  0  0  0  0
    9.8685  -15.7485   25.7251 N   0  0  0  0  0  0  0  0  0  0  0  0
    9.2684  -17.0890   27.5868 C   0  0  0  0  0  0  0  0  0  0  0  0
    8.0318  -17.0937   26.9546 O   0  0  0  0  0  0  0  0  0  0  0  0
    9.3736  -17.8311   28.5722 O   0  0  0  0  0  0  0  0  0  0  0  0
  2  1  1  6
  3  2  1  0
  4  3  1  0
  5  6  2  0
  5  4  1  0
  7  2  1  0
  7  8  2  0
  9  5  1  0
 11 10  1  1
 11 12  1  0
 13 14  1  6
 13 11  1  0
 14  7  1  0
 15 13  1  0
 16 15  2  0
 18 17  1  0
 19 18  1  0
 19 20  1  6
 21 19  1  0
 21 22  1  6
 22 15  1  0
 23 24  1  0
 23 21  1  0
 25 23  2  0
M  END
$$$$
