EVI.pdb
     RDKit          3D

 25 24  0  0  1  0  0  0  0  0999 V2000
   11.1351  -18.7202   20.5298 N   0  0  0  0  0  0  0  0  0  0  0  0
   11.8469  -18.0401   21.6175 C   0  0  1  0  0  0  0  0  0  0  0  0
   13.0996  -17.4531   21.0117 C   0  0  0  0  0  0  0  0  0  0  0  0
   14.3047  -18.3290   21.1021 C   0  0  0  0  0  0  0  0  0  0  0  0
   15.5477  -17.5368   21.0878 C   0  0  0  0  0  0  0  0  0  0  0  0
   16.3655  -17.5188   22.0169 O   0  0  0  0  0  0  0  0  0  0  0  0
   11.0263  -16.8764   22.1020 C   0  0  0  0  0  0  0  0  0  0  0  0
   11.5443  -16.1411   22.9747 O   0  0  0  0  0  0  0  0  0  0  0  0
   15.8115  -16.7625   19.9544 O   0  0  0  0  0  0  0  0  0  0  0  0
    6.9567  -14.0434   21.7599 C   0  0  0  0  0  0  0  0  0  0  0  0
    7.7251  -15.2566   21.2294 C   0  0  1  0  0  0  0  0  0  0  0  0
    8.0840  -15.0558   19.7901 C   0  0  0  0  0  0  0  0  0  0  0  0
    8.9613  -15.5035   22.1051 C   0  0  2  0  0  0  0  0  0  0  0  0
    9.7290  -16.6169   21.6008 N   0  0  0  0  0  0  0  0  0  0  0  0
    8.4470  -15.7473   23.4744 C   0  0  0  0  0  0  0  0  0  0  0  0
    8.2407  -16.9229   23.8341 O   0  0  0  0  0  0  0  0  0  0  0  0
    6.1698  -11.6302   26.6782 C   0  0  0  0  0  0  0  0  0  0  0  0
    6.4164  -12.9288   25.9375 C   0  0  0  0  0  0  0  0  0  0  0  0
    7.5655  -13.6871   26.5595 C   0  0  2  0  0  0  0  0  0  0  0  0
    8.7904  -12.8123   26.6179 C   0  0  0  0  0  0  0  0  0  0  0  0
    7.7783  -14.9519   25.7872 C   0  0  2  0  0  0  0  0  0  0  0  0
    8.1724  -14.7138   24.4097 N   0  0  0  0  0  0  0  0  0  0  0  0
    6.5495  -15.7807   25.7701 C   0  0  0  0  0  0  0  0  0  0  0  0
    6.2091  -16.4484   26.9395 O   0  0  0  0  0  0  0  0  0  0  0  0
    5.7824  -15.9446   24.8123 O   0  0  0  0  0  0  0  0  0  0  0  0
  2  1  1  6
  3  2  1  0
  4  3  1  0
  5  6  2  0
  5  4  1  0
  7  2  1  0
  7  8  2  0
  9  5  1  0
 11 10  1  1
 11 12  1  0
 13 14  1  6
 13 11  1  0
 14  7  1  0
 15 13  1  0
 16 15  2  0
 18 17  1  0
 19 18  1  0
 19 20  1  6
 21 19  1  0
 21 22  1  6
 22 15  1  0
 23 24  1  0
 23 21  1  0
 25 23  2  0
M  END
$$$$
