YEN.pdb
     RDKit          3D

 30 30  0  0  1  0  0  0  0  0999 V2000
   -2.1229  -19.2048   20.1499 O   0  0  0  0  0  0  0  0  0  0  0  0
   -0.8639  -19.3564   20.7118 C   0  0  0  0  0  0  0  0  0  0  0  0
    0.2335  -19.4900   19.8678 C   0  0  0  0  0  0  0  0  0  0  0  0
    1.4774  -19.6396   20.4392 C   0  0  0  0  0  0  0  0  0  0  0  0
    1.5949  -19.6522   21.8124 C   0  0  0  0  0  0  0  0  0  0  0  0
    2.9331  -19.8121   22.4055 C   0  0  0  0  0  0  0  0  0  0  0  0
    3.5124  -21.1751   22.0020 C   0  0  2  0  0  0  0  0  0  0  0  0
    2.6632  -22.1884   22.6420 N   0  0  0  0  0  0  0  0  0  0  0  0
    4.8847  -21.2072   22.5880 C   0  0  0  0  0  0  0  0  0  0  0  0
    4.9788  -21.6418   23.7645 O   0  0  0  0  0  0  0  0  0  0  0  0
    0.5097  -19.5201   22.6471 C   0  0  0  0  0  0  0  0  0  0  0  0
   -0.7337  -19.3705   22.0803 C   0  0  0  0  0  0  0  0  0  0  0  0
    5.9568  -20.7672   21.8235 N   0  0  0  0  0  0  0  0  0  0  0  0
    7.3427  -21.1023   22.2526 C   0  0  1  0  0  0  0  0  0  0  0  0
    8.2350  -20.8980   21.0680 C   0  0  0  0  0  0  0  0  0  0  0  0
    9.6443  -21.2960   21.3367 C   0  0  0  0  0  0  0  0  0  0  0  0
   10.5679  -21.0900   20.1916 C   0  0  0  0  0  0  0  0  0  0  0  0
   10.9806  -19.9264   19.9594 O   0  0  0  0  0  0  0  0  0  0  0  0
    7.7002  -20.1497   23.3255 C   0  0  0  0  0  0  0  0  0  0  0  0
    7.2624  -18.9564   23.2201 O   0  0  0  0  0  0  0  0  0  0  0  0
   10.9926  -22.1127   19.3717 O   0  0  0  0  0  0  0  0  0  0  0  0
    8.1670  -18.2960   28.4337 N   0  0  0  0  0  0  0  0  0  0  0  0
    9.0449  -19.2494   27.8548 C   0  0  0  0  0  0  0  0  0  0  0  0
   10.2178  -19.2722   28.3014 O   0  0  0  0  0  0  0  0  0  0  0  0
    8.5465  -20.1356   26.7913 C   0  0  0  0  0  0  0  0  0  0  0  0
    8.8498  -19.5262   25.4300 C   0  0  2  0  0  0  0  0  0  0  0  0
    8.4807  -20.5157   24.4315 N   0  0  0  0  0  0  0  0  0  0  0  0
   10.2719  -19.1156   25.3532 C   0  0  0  0  0  0  0  0  0  0  0  0
   11.1915  -19.6503   24.4756 O   0  0  0  0  0  0  0  0  0  0  0  0
   10.6414  -18.2168   26.1530 O   0  0  0  0  0  0  0  0  0  0  0  0
  2  1  1  0
  3  2  2  0
  4  3  1  0
  5  4  2  0
  5 11  1  0
  6  5  1  0
  7  8  1  1
  7  6  1  0
  9  7  1  0
 10  9  2  0
 11 12  2  0
 12  2  1  0
 13  9  1  0
 14 13  1  0
 14 15  1  6
 15 16  1  0
 17 16  1  0
 17 18  2  0
 19 14  1  0
 20 19  2  0
 21 17  1  0
 22 23  1  0
 23 24  2  0
 25 23  1  0
 26 25  1  1
 26 27  1  0
 27 19  1  0
 28 26  1  0
 28 29  1  0
 30 28  2  0
M  END
$$$$
