YEN.pdb
     RDKit          3D

 30 30  0  0  1  0  0  0  0  0999 V2000
    5.0205  -10.4807   26.6185 O   0  0  0  0  0  0  0  0  0  0  0  0
    5.8432  -11.5419   26.2710 C   0  0  0  0  0  0  0  0  0  0  0  0
    6.5997  -12.1549   27.2642 C   0  0  0  0  0  0  0  0  0  0  0  0
    7.4119  -13.2072   26.9051 C   0  0  0  0  0  0  0  0  0  0  0  0
    7.4495  -13.6154   25.5891 C   0  0  0  0  0  0  0  0  0  0  0  0
    8.3230  -14.7431   25.2240 C   0  0  0  0  0  0  0  0  0  0  0  0
    7.4704  -15.8919   24.6677 C   0  0  2  0  0  0  0  0  0  0  0  0
    6.6536  -16.3773   25.7879 N   0  0  0  0  0  0  0  0  0  0  0  0
    8.4480  -16.9395   24.2500 C   0  0  0  0  0  0  0  0  0  0  0  0
    8.5064  -17.9675   24.9722 O   0  0  0  0  0  0  0  0  0  0  0  0
    6.7014  -13.0093   24.6069 C   0  0  0  0  0  0  0  0  0  0  0  0
    5.8893  -11.9583   24.9617 C   0  0  0  0  0  0  0  0  0  0  0  0
    9.2210  -16.7293   23.1161 N   0  0  0  0  0  0  0  0  0  0  0  0
   10.1634  -17.7925   22.6705 C   0  0  1  0  0  0  0  0  0  0  0  0
   10.4779  -17.5308   21.2304 C   0  0  0  0  0  0  0  0  0  0  0  0
   11.4556  -18.5045   20.6712 C   0  0  0  0  0  0  0  0  0  0  0  0
   11.7839  -18.2887   19.2386 C   0  0  0  0  0  0  0  0  0  0  0  0
   10.8379  -18.1475   18.4242 O   0  0  0  0  0  0  0  0  0  0  0  0
   11.3864  -17.6504   23.4893 C   0  0  0  0  0  0  0  0  0  0  0  0
   11.6566  -16.4895   23.9434 O   0  0  0  0  0  0  0  0  0  0  0  0
   13.0749  -18.2368   18.7602 O   0  0  0  0  0  0  0  0  0  0  0  0
   12.0278  -18.2177   28.1918 N   0  0  0  0  0  0  0  0  0  0  0  0
   11.3599  -19.1429   27.3477 C   0  0  0  0  0  0  0  0  0  0  0  0
   10.9594  -20.2031   27.8873 O   0  0  0  0  0  0  0  0  0  0  0  0
   11.1777  -18.8185   25.9242 C   0  0  0  0  0  0  0  0  0  0  0  0
   12.4507  -19.1435   25.1558 C   0  0  2  0  0  0  0  0  0  0  0  0
   12.2312  -18.7315   23.7795 N   0  0  0  0  0  0  0  0  0  0  0  0
   12.7838  -20.5813   25.2929 C   0  0  0  0  0  0  0  0  0  0  0  0
   13.7658  -21.2264   24.5711 O   0  0  0  0  0  0  0  0  0  0  0  0
   12.1113  -21.2365   26.1311 O   0  0  0  0  0  0  0  0  0  0  0  0
  2  1  1  0
  3  2  2  0
  4  3  1  0
  5  4  2  0
  5 11  1  0
  6  5  1  0
  7  8  1  1
  7  6  1  0
  9  7  1  0
 10  9  2  0
 11 12  2  0
 12  2  1  0
 13  9  1  0
 14 13  1  0
 14 15  1  6
 15 16  1  0
 17 16  1  0
 17 18  2  0
 19 14  1  0
 20 19  2  0
 21 17  1  0
 22 23  1  0
 23 24  2  0
 25 23  1  0
 26 25  1  1
 26 27  1  0
 27 19  1  0
 28 26  1  0
 28 29  1  0
 30 28  2  0
M  END
$$$$
