YEN.pdb
     RDKit          3D

 30 30  0  0  1  0  0  0  0  0999 V2000
    5.3633   -9.9941   26.2091 O   0  0  0  0  0  0  0  0  0  0  0  0
    6.0062  -11.2159   26.0764 C   0  0  0  0  0  0  0  0  0  0  0  0
    6.8608  -11.4081   24.9961 C   0  0  0  0  0  0  0  0  0  0  0  0
    7.4924  -12.6258   24.8768 C   0  0  0  0  0  0  0  0  0  0  0  0
    7.2611  -13.6041   25.8197 C   0  0  0  0  0  0  0  0  0  0  0  0
    7.9463  -14.8996   25.6764 C   0  0  0  0  0  0  0  0  0  0  0  0
    7.2702  -15.7162   24.5663 C   0  0  2  0  0  0  0  0  0  0  0  0
    6.1118  -16.3728   25.1865 N   0  0  0  0  0  0  0  0  0  0  0  0
    8.2819  -16.7340   24.1565 C   0  0  0  0  0  0  0  0  0  0  0  0
    8.3828  -17.7483   24.8933 O   0  0  0  0  0  0  0  0  0  0  0  0
    6.4161  -13.4141   26.8881 C   0  0  0  0  0  0  0  0  0  0  0  0
    5.7836  -12.1996   27.0106 C   0  0  0  0  0  0  0  0  0  0  0  0
    9.0384  -16.5133   23.0135 N   0  0  0  0  0  0  0  0  0  0  0  0
   10.0972  -17.4918   22.6413 C   0  0  1  0  0  0  0  0  0  0  0  0
   10.6484  -17.0658   21.3162 C   0  0  0  0  0  0  0  0  0  0  0  0
   11.7232  -17.9713   20.8247 C   0  0  0  0  0  0  0  0  0  0  0  0
   12.2628  -17.6123   19.4881 C   0  0  0  0  0  0  0  0  0  0  0  0
   13.4533  -17.9143   19.2242 O   0  0  0  0  0  0  0  0  0  0  0  0
   11.1469  -17.4013   23.6787 C   0  0  0  0  0  0  0  0  0  0  0  0
   11.2256  -16.3134   24.3400 O   0  0  0  0  0  0  0  0  0  0  0  0
   11.5214  -16.9637   18.5247 O   0  0  0  0  0  0  0  0  0  0  0  0
   11.2121  -20.7447   27.9116 N   0  0  0  0  0  0  0  0  0  0  0  0
   11.3846  -19.4079   27.4667 C   0  0  0  0  0  0  0  0  0  0  0  0
   11.7858  -18.5819   28.3224 O   0  0  0  0  0  0  0  0  0  0  0  0
   11.0917  -19.0715   26.0646 C   0  0  0  0  0  0  0  0  0  0  0  0
   12.3886  -18.7744   25.3255 C   0  0  2  0  0  0  0  0  0  0  0  0
   12.0303  -18.4551   23.9537 N   0  0  0  0  0  0  0  0  0  0  0  0
   13.3213  -19.9209   25.4378 C   0  0  0  0  0  0  0  0  0  0  0  0
   14.1152  -20.1754   26.5362 O   0  0  0  0  0  0  0  0  0  0  0  0
   13.3746  -20.7007   24.4513 O   0  0  0  0  0  0  0  0  0  0  0  0
  2  1  1  0
  3  2  2  0
  4  3  1  0
  5  4  2  0
  5 11  1  0
  6  5  1  0
  7  8  1  1
  7  6  1  0
  9  7  1  0
 10  9  2  0
 11 12  2  0
 12  2  1  0
 13  9  1  0
 14 13  1  0
 14 15  1  6
 15 16  1  0
 17 16  1  0
 17 18  2  0
 19 14  1  0
 20 19  2  0
 21 17  1  0
 22 23  1  0
 23 24  2  0
 25 23  1  0
 26 25  1  1
 26 27  1  0
 27 19  1  0
 28 26  1  0
 28 29  1  0
 30 28  2  0
M  END
$$$$
