YEN.pdb
     RDKit          3D

 30 30  0  0  1  0  0  0  0  0999 V2000
    5.5138  -10.2923   26.6052 O   0  0  0  0  0  0  0  0  0  0  0  0
    6.1467  -11.5083   26.3942 C   0  0  0  0  0  0  0  0  0  0  0  0
    6.6878  -11.7721   25.1404 C   0  0  0  0  0  0  0  0  0  0  0  0
    7.3133  -12.9831   24.9450 C   0  0  0  0  0  0  0  0  0  0  0  0
    7.3829  -13.8851   25.9849 C   0  0  0  0  0  0  0  0  0  0  0  0
    8.0566  -15.1745   25.7578 C   0  0  0  0  0  0  0  0  0  0  0  0
    7.2677  -15.9891   24.7232 C   0  0  2  0  0  0  0  0  0  0  0  0
    5.9810  -16.3159   25.3519 N   0  0  0  0  0  0  0  0  0  0  0  0
    8.0675  -17.2309   24.5090 C   0  0  0  0  0  0  0  0  0  0  0  0
    7.7283  -18.2362   25.1844 O   0  0  0  0  0  0  0  0  0  0  0  0
    6.8478  -13.6243   27.2248 C   0  0  0  0  0  0  0  0  0  0  0  0
    6.2226  -12.4163   27.4237 C   0  0  0  0  0  0  0  0  0  0  0  0
    9.1161  -17.2112   23.5992 N   0  0  0  0  0  0  0  0  0  0  0  0
    9.9358  -18.4393   23.4070 C   0  0  1  0  0  0  0  0  0  0  0  0
   10.6575  -18.2908   22.1038 C   0  0  0  0  0  0  0  0  0  0  0  0
   11.4787  -17.0505   22.0416 C   0  0  0  0  0  0  0  0  0  0  0  0
   12.1936  -16.8532   20.7544 C   0  0  0  0  0  0  0  0  0  0  0  0
   12.9951  -15.8906   20.6581 O   0  0  0  0  0  0  0  0  0  0  0  0
   10.9070  -18.4839   24.5210 C   0  0  0  0  0  0  0  0  0  0  0  0
   10.9868  -17.4553   25.2710 O   0  0  0  0  0  0  0  0  0  0  0  0
   12.0194  -17.6739   19.6615 O   0  0  0  0  0  0  0  0  0  0  0  0
   13.2656  -20.2595   28.4167 N   0  0  0  0  0  0  0  0  0  0  0  0
   12.4173  -19.1275   28.3003 C   0  0  0  0  0  0  0  0  0  0  0  0
   12.3919  -18.3453   29.2817 O   0  0  0  0  0  0  0  0  0  0  0  0
   11.6345  -18.9368   27.0692 C   0  0  0  0  0  0  0  0  0  0  0  0
   11.8643  -20.1098   26.1270 C   0  0  2  0  0  0  0  0  0  0  0  0
   11.7161  -19.6010   24.7737 N   0  0  0  0  0  0  0  0  0  0  0  0
   10.9317  -21.2174   26.4440 C   0  0  0  0  0  0  0  0  0  0  0  0
    9.6149  -21.0456   26.8156 O   0  0  0  0  0  0  0  0  0  0  0  0
   11.3962  -22.3842   26.3615 O   0  0  0  0  0  0  0  0  0  0  0  0
  2  1  1  0
  3  2  2  0
  4  3  1  0
  5  4  2  0
  5 11  1  0
  6  5  1  0
  7  8  1  1
  7  6  1  0
  9  7  1  0
 10  9  2  0
 11 12  2  0
 12  2  1  0
 13  9  1  0
 14 13  1  0
 14 15  1  6
 15 16  1  0
 17 16  1  0
 17 18  2  0
 19 14  1  0
 20 19  2  0
 21 17  1  0
 22 23  1  0
 23 24  2  0
 25 23  1  0
 26 25  1  1
 26 27  1  0
 27 19  1  0
 28 26  1  0
 28 29  1  0
 30 28  2  0
M  END
$$$$
