YEN.pdb
     RDKit          3D

 30 30  0  0  1  0  0  0  0  0999 V2000
    8.6887  -12.9322   27.5191 O   0  0  0  0  0  0  0  0  0  0  0  0
    8.0682  -13.5781   26.4601 C   0  0  0  0  0  0  0  0  0  0  0  0
    8.0550  -14.9687   26.4400 C   0  0  0  0  0  0  0  0  0  0  0  0
    7.4355  -15.5968   25.3828 C   0  0  0  0  0  0  0  0  0  0  0  0
    6.8550  -14.8375   24.3897 C   0  0  0  0  0  0  0  0  0  0  0  0
    6.1961  -15.5266   23.2676 C   0  0  0  0  0  0  0  0  0  0  0  0
    7.1677  -15.6206   22.0830 C   0  0  2  0  0  0  0  0  0  0  0  0
    6.4524  -16.3403   21.0208 N   0  0  0  0  0  0  0  0  0  0  0  0
    8.3133  -16.4385   22.5792 C   0  0  0  0  0  0  0  0  0  0  0  0
    8.0581  -17.6338   22.8759 O   0  0  0  0  0  0  0  0  0  0  0  0
    6.8680  -13.4623   24.4095 C   0  0  0  0  0  0  0  0  0  0  0  0
    7.4856  -12.8317   25.4634 C   0  0  0  0  0  0  0  0  0  0  0  0
    9.5674  -15.8522   22.6841 N   0  0  0  0  0  0  0  0  0  0  0  0
   10.7515  -16.7112   22.9616 C   0  0  1  0  0  0  0  0  0  0  0  0
   11.9474  -16.0158   22.3895 C   0  0  0  0  0  0  0  0  0  0  0  0
   13.2110  -16.7706   22.6138 C   0  0  0  0  0  0  0  0  0  0  0  0
   13.8403  -17.2936   21.3740 C   0  0  0  0  0  0  0  0  0  0  0  0
   14.5245  -16.5063   20.6739 O   0  0  0  0  0  0  0  0  0  0  0  0
   10.8763  -16.8053   24.4319 C   0  0  0  0  0  0  0  0  0  0  0  0
   10.4850  -15.8044   25.1190 O   0  0  0  0  0  0  0  0  0  0  0  0
   13.7090  -18.5995   20.9545 O   0  0  0  0  0  0  0  0  0  0  0  0
    9.9024  -17.5416   29.1376 N   0  0  0  0  0  0  0  0  0  0  0  0
    9.4447  -18.4747   28.1709 C   0  0  0  0  0  0  0  0  0  0  0  0
    8.8336  -19.4794   28.6099 O   0  0  0  0  0  0  0  0  0  0  0  0
    9.7041  -18.2211   26.7449 C   0  0  0  0  0  0  0  0  0  0  0  0
   11.2038  -18.1228   26.5047 C   0  0  2  0  0  0  0  0  0  0  0  0
   11.3923  -17.9395   25.0753 N   0  0  0  0  0  0  0  0  0  0  0  0
   11.8922  -19.3216   27.0395 C   0  0  0  0  0  0  0  0  0  0  0  0
   12.7371  -19.3143   28.1292 O   0  0  0  0  0  0  0  0  0  0  0  0
   11.6751  -20.4078   26.4418 O   0  0  0  0  0  0  0  0  0  0  0  0
  2  1  1  0
  3  2  2  0
  4  3  1  0
  5  4  2  0
  5 11  1  0
  6  5  1  0
  7  8  1  6
  7  6  1  0
  9  7  1  0
 10  9  2  0
 11 12  2  0
 12  2  1  0
 13  9  1  0
 14 13  1  0
 14 15  1  1
 15 16  1  0
 17 16  1  0
 17 18  2  0
 19 14  1  0
 20 19  2  0
 21 17  1  0
 22 23  1  0
 23 24  2  0
 25 23  1  0
 26 25  1  6
 26 27  1  0
 27 19  1  0
 28 26  1  0
 28 29  1  0
 30 28  2  0
M  END
$$$$
