TCH.pdb
     RDKit          3D

 24 24  0  0  1  0  0  0  0  0999 V2000
   22.3528  -13.4054  -19.7512 C   0  0  0  0  0  0  0  0  0  0  0  0
   22.4971  -14.6598  -18.9314 C   0  0  1  0  0  0  0  0  0  0  0  0
   22.3977  -15.7656  -19.7586 O   0  0  0  0  0  0  0  0  0  0  0  0
   23.8554  -14.6960  -18.2682 C   0  0  2  0  0  0  0  0  0  0  0  0
   24.0435  -15.9801  -17.6710 N   0  0  0  0  0  0  0  0  0  0  0  0
   23.9937  -13.5871  -17.3015 C   0  0  0  0  0  0  0  0  0  0  0  0
   23.4165  -13.7496  -16.1747 O   0  0  0  0  0  0  0  0  0  0  0  0
   24.7206  -12.4022  -17.5873 N   0  0  0  0  0  0  0  0  0  0  0  0
   24.7738  -11.3625  -16.6192 C   0  0  1  0  0  0  0  0  0  0  0  0
   26.1998  -10.8859  -16.4338 C   0  0  0  0  0  0  0  0  0  0  0  0
   26.2953   -9.4707  -15.3382 S   0  0  0  0  0  0  0  0  0  0  0  0
   23.8586  -10.2283  -16.9293 C   0  0  0  0  0  0  0  0  0  0  0  0
   23.8588   -9.6617  -18.0526 O   0  0  0  0  0  0  0  0  0  0  0  0
   22.9274   -9.7118  -15.9809 N   0  0  0  0  0  0  0  0  0  0  0  0
   22.0027   -8.6506  -16.2704 C   0  0  1  0  0  0  0  0  0  0  0  0
   20.5661   -9.0458  -16.0430 C   0  0  0  0  0  0  0  0  0  0  0  0
   20.1254  -10.1371  -16.9301 C   0  0  0  0  0  0  0  0  0  0  0  0
   20.1369  -10.1205  -18.3060 C   0  0  0  0  0  0  0  0  0  0  0  0
   19.6500  -11.3217  -18.7255 N   0  0  0  0  0  0  0  0  0  0  0  0
   19.3435  -12.0664  -17.6524 C   0  0  0  0  0  0  0  0  0  0  0  0
   19.6369  -11.3359  -16.5819 N   0  0  0  0  0  0  0  0  0  0  0  0
   22.3567   -7.3798  -15.6084 C   0  0  0  0  0  0  0  0  0  0  0  0
   23.4087   -7.2911  -14.7449 O   0  0  0  0  0  0  0  0  0  0  0  0
   21.6672   -6.3681  -15.8542 O   0  0  0  0  0  0  0  0  0  0  0  0
  2  1  1  6
  2  3  1  0
  2  4  1  0
  4  5  1  1
  6  4  1  0
  6  8  1  0
  7  6  2  0
  9  8  1  0
  9 12  1  0
  9 10  1  6
 11 10  1  0
 12 14  1  0
 13 12  2  0
 14 15  1  0
 15 22  1  0
 15 16  1  1
 16 17  1  0
 17 21  1  0
 18 17  2  0
 18 19  1  0
 19 20  1  0
 21 20  2  0
 22 23  1  0
 24 22  2  0
M  END
$$$$
