TCH.pdb
     RDKit          3D

 24 24  0  0  1  0  0  0  0  0999 V2000
   17.2300  -14.4956  -13.7111 C   0  0  0  0  0  0  0  0  0  0  0  0
   16.8576  -13.0376  -13.6647 C   0  0  1  0  0  0  0  0  0  0  0  0
   16.5472  -12.5999  -14.9411 O   0  0  0  0  0  0  0  0  0  0  0  0
   15.6367  -12.8386  -12.7953 C   0  0  2  0  0  0  0  0  0  0  0  0
   14.5287  -13.5131  -13.3940 N   0  0  0  0  0  0  0  0  0  0  0  0
   15.3823  -11.3999  -12.5745 C   0  0  0  0  0  0  0  0  0  0  0  0
   14.7438  -10.7946  -13.4992 O   0  0  0  0  0  0  0  0  0  0  0  0
   15.8131  -10.7113  -11.4108 N   0  0  0  0  0  0  0  0  0  0  0  0
   15.5797   -9.3135  -11.2976 C   0  0  1  0  0  0  0  0  0  0  0  0
   14.9487   -8.9902   -9.9588 C   0  0  0  0  0  0  0  0  0  0  0  0
   13.5041  -10.0016   -9.6382 S   0  0  0  0  0  0  0  0  0  0  0  0
   16.8033   -8.4961  -11.5322 C   0  0  0  0  0  0  0  0  0  0  0  0
   17.9485   -8.9061  -11.2112 O   0  0  0  0  0  0  0  0  0  0  0  0
   16.7594   -7.2033  -12.1322 N   0  0  0  0  0  0  0  0  0  0  0  0
   17.9291   -6.4773  -12.5444 C   0  0  1  0  0  0  0  0  0  0  0  0
   18.9132   -7.3316  -13.3017 C   0  0  0  0  0  0  0  0  0  0  0  0
   20.1075   -6.5834  -13.7328 C   0  0  0  0  0  0  0  0  0  0  0  0
   20.3699   -5.2564  -13.4803 C   0  0  0  0  0  0  0  0  0  0  0  0
   21.5721   -4.9693  -14.0534 N   0  0  0  0  0  0  0  0  0  0  0  0
   22.0481   -6.0756  -14.6446 C   0  0  0  0  0  0  0  0  0  0  0  0
   21.1524   -7.0355  -14.4404 N   0  0  0  0  0  0  0  0  0  0  0  0
   17.6099   -5.2175  -13.2441 C   0  0  0  0  0  0  0  0  0  0  0  0
   18.5036   -4.1893  -13.3107 O   0  0  0  0  0  0  0  0  0  0  0  0
   16.4899   -5.1038  -13.7843 O   0  0  0  0  0  0  0  0  0  0  0  0
  2  1  1  6
  2  3  1  0
  2  4  1  0
  4  5  1  6
  6  4  1  0
  6  8  1  0
  7  6  2  0
  9  8  1  0
  9 12  1  0
  9 10  1  1
 11 10  1  0
 12 14  1  0
 13 12  2  0
 14 15  1  0
 15 22  1  0
 15 16  1  6
 16 17  1  0
 17 21  1  0
 18 17  2  0
 18 19  1  0
 19 20  1  0
 21 20  2  0
 22 23  1  0
 24 22  2  0
M  END
$$$$
