TCH.pdb
     RDKit          3D

 24 24  0  0  1  0  0  0  0  0999 V2000
   18.0001  -13.2567  -16.7965 C   0  0  0  0  0  0  0  0  0  0  0  0
   17.7820  -14.2174  -15.6582 C   0  0  1  0  0  0  0  0  0  0  0  0
   16.9163  -15.2204  -16.0604 O   0  0  0  0  0  0  0  0  0  0  0  0
   19.0906  -14.8637  -15.2632 C   0  0  2  0  0  0  0  0  0  0  0  0
   18.8262  -15.9003  -14.3163 N   0  0  0  0  0  0  0  0  0  0  0  0
   20.0404  -13.8515  -14.7567 C   0  0  0  0  0  0  0  0  0  0  0  0
   19.7032  -13.2546  -13.6801 O   0  0  0  0  0  0  0  0  0  0  0  0
   21.2613  -13.5449  -15.4120 N   0  0  0  0  0  0  0  0  0  0  0  0
   22.0847  -12.5020  -14.9065 C   0  0  1  0  0  0  0  0  0  0  0  0
   23.5431  -12.7942  -15.1940 C   0  0  0  0  0  0  0  0  0  0  0  0
   24.6180  -11.4939  -14.5885 S   0  0  0  0  0  0  0  0  0  0  0  0
   21.6926  -11.1541  -15.4063 C   0  0  0  0  0  0  0  0  0  0  0  0
   21.4057  -10.9502  -16.6141 O   0  0  0  0  0  0  0  0  0  0  0  0
   21.6167  -10.0121  -14.5556 N   0  0  0  0  0  0  0  0  0  0  0  0
   21.3257   -8.6863  -15.0276 C   0  0  1  0  0  0  0  0  0  0  0  0
   20.2584   -7.9963  -14.2175 C   0  0  0  0  0  0  0  0  0  0  0  0
   18.8968   -8.4332  -14.5743 C   0  0  0  0  0  0  0  0  0  0  0  0
   18.5597   -9.2843  -15.6017 C   0  0  0  0  0  0  0  0  0  0  0  0
   17.2045   -9.4215  -15.5804 N   0  0  0  0  0  0  0  0  0  0  0  0
   16.7077   -8.6835  -14.5761 C   0  0  0  0  0  0  0  0  0  0  0  0
   17.7418   -8.0968  -13.9830 N   0  0  0  0  0  0  0  0  0  0  0  0
   22.5345   -7.8577  -15.2028 C   0  0  0  0  0  0  0  0  0  0  0  0
   22.4658   -6.5845  -15.6871 O   0  0  0  0  0  0  0  0  0  0  0  0
   23.6415   -8.3472  -14.8959 O   0  0  0  0  0  0  0  0  0  0  0  0
  2  1  1  6
  2  3  1  0
  2  4  1  0
  4  5  1  1
  6  4  1  0
  6  8  1  0
  7  6  2  0
  9  8  1  0
  9 12  1  0
  9 10  1  6
 11 10  1  0
 12 14  1  0
 13 12  2  0
 14 15  1  0
 15 22  1  0
 15 16  1  1
 16 17  1  0
 17 21  1  0
 18 17  2  0
 18 19  1  0
 19 20  1  0
 21 20  2  0
 22 23  1  0
 24 22  2  0
M  END
$$$$
