TCH.pdb
     RDKit          3D

 24 24  0  0  1  0  0  0  0  0999 V2000
   21.4775  -11.8482  -17.8053 C   0  0  0  0  0  0  0  0  0  0  0  0
   20.8292  -10.5925  -17.2863 C   0  0  1  0  0  0  0  0  0  0  0  0
   19.7931  -10.2261  -18.1286 O   0  0  0  0  0  0  0  0  0  0  0  0
   20.2473  -10.8356  -15.9122 C   0  0  2  0  0  0  0  0  0  0  0  0
   19.1849  -11.7845  -16.0220 N   0  0  0  0  0  0  0  0  0  0  0  0
   19.8197   -9.5635  -15.2940 C   0  0  0  0  0  0  0  0  0  0  0  0
   18.6976   -9.0984  -15.6861 O   0  0  0  0  0  0  0  0  0  0  0  0
   20.5946   -8.8816  -14.3201 N   0  0  0  0  0  0  0  0  0  0  0  0
   20.0970   -7.6807  -13.7445 C   0  0  1  0  0  0  0  0  0  0  0  0
   19.8612   -7.8651  -12.2594 C   0  0  0  0  0  0  0  0  0  0  0  0
   18.6404   -9.1349  -11.9283 S   0  0  0  0  0  0  0  0  0  0  0  0
   20.9657   -6.5004  -14.0135 C   0  0  0  0  0  0  0  0  0  0  0  0
   22.2116   -6.5391  -13.8435 O   0  0  0  0  0  0  0  0  0  0  0  0
   20.4475   -5.2559  -14.4785 N   0  0  0  0  0  0  0  0  0  0  0  0
   21.2699   -4.1231  -14.8033 C   0  0  1  0  0  0  0  0  0  0  0  0
   21.1560   -3.7105  -16.2485 C   0  0  0  0  0  0  0  0  0  0  0  0
   21.5151   -4.7925  -17.1826 C   0  0  0  0  0  0  0  0  0  0  0  0
   22.7544   -5.3762  -17.3119 C   0  0  0  0  0  0  0  0  0  0  0  0
   22.6507   -6.3265  -18.2825 N   0  0  0  0  0  0  0  0  0  0  0  0
   21.3920   -6.3398  -18.7465 C   0  0  0  0  0  0  0  0  0  0  0  0
   20.7246   -5.4096  -18.0720 N   0  0  0  0  0  0  0  0  0  0  0  0
   21.0900   -2.9929  -13.8712 C   0  0  0  0  0  0  0  0  0  0  0  0
   21.8820   -1.8840  -13.9292 O   0  0  0  0  0  0  0  0  0  0  0  0
   20.1861   -3.0671  -13.0129 O   0  0  0  0  0  0  0  0  0  0  0  0
  2  1  1  6
  2  3  1  0
  2  4  1  0
  4  5  1  6
  6  4  1  0
  6  8  1  0
  7  6  2  0
  9  8  1  0
  9 12  1  0
  9 10  1  1
 11 10  1  0
 12 14  1  0
 13 12  2  0
 14 15  1  0
 15 22  1  0
 15 16  1  6
 16 17  1  0
 17 21  1  0
 18 17  2  0
 18 19  1  0
 19 20  1  0
 21 20  2  0
 22 23  1  0
 24 22  2  0
M  END
$$$$
