TCH.pdb
     RDKit          3D

 24 24  0  0  1  0  0  0  0  0999 V2000
   19.0709  -13.6469  -19.5430 C   0  0  0  0  0  0  0  0  0  0  0  0
   18.7693  -14.1185  -18.1455 C   0  0  1  0  0  0  0  0  0  0  0  0
   19.3003  -15.3838  -17.9608 O   0  0  0  0  0  0  0  0  0  0  0  0
   19.4083  -13.1941  -17.1339 C   0  0  2  0  0  0  0  0  0  0  0  0
   19.5522  -13.8929  -15.8962 N   0  0  0  0  0  0  0  0  0  0  0  0
   18.6283  -11.9462  -17.0016 C   0  0  0  0  0  0  0  0  0  0  0  0
   18.7677  -11.0949  -17.9423 O   0  0  0  0  0  0  0  0  0  0  0  0
   17.7687  -11.6880  -15.9023 N   0  0  0  0  0  0  0  0  0  0  0  0
   17.1584  -10.4103  -15.7755 C   0  0  1  0  0  0  0  0  0  0  0  0
   15.8039  -10.5358  -15.1087 C   0  0  0  0  0  0  0  0  0  0  0  0
   15.1146   -8.9358  -14.6875 S   0  0  0  0  0  0  0  0  0  0  0  0
   18.0198   -9.4188  -15.0717 C   0  0  0  0  0  0  0  0  0  0  0  0
   18.9490   -9.7736  -14.3013 O   0  0  0  0  0  0  0  0  0  0  0  0
   17.8507   -8.0110  -15.2227 N   0  0  0  0  0  0  0  0  0  0  0  0
   18.8450   -7.0450  -14.8439 C   0  0  1  0  0  0  0  0  0  0  0  0
   20.2101   -7.3592  -15.4002 C   0  0  0  0  0  0  0  0  0  0  0  0
   21.2250   -6.3584  -15.0255 C   0  0  0  0  0  0  0  0  0  0  0  0
   21.0445   -5.3020  -14.1625 C   0  0  0  0  0  0  0  0  0  0  0  0
   22.2278   -4.6300  -14.0983 N   0  0  0  0  0  0  0  0  0  0  0  0
   23.1198   -5.2416  -14.8921 C   0  0  0  0  0  0  0  0  0  0  0  0
   22.4971   -6.2792  -15.4410 N   0  0  0  0  0  0  0  0  0  0  0  0
   18.4279   -5.6538  -15.1066 C   0  0  0  0  0  0  0  0  0  0  0  0
   18.3879   -5.1451  -16.3714 O   0  0  0  0  0  0  0  0  0  0  0  0
   18.1062   -4.9356  -14.1371 O   0  0  0  0  0  0  0  0  0  0  0  0
  2  1  1  6
  2  3  1  0
  2  4  1  0
  4  5  1  1
  6  4  1  0
  6  8  1  0
  7  6  2  0
  9  8  1  0
  9 12  1  0
  9 10  1  1
 11 10  1  0
 12 14  1  0
 13 12  2  0
 14 15  1  0
 15 22  1  0
 15 16  1  6
 16 17  1  0
 17 21  1  0
 18 17  2  0
 18 19  1  0
 19 20  1  0
 21 20  2  0
 22 23  1  0
 24 22  2  0
M  END
$$$$
