TCH.pdb
     RDKit          3D

 24 24  0  0  1  0  0  0  0  0999 V2000
   16.8162  -14.1008  -15.1581 C   0  0  0  0  0  0  0  0  0  0  0  0
   16.3631  -14.4284  -16.5559 C   0  0  1  0  0  0  0  0  0  0  0  0
   16.0853  -15.7819  -16.6456 O   0  0  0  0  0  0  0  0  0  0  0  0
   15.0963  -13.6711  -16.8843 C   0  0  2  0  0  0  0  0  0  0  0  0
   14.6192  -14.1010  -18.1605 N   0  0  0  0  0  0  0  0  0  0  0  0
   15.3280  -12.2133  -16.8189 C   0  0  0  0  0  0  0  0  0  0  0  0
   16.0057  -11.7093  -17.7759 O   0  0  0  0  0  0  0  0  0  0  0  0
   14.8356  -11.4017  -15.7640 N   0  0  0  0  0  0  0  0  0  0  0  0
   15.1577  -10.0173  -15.7367 C   0  0  1  0  0  0  0  0  0  0  0  0
   14.0244   -9.2234  -15.1197 C   0  0  0  0  0  0  0  0  0  0  0  0
   14.4749   -7.5089  -14.8554 S   0  0  0  0  0  0  0  0  0  0  0  0
   16.4527   -9.7322  -15.0570 C   0  0  0  0  0  0  0  0  0  0  0  0
   16.8071  -10.3454  -14.0172 O   0  0  0  0  0  0  0  0  0  0  0  0
   17.3714   -8.7523  -15.5356 N   0  0  0  0  0  0  0  0  0  0  0  0
   18.6774   -8.5441  -14.9731 C   0  0  1  0  0  0  0  0  0  0  0  0
   19.6248   -9.6825  -15.2527 C   0  0  0  0  0  0  0  0  0  0  0  0
   20.9773   -9.4462  -14.7172 C   0  0  0  0  0  0  0  0  0  0  0  0
   21.3606   -8.3986  -13.9114 C   0  0  0  0  0  0  0  0  0  0  0  0
   22.6875   -8.5598  -13.6482 N   0  0  0  0  0  0  0  0  0  0  0  0
   23.1226   -9.6684  -14.2659 C   0  0  0  0  0  0  0  0  0  0  0  0
   22.0787  -10.1873  -14.9036 N   0  0  0  0  0  0  0  0  0  0  0  0
   19.2502   -7.2276  -15.3153 C   0  0  0  0  0  0  0  0  0  0  0  0
   20.5009   -6.8639  -14.9105 O   0  0  0  0  0  0  0  0  0  0  0  0
   18.5615   -6.4366  -15.9930 O   0  0  0  0  0  0  0  0  0  0  0  0
  2  1  1  1
  2  3  1  0
  2  4  1  0
  4  5  1  6
  6  4  1  0
  6  8  1  0
  7  6  2  0
  9  8  1  0
  9 12  1  0
  9 10  1  1
 11 10  1  0
 12 14  1  0
 13 12  2  0
 14 15  1  0
 15 22  1  0
 15 16  1  6
 16 17  1  0
 17 21  1  0
 18 17  2  0
 18 19  1  0
 19 20  1  0
 21 20  2  0
 22 23  1  0
 24 22  2  0
M  END
$$$$
