RVM.pdb
     RDKit          3D

 27 26  0  0  1  0  0  0  0  0999 V2000
   27.3551  -16.1802  -19.4520 N   0  0  0  0  0  0  0  0  0  0  0  0
   28.6588  -16.7320  -19.2462 C   0  0  0  0  0  0  0  0  0  0  0  0
   29.5767  -16.5200  -20.1150 N   0  0  0  0  0  0  0  0  0  0  0  0
   28.9639  -17.5118  -18.1006 N   0  0  0  0  0  0  0  0  0  0  0  0
   28.0314  -17.8835  -17.0866 C   0  0  0  0  0  0  0  0  0  0  0  0
   27.7767  -16.8230  -16.0763 C   0  0  0  0  0  0  0  0  0  0  0  0
   26.7948  -17.1280  -15.0111 C   0  0  0  0  0  0  0  0  0  0  0  0
   26.2905  -18.5390  -14.9665 C   0  0  2  0  0  0  0  0  0  0  0  0
   25.5955  -18.9210  -16.1778 N   0  0  0  0  0  0  0  0  0  0  0  0
   25.4278  -18.8118  -13.8095 C   0  0  0  0  0  0  0  0  0  0  0  0
   24.3458  -18.1522  -13.6217 O   0  0  0  0  0  0  0  0  0  0  0  0
   30.5107  -16.9326  -20.0339 C   0  0  0  0  0  0  0  0  0  0  0  0
   23.2859  -21.4761  -13.1121 C   0  0  2  0  0  0  0  0  0  0  0  0
   24.2613  -21.5238  -11.9694 C   0  0  0  0  0  0  0  0  0  0  0  0
   25.2904  -22.6203  -12.1392 C   0  0  2  0  0  0  0  0  0  0  0  0
   24.9374  -20.1733  -11.7488 N   0  0  0  0  0  0  0  0  0  0  0  0
   25.7784  -19.8186  -12.8717 C   0  0  0  0  0  0  0  0  0  0  0  0
   25.7895  -20.3357  -10.5497 O   0  0  0  0  0  0  0  0  0  0  0  0
   27.0337  -20.3290  -10.6835 C   0  0  0  0  0  0  0  0  0  0  0  0
   29.6670  -18.8087   -4.5924 S   0  0  0  0  0  0  0  0  0  0  0  0
   28.7272  -18.4940   -6.0980 C   0  0  0  0  0  0  0  0  0  0  0  0
   27.6845  -19.9688   -6.4771 C   0  0  0  0  0  0  0  0  0  0  0  0
   26.9425  -19.7256   -7.7631 C   0  0  1  0  0  0  0  0  0  0  0  0
   26.0650  -20.8992   -8.0965 N   0  0  0  0  0  0  0  0  0  0  0  0
   25.2424  -20.4991   -9.2490 C   0  0  0  0  0  0  0  0  0  0  0  0
   25.2204  -21.2441   -6.9425 O   0  0  0  0  0  0  0  0  0  0  0  0
   23.9879  -21.1151   -6.8473 O   0  0  0  0  0  0  0  0  0  0  0  0
  2  1  1  0
  3  2  2  0
  4  2  1  0
  5  6  1  0
  5  4  1  0
  6  7  1  0
  7  8  1  0
  8  9  1  6
  8 10  1  0
 10 11  2  0
 10 16  1  0
 13 12  1  1
 13 15  1  0
 13 14  1  0
 15 17  1  0
 15 16  1  1
 17 24  1  0
 17 18  2  0
 19 20  1  0
 20 21  1  0
 21 22  1  0
 23 22  1  6
 23 25  1  0
 24 23  1  0
 25 27  1  0
 26 25  2  0
M  END
$$$$
