RVM.pdb
     RDKit          3D

 27 26  0  0  1  0  0  0  0  0999 V2000
   28.1315  -19.9125  -15.3490 N   0  0  0  0  0  0  0  0  0  0  0  0
   28.6164  -20.6700  -16.4614 C   0  0  0  0  0  0  0  0  0  0  0  0
   28.8075  -21.9304  -16.3297 N   0  0  0  0  0  0  0  0  0  0  0  0
   28.8933  -20.0601  -17.7124 N   0  0  0  0  0  0  0  0  0  0  0  0
   28.1655  -18.9692  -18.2745 C   0  0  0  0  0  0  0  0  0  0  0  0
   28.2908  -17.6981  -17.5138 C   0  0  0  0  0  0  0  0  0  0  0  0
   27.4094  -17.5266  -16.3368 C   0  0  0  0  0  0  0  0  0  0  0  0
   25.9546  -17.3152  -16.6303 C   0  0  2  0  0  0  0  0  0  0  0  0
   25.6757  -15.9889  -17.1397 N   0  0  0  0  0  0  0  0  0  0  0  0
   25.0841  -17.5816  -15.4777 C   0  0  0  0  0  0  0  0  0  0  0  0
   24.7472  -16.6434  -14.6731 O   0  0  0  0  0  0  0  0  0  0  0  0
   29.0924  -22.5241  -17.1142 C   0  0  0  0  0  0  0  0  0  0  0  0
   22.8832  -21.1714  -15.3254 C   0  0  2  0  0  0  0  0  0  0  0  0
   22.5812  -20.0229  -14.4037 C   0  0  0  0  0  0  0  0  0  0  0  0
   21.8510  -20.4666  -13.1547 C   0  0  1  0  0  0  0  0  0  0  0  0
   23.8421  -19.2402  -14.0469 N   0  0  0  0  0  0  0  0  0  0  0  0
   24.5958  -18.8920  -15.2321 C   0  0  0  0  0  0  0  0  0  0  0  0
   24.6614  -20.1468  -13.2120 O   0  0  0  0  0  0  0  0  0  0  0  0
   24.9776  -21.2696  -13.6651 C   0  0  0  0  0  0  0  0  0  0  0  0
   27.2355  -18.1257   -7.7172 S   0  0  0  0  0  0  0  0  0  0  0  0
   27.3550  -19.8804   -7.3224 C   0  0  0  0  0  0  0  0  0  0  0  0
   26.8862  -20.8663   -8.8104 C   0  0  0  0  0  0  0  0  0  0  0  0
   26.1602  -19.9737   -9.7798 C   0  0  1  0  0  0  0  0  0  0  0  0
   25.8524  -20.7142  -11.0507 N   0  0  0  0  0  0  0  0  0  0  0  0
   25.1026  -19.7854  -11.9110 C   0  0  0  0  0  0  0  0  0  0  0  0
   25.0569  -21.9163  -10.7565 O   0  0  0  0  0  0  0  0  0  0  0  0
   23.8355  -21.9739  -10.5341 O   0  0  0  0  0  0  0  0  0  0  0  0
  2  1  1  0
  3  2  2  0
  4  2  1  0
  5  6  1  0
  5  4  1  0
  6  7  1  0
  7  8  1  0
  8  9  1  1
  8 10  1  0
 10 11  2  0
 10 16  1  0
 13 12  1  6
 13 15  1  0
 13 14  1  0
 15 17  1  0
 15 16  1  6
 17 24  1  0
 17 18  2  0
 19 20  1  0
 20 21  1  0
 21 22  1  0
 23 22  1  6
 23 25  1  0
 24 23  1  0
 25 27  1  0
 26 25  2  0
M  END
$$$$
