RVM.pdb
     RDKit          3D

 27 26  0  0  1  0  0  0  0  0999 V2000
   27.1440  -19.9506   -8.6701 N   0  0  0  0  0  0  0  0  0  0  0  0
   26.0024  -20.4329   -7.9557 C   0  0  0  0  0  0  0  0  0  0  0  0
   25.9847  -20.3638   -6.6761 N   0  0  0  0  0  0  0  0  0  0  0  0
   24.8839  -20.9889   -8.6293 N   0  0  0  0  0  0  0  0  0  0  0  0
   24.7369  -21.0760  -10.0458 C   0  0  0  0  0  0  0  0  0  0  0  0
   26.0185  -21.0035  -10.7958 C   0  0  0  0  0  0  0  0  0  0  0  0
   25.9360  -21.0052  -12.2740 C   0  0  0  0  0  0  0  0  0  0  0  0
   24.8610  -21.8624  -12.8713 C   0  0  2  0  0  0  0  0  0  0  0  0
   25.3024  -23.2191  -13.1179 N   0  0  0  0  0  0  0  0  0  0  0  0
   24.2949  -21.3076  -14.1079 C   0  0  0  0  0  0  0  0  0  0  0  0
   24.8793  -21.4749  -15.2355 O   0  0  0  0  0  0  0  0  0  0  0  0
   25.1749  -20.6623   -6.1246 C   0  0  0  0  0  0  0  0  0  0  0  0
   20.4660  -21.3477  -14.4172 C   0  0  2  0  0  0  0  0  0  0  0  0
   20.9207  -20.1155  -15.1483 C   0  0  0  0  0  0  0  0  0  0  0  0
   20.3851  -18.8464  -14.5218 C   0  0  2  0  0  0  0  0  0  0  0  0
   22.4412  -20.0616  -15.2704 N   0  0  0  0  0  0  0  0  0  0  0  0
   23.0812  -20.5715  -14.0770 C   0  0  0  0  0  0  0  0  0  0  0  0
   22.7870  -18.6304  -15.4205 O   0  0  0  0  0  0  0  0  0  0  0  0
   22.7199  -17.8814  -14.4203 C   0  0  0  0  0  0  0  0  0  0  0  0
   28.0374  -15.7647  -18.1893 S   0  0  0  0  0  0  0  0  0  0  0  0
   26.6010  -15.1173  -19.0650 C   0  0  0  0  0  0  0  0  0  0  0  0
   25.1411  -15.1520  -17.9367 C   0  0  0  0  0  0  0  0  0  0  0  0
   24.7406  -16.5826  -17.6988 C   0  0  1  0  0  0  0  0  0  0  0  0
   23.5262  -16.6512  -16.8163 N   0  0  0  0  0  0  0  0  0  0  0  0
   23.1936  -18.0764  -16.6638 C   0  0  0  0  0  0  0  0  0  0  0  0
   22.4112  -15.9142  -17.4308 O   0  0  0  0  0  0  0  0  0  0  0  0
   21.5147  -16.3755  -18.1577 O   0  0  0  0  0  0  0  0  0  0  0  0
  2  1  1  0
  3  2  2  0
  4  2  1  0
  5  6  1  0
  5  4  1  0
  6  7  1  0
  7  8  1  0
  8  9  1  6
  8 10  1  0
 10 11  2  0
 10 16  1  0
 13 12  1  6
 13 15  1  0
 13 14  1  0
 15 17  1  0
 15 16  1  6
 17 24  1  0
 17 18  2  0
 19 20  1  0
 20 21  1  0
 21 22  1  0
 23 22  1  1
 23 25  1  0
 24 23  1  0
 25 27  1  0
 26 25  2  0
M  END
$$$$
