RVM.pdb
     RDKit          3D

 27 26  0  0  1  0  0  0  0  0999 V2000
   29.7401  -18.5266  -18.4222 N   0  0  0  0  0  0  0  0  0  0  0  0
   28.8965  -17.3752  -18.3272 C   0  0  0  0  0  0  0  0  0  0  0  0
   28.7268  -16.6321  -19.3574 N   0  0  0  0  0  0  0  0  0  0  0  0
   28.2400  -17.0321  -17.1168 N   0  0  0  0  0  0  0  0  0  0  0  0
   28.3353  -17.7614  -15.8942 C   0  0  0  0  0  0  0  0  0  0  0  0
   27.9699  -19.1976  -16.0127 C   0  0  0  0  0  0  0  0  0  0  0  0
   26.6522  -19.6050  -15.4746 C   0  0  0  0  0  0  0  0  0  0  0  0
   26.6785  -20.6092  -14.3620 C   0  0  2  0  0  0  0  0  0  0  0  0
   25.9344  -21.8104  -14.6774 N   0  0  0  0  0  0  0  0  0  0  0  0
   26.2031  -20.0703  -13.0810 C   0  0  0  0  0  0  0  0  0  0  0  0
   26.5281  -18.8917  -12.6984 O   0  0  0  0  0  0  0  0  0  0  0  0
   28.1555  -15.7825  -19.3293 C   0  0  0  0  0  0  0  0  0  0  0  0
   22.7321  -20.3168   -9.5801 C   0  0  2  0  0  0  0  0  0  0  0  0
   23.3042  -20.6870  -10.9200 C   0  0  0  0  0  0  0  0  0  0  0  0
   22.5292  -20.0709  -12.0646 C   0  0  1  0  0  0  0  0  0  0  0  0
   24.7865  -20.3361  -11.0163 N   0  0  0  0  0  0  0  0  0  0  0  0
   25.3685  -20.8499  -12.2374 C   0  0  0  0  0  0  0  0  0  0  0  0
   25.4374  -20.9989   -9.8641 O   0  0  0  0  0  0  0  0  0  0  0  0
   25.5316  -22.2467   -9.8553 C   0  0  0  0  0  0  0  0  0  0  0  0
   28.9128  -17.7389   -5.6909 S   0  0  0  0  0  0  0  0  0  0  0  0
   28.8145  -19.2124   -4.6574 C   0  0  0  0  0  0  0  0  0  0  0  0
   27.8218  -20.4980   -5.5335 C   0  0  0  0  0  0  0  0  0  0  0  0
   27.2980  -19.9192   -6.8197 C   0  0  1  0  0  0  0  0  0  0  0  0
   26.4470  -20.9245   -7.5432 N   0  0  0  0  0  0  0  0  0  0  0  0
   25.9604  -20.2658   -8.7656 C   0  0  0  0  0  0  0  0  0  0  0  0
   25.3245  -21.3452   -6.6905 O   0  0  0  0  0  0  0  0  0  0  0  0
   24.1731  -20.8776   -6.6782 O   0  0  0  0  0  0  0  0  0  0  0  0
  2  1  1  0
  3  2  2  0
  4  2  1  0
  5  6  1  0
  5  4  1  0
  6  7  1  0
  7  8  1  0
  8  9  1  6
  8 10  1  0
 10 11  2  0
 10 16  1  0
 13 12  1  6
 13 15  1  0
 13 14  1  0
 15 17  1  0
 15 16  1  6
 17 24  1  0
 17 18  2  0
 19 20  1  0
 20 21  1  0
 21 22  1  0
 23 22  1  6
 23 25  1  0
 24 23  1  0
 25 27  1  0
 26 25  2  0
M  END
$$$$
