RVM.pdb
     RDKit          3D

 27 26  0  0  1  0  0  0  0  0999 V2000
   16.9716  -19.2901  -11.9442 N   0  0  0  0  0  0  0  0  0  0  0  0
   16.8486  -19.4457  -13.3609 C   0  0  0  0  0  0  0  0  0  0  0  0
   15.7330  -19.1735  -13.9299 N   0  0  0  0  0  0  0  0  0  0  0  0
   17.9337  -19.8962  -14.1566 N   0  0  0  0  0  0  0  0  0  0  0  0
   19.1640  -20.4137  -13.6523 C   0  0  0  0  0  0  0  0  0  0  0  0
   19.4413  -20.0524  -12.2371 C   0  0  0  0  0  0  0  0  0  0  0  0
   20.6638  -20.6186  -11.6234 C   0  0  0  0  0  0  0  0  0  0  0  0
   21.9124  -20.5356  -12.4487 C   0  0  2  0  0  0  0  0  0  0  0  0
   21.7171  -21.0058  -13.8041 N   0  0  0  0  0  0  0  0  0  0  0  0
   23.0519  -21.2449  -11.8522 C   0  0  0  0  0  0  0  0  0  0  0  0
   22.9850  -22.4959  -11.5844 O   0  0  0  0  0  0  0  0  0  0  0  0
   15.5868  -19.3043  -14.9351 C   0  0  0  0  0  0  0  0  0  0  0  0
   26.1365  -22.1092  -13.2779 C   0  0  2  0  0  0  0  0  0  0  0  0
   26.5412  -21.2748  -12.0949 C   0  0  0  0  0  0  0  0  0  0  0  0
   26.9788  -19.8832  -12.4973 C   0  0  2  0  0  0  0  0  0  0  0  0
   25.4364  -21.2143  -11.0435 N   0  0  0  0  0  0  0  0  0  0  0  0
   24.2571  -20.5536  -11.5599 C   0  0  0  0  0  0  0  0  0  0  0  0
   25.9809  -20.4103   -9.9266 O   0  0  0  0  0  0  0  0  0  0  0  0
   25.7680  -19.1773   -9.9059 C   0  0  0  0  0  0  0  0  0  0  0  0
   27.4142  -18.7165   -3.5729 S   0  0  0  0  0  0  0  0  0  0  0  0
   28.5482  -19.9672   -4.2043 C   0  0  0  0  0  0  0  0  0  0  0  0
   28.7781  -19.7120   -6.0176 C   0  0  0  0  0  0  0  0  0  0  0  0
   27.7016  -20.4589   -6.7570 C   0  0  2  0  0  0  0  0  0  0  0  0
   27.8668  -20.2913   -8.2412 N   0  0  0  0  0  0  0  0  0  0  0  0
   26.7383  -20.9914   -8.8747 C   0  0  0  0  0  0  0  0  0  0  0  0
   29.1506  -20.8634   -8.6757 O   0  0  0  0  0  0  0  0  0  0  0  0
   29.3357  -21.9589   -9.2327 O   0  0  0  0  0  0  0  0  0  0  0  0
  2  1  1  0
  3  2  2  0
  4  2  1  0
  5  6  1  0
  5  4  1  0
  6  7  1  0
  7  8  1  0
  8  9  1  6
  8 10  1  0
 10 11  2  0
 10 16  1  0
 13 12  1  6
 13 15  1  0
 13 14  1  0
 15 17  1  0
 15 16  1  1
 17 24  1  0
 17 18  2  0
 19 20  1  0
 20 21  1  0
 21 22  1  0
 23 22  1  1
 23 25  1  0
 24 23  1  0
 25 27  1  0
 26 25  2  0
M  END
$$$$
