RVM.pdb
     RDKit          3D

 27 26  0  0  1  0  0  0  0  0999 V2000
   18.8161  -24.4512   -8.1983 N   0  0  0  0  0  0  0  0  0  0  0  0
   18.4871  -25.1093   -9.4251 C   0  0  0  0  0  0  0  0  0  0  0  0
   17.9667  -26.2800   -9.3919 N   0  0  0  0  0  0  0  0  0  0  0  0
   18.7231  -24.4977  -10.6837 N   0  0  0  0  0  0  0  0  0  0  0  0
   18.7726  -23.0912  -10.9182 C   0  0  0  0  0  0  0  0  0  0  0  0
   19.0481  -22.7195  -12.3310 C   0  0  0  0  0  0  0  0  0  0  0  0
   20.3986  -22.1974  -12.6401 C   0  0  0  0  0  0  0  0  0  0  0  0
   20.9449  -21.1806  -11.6836 C   0  0  2  0  0  0  0  0  0  0  0  0
   19.9520  -20.2091  -11.2756 N   0  0  0  0  0  0  0  0  0  0  0  0
   22.1266  -20.4754  -12.1970 C   0  0  0  0  0  0  0  0  0  0  0  0
   22.0655  -19.2405  -12.5322 O   0  0  0  0  0  0  0  0  0  0  0  0
   17.6895  -26.7783  -10.2427 C   0  0  0  0  0  0  0  0  0  0  0  0
   25.7116  -20.3519  -10.6511 C   0  0  2  0  0  0  0  0  0  0  0  0
   25.7911  -20.8874  -12.0535 C   0  0  0  0  0  0  0  0  0  0  0  0
   26.0332  -22.3809  -12.0842 C   0  0  2  0  0  0  0  0  0  0  0  0
   24.5533  -20.5207  -12.8677 N   0  0  0  0  0  0  0  0  0  0  0  0
   23.3671  -21.1528  -12.3317 C   0  0  0  0  0  0  0  0  0  0  0  0
   24.7942  -21.0418  -14.2318 O   0  0  0  0  0  0  0  0  0  0  0  0
   24.2171  -22.0924  -14.5911 C   0  0  0  0  0  0  0  0  0  0  0  0
   21.0474  -18.7900  -16.4712 S   0  0  0  0  0  0  0  0  0  0  0  0
   21.9004  -18.4585  -18.0242 C   0  0  0  0  0  0  0  0  0  0  0  0
   23.5157  -19.3511  -18.0271 C   0  0  0  0  0  0  0  0  0  0  0  0
   24.0060  -19.4796  -16.6106 C   0  0  2  0  0  0  0  0  0  0  0  0
   25.3137  -20.2191  -16.5695 N   0  0  0  0  0  0  0  0  0  0  0  0
   25.6598  -20.3888  -15.1495 C   0  0  0  0  0  0  0  0  0  0  0  0
   26.3517  -19.4520  -17.2754 O   0  0  0  0  0  0  0  0  0  0  0  0
   26.9279  -18.4246  -16.8789 O   0  0  0  0  0  0  0  0  0  0  0  0
  2  1  1  0
  3  2  2  0
  4  2  1  0
  5  6  1  0
  5  4  1  0
  6  7  1  0
  7  8  1  0
  8  9  1  6
  8 10  1  0
 10 11  2  0
 10 16  1  0
 13 12  1  6
 13 15  1  0
 13 14  1  0
 15 17  1  0
 15 16  1  6
 17 24  1  0
 17 18  2  0
 19 20  1  0
 20 21  1  0
 21 22  1  0
 23 22  1  1
 23 25  1  0
 24 23  1  0
 25 27  1  0
 26 25  2  0
M  END
$$$$
