LWS.pdb
     RDKit          3D

 29 30  0  0  1  0  0  0  0  0999 V2000
    7.4721  -14.0614   17.0112 C   0  0  0  0  0  0  0  0  0  0  0  0
    7.6831  -13.6953   18.4868 C   0  0  2  0  0  0  0  0  0  0  0  0
    7.3771  -12.2305   18.6156 C   0  0  0  0  0  0  0  0  0  0  0  0
    9.0777  -14.0594   18.8357 C   0  0  0  0  0  0  0  0  0  0  0  0
    9.2349  -15.3588   19.5658 C   0  0  2  0  0  0  0  0  0  0  0  0
    8.1209  -16.2123   19.1873 N   0  0  0  0  0  0  0  0  0  0  0  0
    9.3135  -15.2212   21.0394 C   0  0  0  0  0  0  0  0  0  0  0  0
   10.1946  -14.5234   21.5967 O   0  0  0  0  0  0  0  0  0  0  0  0
    8.3831  -15.8822   21.9179 N   0  0  0  0  0  0  0  0  0  0  0  0
    8.4699  -15.7105   23.3462 C   0  0  1  0  0  0  0  0  0  0  0  0
    7.1379  -15.6690   24.0018 C   0  0  0  0  0  0  0  0  0  0  0  0
    7.1271  -15.2675   25.4180 C   0  0  0  0  0  0  0  0  0  0  0  0
    7.1678  -16.1449   26.5208 C   0  0  0  0  0  0  0  0  0  0  0  0
    7.1747  -15.4160   27.6431 N   0  0  0  0  0  0  0  0  0  0  0  0
    7.1407  -14.1031   27.3617 C   0  0  0  0  0  0  0  0  0  0  0  0
    7.1224  -12.9989   28.1827 C   0  0  0  0  0  0  0  0  0  0  0  0
    7.0711  -11.7568   27.6018 C   0  0  0  0  0  0  0  0  0  0  0  0
    7.0393  -11.6334   26.2373 C   0  0  0  0  0  0  0  0  0  0  0  0
    7.0586  -12.7485   25.4339 C   0  0  0  0  0  0  0  0  0  0  0  0
    7.1103  -14.0091   25.9673 C   0  0  0  0  0  0  0  0  0  0  0  0
    9.2353  -16.8722   23.9304 C   0  0  0  0  0  0  0  0  0  0  0  0
    9.0222  -18.0351   23.4928 O   0  0  0  0  0  0  0  0  0  0  0  0
   13.0128  -16.7730   25.0047 O   0  0  0  0  0  0  0  0  0  0  0  0
   12.3254  -17.9805   25.0281 C   0  0  0  0  0  0  0  0  0  0  0  0
   10.9321  -17.8245   25.5178 C   0  0  2  0  0  0  0  0  0  0  0  0
   10.1928  -16.7370   24.9551 N   0  0  0  0  0  0  0  0  0  0  0  0
   11.0200  -17.5872   27.0043 C   0  0  0  0  0  0  0  0  0  0  0  0
   10.5137  -16.5460   27.4513 O   0  0  0  0  0  0  0  0  0  0  0  0
   11.6337  -18.4751   27.8588 O   0  0  0  0  0  0  0  0  0  0  0  0
  2  1  1  6
  2  3  1  0
  4  2  1  0
  5  4  1  0
  5  6  1  1
  7  8  2  0
  7  5  1  0
  9  7  1  0
 10  9  1  0
 10 11  1  1
 11 12  1  0
 12 20  1  0
 12 13  2  0
 13 14  1  0
 15 14  1  0
 15 16  2  0
 17 16  1  0
 18 17  2  0
 19 20  2  0
 19 18  1  0
 20 15  1  0
 21 22  2  0
 21 10  1  0
 24 23  1  0
 25 24  1  6
 25 26  1  0
 26 21  1  0
 27 25  1  0
 28 27  2  0
 29 27  1  0
M  END
$$$$
