LWS.pdb
     RDKit          3D

 29 30  0  0  1  0  0  0  0  0999 V2000
    8.0981  -14.3157   18.0100 C   0  0  0  0  0  0  0  0  0  0  0  0
    7.2836  -13.8201   19.2129 C   0  0  2  0  0  0  0  0  0  0  0  0
    6.7395  -12.4711   18.8386 C   0  0  0  0  0  0  0  0  0  0  0  0
    8.1924  -13.8068   20.3846 C   0  0  0  0  0  0  0  0  0  0  0  0
    8.6807  -15.1522   20.8294 C   0  0  2  0  0  0  0  0  0  0  0  0
    7.5205  -16.0173   20.9645 N   0  0  0  0  0  0  0  0  0  0  0  0
    9.4662  -15.1278   22.0859 C   0  0  0  0  0  0  0  0  0  0  0  0
   10.4595  -14.3761   22.2354 O   0  0  0  0  0  0  0  0  0  0  0  0
    9.1357  -15.9671   23.2087 N   0  0  0  0  0  0  0  0  0  0  0  0
    9.8923  -15.8909   24.4329 C   0  0  1  0  0  0  0  0  0  0  0  0
    9.0700  -16.1808   25.6353 C   0  0  0  0  0  0  0  0  0  0  0  0
    7.8385  -15.3879   25.7822 C   0  0  0  0  0  0  0  0  0  0  0  0
    6.5255  -15.8694   25.6043 C   0  0  0  0  0  0  0  0  0  0  0  0
    5.6698  -14.8709   25.8527 N   0  0  0  0  0  0  0  0  0  0  0  0
    6.3277  -13.7482   26.1859 C   0  0  0  0  0  0  0  0  0  0  0  0
    5.8716  -12.4905   26.5081 C   0  0  0  0  0  0  0  0  0  0  0  0
    6.7951  -11.5172   26.7955 C   0  0  0  0  0  0  0  0  0  0  0  0
    8.1348  -11.8040   26.7590 C   0  0  0  0  0  0  0  0  0  0  0  0
    8.5707  -13.0668   26.4353 C   0  0  0  0  0  0  0  0  0  0  0  0
    7.6870  -14.0713   26.1415 C   0  0  0  0  0  0  0  0  0  0  0  0
   11.0064  -16.9070   24.3805 C   0  0  0  0  0  0  0  0  0  0  0  0
   10.7258  -18.1229   24.2015 O   0  0  0  0  0  0  0  0  0  0  0  0
   15.0709  -15.7944   24.6966 O   0  0  0  0  0  0  0  0  0  0  0  0
   14.7558  -16.9695   24.0252 C   0  0  0  0  0  0  0  0  0  0  0  0
   13.4409  -17.5197   24.4421 C   0  0  2  0  0  0  0  0  0  0  0  0
   12.3687  -16.5763   24.5218 N   0  0  0  0  0  0  0  0  0  0  0  0
   13.6324  -18.1004   25.8204 C   0  0  0  0  0  0  0  0  0  0  0  0
   12.9078  -17.6701   26.7315 O   0  0  0  0  0  0  0  0  0  0  0  0
   14.5689  -19.0732   26.0883 O   0  0  0  0  0  0  0  0  0  0  0  0
  2  1  1  6
  2  3  1  0
  4  2  1  0
  5  4  1  0
  5  6  1  1
  7  8  2  0
  7  5  1  0
  9  7  1  0
 10  9  1  0
 10 11  1  1
 11 12  1  0
 12 20  1  0
 12 13  2  0
 13 14  1  0
 15 14  1  0
 15 16  2  0
 17 16  1  0
 18 17  2  0
 19 20  2  0
 19 18  1  0
 20 15  1  0
 21 22  2  0
 21 10  1  0
 24 23  1  0
 25 24  1  1
 25 26  1  0
 26 21  1  0
 27 25  1  0
 28 27  2  0
 29 27  1  0
M  END
$$$$
