LWS.pdb
     RDKit          3D

 29 30  0  0  1  0  0  0  0  0999 V2000
    8.2252  -12.3931   17.4830 C   0  0  0  0  0  0  0  0  0  0  0  0
    8.0758  -13.6910   18.2887 C   0  0  2  0  0  0  0  0  0  0  0  0
    7.3461  -13.3328   19.5518 C   0  0  0  0  0  0  0  0  0  0  0  0
    9.4387  -14.2340   18.5055 C   0  0  0  0  0  0  0  0  0  0  0  0
    9.5028  -15.4948   19.3132 C   0  0  2  0  0  0  0  0  0  0  0  0
    8.3897  -16.3352   18.9038 N   0  0  0  0  0  0  0  0  0  0  0  0
    9.4851  -15.2779   20.7793 C   0  0  0  0  0  0  0  0  0  0  0  0
   10.3327  -14.5542   21.3553 O   0  0  0  0  0  0  0  0  0  0  0  0
    8.4941  -15.8868   21.6285 N   0  0  0  0  0  0  0  0  0  0  0  0
    8.5124  -15.6708   23.0533 C   0  0  1  0  0  0  0  0  0  0  0  0
    7.1618  -15.7586   23.6650 C   0  0  0  0  0  0  0  0  0  0  0  0
    7.0511  -15.2910   25.0564 C   0  0  0  0  0  0  0  0  0  0  0  0
    6.8585  -16.1123   26.1860 C   0  0  0  0  0  0  0  0  0  0  0  0
    6.8396  -15.3368   27.2765 N   0  0  0  0  0  0  0  0  0  0  0  0
    7.0070  -14.0451   26.9484 C   0  0  0  0  0  0  0  0  0  0  0  0
    7.0444  -12.9090   27.7241 C   0  0  0  0  0  0  0  0  0  0  0  0
    7.2178  -11.6998   27.0991 C   0  0  0  0  0  0  0  0  0  0  0  0
    7.3492  -11.6394   25.7363 C   0  0  0  0  0  0  0  0  0  0  0  0
    7.3095  -12.7856   24.9787 C   0  0  0  0  0  0  0  0  0  0  0  0
    7.1392  -14.0155   25.5571 C   0  0  0  0  0  0  0  0  0  0  0  0
    9.3783  -16.7270   23.6946 C   0  0  0  0  0  0  0  0  0  0  0  0
    9.2813  -17.9233   23.3090 O   0  0  0  0  0  0  0  0  0  0  0  0
   12.1497  -15.8609   26.8095 O   0  0  0  0  0  0  0  0  0  0  0  0
   12.4421  -16.8629   25.8921 C   0  0  0  0  0  0  0  0  0  0  0  0
   11.2196  -17.4170   25.2565 C   0  0  2  0  0  0  0  0  0  0  0  0
   10.3078  -16.4554   24.7180 N   0  0  0  0  0  0  0  0  0  0  0  0
   10.4848  -18.1833   26.3272 C   0  0  0  0  0  0  0  0  0  0  0  0
   11.0850  -19.1187   26.8796 O   0  0  0  0  0  0  0  0  0  0  0  0
    9.1947  -17.8793   26.6994 O   0  0  0  0  0  0  0  0  0  0  0  0
  2  1  1  6
  2  3  1  0
  4  2  1  0
  5  4  1  0
  5  6  1  6
  7  8  2  0
  7  5  1  0
  9  7  1  0
 10  9  1  0
 10 11  1  1
 11 12  1  0
 12 20  1  0
 12 13  2  0
 13 14  1  0
 15 14  1  0
 15 16  2  0
 17 16  1  0
 18 17  2  0
 19 20  2  0
 19 18  1  0
 20 15  1  0
 21 22  2  0
 21 10  1  0
 24 23  1  0
 25 24  1  1
 25 26  1  0
 26 21  1  0
 27 25  1  0
 28 27  2  0
 29 27  1  0
M  END
$$$$
