LWS.pdb
     RDKit          3D

 29 30  0  0  1  0  0  0  0  0999 V2000
    8.4049  -14.1669   17.9501 C   0  0  0  0  0  0  0  0  0  0  0  0
    7.5623  -13.6472   19.1232 C   0  0  2  0  0  0  0  0  0  0  0  0
    7.1424  -12.2499   18.7666 C   0  0  0  0  0  0  0  0  0  0  0  0
    8.4015  -13.7387   20.3425 C   0  0  0  0  0  0  0  0  0  0  0  0
    8.8202  -15.1255   20.7269 C   0  0  2  0  0  0  0  0  0  0  0  0
    7.6331  -15.9641   20.7054 N   0  0  0  0  0  0  0  0  0  0  0  0
    9.5000  -15.2119   22.0411 C   0  0  0  0  0  0  0  0  0  0  0  0
   10.4820  -14.4871   22.3313 O   0  0  0  0  0  0  0  0  0  0  0  0
    9.0732  -16.1344   23.0615 N   0  0  0  0  0  0  0  0  0  0  0  0
    9.7326  -16.1720   24.3424 C   0  0  1  0  0  0  0  0  0  0  0  0
    8.8018  -16.4775   25.4588 C   0  0  0  0  0  0  0  0  0  0  0  0
    7.6808  -15.5408   25.6400 C   0  0  0  0  0  0  0  0  0  0  0  0
    6.3164  -15.8488   25.4639 C   0  0  0  0  0  0  0  0  0  0  0  0
    5.5949  -14.7580   25.7478 N   0  0  0  0  0  0  0  0  0  0  0  0
    6.3911  -13.7363   26.1032 C   0  0  0  0  0  0  0  0  0  0  0  0
    6.0991  -12.4406   26.4632 C   0  0  0  0  0  0  0  0  0  0  0  0
    7.1398  -11.5991   26.7660 C   0  0  0  0  0  0  0  0  0  0  0  0
    8.4325  -12.0505   26.7072 C   0  0  0  0  0  0  0  0  0  0  0  0
    8.7038  -13.3486   26.3457 C   0  0  0  0  0  0  0  0  0  0  0  0
    7.6987  -14.2259   26.0354 C   0  0  0  0  0  0  0  0  0  0  0  0
   10.7886  -17.2493   24.3148 C   0  0  0  0  0  0  0  0  0  0  0  0
   10.4444  -18.4553   24.4429 O   0  0  0  0  0  0  0  0  0  0  0  0
   14.8415  -16.4334   23.3683 O   0  0  0  0  0  0  0  0  0  0  0  0
   14.2996  -17.6908   23.1309 C   0  0  0  0  0  0  0  0  0  0  0  0
   13.1704  -17.9979   24.0453 C   0  0  2  0  0  0  0  0  0  0  0  0
   12.1633  -16.9877   24.1515 N   0  0  0  0  0  0  0  0  0  0  0  0
   13.7646  -18.1868   25.4182 C   0  0  0  0  0  0  0  0  0  0  0  0
   13.3079  -17.4958   26.3425 O   0  0  0  0  0  0  0  0  0  0  0  0
   14.7775  -19.0853   25.6672 O   0  0  0  0  0  0  0  0  0  0  0  0
  2  1  1  6
  2  3  1  0
  4  2  1  0
  5  4  1  0
  5  6  1  1
  7  8  2  0
  7  5  1  0
  9  7  1  0
 10  9  1  0
 10 11  1  1
 11 12  1  0
 12 20  1  0
 12 13  2  0
 13 14  1  0
 15 14  1  0
 15 16  2  0
 17 16  1  0
 18 17  2  0
 19 20  2  0
 19 18  1  0
 20 15  1  0
 21 22  2  0
 21 10  1  0
 24 23  1  0
 25 24  1  6
 25 26  1  0
 26 21  1  0
 27 25  1  0
 28 27  2  0
 29 27  1  0
M  END
$$$$
