PDQ.pdb
     RDKit          3D

 25 25  0  0  1  0  0  0  0  0999 V2000
   20.5713  -12.6851  -16.2157 N   0  0  0  0  0  0  0  0  0  0  0  0
   19.9635  -13.9871  -16.3784 C   0  0  0  0  0  0  0  0  0  0  0  0
   19.1674  -13.8455  -17.6836 C   0  0  0  0  0  0  0  0  0  0  0  0
   20.1767  -13.1067  -18.5326 C   0  0  0  0  0  0  0  0  0  0  0  0
   20.7572  -12.1266  -17.5139 C   0  0  1  0  0  0  0  0  0  0  0  0
   20.0150  -10.8435  -17.7270 C   0  0  0  0  0  0  0  0  0  0  0  0
   20.1887  -10.1975  -18.7895 O   0  0  0  0  0  0  0  0  0  0  0  0
   19.1406  -10.4011  -16.7206 N   0  0  0  0  0  0  0  0  0  0  0  0
   18.3733   -9.1590  -16.8463 C   0  0  1  0  0  0  0  0  0  0  0  0
   16.9584   -9.4025  -16.4560 C   0  0  0  0  0  0  0  0  0  0  0  0
   16.1299  -10.1199  -17.4390 C   0  0  0  0  0  0  0  0  0  0  0  0
   16.0502   -9.6866  -18.6342 O   0  0  0  0  0  0  0  0  0  0  0  0
   19.0813   -8.1226  -16.0846 C   0  0  0  0  0  0  0  0  0  0  0  0
   19.8548   -8.4776  -15.1417 O   0  0  0  0  0  0  0  0  0  0  0  0
   15.4095  -11.2675  -17.1501 O   0  0  0  0  0  0  0  0  0  0  0  0
   21.9293   -6.4491  -13.2117 N   0  0  0  0  0  0  0  0  0  0  0  0
   22.2959   -5.2545  -13.8706 C   0  0  0  0  0  0  0  0  0  0  0  0
   22.6797   -4.2828  -13.1726 O   0  0  0  0  0  0  0  0  0  0  0  0
   22.2314   -5.1412  -15.3687 C   0  0  0  0  0  0  0  0  0  0  0  0
   21.2541   -6.1409  -15.9317 C   0  0  0  0  0  0  0  0  0  0  0  0
   19.8202   -5.7628  -15.6524 C   0  0  2  0  0  0  0  0  0  0  0  0
   18.9598   -6.7414  -16.3351 N   0  0  0  0  0  0  0  0  0  0  0  0
   19.5164   -4.3775  -16.0657 C   0  0  0  0  0  0  0  0  0  0  0  0
   19.6723   -3.4068  -15.2874 O   0  0  0  0  0  0  0  0  0  0  0  0
   19.0448   -4.1178  -17.3430 O   0  0  0  0  0  0  0  0  0  0  0  0
  1  5  1  0
  2  1  1  0
  3  4  1  0
  3  2  1  0
  4  5  1  0
  6  7  2  0
  5  6  1  1
  8  6  1  0
  9  8  1  0
  9 13  1  0
  9 10  1  1
 11 10  1  0
 11 15  1  0
 12 11  2  0
 13 14  2  0
 13 22  1  0
 16 17  1  0
 17 19  1  0
 18 17  2  0
 19 20  1  0
 21 20  1  6
 21 23  1  0
 22 21  1  0
 23 24  2  0
 23 25  1  0
M  END
$$$$
