PDQ.pdb
     RDKit          3D

 25 25  0  0  1  0  0  0  0  0999 V2000
   17.3885   -9.9350  -16.0903 N   0  0  0  0  0  0  0  0  0  0  0  0
   18.2504  -10.3066  -17.1902 C   0  0  0  0  0  0  0  0  0  0  0  0
   19.5182  -10.8163  -16.4899 C   0  0  0  0  0  0  0  0  0  0  0  0
   18.8989  -11.6460  -15.3884 C   0  0  0  0  0  0  0  0  0  0  0  0
   17.7242  -10.7593  -14.9769 C   0  0  1  0  0  0  0  0  0  0  0  0
   18.2031   -9.9909  -13.7842 C   0  0  0  0  0  0  0  0  0  0  0  0
   18.5804  -10.6108  -12.7596 O   0  0  0  0  0  0  0  0  0  0  0  0
   18.2140   -8.5878  -13.8522 N   0  0  0  0  0  0  0  0  0  0  0  0
   18.6806   -7.7578  -12.7383 C   0  0  1  0  0  0  0  0  0  0  0  0
   19.6274   -6.7274  -13.2438 C   0  0  0  0  0  0  0  0  0  0  0  0
   20.9184   -7.2255  -13.7465 C   0  0  0  0  0  0  0  0  0  0  0  0
   21.5808   -8.0692  -13.0595 O   0  0  0  0  0  0  0  0  0  0  0  0
   17.4945   -7.2520  -12.0362 C   0  0  0  0  0  0  0  0  0  0  0  0
   16.5842   -6.6764  -12.7096 O   0  0  0  0  0  0  0  0  0  0  0  0
   21.4820   -6.8319  -14.9493 O   0  0  0  0  0  0  0  0  0  0  0  0
   13.3519   -9.8135   -8.9080 N   0  0  0  0  0  0  0  0  0  0  0  0
   13.0326   -8.4826   -8.5583 C   0  0  0  0  0  0  0  0  0  0  0  0
   11.9606   -8.2705   -7.9380 O   0  0  0  0  0  0  0  0  0  0  0  0
   13.9470   -7.3436   -8.9156 C   0  0  0  0  0  0  0  0  0  0  0  0
   15.2143   -7.8622   -9.5453 C   0  0  0  0  0  0  0  0  0  0  0  0
   16.1330   -6.7498   -9.9879 C   0  0  2  0  0  0  0  0  0  0  0  0
   17.2951   -7.3664  -10.6461 N   0  0  0  0  0  0  0  0  0  0  0  0
   16.5332   -5.8754   -8.8666 C   0  0  0  0  0  0  0  0  0  0  0  0
   17.6608   -5.9686   -8.3263 O   0  0  0  0  0  0  0  0  0  0  0  0
   15.6561   -4.9184   -8.3806 O   0  0  0  0  0  0  0  0  0  0  0  0
  1  5  1  0
  2  1  1  0
  3  4  1  0
  3  2  1  0
  4  5  1  0
  6  7  2  0
  5  6  1  1
  8  6  1  0
  9  8  1  0
  9 13  1  0
  9 10  1  6
 11 10  1  0
 11 15  1  0
 12 11  2  0
 13 14  2  0
 13 22  1  0
 16 17  1  0
 17 19  1  0
 18 17  2  0
 19 20  1  0
 21 20  1  1
 21 23  1  0
 22 21  1  0
 23 24  2  0
 23 25  1  0
M  END
$$$$
