PDQ.pdb
     RDKit          3D

 25 25  0  0  1  0  0  0  0  0999 V2000
   21.4735  -10.6848  -16.3387 N   0  0  0  0  0  0  0  0  0  0  0  0
   20.7269  -11.9130  -16.4962 C   0  0  0  0  0  0  0  0  0  0  0  0
   19.3326  -11.4282  -16.9183 C   0  0  0  0  0  0  0  0  0  0  0  0
   19.7133  -10.3611  -17.9193 C   0  0  0  0  0  0  0  0  0  0  0  0
   20.9116   -9.7178  -17.2225 C   0  0  1  0  0  0  0  0  0  0  0  0
   20.3660   -8.5113  -16.5232 C   0  0  0  0  0  0  0  0  0  0  0  0
   19.7532   -7.6374  -17.1845 O   0  0  0  0  0  0  0  0  0  0  0  0
   20.5603   -8.3963  -15.1368 N   0  0  0  0  0  0  0  0  0  0  0  0
   20.0007   -7.2858  -14.3614 C   0  0  1  0  0  0  0  0  0  0  0  0
   19.7846   -7.7165  -12.9538 C   0  0  0  0  0  0  0  0  0  0  0  0
   18.5834   -8.5298  -12.7028 C   0  0  0  0  0  0  0  0  0  0  0  0
   17.6496   -8.5615  -13.5686 O   0  0  0  0  0  0  0  0  0  0  0  0
   20.8808   -6.1260  -14.5512 C   0  0  0  0  0  0  0  0  0  0  0  0
   22.0925   -6.3245  -14.8764 O   0  0  0  0  0  0  0  0  0  0  0  0
   18.3892   -9.2869  -11.5589 O   0  0  0  0  0  0  0  0  0  0  0  0
   23.9838   -4.5669  -17.4935 N   0  0  0  0  0  0  0  0  0  0  0  0
   23.5740   -3.2192  -17.6001 C   0  0  0  0  0  0  0  0  0  0  0  0
   24.3159   -2.4185  -18.2225 O   0  0  0  0  0  0  0  0  0  0  0  0
   22.2844   -2.7475  -16.9872 C   0  0  0  0  0  0  0  0  0  0  0  0
   21.5510   -3.8994  -16.3496 C   0  0  0  0  0  0  0  0  0  0  0  0
   21.2884   -3.6712  -14.8812 C   0  0  2  0  0  0  0  0  0  0  0  0
   20.4641   -4.7890  -14.3965 N   0  0  0  0  0  0  0  0  0  0  0  0
   20.6518   -2.3634  -14.6234 C   0  0  0  0  0  0  0  0  0  0  0  0
   19.4077   -2.2137  -14.6707 O   0  0  0  0  0  0  0  0  0  0  0  0
   21.4290   -1.2567  -14.3193 O   0  0  0  0  0  0  0  0  0  0  0  0
  1  5  1  0
  2  1  1  0
  3  4  1  0
  3  2  1  0
  4  5  1  0
  6  7  2  0
  5  6  1  1
  8  6  1  0
  9  8  1  0
  9 13  1  0
  9 10  1  1
 11 10  1  0
 11 15  1  0
 12 11  2  0
 13 14  2  0
 13 22  1  0
 16 17  1  0
 17 19  1  0
 18 17  2  0
 19 20  1  0
 21 20  1  6
 21 23  1  0
 22 21  1  0
 23 24  2  0
 23 25  1  0
M  END
$$$$
