PDQ.pdb
     RDKit          3D

 25 25  0  0  1  0  0  0  0  0999 V2000
   17.4653  -19.4135    3.5694 N   0  0  0  0  0  0  0  0  0  0  0  0
   16.5014  -20.4606    3.3136 C   0  0  0  0  0  0  0  0  0  0  0  0
   15.2575  -19.9922    4.0824 C   0  0  0  0  0  0  0  0  0  0  0  0
   15.2534  -18.5259    3.7145 C   0  0  0  0  0  0  0  0  0  0  0  0
   16.7453  -18.2015    3.7805 C   0  0  1  0  0  0  0  0  0  0  0  0
   16.9636  -17.6020    5.1352 C   0  0  0  0  0  0  0  0  0  0  0  0
   16.3713  -16.5389    5.4440 O   0  0  0  0  0  0  0  0  0  0  0  0
   17.8328  -18.2558    6.0242 N   0  0  0  0  0  0  0  0  0  0  0  0
   17.9732  -17.8409    7.4226 C   0  0  1  0  0  0  0  0  0  0  0  0
   18.1308  -19.0410    8.2878 C   0  0  0  0  0  0  0  0  0  0  0  0
   16.9187  -19.8489    8.5013 C   0  0  0  0  0  0  0  0  0  0  0  0
   15.8251  -19.2763    8.8151 O   0  0  0  0  0  0  0  0  0  0  0  0
   19.0602  -16.8559    7.4850 C   0  0  0  0  0  0  0  0  0  0  0  0
   20.1634  -17.1257    6.9162 O   0  0  0  0  0  0  0  0  0  0  0  0
   16.8798  -21.2285    8.3812 O   0  0  0  0  0  0  0  0  0  0  0  0
   19.4378  -11.3934    5.5818 N   0  0  0  0  0  0  0  0  0  0  0  0
   20.6330  -11.4040    6.3347 C   0  0  0  0  0  0  0  0  0  0  0  0
   21.4591  -10.4747    6.1539 O   0  0  0  0  0  0  0  0  0  0  0  0
   20.9163  -12.4958    7.3291 C   0  0  0  0  0  0  0  0  0  0  0  0
   19.8074  -13.5164    7.3222 C   0  0  0  0  0  0  0  0  0  0  0  0
   20.1046  -14.6940    8.2177 C   0  0  2  0  0  0  0  0  0  0  0  0
   18.9586  -15.6131    8.1410 N   0  0  0  0  0  0  0  0  0  0  0  0
   20.3899  -14.2821    9.6073 C   0  0  0  0  0  0  0  0  0  0  0  0
   19.4947  -14.2537   10.4847 O   0  0  0  0  0  0  0  0  0  0  0  0
   21.6739  -13.9122    9.9759 O   0  0  0  0  0  0  0  0  0  0  0  0
  1  5  1  0
  2  1  1  0
  3  4  1  0
  3  2  1  0
  4  5  1  0
  6  7  2  0
  5  6  1  1
  8  6  1  0
  9  8  1  0
  9 13  1  0
  9 10  1  1
 11 10  1  0
 11 15  1  0
 12 11  2  0
 13 14  2  0
 13 22  1  0
 16 17  1  0
 17 19  1  0
 18 17  2  0
 19 20  1  0
 21 20  1  6
 21 23  1  0
 22 21  1  0
 23 24  2  0
 23 25  1  0
M  END
$$$$
