PDQ.pdb
     RDKit          3D

 25 25  0  0  1  0  0  0  0  0999 V2000
   16.8892  -11.8226  -17.2003 N   0  0  0  0  0  0  0  0  0  0  0  0
   17.0975  -13.2515  -17.2743 C   0  0  0  0  0  0  0  0  0  0  0  0
   17.7647  -13.5822  -15.9315 C   0  0  0  0  0  0  0  0  0  0  0  0
   16.9150  -12.7486  -14.9995 C   0  0  0  0  0  0  0  0  0  0  0  0
   16.7319  -11.4765  -15.8264 C   0  0  1  0  0  0  0  0  0  0  0  0
   17.7712  -10.5220  -15.3253 C   0  0  0  0  0  0  0  0  0  0  0  0
   17.7163  -10.1146  -14.1389 O   0  0  0  0  0  0  0  0  0  0  0  0
   18.7829  -10.1099  -16.2085 N   0  0  0  0  0  0  0  0  0  0  0  0
   19.8686   -9.2200  -15.7881 C   0  0  1  0  0  0  0  0  0  0  0  0
   21.1799   -9.8781  -16.0356 C   0  0  0  0  0  0  0  0  0  0  0  0
   22.3722   -9.1253  -15.6126 C   0  0  0  0  0  0  0  0  0  0  0  0
   22.2382   -7.9719  -15.0889 O   0  0  0  0  0  0  0  0  0  0  0  0
   19.6627   -7.9267  -16.4518 C   0  0  0  0  0  0  0  0  0  0  0  0
   19.1468   -7.9101  -17.6124 O   0  0  0  0  0  0  0  0  0  0  0  0
   23.6688   -9.5948  -15.7458 O   0  0  0  0  0  0  0  0  0  0  0  0
   15.3565   -5.3019  -16.9254 N   0  0  0  0  0  0  0  0  0  0  0  0
   16.0939   -4.1935  -17.3980 C   0  0  0  0  0  0  0  0  0  0  0  0
   15.4663   -3.2432  -17.9289 O   0  0  0  0  0  0  0  0  0  0  0  0
   17.5916   -4.1449  -17.2724 C   0  0  0  0  0  0  0  0  0  0  0  0
   18.1094   -5.4116  -16.6411 C   0  0  0  0  0  0  0  0  0  0  0  0
   19.6131   -5.4177  -16.5149 C   0  0  2  0  0  0  0  0  0  0  0  0
   20.0022   -6.6854  -15.8780 N   0  0  0  0  0  0  0  0  0  0  0  0
   20.1164   -4.2472  -15.7674 C   0  0  0  0  0  0  0  0  0  0  0  0
   20.4607   -4.3298  -14.5646 O   0  0  0  0  0  0  0  0  0  0  0  0
   20.2200   -3.0132  -16.3904 O   0  0  0  0  0  0  0  0  0  0  0  0
  1  5  1  0
  2  1  1  0
  3  4  1  0
  3  2  1  0
  4  5  1  0
  6  7  2  0
  5  6  1  1
  8  6  1  0
  9  8  1  0
  9 13  1  0
  9 10  1  6
 11 10  1  0
 11 15  1  0
 12 11  2  0
 13 14  2  0
 13 22  1  0
 16 17  1  0
 17 19  1  0
 18 17  2  0
 19 20  1  0
 21 20  1  1
 21 23  1  0
 22 21  1  0
 23 24  2  0
 23 25  1  0
M  END
$$$$
