PDQ.pdb
     RDKit          3D

 25 25  0  0  1  0  0  0  0  0999 V2000
   18.8560  -12.6257  -18.9939 N   0  0  0  0  0  0  0  0  0  0  0  0
   19.6620  -13.5301  -19.7833 C   0  0  0  0  0  0  0  0  0  0  0  0
   20.7891  -13.9316  -18.8212 C   0  0  0  0  0  0  0  0  0  0  0  0
   19.9922  -14.1568  -17.5564 C   0  0  0  0  0  0  0  0  0  0  0  0
   18.9969  -12.9991  -17.6255 C   0  0  1  0  0  0  0  0  0  0  0  0
   19.5797  -11.9202  -16.7660 C   0  0  0  0  0  0  0  0  0  0  0  0
   19.8966  -12.1785  -15.5788 O   0  0  0  0  0  0  0  0  0  0  0  0
   19.7539  -10.6422  -17.3223 N   0  0  0  0  0  0  0  0  0  0  0  0
   20.3376   -9.5344  -16.5611 C   0  0  1  0  0  0  0  0  0  0  0  0
   21.3333   -8.8179  -17.4031 C   0  0  0  0  0  0  0  0  0  0  0  0
   22.6320   -9.4880  -17.5815 C   0  0  0  0  0  0  0  0  0  0  0  0
   23.0236  -10.3453  -16.7247 O   0  0  0  0  0  0  0  0  0  0  0  0
   19.2301   -8.7217  -16.0428 C   0  0  0  0  0  0  0  0  0  0  0  0
   18.2865   -8.4007  -16.8300 O   0  0  0  0  0  0  0  0  0  0  0  0
   23.4846   -9.2473  -18.6466 O   0  0  0  0  0  0  0  0  0  0  0  0
   16.9226   -9.1661  -10.5018 N   0  0  0  0  0  0  0  0  0  0  0  0
   16.5378   -9.8511  -11.6758 C   0  0  0  0  0  0  0  0  0  0  0  0
   15.9467  -10.9534  -11.5557 O   0  0  0  0  0  0  0  0  0  0  0  0
   16.8245   -9.2821  -13.0378 C   0  0  0  0  0  0  0  0  0  0  0  0
   17.5656   -7.9753  -12.9182 C   0  0  0  0  0  0  0  0  0  0  0  0
   18.0130   -7.4436  -14.2578 C   0  0  2  0  0  0  0  0  0  0  0  0
   19.1423   -8.2700  -14.7110 N   0  0  0  0  0  0  0  0  0  0  0  0
   18.3654   -6.0102  -14.2013 C   0  0  0  0  0  0  0  0  0  0  0  0
   19.5557   -5.6200  -14.2584 O   0  0  0  0  0  0  0  0  0  0  0  0
   17.3716   -5.0513  -14.0818 O   0  0  0  0  0  0  0  0  0  0  0  0
  1  5  1  0
  2  1  1  0
  3  4  1  0
  3  2  1  0
  4  5  1  0
  6  7  2  0
  5  6  1  1
  8  6  1  0
  9  8  1  0
  9 13  1  0
  9 10  1  6
 11 10  1  0
 11 15  1  0
 12 11  2  0
 13 14  2  0
 13 22  1  0
 16 17  1  0
 17 19  1  0
 18 17  2  0
 19 20  1  0
 21 20  1  1
 21 23  1  0
 22 21  1  0
 23 24  2  0
 23 25  1  0
M  END
$$$$
