HLL.pdb
     RDKit          3D

 27 27  0  0  1  0  0  0  0  0999 V2000
    8.7887  -17.3838   20.2125 N   0  0  0  0  0  0  0  0  0  0  0  0
    8.4921  -17.5864   21.6001 C   0  0  1  0  0  0  0  0  0  0  0  0
    9.3445  -18.7081   22.2013 C   0  0  0  0  0  0  0  0  0  0  0  0
    9.0449  -19.9589   21.4967 C   0  0  0  0  0  0  0  0  0  0  0  0
    7.8244  -20.5305   21.3164 C   0  0  0  0  0  0  0  0  0  0  0  0
    8.0456  -21.6676   20.6114 N   0  0  0  0  0  0  0  0  0  0  0  0
    9.3578  -21.8092   20.3555 C   0  0  0  0  0  0  0  0  0  0  0  0
    9.9817  -20.7508   20.9033 N   0  0  0  0  0  0  0  0  0  0  0  0
    8.8156  -16.3610   22.3486 C   0  0  0  0  0  0  0  0  0  0  0  0
    9.8372  -15.6761   22.0369 O   0  0  0  0  0  0  0  0  0  0  0  0
    7.4264  -11.7598   24.7796 C   0  0  0  0  0  0  0  0  0  0  0  0
    7.2764  -12.9924   25.6460 C   0  0  1  0  0  0  0  0  0  0  0  0
    5.9971  -12.7750   26.4460 C   0  0  0  0  0  0  0  0  0  0  0  0
    7.1034  -14.2381   24.8631 C   0  0  0  0  0  0  0  0  0  0  0  0
    8.2809  -14.6905   24.0711 C   0  0  2  0  0  0  0  0  0  0  0  0
    7.9732  -15.9595   23.4172 N   0  0  0  0  0  0  0  0  0  0  0  0
    9.4518  -14.9343   24.9743 C   0  0  0  0  0  0  0  0  0  0  0  0
   10.4290  -14.1492   24.9909 O   0  0  0  0  0  0  0  0  0  0  0  0
    9.4298  -14.4550   29.9122 C   0  0  0  0  0  0  0  0  0  0  0  0
    9.7123  -14.5396   28.3634 C   0  0  1  0  0  0  0  0  0  0  0  0
   10.7629  -13.4550   28.1431 C   0  0  0  0  0  0  0  0  0  0  0  0
   10.2816  -15.8783   28.0983 C   0  0  0  0  0  0  0  0  0  0  0  0
   10.6850  -16.2126   26.7242 C   0  0  2  0  0  0  0  0  0  0  0  0
    9.4940  -16.0531   25.8344 N   0  0  0  0  0  0  0  0  0  0  0  0
   11.2322  -17.5246   26.4007 C   0  0  0  0  0  0  0  0  0  0  0  0
   10.5733  -18.3393   25.6435 O   0  0  0  0  0  0  0  0  0  0  0  0
   12.4447  -18.0576   26.8095 O   0  0  0  0  0  0  0  0  0  0  0  0
  2  1  1  6
  2  9  1  0
  2  3  1  0
  3  4  1  0
  4  8  1  0
  4  5  2  0
  5  6  1  0
  7  6  1  0
  8  7  2  0
  9 10  2  0
 12 14  1  0
 12 11  1  6
 13 12  1  0
 15 14  1  1
 15 16  1  0
 16  9  1  0
 17 15  1  0
 18 17  2  0
 20 22  1  0
 20 19  1  1
 21 20  1  0
 23 22  1  1
 23 25  1  0
 23 24  1  0
 24 17  1  0
 25 27  1  0
 26 25  2  0
M  END
$$$$
