HLL.pdb
     RDKit          3D

 27 27  0  0  1  0  0  0  0  0999 V2000
   12.0759  -17.2808   18.5979 N   0  0  0  0  0  0  0  0  0  0  0  0
   11.4136  -17.8628   19.7279 C   0  0  1  0  0  0  0  0  0  0  0  0
   12.3104  -18.8739   20.4487 C   0  0  0  0  0  0  0  0  0  0  0  0
   12.4276  -20.0775   19.6190 C   0  0  0  0  0  0  0  0  0  0  0  0
   11.5171  -21.0788   19.4874 C   0  0  0  0  0  0  0  0  0  0  0  0
   12.0626  -21.9674   18.6204 N   0  0  0  0  0  0  0  0  0  0  0  0
   13.2734  -21.5431   18.2189 C   0  0  0  0  0  0  0  0  0  0  0  0
   13.5039  -20.3704   18.8363 N   0  0  0  0  0  0  0  0  0  0  0  0
   11.0989  -16.8055   20.7024 C   0  0  0  0  0  0  0  0  0  0  0  0
   11.9660  -15.9240   20.9869 O   0  0  0  0  0  0  0  0  0  0  0  0
    6.1140  -14.4816   20.6196 C   0  0  0  0  0  0  0  0  0  0  0  0
    7.6073  -14.7169   20.7025 C   0  0  1  0  0  0  0  0  0  0  0  0
    8.2435  -13.3347   20.6100 C   0  0  0  0  0  0  0  0  0  0  0  0
    8.0330  -15.3157   21.9889 C   0  0  0  0  0  0  0  0  0  0  0  0
    9.4841  -15.6212   22.1283 C   0  0  2  0  0  0  0  0  0  0  0  0
    9.8195  -16.7870   21.3153 N   0  0  0  0  0  0  0  0  0  0  0  0
    9.8074  -15.9692   23.5498 C   0  0  0  0  0  0  0  0  0  0  0  0
   10.1116  -17.1413   23.8745 O   0  0  0  0  0  0  0  0  0  0  0  0
   10.6181  -12.9115   28.8468 C   0  0  0  0  0  0  0  0  0  0  0  0
   10.6004  -14.3570   28.2175 C   0  0  1  0  0  0  0  0  0  0  0  0
    9.5102  -15.0683   29.0139 C   0  0  0  0  0  0  0  0  0  0  0  0
   10.1996  -14.2096   26.8019 C   0  0  0  0  0  0  0  0  0  0  0  0
   10.1449  -15.4116   25.9565 C   0  0  2  0  0  0  0  0  0  0  0  0
    9.7806  -14.9919   24.5684 N   0  0  0  0  0  0  0  0  0  0  0  0
    9.2423  -16.5118   26.2735 C   0  0  0  0  0  0  0  0  0  0  0  0
    9.6566  -17.5165   26.9734 O   0  0  0  0  0  0  0  0  0  0  0  0
    7.9096  -16.6403   25.9146 O   0  0  0  0  0  0  0  0  0  0  0  0
  2  1  1  6
  2  9  1  0
  2  3  1  0
  3  4  1  0
  4  8  1  0
  4  5  2  0
  5  6  1  0
  7  6  1  0
  8  7  2  0
  9 10  2  0
 12 14  1  0
 12 11  1  1
 13 12  1  0
 15 14  1  1
 15 16  1  0
 16  9  1  0
 17 15  1  0
 18 17  2  0
 20 22  1  0
 20 19  1  1
 21 20  1  0
 23 22  1  1
 23 25  1  0
 23 24  1  0
 24 17  1  0
 25 27  1  0
 26 25  2  0
M  END
$$$$
