HLL.pdb
     RDKit          3D

 27 27  0  0  1  0  0  0  0  0999 V2000
   10.0469  -19.9551   20.9917 N   0  0  0  0  0  0  0  0  0  0  0  0
    9.0512  -19.2440   21.7381 C   0  0  1  0  0  0  0  0  0  0  0  0
    8.9773  -19.7322   23.1881 C   0  0  0  0  0  0  0  0  0  0  0  0
    8.4800  -21.1118   23.1976 C   0  0  0  0  0  0  0  0  0  0  0  0
    8.1775  -21.8855   22.1212 C   0  0  0  0  0  0  0  0  0  0  0  0
    7.7597  -23.0744   22.6220 N   0  0  0  0  0  0  0  0  0  0  0  0
    7.7968  -23.0527   23.9657 C   0  0  0  0  0  0  0  0  0  0  0  0
    8.2433  -21.8364   24.3272 N   0  0  0  0  0  0  0  0  0  0  0  0
    9.4109  -17.8176   21.7892 C   0  0  0  0  0  0  0  0  0  0  0  0
   10.6304  -17.4680   21.7725 O   0  0  0  0  0  0  0  0  0  0  0  0
    8.6759  -12.8716   19.7898 C   0  0  0  0  0  0  0  0  0  0  0  0
    7.9054  -13.1861   21.0547 C   0  0  1  0  0  0  0  0  0  0  0  0
    6.5538  -12.5007   20.8896 C   0  0  0  0  0  0  0  0  0  0  0  0
    7.6490  -14.6337   21.2367 C   0  0  0  0  0  0  0  0  0  0  0  0
    8.7770  -15.4424   21.7772 C   0  0  2  0  0  0  0  0  0  0  0  0
    8.3799  -16.8454   21.8570 N   0  0  0  0  0  0  0  0  0  0  0  0
    9.1124  -15.0009   23.1696 C   0  0  0  0  0  0  0  0  0  0  0  0
    9.7296  -13.9295   23.3764 O   0  0  0  0  0  0  0  0  0  0  0  0
    5.8824  -12.9150   26.2915 C   0  0  0  0  0  0  0  0  0  0  0  0
    7.3066  -13.2310   25.6935 C   0  0  1  0  0  0  0  0  0  0  0  0
    8.2118  -12.2314   26.4076 C   0  0  0  0  0  0  0  0  0  0  0  0
    7.6457  -14.6152   26.0877 C   0  0  0  0  0  0  0  0  0  0  0  0
    8.9325  -15.1769   25.6503 C   0  0  2  0  0  0  0  0  0  0  0  0
    8.7456  -15.7743   24.2925 N   0  0  0  0  0  0  0  0  0  0  0  0
    9.6069  -16.2060   26.4322 C   0  0  0  0  0  0  0  0  0  0  0  0
    9.5350  -17.4475   26.0794 O   0  0  0  0  0  0  0  0  0  0  0  0
   10.3741  -16.0317   27.5736 O   0  0  0  0  0  0  0  0  0  0  0  0
  2  1  1  6
  2  9  1  0
  2  3  1  0
  3  4  1  0
  4  8  1  0
  4  5  2  0
  5  6  1  0
  7  6  1  0
  8  7  2  0
  9 10  2  0
 12 14  1  0
 12 11  1  6
 13 12  1  0
 15 14  1  1
 15 16  1  0
 16  9  1  0
 17 15  1  0
 18 17  2  0
 20 22  1  0
 20 19  1  1
 21 20  1  0
 23 22  1  1
 23 25  1  0
 23 24  1  0
 24 17  1  0
 25 27  1  0
 26 25  2  0
M  END
$$$$
