HLL.pdb
     RDKit          3D

 27 27  0  0  1  0  0  0  0  0999 V2000
    8.7695  -18.5946   21.0200 N   0  0  0  0  0  0  0  0  0  0  0  0
   10.1321  -18.1531   20.9678 C   0  0  1  0  0  0  0  0  0  0  0  0
   10.7069  -18.2627   19.5523 C   0  0  0  0  0  0  0  0  0  0  0  0
   11.2335  -19.6178   19.3596 C   0  0  0  0  0  0  0  0  0  0  0  0
   10.6065  -20.7921   19.6369 C   0  0  0  0  0  0  0  0  0  0  0  0
   11.4803  -21.7712   19.2953 N   0  0  0  0  0  0  0  0  0  0  0  0
   12.6177  -21.2352   18.8195 C   0  0  0  0  0  0  0  0  0  0  0  0
   12.4688  -19.8989   18.8577 N   0  0  0  0  0  0  0  0  0  0  0  0
   10.1951  -16.7309   21.3417 C   0  0  0  0  0  0  0  0  0  0  0  0
   11.3099  -16.1252   21.3545 O   0  0  0  0  0  0  0  0  0  0  0  0
    6.3493  -13.1718   19.7675 C   0  0  0  0  0  0  0  0  0  0  0  0
    7.6613  -13.8325   20.1342 C   0  0  1  0  0  0  0  0  0  0  0  0
    8.7469  -12.9305   19.5583 C   0  0  0  0  0  0  0  0  0  0  0  0
    7.8839  -13.9157   21.5965 C   0  0  0  0  0  0  0  0  0  0  0  0
    9.1085  -14.6388   22.0391 C   0  0  2  0  0  0  0  0  0  0  0  0
    8.9980  -16.0514   21.6854 N   0  0  0  0  0  0  0  0  0  0  0  0
    9.2429  -14.5685   23.5301 C   0  0  0  0  0  0  0  0  0  0  0  0
    9.7343  -13.5588   24.0873 O   0  0  0  0  0  0  0  0  0  0  0  0
    6.1067  -12.8249   26.4960 C   0  0  0  0  0  0  0  0  0  0  0  0
    7.5331  -13.2801   26.0020 C   0  0  1  0  0  0  0  0  0  0  0  0
    8.4791  -12.5192   26.9266 C   0  0  0  0  0  0  0  0  0  0  0  0
    7.6309  -14.7362   26.2399 C   0  0  0  0  0  0  0  0  0  0  0  0
    8.8606  -15.4347   25.8367 C   0  0  2  0  0  0  0  0  0  0  0  0
    8.8220  -15.6339   24.3554 N   0  0  0  0  0  0  0  0  0  0  0  0
    9.1981  -16.7404   26.3904 C   0  0  0  0  0  0  0  0  0  0  0  0
    9.2183  -17.7869   25.6318 O   0  0  0  0  0  0  0  0  0  0  0  0
    9.5315  -17.0405   27.7020 O   0  0  0  0  0  0  0  0  0  0  0  0
  2  1  1  6
  2  9  1  0
  2  3  1  0
  3  4  1  0
  4  8  1  0
  4  5  2  0
  5  6  1  0
  7  6  1  0
  8  7  2  0
  9 10  2  0
 12 14  1  0
 12 11  1  1
 13 12  1  0
 15 14  1  1
 15 16  1  0
 16  9  1  0
 17 15  1  0
 18 17  2  0
 20 22  1  0
 20 19  1  1
 21 20  1  0
 23 22  1  1
 23 25  1  0
 23 24  1  0
 24 17  1  0
 25 27  1  0
 26 25  2  0
M  END
$$$$
