HLL.pdb
     RDKit          3D

 27 27  0  0  1  0  0  0  0  0999 V2000
   10.2915  -18.7412   20.2465 N   0  0  0  0  0  0  0  0  0  0  0  0
   11.4923  -17.9641   20.3392 C   0  0  1  0  0  0  0  0  0  0  0  0
   12.0547  -17.6272   18.9549 C   0  0  0  0  0  0  0  0  0  0  0  0
   12.4516  -18.8727   18.2900 C   0  0  0  0  0  0  0  0  0  0  0  0
   13.6546  -19.5016   18.3697 C   0  0  0  0  0  0  0  0  0  0  0  0
   13.5501  -20.6066   17.5906 N   0  0  0  0  0  0  0  0  0  0  0  0
   12.3260  -20.6734   17.0389 C   0  0  0  0  0  0  0  0  0  0  0  0
   11.6409  -19.5992   17.4703 N   0  0  0  0  0  0  0  0  0  0  0  0
   11.1902  -16.6825   20.9970 C   0  0  0  0  0  0  0  0  0  0  0  0
   12.1079  -15.8231   21.1677 O   0  0  0  0  0  0  0  0  0  0  0  0
    6.1699  -14.2070   21.0034 C   0  0  0  0  0  0  0  0  0  0  0  0
    7.6714  -14.4007   20.9814 C   0  0  1  0  0  0  0  0  0  0  0  0
    8.2570  -13.0172   20.7225 C   0  0  0  0  0  0  0  0  0  0  0  0
    8.2169  -14.8783   22.2732 C   0  0  0  0  0  0  0  0  0  0  0  0
    9.6581  -15.2542   22.2841 C   0  0  2  0  0  0  0  0  0  0  0  0
    9.8657  -16.4240   21.4348 N   0  0  0  0  0  0  0  0  0  0  0  0
   10.0850  -15.6358   23.6692 C   0  0  0  0  0  0  0  0  0  0  0  0
   11.2900  -15.8557   23.9359 O   0  0  0  0  0  0  0  0  0  0  0  0
   11.2208  -14.0137   28.2243 C   0  0  0  0  0  0  0  0  0  0  0  0
    9.6555  -14.1734   28.1249 C   0  0  1  0  0  0  0  0  0  0  0  0
    9.1390  -12.8069   28.5659 C   0  0  0  0  0  0  0  0  0  0  0  0
    9.3334  -14.4182   26.7026 C   0  0  0  0  0  0  0  0  0  0  0  0
    9.6553  -15.7310   26.1234 C   0  0  2  0  0  0  0  0  0  0  0  0
    9.1474  -15.7600   24.7174 N   0  0  0  0  0  0  0  0  0  0  0  0
    9.1652  -16.9611   26.7334 C   0  0  0  0  0  0  0  0  0  0  0  0
    7.9886  -17.4112   26.4432 O   0  0  0  0  0  0  0  0  0  0  0  0
    9.8283  -17.7783   27.6356 O   0  0  0  0  0  0  0  0  0  0  0  0
  2  1  1  6
  2  9  1  0
  2  3  1  0
  3  4  1  0
  4  8  1  0
  4  5  2  0
  5  6  1  0
  7  6  1  0
  8  7  2  0
  9 10  2  0
 12 14  1  0
 12 11  1  1
 13 12  1  0
 15 14  1  1
 15 16  1  0
 16  9  1  0
 17 15  1  0
 18 17  2  0
 20 22  1  0
 20 19  1  6
 21 20  1  0
 23 22  1  1
 23 25  1  0
 23 24  1  0
 24 17  1  0
 25 27  1  0
 26 25  2  0
M  END
$$$$
