HLL.pdb
     RDKit          3D

 27 27  0  0  1  0  0  0  0  0999 V2000
    9.7050  -19.3852   20.1677 N   0  0  0  0  0  0  0  0  0  0  0  0
    8.7076  -18.6041   20.8381 C   0  0  1  0  0  0  0  0  0  0  0  0
    8.2075  -19.2978   22.1088 C   0  0  0  0  0  0  0  0  0  0  0  0
    7.4658  -20.5043   21.7280 C   0  0  0  0  0  0  0  0  0  0  0  0
    7.1986  -20.9437   20.4692 C   0  0  0  0  0  0  0  0  0  0  0  0
    6.4917  -22.0914   20.6170 N   0  0  0  0  0  0  0  0  0  0  0  0
    6.3187  -22.3672   21.9214 C   0  0  0  0  0  0  0  0  0  0  0  0
    6.9217  -21.3846   22.6145 N   0  0  0  0  0  0  0  0  0  0  0  0
    9.2977  -17.3231   21.2591 C   0  0  0  0  0  0  0  0  0  0  0  0
   10.5480  -17.2323   21.4548 O   0  0  0  0  0  0  0  0  0  0  0  0
    6.5962  -12.8110   19.6807 C   0  0  0  0  0  0  0  0  0  0  0  0
    7.6622  -13.8527   19.9471 C   0  0  1  0  0  0  0  0  0  0  0  0
    8.8111  -13.5101   19.0057 C   0  0  0  0  0  0  0  0  0  0  0  0
    8.1924  -13.8043   21.3295 C   0  0  0  0  0  0  0  0  0  0  0  0
    9.0951  -14.9189   21.7311 C   0  0  2  0  0  0  0  0  0  0  0  0
    8.4528  -16.1981   21.4417 N   0  0  0  0  0  0  0  0  0  0  0  0
    9.3462  -14.8777   23.2081 C   0  0  0  0  0  0  0  0  0  0  0  0
   10.3010  -14.2183   23.6826 O   0  0  0  0  0  0  0  0  0  0  0  0
    5.9785  -12.7247   26.2718 C   0  0  0  0  0  0  0  0  0  0  0  0
    7.3482  -13.2066   25.6573 C   0  0  1  0  0  0  0  0  0  0  0  0
    8.3691  -12.2902   26.3256 C   0  0  0  0  0  0  0  0  0  0  0  0
    7.5470  -14.6080   26.0851 C   0  0  0  0  0  0  0  0  0  0  0  0
    8.7157  -15.3409   25.5755 C   0  0  2  0  0  0  0  0  0  0  0  0
    8.5185  -15.5779   24.1125 N   0  0  0  0  0  0  0  0  0  0  0  0
    9.0872  -16.6381   26.1272 C   0  0  0  0  0  0  0  0  0  0  0  0
    9.2007  -16.7970   27.4051 O   0  0  0  0  0  0  0  0  0  0  0  0
    9.3461  -17.8086   25.4311 O   0  0  0  0  0  0  0  0  0  0  0  0
  2  1  1  1
  2  9  1  0
  2  3  1  0
  3  4  1  0
  4  8  1  0
  4  5  2  0
  5  6  1  0
  7  6  1  0
  8  7  2  0
  9 10  2  0
 12 14  1  0
 12 11  1  1
 13 12  1  0
 15 14  1  1
 15 16  1  0
 16  9  1  0
 17 15  1  0
 18 17  2  0
 20 22  1  0
 20 19  1  1
 21 20  1  0
 23 22  1  1
 23 25  1  0
 23 24  1  0
 24 17  1  0
 25 27  1  0
 26 25  2  0
M  END
$$$$
