HLL.pdb
     RDKit          3D

 27 27  0  0  1  0  0  0  0  0999 V2000
    9.7775  -17.3853   20.2175 N   0  0  0  0  0  0  0  0  0  0  0  0
    9.1201  -17.6509   21.4631 C   0  0  1  0  0  0  0  0  0  0  0  0
    9.7529  -18.8396   22.1929 C   0  0  0  0  0  0  0  0  0  0  0  0
    9.4896  -20.0606   21.4245 C   0  0  0  0  0  0  0  0  0  0  0  0
    8.8354  -20.1611   20.2367 C   0  0  0  0  0  0  0  0  0  0  0  0
    8.8392  -21.4794   19.9190 N   0  0  0  0  0  0  0  0  0  0  0  0
    9.4727  -22.1860   20.8712 C   0  0  0  0  0  0  0  0  0  0  0  0
    9.8780  -21.3094   21.8075 N   0  0  0  0  0  0  0  0  0  0  0  0
    9.2679  -16.4835   22.3474 C   0  0  0  0  0  0  0  0  0  0  0  0
   10.3216  -15.7784   22.2994 O   0  0  0  0  0  0  0  0  0  0  0  0
    7.3193  -12.1285   24.7859 C   0  0  0  0  0  0  0  0  0  0  0  0
    7.0899  -13.4040   25.5688 C   0  0  1  0  0  0  0  0  0  0  0  0
    5.6933  -13.2706   26.1650 C   0  0  0  0  0  0  0  0  0  0  0  0
    7.0955  -14.6183   24.7202 C   0  0  0  0  0  0  0  0  0  0  0  0
    8.3895  -14.9638   24.0686 C   0  0  2  0  0  0  0  0  0  0  0  0
    8.2210  -16.1605   23.2487 N   0  0  0  0  0  0  0  0  0  0  0  0
    9.4240  -15.2836   25.1050 C   0  0  0  0  0  0  0  0  0  0  0  0
   10.4713  -14.6017   25.2039 O   0  0  0  0  0  0  0  0  0  0  0  0
    8.4505  -14.1525   29.6142 C   0  0  0  0  0  0  0  0  0  0  0  0
    9.2590  -14.4578   28.2956 C   0  0  1  0  0  0  0  0  0  0  0  0
   10.5020  -13.5846   28.4412 C   0  0  0  0  0  0  0  0  0  0  0  0
    9.6218  -15.8909   28.3305 C   0  0  0  0  0  0  0  0  0  0  0  0
   10.2244  -16.4943   27.1324 C   0  0  2  0  0  0  0  0  0  0  0  0
    9.2546  -16.3604   26.0023 N   0  0  0  0  0  0  0  0  0  0  0  0
   10.6343  -17.8933   27.1219 C   0  0  0  0  0  0  0  0  0  0  0  0
   10.0188  -18.7495   26.3742 O   0  0  0  0  0  0  0  0  0  0  0  0
   11.6658  -18.4760   27.8417 O   0  0  0  0  0  0  0  0  0  0  0  0
  2  1  1  6
  2  9  1  0
  2  3  1  0
  3  4  1  0
  4  8  1  0
  4  5  2  0
  5  6  1  0
  7  6  1  0
  8  7  2  0
  9 10  2  0
 12 14  1  0
 12 11  1  6
 13 12  1  0
 15 14  1  1
 15 16  1  0
 16  9  1  0
 17 15  1  0
 18 17  2  0
 20 22  1  0
 20 19  1  1
 21 20  1  0
 23 22  1  1
 23 25  1  0
 23 24  1  0
 24 17  1  0
 25 27  1  0
 26 25  2  0
M  END
$$$$
