FNA.pdb
     RDKit          3D

 25 25  0  0  1  0  0  0  0  0999 V2000
    6.4742  -16.2015   22.3799 N   0  0  0  0  0  0  0  0  0  0  0  0
    7.1977  -15.7376   23.5129 C   0  0  1  0  0  0  0  0  0  0  0  0
    6.2116  -15.4199   24.6155 C   0  0  0  0  0  0  0  0  0  0  0  0
    6.5846  -14.1944   25.3357 C   0  0  0  0  0  0  0  0  0  0  0  0
    5.7890  -13.7222   26.3563 C   0  0  0  0  0  0  0  0  0  0  0  0
    6.1437  -12.5749   27.0262 C   0  0  0  0  0  0  0  0  0  0  0  0
    7.2963  -11.9286   26.6498 C   0  0  0  0  0  0  0  0  0  0  0  0
    8.1052  -12.3923   25.6258 C   0  0  0  0  0  0  0  0  0  0  0  0
    7.7469  -13.5435   24.9556 C   0  0  0  0  0  0  0  0  0  0  0  0
    8.2924  -16.5998   23.9530 C   0  0  0  0  0  0  0  0  0  0  0  0
    8.0290  -17.7863   24.2790 O   0  0  0  0  0  0  0  0  0  0  0  0
   12.6492  -15.6853   21.8261 N   0  0  0  0  0  0  0  0  0  0  0  0
   12.3176  -16.8140   22.6123 C   0  0  0  0  0  0  0  0  0  0  0  0
   12.2412  -17.9208   22.0243 O   0  0  0  0  0  0  0  0  0  0  0  0
   12.0865  -16.6197   24.0509 C   0  0  0  0  0  0  0  0  0  0  0  0
   10.7228  -17.0078   24.5112 C   0  0  2  0  0  0  0  0  0  0  0  0
    9.6493  -16.2191   24.0496 N   0  0  0  0  0  0  0  0  0  0  0  0
   10.7031  -17.0886   25.9884 C   0  0  0  0  0  0  0  0  0  0  0  0
   10.8881  -16.1014   26.7402 O   0  0  0  0  0  0  0  0  0  0  0  0
    9.6581  -19.8660   28.2528 C   0  0  0  0  0  0  0  0  0  0  0  0
   10.3793  -18.5457   28.0259 C   0  0  2  0  0  0  0  0  0  0  0  0
   10.4632  -18.3435   26.5987 N   0  0  0  0  0  0  0  0  0  0  0  0
   11.7535  -18.6475   28.5749 C   0  0  0  0  0  0  0  0  0  0  0  0
   12.0268  -18.5874   29.9327 O   0  0  0  0  0  0  0  0  0  0  0  0
   12.7511  -18.7965   27.8092 O   0  0  0  0  0  0  0  0  0  0  0  0
  2  1  1  6
  2 10  1  0
  3  2  1  0
  4  3  1  0
  5  4  2  0
  6  5  1  0
  7  6  2  0
  7  8  1  0
  8  9  2  0
  9  4  1  0
 10 11  2  0
 10 17  1  0
 13 12  1  0
 14 13  2  0
 15 13  1  0
 16 15  1  1
 17 16  1  0
 18 22  1  0
 18 16  1  0
 19 18  2  0
 21 20  1  6
 21 23  1  0
 21 22  1  0
 23 24  1  0
 25 23  2  0
M  END
$$$$
