FNA.pdb
     RDKit          3D

 25 25  0  0  1  0  0  0  0  0999 V2000
    6.2472  -16.5776   25.4377 N   0  0  0  0  0  0  0  0  0  0  0  0
    7.0950  -15.6007   24.8467 C   0  0  1  0  0  0  0  0  0  0  0  0
    7.9330  -14.9692   25.9367 C   0  0  0  0  0  0  0  0  0  0  0  0
    7.3518  -13.7001   26.3964 C   0  0  0  0  0  0  0  0  0  0  0  0
    8.0269  -12.9205   27.3098 C   0  0  0  0  0  0  0  0  0  0  0  0
    7.4775  -11.7341   27.7359 C   0  0  0  0  0  0  0  0  0  0  0  0
    6.2562  -11.3605   27.2291 C   0  0  0  0  0  0  0  0  0  0  0  0
    5.5669  -12.1345   26.3106 C   0  0  0  0  0  0  0  0  0  0  0  0
    6.1205  -13.3242   25.8850 C   0  0  0  0  0  0  0  0  0  0  0  0
    7.8873  -16.0644   23.7098 C   0  0  0  0  0  0  0  0  0  0  0  0
    8.3455  -17.2360   23.7345 O   0  0  0  0  0  0  0  0  0  0  0  0
    7.3211  -13.3187   19.4501 N   0  0  0  0  0  0  0  0  0  0  0  0
    7.8052  -14.6234   19.7060 C   0  0  0  0  0  0  0  0  0  0  0  0
    7.0678  -15.5845   19.3756 O   0  0  0  0  0  0  0  0  0  0  0  0
    9.1257  -14.7675   20.3353 C   0  0  0  0  0  0  0  0  0  0  0  0
    9.1335  -15.6226   21.5564 C   0  0  2  0  0  0  0  0  0  0  0  0
    8.1949  -15.3046   22.5591 N   0  0  0  0  0  0  0  0  0  0  0  0
   10.4990  -15.6619   22.1247 C   0  0  0  0  0  0  0  0  0  0  0  0
   11.0714  -14.6645   22.6261 O   0  0  0  0  0  0  0  0  0  0  0  0
   12.3548  -16.8671   24.2023 C   0  0  0  0  0  0  0  0  0  0  0  0
   12.5103  -17.0758   22.7033 C   0  0  2  0  0  0  0  0  0  0  0  0
   11.2088  -16.8870   22.1074 N   0  0  0  0  0  0  0  0  0  0  0  0
   12.9509  -18.4703   22.4549 C   0  0  0  0  0  0  0  0  0  0  0  0
   12.0852  -19.4687   22.0357 O   0  0  0  0  0  0  0  0  0  0  0  0
   14.1596  -18.8103   22.6194 O   0  0  0  0  0  0  0  0  0  0  0  0
  2  1  1  1
  2 10  1  0
  3  2  1  0
  4  3  1  0
  5  4  2  0
  6  5  1  0
  7  6  2  0
  7  8  1  0
  8  9  2  0
  9  4  1  0
 10 11  2  0
 10 17  1  0
 13 12  1  0
 14 13  2  0
 15 13  1  0
 16 15  1  6
 17 16  1  0
 18 22  1  0
 18 16  1  0
 19 18  2  0
 21 20  1  1
 21 23  1  0
 21 22  1  0
 23 24  1  0
 25 23  2  0
M  END
$$$$
