FNA.pdb
     RDKit          3D

 25 25  0  0  1  0  0  0  0  0999 V2000
    5.8507  -17.2916   25.3704 N   0  0  0  0  0  0  0  0  0  0  0  0
    6.4569  -16.0844   24.9260 C   0  0  1  0  0  0  0  0  0  0  0  0
    7.5402  -15.7004   25.9101 C   0  0  0  0  0  0  0  0  0  0  0  0
    7.3895  -14.3101   26.3620 C   0  0  0  0  0  0  0  0  0  0  0  0
    8.4265  -13.6776   27.0120 C   0  0  0  0  0  0  0  0  0  0  0  0
    8.2791  -12.3766   27.4323 C   0  0  0  0  0  0  0  0  0  0  0  0
    7.0855  -11.7420   27.1864 C   0  0  0  0  0  0  0  0  0  0  0  0
    6.0351  -12.3659   26.5342 C   0  0  0  0  0  0  0  0  0  0  0  0
    6.1858  -13.6710   26.1137 C   0  0  0  0  0  0  0  0  0  0  0  0
    6.9169  -16.0881   23.5390 C   0  0  0  0  0  0  0  0  0  0  0  0
    6.9991  -17.1895   22.9361 O   0  0  0  0  0  0  0  0  0  0  0  0
    8.5704  -12.6611   18.7495 N   0  0  0  0  0  0  0  0  0  0  0  0
    7.7781  -13.7129   19.2671 C   0  0  0  0  0  0  0  0  0  0  0  0
    7.4512  -14.6295   18.4736 O   0  0  0  0  0  0  0  0  0  0  0  0
    7.3931  -13.6648   20.6849 C   0  0  0  0  0  0  0  0  0  0  0  0
    7.7022  -14.9081   21.4471 C   0  0  2  0  0  0  0  0  0  0  0  0
    7.2864  -14.9463   22.7937 N   0  0  0  0  0  0  0  0  0  0  0  0
    9.1486  -15.2034   21.3474 C   0  0  0  0  0  0  0  0  0  0  0  0
    9.7679  -15.2807   20.2591 O   0  0  0  0  0  0  0  0  0  0  0  0
   11.8808  -15.0799   23.8066 C   0  0  0  0  0  0  0  0  0  0  0  0
   11.2890  -15.7460   22.5734 C   0  0  2  0  0  0  0  0  0  0  0  0
    9.8848  -15.4122   22.5387 N   0  0  0  0  0  0  0  0  0  0  0  0
   11.4264  -17.2168   22.7084 C   0  0  0  0  0  0  0  0  0  0  0  0
   12.6544  -17.8603   22.7073 O   0  0  0  0  0  0  0  0  0  0  0  0
   10.4067  -17.9573   22.8324 O   0  0  0  0  0  0  0  0  0  0  0  0
  2  1  1  1
  2 10  1  0
  3  2  1  0
  4  3  1  0
  5  4  2  0
  6  5  1  0
  7  6  2  0
  7  8  1  0
  8  9  2  0
  9  4  1  0
 10 11  2  0
 10 17  1  0
 13 12  1  0
 14 13  2  0
 15 13  1  0
 16 15  1  1
 17 16  1  0
 18 22  1  0
 18 16  1  0
 19 18  2  0
 21 20  1  1
 21 23  1  0
 21 22  1  0
 23 24  1  0
 25 23  2  0
M  END
$$$$
