FNA.pdb
     RDKit          3D

 25 25  0  0  1  0  0  0  0  0999 V2000
    6.0444  -16.5982   25.3114 N   0  0  0  0  0  0  0  0  0  0  0  0
    7.0129  -16.2467   24.3312 C   0  0  1  0  0  0  0  0  0  0  0  0
    6.8397  -14.7833   23.9880 C   0  0  0  0  0  0  0  0  0  0  0  0
    6.8988  -13.9376   25.1885 C   0  0  0  0  0  0  0  0  0  0  0  0
    8.0770  -13.3158   25.5395 C   0  0  0  0  0  0  0  0  0  0  0  0
    8.1256  -12.5258   26.6640 C   0  0  0  0  0  0  0  0  0  0  0  0
    6.9811  -12.3809   27.4105 C   0  0  0  0  0  0  0  0  0  0  0  0
    5.7904  -13.0002   27.0691 C   0  0  0  0  0  0  0  0  0  0  0  0
    5.7446  -13.7921   25.9405 C   0  0  0  0  0  0  0  0  0  0  0  0
    8.3925  -16.5998   24.6589 C   0  0  0  0  0  0  0  0  0  0  0  0
    8.5959  -17.4678   25.5469 O   0  0  0  0  0  0  0  0  0  0  0  0
   11.0817  -17.6403   21.2491 N   0  0  0  0  0  0  0  0  0  0  0  0
   11.2750  -16.3198   21.7191 C   0  0  0  0  0  0  0  0  0  0  0  0
   10.9743  -15.3829   20.9390 O   0  0  0  0  0  0  0  0  0  0  0  0
   11.8097  -16.1323   23.0754 C   0  0  0  0  0  0  0  0  0  0  0  0
   10.8693  -16.5212   24.1648 C   0  0  2  0  0  0  0  0  0  0  0  0
    9.5459  -16.0466   24.0596 N   0  0  0  0  0  0  0  0  0  0  0  0
   11.4468  -16.1467   25.4746 C   0  0  0  0  0  0  0  0  0  0  0  0
   12.6571  -16.2973   25.7683 O   0  0  0  0  0  0  0  0  0  0  0  0
   10.2687  -13.8719   28.0877 C   0  0  0  0  0  0  0  0  0  0  0  0
   11.0466  -15.1362   27.7545 C   0  0  2  0  0  0  0  0  0  0  0  0
   10.5965  -15.5868   26.4587 N   0  0  0  0  0  0  0  0  0  0  0  0
   10.7247  -16.1782   28.7600 C   0  0  0  0  0  0  0  0  0  0  0  0
   10.0993  -17.3713   28.4324 O   0  0  0  0  0  0  0  0  0  0  0  0
   11.0146  -16.0154   29.9820 O   0  0  0  0  0  0  0  0  0  0  0  0
  2  1  1  1
  2 10  1  0
  3  2  1  0
  4  3  1  0
  5  4  2  0
  6  5  1  0
  7  6  2  0
  7  8  1  0
  8  9  2  0
  9  4  1  0
 10 11  2  0
 10 17  1  0
 13 12  1  0
 14 13  2  0
 15 13  1  0
 16 15  1  6
 17 16  1  0
 18 22  1  0
 18 16  1  0
 19 18  2  0
 21 20  1  1
 21 23  1  0
 21 22  1  0
 23 24  1  0
 25 23  2  0
M  END
$$$$
