FNA.pdb
     RDKit          3D

 25 25  0  0  1  0  0  0  0  0999 V2000
    6.1236  -17.7780   24.1247 N   0  0  0  0  0  0  0  0  0  0  0  0
    6.8569  -16.6383   24.5556 C   0  0  1  0  0  0  0  0  0  0  0  0
    6.2186  -16.1063   25.8200 C   0  0  0  0  0  0  0  0  0  0  0  0
    6.5790  -14.7012   26.0557 C   0  0  0  0  0  0  0  0  0  0  0  0
    5.6981  -13.6957   25.7227 C   0  0  0  0  0  0  0  0  0  0  0  0
    6.0414  -12.3829   25.9457 C   0  0  0  0  0  0  0  0  0  0  0  0
    7.2691  -12.1142   26.5013 C   0  0  0  0  0  0  0  0  0  0  0  0
    8.1640  -13.1151   26.8407 C   0  0  0  0  0  0  0  0  0  0  0  0
    7.8168  -14.4311   26.6158 C   0  0  0  0  0  0  0  0  0  0  0  0
    8.3000  -16.8319   24.6791 C   0  0  0  0  0  0  0  0  0  0  0  0
    8.7205  -17.8847   25.2253 O   0  0  0  0  0  0  0  0  0  0  0  0
   13.1516  -16.7505   21.9954 N   0  0  0  0  0  0  0  0  0  0  0  0
   12.8202  -15.7393   22.9280 C   0  0  0  0  0  0  0  0  0  0  0  0
   13.7656  -15.2156   23.5673 O   0  0  0  0  0  0  0  0  0  0  0  0
   11.4059  -15.3714   23.0863 C   0  0  0  0  0  0  0  0  0  0  0  0
   10.6718  -16.1789   24.1019 C   0  0  2  0  0  0  0  0  0  0  0  0
    9.2906  -15.9288   24.2333 N   0  0  0  0  0  0  0  0  0  0  0  0
   11.3438  -16.0533   25.4142 C   0  0  0  0  0  0  0  0  0  0  0  0
   12.5280  -16.4100   25.6248 O   0  0  0  0  0  0  0  0  0  0  0  0
   10.6547  -14.0086   28.3626 C   0  0  0  0  0  0  0  0  0  0  0  0
   11.1569  -15.3425   27.8306 C   0  0  2  0  0  0  0  0  0  0  0  0
   10.6208  -15.5018   26.4995 N   0  0  0  0  0  0  0  0  0  0  0  0
   10.6319  -16.4317   28.6899 C   0  0  0  0  0  0  0  0  0  0  0  0
   11.0214  -16.6022   30.0094 O   0  0  0  0  0  0  0  0  0  0  0  0
    9.7900  -17.2654   28.2427 O   0  0  0  0  0  0  0  0  0  0  0  0
  2  1  1  1
  2 10  1  0
  3  2  1  0
  4  3  1  0
  5  4  2  0
  6  5  1  0
  7  6  2  0
  7  8  1  0
  8  9  2  0
  9  4  1  0
 10 11  2  0
 10 17  1  0
 13 12  1  0
 14 13  2  0
 15 13  1  0
 16 15  1  6
 17 16  1  0
 18 22  1  0
 18 16  1  0
 19 18  2  0
 21 20  1  1
 21 23  1  0
 21 22  1  0
 23 24  1  0
 25 23  2  0
M  END
$$$$
