FNA.pdb
     RDKit          3D

 25 25  0  0  1  0  0  0  0  0999 V2000
    6.8101  -16.7971   21.7048 N   0  0  0  0  0  0  0  0  0  0  0  0
    7.2196  -15.9236   22.7496 C   0  0  1  0  0  0  0  0  0  0  0  0
    6.5826  -14.5703   22.5215 C   0  0  0  0  0  0  0  0  0  0  0  0
    7.0421  -13.9634   21.2644 C   0  0  0  0  0  0  0  0  0  0  0  0
    8.1776  -13.1835   21.2470 C   0  0  0  0  0  0  0  0  0  0  0  0
    8.6022  -12.6185   20.0675 C   0  0  0  0  0  0  0  0  0  0  0  0
    7.8691  -12.8540   18.9294 C   0  0  0  0  0  0  0  0  0  0  0  0
    6.7260  -13.6357   18.9327 C   0  0  0  0  0  0  0  0  0  0  0  0
    6.3025  -14.2012   20.1175 C   0  0  0  0  0  0  0  0  0  0  0  0
    7.0187  -16.4311   24.1052 C   0  0  0  0  0  0  0  0  0  0  0  0
    5.9335  -17.0072   24.3765 O   0  0  0  0  0  0  0  0  0  0  0  0
    6.8026  -19.3875   25.1042 N   0  0  0  0  0  0  0  0  0  0  0  0
    8.1456  -19.5539   24.6911 C   0  0  0  0  0  0  0  0  0  0  0  0
    8.4240  -20.5969   24.0498 O   0  0  0  0  0  0  0  0  0  0  0  0
    9.1173  -18.5062   25.0358 C   0  0  0  0  0  0  0  0  0  0  0  0
    8.5578  -17.3978   25.8607 C   0  0  2  0  0  0  0  0  0  0  0  0
    7.9487  -16.3341   25.1642 N   0  0  0  0  0  0  0  0  0  0  0  0
    9.6029  -16.8830   26.7729 C   0  0  0  0  0  0  0  0  0  0  0  0
   10.4418  -17.6151   27.3509 O   0  0  0  0  0  0  0  0  0  0  0  0
   10.2709  -13.3905   27.9814 C   0  0  0  0  0  0  0  0  0  0  0  0
   10.6282  -14.8669   27.8968 C   0  0  2  0  0  0  0  0  0  0  0  0
    9.6698  -15.4894   27.0144 N   0  0  0  0  0  0  0  0  0  0  0  0
   10.4981  -15.4714   29.2451 C   0  0  0  0  0  0  0  0  0  0  0  0
   11.4082  -15.2380   30.2645 O   0  0  0  0  0  0  0  0  0  0  0  0
    9.5310  -16.2401   29.5234 O   0  0  0  0  0  0  0  0  0  0  0  0
  2  1  1  6
  2 10  1  0
  3  2  1  0
  4  3  1  0
  5  4  2  0
  6  5  1  0
  7  6  2  0
  7  8  1  0
  8  9  2  0
  9  4  1  0
 10 11  2  0
 10 17  1  0
 13 12  1  0
 14 13  2  0
 15 13  1  0
 16 15  1  6
 17 16  1  0
 18 22  1  0
 18 16  1  0
 19 18  2  0
 21 20  1  1
 21 23  1  0
 21 22  1  0
 23 24  1  0
 25 23  2  0
M  END
$$$$
