FNA.pdb
     RDKit          3D

 25 25  0  0  1  0  0  0  0  0999 V2000
    6.0015  -16.6347   24.4878 N   0  0  0  0  0  0  0  0  0  0  0  0
    7.2247  -16.1406   23.9568 C   0  0  1  0  0  0  0  0  0  0  0  0
    7.0354  -14.6853   23.5886 C   0  0  0  0  0  0  0  0  0  0  0  0
    6.9852  -13.8295   24.7822 C   0  0  0  0  0  0  0  0  0  0  0  0
    5.8545  -13.8049   25.5689 C   0  0  0  0  0  0  0  0  0  0  0  0
    5.8139  -13.0019   26.6844 C   0  0  0  0  0  0  0  0  0  0  0  0
    6.9182  -12.2401   26.9814 C   0  0  0  0  0  0  0  0  0  0  0  0
    8.0610  -12.2552   26.1994 C   0  0  0  0  0  0  0  0  0  0  0  0
    8.0989  -13.0617   25.0809 C   0  0  0  0  0  0  0  0  0  0  0  0
    8.4064  -16.3741   24.7841 C   0  0  0  0  0  0  0  0  0  0  0  0
    8.2896  -17.0947   25.8091 O   0  0  0  0  0  0  0  0  0  0  0  0
   12.2675  -18.7271   22.4824 N   0  0  0  0  0  0  0  0  0  0  0  0
   11.5308  -17.5192   22.5007 C   0  0  0  0  0  0  0  0  0  0  0  0
   10.6402  -17.3764   21.6271 O   0  0  0  0  0  0  0  0  0  0  0  0
   11.8523  -16.5205   23.5303 C   0  0  0  0  0  0  0  0  0  0  0  0
   10.9273  -16.5248   24.6993 C   0  0  2  0  0  0  0  0  0  0  0  0
    9.6971  -15.8557   24.5369 N   0  0  0  0  0  0  0  0  0  0  0  0
   11.6361  -16.0142   25.8935 C   0  0  0  0  0  0  0  0  0  0  0  0
   12.7052  -16.5054   26.3292 O   0  0  0  0  0  0  0  0  0  0  0  0
    9.2544  -14.8797   28.1214 C   0  0  0  0  0  0  0  0  0  0  0  0
   10.7704  -14.9220   27.9999 C   0  0  2  0  0  0  0  0  0  0  0  0
   11.0875  -14.9111   26.5913 N   0  0  0  0  0  0  0  0  0  0  0  0
   11.2652  -16.1895   28.5904 C   0  0  0  0  0  0  0  0  0  0  0  0
   11.1931  -17.4056   27.9287 O   0  0  0  0  0  0  0  0  0  0  0  0
   11.7835  -16.2109   29.7457 O   0  0  0  0  0  0  0  0  0  0  0  0
  2  1  1  1
  2 10  1  0
  3  2  1  0
  4  3  1  0
  5  4  2  0
  6  5  1  0
  7  6  2  0
  7  8  1  0
  8  9  2  0
  9  4  1  0
 10 11  2  0
 10 17  1  0
 13 12  1  0
 14 13  2  0
 15 13  1  0
 16 15  1  6
 17 16  1  0
 18 22  1  0
 18 16  1  0
 19 18  2  0
 21 20  1  6
 21 23  1  0
 21 22  1  0
 23 24  1  0
 25 23  2  0
M  END
$$$$
