IHI.pdb
     RDKit          3D

 27 27  0  0  1  0  0  0  0  0999 V2000
    7.3838  -11.9548   18.9932 C   0  0  0  0  0  0  0  0  0  0  0  0
    7.8424  -13.4110   18.8764 C   0  0  0  0  0  0  0  0  0  0  0  0
    8.0330  -14.0146   20.2374 C   0  0  2  0  0  0  0  0  0  0  0  0
    8.8515  -13.1097   21.1348 C   0  0  0  0  0  0  0  0  0  0  0  0
    8.4869  -15.4331   20.2693 C   0  0  2  0  0  0  0  0  0  0  0  0
    7.5457  -16.2219   19.4404 N   0  0  0  0  0  0  0  0  0  0  0  0
    8.4738  -16.0609   21.6217 C   0  0  0  0  0  0  0  0  0  0  0  0
    7.3448  -16.3001   22.1163 O   0  0  0  0  0  0  0  0  0  0  0  0
    9.6096  -16.4002   22.3701 N   0  0  0  0  0  0  0  0  0  0  0  0
    9.7489  -16.8847   23.6939 C   0  0  1  0  0  0  0  0  0  0  0  0
   10.6028  -18.1187   23.8808 C   0  0  0  0  0  0  0  0  0  0  0  0
   10.1954  -19.2751   23.0932 C   0  0  0  0  0  0  0  0  0  0  0  0
    8.9277  -19.4650   22.6033 C   0  0  0  0  0  0  0  0  0  0  0  0
    8.8920  -20.6303   21.9221 N   0  0  0  0  0  0  0  0  0  0  0  0
   10.1207  -21.1717   21.9796 C   0  0  0  0  0  0  0  0  0  0  0  0
   10.9125  -20.3332   22.6998 N   0  0  0  0  0  0  0  0  0  0  0  0
   10.0669  -15.8977   24.7249 C   0  0  0  0  0  0  0  0  0  0  0  0
   11.0501  -15.0952   24.5298 O   0  0  0  0  0  0  0  0  0  0  0  0
    6.4320  -13.0607   26.7361 C   0  0  0  0  0  0  0  0  0  0  0  0
    7.7531  -13.6507   26.3286 C   0  0  0  0  0  0  0  0  0  0  0  0
    8.5296  -14.1778   27.5148 C   0  0  2  0  0  0  0  0  0  0  0  0
    8.8403  -13.0978   28.5142 C   0  0  0  0  0  0  0  0  0  0  0  0
    9.7988  -14.8257   26.9782 C   0  0  2  0  0  0  0  0  0  0  0  0
    9.3716  -15.7489   25.9377 N   0  0  0  0  0  0  0  0  0  0  0  0
   10.5494  -15.5063   28.0379 C   0  0  0  0  0  0  0  0  0  0  0  0
   10.2739  -16.7042   28.2877 O   0  0  0  0  0  0  0  0  0  0  0  0
   11.5396  -14.8751   28.7611 O   0  0  0  0  0  0  0  0  0  0  0  0
  1  2  1  0
  2  3  1  0
  3  5  1  0
  3  4  1  1
  5  6  1  6
  7  5  1  0
  8  7  2  0
  9  7  1  0
 10 11  1  6
 10  9  1  0
 11 12  1  0
 12 16  1  0
 13 12  2  0
 13 14  1  0
 14 15  1  0
 16 15  2  0
 17 24  1  0
 17 10  1  0
 18 17  2  0
 20 19  1  0
 20 21  1  0
 21 22  1  1
 23 21  1  0
 23 24  1  6
 25 23  1  0
 25 27  1  0
 26 25  2  0
M  END
$$$$
