IHI.pdb
     RDKit          3D

 27 27  0  0  1  0  0  0  0  0999 V2000
    7.4071  -11.7732   18.6438 C   0  0  0  0  0  0  0  0  0  0  0  0
    7.8825  -13.2134   18.4333 C   0  0  0  0  0  0  0  0  0  0  0  0
    8.0451  -13.9130   19.7512 C   0  0  2  0  0  0  0  0  0  0  0  0
    8.8993  -13.1046   20.7057 C   0  0  0  0  0  0  0  0  0  0  0  0
    8.4388  -15.3484   19.6890 C   0  0  2  0  0  0  0  0  0  0  0  0
    7.5058  -16.0275   18.7598 N   0  0  0  0  0  0  0  0  0  0  0  0
    8.3373  -16.0788   20.9850 C   0  0  0  0  0  0  0  0  0  0  0  0
    7.1793  -16.2619   21.4345 O   0  0  0  0  0  0  0  0  0  0  0  0
    9.4206  -16.5699   21.7268 N   0  0  0  0  0  0  0  0  0  0  0  0
    9.5061  -17.0425   23.0595 C   0  0  1  0  0  0  0  0  0  0  0  0
   10.4711  -18.1775   23.3187 C   0  0  0  0  0  0  0  0  0  0  0  0
   10.1932  -19.4032   22.5810 C   0  0  0  0  0  0  0  0  0  0  0  0
    8.9430  -19.7827   22.1615 C   0  0  0  0  0  0  0  0  0  0  0  0
    9.0391  -20.9621   21.5113 N   0  0  0  0  0  0  0  0  0  0  0  0
   10.3330  -21.3253   21.5186 C   0  0  0  0  0  0  0  0  0  0  0  0
   11.0325  -20.3628   22.1769 N   0  0  0  0  0  0  0  0  0  0  0  0
    9.6324  -16.0315   24.1084 C   0  0  0  0  0  0  0  0  0  0  0  0
   10.6539  -15.2536   24.0972 O   0  0  0  0  0  0  0  0  0  0  0  0
    6.7231  -11.8057   27.0526 C   0  0  0  0  0  0  0  0  0  0  0  0
    7.8193  -12.8311   27.1318 C   0  0  0  0  0  0  0  0  0  0  0  0
    7.6615  -13.9130   26.0865 C   0  0  2  0  0  0  0  0  0  0  0  0
    6.3888  -14.6939   26.2665 C   0  0  0  0  0  0  0  0  0  0  0  0
    8.8870  -14.8127   26.1718 C   0  0  2  0  0  0  0  0  0  0  0  0
    8.7096  -15.8339   25.1505 N   0  0  0  0  0  0  0  0  0  0  0  0
    9.0384  -15.3967   27.5080 C   0  0  0  0  0  0  0  0  0  0  0  0
    8.6511  -16.5759   27.6898 O   0  0  0  0  0  0  0  0  0  0  0  0
    9.5883  -14.6956   28.5605 O   0  0  0  0  0  0  0  0  0  0  0  0
  1  2  1  0
  2  3  1  0
  3  5  1  0
  3  4  1  1
  5  6  1  6
  7  5  1  0
  8  7  2  0
  9  7  1  0
 10 11  1  6
 10  9  1  0
 11 12  1  0
 12 16  1  0
 13 12  2  0
 13 14  1  0
 14 15  1  0
 16 15  2  0
 17 24  1  0
 17 10  1  0
 18 17  2  0
 20 19  1  0
 20 21  1  0
 21 22  1  1
 23 21  1  0
 23 24  1  6
 25 23  1  0
 25 27  1  0
 26 25  2  0
M  END
$$$$
