IHI.pdb
     RDKit          3D

 27 27  0  0  1  0  0  0  0  0999 V2000
    8.2138  -12.0631   18.1917 C   0  0  0  0  0  0  0  0  0  0  0  0
    8.3071  -13.5912   18.1719 C   0  0  0  0  0  0  0  0  0  0  0  0
    8.0792  -14.1513   19.5457 C   0  0  2  0  0  0  0  0  0  0  0  0
    8.9685  -13.4802   20.5719 C   0  0  0  0  0  0  0  0  0  0  0  0
    8.0776  -15.6368   19.6578 C   0  0  2  0  0  0  0  0  0  0  0  0
    7.1016  -16.1578   18.6723 N   0  0  0  0  0  0  0  0  0  0  0  0
    7.6455  -16.1607   20.9853 C   0  0  0  0  0  0  0  0  0  0  0  0
    6.4345  -16.0076   21.2797 O   0  0  0  0  0  0  0  0  0  0  0  0
    8.4764  -16.8026   21.9140 N   0  0  0  0  0  0  0  0  0  0  0  0
    8.2645  -17.1659   23.2667 C   0  0  1  0  0  0  0  0  0  0  0  0
    8.7104  -18.5512   23.6775 C   0  0  0  0  0  0  0  0  0  0  0  0
    8.4952  -18.8768   25.0815 C   0  0  0  0  0  0  0  0  0  0  0  0
    7.7212  -18.1313   25.9349 C   0  0  0  0  0  0  0  0  0  0  0  0
    7.7349  -18.7089   27.1552 N   0  0  0  0  0  0  0  0  0  0  0  0
    8.5073  -19.8058   27.0764 C   0  0  0  0  0  0  0  0  0  0  0  0
    8.9688  -19.9000   25.8008 N   0  0  0  0  0  0  0  0  0  0  0  0
    8.6678  -16.1916   24.2798 C   0  0  0  0  0  0  0  0  0  0  0  0
    9.9030  -15.8474   24.3489 O   0  0  0  0  0  0  0  0  0  0  0  0
    6.3975  -11.2977   27.0636 C   0  0  0  0  0  0  0  0  0  0  0  0
    7.4689  -12.3484   26.9778 C   0  0  0  0  0  0  0  0  0  0  0  0
    7.0565  -13.5096   26.1005 C   0  0  2  0  0  0  0  0  0  0  0  0
    5.7877  -14.1596   26.5797 C   0  0  0  0  0  0  0  0  0  0  0  0
    8.2157  -14.4966   26.0746 C   0  0  2  0  0  0  0  0  0  0  0  0
    7.7990  -15.5856   25.2040 N   0  0  0  0  0  0  0  0  0  0  0  0
    8.5534  -14.9712   27.4200 C   0  0  0  0  0  0  0  0  0  0  0  0
    8.0768  -16.0667   27.8021 O   0  0  0  0  0  0  0  0  0  0  0  0
    9.3714  -14.2564   28.2696 O   0  0  0  0  0  0  0  0  0  0  0  0
  1  2  1  0
  2  3  1  0
  3  5  1  0
  3  4  1  1
  5  6  1  6
  7  5  1  0
  8  7  2  0
  9  7  1  0
 10 11  1  1
 10  9  1  0
 11 12  1  0
 12 16  1  0
 13 12  2  0
 13 14  1  0
 14 15  1  0
 16 15  2  0
 17 24  1  0
 17 10  1  0
 18 17  2  0
 20 19  1  0
 20 21  1  0
 21 22  1  1
 23 21  1  0
 23 24  1  6
 25 23  1  0
 25 27  1  0
 26 25  2  0
M  END
$$$$
