IHI.pdb
     RDKit          3D

 27 27  0  0  1  0  0  0  0  0999 V2000
    7.7167  -11.8970   20.7673 C   0  0  0  0  0  0  0  0  0  0  0  0
    7.5017  -13.4054   20.9182 C   0  0  0  0  0  0  0  0  0  0  0  0
    8.5007  -14.1654   20.0953 C   0  0  2  0  0  0  0  0  0  0  0  0
    8.4974  -13.7019   18.6533 C   0  0  0  0  0  0  0  0  0  0  0  0
    8.4716  -15.6486   20.2312 C   0  0  2  0  0  0  0  0  0  0  0  0
    7.2197  -16.1302   19.6021 N   0  0  0  0  0  0  0  0  0  0  0  0
    8.4461  -16.1448   21.6371 C   0  0  0  0  0  0  0  0  0  0  0  0
    7.3141  -16.2679   22.1662 O   0  0  0  0  0  0  0  0  0  0  0  0
    9.5733  -16.4802   22.3999 N   0  0  0  0  0  0  0  0  0  0  0  0
    9.6987  -16.9417   23.7333 C   0  0  1  0  0  0  0  0  0  0  0  0
   10.5562  -18.1681   23.9514 C   0  0  0  0  0  0  0  0  0  0  0  0
   10.1894  -19.3272   23.1480 C   0  0  0  0  0  0  0  0  0  0  0  0
    9.0587  -20.0778   23.3506 C   0  0  0  0  0  0  0  0  0  0  0  0
    9.0233  -21.0709   22.4365 N   0  0  0  0  0  0  0  0  0  0  0  0
   10.1171  -20.9514   21.6649 C   0  0  0  0  0  0  0  0  0  0  0  0
   10.8256  -19.8793   22.1092 N   0  0  0  0  0  0  0  0  0  0  0  0
    9.9991  -15.9360   24.7514 C   0  0  0  0  0  0  0  0  0  0  0  0
   11.0753  -15.2446   24.6384 O   0  0  0  0  0  0  0  0  0  0  0  0
    6.5809  -12.5062   26.2540 C   0  0  0  0  0  0  0  0  0  0  0  0
    7.8368  -13.2968   26.0151 C   0  0  0  0  0  0  0  0  0  0  0  0
    8.3561  -13.9349   27.2845 C   0  0  2  0  0  0  0  0  0  0  0  0
    8.6484  -12.9168   28.3522 C   0  0  0  0  0  0  0  0  0  0  0  0
    9.5992  -14.7344   26.9181 C   0  0  2  0  0  0  0  0  0  0  0  0
    9.1917  -15.6548   25.8673 N   0  0  0  0  0  0  0  0  0  0  0  0
   10.1511  -15.4400   28.0787 C   0  0  0  0  0  0  0  0  0  0  0  0
    9.7589  -16.6095   28.3065 O   0  0  0  0  0  0  0  0  0  0  0  0
   11.0794  -14.8622   28.9191 O   0  0  0  0  0  0  0  0  0  0  0  0
  1  2  1  0
  2  3  1  0
  3  5  1  0
  3  4  1  6
  5  6  1  6
  7  5  1  0
  8  7  2  0
  9  7  1  0
 10 11  1  6
 10  9  1  0
 11 12  1  0
 12 16  1  0
 13 12  2  0
 13 14  1  0
 14 15  1  0
 16 15  2  0
 17 24  1  0
 17 10  1  0
 18 17  2  0
 20 19  1  0
 20 21  1  0
 21 22  1  1
 23 21  1  0
 23 24  1  6
 25 23  1  0
 25 27  1  0
 26 25  2  0
M  END
$$$$
