IHI.pdb
     RDKit          3D

 27 27  0  0  1  0  0  0  0  0999 V2000
    8.1084  -11.9539   20.3625 C   0  0  0  0  0  0  0  0  0  0  0  0
    7.6339  -13.4028   20.5035 C   0  0  0  0  0  0  0  0  0  0  0  0
    8.5864  -14.3387   19.8180 C   0  0  2  0  0  0  0  0  0  0  0  0
    8.7472  -13.9900   18.3529 C   0  0  0  0  0  0  0  0  0  0  0  0
    8.3601  -15.7927   20.0500 C   0  0  2  0  0  0  0  0  0  0  0  0
    7.0961  -16.1618   19.3711 N   0  0  0  0  0  0  0  0  0  0  0  0
    8.1889  -16.1759   21.4808 C   0  0  0  0  0  0  0  0  0  0  0  0
    7.0196  -16.1299   21.9359 O   0  0  0  0  0  0  0  0  0  0  0  0
    9.2190  -16.5787   22.3420 N   0  0  0  0  0  0  0  0  0  0  0  0
    9.2038  -16.9634   23.7053 C   0  0  1  0  0  0  0  0  0  0  0  0
    9.7859  -18.3192   24.0365 C   0  0  0  0  0  0  0  0  0  0  0  0
    9.2479  -19.4276   23.2584 C   0  0  0  0  0  0  0  0  0  0  0  0
    7.9109  -19.7201   23.1575 C   0  0  0  0  0  0  0  0  0  0  0  0
    7.7586  -20.8025   22.3649 N   0  0  0  0  0  0  0  0  0  0  0  0
    8.9826  -21.1910   21.9688 C   0  0  0  0  0  0  0  0  0  0  0  0
    9.8890  -20.3416   22.5220 N   0  0  0  0  0  0  0  0  0  0  0  0
    9.6691  -15.9711   24.6733 C   0  0  0  0  0  0  0  0  0  0  0  0
   10.8715  -15.5308   24.5775 O   0  0  0  0  0  0  0  0  0  0  0  0
    6.3468  -12.3201   26.3111 C   0  0  0  0  0  0  0  0  0  0  0  0
    7.5554  -13.1404   25.9567 C   0  0  0  0  0  0  0  0  0  0  0  0
    8.2554  -13.6799   27.1843 C   0  0  2  0  0  0  0  0  0  0  0  0
    8.6991  -12.5825   28.1120 C   0  0  0  0  0  0  0  0  0  0  0  0
    9.4327  -14.5192   26.7067 C   0  0  2  0  0  0  0  0  0  0  0  0
    8.8945  -15.4461   25.7225 N   0  0  0  0  0  0  0  0  0  0  0  0
   10.0848  -15.2196   27.8175 C   0  0  0  0  0  0  0  0  0  0  0  0
    9.6703  -16.3626   28.1260 O   0  0  0  0  0  0  0  0  0  0  0  0
   11.1297  -14.6650   28.5262 O   0  0  0  0  0  0  0  0  0  0  0  0
  1  2  1  0
  2  3  1  0
  3  5  1  0
  3  4  1  6
  5  6  1  6
  7  5  1  0
  8  7  2  0
  9  7  1  0
 10 11  1  6
 10  9  1  0
 11 12  1  0
 12 16  1  0
 13 12  2  0
 13 14  1  0
 14 15  1  0
 16 15  2  0
 17 24  1  0
 17 10  1  0
 18 17  2  0
 20 19  1  0
 20 21  1  0
 21 22  1  1
 23 21  1  0
 23 24  1  6
 25 23  1  0
 25 27  1  0
 26 25  2  0
M  END
$$$$
