IHI.pdb
     RDKit          3D

 27 27  0  0  1  0  0  0  0  0999 V2000
    6.9512  -11.9759   25.1744 C   0  0  0  0  0  0  0  0  0  0  0  0
    6.9317  -13.3493   24.4979 C   0  0  0  0  0  0  0  0  0  0  0  0
    7.6441  -13.2972   23.1779 C   0  0  2  0  0  0  0  0  0  0  0  0
    7.0660  -12.2243   22.2785 C   0  0  0  0  0  0  0  0  0  0  0  0
    7.8352  -14.6006   22.4823 C   0  0  2  0  0  0  0  0  0  0  0  0
    6.4914  -15.1496   22.1858 N   0  0  0  0  0  0  0  0  0  0  0  0
    8.5384  -15.6395   23.2883 C   0  0  0  0  0  0  0  0  0  0  0  0
    7.8587  -16.2159   24.1728 O   0  0  0  0  0  0  0  0  0  0  0  0
    9.8798  -16.0160   23.1341 N   0  0  0  0  0  0  0  0  0  0  0  0
   10.6884  -16.9221   23.8635 C   0  0  1  0  0  0  0  0  0  0  0  0
   11.8259  -17.5763   23.1119 C   0  0  0  0  0  0  0  0  0  0  0  0
   11.4444  -18.2385   21.8711 C   0  0  0  0  0  0  0  0  0  0  0  0
   10.2473  -18.8808   21.6777 C   0  0  0  0  0  0  0  0  0  0  0  0
   10.2171  -19.3814   20.4240 N   0  0  0  0  0  0  0  0  0  0  0  0
   11.3796  -19.0607   19.8309 C   0  0  0  0  0  0  0  0  0  0  0  0
   12.1252  -18.3599   20.7263 N   0  0  0  0  0  0  0  0  0  0  0  0
   11.1493  -16.4794   25.1787 C   0  0  0  0  0  0  0  0  0  0  0  0
   12.2182  -15.7717   25.2530 O   0  0  0  0  0  0  0  0  0  0  0  0
    8.9489  -13.3146   28.0522 C   0  0  0  0  0  0  0  0  0  0  0  0
    9.9598  -14.2814   27.5021 C   0  0  0  0  0  0  0  0  0  0  0  0
   10.1049  -15.5088   28.3743 C   0  0  2  0  0  0  0  0  0  0  0  0
   10.5491  -15.1637   29.7691 C   0  0  0  0  0  0  0  0  0  0  0  0
   11.0919  -16.4429   27.6875 C   0  0  2  0  0  0  0  0  0  0  0  0
   10.5070  -16.7684   26.3954 N   0  0  0  0  0  0  0  0  0  0  0  0
   11.3491  -17.6434   28.4888 C   0  0  0  0  0  0  0  0  0  0  0  0
   10.5432  -18.6007   28.4029 O   0  0  0  0  0  0  0  0  0  0  0  0
   12.4399  -17.7506   29.3258 O   0  0  0  0  0  0  0  0  0  0  0  0
  1  2  1  0
  2  3  1  0
  3  5  1  0
  3  4  1  6
  5  6  1  1
  7  5  1  0
  8  7  2  0
  9  7  1  0
 10 11  1  6
 10  9  1  0
 11 12  1  0
 12 16  1  0
 13 12  2  0
 13 14  1  0
 14 15  1  0
 16 15  2  0
 17 24  1  0
 17 10  1  0
 18 17  2  0
 20 19  1  0
 20 21  1  0
 21 22  1  1
 23 21  1  0
 23 24  1  6
 25 23  1  0
 25 27  1  0
 26 25  2  0
M  END
$$$$
