IHI.pdb
     RDKit          3D

 27 27  0  0  1  0  0  0  0  0999 V2000
    7.4308  -11.7288   19.5422 C   0  0  0  0  0  0  0  0  0  0  0  0
    7.5921  -13.2384   19.3433 C   0  0  0  0  0  0  0  0  0  0  0  0
    7.8761  -13.9154   20.6525 C   0  0  2  0  0  0  0  0  0  0  0  0
    8.9982  -13.2260   21.4005 C   0  0  0  0  0  0  0  0  0  0  0  0
    8.0294  -15.3965   20.6067 C   0  0  2  0  0  0  0  0  0  0  0  0
    6.7981  -15.9542   20.0000 N   0  0  0  0  0  0  0  0  0  0  0  0
    8.1667  -16.0499   21.9399 C   0  0  0  0  0  0  0  0  0  0  0  0
    7.1168  -16.1598   22.6197 O   0  0  0  0  0  0  0  0  0  0  0  0
    9.3611  -16.5443   22.4822 N   0  0  0  0  0  0  0  0  0  0  0  0
    9.6578  -17.0852   23.7574 C   0  0  1  0  0  0  0  0  0  0  0  0
   10.6125  -18.2573   23.7943 C   0  0  0  0  0  0  0  0  0  0  0  0
   10.1791  -19.4290   23.0441 C   0  0  0  0  0  0  0  0  0  0  0  0
    8.9028  -19.6142   22.5752 C   0  0  0  0  0  0  0  0  0  0  0  0
    8.8423  -20.7972   21.9271 N   0  0  0  0  0  0  0  0  0  0  0  0
   10.0639  -21.3543   21.9845 C   0  0  0  0  0  0  0  0  0  0  0  0
   10.8764  -20.5077   22.6715 N   0  0  0  0  0  0  0  0  0  0  0  0
    9.9979  -16.1319   24.8128 C   0  0  0  0  0  0  0  0  0  0  0  0
   10.3756  -14.9506   24.4801 O   0  0  0  0  0  0  0  0  0  0  0  0
    7.6893  -12.8582   25.8695 C   0  0  0  0  0  0  0  0  0  0  0  0
    8.8667  -13.7911   25.9213 C   0  0  0  0  0  0  0  0  0  0  0  0
    8.9625  -14.5115   27.2479 C   0  0  2  0  0  0  0  0  0  0  0  0
    9.0036  -13.5572   28.4096 C   0  0  0  0  0  0  0  0  0  0  0  0
   10.2050  -15.3905   27.2015 C   0  0  2  0  0  0  0  0  0  0  0  0
    9.9443  -16.4045   26.1909 N   0  0  0  0  0  0  0  0  0  0  0  0
   10.4972  -15.9851   28.5094 C   0  0  0  0  0  0  0  0  0  0  0  0
    9.9277  -17.0600   28.8155 O   0  0  0  0  0  0  0  0  0  0  0  0
   11.3708  -15.4039   29.4042 O   0  0  0  0  0  0  0  0  0  0  0  0
  1  2  1  0
  2  3  1  0
  3  5  1  0
  3  4  1  6
  5  6  1  1
  7  5  1  0
  8  7  2  0
  9  7  1  0
 10 11  1  6
 10  9  1  0
 11 12  1  0
 12 16  1  0
 13 12  2  0
 13 14  1  0
 14 15  1  0
 16 15  2  0
 17 24  1  0
 17 10  1  0
 18 17  2  0
 20 19  1  0
 20 21  1  0
 21 22  1  1
 23 21  1  0
 23 24  1  6
 25 23  1  0
 25 27  1  0
 26 25  2  0
M  END
$$$$
