IHI.pdb
     RDKit          3D

 27 27  0  0  1  0  0  0  0  0999 V2000
    7.5272  -11.9986   18.1842 C   0  0  0  0  0  0  0  0  0  0  0  0
    8.1614  -13.3920   18.2014 C   0  0  0  0  0  0  0  0  0  0  0  0
    8.0526  -14.0040   19.5676 C   0  0  2  0  0  0  0  0  0  0  0  0
    8.5219  -13.0458   20.6427 C   0  0  0  0  0  0  0  0  0  0  0  0
    8.6172  -15.3741   19.7208 C   0  0  2  0  0  0  0  0  0  0  0  0
    7.9489  -16.2461   18.7266 N   0  0  0  0  0  0  0  0  0  0  0  0
    8.3753  -16.0022   21.0513 C   0  0  0  0  0  0  0  0  0  0  0  0
    7.1979  -16.3654   21.2926 O   0  0  0  0  0  0  0  0  0  0  0  0
    9.3490  -16.2158   22.0369 N   0  0  0  0  0  0  0  0  0  0  0  0
    9.2422  -16.6520   23.3804 C   0  0  1  0  0  0  0  0  0  0  0  0
    9.8421  -18.0009   23.7080 C   0  0  0  0  0  0  0  0  0  0  0  0
    9.4317  -19.0878   22.8284 C   0  0  0  0  0  0  0  0  0  0  0  0
    8.1686  -19.2231   22.3094 C   0  0  0  0  0  0  0  0  0  0  0  0
    8.1282  -20.3319   21.5400 N   0  0  0  0  0  0  0  0  0  0  0  0
    9.3495  -20.8920   21.5709 C   0  0  0  0  0  0  0  0  0  0  0  0
   10.1415  -20.1216   22.3636 N   0  0  0  0  0  0  0  0  0  0  0  0
    9.5984  -15.6832   24.4162 C   0  0  0  0  0  0  0  0  0  0  0  0
   10.7962  -15.2212   24.4445 O   0  0  0  0  0  0  0  0  0  0  0  0
    5.9534  -12.4207   27.2019 C   0  0  0  0  0  0  0  0  0  0  0  0
    6.8173  -13.5446   26.7020 C   0  0  0  0  0  0  0  0  0  0  0  0
    8.2042  -13.0713   26.3271 C   0  0  2  0  0  0  0  0  0  0  0  0
    8.2432  -12.4633   24.9520 C   0  0  0  0  0  0  0  0  0  0  0  0
    9.1402  -14.2672   26.4370 C   0  0  2  0  0  0  0  0  0  0  0  0
    8.7215  -15.2035   25.4047 N   0  0  0  0  0  0  0  0  0  0  0  0
    9.0944  -14.8702   27.7726 C   0  0  0  0  0  0  0  0  0  0  0  0
    9.5559  -14.2153   28.7378 O   0  0  0  0  0  0  0  0  0  0  0  0
    8.5643  -16.1233   27.9974 O   0  0  0  0  0  0  0  0  0  0  0  0
  1  2  1  0
  2  3  1  0
  3  5  1  0
  3  4  1  1
  5  6  1  6
  7  5  1  0
  8  7  2  0
  9  7  1  0
 10 11  1  6
 10  9  1  0
 11 12  1  0
 12 16  1  0
 13 12  2  0
 13 14  1  0
 14 15  1  0
 16 15  2  0
 17 24  1  0
 17 10  1  0
 18 17  2  0
 20 19  1  0
 20 21  1  0
 21 22  1  6
 23 21  1  0
 23 24  1  6
 25 23  1  0
 25 27  1  0
 26 25  2  0
M  END
$$$$
