TKH.pdb
     RDKit          3D

 27 27  0  0  1  0  0  0  0  0999 V2000
   11.9664  -20.3942   13.2296 C   0  0  0  0  0  0  0  0  0  0  0  0
   11.8318  -19.4979   14.4282 C   0  0  1  0  0  0  0  0  0  0  0  0
   12.9503  -19.5390   15.2455 O   0  0  0  0  0  0  0  0  0  0  0  0
   11.5558  -18.0570   13.9741 C   0  0  2  0  0  0  0  0  0  0  0  0
   12.7202  -17.5587   13.2605 N   0  0  0  0  0  0  0  0  0  0  0  0
   11.4307  -17.2540   15.2124 C   0  0  0  0  0  0  0  0  0  0  0  0
   12.4712  -16.6772   15.6293 O   0  0  0  0  0  0  0  0  0  0  0  0
   10.2499  -17.0948   15.9415 N   0  0  0  0  0  0  0  0  0  0  0  0
   10.1330  -16.2513   17.1423 C   0  0  1  0  0  0  0  0  0  0  0  0
    8.9043  -15.4090   17.0332 C   0  0  0  0  0  0  0  0  0  0  0  0
    8.7606  -14.5943   15.8154 C   0  0  0  0  0  0  0  0  0  0  0  0
    7.4658  -13.8111   15.7310 C   0  0  0  0  0  0  0  0  0  0  0  0
    7.4285  -13.0104   14.4210 C   0  0  0  0  0  0  0  0  0  0  0  0
    6.2258  -12.2298   14.3327 N   0  0  0  0  0  0  0  0  0  0  0  0
   10.1789  -17.1459   18.3188 C   0  0  0  0  0  0  0  0  0  0  0  0
    9.6641  -18.3079   18.1906 O   0  0  0  0  0  0  0  0  0  0  0  0
   10.7337  -16.8470   19.5613 N   0  0  0  0  0  0  0  0  0  0  0  0
   11.4506  -17.8241   20.3844 C   0  0  1  0  0  0  0  0  0  0  0  0
   12.4792  -18.5518   19.6064 C   0  0  0  0  0  0  0  0  0  0  0  0
   13.1555  -19.5606   20.4467 C   0  0  0  0  0  0  0  0  0  0  0  0
   12.6965  -20.2868   21.5351 C   0  0  0  0  0  0  0  0  0  0  0  0
   13.6639  -21.0842   22.0189 N   0  0  0  0  0  0  0  0  0  0  0  0
   14.7276  -20.8724   21.2521 C   0  0  0  0  0  0  0  0  0  0  0  0
   14.4522  -19.9659   20.3037 N   0  0  0  0  0  0  0  0  0  0  0  0
   11.9833  -17.1494   21.5747 C   0  0  0  0  0  0  0  0  0  0  0  0
   11.7677  -15.7947   21.8119 O   0  0  0  0  0  0  0  0  0  0  0  0
   12.6503  -17.7856   22.4110 O   0  0  0  0  0  0  0  0  0  0  0  0
  2  3  1  0
  2  1  1  6
  4  2  1  0
  4  5  1  6
  6  4  1  0
  6  7  2  0
  8  6  1  0
  9 10  1  6
  9  8  1  0
 11 10  1  0
 11 12  1  0
 13 12  1  0
 13 14  1  0
 15  9  1  0
 16 15  2  0
 17 15  1  0
 18 17  1  0
 18 19  1  6
 19 20  1  0
 20 21  2  0
 21 22  1  0
 23 22  1  0
 24 20  1  0
 24 23  2  0
 25 26  1  0
 25 18  1  0
 27 25  2  0
M  END
$$$$
