TKH.pdb
     RDKit          3D

 27 27  0  0  1  0  0  0  0  0999 V2000
   10.9455  -13.8500   19.4614 C   0  0  0  0  0  0  0  0  0  0  0  0
    9.6865  -13.1001   19.1284 C   0  0  1  0  0  0  0  0  0  0  0  0
    9.8610  -12.2194   18.0727 O   0  0  0  0  0  0  0  0  0  0  0  0
    8.5561  -14.0912   18.8149 C   0  0  2  0  0  0  0  0  0  0  0  0
    7.3314  -13.3456   18.5746 N   0  0  0  0  0  0  0  0  0  0  0  0
    8.3475  -14.8792   20.0516 C   0  0  0  0  0  0  0  0  0  0  0  0
    7.5950  -14.3786   20.9303 O   0  0  0  0  0  0  0  0  0  0  0  0
    8.9224  -16.1264   20.3067 N   0  0  0  0  0  0  0  0  0  0  0  0
    8.7600  -16.8630   21.5709 C   0  0  1  0  0  0  0  0  0  0  0  0
    9.1009  -18.3003   21.3493 C   0  0  0  0  0  0  0  0  0  0  0  0
    9.1638  -19.1619   22.5415 C   0  0  0  0  0  0  0  0  0  0  0  0
    8.0254  -20.1552   22.6612 C   0  0  0  0  0  0  0  0  0  0  0  0
    8.2190  -21.0167   23.9178 C   0  0  0  0  0  0  0  0  0  0  0  0
    7.2328  -22.0595   23.9799 N   0  0  0  0  0  0  0  0  0  0  0  0
    9.5764  -16.1742   22.5934 C   0  0  0  0  0  0  0  0  0  0  0  0
   10.4206  -15.3083   22.1821 O   0  0  0  0  0  0  0  0  0  0  0  0
    9.5148  -16.3748   23.9707 N   0  0  0  0  0  0  0  0  0  0  0  0
    9.0406  -15.3613   24.9163 C   0  0  1  0  0  0  0  0  0  0  0  0
    7.7016  -14.8471   24.5483 C   0  0  0  0  0  0  0  0  0  0  0  0
    7.2840  -13.7683   25.4665 C   0  0  0  0  0  0  0  0  0  0  0  0
    7.9380  -13.1953   26.5465 C   0  0  0  0  0  0  0  0  0  0  0  0
    7.1734  -12.2514   27.1213 N   0  0  0  0  0  0  0  0  0  0  0  0
    6.0457  -12.2198   26.4201 C   0  0  0  0  0  0  0  0  0  0  0  0
    6.0842  -13.1165   25.4244 N   0  0  0  0  0  0  0  0  0  0  0  0
    9.1056  -15.9080   26.2775 C   0  0  0  0  0  0  0  0  0  0  0  0
    9.1458  -17.2783   26.5198 O   0  0  0  0  0  0  0  0  0  0  0  0
    9.1264  -15.1445   27.2602 O   0  0  0  0  0  0  0  0  0  0  0  0
  2  3  1  0
  2  1  1  6
  4  2  1  0
  4  5  1  1
  6  4  1  0
  6  7  2  0
  8  6  1  0
  9 10  1  6
  9  8  1  0
 11 10  1  0
 11 12  1  0
 13 12  1  0
 13 14  1  0
 15  9  1  0
 16 15  2  0
 17 15  1  0
 18 17  1  0
 18 19  1  6
 19 20  1  0
 20 21  2  0
 21 22  1  0
 23 22  1  0
 24 20  1  0
 24 23  2  0
 25 26  1  0
 25 18  1  0
 27 25  2  0
M  END
$$$$
