TKH.pdb
     RDKit          3D

 27 27  0  0  1  0  0  0  0  0999 V2000
    3.8457  -20.4696   22.8895 C   0  0  0  0  0  0  0  0  0  0  0  0
    5.2962  -20.7945   23.1101 C   0  0  1  0  0  0  0  0  0  0  0  0
    5.5817  -21.0544   24.4411 O   0  0  0  0  0  0  0  0  0  0  0  0
    5.7025  -21.9890   22.2344 C   0  0  2  0  0  0  0  0  0  0  0  0
    5.0025  -23.1739   22.7029 N   0  0  0  0  0  0  0  0  0  0  0  0
    7.1451  -22.2103   22.4871 C   0  0  0  0  0  0  0  0  0  0  0  0
    7.4820  -23.3390   22.9360 O   0  0  0  0  0  0  0  0  0  0  0  0
    8.1464  -21.2623   22.2638 N   0  0  0  0  0  0  0  0  0  0  0  0
    9.5871  -21.5541   22.3453 C   0  0  1  0  0  0  0  0  0  0  0  0
   10.2945  -20.8501   21.2339 C   0  0  0  0  0  0  0  0  0  0  0  0
   10.1900  -21.4482   19.8927 C   0  0  0  0  0  0  0  0  0  0  0  0
   10.9072  -20.6777   18.8022 C   0  0  0  0  0  0  0  0  0  0  0  0
   10.6391  -21.3355   17.4406 C   0  0  0  0  0  0  0  0  0  0  0  0
   11.2938  -20.6128   16.3857 N   0  0  0  0  0  0  0  0  0  0  0  0
   10.0368  -21.1905   23.7062 C   0  0  0  0  0  0  0  0  0  0  0  0
    9.8333  -19.9887   24.0880 O   0  0  0  0  0  0  0  0  0  0  0  0
   10.6628  -22.0344   24.6211 N   0  0  0  0  0  0  0  0  0  0  0  0
   11.1087  -21.6022   25.9479 C   0  0  1  0  0  0  0  0  0  0  0  0
   11.7751  -20.2806   25.9024 C   0  0  0  0  0  0  0  0  0  0  0  0
   13.0322  -20.3537   25.1306 C   0  0  0  0  0  0  0  0  0  0  0  0
   13.6520  -21.4276   24.5100 C   0  0  0  0  0  0  0  0  0  0  0  0
   14.8054  -21.0460   23.9356 N   0  0  0  0  0  0  0  0  0  0  0  0
   14.9234  -19.7466   24.1844 C   0  0  0  0  0  0  0  0  0  0  0  0
   13.8772  -19.3061   24.8973 N   0  0  0  0  0  0  0  0  0  0  0  0
    9.9724  -21.6549   26.8763 C   0  0  0  0  0  0  0  0  0  0  0  0
    8.6957  -22.0193   26.4579 O   0  0  0  0  0  0  0  0  0  0  0  0
   10.1297  -21.3699   28.0775 O   0  0  0  0  0  0  0  0  0  0  0  0
  2  3  1  0
  2  1  1  1
  4  2  1  0
  4  5  1  1
  6  4  1  0
  6  7  2  0
  8  6  1  0
  9 10  1  6
  9  8  1  0
 11 10  1  0
 11 12  1  0
 13 12  1  0
 13 14  1  0
 15  9  1  0
 16 15  2  0
 17 15  1  0
 18 17  1  0
 18 19  1  6
 19 20  1  0
 20 21  2  0
 21 22  1  0
 23 22  1  0
 24 20  1  0
 24 23  2  0
 25 26  1  0
 25 18  1  0
 27 25  2  0
M  END
$$$$
