TKH.pdb
     RDKit          3D

 27 27  0  0  1  0  0  0  0  0999 V2000
    4.9654  -18.6750   24.0137 C   0  0  0  0  0  0  0  0  0  0  0  0
    5.2752  -19.7693   23.0315 C   0  0  1  0  0  0  0  0  0  0  0  0
    4.2669  -20.7176   22.9635 O   0  0  0  0  0  0  0  0  0  0  0  0
    5.5347  -19.1663   21.6431 C   0  0  2  0  0  0  0  0  0  0  0  0
    5.8056  -20.2446   20.7063 N   0  0  0  0  0  0  0  0  0  0  0  0
    6.7816  -18.3764   21.7661 C   0  0  0  0  0  0  0  0  0  0  0  0
    7.8625  -19.0200   21.8467 O   0  0  0  0  0  0  0  0  0  0  0  0
    6.8395  -16.9811   21.7984 N   0  0  0  0  0  0  0  0  0  0  0  0
    8.0867  -16.2137   21.9494 C   0  0  1  0  0  0  0  0  0  0  0  0
    7.8848  -14.8366   21.4071 C   0  0  0  0  0  0  0  0  0  0  0  0
    7.9660  -14.6771   19.9458 C   0  0  0  0  0  0  0  0  0  0  0  0
    7.6702  -13.2765   19.4480 C   0  0  0  0  0  0  0  0  0  0  0  0
    7.8199  -13.2269   17.9203 C   0  0  0  0  0  0  0  0  0  0  0  0
    7.4705  -11.9287   17.4140 N   0  0  0  0  0  0  0  0  0  0  0  0
    8.4763  -16.2768   23.3745 C   0  0  0  0  0  0  0  0  0  0  0  0
    7.6496  -15.8089   24.2283 O   0  0  0  0  0  0  0  0  0  0  0  0
    9.6626  -16.8016   23.8828 N   0  0  0  0  0  0  0  0  0  0  0  0
   10.0180  -16.7719   25.3037 C   0  0  1  0  0  0  0  0  0  0  0  0
    9.9913  -18.1239   25.9073 C   0  0  0  0  0  0  0  0  0  0  0  0
    8.6033  -18.5487   26.1801 C   0  0  0  0  0  0  0  0  0  0  0  0
    7.4046  -17.8650   26.0458 C   0  0  0  0  0  0  0  0  0  0  0  0
    6.3717  -18.6320   26.4342 N   0  0  0  0  0  0  0  0  0  0  0  0
    6.9005  -19.7904   26.8120 C   0  0  0  0  0  0  0  0  0  0  0  0
    8.2334  -19.7688   26.6708 N   0  0  0  0  0  0  0  0  0  0  0  0
   11.3055  -16.0840   25.4616 C   0  0  0  0  0  0  0  0  0  0  0  0
   12.0307  -15.6182   24.3683 O   0  0  0  0  0  0  0  0  0  0  0  0
   11.7837  -15.8998   26.5957 O   0  0  0  0  0  0  0  0  0  0  0  0
  2  3  1  0
  2  1  1  1
  4  2  1  0
  4  5  1  6
  6  4  1  0
  6  7  2  0
  8  6  1  0
  9 10  1  1
  9  8  1  0
 11 10  1  0
 11 12  1  0
 13 12  1  0
 13 14  1  0
 15  9  1  0
 16 15  2  0
 17 15  1  0
 18 17  1  0
 18 19  1  6
 19 20  1  0
 20 21  2  0
 21 22  1  0
 23 22  1  0
 24 20  1  0
 24 23  2  0
 25 26  1  0
 25 18  1  0
 27 25  2  0
M  END
$$$$
