TKH.pdb
     RDKit          3D

 27 27  0  0  1  0  0  0  0  0999 V2000
   10.7386  -12.5773   18.5563 C   0  0  0  0  0  0  0  0  0  0  0  0
   10.2790  -13.6031   19.5536 C   0  0  1  0  0  0  0  0  0  0  0  0
   10.2194  -13.0961   20.8420 O   0  0  0  0  0  0  0  0  0  0  0  0
    8.9103  -14.1605   19.1360 C   0  0  2  0  0  0  0  0  0  0  0  0
    7.9248  -13.0949   19.2179 N   0  0  0  0  0  0  0  0  0  0  0  0
    8.5471  -15.1657   20.1614 C   0  0  0  0  0  0  0  0  0  0  0  0
    7.6392  -14.8504   20.9771 O   0  0  0  0  0  0  0  0  0  0  0  0
    9.1367  -16.4261   20.2839 N   0  0  0  0  0  0  0  0  0  0  0  0
    8.7995  -17.3916   21.3428 C   0  0  1  0  0  0  0  0  0  0  0  0
    9.2977  -18.7442   20.9511 C   0  0  0  0  0  0  0  0  0  0  0  0
    9.1609  -19.8193   21.9476 C   0  0  0  0  0  0  0  0  0  0  0  0
    7.8028  -20.4918   21.9656 C   0  0  0  0  0  0  0  0  0  0  0  0
    7.7973  -21.6213   23.0062 C   0  0  0  0  0  0  0  0  0  0  0  0
    6.4972  -22.2256   23.0983 N   0  0  0  0  0  0  0  0  0  0  0  0
    9.3441  -16.8650   22.6127 C   0  0  0  0  0  0  0  0  0  0  0  0
   10.5589  -16.4704   22.6094 O   0  0  0  0  0  0  0  0  0  0  0  0
    8.6590  -16.7531   23.8207 N   0  0  0  0  0  0  0  0  0  0  0  0
    9.2754  -16.2731   25.0599 C   0  0  1  0  0  0  0  0  0  0  0  0
    8.2609  -15.8878   26.0674 C   0  0  0  0  0  0  0  0  0  0  0  0
    7.5408  -14.6690   25.6464 C   0  0  0  0  0  0  0  0  0  0  0  0
    7.7597  -13.8117   24.5789 C   0  0  0  0  0  0  0  0  0  0  0  0
    6.8710  -12.8036   24.5865 N   0  0  0  0  0  0  0  0  0  0  0  0
    6.0939  -13.0115   25.6434 C   0  0  0  0  0  0  0  0  0  0  0  0
    6.4716  -14.1200   26.2957 N   0  0  0  0  0  0  0  0  0  0  0  0
   10.2288  -17.2801   25.5425 C   0  0  0  0  0  0  0  0  0  0  0  0
   10.3405  -18.5336   24.9472 O   0  0  0  0  0  0  0  0  0  0  0  0
   10.9698  -17.0298   26.5106 O   0  0  0  0  0  0  0  0  0  0  0  0
  2  3  1  0
  2  1  1  6
  4  2  1  0
  4  5  1  1
  6  4  1  0
  6  7  2  0
  8  6  1  0
  9 10  1  6
  9  8  1  0
 11 10  1  0
 11 12  1  0
 13 12  1  0
 13 14  1  0
 15  9  1  0
 16 15  2  0
 17 15  1  0
 18 17  1  0
 18 19  1  1
 19 20  1  0
 20 21  2  0
 21 22  1  0
 23 22  1  0
 24 20  1  0
 24 23  2  0
 25 26  1  0
 25 18  1  0
 27 25  2  0
M  END
$$$$
