TKH.pdb
     RDKit          3D

 27 27  0  0  1  0  0  0  0  0999 V2000
    7.5161  -21.5532   19.3001 C   0  0  0  0  0  0  0  0  0  0  0  0
    8.4736  -20.4375   19.6109 C   0  0  1  0  0  0  0  0  0  0  0  0
    9.7923  -20.8635   19.6266 O   0  0  0  0  0  0  0  0  0  0  0  0
    8.2935  -19.2976   18.5975 C   0  0  2  0  0  0  0  0  0  0  0  0
    8.7122  -19.7651   17.2861 N   0  0  0  0  0  0  0  0  0  0  0  0
    9.2435  -18.2358   19.0021 C   0  0  0  0  0  0  0  0  0  0  0  0
   10.3620  -18.2152   18.4210 O   0  0  0  0  0  0  0  0  0  0  0  0
    8.9861  -17.2661   19.9740 N   0  0  0  0  0  0  0  0  0  0  0  0
    9.9294  -16.1957   20.3370 C   0  0  1  0  0  0  0  0  0  0  0  0
    9.1758  -14.9199   20.5256 C   0  0  0  0  0  0  0  0  0  0  0  0
    8.5203  -14.3509   19.3364 C   0  0  0  0  0  0  0  0  0  0  0  0
    7.7151  -13.0947   19.6020 C   0  0  0  0  0  0  0  0  0  0  0  0
    7.0472  -12.6225   18.3022 C   0  0  0  0  0  0  0  0  0  0  0  0
    6.2231  -11.4700   18.5399 N   0  0  0  0  0  0  0  0  0  0  0  0
   10.6897  -16.6567   21.5185 C   0  0  0  0  0  0  0  0  0  0  0  0
   10.0628  -16.7195   22.6296 O   0  0  0  0  0  0  0  0  0  0  0  0
   12.0306  -17.0345   21.5406 N   0  0  0  0  0  0  0  0  0  0  0  0
   13.0474  -16.3646   22.3550 C   0  0  1  0  0  0  0  0  0  0  0  0
   13.2990  -14.9801   21.8941 C   0  0  0  0  0  0  0  0  0  0  0  0
   14.0199  -14.9796   20.6051 C   0  0  0  0  0  0  0  0  0  0  0  0
   14.4767  -16.0297   19.8233 C   0  0  0  0  0  0  0  0  0  0  0  0
   15.1086  -15.5706   18.7297 N   0  0  0  0  0  0  0  0  0  0  0  0
   15.0577  -14.2457   18.8093 C   0  0  0  0  0  0  0  0  0  0  0  0
   14.4125  -13.8645   19.9207 N   0  0  0  0  0  0  0  0  0  0  0  0
   12.6626  -16.4516   23.7693 C   0  0  0  0  0  0  0  0  0  0  0  0
   11.4349  -16.9730   24.1680 O   0  0  0  0  0  0  0  0  0  0  0  0
   13.4395  -16.0541   24.6567 O   0  0  0  0  0  0  0  0  0  0  0  0
  2  3  1  0
  2  1  1  6
  4  2  1  0
  4  5  1  6
  6  4  1  0
  6  7  2  0
  8  6  1  0
  9 10  1  1
  9  8  1  0
 11 10  1  0
 11 12  1  0
 13 12  1  0
 13 14  1  0
 15  9  1  0
 16 15  2  0
 17 15  1  0
 18 17  1  0
 18 19  1  6
 19 20  1  0
 20 21  2  0
 21 22  1  0
 23 22  1  0
 24 20  1  0
 24 23  2  0
 25 26  1  0
 25 18  1  0
 27 25  2  0
M  END
$$$$
