TKH.pdb
     RDKit          3D

 27 27  0  0  1  0  0  0  0  0999 V2000
    7.9035  -15.8341   16.8210 C   0  0  0  0  0  0  0  0  0  0  0  0
    8.2534  -14.3943   17.0717 C   0  0  1  0  0  0  0  0  0  0  0  0
    8.1171  -13.6131   15.9352 O   0  0  0  0  0  0  0  0  0  0  0  0
    7.3853  -13.8368   18.2094 C   0  0  2  0  0  0  0  0  0  0  0  0
    7.7396  -12.4444   18.4309 N   0  0  0  0  0  0  0  0  0  0  0  0
    7.7780  -14.5824   19.4275 C   0  0  0  0  0  0  0  0  0  0  0  0
    8.8160  -14.1936   20.0280 O   0  0  0  0  0  0  0  0  0  0  0  0
    7.0830  -15.6756   19.9498 N   0  0  0  0  0  0  0  0  0  0  0  0
    7.4880  -16.4030   21.1639 C   0  0  1  0  0  0  0  0  0  0  0  0
    6.4472  -17.4214   21.4967 C   0  0  0  0  0  0  0  0  0  0  0  0
    6.7714  -18.3813   22.5649 C   0  0  0  0  0  0  0  0  0  0  0  0
    5.6911  -19.4089   22.8370 C   0  0  0  0  0  0  0  0  0  0  0  0
    6.1511  -20.3627   23.9493 C   0  0  0  0  0  0  0  0  0  0  0  0
    5.1845  -21.4038   24.1626 N   0  0  0  0  0  0  0  0  0  0  0  0
    8.8431  -16.9446   20.9250 C   0  0  0  0  0  0  0  0  0  0  0  0
    9.0838  -17.4289   19.7678 O   0  0  0  0  0  0  0  0  0  0  0  0
    9.8918  -16.9774   21.8415 N   0  0  0  0  0  0  0  0  0  0  0  0
   11.2925  -16.7499   21.4780 C   0  0  1  0  0  0  0  0  0  0  0  0
   11.4660  -15.4971   20.7079 C   0  0  0  0  0  0  0  0  0  0  0  0
   12.8903  -15.2708   20.3891 C   0  0  0  0  0  0  0  0  0  0  0  0
   14.0159  -16.0214   20.6924 C   0  0  0  0  0  0  0  0  0  0  0  0
   15.1263  -15.4270   20.2237 N   0  0  0  0  0  0  0  0  0  0  0  0
   14.7185  -14.3117   19.6287 C   0  0  0  0  0  0  0  0  0  0  0  0
   13.3860  -14.1926   19.7124 N   0  0  0  0  0  0  0  0  0  0  0  0
   12.1188  -16.8129   22.6901 C   0  0  0  0  0  0  0  0  0  0  0  0
   11.6980  -16.2627   23.8977 O   0  0  0  0  0  0  0  0  0  0  0  0
   13.2318  -17.3690   22.6628 O   0  0  0  0  0  0  0  0  0  0  0  0
  2  3  1  0
  2  1  1  6
  4  2  1  0
  4  5  1  1
  6  4  1  0
  6  7  2  0
  8  6  1  0
  9 10  1  6
  9  8  1  0
 11 10  1  0
 11 12  1  0
 13 12  1  0
 13 14  1  0
 15  9  1  0
 16 15  2  0
 17 15  1  0
 18 17  1  0
 18 19  1  1
 19 20  1  0
 20 21  2  0
 21 22  1  0
 23 22  1  0
 24 20  1  0
 24 23  2  0
 25 26  1  0
 25 18  1  0
 27 25  2  0
M  END
$$$$
