ESY.pdb
     RDKit          3D

 28 28  0  0  1  0  0  0  0  0999 V2000
   17.5544  -11.2643  -17.4129 N   0  0  0  0  0  0  0  0  0  0  0  0
   18.9418  -10.7769  -17.5027 C   0  0  1  0  0  0  0  0  0  0  0  0
   19.2707  -10.4475  -18.9135 C   0  0  0  0  0  0  0  0  0  0  0  0
   19.4488  -11.6694  -19.7593 C   0  0  0  0  0  0  0  0  0  0  0  0
   18.4271  -11.8005  -20.7969 C   0  0  0  0  0  0  0  0  0  0  0  0
   17.4931  -10.9915  -20.9647 O   0  0  0  0  0  0  0  0  0  0  0  0
   18.9961   -9.5439  -16.6660 C   0  0  0  0  0  0  0  0  0  0  0  0
   18.0122   -8.7316  -16.6406 O   0  0  0  0  0  0  0  0  0  0  0  0
   18.5170  -12.9069  -21.6453 O   0  0  0  0  0  0  0  0  0  0  0  0
   20.8591   -9.2450  -13.1919 O   0  0  0  0  0  0  0  0  0  0  0  0
   19.8635   -8.3731  -13.5870 C   0  0  0  0  0  0  0  0  0  0  0  0
   20.0667   -8.0181  -15.0426 C   0  0  2  0  0  0  0  0  0  0  0  0
   20.1094   -9.1986  -15.8655 N   0  0  0  0  0  0  0  0  0  0  0  0
   21.3393   -7.2831  -15.2182 C   0  0  0  0  0  0  0  0  0  0  0  0
   22.3745   -7.9376  -15.5274 O   0  0  0  0  0  0  0  0  0  0  0  0
   27.4136   -2.2692  -18.4311 O   0  0  0  0  0  0  0  0  0  0  0  0
   26.3265   -3.0349  -18.0219 C   0  0  0  0  0  0  0  0  0  0  0  0
   26.5372   -4.1431  -17.2233 C   0  0  0  0  0  0  0  0  0  0  0  0
   25.4800   -4.9055  -16.8128 C   0  0  0  0  0  0  0  0  0  0  0  0
   24.1710   -4.5970  -17.1796 C   0  0  0  0  0  0  0  0  0  0  0  0
   23.0429   -5.4342  -16.7309 C   0  0  0  0  0  0  0  0  0  0  0  0
   22.6837   -5.2301  -15.2712 C   0  0  2  0  0  0  0  0  0  0  0  0
   21.4083   -5.8762  -15.0461 N   0  0  0  0  0  0  0  0  0  0  0  0
   22.5567   -3.8079  -14.9007 C   0  0  0  0  0  0  0  0  0  0  0  0
   21.4584   -3.1884  -14.9175 O   0  0  0  0  0  0  0  0  0  0  0  0
   23.9890   -3.5030  -17.9652 C   0  0  0  0  0  0  0  0  0  0  0  0
   25.0498   -2.7193  -18.3900 C   0  0  0  0  0  0  0  0  0  0  0  0
   23.6742   -3.1018  -14.5150 O   0  0  0  0  0  0  0  0  0  0  0  0
  2  1  1  6
  2  7  1  0
  3  2  1  0
  4  3  1  0
  4  5  1  0
  5  6  2  0
  7  8  2  0
  9  5  1  0
 12 11  1  1
 11 10  1  0
 13  7  1  0
 13 12  1  0
 14 12  1  0
 14 15  2  0
 16 17  1  0
 17 27  2  0
 17 18  1  0
 18 19  2  0
 19 20  1  0
 20 21  1  0
 22 21  1  6
 22 24  1  0
 22 23  1  0
 23 14  1  0
 24 28  1  0
 25 24  2  0
 26 20  2  0
 27 26  1  0
M  END
$$$$
