ESY.pdb
     RDKit          3D

 28 28  0  0  1  0  0  0  0  0999 V2000
   14.9663  -10.6982  -17.7393 N   0  0  0  0  0  0  0  0  0  0  0  0
   15.8767  -10.6018  -16.5851 C   0  0  1  0  0  0  0  0  0  0  0  0
   16.3627  -11.9549  -16.2112 C   0  0  0  0  0  0  0  0  0  0  0  0
   15.2715  -12.8253  -15.6711 C   0  0  0  0  0  0  0  0  0  0  0  0
   15.7201  -14.1838  -15.3694 C   0  0  0  0  0  0  0  0  0  0  0  0
   16.3615  -14.9007  -16.1628 O   0  0  0  0  0  0  0  0  0  0  0  0
   17.0197   -9.7570  -17.0362 C   0  0  0  0  0  0  0  0  0  0  0  0
   17.3198   -9.6764  -18.2738 O   0  0  0  0  0  0  0  0  0  0  0  0
   15.4021  -14.6961  -14.1090 O   0  0  0  0  0  0  0  0  0  0  0  0
   18.5036   -6.6945  -14.8936 O   0  0  0  0  0  0  0  0  0  0  0  0
   18.7464   -6.7544  -16.2519 C   0  0  0  0  0  0  0  0  0  0  0  0
   18.9036   -8.2010  -16.6625 C   0  0  2  0  0  0  0  0  0  0  0  0
   17.8273   -9.0078  -16.1495 N   0  0  0  0  0  0  0  0  0  0  0  0
   20.1792   -8.7450  -16.1454 C   0  0  0  0  0  0  0  0  0  0  0  0
   20.1617   -9.3928  -15.0612 O   0  0  0  0  0  0  0  0  0  0  0  0
   28.5277  -11.4128  -15.4996 O   0  0  0  0  0  0  0  0  0  0  0  0
   27.3292  -10.8723  -15.9543 C   0  0  0  0  0  0  0  0  0  0  0  0
   26.1900  -11.6550  -15.9628 C   0  0  0  0  0  0  0  0  0  0  0  0
   25.0049  -11.1390  -16.4063 C   0  0  0  0  0  0  0  0  0  0  0  0
   24.9044   -9.8244  -16.8590 C   0  0  0  0  0  0  0  0  0  0  0  0
   23.6178   -9.2862  -17.3384 C   0  0  0  0  0  0  0  0  0  0  0  0
   22.6142   -9.0432  -16.2270 C   0  0  2  0  0  0  0  0  0  0  0  0
   21.4002   -8.5503  -16.8418 N   0  0  0  0  0  0  0  0  0  0  0  0
   23.0740   -8.0470  -15.2408 C   0  0  0  0  0  0  0  0  0  0  0  0
   23.0307   -6.8038  -15.4478 O   0  0  0  0  0  0  0  0  0  0  0  0
   26.0378   -9.0746  -16.8412 C   0  0  0  0  0  0  0  0  0  0  0  0
   27.2473   -9.5823  -16.3948 C   0  0  0  0  0  0  0  0  0  0  0  0
   23.5779   -8.4686  -14.0307 O   0  0  0  0  0  0  0  0  0  0  0  0
  2  1  1  6
  2  7  1  0
  3  2  1  0
  4  3  1  0
  4  5  1  0
  5  6  2  0
  7  8  2  0
  9  5  1  0
 12 11  1  1
 11 10  1  0
 13  7  1  0
 13 12  1  0
 14 12  1  0
 14 15  2  0
 16 17  1  0
 17 27  2  0
 17 18  1  0
 18 19  2  0
 19 20  1  0
 20 21  1  0
 22 21  1  6
 22 24  1  0
 22 23  1  0
 23 14  1  0
 24 28  1  0
 25 24  2  0
 26 20  2  0
 27 26  1  0
M  END
$$$$
