ESY.pdb
     RDKit          3D

 28 28  0  0  1  0  0  0  0  0999 V2000
   16.9963  -14.5455  -15.9296 N   0  0  0  0  0  0  0  0  0  0  0  0
   18.4069  -14.8133  -15.5996 C   0  0  1  0  0  0  0  0  0  0  0  0
   18.8043  -16.1446  -16.1255 C   0  0  0  0  0  0  0  0  0  0  0  0
   17.7995  -17.2076  -15.8087 C   0  0  0  0  0  0  0  0  0  0  0  0
   18.1729  -18.5213  -16.3309 C   0  0  0  0  0  0  0  0  0  0  0  0
   17.7592  -18.9879  -17.4108 O   0  0  0  0  0  0  0  0  0  0  0  0
   19.1945  -13.7429  -16.2758 C   0  0  0  0  0  0  0  0  0  0  0  0
   20.4686  -13.8011  -16.3176 O   0  0  0  0  0  0  0  0  0  0  0  0
   19.0489  -19.2894  -15.5598 O   0  0  0  0  0  0  0  0  0  0  0  0
   17.5192  -10.7607  -18.6033 O   0  0  0  0  0  0  0  0  0  0  0  0
   18.8264  -11.1468  -18.8260 C   0  0  0  0  0  0  0  0  0  0  0  0
   19.4299  -11.6222  -17.5237 C   0  0  2  0  0  0  0  0  0  0  0  0
   18.6017  -12.6209  -16.8999 N   0  0  0  0  0  0  0  0  0  0  0  0
   19.5786  -10.4888  -16.5837 C   0  0  0  0  0  0  0  0  0  0  0  0
   18.7280  -10.3582  -15.6591 O   0  0  0  0  0  0  0  0  0  0  0  0
   22.5308   -2.5488  -13.9967 O   0  0  0  0  0  0  0  0  0  0  0  0
   22.4085   -3.8717  -14.4096 C   0  0  0  0  0  0  0  0  0  0  0  0
   22.0503   -4.8405  -13.4912 C   0  0  0  0  0  0  0  0  0  0  0  0
   21.9258   -6.1444  -13.8808 C   0  0  0  0  0  0  0  0  0  0  0  0
   22.1523   -6.5377  -15.1989 C   0  0  0  0  0  0  0  0  0  0  0  0
   22.0176   -7.9504  -15.6000 C   0  0  0  0  0  0  0  0  0  0  0  0
   20.5894   -8.3550  -15.9128 C   0  0  2  0  0  0  0  0  0  0  0  0
   20.6472   -9.5633  -16.7074 N   0  0  0  0  0  0  0  0  0  0  0  0
   19.8528   -7.3305  -16.6770 C   0  0  0  0  0  0  0  0  0  0  0  0
   19.8417   -7.2883  -17.9373 O   0  0  0  0  0  0  0  0  0  0  0  0
   22.5034   -5.5674  -16.0834 C   0  0  0  0  0  0  0  0  0  0  0  0
   22.6339   -4.2409  -15.7049 C   0  0  0  0  0  0  0  0  0  0  0  0
   19.1363   -6.3644  -16.0065 O   0  0  0  0  0  0  0  0  0  0  0  0
  2  1  1  6
  2  7  1  0
  3  2  1  0
  4  3  1  0
  4  5  1  0
  5  6  2  0
  7  8  2  0
  9  5  1  0
 12 11  1  6
 11 10  1  0
 13  7  1  0
 13 12  1  0
 14 12  1  0
 14 15  2  0
 16 17  1  0
 17 27  2  0
 17 18  1  0
 18 19  2  0
 19 20  1  0
 20 21  1  0
 22 21  1  6
 22 24  1  0
 22 23  1  0
 23 14  1  0
 24 28  1  0
 25 24  2  0
 26 20  2  0
 27 26  1  0
M  END
$$$$
