ESY.pdb
     RDKit          3D

 28 28  0  0  1  0  0  0  0  0999 V2000
   18.1470  -11.7671  -17.7081 N   0  0  0  0  0  0  0  0  0  0  0  0
   19.3906  -11.3467  -17.0394 C   0  0  1  0  0  0  0  0  0  0  0  0
   20.5279  -11.4274  -17.9918 C   0  0  0  0  0  0  0  0  0  0  0  0
   20.8595  -12.8376  -18.3682 C   0  0  0  0  0  0  0  0  0  0  0  0
   22.0739  -12.9434  -19.1754 C   0  0  0  0  0  0  0  0  0  0  0  0
   22.2554  -13.8081  -20.0555 O   0  0  0  0  0  0  0  0  0  0  0  0
   19.1728   -9.9309  -16.6253 C   0  0  0  0  0  0  0  0  0  0  0  0
   18.6784   -9.0836  -17.4414 O   0  0  0  0  0  0  0  0  0  0  0  0
   23.0849  -12.0099  -18.9334 O   0  0  0  0  0  0  0  0  0  0  0  0
   18.5048   -8.8533  -12.8936 O   0  0  0  0  0  0  0  0  0  0  0  0
   18.1804   -7.9700  -13.9046 C   0  0  0  0  0  0  0  0  0  0  0  0
   19.2183   -8.0695  -14.9996 C   0  0  2  0  0  0  0  0  0  0  0  0
   19.4897   -9.4426  -15.3366 N   0  0  0  0  0  0  0  0  0  0  0  0
   20.4845   -7.4389  -14.5645 C   0  0  0  0  0  0  0  0  0  0  0  0
   21.3309   -8.1488  -13.9519 O   0  0  0  0  0  0  0  0  0  0  0  0
   24.2989   -8.5031  -19.5336 O   0  0  0  0  0  0  0  0  0  0  0  0
   23.8872   -7.6017  -18.5572 C   0  0  0  0  0  0  0  0  0  0  0  0
   24.6879   -7.3834  -17.4520 C   0  0  0  0  0  0  0  0  0  0  0  0
   24.2978   -6.5011  -16.4841 C   0  0  0  0  0  0  0  0  0  0  0  0
   23.0962   -5.8003  -16.5759 C   0  0  0  0  0  0  0  0  0  0  0  0
   22.6894   -4.8555  -15.5192 C   0  0  0  0  0  0  0  0  0  0  0  0
   22.0054   -5.5251  -14.3423 C   0  0  2  0  0  0  0  0  0  0  0  0
   20.7537   -6.0699  -14.8234 N   0  0  0  0  0  0  0  0  0  0  0  0
   21.7129   -4.5929  -13.2370 C   0  0  0  0  0  0  0  0  0  0  0  0
   22.6123   -4.0049  -12.5772 O   0  0  0  0  0  0  0  0  0  0  0  0
   22.3261   -6.0318  -17.6715 C   0  0  0  0  0  0  0  0  0  0  0  0
   22.7068   -6.9229  -18.6619 C   0  0  0  0  0  0  0  0  0  0  0  0
   20.4052   -4.3362  -12.8903 O   0  0  0  0  0  0  0  0  0  0  0  0
  2  1  1  6
  2  7  1  0
  3  2  1  0
  4  3  1  0
  4  5  1  0
  5  6  2  0
  7  8  2  0
  9  5  1  0
 12 11  1  1
 11 10  1  0
 13  7  1  0
 13 12  1  0
 14 12  1  0
 14 15  2  0
 16 17  1  0
 17 27  2  0
 17 18  1  0
 18 19  2  0
 19 20  1  0
 20 21  1  0
 22 21  1  6
 22 24  1  0
 22 23  1  0
 23 14  1  0
 24 28  1  0
 25 24  2  0
 26 20  2  0
 27 26  1  0
M  END
$$$$
