ESY.pdb
     RDKit          3D

 28 28  0  0  1  0  0  0  0  0999 V2000
   18.4684   -5.9339  -17.2573 N   0  0  0  0  0  0  0  0  0  0  0  0
   18.8474   -7.2696  -17.7498 C   0  0  1  0  0  0  0  0  0  0  0  0
   20.2117   -7.2231  -18.3357 C   0  0  0  0  0  0  0  0  0  0  0  0
   20.2637   -6.4254  -19.6010 C   0  0  0  0  0  0  0  0  0  0  0  0
   21.5678   -6.4823  -20.2597 C   0  0  0  0  0  0  0  0  0  0  0  0
   21.8250   -5.9343  -21.3498 O   0  0  0  0  0  0  0  0  0  0  0  0
   18.8361   -8.1631  -16.5560 C   0  0  0  0  0  0  0  0  0  0  0  0
   18.7834   -7.6741  -15.3785 O   0  0  0  0  0  0  0  0  0  0  0  0
   22.5783   -7.1996  -19.6143 O   0  0  0  0  0  0  0  0  0  0  0  0
   16.3901  -10.3777  -15.6241 O   0  0  0  0  0  0  0  0  0  0  0  0
   17.4286  -10.0946  -14.7586 C   0  0  0  0  0  0  0  0  0  0  0  0
   18.7416  -10.3738  -15.4544 C   0  0  2  0  0  0  0  0  0  0  0  0
   18.8816   -9.5737  -16.6430 N   0  0  0  0  0  0  0  0  0  0  0  0
   18.8234  -11.7998  -15.8419 C   0  0  0  0  0  0  0  0  0  0  0  0
   18.3329  -12.1509  -16.9517 O   0  0  0  0  0  0  0  0  0  0  0  0
   20.7402  -20.4034  -15.8253 O   0  0  0  0  0  0  0  0  0  0  0  0
   20.6995  -19.0373  -15.5659 C   0  0  0  0  0  0  0  0  0  0  0  0
   20.1116  -18.5834  -14.4003 C   0  0  0  0  0  0  0  0  0  0  0  0
   20.0636  -17.2446  -14.1308 C   0  0  0  0  0  0  0  0  0  0  0  0
   20.5981  -16.3031  -15.0090 C   0  0  0  0  0  0  0  0  0  0  0  0
   20.5330  -14.8618  -14.7035 C   0  0  0  0  0  0  0  0  0  0  0  0
   19.3950  -14.1471  -15.4075 C   0  0  2  0  0  0  0  0  0  0  0  0
   19.4360  -12.7602  -14.9956 N   0  0  0  0  0  0  0  0  0  0  0  0
   18.0688  -14.6950  -15.0653 C   0  0  0  0  0  0  0  0  0  0  0  0
   17.3901  -14.2901  -14.0827 O   0  0  0  0  0  0  0  0  0  0  0  0
   21.1707  -16.7734  -16.1482 C   0  0  0  0  0  0  0  0  0  0  0  0
   21.2277  -18.1274  -16.4368 C   0  0  0  0  0  0  0  0  0  0  0  0
   17.5247  -15.6957  -15.8392 O   0  0  0  0  0  0  0  0  0  0  0  0
  2  1  1  1
  2  7  1  0
  3  2  1  0
  4  3  1  0
  4  5  1  0
  5  6  2  0
  7  8  2  0
  9  5  1  0
 12 11  1  6
 11 10  1  0
 13  7  1  0
 13 12  1  0
 14 12  1  0
 14 15  2  0
 16 17  1  0
 17 27  2  0
 17 18  1  0
 18 19  2  0
 19 20  1  0
 20 21  1  0
 22 21  1  1
 22 24  1  0
 22 23  1  0
 23 14  1  0
 24 28  1  0
 25 24  2  0
 26 20  2  0
 27 26  1  0
M  END
$$$$
