ESY.pdb
     RDKit          3D

 28 28  0  0  1  0  0  0  0  0999 V2000
   20.0072  -11.2954  -17.0860 N   0  0  0  0  0  0  0  0  0  0  0  0
   19.5806  -10.3294  -18.1132 C   0  0  1  0  0  0  0  0  0  0  0  0
   18.2819   -9.7210  -17.7255 C   0  0  0  0  0  0  0  0  0  0  0  0
   17.1393  -10.6784  -17.8597 C   0  0  0  0  0  0  0  0  0  0  0  0
   15.8404  -10.0577  -17.6047 C   0  0  0  0  0  0  0  0  0  0  0  0
   15.1265  -10.3115  -16.6143 O   0  0  0  0  0  0  0  0  0  0  0  0
   20.6413   -9.2822  -18.1544 C   0  0  0  0  0  0  0  0  0  0  0  0
   21.4749   -9.1632  -17.1955 O   0  0  0  0  0  0  0  0  0  0  0  0
   15.3846   -9.1238  -18.5386 O   0  0  0  0  0  0  0  0  0  0  0  0
   22.6481   -7.8214  -21.4363 O   0  0  0  0  0  0  0  0  0  0  0  0
   22.1023   -6.8567  -20.6122 C   0  0  0  0  0  0  0  0  0  0  0  0
   21.8924   -7.4447  -19.2351 C   0  0  2  0  0  0  0  0  0  0  0  0
   20.7932   -8.3743  -19.2278 N   0  0  0  0  0  0  0  0  0  0  0  0
   21.5997   -6.3715  -18.2587 C   0  0  0  0  0  0  0  0  0  0  0  0
   20.4133   -5.9476  -18.1681 O   0  0  0  0  0  0  0  0  0  0  0  0
   19.7173   -9.7332  -13.1243 O   0  0  0  0  0  0  0  0  0  0  0  0
   20.4730   -8.6721  -13.6124 C   0  0  0  0  0  0  0  0  0  0  0  0
   19.9486   -7.3936  -13.5837 C   0  0  0  0  0  0  0  0  0  0  0  0
   20.6782   -6.3406  -14.0593 C   0  0  0  0  0  0  0  0  0  0  0  0
   21.9583   -6.5159  -14.5824 C   0  0  0  0  0  0  0  0  0  0  0  0
   22.7291   -5.3681  -15.0954 C   0  0  0  0  0  0  0  0  0  0  0  0
   22.2302   -4.8563  -16.4335 C   0  0  2  0  0  0  0  0  0  0  0  0
   22.6191   -5.8233  -17.4378 N   0  0  0  0  0  0  0  0  0  0  0  0
   22.8026   -3.5475  -16.8015 C   0  0  0  0  0  0  0  0  0  0  0  0
   23.5264   -3.3753  -17.8197 O   0  0  0  0  0  0  0  0  0  0  0  0
   22.4524   -7.7819  -14.6002 C   0  0  0  0  0  0  0  0  0  0  0  0
   21.7260   -8.8605  -14.1220 C   0  0  0  0  0  0  0  0  0  0  0  0
   22.5498   -2.4472  -16.0131 O   0  0  0  0  0  0  0  0  0  0  0  0
  2  1  1  1
  2  7  1  0
  3  2  1  0
  4  3  1  0
  4  5  1  0
  5  6  2  0
  7  8  2  0
  9  5  1  0
 12 11  1  6
 11 10  1  0
 13  7  1  0
 13 12  1  0
 14 12  1  0
 14 15  2  0
 16 17  1  0
 17 27  2  0
 17 18  1  0
 18 19  2  0
 19 20  1  0
 20 21  1  0
 22 21  1  1
 22 24  1  0
 22 23  1  0
 23 14  1  0
 24 28  1  0
 25 24  2  0
 26 20  2  0
 27 26  1  0
M  END
$$$$
