ESY.pdb
     RDKit          3D

 28 28  0  0  1  0  0  0  0  0999 V2000
   22.7201  -14.0597  -17.5729 N   0  0  0  0  0  0  0  0  0  0  0  0
   22.9170  -13.0371  -16.5309 C   0  0  1  0  0  0  0  0  0  0  0  0
   24.3224  -12.5563  -16.5548 C   0  0  0  0  0  0  0  0  0  0  0  0
   25.2893  -13.5923  -16.0733 C   0  0  0  0  0  0  0  0  0  0  0  0
   26.6765  -13.1305  -16.0881 C   0  0  0  0  0  0  0  0  0  0  0  0
   27.0460  -12.0419  -16.5712 O   0  0  0  0  0  0  0  0  0  0  0  0
   21.9909  -11.9203  -16.8750 C   0  0  0  0  0  0  0  0  0  0  0  0
   21.7502  -11.6272  -18.0934 O   0  0  0  0  0  0  0  0  0  0  0  0
   27.6361  -13.9734  -15.5218 O   0  0  0  0  0  0  0  0  0  0  0  0
   19.2156  -10.4903  -14.3294 O   0  0  0  0  0  0  0  0  0  0  0  0
   19.0627  -10.2772  -15.6854 C   0  0  0  0  0  0  0  0  0  0  0  0
   20.4257  -10.0916  -16.3131 C   0  0  2  0  0  0  0  0  0  0  0  0
   21.3337  -11.1307  -15.9032 N   0  0  0  0  0  0  0  0  0  0  0  0
   21.0008   -8.7877  -15.9134 C   0  0  0  0  0  0  0  0  0  0  0  0
   21.7643   -8.7497  -14.9079 O   0  0  0  0  0  0  0  0  0  0  0  0
   22.7812   -0.1388  -15.7562 O   0  0  0  0  0  0  0  0  0  0  0  0
   22.4358   -1.4338  -16.1290 C   0  0  0  0  0  0  0  0  0  0  0  0
   23.4302   -2.3746  -16.3203 C   0  0  0  0  0  0  0  0  0  0  0  0
   23.1075   -3.6510  -16.6866 C   0  0  0  0  0  0  0  0  0  0  0  0
   21.7836   -4.0436  -16.8774 C   0  0  0  0  0  0  0  0  0  0  0  0
   21.4547   -5.4244  -17.2773 C   0  0  0  0  0  0  0  0  0  0  0  0
   21.2013   -6.3486  -16.1013 C   0  0  2  0  0  0  0  0  0  0  0  0
   20.7092   -7.6008  -16.6346 N   0  0  0  0  0  0  0  0  0  0  0  0
   20.1998   -5.8198  -15.1560 C   0  0  0  0  0  0  0  0  0  0  0  0
   18.9593   -5.9969  -15.2981 O   0  0  0  0  0  0  0  0  0  0  0  0
   20.8238   -3.1011  -16.6837 C   0  0  0  0  0  0  0  0  0  0  0  0
   21.1337   -1.8027  -16.3122 C   0  0  0  0  0  0  0  0  0  0  0  0
   20.6129   -5.0962  -14.0598 O   0  0  0  0  0  0  0  0  0  0  0  0
  2  1  1  6
  2  7  1  0
  3  2  1  0
  4  3  1  0
  4  5  1  0
  5  6  2  0
  7  8  2  0
  9  5  1  0
 12 11  1  1
 11 10  1  0
 13  7  1  0
 13 12  1  0
 14 12  1  0
 14 15  2  0
 16 17  1  0
 17 27  2  0
 17 18  1  0
 18 19  2  0
 19 20  1  0
 20 21  1  0
 22 21  1  6
 22 24  1  0
 22 23  1  0
 23 14  1  0
 24 28  1  0
 25 24  2  0
 26 20  2  0
 27 26  1  0
M  END
$$$$
