ESY.pdb
     RDKit          3D

 28 28  0  0  1  0  0  0  0  0999 V2000
   17.1063  -13.2235  -17.4734 N   0  0  0  0  0  0  0  0  0  0  0  0
   17.8834  -12.8315  -16.2848 C   0  0  1  0  0  0  0  0  0  0  0  0
   19.2691  -13.3560  -16.3923 C   0  0  0  0  0  0  0  0  0  0  0  0
   19.7934  -13.3031  -17.7932 C   0  0  0  0  0  0  0  0  0  0  0  0
   21.1447  -13.8471  -17.9189 C   0  0  0  0  0  0  0  0  0  0  0  0
   21.7815  -13.8968  -18.9899 O   0  0  0  0  0  0  0  0  0  0  0  0
   17.9021  -11.3404  -16.2830 C   0  0  0  0  0  0  0  0  0  0  0  0
   17.8638  -10.6884  -17.3793 O   0  0  0  0  0  0  0  0  0  0  0  0
   21.7460  -14.3380  -16.7573 O   0  0  0  0  0  0  0  0  0  0  0  0
   17.7750   -9.0091  -12.8292 O   0  0  0  0  0  0  0  0  0  0  0  0
   17.2155   -8.5282  -13.9967 C   0  0  0  0  0  0  0  0  0  0  0  0
   17.9431   -9.1299  -15.1777 C   0  0  2  0  0  0  0  0  0  0  0  0
   17.9620  -10.5673  -15.1004 N   0  0  0  0  0  0  0  0  0  0  0  0
   19.3421   -8.6484  -15.2174 C   0  0  0  0  0  0  0  0  0  0  0  0
   20.2654   -9.4568  -14.9187 O   0  0  0  0  0  0  0  0  0  0  0  0
   26.5464   -4.1423  -17.2946 O   0  0  0  0  0  0  0  0  0  0  0  0
   25.3220   -4.7967  -17.2059 C   0  0  0  0  0  0  0  0  0  0  0  0
   24.1522   -4.0699  -17.3229 C   0  0  0  0  0  0  0  0  0  0  0  0
   22.9414   -4.6978  -17.2381 C   0  0  0  0  0  0  0  0  0  0  0  0
   22.8447   -6.0733  -17.0337 C   0  0  0  0  0  0  0  0  0  0  0  0
   21.5291   -6.7331  -16.9401 C   0  0  0  0  0  0  0  0  0  0  0  0
   21.0375   -6.8985  -15.5145 C   0  0  2  0  0  0  0  0  0  0  0  0
   19.6521   -7.3122  -15.5810 N   0  0  0  0  0  0  0  0  0  0  0  0
   21.1137   -5.6523  -14.7287 C   0  0  0  0  0  0  0  0  0  0  0  0
   20.1576   -4.8347  -14.6417 O   0  0  0  0  0  0  0  0  0  0  0  0
   24.0084   -6.7664  -16.9216 C   0  0  0  0  0  0  0  0  0  0  0  0
   25.2441   -6.1453  -17.0053 C   0  0  0  0  0  0  0  0  0  0  0  0
   22.2714   -5.3448  -14.0496 O   0  0  0  0  0  0  0  0  0  0  0  0
  2  1  1  6
  2  7  1  0
  3  2  1  0
  4  3  1  0
  4  5  1  0
  5  6  2  0
  7  8  2  0
  9  5  1  0
 12 11  1  1
 11 10  1  0
 13  7  1  0
 13 12  1  0
 14 12  1  0
 14 15  2  0
 16 17  1  0
 17 27  2  0
 17 18  1  0
 18 19  2  0
 19 20  1  0
 20 21  1  0
 22 21  1  6
 22 24  1  0
 22 23  1  0
 23 14  1  0
 24 28  1  0
 25 24  2  0
 26 20  2  0
 27 26  1  0
M  END
$$$$
