ESY.pdb
     RDKit          3D

 28 28  0  0  1  0  0  0  0  0999 V2000
   15.7461  -12.1201  -16.3808 N   0  0  0  0  0  0  0  0  0  0  0  0
   16.8582  -11.7190  -15.5017 C   0  0  1  0  0  0  0  0  0  0  0  0
   18.0964  -12.4404  -15.8932 C   0  0  0  0  0  0  0  0  0  0  0  0
   18.0441  -13.8955  -15.5467 C   0  0  0  0  0  0  0  0  0  0  0  0
   19.2389  -14.6264  -15.9662 C   0  0  0  0  0  0  0  0  0  0  0  0
   20.1987  -14.1090  -16.5712 O   0  0  0  0  0  0  0  0  0  0  0  0
   17.0353  -10.2532  -15.7105 C   0  0  0  0  0  0  0  0  0  0  0  0
   16.7853   -9.7231  -16.8440 O   0  0  0  0  0  0  0  0  0  0  0  0
   19.2932  -15.9891  -15.6627 O   0  0  0  0  0  0  0  0  0  0  0  0
   17.2239   -5.7766  -14.2828 O   0  0  0  0  0  0  0  0  0  0  0  0
   16.9526   -7.1005  -13.9977 C   0  0  0  0  0  0  0  0  0  0  0  0
   17.6812   -7.9788  -14.9896 C   0  0  2  0  0  0  0  0  0  0  0  0
   17.4797   -9.3738  -14.6962 N   0  0  0  0  0  0  0  0  0  0  0  0
   19.1344   -7.7010  -14.9497 C   0  0  0  0  0  0  0  0  0  0  0  0
   19.8671   -8.4316  -14.2253 O   0  0  0  0  0  0  0  0  0  0  0  0
   26.9506   -4.3688  -17.2607 O   0  0  0  0  0  0  0  0  0  0  0  0
   25.6913   -4.9512  -17.1588 C   0  0  0  0  0  0  0  0  0  0  0  0
   24.5643   -4.1658  -17.3113 C   0  0  0  0  0  0  0  0  0  0  0  0
   23.3202   -4.7227  -17.2142 C   0  0  0  0  0  0  0  0  0  0  0  0
   23.1462   -6.0825  -16.9616 C   0  0  0  0  0  0  0  0  0  0  0  0
   21.7956   -6.6651  -16.8555 C   0  0  0  0  0  0  0  0  0  0  0  0
   21.1156   -6.3737  -15.5312 C   0  0  2  0  0  0  0  0  0  0  0  0
   19.7036   -6.6415  -15.7028 N   0  0  0  0  0  0  0  0  0  0  0  0
   21.2739   -4.9731  -15.0961 C   0  0  0  0  0  0  0  0  0  0  0  0
   20.4642   -4.0592  -15.4115 O   0  0  0  0  0  0  0  0  0  0  0  0
   24.2691   -6.8341  -16.8154 C   0  0  0  0  0  0  0  0  0  0  0  0
   25.5378   -6.2854  -16.9109 C   0  0  0  0  0  0  0  0  0  0  0  0
   22.3473   -4.6214  -14.3084 O   0  0  0  0  0  0  0  0  0  0  0  0
  2  1  1  6
  2  7  1  0
  3  2  1  0
  4  3  1  0
  4  5  1  0
  5  6  2  0
  7  8  2  0
  9  5  1  0
 12 11  1  1
 11 10  1  0
 13  7  1  0
 13 12  1  0
 14 12  1  0
 14 15  2  0
 16 17  1  0
 17 27  2  0
 17 18  1  0
 18 19  2  0
 19 20  1  0
 20 21  1  0
 22 21  1  6
 22 24  1  0
 22 23  1  0
 23 14  1  0
 24 28  1  0
 25 24  2  0
 26 20  2  0
 27 26  1  0
M  END
$$$$
