ESY.pdb
     RDKit          3D

 28 28  0  0  1  0  0  0  0  0999 V2000
   19.8780  -14.6227  -16.3707 N   0  0  0  0  0  0  0  0  0  0  0  0
   19.0435  -13.4371  -16.6320 C   0  0  1  0  0  0  0  0  0  0  0  0
   18.0635  -13.2570  -15.5302 C   0  0  0  0  0  0  0  0  0  0  0  0
   16.9247  -14.2246  -15.6141 C   0  0  0  0  0  0  0  0  0  0  0  0
   15.8858  -13.9729  -14.6166 C   0  0  0  0  0  0  0  0  0  0  0  0
   15.8531  -14.5080  -13.4907 O   0  0  0  0  0  0  0  0  0  0  0  0
   19.9817  -12.2788  -16.6733 C   0  0  0  0  0  0  0  0  0  0  0  0
   21.0899  -12.3169  -16.0418 O   0  0  0  0  0  0  0  0  0  0  0  0
   14.8734  -13.0740  -14.9619 O   0  0  0  0  0  0  0  0  0  0  0  0
   19.2928   -8.8308  -18.9056 O   0  0  0  0  0  0  0  0  0  0  0  0
   20.5797   -9.3273  -18.8349 C   0  0  0  0  0  0  0  0  0  0  0  0
   20.7433  -10.0935  -17.5418 C   0  0  2  0  0  0  0  0  0  0  0  0
   19.7164  -11.0916  -17.3943 N   0  0  0  0  0  0  0  0  0  0  0  0
   20.6647   -9.1719  -16.3864 C   0  0  0  0  0  0  0  0  0  0  0  0
   19.6147   -9.1752  -15.6844 O   0  0  0  0  0  0  0  0  0  0  0  0
   22.5595   -1.0702  -14.1075 O   0  0  0  0  0  0  0  0  0  0  0  0
   22.6438   -2.4488  -14.2740 C   0  0  0  0  0  0  0  0  0  0  0  0
   22.1052   -3.2842  -13.3136 C   0  0  0  0  0  0  0  0  0  0  0  0
   22.1798   -4.6405  -13.4624 C   0  0  0  0  0  0  0  0  0  0  0  0
   22.7926   -5.2211  -14.5717 C   0  0  0  0  0  0  0  0  0  0  0  0
   22.8677   -6.6871  -14.7130 C   0  0  0  0  0  0  0  0  0  0  0  0
   21.5274   -7.3340  -15.0070 C   0  0  2  0  0  0  0  0  0  0  0  0
   21.7370   -8.3000  -16.0642 N   0  0  0  0  0  0  0  0  0  0  0  0
   20.5056   -6.3687  -15.4546 C   0  0  0  0  0  0  0  0  0  0  0  0
   19.7088   -5.7945  -14.6636 O   0  0  0  0  0  0  0  0  0  0  0  0
   23.3148   -4.3794  -15.5023 C   0  0  0  0  0  0  0  0  0  0  0  0
   23.2478   -3.0021  -15.3668 C   0  0  0  0  0  0  0  0  0  0  0  0
   20.3965   -6.0636  -16.7929 O   0  0  0  0  0  0  0  0  0  0  0  0
  2  1  1  1
  2  7  1  0
  3  2  1  0
  4  3  1  0
  4  5  1  0
  5  6  2  0
  7  8  2  0
  9  5  1  0
 12 11  1  6
 11 10  1  0
 13  7  1  0
 13 12  1  0
 14 12  1  0
 14 15  2  0
 16 17  1  0
 17 27  2  0
 17 18  1  0
 18 19  2  0
 19 20  1  0
 20 21  1  0
 22 21  1  6
 22 24  1  0
 22 23  1  0
 23 14  1  0
 24 28  1  0
 25 24  2  0
 26 20  2  0
 27 26  1  0
M  END
$$$$
