TFD.pdb
     RDKit          3D

 27 27  0  0  1  0  0  0  0  0999 V2000
   23.8179  -19.9306  -11.9473 C   0  0  0  0  0  0  0  0  0  0  0  0
   24.6051  -20.8990  -12.7794 C   0  0  1  0  0  0  0  0  0  0  0  0
   24.3397  -20.7643  -14.1459 O   0  0  0  0  0  0  0  0  0  0  0  0
   26.0760  -20.8930  -12.4928 C   0  0  2  0  0  0  0  0  0  0  0  0
   26.8473  -21.7816  -13.3012 N   0  0  0  0  0  0  0  0  0  0  0  0
   26.2758  -21.0896  -11.0412 C   0  0  0  0  0  0  0  0  0  0  0  0
   26.1425  -22.2594  -10.5978 O   0  0  0  0  0  0  0  0  0  0  0  0
   26.6056  -20.0407  -10.1352 N   0  0  0  0  0  0  0  0  0  0  0  0
   26.8103  -20.2336   -8.7317 C   0  0  1  0  0  0  0  0  0  0  0  0
   27.7072  -19.1867   -8.1111 C   0  0  0  0  0  0  0  0  0  0  0  0
   28.0004  -19.4640   -6.6810 C   0  0  0  0  0  0  0  0  0  0  0  0
   28.9899  -20.3630   -6.3305 C   0  0  0  0  0  0  0  0  0  0  0  0
   29.2806  -20.6377   -5.0068 C   0  0  0  0  0  0  0  0  0  0  0  0
   28.5808  -20.0132   -3.9847 C   0  0  0  0  0  0  0  0  0  0  0  0
   27.5900  -19.1133   -4.3210 C   0  0  0  0  0  0  0  0  0  0  0  0
   27.3196  -18.8568   -5.6496 C   0  0  0  0  0  0  0  0  0  0  0  0
   25.5421  -20.2754   -7.9686 C   0  0  0  0  0  0  0  0  0  0  0  0
   24.6404  -19.4381   -8.2057 O   0  0  0  0  0  0  0  0  0  0  0  0
   25.3043  -21.2443   -6.9620 N   0  0  0  0  0  0  0  0  0  0  0  0
   24.0183  -21.3021   -6.2482 C   0  0  1  0  0  0  0  0  0  0  0  0
   23.2492  -22.4352   -6.8471 C   0  0  0  0  0  0  0  0  0  0  0  0
   21.8864  -22.5685   -6.3188 C   0  0  0  0  0  0  0  0  0  0  0  0
   21.2991  -21.6713   -5.6819 O   0  0  0  0  0  0  0  0  0  0  0  0
   24.2765  -21.5181   -4.8075 C   0  0  0  0  0  0  0  0  0  0  0  0
   23.4438  -21.0312   -3.8131 O   0  0  0  0  0  0  0  0  0  0  0  0
   21.1997  -23.7630   -6.5358 O   0  0  0  0  0  0  0  0  0  0  0  0
   25.3092  -22.1810   -4.4454 O   0  0  0  0  0  0  0  0  0  0  0  0
  2  1  1  1
  2  4  1  0
  3  2  1  0
  4  5  1  6
  4  6  1  0
  6  7  2  0
  8  6  1  0
  8  9  1  0
  9 10  1  1
 11 10  1  0
 12 11  2  0
 13 12  1  0
 14 15  1  0
 14 13  2  0
 15 16  2  0
 16 11  1  0
 17 19  1  0
 17  9  1  0
 18 17  2  0
 20 19  1  0
 20 21  1  6
 22 26  1  0
 22 21  1  0
 23 22  2  0
 24 25  1  0
 24 20  1  0
 27 24  2  0
M  END
$$$$
