TFD.pdb
     RDKit          3D

 27 27  0  0  1  0  0  0  0  0999 V2000
   27.9184  -19.9459  -18.6716 C   0  0  0  0  0  0  0  0  0  0  0  0
   27.1483  -20.3112  -17.4374 C   0  0  1  0  0  0  0  0  0  0  0  0
   25.7682  -20.3429  -17.6616 O   0  0  0  0  0  0  0  0  0  0  0  0
   27.6336  -21.5587  -16.7637 C   0  0  2  0  0  0  0  0  0  0  0  0
   27.5849  -22.7340  -17.5726 N   0  0  0  0  0  0  0  0  0  0  0  0
   26.9320  -21.7013  -15.4701 C   0  0  0  0  0  0  0  0  0  0  0  0
   26.0361  -22.5817  -15.3983 O   0  0  0  0  0  0  0  0  0  0  0  0
   27.2135  -20.9068  -14.3216 N   0  0  0  0  0  0  0  0  0  0  0  0
   26.4617  -20.9681  -13.1051 C   0  0  1  0  0  0  0  0  0  0  0  0
   27.1214  -20.2348  -11.9594 C   0  0  0  0  0  0  0  0  0  0  0  0
   26.3374  -20.3237  -10.7002 C   0  0  0  0  0  0  0  0  0  0  0  0
   26.2956  -21.5044   -9.9831 C   0  0  0  0  0  0  0  0  0  0  0  0
   25.5728  -21.6115   -8.8092 C   0  0  0  0  0  0  0  0  0  0  0  0
   24.8630  -20.5272   -8.3142 C   0  0  0  0  0  0  0  0  0  0  0  0
   24.8962  -19.3422   -9.0208 C   0  0  0  0  0  0  0  0  0  0  0  0
   25.6254  -19.2615  -10.1895 C   0  0  0  0  0  0  0  0  0  0  0  0
   25.0821  -20.4528  -13.2582 C   0  0  0  0  0  0  0  0  0  0  0  0
   24.8830  -19.3557  -13.8301 O   0  0  0  0  0  0  0  0  0  0  0  0
   23.9572  -21.1661  -12.7739 N   0  0  0  0  0  0  0  0  0  0  0  0
   22.5873  -20.6853  -13.0168 C   0  0  1  0  0  0  0  0  0  0  0  0
   21.8977  -21.7471  -13.8112 C   0  0  0  0  0  0  0  0  0  0  0  0
   20.5133  -21.4137  -14.1664 C   0  0  0  0  0  0  0  0  0  0  0  0
   19.5453  -21.5582  -13.3933 O   0  0  0  0  0  0  0  0  0  0  0  0
   21.9199  -20.4555  -11.7165 C   0  0  0  0  0  0  0  0  0  0  0  0
   21.2334  -19.2895  -11.4195 O   0  0  0  0  0  0  0  0  0  0  0  0
   20.2542  -20.9054  -15.4392 O   0  0  0  0  0  0  0  0  0  0  0  0
   21.9687  -21.3620  -10.8150 O   0  0  0  0  0  0  0  0  0  0  0  0
  2  1  1  6
  2  4  1  0
  3  2  1  0
  4  5  1  6
  4  6  1  0
  6  7  2  0
  8  6  1  0
  8  9  1  0
  9 10  1  1
 11 10  1  0
 12 11  2  0
 13 12  1  0
 14 15  1  0
 14 13  2  0
 15 16  2  0
 16 11  1  0
 17 19  1  0
 17  9  1  0
 18 17  2  0
 20 19  1  0
 20 21  1  6
 22 26  1  0
 22 21  1  0
 23 22  2  0
 24 25  1  0
 24 20  1  0
 27 24  2  0
M  END
$$$$
