TFD.pdb
     RDKit          3D

 27 27  0  0  1  0  0  0  0  0999 V2000
   21.6282   -9.9894  -22.5726 C   0  0  0  0  0  0  0  0  0  0  0  0
   21.0757   -9.5352  -21.2541 C   0  0  1  0  0  0  0  0  0  0  0  0
   19.8249   -8.9232  -21.3840 O   0  0  0  0  0  0  0  0  0  0  0  0
   21.0706  -10.5977  -20.1973 C   0  0  2  0  0  0  0  0  0  0  0  0
   20.2155  -11.7083  -20.4687 N   0  0  0  0  0  0  0  0  0  0  0  0
   20.8159   -9.9610  -18.8876 C   0  0  0  0  0  0  0  0  0  0  0  0
   19.6750  -10.1247  -18.3832 O   0  0  0  0  0  0  0  0  0  0  0  0
   21.7791   -9.1853  -18.1803 N   0  0  0  0  0  0  0  0  0  0  0  0
   21.5112   -8.5134  -16.9451 C   0  0  1  0  0  0  0  0  0  0  0  0
   22.7170   -8.4336  -16.0367 C   0  0  0  0  0  0  0  0  0  0  0  0
   22.4017   -7.8087  -14.7259 C   0  0  0  0  0  0  0  0  0  0  0  0
   21.9514   -8.5812  -13.6721 C   0  0  0  0  0  0  0  0  0  0  0  0
   21.6511   -8.0224  -12.4434 C   0  0  0  0  0  0  0  0  0  0  0  0
   21.7945   -6.6588  -12.2325 C   0  0  0  0  0  0  0  0  0  0  0  0
   22.2431   -5.8760  -13.2767 C   0  0  0  0  0  0  0  0  0  0  0  0
   22.5361   -6.4583  -14.4930 C   0  0  0  0  0  0  0  0  0  0  0  0
   20.9815   -7.1447  -17.1411 C   0  0  0  0  0  0  0  0  0  0  0  0
   21.5953   -6.3343  -17.8737 O   0  0  0  0  0  0  0  0  0  0  0  0
   19.7844   -6.7082  -16.5207 N   0  0  0  0  0  0  0  0  0  0  0  0
   19.3115   -5.3219  -16.6672 C   0  0  1  0  0  0  0  0  0  0  0  0
   17.8242   -5.3616  -16.5241 C   0  0  0  0  0  0  0  0  0  0  0  0
   17.1832   -4.0477  -16.6527 C   0  0  0  0  0  0  0  0  0  0  0  0
   17.6282   -3.1263  -17.3657 O   0  0  0  0  0  0  0  0  0  0  0  0
   19.9390   -4.4859  -15.6201 C   0  0  0  0  0  0  0  0  0  0  0  0
   20.6022   -3.3023  -15.9001 O   0  0  0  0  0  0  0  0  0  0  0  0
   16.0085   -3.8050  -15.9409 O   0  0  0  0  0  0  0  0  0  0  0  0
   19.8766   -4.8566  -14.3971 O   0  0  0  0  0  0  0  0  0  0  0  0
  2  1  1  6
  2  4  1  0
  3  2  1  0
  4  5  1  6
  4  6  1  0
  6  7  2  0
  8  6  1  0
  8  9  1  0
  9 10  1  1
 11 10  1  0
 12 11  2  0
 13 12  1  0
 14 15  1  0
 14 13  2  0
 15 16  2  0
 16 11  1  0
 17 19  1  0
 17  9  1  0
 18 17  2  0
 20 19  1  0
 20 21  1  1
 22 26  1  0
 22 21  1  0
 23 22  2  0
 24 25  1  0
 24 20  1  0
 27 24  2  0
M  END
$$$$
