TFD.pdb
     RDKit          3D

 27 27  0  0  1  0  0  0  0  0999 V2000
   22.6639  -10.6941  -22.0145 C   0  0  0  0  0  0  0  0  0  0  0  0
   22.3290  -10.1387  -20.6620 C   0  0  1  0  0  0  0  0  0  0  0  0
   20.9801  -10.3115  -20.3353 O   0  0  0  0  0  0  0  0  0  0  0  0
   23.2344  -10.6148  -19.5669 C   0  0  2  0  0  0  0  0  0  0  0  0
   23.2213  -12.0258  -19.3498 N   0  0  0  0  0  0  0  0  0  0  0  0
   22.9572   -9.8260  -18.3476 C   0  0  0  0  0  0  0  0  0  0  0  0
   22.2445  -10.3684  -17.4640 O   0  0  0  0  0  0  0  0  0  0  0  0
   23.4471   -8.5067  -18.1261 N   0  0  0  0  0  0  0  0  0  0  0  0
   23.1667   -7.7380  -16.9516 C   0  0  1  0  0  0  0  0  0  0  0  0
   24.4112   -7.2181  -16.2688 C   0  0  0  0  0  0  0  0  0  0  0  0
   25.3052   -8.3112  -15.8061 C   0  0  0  0  0  0  0  0  0  0  0  0
   26.4744   -8.5950  -16.4863 C   0  0  0  0  0  0  0  0  0  0  0  0
   27.3218   -9.6073  -16.0752 C   0  0  0  0  0  0  0  0  0  0  0  0
   27.0193  -10.3733  -14.9588 C   0  0  0  0  0  0  0  0  0  0  0  0
   25.8547  -10.1004  -14.2706 C   0  0  0  0  0  0  0  0  0  0  0  0
   25.0262   -9.0845  -14.7015 C   0  0  0  0  0  0  0  0  0  0  0  0
   22.2661   -6.5933  -17.2181 C   0  0  0  0  0  0  0  0  0  0  0  0
   22.5591   -5.7593  -18.1062 O   0  0  0  0  0  0  0  0  0  0  0  0
   21.0630   -6.4014  -16.4940 N   0  0  0  0  0  0  0  0  0  0  0  0
   20.1816   -5.2553  -16.7701 C   0  0  1  0  0  0  0  0  0  0  0  0
   18.9081   -5.8183  -17.3133 C   0  0  0  0  0  0  0  0  0  0  0  0
   17.8560   -4.8146  -17.5124 C   0  0  0  0  0  0  0  0  0  0  0  0
   16.6738   -4.9676  -17.1459 O   0  0  0  0  0  0  0  0  0  0  0  0
   19.9562   -4.5074  -15.5136 C   0  0  0  0  0  0  0  0  0  0  0  0
   20.4521   -4.9265  -14.2898 O   0  0  0  0  0  0  0  0  0  0  0  0
   18.1866   -3.6173  -18.1470 O   0  0  0  0  0  0  0  0  0  0  0  0
   19.2758   -3.4242  -15.5391 O   0  0  0  0  0  0  0  0  0  0  0  0
  2  1  1  6
  2  4  1  0
  3  2  1  0
  4  5  1  1
  4  6  1  0
  6  7  2  0
  8  6  1  0
  8  9  1  0
  9 10  1  6
 11 10  1  0
 12 11  2  0
 13 12  1  0
 14 15  1  0
 14 13  2  0
 15 16  2  0
 16 11  1  0
 17 19  1  0
 17  9  1  0
 18 17  2  0
 20 19  1  0
 20 21  1  1
 22 26  1  0
 22 21  1  0
 23 22  2  0
 24 25  1  0
 24 20  1  0
 27 24  2  0
M  END
$$$$
