TFD.pdb
     RDKit          3D

 27 27  0  0  1  0  0  0  0  0999 V2000
   24.0025   -9.1386  -20.6557 C   0  0  0  0  0  0  0  0  0  0  0  0
   24.1712  -10.6117  -20.8819 C   0  0  1  0  0  0  0  0  0  0  0  0
   24.4229  -10.9185  -22.2230 O   0  0  0  0  0  0  0  0  0  0  0  0
   25.1643  -11.2589  -19.9650 C   0  0  2  0  0  0  0  0  0  0  0  0
   25.3922  -12.6464  -20.2121 N   0  0  0  0  0  0  0  0  0  0  0  0
   24.7819  -10.9618  -18.5681 C   0  0  0  0  0  0  0  0  0  0  0  0
   23.8710  -11.6662  -18.0612 O   0  0  0  0  0  0  0  0  0  0  0  0
   25.3814   -9.9368  -17.7809 N   0  0  0  0  0  0  0  0  0  0  0  0
   24.9786   -9.6181  -16.4448 C   0  0  1  0  0  0  0  0  0  0  0  0
   26.1268   -9.6141  -15.4614 C   0  0  0  0  0  0  0  0  0  0  0  0
   26.8291  -10.9223  -15.4013 C   0  0  0  0  0  0  0  0  0  0  0  0
   28.0409  -11.0967  -16.0426 C   0  0  0  0  0  0  0  0  0  0  0  0
   28.7129  -12.3045  -16.0014 C   0  0  0  0  0  0  0  0  0  0  0  0
   28.1846  -13.3845  -15.3092 C   0  0  0  0  0  0  0  0  0  0  0  0
   26.9750  -13.2238  -14.6645 C   0  0  0  0  0  0  0  0  0  0  0  0
   26.3247  -12.0080  -14.7210 C   0  0  0  0  0  0  0  0  0  0  0  0
   24.2790   -8.3164  -16.3529 C   0  0  0  0  0  0  0  0  0  0  0  0
   24.7491   -7.3102  -16.9334 O   0  0  0  0  0  0  0  0  0  0  0  0
   23.0757   -8.1620  -15.6202 N   0  0  0  0  0  0  0  0  0  0  0  0
   22.2639   -6.9397  -15.7367 C   0  0  1  0  0  0  0  0  0  0  0  0
   21.8969   -6.8077  -17.1796 C   0  0  0  0  0  0  0  0  0  0  0  0
   21.8538   -5.4194  -17.6535 C   0  0  0  0  0  0  0  0  0  0  0  0
   22.7196   -4.5654  -17.3768 O   0  0  0  0  0  0  0  0  0  0  0  0
   21.0662   -7.0734  -14.8784 C   0  0  0  0  0  0  0  0  0  0  0  0
   20.6799   -8.2757  -14.3087 O   0  0  0  0  0  0  0  0  0  0  0  0
   20.7877   -5.0217  -18.4601 O   0  0  0  0  0  0  0  0  0  0  0  0
   20.3435   -6.0446  -14.6412 O   0  0  0  0  0  0  0  0  0  0  0  0
  2  1  1  6
  2  4  1  0
  3  2  1  0
  4  5  1  1
  4  6  1  0
  6  7  2  0
  8  6  1  0
  8  9  1  0
  9 10  1  1
 11 10  1  0
 12 11  2  0
 13 12  1  0
 14 15  1  0
 14 13  2  0
 15 16  2  0
 16 11  1  0
 17 19  1  0
 17  9  1  0
 18 17  2  0
 20 19  1  0
 20 21  1  6
 22 26  1  0
 22 21  1  0
 23 22  2  0
 24 25  1  0
 24 20  1  0
 27 24  2  0
M  END
$$$$
