TFD.pdb
     RDKit          3D

 27 27  0  0  1  0  0  0  0  0999 V2000
   20.9362  -15.8899  -19.0580 C   0  0  0  0  0  0  0  0  0  0  0  0
   21.3491  -14.7594  -18.1628 C   0  0  1  0  0  0  0  0  0  0  0  0
   20.2764  -14.2432  -17.4287 O   0  0  0  0  0  0  0  0  0  0  0  0
   22.5248  -15.0734  -17.2882 C   0  0  2  0  0  0  0  0  0  0  0  0
   22.3453  -16.1950  -16.4233 N   0  0  0  0  0  0  0  0  0  0  0  0
   22.9312  -13.8402  -16.5813 C   0  0  0  0  0  0  0  0  0  0  0  0
   22.8203  -13.8352  -15.3281 O   0  0  0  0  0  0  0  0  0  0  0  0
   23.4329  -12.6780  -17.2350 N   0  0  0  0  0  0  0  0  0  0  0  0
   23.8282  -11.4851  -16.5499 C   0  0  1  0  0  0  0  0  0  0  0  0
   25.1739  -10.9601  -16.9960 C   0  0  0  0  0  0  0  0  0  0  0  0
   26.2876  -11.8802  -16.6475 C   0  0  0  0  0  0  0  0  0  0  0  0
   26.8468  -11.8559  -15.3839 C   0  0  0  0  0  0  0  0  0  0  0  0
   27.8840  -12.7018  -15.0365 C   0  0  0  0  0  0  0  0  0  0  0  0
   28.3968  -13.6063  -15.9548 C   0  0  0  0  0  0  0  0  0  0  0  0
   27.8474  -13.6408  -17.2203 C   0  0  0  0  0  0  0  0  0  0  0  0
   26.8129  -12.7860  -17.5417 C   0  0  0  0  0  0  0  0  0  0  0  0
   22.8344  -10.3950  -16.6786 C   0  0  0  0  0  0  0  0  0  0  0  0
   22.2868  -10.1738  -17.7838 O   0  0  0  0  0  0  0  0  0  0  0  0
   22.4720   -9.5772  -15.5793 N   0  0  0  0  0  0  0  0  0  0  0  0
   21.3938   -8.5815  -15.6927 C   0  0  1  0  0  0  0  0  0  0  0  0
   20.7024   -8.5495  -14.3679 C   0  0  0  0  0  0  0  0  0  0  0  0
   19.6203   -7.5611  -14.2902 C   0  0  0  0  0  0  0  0  0  0  0  0
   19.2605   -6.8504  -15.2499 O   0  0  0  0  0  0  0  0  0  0  0  0
   21.9847   -7.2683  -16.0326 C   0  0  0  0  0  0  0  0  0  0  0  0
   23.3510   -7.0612  -16.1298 O   0  0  0  0  0  0  0  0  0  0  0  0
   18.9493   -7.3991  -13.0782 O   0  0  0  0  0  0  0  0  0  0  0  0
   21.2156   -6.2690  -16.2492 O   0  0  0  0  0  0  0  0  0  0  0  0
  2  1  1  1
  2  4  1  0
  3  2  1  0
  4  5  1  1
  4  6  1  0
  6  7  2  0
  8  6  1  0
  8  9  1  0
  9 10  1  6
 11 10  1  0
 12 11  2  0
 13 12  1  0
 14 15  1  0
 14 13  2  0
 15 16  2  0
 16 11  1  0
 17 19  1  0
 17  9  1  0
 18 17  2  0
 20 19  1  0
 20 21  1  1
 22 26  1  0
 22 21  1  0
 23 22  2  0
 24 25  1  0
 24 20  1  0
 27 24  2  0
M  END
$$$$
