TFD.pdb
     RDKit          3D

 27 27  0  0  1  0  0  0  0  0999 V2000
   26.0409  -26.1435  -16.2605 C   0  0  0  0  0  0  0  0  0  0  0  0
   26.8715  -24.9013  -16.3894 C   0  0  1  0  0  0  0  0  0  0  0  0
   27.9256  -25.0578  -17.2952 O   0  0  0  0  0  0  0  0  0  0  0  0
   26.0754  -23.6625  -16.6676 C   0  0  2  0  0  0  0  0  0  0  0  0
   26.8424  -22.5466  -17.1200 N   0  0  0  0  0  0  0  0  0  0  0  0
   25.2365  -23.3643  -15.4873 C   0  0  0  0  0  0  0  0  0  0  0  0
   24.6777  -24.3388  -14.9207 O   0  0  0  0  0  0  0  0  0  0  0  0
   25.0322  -22.0534  -14.9682 N   0  0  0  0  0  0  0  0  0  0  0  0
   24.1544  -21.7548  -13.8777 C   0  0  1  0  0  0  0  0  0  0  0  0
   24.5631  -20.5217  -13.1045 C   0  0  0  0  0  0  0  0  0  0  0  0
   23.7772  -20.3468  -11.8555 C   0  0  0  0  0  0  0  0  0  0  0  0
   22.5552  -19.7016  -11.8815 C   0  0  0  0  0  0  0  0  0  0  0  0
   21.8061  -19.5265  -10.7325 C   0  0  0  0  0  0  0  0  0  0  0  0
   22.2644  -19.9975   -9.5108 C   0  0  0  0  0  0  0  0  0  0  0  0
   23.4832  -20.6435   -9.4708 C   0  0  0  0  0  0  0  0  0  0  0  0
   24.2112  -20.8055  -10.6319 C   0  0  0  0  0  0  0  0  0  0  0  0
   22.7456  -21.5943  -14.3042 C   0  0  0  0  0  0  0  0  0  0  0  0
   22.4697  -20.8882  -15.3020 O   0  0  0  0  0  0  0  0  0  0  0  0
   21.6775  -22.2206  -13.6146 N   0  0  0  0  0  0  0  0  0  0  0  0
   20.2855  -22.0732  -14.0701 C   0  0  1  0  0  0  0  0  0  0  0  0
   19.4796  -23.0757  -13.3087 C   0  0  0  0  0  0  0  0  0  0  0  0
   18.0548  -23.0782  -13.6605 C   0  0  0  0  0  0  0  0  0  0  0  0
   17.1375  -22.8852  -12.8379 O   0  0  0  0  0  0  0  0  0  0  0  0
   19.8341  -20.6904  -13.7998 C   0  0  0  0  0  0  0  0  0  0  0  0
   20.1160  -20.0250  -12.6178 O   0  0  0  0  0  0  0  0  0  0  0  0
   17.6950  -23.3086  -14.9882 O   0  0  0  0  0  0  0  0  0  0  0  0
   19.1524  -20.0664  -14.6845 O   0  0  0  0  0  0  0  0  0  0  0  0
  2  1  1  6
  2  4  1  0
  3  2  1  0
  4  5  1  1
  4  6  1  0
  6  7  2  0
  8  6  1  0
  8  9  1  0
  9 10  1  6
 11 10  1  0
 12 11  2  0
 13 12  1  0
 14 15  1  0
 14 13  2  0
 15 16  2  0
 16 11  1  0
 17 19  1  0
 17  9  1  0
 18 17  2  0
 20 19  1  0
 20 21  1  1
 22 26  1  0
 22 21  1  0
 23 22  2  0
 24 25  1  0
 24 20  1  0
 27 24  2  0
M  END
$$$$
