TFD.pdb
     RDKit          3D

 27 27  0  0  1  0  0  0  0  0999 V2000
   20.5108  -23.0010  -14.1533 C   0  0  0  0  0  0  0  0  0  0  0  0
   21.4087  -21.8045  -14.0431 C   0  0  1  0  0  0  0  0  0  0  0  0
   20.9398  -20.7173  -14.7874 O   0  0  0  0  0  0  0  0  0  0  0  0
   21.7361  -21.4166  -12.6331 C   0  0  2  0  0  0  0  0  0  0  0  0
   20.6200  -20.9793  -11.8577 N   0  0  0  0  0  0  0  0  0  0  0  0
   22.8554  -20.4509  -12.6559 C   0  0  0  0  0  0  0  0  0  0  0  0
   22.5914  -19.2605  -12.3458 O   0  0  0  0  0  0  0  0  0  0  0  0
   24.1935  -20.7934  -13.0051 N   0  0  0  0  0  0  0  0  0  0  0  0
   25.2903  -19.8748  -12.9585 C   0  0  1  0  0  0  0  0  0  0  0  0
   26.4842  -20.4106  -12.2015 C   0  0  0  0  0  0  0  0  0  0  0  0
   26.2481  -20.4711  -10.7356 C   0  0  0  0  0  0  0  0  0  0  0  0
   26.3010  -19.3218   -9.9697 C   0  0  0  0  0  0  0  0  0  0  0  0
   26.0853  -19.3531   -8.6042 C   0  0  0  0  0  0  0  0  0  0  0  0
   25.8076  -20.5495   -7.9593 C   0  0  0  0  0  0  0  0  0  0  0  0
   25.7520  -21.7046   -8.7124 C   0  0  0  0  0  0  0  0  0  0  0  0
   25.9710  -21.6462  -10.0736 C   0  0  0  0  0  0  0  0  0  0  0  0
   25.7405  -19.4522  -14.3042 C   0  0  0  0  0  0  0  0  0  0  0  0
   25.7600  -20.2781  -15.2464 O   0  0  0  0  0  0  0  0  0  0  0  0
   26.1578  -18.1246  -14.5726 N   0  0  0  0  0  0  0  0  0  0  0  0
   26.4891  -17.6913  -15.9398 C   0  0  1  0  0  0  0  0  0  0  0  0
   26.6559  -16.2069  -15.8877 C   0  0  0  0  0  0  0  0  0  0  0  0
   27.0860  -15.6158  -17.1603 C   0  0  0  0  0  0  0  0  0  0  0  0
   27.1208  -16.2417  -18.2385 O   0  0  0  0  0  0  0  0  0  0  0  0
   27.7332  -18.3662  -16.3708 C   0  0  0  0  0  0  0  0  0  0  0  0
   27.8170  -19.1195  -17.5303 O   0  0  0  0  0  0  0  0  0  0  0  0
   27.4805  -14.2781  -17.1760 O   0  0  0  0  0  0  0  0  0  0  0  0
   28.7875  -18.2607  -15.6536 O   0  0  0  0  0  0  0  0  0  0  0  0
  2  1  1  1
  2  4  1  0
  3  2  1  0
  4  5  1  6
  4  6  1  0
  6  7  2  0
  8  6  1  0
  8  9  1  0
  9 10  1  6
 11 10  1  0
 12 11  2  0
 13 12  1  0
 14 15  1  0
 14 13  2  0
 15 16  2  0
 16 11  1  0
 17 19  1  0
 17  9  1  0
 18 17  2  0
 20 19  1  0
 20 21  1  1
 22 26  1  0
 22 21  1  0
 23 22  2  0
 24 25  1  0
 24 20  1  0
 27 24  2  0
M  END
$$$$
