TFD.pdb
     RDKit          3D

 27 27  0  0  1  0  0  0  0  0999 V2000
   28.0032  -18.1398  -18.7519 C   0  0  0  0  0  0  0  0  0  0  0  0
   27.1772  -18.8250  -17.7041 C   0  0  1  0  0  0  0  0  0  0  0  0
   25.8114  -18.8020  -18.0043 O   0  0  0  0  0  0  0  0  0  0  0  0
   27.6506  -20.2050  -17.3616 C   0  0  2  0  0  0  0  0  0  0  0  0
   27.6134  -21.1366  -18.4428 N   0  0  0  0  0  0  0  0  0  0  0  0
   26.9286  -20.6675  -16.1571 C   0  0  0  0  0  0  0  0  0  0  0  0
   26.0529  -21.5560  -16.3199 O   0  0  0  0  0  0  0  0  0  0  0  0
   27.1695  -20.1671  -14.8452 N   0  0  0  0  0  0  0  0  0  0  0  0
   26.3720  -20.5017  -13.7046 C   0  0  1  0  0  0  0  0  0  0  0  0
   26.9631  -20.0152  -12.4010 C   0  0  0  0  0  0  0  0  0  0  0  0
   26.1633  -20.4362  -11.2214 C   0  0  0  0  0  0  0  0  0  0  0  0
   25.2099  -19.5921  -10.6842 C   0  0  0  0  0  0  0  0  0  0  0  0
   24.4540  -19.9613   -9.5869 C   0  0  0  0  0  0  0  0  0  0  0  0
   24.6332  -21.2003   -8.9891 C   0  0  0  0  0  0  0  0  0  0  0  0
   25.5821  -22.0529   -9.5156 C   0  0  0  0  0  0  0  0  0  0  0  0
   26.3233  -21.6603  -10.6114 C   0  0  0  0  0  0  0  0  0  0  0  0
   24.9846  -19.9948  -13.8075 C   0  0  0  0  0  0  0  0  0  0  0  0
   24.7765  -18.7771  -14.0175 O   0  0  0  0  0  0  0  0  0  0  0  0
   23.8622  -20.8500  -13.6756 N   0  0  0  0  0  0  0  0  0  0  0  0
   22.4909  -20.3151  -13.6862 C   0  0  1  0  0  0  0  0  0  0  0  0
   21.9538  -20.5466  -15.0617 C   0  0  0  0  0  0  0  0  0  0  0  0
   20.5563  -20.1305  -15.2279 C   0  0  0  0  0  0  0  0  0  0  0  0
   19.5801  -20.8300  -14.8915 O   0  0  0  0  0  0  0  0  0  0  0  0
   21.6907  -21.0209  -12.6613 C   0  0  0  0  0  0  0  0  0  0  0  0
   21.9677  -22.3147  -12.2507 O   0  0  0  0  0  0  0  0  0  0  0  0
   20.2936  -18.8829  -15.7936 O   0  0  0  0  0  0  0  0  0  0  0  0
   20.6956  -20.4263  -12.1199 O   0  0  0  0  0  0  0  0  0  0  0  0
  2  1  1  6
  2  4  1  0
  3  2  1  0
  4  5  1  6
  4  6  1  0
  6  7  2  0
  8  6  1  0
  8  9  1  0
  9 10  1  1
 11 10  1  0
 12 11  2  0
 13 12  1  0
 14 15  1  0
 14 13  2  0
 15 16  2  0
 16 11  1  0
 17 19  1  0
 17  9  1  0
 18 17  2  0
 20 19  1  0
 20 21  1  6
 22 26  1  0
 22 21  1  0
 23 22  2  0
 24 25  1  0
 24 20  1  0
 27 24  2  0
M  END
$$$$
