TFD.pdb
     RDKit          3D

 27 27  0  0  1  0  0  0  0  0999 V2000
   23.5617  -12.9676  -21.3300 C   0  0  0  0  0  0  0  0  0  0  0  0
   23.2397  -12.1765  -20.0970 C   0  0  1  0  0  0  0  0  0  0  0  0
   21.9204  -12.3658  -19.6731 O   0  0  0  0  0  0  0  0  0  0  0  0
   24.2186  -12.3667  -18.9784 C   0  0  2  0  0  0  0  0  0  0  0  0
   24.3500  -13.7123  -18.5198 N   0  0  0  0  0  0  0  0  0  0  0  0
   23.9007  -11.4035  -17.9028 C   0  0  0  0  0  0  0  0  0  0  0  0
   23.4380  -11.8733  -16.8313 O   0  0  0  0  0  0  0  0  0  0  0  0
   24.0882   -9.9958  -18.0157 N   0  0  0  0  0  0  0  0  0  0  0  0
   23.8101   -9.0667  -16.9629 C   0  0  1  0  0  0  0  0  0  0  0  0
   25.0118   -8.2404  -16.5648 C   0  0  0  0  0  0  0  0  0  0  0  0
   26.1759   -9.0788  -16.1774 C   0  0  0  0  0  0  0  0  0  0  0  0
   26.2079   -9.7070  -14.9467 C   0  0  0  0  0  0  0  0  0  0  0  0
   27.2802  -10.4916  -14.5638 C   0  0  0  0  0  0  0  0  0  0  0  0
   28.3633  -10.6717  -15.4117 C   0  0  0  0  0  0  0  0  0  0  0  0
   28.3440  -10.0498  -16.6435 C   0  0  0  0  0  0  0  0  0  0  0  0
   27.2619   -9.2722  -17.0017 C   0  0  0  0  0  0  0  0  0  0  0  0
   22.6971   -8.1467  -17.2904 C   0  0  0  0  0  0  0  0  0  0  0  0
   22.6049   -7.6597  -18.4414 O   0  0  0  0  0  0  0  0  0  0  0  0
   21.7137   -7.7894  -16.3345 N   0  0  0  0  0  0  0  0  0  0  0  0
   20.6566   -6.8167  -16.6554 C   0  0  1  0  0  0  0  0  0  0  0  0
   19.5054   -7.1253  -15.7533 C   0  0  0  0  0  0  0  0  0  0  0  0
   18.3783   -6.1961  -15.8951 C   0  0  0  0  0  0  0  0  0  0  0  0
   17.9280   -5.8153  -16.9940 O   0  0  0  0  0  0  0  0  0  0  0  0
   21.1757   -5.4496  -16.4306 C   0  0  0  0  0  0  0  0  0  0  0  0
   22.3046   -5.1895  -15.6709 O   0  0  0  0  0  0  0  0  0  0  0  0
   17.7685   -5.7047  -14.7409 O   0  0  0  0  0  0  0  0  0  0  0  0
   20.5682   -4.4518  -16.9525 O   0  0  0  0  0  0  0  0  0  0  0  0
  2  1  1  6
  2  4  1  0
  3  2  1  0
  4  5  1  1
  4  6  1  0
  6  7  2  0
  8  6  1  0
  8  9  1  0
  9 10  1  6
 11 10  1  0
 12 11  2  0
 13 12  1  0
 14 15  1  0
 14 13  2  0
 15 16  2  0
 16 11  1  0
 17 19  1  0
 17  9  1  0
 18 17  2  0
 20 19  1  0
 20 21  1  1
 22 26  1  0
 22 21  1  0
 23 22  2  0
 24 25  1  0
 24 20  1  0
 27 24  2  0
M  END
$$$$
