WCS.pdb
     RDKit          3D

 27 28  0  0  1  0  0  0  0  0999 V2000
    6.5987  -17.8927   24.4785 N   0  0  0  0  0  0  0  0  0  0  0  0
    7.2240  -16.6702   23.9487 C   0  0  1  0  0  0  0  0  0  0  0  0
    8.1321  -16.1460   25.0620 C   0  0  0  0  0  0  0  0  0  0  0  0
    7.2703  -15.2106   25.8652 C   0  0  0  0  0  0  0  0  0  0  0  0
    6.1225  -15.4473   26.5655 C   0  0  0  0  0  0  0  0  0  0  0  0
    5.7152  -14.2646   27.1116 N   0  0  0  0  0  0  0  0  0  0  0  0
    6.5748  -13.3004   26.7733 C   0  0  0  0  0  0  0  0  0  0  0  0
    6.6869  -11.9321   27.0372 C   0  0  0  0  0  0  0  0  0  0  0  0
    7.7164  -11.1796   26.5507 C   0  0  0  0  0  0  0  0  0  0  0  0
    8.7047  -11.7549   25.7659 C   0  0  0  0  0  0  0  0  0  0  0  0
    8.5957  -13.1069   25.5036 C   0  0  0  0  0  0  0  0  0  0  0  0
    7.5576  -13.8559   25.9952 C   0  0  0  0  0  0  0  0  0  0  0  0
    7.9440  -16.9004   22.6991 C   0  0  0  0  0  0  0  0  0  0  0  0
    8.5926  -17.9821   22.4909 O   0  0  0  0  0  0  0  0  0  0  0  0
    7.9966  -15.9702   21.6100 N   0  0  0  0  0  0  0  0  0  0  0  0
    8.7895  -16.2314   20.4375 C   0  0  1  0  0  0  0  0  0  0  0  0
    8.5561  -15.1418   19.3831 C   0  0  0  0  0  0  0  0  0  0  0  0
    6.7987  -15.2100   18.9532 S   0  0  0  0  0  0  0  0  0  0  0  0
   10.2426  -16.3066   20.6934 C   0  0  0  0  0  0  0  0  0  0  0  0
   10.8618  -15.3857   21.2766 O   0  0  0  0  0  0  0  0  0  0  0  0
   14.1153  -19.0418   21.5205 O   0  0  0  0  0  0  0  0  0  0  0  0
   12.7657  -18.8832   21.2829 C   0  0  0  0  0  0  0  0  0  0  0  0
   12.4218  -17.6162   20.5751 C   0  0  2  0  0  0  0  0  0  0  0  0
   11.0369  -17.4147   20.2993 N   0  0  0  0  0  0  0  0  0  0  0  0
   13.2399  -17.5417   19.3430 C   0  0  0  0  0  0  0  0  0  0  0  0
   12.7566  -17.4510   18.1941 O   0  0  0  0  0  0  0  0  0  0  0  0
   14.6230  -17.5749   19.4505 O   0  0  0  0  0  0  0  0  0  0  0  0
  2  1  1  1
  3  2  1  0
  4  3  1  0
  5  4  2  0
  6  5  1  0
  7 12  2  0
  7  6  1  0
  8  7  1  0
  9  8  2  0
  9 10  1  0
 10 11  2  0
 11 12  1  0
 12  4  1  0
 13  2  1  0
 14 13  2  0
 15 13  1  0
 16 15  1  0
 16 17  1  6
 17 18  1  0
 19 16  1  0
 20 19  2  0
 22 21  1  0
 23 22  1  6
 23 24  1  0
 24 19  1  0
 25 27  1  0
 25 23  1  0
 26 25  2  0
M  END
$$$$
