WCS.pdb
     RDKit          3D

 27 28  0  0  1  0  0  0  0  0999 V2000
    6.4280  -17.7566   24.6243 N   0  0  0  0  0  0  0  0  0  0  0  0
    7.1161  -16.5370   24.1712 C   0  0  1  0  0  0  0  0  0  0  0  0
    7.9411  -16.0519   25.3641 C   0  0  0  0  0  0  0  0  0  0  0  0
    7.0718  -15.0392   26.0581 C   0  0  0  0  0  0  0  0  0  0  0  0
    5.8477  -15.1792   26.6462 C   0  0  0  0  0  0  0  0  0  0  0  0
    5.4718  -13.9572   27.1240 N   0  0  0  0  0  0  0  0  0  0  0  0
    6.4248  -13.0622   26.8521 C   0  0  0  0  0  0  0  0  0  0  0  0
    6.6049  -11.6976   27.0967 C   0  0  0  0  0  0  0  0  0  0  0  0
    7.7262  -11.0292   26.6985 C   0  0  0  0  0  0  0  0  0  0  0  0
    8.7442  -11.6908   26.0278 C   0  0  0  0  0  0  0  0  0  0  0  0
    8.5682  -13.0393   25.7848 C   0  0  0  0  0  0  0  0  0  0  0  0
    7.4380  -13.7035   26.1870 C   0  0  0  0  0  0  0  0  0  0  0  0
    7.9301  -16.7579   22.9789 C   0  0  0  0  0  0  0  0  0  0  0  0
    8.5787  -17.8454   22.8045 O   0  0  0  0  0  0  0  0  0  0  0  0
    8.0813  -15.8115   21.9133 N   0  0  0  0  0  0  0  0  0  0  0  0
    8.9309  -16.0828   20.7835 C   0  0  1  0  0  0  0  0  0  0  0  0
    8.8211  -14.9533   19.7511 C   0  0  0  0  0  0  0  0  0  0  0  0
    7.0941  -14.9188   19.2084 S   0  0  0  0  0  0  0  0  0  0  0  0
   10.3593  -16.2436   21.1248 C   0  0  0  0  0  0  0  0  0  0  0  0
   11.0137  -15.3334   21.6858 O   0  0  0  0  0  0  0  0  0  0  0  0
   12.1746  -20.0237   20.6397 O   0  0  0  0  0  0  0  0  0  0  0  0
   12.7794  -19.1147   21.4829 C   0  0  0  0  0  0  0  0  0  0  0  0
   12.4509  -17.6930   21.1741 C   0  0  2  0  0  0  0  0  0  0  0  0
   11.0891  -17.4277   20.8428 N   0  0  0  0  0  0  0  0  0  0  0  0
   13.3712  -17.2295   20.1106 C   0  0  0  0  0  0  0  0  0  0  0  0
   12.9879  -16.7656   19.0153 O   0  0  0  0  0  0  0  0  0  0  0  0
   14.7402  -17.3088   20.3236 O   0  0  0  0  0  0  0  0  0  0  0  0
  2  1  1  1
  3  2  1  0
  4  3  1  0
  5  4  2  0
  6  5  1  0
  7 12  2  0
  7  6  1  0
  8  7  1  0
  9  8  2  0
  9 10  1  0
 10 11  2  0
 11 12  1  0
 12  4  1  0
 13  2  1  0
 14 13  2  0
 15 13  1  0
 16 15  1  0
 16 17  1  6
 17 18  1  0
 19 16  1  0
 20 19  2  0
 22 21  1  0
 23 22  1  6
 23 24  1  0
 24 19  1  0
 25 27  1  0
 25 23  1  0
 26 25  2  0
M  END
$$$$
