WCS.pdb
     RDKit          3D

 27 28  0  0  1  0  0  0  0  0999 V2000
    7.2375  -17.0486   24.7658 N   0  0  0  0  0  0  0  0  0  0  0  0
    7.9899  -16.4726   23.6396 C   0  0  1  0  0  0  0  0  0  0  0  0
    8.4619  -15.0959   24.1097 C   0  0  0  0  0  0  0  0  0  0  0  0
    7.4313  -14.6464   25.1089 C   0  0  0  0  0  0  0  0  0  0  0  0
    6.4499  -15.3509   25.7448 C   0  0  0  0  0  0  0  0  0  0  0  0
    5.7660  -14.4836   26.5467 N   0  0  0  0  0  0  0  0  0  0  0  0
    6.2926  -13.2621   26.4297 C   0  0  0  0  0  0  0  0  0  0  0  0
    6.0333  -12.0102   26.9954 C   0  0  0  0  0  0  0  0  0  0  0  0
    6.7714  -10.9050   26.6851 C   0  0  0  0  0  0  0  0  0  0  0  0
    7.8230  -10.9859   25.7843 C   0  0  0  0  0  0  0  0  0  0  0  0
    8.0809  -12.2220   25.2239 C   0  0  0  0  0  0  0  0  0  0  0  0
    7.3338  -13.3275   25.5400 C   0  0  0  0  0  0  0  0  0  0  0  0
    9.0926  -17.3247   23.2027 C   0  0  0  0  0  0  0  0  0  0  0  0
    9.8216  -17.9569   24.0412 O   0  0  0  0  0  0  0  0  0  0  0  0
    9.4608  -17.5367   21.8339 N   0  0  0  0  0  0  0  0  0  0  0  0
   10.6402  -16.9328   21.2718 C   0  0  1  0  0  0  0  0  0  0  0  0
   10.3630  -15.4714   20.8961 C   0  0  0  0  0  0  0  0  0  0  0  0
   11.9234  -14.7952   20.2748 S   0  0  0  0  0  0  0  0  0  0  0  0
   11.8158  -16.9525   22.1663 C   0  0  0  0  0  0  0  0  0  0  0  0
   11.8641  -16.2649   23.2134 O   0  0  0  0  0  0  0  0  0  0  0  0
   14.8251  -19.9219   21.7143 O   0  0  0  0  0  0  0  0  0  0  0  0
   14.6791  -19.2256   22.8961 C   0  0  0  0  0  0  0  0  0  0  0  0
   14.1320  -17.8490   22.7226 C   0  0  2  0  0  0  0  0  0  0  0  0
   12.9667  -17.7417   21.9072 N   0  0  0  0  0  0  0  0  0  0  0  0
   15.2246  -16.9794   22.2298 C   0  0  0  0  0  0  0  0  0  0  0  0
   15.2027  -16.3975   21.1240 O   0  0  0  0  0  0  0  0  0  0  0  0
   16.3449  -16.7894   23.0264 O   0  0  0  0  0  0  0  0  0  0  0  0
  2  1  1  1
  3  2  1  0
  4  3  1  0
  5  4  2  0
  6  5  1  0
  7 12  2  0
  7  6  1  0
  8  7  1  0
  9  8  2  0
  9 10  1  0
 10 11  2  0
 11 12  1  0
 12  4  1  0
 13  2  1  0
 14 13  2  0
 15 13  1  0
 16 15  1  0
 16 17  1  1
 17 18  1  0
 19 16  1  0
 20 19  2  0
 22 21  1  0
 23 22  1  6
 23 24  1  0
 24 19  1  0
 25 27  1  0
 25 23  1  0
 26 25  2  0
M  END
$$$$
