WCS.pdb
     RDKit          3D

 27 28  0  0  1  0  0  0  0  0999 V2000
    6.6318  -18.1200   24.2371 N   0  0  0  0  0  0  0  0  0  0  0  0
    7.1395  -16.7653   23.9664 C   0  0  1  0  0  0  0  0  0  0  0  0
    7.9515  -16.3664   25.1995 C   0  0  0  0  0  0  0  0  0  0  0  0
    7.0843  -15.3867   25.9418 C   0  0  0  0  0  0  0  0  0  0  0  0
    5.9353  -15.5841   26.6523 C   0  0  0  0  0  0  0  0  0  0  0  0
    5.5225  -14.3717   27.1240 N   0  0  0  0  0  0  0  0  0  0  0  0
    6.3799  -13.4269   26.7296 C   0  0  0  0  0  0  0  0  0  0  0  0
    6.4867  -12.0447   26.9097 C   0  0  0  0  0  0  0  0  0  0  0  0
    7.5150  -11.3198   26.3808 C   0  0  0  0  0  0  0  0  0  0  0  0
    8.5075  -11.9385   25.6352 C   0  0  0  0  0  0  0  0  0  0  0  0
    8.4037  -13.3043   25.4557 C   0  0  0  0  0  0  0  0  0  0  0  0
    7.3667  -14.0255   25.9895 C   0  0  0  0  0  0  0  0  0  0  0  0
    7.9185  -16.6902   22.7334 C   0  0  0  0  0  0  0  0  0  0  0  0
    8.5510  -17.7041   22.2796 O   0  0  0  0  0  0  0  0  0  0  0  0
    8.0504  -15.5123   21.9277 N   0  0  0  0  0  0  0  0  0  0  0  0
    8.9663  -15.4602   20.8186 C   0  0  1  0  0  0  0  0  0  0  0  0
    8.4937  -14.4294   19.7854 C   0  0  0  0  0  0  0  0  0  0  0  0
    6.6891  -14.5596   19.7172 S   0  0  0  0  0  0  0  0  0  0  0  0
   10.3535  -15.1178   21.1943 C   0  0  0  0  0  0  0  0  0  0  0  0
   10.6681  -13.9732   21.5974 O   0  0  0  0  0  0  0  0  0  0  0  0
   12.5171  -17.3140   24.4134 O   0  0  0  0  0  0  0  0  0  0  0  0
   11.6347  -16.9390   23.4216 C   0  0  0  0  0  0  0  0  0  0  0  0
   12.2961  -16.4300   22.1855 C   0  0  2  0  0  0  0  0  0  0  0  0
   11.4218  -16.0495   21.1246 N   0  0  0  0  0  0  0  0  0  0  0  0
   13.2830  -17.4414   21.7429 C   0  0  0  0  0  0  0  0  0  0  0  0
   14.5007  -17.3895   22.0191 O   0  0  0  0  0  0  0  0  0  0  0  0
   12.8499  -18.5135   20.9756 O   0  0  0  0  0  0  0  0  0  0  0  0
  2  1  1  1
  3  2  1  0
  4  3  1  0
  5  4  2  0
  6  5  1  0
  7 12  2  0
  7  6  1  0
  8  7  1  0
  9  8  2  0
  9 10  1  0
 10 11  2  0
 11 12  1  0
 12  4  1  0
 13  2  1  0
 14 13  2  0
 15 13  1  0
 16 15  1  0
 16 17  1  6
 17 18  1  0
 19 16  1  0
 20 19  2  0
 22 21  1  0
 23 22  1  1
 23 24  1  0
 24 19  1  0
 25 27  1  0
 25 23  1  0
 26 25  2  0
M  END
$$$$
