WCS.pdb
     RDKit          3D

 27 28  0  0  1  0  0  0  0  0999 V2000
    8.9927  -16.7570   23.2788 N   0  0  0  0  0  0  0  0  0  0  0  0
    9.0336  -15.9950   24.5373 C   0  0  1  0  0  0  0  0  0  0  0  0
    7.9724  -16.6217   25.4429 C   0  0  0  0  0  0  0  0  0  0  0  0
    6.8133  -15.6634   25.4125 C   0  0  0  0  0  0  0  0  0  0  0  0
    5.4881  -15.8858   25.1714 C   0  0  0  0  0  0  0  0  0  0  0  0
    4.8432  -14.6850   25.2439 N   0  0  0  0  0  0  0  0  0  0  0  0
    5.7264  -13.7233   25.5237 C   0  0  0  0  0  0  0  0  0  0  0  0
    5.6595  -12.3418   25.7272 C   0  0  0  0  0  0  0  0  0  0  0  0
    6.7638  -11.5959   26.0218 C   0  0  0  0  0  0  0  0  0  0  0  0
    8.0115  -12.1914   26.1331 C   0  0  0  0  0  0  0  0  0  0  0  0
    8.0799  -13.5565   25.9321 C   0  0  0  0  0  0  0  0  0  0  0  0
    6.9659  -14.2989   25.6353 C   0  0  0  0  0  0  0  0  0  0  0  0
   10.3595  -15.9867   25.1494 C   0  0  0  0  0  0  0  0  0  0  0  0
   11.3800  -16.4572   24.5401 O   0  0  0  0  0  0  0  0  0  0  0  0
   10.6478  -15.4661   26.4532 N   0  0  0  0  0  0  0  0  0  0  0  0
   11.8324  -15.8558   27.1720 C   0  0  1  0  0  0  0  0  0  0  0  0
   11.9621  -15.0420   28.4660 C   0  0  0  0  0  0  0  0  0  0  0  0
   10.4452  -14.0647   28.6133 S   0  0  0  0  0  0  0  0  0  0  0  0
   11.8777  -17.2874   27.5338 C   0  0  0  0  0  0  0  0  0  0  0  0
   10.8452  -17.9979   27.5596 O   0  0  0  0  0  0  0  0  0  0  0  0
   12.4912  -19.0666   30.4248 O   0  0  0  0  0  0  0  0  0  0  0  0
   12.4525  -19.8737   29.3067 C   0  0  0  0  0  0  0  0  0  0  0  0
   13.2386  -19.3469   28.1539 C   0  0  2  0  0  0  0  0  0  0  0  0
   13.0812  -17.9563   27.8781 N   0  0  0  0  0  0  0  0  0  0  0  0
   12.9270  -20.1769   26.9679 C   0  0  0  0  0  0  0  0  0  0  0  0
   13.0071  -21.4240   26.9537 O   0  0  0  0  0  0  0  0  0  0  0  0
   12.5234  -19.5521   25.7963 O   0  0  0  0  0  0  0  0  0  0  0  0
  2  1  1  6
  3  2  1  0
  4  3  1  0
  5  4  2  0
  6  5  1  0
  7 12  2  0
  7  6  1  0
  8  7  1  0
  9  8  2  0
  9 10  1  0
 10 11  2  0
 11 12  1  0
 12  4  1  0
 13  2  1  0
 14 13  2  0
 15 13  1  0
 16 15  1  0
 16 17  1  1
 17 18  1  0
 19 16  1  0
 20 19  2  0
 22 21  1  0
 23 22  1  1
 23 24  1  0
 24 19  1  0
 25 27  1  0
 25 23  1  0
 26 25  2  0
M  END
$$$$
