WCS.pdb
     RDKit          3D

 27 28  0  0  1  0  0  0  0  0999 V2000
    6.7241  -17.4869   23.9984 N   0  0  0  0  0  0  0  0  0  0  0  0
    7.7522  -16.4587   23.7702 C   0  0  1  0  0  0  0  0  0  0  0  0
    8.3255  -16.1244   25.1481 C   0  0  0  0  0  0  0  0  0  0  0  0
    7.2911  -15.2508   25.8035 C   0  0  0  0  0  0  0  0  0  0  0  0
    6.1098  -15.5779   26.4047 C   0  0  0  0  0  0  0  0  0  0  0  0
    5.5246  -14.4212   26.8322 N   0  0  0  0  0  0  0  0  0  0  0  0
    6.3060  -13.3855   26.5162 C   0  0  0  0  0  0  0  0  0  0  0  0
    6.2435  -12.0012   26.7010 C   0  0  0  0  0  0  0  0  0  0  0  0
    7.2306  -11.1644   26.2676 C   0  0  0  0  0  0  0  0  0  0  0  0
    8.3498  -11.6655   25.6194 C   0  0  0  0  0  0  0  0  0  0  0  0
    8.4136  -13.0332   25.4355 C   0  0  0  0  0  0  0  0  0  0  0  0
    7.4169  -13.8673   25.8728 C   0  0  0  0  0  0  0  0  0  0  0  0
    8.7791  -16.8873   22.8243 C   0  0  0  0  0  0  0  0  0  0  0  0
    9.2877  -18.0589   22.8753 O   0  0  0  0  0  0  0  0  0  0  0  0
    9.3062  -16.0681   21.7731 N   0  0  0  0  0  0  0  0  0  0  0  0
   10.4936  -16.4445   21.0519 C   0  0  1  0  0  0  0  0  0  0  0  0
   10.7554  -15.4592   19.9055 C   0  0  0  0  0  0  0  0  0  0  0  0
    9.1590  -15.1688   19.1022 S   0  0  0  0  0  0  0  0  0  0  0  0
   11.7138  -16.5032   21.8827 C   0  0  0  0  0  0  0  0  0  0  0  0
   12.1259  -15.5099   22.5269 O   0  0  0  0  0  0  0  0  0  0  0  0
   13.0469  -20.1771   23.2691 O   0  0  0  0  0  0  0  0  0  0  0  0
   13.4958  -19.0054   23.8422 C   0  0  0  0  0  0  0  0  0  0  0  0
   13.6140  -17.8700   22.8823 C   0  0  2  0  0  0  0  0  0  0  0  0
   12.5028  -17.6762   22.0092 N   0  0  0  0  0  0  0  0  0  0  0  0
   14.8777  -18.0357   22.1283 C   0  0  0  0  0  0  0  0  0  0  0  0
   14.9353  -18.1298   20.8835 O   0  0  0  0  0  0  0  0  0  0  0  0
   16.0754  -18.0936   22.8268 O   0  0  0  0  0  0  0  0  0  0  0  0
  2  1  1  1
  3  2  1  0
  4  3  1  0
  5  4  2  0
  6  5  1  0
  7 12  2  0
  7  6  1  0
  8  7  1  0
  9  8  2  0
  9 10  1  0
 10 11  2  0
 11 12  1  0
 12  4  1  0
 13  2  1  0
 14 13  2  0
 15 13  1  0
 16 15  1  0
 16 17  1  6
 17 18  1  0
 19 16  1  0
 20 19  2  0
 22 21  1  0
 23 22  1  6
 23 24  1  0
 24 19  1  0
 25 27  1  0
 25 23  1  0
 26 25  2  0
M  END
$$$$
