WCS.pdb
     RDKit          3D

 27 28  0  0  1  0  0  0  0  0999 V2000
    8.8385  -15.6125   24.5376 N   0  0  0  0  0  0  0  0  0  0  0  0
    7.5914  -16.1976   24.0193 C   0  0  1  0  0  0  0  0  0  0  0  0
    6.4700  -15.6456   24.9006 C   0  0  0  0  0  0  0  0  0  0  0  0
    7.1675  -14.9955   26.0641 C   0  0  0  0  0  0  0  0  0  0  0  0
    7.9741  -15.5342   27.0249 C   0  0  0  0  0  0  0  0  0  0  0  0
    8.3471  -14.5285   27.8689 N   0  0  0  0  0  0  0  0  0  0  0  0
    7.7981  -13.3813   27.4619 C   0  0  0  0  0  0  0  0  0  0  0  0
    7.8274  -12.0548   27.9024 C   0  0  0  0  0  0  0  0  0  0  0  0
    7.1553  -11.0587   27.2553 C   0  0  0  0  0  0  0  0  0  0  0  0
    6.4086  -11.3308   26.1186 C   0  0  0  0  0  0  0  0  0  0  0  0
    6.3780  -12.6410   25.6817 C   0  0  0  0  0  0  0  0  0  0  0  0
    7.0551  -13.6365   26.3382 C   0  0  0  0  0  0  0  0  0  0  0  0
    7.3816  -15.9152   22.6019 C   0  0  0  0  0  0  0  0  0  0  0  0
    6.2908  -16.2266   22.0127 O   0  0  0  0  0  0  0  0  0  0  0  0
    8.3431  -15.2790   21.7506 N   0  0  0  0  0  0  0  0  0  0  0  0
    8.1183  -15.1420   20.3355 C   0  0  1  0  0  0  0  0  0  0  0  0
    8.2277  -13.6695   19.9189 C   0  0  0  0  0  0  0  0  0  0  0  0
    7.7864  -13.5973   18.1644 S   0  0  0  0  0  0  0  0  0  0  0  0
    9.0536  -15.9183   19.4957 C   0  0  0  0  0  0  0  0  0  0  0  0
   10.2965  -15.8329   19.6344 O   0  0  0  0  0  0  0  0  0  0  0  0
    9.5980  -18.8281   15.5542 O   0  0  0  0  0  0  0  0  0  0  0  0
    8.7472  -18.2037   16.4426 C   0  0  0  0  0  0  0  0  0  0  0  0
    9.4413  -17.5765   17.6043 C   0  0  2  0  0  0  0  0  0  0  0  0
    8.6179  -16.8069   18.4785 N   0  0  0  0  0  0  0  0  0  0  0  0
   10.5783  -16.7821   17.0858 C   0  0  0  0  0  0  0  0  0  0  0  0
   10.4981  -15.5723   16.7830 O   0  0  0  0  0  0  0  0  0  0  0  0
   11.8098  -17.3994   16.9183 O   0  0  0  0  0  0  0  0  0  0  0  0
  2  1  1  1
  3  2  1  0
  4  3  1  0
  5  4  2  0
  6  5  1  0
  7 12  2  0
  7  6  1  0
  8  7  1  0
  9  8  2  0
  9 10  1  0
 10 11  2  0
 11 12  1  0
 12  4  1  0
 13  2  1  0
 14 13  2  0
 15 13  1  0
 16 15  1  0
 16 17  1  6
 17 18  1  0
 19 16  1  0
 20 19  2  0
 22 21  1  0
 23 22  1  6
 23 24  1  0
 24 19  1  0
 25 27  1  0
 25 23  1  0
 26 25  2  0
M  END
$$$$
