WCS.pdb
     RDKit          3D

 27 28  0  0  1  0  0  0  0  0999 V2000
    6.5617  -17.8777   24.8677 N   0  0  0  0  0  0  0  0  0  0  0  0
    7.1381  -16.6316   24.3376 C   0  0  1  0  0  0  0  0  0  0  0  0
    8.0385  -16.0807   25.4443 C   0  0  0  0  0  0  0  0  0  0  0  0
    7.1586  -15.1616   26.2467 C   0  0  0  0  0  0  0  0  0  0  0  0
    6.0759  -15.4361   27.0318 C   0  0  0  0  0  0  0  0  0  0  0  0
    5.6144  -14.2541   27.5347 N   0  0  0  0  0  0  0  0  0  0  0  0
    6.3773  -13.2536   27.0873 C   0  0  0  0  0  0  0  0  0  0  0  0
    6.4019  -11.8672   27.2650 C   0  0  0  0  0  0  0  0  0  0  0  0
    7.3408  -11.0745   26.6711 C   0  0  0  0  0  0  0  0  0  0  0  0
    8.3207  -11.6250   25.8584 C   0  0  0  0  0  0  0  0  0  0  0  0
    8.2981  -12.9948   25.6812 C   0  0  0  0  0  0  0  0  0  0  0  0
    7.3506  -13.7844   26.2804 C   0  0  0  0  0  0  0  0  0  0  0  0
    7.8530  -16.8305   23.0797 C   0  0  0  0  0  0  0  0  0  0  0  0
    8.5503  -17.8803   22.8660 O   0  0  0  0  0  0  0  0  0  0  0  0
    7.8473  -15.9021   21.9879 N   0  0  0  0  0  0  0  0  0  0  0  0
    8.6444  -16.1236   20.8101 C   0  0  1  0  0  0  0  0  0  0  0  0
    8.4395  -14.9822   19.8058 C   0  0  0  0  0  0  0  0  0  0  0  0
    6.6933  -15.0238   19.3291 S   0  0  0  0  0  0  0  0  0  0  0  0
   10.0938  -16.2378   21.0725 C   0  0  0  0  0  0  0  0  0  0  0  0
   10.7270  -15.3524   21.6944 O   0  0  0  0  0  0  0  0  0  0  0  0
   12.0399  -19.7391   21.8137 O   0  0  0  0  0  0  0  0  0  0  0  0
   12.7195  -18.9656   20.8957 C   0  0  0  0  0  0  0  0  0  0  0  0
   12.2659  -17.5455   20.8487 C   0  0  2  0  0  0  0  0  0  0  0  0
   10.8688  -17.3460   20.6416 N   0  0  0  0  0  0  0  0  0  0  0  0
   13.0749  -16.8384   19.8298 C   0  0  0  0  0  0  0  0  0  0  0  0
   12.5841  -16.2274   18.8563 O   0  0  0  0  0  0  0  0  0  0  0  0
   14.4578  -16.8453   19.9448 O   0  0  0  0  0  0  0  0  0  0  0  0
  2  1  1  1
  3  2  1  0
  4  3  1  0
  5  4  2  0
  6  5  1  0
  7 12  2  0
  7  6  1  0
  8  7  1  0
  9  8  2  0
  9 10  1  0
 10 11  2  0
 11 12  1  0
 12  4  1  0
 13  2  1  0
 14 13  2  0
 15 13  1  0
 16 15  1  0
 16 17  1  6
 17 18  1  0
 19 16  1  0
 20 19  2  0
 22 21  1  0
 23 22  1  6
 23 24  1  0
 24 19  1  0
 25 27  1  0
 25 23  1  0
 26 25  2  0
M  END
$$$$
