QEL.pdb
     RDKit          3D

 27 26  0  0  1  0  0  0  0  0999 V2000
   10.3304  -12.7799   18.9460 N   0  0  0  0  0  0  0  0  0  0  0  0
    9.0907  -12.8870   18.2710 C   0  0  0  0  0  0  0  0  0  0  0  0
    9.0756  -12.9949   17.0239 O   0  0  0  0  0  0  0  0  0  0  0  0
    7.8063  -12.8741   19.0099 C   0  0  0  0  0  0  0  0  0  0  0  0
    7.9360  -13.6367   20.2821 C   0  0  0  0  0  0  0  0  0  0  0  0
    8.2701  -15.1015   20.1120 C   0  0  2  0  0  0  0  0  0  0  0  0
    7.1488  -15.6938   19.4168 N   0  0  0  0  0  0  0  0  0  0  0  0
    8.5229  -15.7865   21.3995 C   0  0  0  0  0  0  0  0  0  0  0  0
    7.5674  -16.0569   22.1801 O   0  0  0  0  0  0  0  0  0  0  0  0
    9.8197  -16.1819   21.8461 N   0  0  0  0  0  0  0  0  0  0  0  0
   10.0029  -16.7758   23.1138 C   0  0  1  0  0  0  0  0  0  0  0  0
   11.1486  -17.7483   23.1645 C   0  0  0  0  0  0  0  0  0  0  0  0
   11.0904  -18.8460   22.1609 C   0  0  0  0  0  0  0  0  0  0  0  0
   12.3690  -19.3336   21.6407 C   0  0  0  0  0  0  0  0  0  0  0  0
   13.3649  -19.6516   22.3510 O   0  0  0  0  0  0  0  0  0  0  0  0
   10.1903  -15.8029   24.2177 C   0  0  0  0  0  0  0  0  0  0  0  0
   10.6308  -14.6405   24.0427 O   0  0  0  0  0  0  0  0  0  0  0  0
   12.5900  -19.4903   20.2539 O   0  0  0  0  0  0  0  0  0  0  0  0
    6.8901  -12.8718   26.9008 C   0  0  0  0  0  0  0  0  0  0  0  0
    8.4311  -13.1240   26.9753 C   0  0  1  0  0  0  0  0  0  0  0  0
    8.7766  -12.8993   28.4015 C   0  0  0  0  0  0  0  0  0  0  0  0
    8.6166  -14.4568   26.3950 C   0  0  0  0  0  0  0  0  0  0  0  0
    9.8215  -15.2648   26.6569 C   0  0  2  0  0  0  0  0  0  0  0  0
    9.8475  -16.2329   25.5167 N   0  0  0  0  0  0  0  0  0  0  0  0
    9.7134  -16.1201   27.8342 C   0  0  0  0  0  0  0  0  0  0  0  0
    9.0271  -17.1687   27.8070 O   0  0  0  0  0  0  0  0  0  0  0  0
   10.3528  -15.8251   29.0102 O   0  0  0  0  0  0  0  0  0  0  0  0
  2  3  2  0
  2  1  1  0
  4  2  1  0
  5  4  1  0
  6  8  1  0
  6  5  1  0
  6  7  1  1
  8  9  2  0
 10 11  1  0
 10  8  1  0
 11 12  1  6
 12 13  1  0
 13 14  1  0
 14 18  1  0
 15 14  2  0
 16 11  1  0
 17 16  2  0
 20 19  1  1
 20 22  1  0
 21 20  1  0
 23 22  1  6
 23 24  1  0
 24 16  1  0
 25 23  1  0
 25 27  1  0
 26 25  2  0
M  END
$$$$
