QEL.pdb
     RDKit          3D

 27 26  0  0  1  0  0  0  0  0999 V2000
    8.8269  -12.1865   19.1599 N   0  0  0  0  0  0  0  0  0  0  0  0
    8.5313  -13.0469   18.0753 C   0  0  0  0  0  0  0  0  0  0  0  0
    8.5072  -12.5856   16.9118 O   0  0  0  0  0  0  0  0  0  0  0  0
    8.2488  -14.4861   18.2871 C   0  0  0  0  0  0  0  0  0  0  0  0
    8.2940  -14.8119   19.7392 C   0  0  0  0  0  0  0  0  0  0  0  0
    8.2093  -16.2869   20.0610 C   0  0  2  0  0  0  0  0  0  0  0  0
    6.9206  -16.7325   19.5790 N   0  0  0  0  0  0  0  0  0  0  0  0
    8.3667  -16.5699   21.5052 C   0  0  0  0  0  0  0  0  0  0  0  0
    7.3578  -16.8189   22.2232 O   0  0  0  0  0  0  0  0  0  0  0  0
    9.6255  -16.5834   22.1781 N   0  0  0  0  0  0  0  0  0  0  0  0
    9.7293  -17.0138   23.5187 C   0  0  1  0  0  0  0  0  0  0  0  0
   10.8204  -18.0232   23.7455 C   0  0  0  0  0  0  0  0  0  0  0  0
   10.9587  -18.4995   25.1489 C   0  0  0  0  0  0  0  0  0  0  0  0
   12.0539  -19.4307   25.4254 C   0  0  0  0  0  0  0  0  0  0  0  0
   12.1341  -20.1703   26.4473 O   0  0  0  0  0  0  0  0  0  0  0  0
    9.9245  -15.9142   24.4951 C   0  0  0  0  0  0  0  0  0  0  0  0
   10.9491  -15.1893   24.5188 O   0  0  0  0  0  0  0  0  0  0  0  0
   13.1417  -19.5756   24.5354 O   0  0  0  0  0  0  0  0  0  0  0  0
    5.4261  -13.2424   26.3481 C   0  0  0  0  0  0  0  0  0  0  0  0
    6.8535  -13.3739   25.7242 C   0  0  1  0  0  0  0  0  0  0  0  0
    7.2881  -11.9737   25.4909 C   0  0  0  0  0  0  0  0  0  0  0  0
    7.5974  -14.2057   26.6741 C   0  0  0  0  0  0  0  0  0  0  0  0
    8.9990  -14.5987   26.4413 C   0  0  2  0  0  0  0  0  0  0  0  0
    8.8910  -15.6955   25.4299 N   0  0  0  0  0  0  0  0  0  0  0  0
    9.6280  -15.2462   27.5877 C   0  0  0  0  0  0  0  0  0  0  0  0
   10.2115  -14.5711   28.4680 O   0  0  0  0  0  0  0  0  0  0  0  0
    9.6070  -16.6061   27.7585 O   0  0  0  0  0  0  0  0  0  0  0  0
  2  3  2  0
  2  1  1  0
  4  2  1  0
  5  4  1  0
  6  8  1  0
  6  5  1  0
  6  7  1  1
  8  9  2  0
 10 11  1  0
 10  8  1  0
 11 12  1  6
 12 13  1  0
 13 14  1  0
 14 18  1  0
 15 14  2  0
 16 11  1  0
 17 16  2  0
 20 19  1  1
 20 22  1  0
 21 20  1  0
 23 22  1  1
 23 24  1  0
 24 16  1  0
 25 23  1  0
 25 27  1  0
 26 25  2  0
M  END
$$$$
