QEL.pdb
     RDKit          3D

 27 26  0  0  1  0  0  0  0  0999 V2000
    8.7402  -12.0524   19.5391 N   0  0  0  0  0  0  0  0  0  0  0  0
    8.1337  -12.6996   18.4358 C   0  0  0  0  0  0  0  0  0  0  0  0
    8.0862  -12.1160   17.3293 O   0  0  0  0  0  0  0  0  0  0  0  0
    7.5520  -14.0566   18.5617 C   0  0  0  0  0  0  0  0  0  0  0  0
    7.6755  -14.5422   19.9637 C   0  0  0  0  0  0  0  0  0  0  0  0
    7.9030  -16.0307   20.1014 C   0  0  2  0  0  0  0  0  0  0  0  0
    6.7134  -16.6709   19.5852 N   0  0  0  0  0  0  0  0  0  0  0  0
    8.1697  -16.4446   21.4972 C   0  0  0  0  0  0  0  0  0  0  0  0
    7.2168  -16.6129   22.3090 O   0  0  0  0  0  0  0  0  0  0  0  0
    9.4777  -16.6779   22.0190 N   0  0  0  0  0  0  0  0  0  0  0  0
    9.6670  -17.0537   23.3666 C   0  0  1  0  0  0  0  0  0  0  0  0
   10.7647  -18.0624   23.5632 C   0  0  0  0  0  0  0  0  0  0  0  0
   10.8911  -18.5971   24.9465 C   0  0  0  0  0  0  0  0  0  0  0  0
   12.0480  -19.4510   25.2213 C   0  0  0  0  0  0  0  0  0  0  0  0
   12.0460  -20.7135   25.1603 O   0  0  0  0  0  0  0  0  0  0  0  0
    9.9328  -15.9167   24.2815 C   0  0  0  0  0  0  0  0  0  0  0  0
   10.8059  -15.0431   24.0574 O   0  0  0  0  0  0  0  0  0  0  0  0
   13.2982  -18.9043   25.5882 O   0  0  0  0  0  0  0  0  0  0  0  0
    6.2384  -12.7090   26.4730 C   0  0  0  0  0  0  0  0  0  0  0  0
    7.6238  -13.0917   25.8581 C   0  0  1  0  0  0  0  0  0  0  0  0
    8.3689  -11.8093   25.7924 C   0  0  0  0  0  0  0  0  0  0  0  0
    8.1253  -14.1680   26.7169 C   0  0  0  0  0  0  0  0  0  0  0  0
    9.4367  -14.8030   26.4926 C   0  0  2  0  0  0  0  0  0  0  0  0
    9.1498  -15.8390   25.4524 N   0  0  0  0  0  0  0  0  0  0  0  0
    9.9181  -15.5794   27.6304 C   0  0  0  0  0  0  0  0  0  0  0  0
    9.6962  -16.8105   27.7094 O   0  0  0  0  0  0  0  0  0  0  0  0
   10.6318  -15.0088   28.6522 O   0  0  0  0  0  0  0  0  0  0  0  0
  2  3  2  0
  2  1  1  0
  4  2  1  0
  5  4  1  0
  6  8  1  0
  6  5  1  0
  6  7  1  1
  8  9  2  0
 10 11  1  0
 10  8  1  0
 11 12  1  6
 12 13  1  0
 13 14  1  0
 14 18  1  0
 15 14  2  0
 16 11  1  0
 17 16  2  0
 20 19  1  1
 20 22  1  0
 21 20  1  0
 23 22  1  1
 23 24  1  0
 24 16  1  0
 25 23  1  0
 25 27  1  0
 26 25  2  0
M  END
$$$$
