QEL.pdb
     RDKit          3D

 27 26  0  0  1  0  0  0  0  0999 V2000
    5.2976  -18.5802   18.1887 N   0  0  0  0  0  0  0  0  0  0  0  0
    6.7087  -18.6794   18.1367 C   0  0  0  0  0  0  0  0  0  0  0  0
    7.2368  -19.6486   17.5458 O   0  0  0  0  0  0  0  0  0  0  0  0
    7.5777  -17.6585   18.7679 C   0  0  0  0  0  0  0  0  0  0  0  0
    6.7488  -16.5874   19.3864 C   0  0  0  0  0  0  0  0  0  0  0  0
    7.5315  -15.5344   20.1380 C   0  0  2  0  0  0  0  0  0  0  0  0
    8.7077  -15.2604   19.3424 N   0  0  0  0  0  0  0  0  0  0  0  0
    7.8995  -15.9600   21.5070 C   0  0  0  0  0  0  0  0  0  0  0  0
    7.0133  -16.0914   22.3974 O   0  0  0  0  0  0  0  0  0  0  0  0
    9.2370  -16.2455   21.9160 N   0  0  0  0  0  0  0  0  0  0  0  0
    9.5085  -16.7792   23.1945 C   0  0  1  0  0  0  0  0  0  0  0  0
   10.5663  -17.8479   23.1898 C   0  0  0  0  0  0  0  0  0  0  0  0
   10.8007  -18.5105   24.5020 C   0  0  0  0  0  0  0  0  0  0  0  0
   11.8890  -19.4878   24.5632 C   0  0  0  0  0  0  0  0  0  0  0  0
   12.8060  -19.4958   25.4330 O   0  0  0  0  0  0  0  0  0  0  0  0
    9.8990  -15.7653   24.2044 C   0  0  0  0  0  0  0  0  0  0  0  0
   10.9422  -15.0728   24.1161 O   0  0  0  0  0  0  0  0  0  0  0  0
   11.9963  -20.5328   23.6182 O   0  0  0  0  0  0  0  0  0  0  0  0
    6.0959  -12.6955   26.4494 C   0  0  0  0  0  0  0  0  0  0  0  0
    7.4559  -13.0614   25.7710 C   0  0  1  0  0  0  0  0  0  0  0  0
    8.0923  -11.7515   25.4826 C   0  0  0  0  0  0  0  0  0  0  0  0
    8.1032  -13.9804   26.7113 C   0  0  0  0  0  0  0  0  0  0  0  0
    9.3858  -14.6396   26.4055 C   0  0  2  0  0  0  0  0  0  0  0  0
    9.0357  -15.5923   25.3066 N   0  0  0  0  0  0  0  0  0  0  0  0
    9.8721  -15.5072   27.4732 C   0  0  0  0  0  0  0  0  0  0  0  0
    9.6565  -16.7417   27.4478 O   0  0  0  0  0  0  0  0  0  0  0  0
   10.5837  -15.0215   28.5395 O   0  0  0  0  0  0  0  0  0  0  0  0
  2  3  2  0
  2  1  1  0
  4  2  1  0
  5  4  1  0
  6  8  1  0
  6  5  1  0
  6  7  1  6
  8  9  2  0
 10 11  1  0
 10  8  1  0
 11 12  1  6
 12 13  1  0
 13 14  1  0
 14 18  1  0
 15 14  2  0
 16 11  1  0
 17 16  2  0
 20 19  1  1
 20 22  1  0
 21 20  1  0
 23 22  1  1
 23 24  1  0
 24 16  1  0
 25 23  1  0
 25 27  1  0
 26 25  2  0
M  END
$$$$
