QEL.pdb
     RDKit          3D

 27 26  0  0  1  0  0  0  0  0999 V2000
    7.1224  -15.4444   16.6535 N   0  0  0  0  0  0  0  0  0  0  0  0
    8.0139  -14.3603   16.8374 C   0  0  0  0  0  0  0  0  0  0  0  0
    9.1785  -14.4368   16.3846 O   0  0  0  0  0  0  0  0  0  0  0  0
    7.5982  -13.1330   17.5563 C   0  0  0  0  0  0  0  0  0  0  0  0
    7.3625  -13.4335   18.9953 C   0  0  0  0  0  0  0  0  0  0  0  0
    8.5986  -13.3811   19.8647 C   0  0  2  0  0  0  0  0  0  0  0  0
    9.7148  -13.6925   18.9995 N   0  0  0  0  0  0  0  0  0  0  0  0
    8.5346  -14.3148   21.0114 C   0  0  0  0  0  0  0  0  0  0  0  0
    7.5627  -14.2747   21.8171 O   0  0  0  0  0  0  0  0  0  0  0  0
    9.5302  -15.2994   21.2887 N   0  0  0  0  0  0  0  0  0  0  0  0
    9.4043  -16.1704   22.3927 C   0  0  1  0  0  0  0  0  0  0  0  0
   10.3230  -17.3592   22.3309 C   0  0  0  0  0  0  0  0  0  0  0  0
   10.1419  -18.3549   23.4224 C   0  0  0  0  0  0  0  0  0  0  0  0
   10.9631  -19.5650   23.3554 C   0  0  0  0  0  0  0  0  0  0  0  0
   12.1948  -19.5885   23.0725 O   0  0  0  0  0  0  0  0  0  0  0  0
    9.6055  -15.5151   23.7081 C   0  0  0  0  0  0  0  0  0  0  0  0
   10.6153  -14.8223   23.9842 O   0  0  0  0  0  0  0  0  0  0  0  0
   10.4171  -20.8426   23.6123 O   0  0  0  0  0  0  0  0  0  0  0  0
    5.6601  -12.6832   25.9586 C   0  0  0  0  0  0  0  0  0  0  0  0
    7.1883  -12.9410   25.7542 C   0  0  1  0  0  0  0  0  0  0  0  0
    7.8545  -11.8748   26.5437 C   0  0  0  0  0  0  0  0  0  0  0  0
    7.3817  -14.3423   26.1371 C   0  0  0  0  0  0  0  0  0  0  0  0
    8.6855  -15.0177   26.0062 C   0  0  2  0  0  0  0  0  0  0  0  0
    8.5955  -15.6962   24.6761 N   0  0  0  0  0  0  0  0  0  0  0  0
    8.8757  -16.1193   26.9441 C   0  0  0  0  0  0  0  0  0  0  0  0
    9.2604  -15.9059   28.1179 O   0  0  0  0  0  0  0  0  0  0  0  0
    8.6407  -17.4235   26.5936 O   0  0  0  0  0  0  0  0  0  0  0  0
  2  3  2  0
  2  1  1  0
  4  2  1  0
  5  4  1  0
  6  8  1  0
  6  5  1  0
  6  7  1  6
  8  9  2  0
 10 11  1  0
 10  8  1  0
 11 12  1  6
 12 13  1  0
 13 14  1  0
 14 18  1  0
 15 14  2  0
 16 11  1  0
 17 16  2  0
 20 19  1  1
 20 22  1  0
 21 20  1  0
 23 22  1  1
 23 24  1  0
 24 16  1  0
 25 23  1  0
 25 27  1  0
 26 25  2  0
M  END
$$$$
