QEL.pdb
     RDKit          3D

 27 26  0  0  1  0  0  0  0  0999 V2000
    9.3923  -13.9665   15.9730 N   0  0  0  0  0  0  0  0  0  0  0  0
    8.0453  -14.0610   16.3981 C   0  0  0  0  0  0  0  0  0  0  0  0
    7.2991  -14.9293   15.8917 O   0  0  0  0  0  0  0  0  0  0  0  0
    7.4970  -13.1523   17.4322 C   0  0  0  0  0  0  0  0  0  0  0  0
    7.4470  -13.8425   18.7505 C   0  0  0  0  0  0  0  0  0  0  0  0
    8.7600  -13.8743   19.4997 C   0  0  2  0  0  0  0  0  0  0  0  0
    9.7384  -14.4084   18.5782 N   0  0  0  0  0  0  0  0  0  0  0  0
    8.6955  -14.6824   20.7381 C   0  0  0  0  0  0  0  0  0  0  0  0
    7.7306  -14.5475   21.5420 O   0  0  0  0  0  0  0  0  0  0  0  0
    9.6829  -15.6439   21.1099 N   0  0  0  0  0  0  0  0  0  0  0  0
    9.5903  -16.3469   22.3307 C   0  0  1  0  0  0  0  0  0  0  0  0
   10.5916  -17.4609   22.4627 C   0  0  0  0  0  0  0  0  0  0  0  0
   10.6761  -18.3764   21.2921 C   0  0  0  0  0  0  0  0  0  0  0  0
   12.0090  -18.8580   20.9252 C   0  0  0  0  0  0  0  0  0  0  0  0
   12.8656  -19.3063   21.7393 O   0  0  0  0  0  0  0  0  0  0  0  0
    9.7111  -15.4893   23.5350 C   0  0  0  0  0  0  0  0  0  0  0  0
   10.5473  -14.5585   23.6355 O   0  0  0  0  0  0  0  0  0  0  0  0
   12.4505  -18.8566   19.5830 O   0  0  0  0  0  0  0  0  0  0  0  0
    5.8203  -12.7052   26.5578 C   0  0  0  0  0  0  0  0  0  0  0  0
    7.3247  -12.7621   26.1364 C   0  0  1  0  0  0  0  0  0  0  0  0
    8.0672  -12.3323   27.3480 C   0  0  0  0  0  0  0  0  0  0  0  0
    7.5146  -14.1222   25.6251 C   0  0  0  0  0  0  0  0  0  0  0  0
    8.7832  -14.8535   25.7955 C   0  0  2  0  0  0  0  0  0  0  0  0
    8.8292  -15.7558   24.6033 N   0  0  0  0  0  0  0  0  0  0  0  0
    8.7852  -15.7751   26.9268 C   0  0  0  0  0  0  0  0  0  0  0  0
    8.2707  -16.9140   26.8300 O   0  0  0  0  0  0  0  0  0  0  0  0
    9.3470  -15.4465   28.1332 O   0  0  0  0  0  0  0  0  0  0  0  0
  2  3  2  0
  2  1  1  0
  4  2  1  0
  5  4  1  0
  6  8  1  0
  6  5  1  0
  6  7  1  6
  8  9  2  0
 10 11  1  0
 10  8  1  0
 11 12  1  6
 12 13  1  0
 13 14  1  0
 14 18  1  0
 15 14  2  0
 16 11  1  0
 17 16  2  0
 20 19  1  1
 20 22  1  0
 21 20  1  0
 23 22  1  6
 23 24  1  0
 24 16  1  0
 25 23  1  0
 25 27  1  0
 26 25  2  0
M  END
$$$$
