QEL.pdb
     RDKit          3D

 27 26  0  0  1  0  0  0  0  0999 V2000
    8.9972  -12.5486   17.8687 N   0  0  0  0  0  0  0  0  0  0  0  0
    7.9267  -13.0888   17.1162 C   0  0  0  0  0  0  0  0  0  0  0  0
    7.8512  -12.8459   15.8905 O   0  0  0  0  0  0  0  0  0  0  0  0
    6.8902  -13.9379   17.7490 C   0  0  0  0  0  0  0  0  0  0  0  0
    7.2445  -14.2115   19.1690 C   0  0  0  0  0  0  0  0  0  0  0  0
    8.3831  -15.1877   19.3615 C   0  0  2  0  0  0  0  0  0  0  0  0
    8.1697  -16.2514   18.4052 N   0  0  0  0  0  0  0  0  0  0  0  0
    8.4589  -15.7172   20.7417 C   0  0  0  0  0  0  0  0  0  0  0  0
    7.4323  -15.7386   21.4772 O   0  0  0  0  0  0  0  0  0  0  0  0
    9.6549  -16.2272   21.3307 N   0  0  0  0  0  0  0  0  0  0  0  0
    9.6600  -16.7258   22.6515 C   0  0  1  0  0  0  0  0  0  0  0  0
   10.7276  -17.7541   22.9040 C   0  0  0  0  0  0  0  0  0  0  0  0
   10.7190  -18.9155   21.9730 C   0  0  0  0  0  0  0  0  0  0  0  0
   11.7383  -19.9435   22.1902 C   0  0  0  0  0  0  0  0  0  0  0  0
   12.7978  -20.0664   21.5119 O   0  0  0  0  0  0  0  0  0  0  0  0
    9.7891  -15.6788   23.6944 C   0  0  0  0  0  0  0  0  0  0  0  0
   10.5913  -14.7172   23.6080 O   0  0  0  0  0  0  0  0  0  0  0  0
   11.6063  -20.9092   23.2132 O   0  0  0  0  0  0  0  0  0  0  0  0
    8.2566  -11.8589   26.5108 C   0  0  0  0  0  0  0  0  0  0  0  0
    7.3430  -13.0827   26.8450 C   0  0  1  0  0  0  0  0  0  0  0  0
    5.9628  -12.5368   26.8119 C   0  0  0  0  0  0  0  0  0  0  0  0
    7.7303  -14.1098   25.8742 C   0  0  0  0  0  0  0  0  0  0  0  0
    9.0345  -14.7943   25.9357 C   0  0  2  0  0  0  0  0  0  0  0  0
    8.9561  -15.7954   24.8269 N   0  0  0  0  0  0  0  0  0  0  0  0
    9.2145  -15.6139   27.1294 C   0  0  0  0  0  0  0  0  0  0  0  0
    8.6436  -16.7244   27.2397 O   0  0  0  0  0  0  0  0  0  0  0  0
   10.0105  -15.2170   28.1724 O   0  0  0  0  0  0  0  0  0  0  0  0
  2  3  2  0
  2  1  1  0
  4  2  1  0
  5  4  1  0
  6  8  1  0
  6  5  1  0
  6  7  1  6
  8  9  2  0
 10 11  1  0
 10  8  1  0
 11 12  1  6
 12 13  1  0
 13 14  1  0
 14 18  1  0
 15 14  2  0
 16 11  1  0
 17 16  2  0
 20 19  1  6
 20 22  1  0
 21 20  1  0
 23 22  1  1
 23 24  1  0
 24 16  1  0
 25 23  1  0
 25 27  1  0
 26 25  2  0
M  END
$$$$
