QEL.pdb
     RDKit          3D

 27 26  0  0  1  0  0  0  0  0999 V2000
    8.0870  -15.8612   17.7858 N   0  0  0  0  0  0  0  0  0  0  0  0
    7.8930  -14.6759   17.0366 C   0  0  0  0  0  0  0  0  0  0  0  0
    8.0406  -14.7017   15.7937 O   0  0  0  0  0  0  0  0  0  0  0  0
    7.5178  -13.4012   17.6925 C   0  0  0  0  0  0  0  0  0  0  0  0
    7.1100  -13.6481   19.1030 C   0  0  0  0  0  0  0  0  0  0  0  0
    8.1432  -13.2642   20.1381 C   0  0  2  0  0  0  0  0  0  0  0  0
    9.3983  -13.1409   19.4302 N   0  0  0  0  0  0  0  0  0  0  0  0
    8.2455  -14.2472   21.2400 C   0  0  0  0  0  0  0  0  0  0  0  0
    7.2516  -14.4827   21.9832 O   0  0  0  0  0  0  0  0  0  0  0  0
    9.4324  -14.9809   21.5404 N   0  0  0  0  0  0  0  0  0  0  0  0
    9.4542  -15.9349   22.5810 C   0  0  1  0  0  0  0  0  0  0  0  0
   10.4283  -17.0569   22.3504 C   0  0  0  0  0  0  0  0  0  0  0  0
   10.4217  -18.1227   23.3894 C   0  0  0  0  0  0  0  0  0  0  0  0
   11.3589  -19.2320   23.2035 C   0  0  0  0  0  0  0  0  0  0  0  0
   11.0571  -20.3610   22.7222 O   0  0  0  0  0  0  0  0  0  0  0  0
    9.7354  -15.3642   23.9209 C   0  0  0  0  0  0  0  0  0  0  0  0
   10.7954  -14.7521   24.1992 O   0  0  0  0  0  0  0  0  0  0  0  0
   12.7206  -19.1155   23.5622 O   0  0  0  0  0  0  0  0  0  0  0  0
    6.2850  -12.4546   26.8270 C   0  0  0  0  0  0  0  0  0  0  0  0
    7.6944  -12.8832   26.3038 C   0  0  1  0  0  0  0  0  0  0  0  0
    8.6315  -11.9095   26.9182 C   0  0  0  0  0  0  0  0  0  0  0  0
    7.8039  -14.3018   26.6548 C   0  0  0  0  0  0  0  0  0  0  0  0
    8.9961  -15.1020   26.3209 C   0  0  2  0  0  0  0  0  0  0  0  0
    8.7442  -15.5323   24.9106 N   0  0  0  0  0  0  0  0  0  0  0  0
    9.0866  -16.3597   27.0552 C   0  0  0  0  0  0  0  0  0  0  0  0
    8.5968  -17.4146   26.5876 O   0  0  0  0  0  0  0  0  0  0  0  0
    9.7081  -16.4489   28.2737 O   0  0  0  0  0  0  0  0  0  0  0  0
  2  3  2  0
  2  1  1  0
  4  2  1  0
  5  4  1  0
  6  8  1  0
  6  5  1  0
  6  7  1  6
  8  9  2  0
 10 11  1  0
 10  8  1  0
 11 12  1  6
 12 13  1  0
 13 14  1  0
 14 18  1  0
 15 14  2  0
 16 11  1  0
 17 16  2  0
 20 19  1  1
 20 22  1  0
 21 20  1  0
 23 22  1  1
 23 24  1  0
 24 16  1  0
 25 23  1  0
 25 27  1  0
 26 25  2  0
M  END
$$$$
