QEL.pdb
     RDKit          3D

 27 26  0  0  1  0  0  0  0  0999 V2000
    7.6732  -13.2901   15.9560 N   0  0  0  0  0  0  0  0  0  0  0  0
    7.8348  -14.6126   16.4343 C   0  0  0  0  0  0  0  0  0  0  0  0
    7.8952  -15.5598   15.6180 O   0  0  0  0  0  0  0  0  0  0  0  0
    7.9343  -14.9020   17.8842 C   0  0  0  0  0  0  0  0  0  0  0  0
    7.6917  -13.6637   18.6746 C   0  0  0  0  0  0  0  0  0  0  0  0
    8.6948  -13.4084   19.7767 C   0  0  2  0  0  0  0  0  0  0  0  0
    9.9979  -13.4278   19.1498 N   0  0  0  0  0  0  0  0  0  0  0  0
    8.6130  -14.4028   20.8700 C   0  0  0  0  0  0  0  0  0  0  0  0
    7.5132  -14.6310   21.4479 O   0  0  0  0  0  0  0  0  0  0  0  0
    9.7297  -15.1562   21.3419 N   0  0  0  0  0  0  0  0  0  0  0  0
    9.5907  -16.0749   22.4049 C   0  0  1  0  0  0  0  0  0  0  0  0
   10.5200  -17.2531   22.3094 C   0  0  0  0  0  0  0  0  0  0  0  0
   10.2603  -18.1716   21.1672 C   0  0  0  0  0  0  0  0  0  0  0  0
   11.1872  -19.2919   20.9966 C   0  0  0  0  0  0  0  0  0  0  0  0
   12.4428  -19.2171   21.1205 O   0  0  0  0  0  0  0  0  0  0  0  0
    9.7624  -15.4754   23.7508 C   0  0  0  0  0  0  0  0  0  0  0  0
   10.7304  -14.7369   24.0565 O   0  0  0  0  0  0  0  0  0  0  0  0
   10.7270  -20.5871   20.6692 O   0  0  0  0  0  0  0  0  0  0  0  0
    6.0838  -12.6559   26.2703 C   0  0  0  0  0  0  0  0  0  0  0  0
    7.5547  -13.0549   25.9220 C   0  0  1  0  0  0  0  0  0  0  0  0
    8.3901  -12.0565   26.6356 C   0  0  0  0  0  0  0  0  0  0  0  0
    7.6529  -14.4686   26.2952 C   0  0  0  0  0  0  0  0  0  0  0  0
    8.8931  -15.2437   26.1100 C   0  0  2  0  0  0  0  0  0  0  0  0
    8.7732  -15.7663   24.7135 N   0  0  0  0  0  0  0  0  0  0  0  0
    8.9612  -16.4512   26.9264 C   0  0  0  0  0  0  0  0  0  0  0  0
    7.9184  -16.9916   27.3643 O   0  0  0  0  0  0  0  0  0  0  0  0
   10.1529  -17.0487   27.2456 O   0  0  0  0  0  0  0  0  0  0  0  0
  2  3  2  0
  2  1  1  0
  4  2  1  0
  5  4  1  0
  6  8  1  0
  6  5  1  0
  6  7  1  6
  8  9  2  0
 10 11  1  0
 10  8  1  0
 11 12  1  6
 12 13  1  0
 13 14  1  0
 14 18  1  0
 15 14  2  0
 16 11  1  0
 17 16  2  0
 20 19  1  1
 20 22  1  0
 21 20  1  0
 23 22  1  1
 23 24  1  0
 24 16  1  0
 25 23  1  0
 25 27  1  0
 26 25  2  0
M  END
$$$$
