AYT.pdb
     RDKit          3D

 25 25  0  0  1  0  0  0  0  0999 V2000
   28.5176  -24.9705  -16.9867 C   0  0  0  0  0  0  0  0  0  0  0  0
   27.3896  -24.0187  -17.2983 C   0  0  2  0  0  0  0  0  0  0  0  0
   27.8487  -22.8803  -18.0415 N   0  0  0  0  0  0  0  0  0  0  0  0
   26.6070  -23.6431  -16.1056 C   0  0  0  0  0  0  0  0  0  0  0  0
   26.0052  -24.5809  -15.4990 O   0  0  0  0  0  0  0  0  0  0  0  0
   22.9525  -20.3446   -9.0342 O   0  0  0  0  0  0  0  0  0  0  0  0
   23.7604  -20.5015  -10.1612 C   0  0  0  0  0  0  0  0  0  0  0  0
   24.9490  -21.2146  -10.1012 C   0  0  0  0  0  0  0  0  0  0  0  0
   25.7451  -21.3689  -11.2124 C   0  0  0  0  0  0  0  0  0  0  0  0
   25.3327  -20.7963  -12.3915 C   0  0  0  0  0  0  0  0  0  0  0  0
   26.1882  -20.9616  -13.5871 C   0  0  0  0  0  0  0  0  0  0  0  0
   25.6293  -22.0252  -14.5000 C   0  0  2  0  0  0  0  0  0  0  0  0
   26.4865  -22.3275  -15.6037 N   0  0  0  0  0  0  0  0  0  0  0  0
   24.2631  -21.6718  -14.9659 C   0  0  0  0  0  0  0  0  0  0  0  0
   24.0557  -20.8225  -15.8707 O   0  0  0  0  0  0  0  0  0  0  0  0
   24.1459  -20.0767  -12.4783 C   0  0  0  0  0  0  0  0  0  0  0  0
   23.3556  -19.9300  -11.3519 C   0  0  0  0  0  0  0  0  0  0  0  0
   19.5845  -23.0272  -15.2037 C   0  0  0  0  0  0  0  0  0  0  0  0
   21.0416  -23.3694  -15.0104 C   0  0  1  0  0  0  0  0  0  0  0  0
   21.5423  -24.1189  -16.0662 O   0  0  0  0  0  0  0  0  0  0  0  0
   21.8233  -22.0735  -14.8771 C   0  0  2  0  0  0  0  0  0  0  0  0
   23.1491  -22.3225  -14.3619 N   0  0  0  0  0  0  0  0  0  0  0  0
   21.1477  -21.1137  -13.9877 C   0  0  0  0  0  0  0  0  0  0  0  0
   20.4260  -20.0477  -14.4831 O   0  0  0  0  0  0  0  0  0  0  0  0
   21.1968  -21.2208  -12.7241 O   0  0  0  0  0  0  0  0  0  0  0  0
  2  1  1  1
  3  2  1  0
  4  5  2  0
  4  2  1  0
  6  7  1  0
  7  8  2  0
  8  9  1  0
 10  9  2  0
 10 11  1  0
 12 11  1  6
 12 13  1  0
 13  4  1  0
 14 22  1  0
 14 12  1  0
 15 14  2  0
 16 10  1  0
 17  7  1  0
 17 16  2  0
 19 21  1  0
 19 18  1  6
 20 19  1  0
 21 22  1  1
 21 23  1  0
 23 24  1  0
 25 23  2  0
M  END
$$$$
