AYT.pdb
     RDKit          3D

 25 25  0  0  1  0  0  0  0  0999 V2000
   41.6363  -11.4777  -11.8438 C   0  0  0  0  0  0  0  0  0  0  0  0
   40.5635  -10.5900  -12.4239 C   0  0  2  0  0  0  0  0  0  0  0  0
   40.8919  -10.1646  -13.7545 N   0  0  0  0  0  0  0  0  0  0  0  0
   40.2048   -9.4661  -11.5383 C   0  0  0  0  0  0  0  0  0  0  0  0
   40.8595   -8.3897  -11.6881 O   0  0  0  0  0  0  0  0  0  0  0  0
   36.6259   -3.9001   -5.9048 O   0  0  0  0  0  0  0  0  0  0  0  0
   36.8328   -4.9930   -6.7476 C   0  0  0  0  0  0  0  0  0  0  0  0
   36.7669   -6.2937   -6.2691 C   0  0  0  0  0  0  0  0  0  0  0  0
   36.9709   -7.3707   -7.1002 C   0  0  0  0  0  0  0  0  0  0  0  0
   37.2433   -7.1265   -8.4248 C   0  0  0  0  0  0  0  0  0  0  0  0
   37.4629   -8.2841   -9.3194 C   0  0  0  0  0  0  0  0  0  0  0  0
   38.9148   -8.3821   -9.7183 C   0  0  2  0  0  0  0  0  0  0  0  0
   39.1956   -9.5107  -10.5500 N   0  0  0  0  0  0  0  0  0  0  0  0
   39.8034   -8.3622   -8.5272 C   0  0  0  0  0  0  0  0  0  0  0  0
   39.8950   -9.3357   -7.7355 O   0  0  0  0  0  0  0  0  0  0  0  0
   37.3148   -5.8327   -8.9295 C   0  0  0  0  0  0  0  0  0  0  0  0
   37.1073   -4.7593   -8.0811 C   0  0  0  0  0  0  0  0  0  0  0  0
   43.2252   -6.2302   -8.5377 C   0  0  0  0  0  0  0  0  0  0  0  0
   42.9009   -7.3090   -7.5333 C   0  0  1  0  0  0  0  0  0  0  0  0
   43.7194   -7.2381   -6.4143 O   0  0  0  0  0  0  0  0  0  0  0  0
   41.4460   -7.1578   -7.1226 C   0  0  2  0  0  0  0  0  0  0  0  0
   40.5788   -7.1939   -8.2768 N   0  0  0  0  0  0  0  0  0  0  0  0
   41.2082   -5.8984   -6.3972 C   0  0  0  0  0  0  0  0  0  0  0  0
   41.6889   -5.6932   -5.1207 O   0  0  0  0  0  0  0  0  0  0  0  0
   40.5504   -4.9424   -6.9109 O   0  0  0  0  0  0  0  0  0  0  0  0
  2  1  1  1
  3  2  1  0
  4  5  2  0
  4  2  1  0
  6  7  1  0
  7  8  2  0
  8  9  1  0
 10  9  2  0
 10 11  1  0
 12 11  1  1
 12 13  1  0
 13  4  1  0
 14 22  1  0
 14 12  1  0
 15 14  2  0
 16 10  1  0
 17  7  1  0
 17 16  2  0
 19 21  1  0
 19 18  1  6
 20 19  1  0
 21 22  1  6
 21 23  1  0
 23 24  1  0
 25 23  2  0
M  END
$$$$
