AYT.pdb
     RDKit          3D

 25 25  0  0  1  0  0  0  0  0999 V2000
   29.3172  -21.9074  -18.3386 C   0  0  0  0  0  0  0  0  0  0  0  0
   28.1738  -20.9569  -18.0845 C   0  0  2  0  0  0  0  0  0  0  0  0
   28.5679  -19.5914  -18.2824 N   0  0  0  0  0  0  0  0  0  0  0  0
   27.5195  -21.1784  -16.7811 C   0  0  0  0  0  0  0  0  0  0  0  0
   26.8549  -22.2512  -16.6509 O   0  0  0  0  0  0  0  0  0  0  0  0
   24.4312  -20.7897   -8.6560 O   0  0  0  0  0  0  0  0  0  0  0  0
   25.2059  -20.5822   -9.7981 C   0  0  0  0  0  0  0  0  0  0  0  0
   25.1267  -19.3977  -10.5163 C   0  0  0  0  0  0  0  0  0  0  0  0
   25.8905  -19.1937  -11.6420 C   0  0  0  0  0  0  0  0  0  0  0  0
   26.7398  -20.1974  -12.0414 C   0  0  0  0  0  0  0  0  0  0  0  0
   27.5615  -19.9790  -13.2520 C   0  0  0  0  0  0  0  0  0  0  0  0
   26.8756  -20.5440  -14.4715 C   0  0  2  0  0  0  0  0  0  0  0  0
   27.5845  -20.2871  -15.6863 N   0  0  0  0  0  0  0  0  0  0  0  0
   25.4687  -20.0744  -14.5645 C   0  0  0  0  0  0  0  0  0  0  0  0
   25.1674  -18.9098  -14.9331 O   0  0  0  0  0  0  0  0  0  0  0  0
   26.8379  -21.3938  -11.3395 C   0  0  0  0  0  0  0  0  0  0  0  0
   26.0631  -21.5845  -10.2088 C   0  0  0  0  0  0  0  0  0  0  0  0
   20.8464  -21.0135  -15.2823 C   0  0  0  0  0  0  0  0  0  0  0  0
   22.3272  -21.2599  -15.4384 C   0  0  1  0  0  0  0  0  0  0  0  0
   22.7998  -20.8158  -16.6658 O   0  0  0  0  0  0  0  0  0  0  0  0
   23.0522  -20.5425  -14.3124 C   0  0  2  0  0  0  0  0  0  0  0  0
   24.4250  -20.9814  -14.2220 N   0  0  0  0  0  0  0  0  0  0  0  0
   22.4021  -20.7664  -13.0101 C   0  0  0  0  0  0  0  0  0  0  0  0
   21.4760  -19.8813  -12.4986 O   0  0  0  0  0  0  0  0  0  0  0  0
   22.6623  -21.7830  -12.2965 O   0  0  0  0  0  0  0  0  0  0  0  0
  2  1  1  1
  3  2  1  0
  4  5  2  0
  4  2  1  0
  6  7  1  0
  7  8  2  0
  8  9  1  0
 10  9  2  0
 10 11  1  0
 12 11  1  1
 12 13  1  0
 13  4  1  0
 14 22  1  0
 14 12  1  0
 15 14  2  0
 16 10  1  0
 17  7  1  0
 17 16  2  0
 19 21  1  0
 19 18  1  6
 20 19  1  0
 21 22  1  1
 21 23  1  0
 23 24  1  0
 25 23  2  0
M  END
$$$$
