AYT.pdb
     RDKit          3D

 25 25  0  0  1  0  0  0  0  0999 V2000
   30.3318  -20.4404  -11.9514 C   0  0  0  0  0  0  0  0  0  0  0  0
   30.1754  -21.0346  -10.5738 C   0  0  2  0  0  0  0  0  0  0  0  0
   30.9384  -22.2413  -10.4290 N   0  0  0  0  0  0  0  0  0  0  0  0
   28.7649  -21.2005  -10.1748 C   0  0  0  0  0  0  0  0  0  0  0  0
   28.2458  -22.3410  -10.3733 O   0  0  0  0  0  0  0  0  0  0  0  0
   28.9688  -20.1779   -3.5180 O   0  0  0  0  0  0  0  0  0  0  0  0
   28.2351  -20.0144   -4.6938 C   0  0  0  0  0  0  0  0  0  0  0  0
   27.2144  -20.8907   -5.0332 C   0  0  0  0  0  0  0  0  0  0  0  0
   26.4915  -20.7291   -6.1923 C   0  0  0  0  0  0  0  0  0  0  0  0
   26.8061  -19.6719   -7.0120 C   0  0  0  0  0  0  0  0  0  0  0  0
   26.0293  -19.4973   -8.2589 C   0  0  0  0  0  0  0  0  0  0  0  0
   26.5723  -20.3821   -9.3540 C   0  0  2  0  0  0  0  0  0  0  0  0
   27.9681  -20.1874   -9.5954 N   0  0  0  0  0  0  0  0  0  0  0  0
   25.7875  -20.2318  -10.6070 C   0  0  0  0  0  0  0  0  0  0  0  0
   26.0343  -19.3371  -11.4564 O   0  0  0  0  0  0  0  0  0  0  0  0
   27.8243  -18.7795   -6.6950 C   0  0  0  0  0  0  0  0  0  0  0  0
   28.5428  -18.9551   -5.5253 C   0  0  0  0  0  0  0  0  0  0  0  0
   23.3732  -22.2300  -14.1723 C   0  0  0  0  0  0  0  0  0  0  0  0
   24.2040  -22.3336  -12.9166 C   0  0  1  0  0  0  0  0  0  0  0  0
   25.5519  -22.5068  -13.1999 O   0  0  0  0  0  0  0  0  0  0  0  0
   24.0031  -21.0652  -12.1047 C   0  0  2  0  0  0  0  0  0  0  0  0
   24.7158  -21.1380  -10.8510 N   0  0  0  0  0  0  0  0  0  0  0  0
   22.5799  -20.8147  -11.8206 C   0  0  0  0  0  0  0  0  0  0  0  0
   22.0710  -20.8859  -10.5405 O   0  0  0  0  0  0  0  0  0  0  0  0
   21.7542  -20.5216  -12.7386 O   0  0  0  0  0  0  0  0  0  0  0  0
  2  1  1  6
  3  2  1  0
  4  5  2  0
  4  2  1  0
  6  7  1  0
  7  8  2  0
  8  9  1  0
 10  9  2  0
 10 11  1  0
 12 11  1  1
 12 13  1  0
 13  4  1  0
 14 22  1  0
 14 12  1  0
 15 14  2  0
 16 10  1  0
 17  7  1  0
 17 16  2  0
 19 21  1  0
 19 18  1  6
 20 19  1  0
 21 22  1  1
 21 23  1  0
 23 24  1  0
 25 23  2  0
M  END
$$$$
