AYT.pdb
     RDKit          3D

 25 25  0  0  1  0  0  0  0  0999 V2000
   29.8115  -31.7150  -17.1393 C   0  0  0  0  0  0  0  0  0  0  0  0
   28.3069  -31.6107  -17.1675 C   0  0  2  0  0  0  0  0  0  0  0  0
   27.7263  -32.5823  -18.0495 N   0  0  0  0  0  0  0  0  0  0  0  0
   27.8296  -30.2407  -17.4346 C   0  0  0  0  0  0  0  0  0  0  0  0
   27.5705  -29.9518  -18.6425 O   0  0  0  0  0  0  0  0  0  0  0  0
   24.1624  -22.4531  -17.5989 O   0  0  0  0  0  0  0  0  0  0  0  0
   24.6554  -23.6823  -17.1591 C   0  0  0  0  0  0  0  0  0  0  0  0
   25.7882  -23.7600  -16.3618 C   0  0  0  0  0  0  0  0  0  0  0  0
   26.2739  -24.9719  -15.9286 C   0  0  0  0  0  0  0  0  0  0  0  0
   25.6061  -26.1119  -16.3065 C   0  0  0  0  0  0  0  0  0  0  0  0
   26.1277  -27.4157  -15.8412 C   0  0  0  0  0  0  0  0  0  0  0  0
   27.1832  -27.9358  -16.7857 C   0  0  2  0  0  0  0  0  0  0  0  0
   27.6453  -29.2460  -16.4478 N   0  0  0  0  0  0  0  0  0  0  0  0
   28.3178  -26.9832  -16.9033 C   0  0  0  0  0  0  0  0  0  0  0  0
   29.1053  -26.7484  -15.9506 O   0  0  0  0  0  0  0  0  0  0  0  0
   24.4687  -26.0615  -17.1049 C   0  0  0  0  0  0  0  0  0  0  0  0
   23.9921  -24.8349  -17.5330 C   0  0  0  0  0  0  0  0  0  0  0  0
   30.2622  -26.5428  -20.3859 C   0  0  0  0  0  0  0  0  0  0  0  0
   30.7786  -26.1019  -19.0380 C   0  0  1  0  0  0  0  0  0  0  0  0
   31.8567  -25.2352  -19.1543 O   0  0  0  0  0  0  0  0  0  0  0  0
   29.6439  -25.4218  -18.2908 C   0  0  2  0  0  0  0  0  0  0  0  0
   28.5170  -26.3127  -18.1442 N   0  0  0  0  0  0  0  0  0  0  0  0
   29.1893  -24.2003  -18.9764 C   0  0  0  0  0  0  0  0  0  0  0  0
   30.0410  -23.1421  -19.2166 O   0  0  0  0  0  0  0  0  0  0  0  0
   27.9938  -24.0624  -19.3789 O   0  0  0  0  0  0  0  0  0  0  0  0
  2  1  1  6
  3  2  1  0
  4  5  2  0
  4  2  1  0
  6  7  1  0
  7  8  2  0
  8  9  1  0
 10  9  2  0
 10 11  1  0
 12 11  1  1
 12 13  1  0
 13  4  1  0
 14 22  1  0
 14 12  1  0
 15 14  2  0
 16 10  1  0
 17  7  1  0
 17 16  2  0
 19 21  1  0
 19 18  1  6
 20 19  1  0
 21 22  1  6
 21 23  1  0
 23 24  1  0
 25 23  2  0
M  END
$$$$
