AYT.pdb
     RDKit          3D

 25 25  0  0  1  0  0  0  0  0999 V2000
   23.2115  -10.2132  -20.5395 C   0  0  0  0  0  0  0  0  0  0  0  0
   22.7480  -11.0256  -19.3561 C   0  0  2  0  0  0  0  0  0  0  0  0
   22.2091  -12.2919  -19.7628 N   0  0  0  0  0  0  0  0  0  0  0  0
   21.8397  -10.2790  -18.4652 C   0  0  0  0  0  0  0  0  0  0  0  0
   20.6744  -10.0413  -18.9072 O   0  0  0  0  0  0  0  0  0  0  0  0
   16.9128  -13.5667  -16.4016 O   0  0  0  0  0  0  0  0  0  0  0  0
   17.8792  -12.6084  -16.0927 C   0  0  0  0  0  0  0  0  0  0  0  0
   19.2158  -12.9530  -15.9526 C   0  0  0  0  0  0  0  0  0  0  0  0
   20.1679  -12.0081  -15.6481 C   0  0  0  0  0  0  0  0  0  0  0  0
   19.7615  -10.7055  -15.4849 C   0  0  0  0  0  0  0  0  0  0  0  0
   20.7847   -9.6886  -15.1573 C   0  0  0  0  0  0  0  0  0  0  0  0
   21.2811   -9.0087  -16.4096 C   0  0  2  0  0  0  0  0  0  0  0  0
   22.1785   -9.8190  -17.1727 N   0  0  0  0  0  0  0  0  0  0  0  0
   21.8859   -7.6866  -16.1014 C   0  0  0  0  0  0  0  0  0  0  0  0
   23.0858   -7.5583  -15.7455 O   0  0  0  0  0  0  0  0  0  0  0  0
   18.4283  -10.3339  -15.6198 C   0  0  0  0  0  0  0  0  0  0  0  0
   17.4819  -11.2959  -15.9263 C   0  0  0  0  0  0  0  0  0  0  0  0
   21.3705   -2.7934  -16.0701 C   0  0  0  0  0  0  0  0  0  0  0  0
   20.7684   -4.1157  -16.4783 C   0  0  1  0  0  0  0  0  0  0  0  0
   20.6530   -4.2288  -17.8571 O   0  0  0  0  0  0  0  0  0  0  0  0
   21.6496   -5.2291  -15.9380 C   0  0  2  0  0  0  0  0  0  0  0  0
   21.0718   -6.5233  -16.2148 N   0  0  0  0  0  0  0  0  0  0  0  0
   21.8565   -5.1096  -14.4848 C   0  0  0  0  0  0  0  0  0  0  0  0
   21.0559   -5.7749  -13.5798 O   0  0  0  0  0  0  0  0  0  0  0  0
   22.7800   -4.3897  -13.9958 O   0  0  0  0  0  0  0  0  0  0  0  0
  2  1  1  6
  3  2  1  0
  4  5  2  0
  4  2  1  0
  6  7  1  0
  7  8  2  0
  8  9  1  0
 10  9  2  0
 10 11  1  0
 12 11  1  1
 12 13  1  0
 13  4  1  0
 14 22  1  0
 14 12  1  0
 15 14  2  0
 16 10  1  0
 17  7  1  0
 17 16  2  0
 19 21  1  0
 19 18  1  6
 20 19  1  0
 21 22  1  1
 21 23  1  0
 23 24  1  0
 25 23  2  0
M  END
$$$$
