AYT.pdb
     RDKit          3D

 25 25  0  0  1  0  0  0  0  0999 V2000
   29.3762  -22.9339  -18.3528 C   0  0  0  0  0  0  0  0  0  0  0  0
   29.3738  -23.4919  -16.9514 C   0  0  2  0  0  0  0  0  0  0  0  0
   29.4657  -24.9240  -16.9526 N   0  0  0  0  0  0  0  0  0  0  0  0
   28.2509  -22.9934  -16.1349 C   0  0  0  0  0  0  0  0  0  0  0  0
   27.1646  -23.6457  -16.1990 O   0  0  0  0  0  0  0  0  0  0  0  0
   23.2231  -20.1670   -9.7501 O   0  0  0  0  0  0  0  0  0  0  0  0
   24.3166  -20.3265  -10.6024 C   0  0  0  0  0  0  0  0  0  0  0  0
   25.3458  -21.2051  -10.2962 C   0  0  0  0  0  0  0  0  0  0  0  0
   26.4234  -21.3620  -11.1367 C   0  0  0  0  0  0  0  0  0  0  0  0
   26.4570  -20.6230  -12.2948 C   0  0  0  0  0  0  0  0  0  0  0  0
   27.6156  -20.7909  -13.1992 C   0  0  0  0  0  0  0  0  0  0  0  0
   27.1997  -21.4776  -14.4769 C   0  0  2  0  0  0  0  0  0  0  0  0
   28.3066  -21.8546  -15.2998 N   0  0  0  0  0  0  0  0  0  0  0  0
   26.2242  -20.6546  -15.2381 C   0  0  0  0  0  0  0  0  0  0  0  0
   26.5443  -19.5777  -15.8044 O   0  0  0  0  0  0  0  0  0  0  0  0
   25.4384  -19.7357  -12.6249 C   0  0  0  0  0  0  0  0  0  0  0  0
   24.3607  -19.5887  -11.7694 C   0  0  0  0  0  0  0  0  0  0  0  0
   24.7169  -20.8245  -18.2405 C   0  0  0  0  0  0  0  0  0  0  0  0
   23.5098  -20.8702  -17.3358 C   0  0  1  0  0  0  0  0  0  0  0  0
   23.0383  -22.1648  -17.1658 O   0  0  0  0  0  0  0  0  0  0  0  0
   23.8976  -20.2783  -15.9913 C   0  0  2  0  0  0  0  0  0  0  0  0
   24.8762  -21.1067  -15.3271 N   0  0  0  0  0  0  0  0  0  0  0  0
   22.7334  -20.1245  -15.1026 C   0  0  0  0  0  0  0  0  0  0  0  0
   21.7469  -19.1932  -15.3521 O   0  0  0  0  0  0  0  0  0  0  0  0
   22.5818  -20.8403  -14.0658 O   0  0  0  0  0  0  0  0  0  0  0  0
  2  1  1  6
  3  2  1  0
  4  5  2  0
  4  2  1  0
  6  7  1  0
  7  8  2  0
  8  9  1  0
 10  9  2  0
 10 11  1  0
 12 11  1  1
 12 13  1  0
 13  4  1  0
 14 22  1  0
 14 12  1  0
 15 14  2  0
 16 10  1  0
 17  7  1  0
 17 16  2  0
 19 21  1  0
 19 18  1  6
 20 19  1  0
 21 22  1  1
 21 23  1  0
 23 24  1  0
 25 23  2  0
M  END
$$$$
