AYT.pdb
     RDKit          3D

 25 25  0  0  1  0  0  0  0  0999 V2000
   25.0022  -17.2486  -17.1914 C   0  0  0  0  0  0  0  0  0  0  0  0
   25.9236  -18.2652  -16.5647 C   0  0  2  0  0  0  0  0  0  0  0  0
   26.4094  -19.2060  -17.5332 N   0  0  0  0  0  0  0  0  0  0  0  0
   25.3385  -18.9187  -15.3786 C   0  0  0  0  0  0  0  0  0  0  0  0
   24.9135  -18.1562  -14.4580 O   0  0  0  0  0  0  0  0  0  0  0  0
   18.9136  -19.7583  -16.4388 O   0  0  0  0  0  0  0  0  0  0  0  0
   20.0821  -20.3045  -15.9062 C   0  0  0  0  0  0  0  0  0  0  0  0
   20.2189  -20.5215  -14.5427 C   0  0  0  0  0  0  0  0  0  0  0  0
   21.3709  -21.0600  -14.0181 C   0  0  0  0  0  0  0  0  0  0  0  0
   22.3904  -21.3801  -14.8822 C   0  0  0  0  0  0  0  0  0  0  0  0
   23.6298  -21.9591  -14.3190 C   0  0  0  0  0  0  0  0  0  0  0  0
   24.6391  -20.8764  -14.0259 C   0  0  2  0  0  0  0  0  0  0  0  0
   25.2230  -20.3165  -15.2049 N   0  0  0  0  0  0  0  0  0  0  0  0
   25.6866  -21.3561  -13.0872 C   0  0  0  0  0  0  0  0  0  0  0  0
   26.6471  -22.0793  -13.4579 O   0  0  0  0  0  0  0  0  0  0  0  0
   22.2786  -21.1726  -16.2527 C   0  0  0  0  0  0  0  0  0  0  0  0
   21.1134  -20.6301  -16.7656 C   0  0  0  0  0  0  0  0  0  0  0  0
   29.0087  -20.7669  -10.2058 C   0  0  0  0  0  0  0  0  0  0  0  0
   27.9693  -20.6074  -11.2883 C   0  0  1  0  0  0  0  0  0  0  0  0
   28.3884  -21.1540  -12.4936 O   0  0  0  0  0  0  0  0  0  0  0  0
   26.6908  -21.2864  -10.8270 C   0  0  2  0  0  0  0  0  0  0  0  0
   25.5953  -20.9798  -11.7164 N   0  0  0  0  0  0  0  0  0  0  0  0
   26.3145  -20.8796   -9.4626 C   0  0  0  0  0  0  0  0  0  0  0  0
   25.1820  -20.1326   -9.2134 O   0  0  0  0  0  0  0  0  0  0  0  0
   27.0131  -21.1962   -8.4516 O   0  0  0  0  0  0  0  0  0  0  0  0
  2  1  1  6
  3  2  1  0
  4  5  2  0
  4  2  1  0
  6  7  1  0
  7  8  2  0
  8  9  1  0
 10  9  2  0
 10 11  1  0
 12 11  1  6
 12 13  1  0
 13  4  1  0
 14 22  1  0
 14 12  1  0
 15 14  2  0
 16 10  1  0
 17  7  1  0
 17 16  2  0
 19 21  1  0
 19 18  1  1
 20 19  1  0
 21 22  1  6
 21 23  1  0
 23 24  1  0
 25 23  2  0
M  END
$$$$
