AYT.pdb
     RDKit          3D

 25 25  0  0  1  0  0  0  0  0999 V2000
   19.2838   -9.5238  -19.1922 C   0  0  0  0  0  0  0  0  0  0  0  0
   19.8725  -10.2166  -17.9886 C   0  0  2  0  0  0  0  0  0  0  0  0
   19.3886  -11.5618  -17.8639 N   0  0  0  0  0  0  0  0  0  0  0  0
   19.7206   -9.4384  -16.7446 C   0  0  0  0  0  0  0  0  0  0  0  0
   18.5537   -9.3728  -16.2511 O   0  0  0  0  0  0  0  0  0  0  0  0
   19.4482   -5.6100   -9.1720 O   0  0  0  0  0  0  0  0  0  0  0  0
   19.8941   -6.3097  -10.2941 C   0  0  0  0  0  0  0  0  0  0  0  0
   21.0409   -5.9250  -10.9736 C   0  0  0  0  0  0  0  0  0  0  0  0
   21.4801   -6.6150  -12.0796 C   0  0  0  0  0  0  0  0  0  0  0  0
   20.7512   -7.7019  -12.4988 C   0  0  0  0  0  0  0  0  0  0  0  0
   21.2225   -8.4445  -13.6882 C   0  0  0  0  0  0  0  0  0  0  0  0
   20.5317   -7.9490  -14.9348 C   0  0  2  0  0  0  0  0  0  0  0  0
   20.7741   -8.7724  -16.0784 N   0  0  0  0  0  0  0  0  0  0  0  0
   20.8771   -6.5309  -15.2149 C   0  0  0  0  0  0  0  0  0  0  0  0
   21.9728   -6.1911  -15.7316 O   0  0  0  0  0  0  0  0  0  0  0  0
   19.5984   -8.1081  -11.8356 C   0  0  0  0  0  0  0  0  0  0  0  0
   19.1691   -7.4039  -10.7244 C   0  0  0  0  0  0  0  0  0  0  0  0
   19.3146   -1.8827  -15.5118 C   0  0  0  0  0  0  0  0  0  0  0  0
   18.9400   -3.3308  -15.3109 C   0  0  1  0  0  0  0  0  0  0  0  0
   18.1500   -3.8102  -16.3469 O   0  0  0  0  0  0  0  0  0  0  0  0
   20.2184   -4.1460  -15.2130 C   0  0  2  0  0  0  0  0  0  0  0  0
   19.9280   -5.5216  -14.8838 N   0  0  0  0  0  0  0  0  0  0  0  0
   21.1380   -3.6054  -14.1977 C   0  0  0  0  0  0  0  0  0  0  0  0
   22.3637   -3.0719  -14.5379 O   0  0  0  0  0  0  0  0  0  0  0  0
   20.8475   -3.6042  -12.9623 O   0  0  0  0  0  0  0  0  0  0  0  0
  2  1  1  6
  3  2  1  0
  4  5  2  0
  4  2  1  0
  6  7  1  0
  7  8  2  0
  8  9  1  0
 10  9  2  0
 10 11  1  0
 12 11  1  1
 12 13  1  0
 13  4  1  0
 14 22  1  0
 14 12  1  0
 15 14  2  0
 16 10  1  0
 17  7  1  0
 17 16  2  0
 19 21  1  0
 19 18  1  6
 20 19  1  0
 21 22  1  1
 21 23  1  0
 23 24  1  0
 25 23  2  0
M  END
$$$$
