AYT.pdb
     RDKit          3D

 25 25  0  0  1  0  0  0  0  0999 V2000
   24.2327  -16.7686  -21.1626 C   0  0  0  0  0  0  0  0  0  0  0  0
   24.2608  -15.2898  -20.8663 C   0  0  2  0  0  0  0  0  0  0  0  0
   25.2695  -14.9637  -19.8991 N   0  0  0  0  0  0  0  0  0  0  0  0
   22.9351  -14.7481  -20.5124 C   0  0  0  0  0  0  0  0  0  0  0  0
   21.9963  -14.9488  -21.3418 O   0  0  0  0  0  0  0  0  0  0  0  0
   19.8142  -19.6263  -18.2798 O   0  0  0  0  0  0  0  0  0  0  0  0
   20.0406  -18.2548  -18.1568 C   0  0  0  0  0  0  0  0  0  0  0  0
   19.0753  -17.3297  -18.5273 C   0  0  0  0  0  0  0  0  0  0  0  0
   19.2989  -15.9779  -18.4059 C   0  0  0  0  0  0  0  0  0  0  0  0
   20.5093  -15.5621  -17.9055 C   0  0  0  0  0  0  0  0  0  0  0  0
   20.7508  -14.1085  -17.7746 C   0  0  0  0  0  0  0  0  0  0  0  0
   21.3325  -13.5475  -19.0489 C   0  0  2  0  0  0  0  0  0  0  0  0
   22.6485  -14.0317  -19.3284 N   0  0  0  0  0  0  0  0  0  0  0  0
   21.2990  -12.0618  -19.0482 C   0  0  0  0  0  0  0  0  0  0  0  0
   22.3081  -11.3627  -18.7727 O   0  0  0  0  0  0  0  0  0  0  0  0
   21.4935  -16.4686  -17.5269 C   0  0  0  0  0  0  0  0  0  0  0  0
   21.2539  -17.8255  -17.6549 C   0  0  0  0  0  0  0  0  0  0  0  0
   20.2151   -9.8828  -21.8711 C   0  0  0  0  0  0  0  0  0  0  0  0
   19.3572   -9.4867  -20.6944 C   0  0  1  0  0  0  0  0  0  0  0  0
   18.0801  -10.0240  -20.7802 O   0  0  0  0  0  0  0  0  0  0  0  0
   20.0380   -9.9664  -19.4237 C   0  0  2  0  0  0  0  0  0  0  0  0
   20.0751  -11.4091  -19.3726 N   0  0  0  0  0  0  0  0  0  0  0  0
   19.3563   -9.4723  -18.2154 C   0  0  0  0  0  0  0  0  0  0  0  0
   19.3010   -8.1281  -17.9106 O   0  0  0  0  0  0  0  0  0  0  0  0
   18.7877  -10.2583  -17.3973 O   0  0  0  0  0  0  0  0  0  0  0  0
  2  1  1  1
  3  2  1  0
  4  5  2  0
  4  2  1  0
  6  7  1  0
  7  8  2  0
  8  9  1  0
 10  9  2  0
 10 11  1  0
 12 11  1  1
 12 13  1  0
 13  4  1  0
 14 22  1  0
 14 12  1  0
 15 14  2  0
 16 10  1  0
 17  7  1  0
 17 16  2  0
 19 21  1  0
 19 18  1  6
 20 19  1  0
 21 22  1  1
 21 23  1  0
 23 24  1  0
 25 23  2  0
M  END
$$$$
