IEW.pdb
     RDKit          3D

 32 33  0  0  1  0  0  0  0  0999 V2000
   27.6793  -20.9003   -7.6386 C   0  0  0  0  0  0  0  0  0  0  0  0
   26.4391  -20.1666   -8.1015 C   0  0  0  0  0  0  0  0  0  0  0  0
   26.1173  -20.6145   -9.5056 C   0  0  2  0  0  0  0  0  0  0  0  0
   27.3656  -20.4082  -10.3377 C   0  0  0  0  0  0  0  0  0  0  0  0
   25.0208  -19.8048  -10.1022 C   0  0  2  0  0  0  0  0  0  0  0  0
   23.8049  -19.9031   -9.3662 N   0  0  0  0  0  0  0  0  0  0  0  0
   24.7553  -20.1280  -11.5259 C   0  0  0  0  0  0  0  0  0  0  0  0
   25.6869  -20.2185  -12.3740 O   0  0  0  0  0  0  0  0  0  0  0  0
   23.4308  -20.3466  -11.9786 N   0  0  0  0  0  0  0  0  0  0  0  0
   23.0585  -20.6300  -13.3445 C   0  0  1  0  0  0  0  0  0  0  0  0
   21.6370  -20.9987  -13.5497 C   0  0  0  0  0  0  0  0  0  0  0  0
   21.0739  -22.0323  -12.6430 C   0  0  0  0  0  0  0  0  0  0  0  0
   19.6190  -21.6910  -12.4463 C   0  0  0  0  0  0  0  0  0  0  0  0
   18.9187  -21.3016  -13.4156 O   0  0  0  0  0  0  0  0  0  0  0  0
   23.5893  -19.6247  -14.2996 C   0  0  0  0  0  0  0  0  0  0  0  0
   23.1726  -18.4520  -14.2338 O   0  0  0  0  0  0  0  0  0  0  0  0
   18.9964  -21.7887  -11.2096 O   0  0  0  0  0  0  0  0  0  0  0  0
   24.5439  -19.9585  -15.2712 N   0  0  0  0  0  0  0  0  0  0  0  0
   25.0209  -19.0010  -16.2807 C   0  0  1  0  0  0  0  0  0  0  0  0
   26.3354  -19.5221  -16.7681 C   0  0  0  0  0  0  0  0  0  0  0  0
   26.8898  -18.7729  -17.9165 C   0  0  0  0  0  0  0  0  0  0  0  0
   27.5438  -17.5627  -17.8867 C   0  0  0  0  0  0  0  0  0  0  0  0
   27.8790  -17.2464  -19.1490 N   0  0  0  0  0  0  0  0  0  0  0  0
   27.4708  -18.1977  -19.9916 C   0  0  0  0  0  0  0  0  0  0  0  0
   27.5667  -18.3506  -21.3810 C   0  0  0  0  0  0  0  0  0  0  0  0
   27.0472  -19.4560  -22.0174 C   0  0  0  0  0  0  0  0  0  0  0  0
   26.4304  -20.4053  -21.2381 C   0  0  0  0  0  0  0  0  0  0  0  0
   26.3245  -20.2786  -19.8804 C   0  0  0  0  0  0  0  0  0  0  0  0
   26.8493  -19.1607  -19.2335 C   0  0  0  0  0  0  0  0  0  0  0  0
   24.0275  -18.8493  -17.3685 C   0  0  0  0  0  0  0  0  0  0  0  0
   23.1648  -19.7077  -17.6653 O   0  0  0  0  0  0  0  0  0  0  0  0
   24.0523  -17.6788  -18.1100 O   0  0  0  0  0  0  0  0  0  0  0  0
  1  2  1  0
  3  2  1  0
  3  5  1  0
  3  4  1  6
  5  6  1  1
  7  5  1  0
  7  8  2  0
  9  7  1  0
 10  9  1  0
 10 15  1  0
 10 11  1  1
 12 11  1  0
 13 12  1  0
 13 14  2  0
 15 16  2  0
 15 18  1  0
 17 13  1  0
 18 19  1  0
 19 30  1  0
 19 20  1  6
 21 29  1  0
 21 20  1  0
 22 21  2  0
 23 22  1  0
 23 24  1  0
 24 25  1  0
 24 29  2  0
 25 26  2  0
 26 27  1  0
 28 27  2  0
 29 28  1  0
 30 31  2  0
 30 32  1  0
M  END
$$$$
