IEW.pdb
     RDKit          3D

 32 33  0  0  1  0  0  0  0  0999 V2000
   33.7783  -22.6566   -9.9808 C   0  0  0  0  0  0  0  0  0  0  0  0
   33.1018  -22.6681  -11.3347 C   0  0  0  0  0  0  0  0  0  0  0  0
   31.8052  -21.9051  -11.2255 C   0  0  2  0  0  0  0  0  0  0  0  0
   30.9526  -22.6174  -10.1965 C   0  0  0  0  0  0  0  0  0  0  0  0
   31.0649  -21.8934  -12.5162 C   0  0  2  0  0  0  0  0  0  0  0  0
   31.8790  -21.4814  -13.6104 N   0  0  0  0  0  0  0  0  0  0  0  0
   29.8355  -21.0631  -12.4845 C   0  0  0  0  0  0  0  0  0  0  0  0
   29.8833  -19.8042  -12.3948 O   0  0  0  0  0  0  0  0  0  0  0  0
   28.5568  -21.6690  -12.5549 N   0  0  0  0  0  0  0  0  0  0  0  0
   27.3059  -20.9952  -12.2985 C   0  0  1  0  0  0  0  0  0  0  0  0
   26.4598  -20.7551  -13.4923 C   0  0  0  0  0  0  0  0  0  0  0  0
   25.1633  -20.0647  -13.2685 C   0  0  0  0  0  0  0  0  0  0  0  0
   24.4647  -20.0101  -14.6029 C   0  0  0  0  0  0  0  0  0  0  0  0
   24.3426  -21.0485  -15.3018 O   0  0  0  0  0  0  0  0  0  0  0  0
   26.5887  -21.5534  -11.1242 C   0  0  0  0  0  0  0  0  0  0  0  0
   26.9043  -22.6846  -10.7071 O   0  0  0  0  0  0  0  0  0  0  0  0
   23.9335  -18.8334  -15.1128 O   0  0  0  0  0  0  0  0  0  0  0  0
   25.5686  -20.8440  -10.4740 N   0  0  0  0  0  0  0  0  0  0  0  0
   25.4459  -20.7893   -9.0093 C   0  0  1  0  0  0  0  0  0  0  0  0
   26.6997  -20.1487   -8.5048 C   0  0  0  0  0  0  0  0  0  0  0  0
   26.6946  -19.8823   -7.0500 C   0  0  0  0  0  0  0  0  0  0  0  0
   25.6055  -19.6083   -6.2551 C   0  0  0  0  0  0  0  0  0  0  0  0
   26.0486  -19.4324   -4.9987 N   0  0  0  0  0  0  0  0  0  0  0  0
   27.3741  -19.5806   -4.9472 C   0  0  0  0  0  0  0  0  0  0  0  0
   28.3061  -19.5009   -3.9040 C   0  0  0  0  0  0  0  0  0  0  0  0
   29.6503  -19.7006   -4.1277 C   0  0  0  0  0  0  0  0  0  0  0  0
   30.0446  -19.9815   -5.4140 C   0  0  0  0  0  0  0  0  0  0  0  0
   29.1541  -20.0646   -6.4487 C   0  0  0  0  0  0  0  0  0  0  0  0
   27.7928  -19.8628   -6.2253 C   0  0  0  0  0  0  0  0  0  0  0  0
   24.2264  -20.0478   -8.6138 C   0  0  0  0  0  0  0  0  0  0  0  0
   23.8172  -19.0056   -9.1754 O   0  0  0  0  0  0  0  0  0  0  0  0
   23.4860  -20.5387   -7.5501 O   0  0  0  0  0  0  0  0  0  0  0  0
  1  2  1  0
  3  2  1  0
  3  5  1  0
  3  4  1  1
  5  6  1  6
  7  5  1  0
  7  8  2  0
  9  7  1  0
 10  9  1  0
 10 15  1  0
 10 11  1  6
 12 11  1  0
 13 12  1  0
 13 14  2  0
 15 16  2  0
 15 18  1  0
 17 13  1  0
 18 19  1  0
 19 30  1  0
 19 20  1  1
 21 29  1  0
 21 20  1  0
 22 21  2  0
 23 22  1  0
 23 24  1  0
 24 25  1  0
 24 29  2  0
 25 26  2  0
 26 27  1  0
 28 27  2  0
 29 28  1  0
 30 31  2  0
 30 32  1  0
M  END
$$$$
