IEW.pdb
     RDKit          3D

 32 33  0  0  1  0  0  0  0  0999 V2000
   28.1828  -18.9621  -19.4658 C   0  0  0  0  0  0  0  0  0  0  0  0
   26.6838  -19.1198  -19.3281 C   0  0  0  0  0  0  0  0  0  0  0  0
   26.3235  -18.9897  -17.8691 C   0  0  2  0  0  0  0  0  0  0  0  0
   26.9321  -20.1759  -17.1508 C   0  0  0  0  0  0  0  0  0  0  0  0
   24.8505  -19.0256  -17.6622 C   0  0  2  0  0  0  0  0  0  0  0  0
   24.1731  -17.9902  -18.3686 N   0  0  0  0  0  0  0  0  0  0  0  0
   24.4534  -18.9801  -16.2332 C   0  0  0  0  0  0  0  0  0  0  0  0
   24.7669  -18.0123  -15.4845 O   0  0  0  0  0  0  0  0  0  0  0  0
   23.7013  -20.0361  -15.6620 N   0  0  0  0  0  0  0  0  0  0  0  0
   23.3260  -20.1275  -14.2708 C   0  0  1  0  0  0  0  0  0  0  0  0
   21.9415  -20.5944  -14.0180 C   0  0  0  0  0  0  0  0  0  0  0  0
   21.5400  -20.7667  -12.5978 C   0  0  0  0  0  0  0  0  0  0  0  0
   20.1536  -21.3577  -12.6075 C   0  0  0  0  0  0  0  0  0  0  0  0
   19.9914  -22.6024  -12.6854 O   0  0  0  0  0  0  0  0  0  0  0  0
   24.3694  -20.7819  -13.4414 C   0  0  0  0  0  0  0  0  0  0  0  0
   24.7764  -21.9138  -13.7676 O   0  0  0  0  0  0  0  0  0  0  0  0
   19.0128  -20.5705  -12.5322 O   0  0  0  0  0  0  0  0  0  0  0  0
   24.9071  -20.1625  -12.3040 N   0  0  0  0  0  0  0  0  0  0  0  0
   25.8341  -20.8456  -11.3888 C   0  0  1  0  0  0  0  0  0  0  0  0
   26.9975  -19.9244  -11.2020 C   0  0  0  0  0  0  0  0  0  0  0  0
   28.0237  -20.4349  -10.2674 C   0  0  0  0  0  0  0  0  0  0  0  0
   28.9139  -21.4614  -10.4841 C   0  0  0  0  0  0  0  0  0  0  0  0
   29.6651  -21.5933   -9.3777 N   0  0  0  0  0  0  0  0  0  0  0  0
   29.2999  -20.6984   -8.4573 C   0  0  0  0  0  0  0  0  0  0  0  0
   29.7525  -20.4200   -7.1608 C   0  0  0  0  0  0  0  0  0  0  0  0
   29.1873  -19.4170   -6.4049 C   0  0  0  0  0  0  0  0  0  0  0  0
   28.1613  -18.6980   -6.9699 C   0  0  0  0  0  0  0  0  0  0  0  0
   27.7022  -18.9508   -8.2332 C   0  0  0  0  0  0  0  0  0  0  0  0
   28.2723  -19.9654   -9.0007 C   0  0  0  0  0  0  0  0  0  0  0  0
   25.1591  -21.1794  -10.1135 C   0  0  0  0  0  0  0  0  0  0  0  0
   24.2171  -20.5202   -9.6164 O   0  0  0  0  0  0  0  0  0  0  0  0
   25.5982  -22.2968   -9.4212 O   0  0  0  0  0  0  0  0  0  0  0  0
  1  2  1  0
  3  2  1  0
  3  5  1  0
  3  4  1  1
  5  6  1  6
  7  5  1  0
  7  8  2  0
  9  7  1  0
 10  9  1  0
 10 15  1  0
 10 11  1  6
 12 11  1  0
 13 12  1  0
 13 14  2  0
 15 16  2  0
 15 18  1  0
 17 13  1  0
 18 19  1  0
 19 30  1  0
 19 20  1  1
 21 29  1  0
 21 20  1  0
 22 21  2  0
 23 22  1  0
 23 24  1  0
 24 25  1  0
 24 29  2  0
 25 26  2  0
 26 27  1  0
 28 27  2  0
 29 28  1  0
 30 31  2  0
 30 32  1  0
M  END
$$$$
