IEW.pdb
     RDKit          3D

 32 33  0  0  1  0  0  0  0  0999 V2000
   36.4582  -22.8871  -17.9439 C   0  0  0  0  0  0  0  0  0  0  0  0
   36.0952  -24.0742  -17.0781 C   0  0  0  0  0  0  0  0  0  0  0  0
   35.6818  -25.2115  -17.9787 C   0  0  2  0  0  0  0  0  0  0  0  0
   34.3793  -24.8089  -18.6380 C   0  0  0  0  0  0  0  0  0  0  0  0
   35.4469  -26.4633  -17.2094 C   0  0  2  0  0  0  0  0  0  0  0  0
   36.5499  -26.8090  -16.3765 N   0  0  0  0  0  0  0  0  0  0  0  0
   35.0994  -27.6255  -18.0641 C   0  0  0  0  0  0  0  0  0  0  0  0
   35.9298  -28.1331  -18.8690 O   0  0  0  0  0  0  0  0  0  0  0  0
   33.8083  -28.2050  -17.9992 N   0  0  0  0  0  0  0  0  0  0  0  0
   33.3582  -29.3168  -18.8029 C   0  0  1  0  0  0  0  0  0  0  0  0
   33.2451  -30.6105  -18.0872 C   0  0  0  0  0  0  0  0  0  0  0  0
   32.7247  -31.7647  -18.8649 C   0  0  0  0  0  0  0  0  0  0  0  0
   32.6884  -32.9413  -17.9236 C   0  0  0  0  0  0  0  0  0  0  0  0
   33.0287  -32.8061  -16.7204 O   0  0  0  0  0  0  0  0  0  0  0  0
   32.1935  -28.9684  -19.6555 C   0  0  0  0  0  0  0  0  0  0  0  0
   31.7331  -27.8114  -19.6033 O   0  0  0  0  0  0  0  0  0  0  0  0
   32.2853  -34.2048  -18.3332 O   0  0  0  0  0  0  0  0  0  0  0  0
   31.5992  -29.9037  -20.5150 N   0  0  0  0  0  0  0  0  0  0  0  0
   30.4201  -29.5924  -21.3373 C   0  0  1  0  0  0  0  0  0  0  0  0
   30.7529  -28.3481  -22.0976 C   0  0  0  0  0  0  0  0  0  0  0  0
   29.6493  -27.8501  -22.9470 C   0  0  0  0  0  0  0  0  0  0  0  0
   28.5840  -27.0703  -22.5597 C   0  0  0  0  0  0  0  0  0  0  0  0
   27.8223  -26.8485  -23.6443 N   0  0  0  0  0  0  0  0  0  0  0  0
   28.3480  -27.4498  -24.7136 C   0  0  0  0  0  0  0  0  0  0  0  0
   27.9554  -27.5295  -26.0562 C   0  0  0  0  0  0  0  0  0  0  0  0
   28.6967  -28.2340  -26.9786 C   0  0  0  0  0  0  0  0  0  0  0  0
   29.8378  -28.8571  -26.5330 C   0  0  0  0  0  0  0  0  0  0  0  0
   30.2417  -28.7938  -25.2278 C   0  0  0  0  0  0  0  0  0  0  0  0
   29.4933  -28.0815  -24.2919 C   0  0  0  0  0  0  0  0  0  0  0  0
   30.0847  -30.7308  -22.2232 C   0  0  0  0  0  0  0  0  0  0  0  0
   28.9852  -30.8758  -22.8054 O   0  0  0  0  0  0  0  0  0  0  0  0
   31.0518  -31.7032  -22.4228 O   0  0  0  0  0  0  0  0  0  0  0  0
  1  2  1  0
  3  2  1  0
  3  5  1  0
  3  4  1  1
  5  6  1  6
  7  5  1  0
  7  8  2  0
  9  7  1  0
 10  9  1  0
 10 15  1  0
 10 11  1  1
 12 11  1  0
 13 12  1  0
 13 14  2  0
 15 16  2  0
 15 18  1  0
 17 13  1  0
 18 19  1  0
 19 30  1  0
 19 20  1  6
 21 29  1  0
 21 20  1  0
 22 21  2  0
 23 22  1  0
 23 24  1  0
 24 25  1  0
 24 29  2  0
 25 26  2  0
 26 27  1  0
 28 27  2  0
 29 28  1  0
 30 31  2  0
 30 32  1  0
M  END
$$$$
