IEW.pdb
     RDKit          3D

 32 33  0  0  1  0  0  0  0  0999 V2000
   20.1725  -19.6235  -13.6983 C   0  0  0  0  0  0  0  0  0  0  0  0
   21.4057  -18.9758  -14.2902 C   0  0  0  0  0  0  0  0  0  0  0  0
   22.5749  -19.9080  -14.0916 C   0  0  2  0  0  0  0  0  0  0  0  0
   22.6919  -20.1677  -12.6043 C   0  0  0  0  0  0  0  0  0  0  0  0
   23.8488  -19.2981  -14.5596 C   0  0  2  0  0  0  0  0  0  0  0  0
   23.7750  -18.8428  -15.9075 N   0  0  0  0  0  0  0  0  0  0  0  0
   25.0221  -20.1946  -14.4122 C   0  0  0  0  0  0  0  0  0  0  0  0
   25.0697  -21.3273  -14.9688 O   0  0  0  0  0  0  0  0  0  0  0  0
   26.1361  -19.7982  -13.6319 N   0  0  0  0  0  0  0  0  0  0  0  0
   27.2895  -20.6219  -13.3566 C   0  0  1  0  0  0  0  0  0  0  0  0
   28.5887  -20.0601  -13.7983 C   0  0  0  0  0  0  0  0  0  0  0  0
   28.5489  -18.7581  -14.5130 C   0  0  0  0  0  0  0  0  0  0  0  0
   28.4397  -19.0730  -15.9829 C   0  0  0  0  0  0  0  0  0  0  0  0
   28.9594  -20.1180  -16.4514 O   0  0  0  0  0  0  0  0  0  0  0  0
   27.2808  -21.1709  -11.9770 C   0  0  0  0  0  0  0  0  0  0  0  0
   28.1347  -22.0223  -11.6617 O   0  0  0  0  0  0  0  0  0  0  0  0
   27.7732  -18.2401  -16.8709 O   0  0  0  0  0  0  0  0  0  0  0  0
   26.3400  -20.7588  -11.0221 N   0  0  0  0  0  0  0  0  0  0  0  0
   26.2520  -21.3570   -9.6814 C   0  0  1  0  0  0  0  0  0  0  0  0
   27.5829  -21.1398   -9.0346 C   0  0  0  0  0  0  0  0  0  0  0  0
   27.5538  -20.1826   -7.9074 C   0  0  0  0  0  0  0  0  0  0  0  0
   26.7820  -19.0492   -7.7941 C   0  0  0  0  0  0  0  0  0  0  0  0
   27.0674  -18.4750   -6.6131 N   0  0  0  0  0  0  0  0  0  0  0  0
   27.9882  -19.1868   -5.9596 C   0  0  0  0  0  0  0  0  0  0  0  0
   28.6177  -19.0268   -4.7181 C   0  0  0  0  0  0  0  0  0  0  0  0
   29.5569  -19.9289   -4.2698 C   0  0  0  0  0  0  0  0  0  0  0  0
   29.8544  -20.9936   -5.0863 C   0  0  0  0  0  0  0  0  0  0  0  0
   29.2535  -21.1714   -6.3020 C   0  0  0  0  0  0  0  0  0  0  0  0
   28.3024  -20.2599   -6.7584 C   0  0  0  0  0  0  0  0  0  0  0  0
   25.1381  -20.7561   -8.9124 C   0  0  0  0  0  0  0  0  0  0  0  0
   24.5595  -19.6885   -9.2198 O   0  0  0  0  0  0  0  0  0  0  0  0
   24.7048  -21.4183   -7.7747 O   0  0  0  0  0  0  0  0  0  0  0  0
  1  2  1  0
  3  2  1  0
  3  5  1  0
  3  4  1  1
  5  6  1  6
  7  5  1  0
  7  8  2  0
  9  7  1  0
 10  9  1  0
 10 15  1  0
 10 11  1  1
 12 11  1  0
 13 12  1  0
 13 14  2  0
 15 16  2  0
 15 18  1  0
 17 13  1  0
 18 19  1  0
 19 30  1  0
 19 20  1  1
 21 29  1  0
 21 20  1  0
 22 21  2  0
 23 22  1  0
 23 24  1  0
 24 25  1  0
 24 29  2  0
 25 26  2  0
 26 27  1  0
 28 27  2  0
 29 28  1  0
 30 31  2  0
 30 32  1  0
M  END
$$$$
