IEW.pdb
     RDKit          3D

 32 33  0  0  1  0  0  0  0  0999 V2000
   26.4307  -14.0818  -15.5387 C   0  0  0  0  0  0  0  0  0  0  0  0
   27.2130  -15.2104  -16.1751 C   0  0  0  0  0  0  0  0  0  0  0  0
   26.6125  -16.5189  -15.7248 C   0  0  2  0  0  0  0  0  0  0  0  0
   26.9747  -16.6983  -14.2655 C   0  0  0  0  0  0  0  0  0  0  0  0
   27.1684  -17.6692  -16.4875 C   0  0  2  0  0  0  0  0  0  0  0  0
   27.1653  -17.4459  -17.8946 N   0  0  0  0  0  0  0  0  0  0  0  0
   26.4870  -18.9550  -16.1973 C   0  0  0  0  0  0  0  0  0  0  0  0
   25.2307  -19.0357  -16.0952 O   0  0  0  0  0  0  0  0  0  0  0  0
   27.2382  -20.1437  -16.0244 N   0  0  0  0  0  0  0  0  0  0  0  0
   26.6902  -21.4196  -15.6291 C   0  0  1  0  0  0  0  0  0  0  0  0
   27.1857  -22.5869  -16.3975 C   0  0  0  0  0  0  0  0  0  0  0  0
   27.5335  -22.3537  -17.8231 C   0  0  0  0  0  0  0  0  0  0  0  0
   29.0378  -22.2994  -17.8995 C   0  0  0  0  0  0  0  0  0  0  0  0
   29.6085  -21.4692  -18.6524 O   0  0  0  0  0  0  0  0  0  0  0  0
   26.6743  -21.6005  -14.1553 C   0  0  0  0  0  0  0  0  0  0  0  0
   27.6891  -22.0557  -13.5930 O   0  0  0  0  0  0  0  0  0  0  0  0
   29.8478  -23.1471  -17.1567 O   0  0  0  0  0  0  0  0  0  0  0  0
   25.5511  -21.2741  -13.3816 N   0  0  0  0  0  0  0  0  0  0  0  0
   25.4957  -21.4908  -11.9278 C   0  0  1  0  0  0  0  0  0  0  0  0
   26.5779  -20.6461  -11.3341 C   0  0  0  0  0  0  0  0  0  0  0  0
   26.4315  -20.4171   -9.8803 C   0  0  0  0  0  0  0  0  0  0  0  0
   25.2607  -20.3117   -9.1653 C   0  0  0  0  0  0  0  0  0  0  0  0
   25.5838  -20.1070   -7.8771 N   0  0  0  0  0  0  0  0  0  0  0  0
   26.9099  -20.0756   -7.7289 C   0  0  0  0  0  0  0  0  0  0  0  0
   27.7445  -19.8950   -6.6180 C   0  0  0  0  0  0  0  0  0  0  0  0
   29.1160  -19.9057   -6.7434 C   0  0  0  0  0  0  0  0  0  0  0  0
   29.6368  -20.1003   -8.0003 C   0  0  0  0  0  0  0  0  0  0  0  0
   28.8429  -20.2789   -9.0996 C   0  0  0  0  0  0  0  0  0  0  0  0
   27.4544  -20.2685   -8.9757 C   0  0  0  0  0  0  0  0  0  0  0  0
   24.1537  -21.1545  -11.3995 C   0  0  0  0  0  0  0  0  0  0  0  0
   23.8039  -21.3040  -10.2061 O   0  0  0  0  0  0  0  0  0  0  0  0
   23.2195  -20.6394  -12.2842 O   0  0  0  0  0  0  0  0  0  0  0  0
  1  2  1  0
  3  2  1  0
  3  5  1  0
  3  4  1  1
  5  6  1  6
  7  5  1  0
  7  8  2  0
  9  7  1  0
 10  9  1  0
 10 15  1  0
 10 11  1  6
 12 11  1  0
 13 12  1  0
 13 14  2  0
 15 16  2  0
 15 18  1  0
 17 13  1  0
 18 19  1  0
 19 30  1  0
 19 20  1  1
 21 29  1  0
 21 20  1  0
 22 21  2  0
 23 22  1  0
 23 24  1  0
 24 25  1  0
 24 29  2  0
 25 26  2  0
 26 27  1  0
 28 27  2  0
 29 28  1  0
 30 31  2  0
 30 32  1  0
M  END
$$$$
