ETY.pdb
     RDKit          3D

 29 29  0  0  1  0  0  0  0  0999 V2000
   18.3482  -15.1303  -16.8003 N   0  0  0  0  0  0  0  0  0  0  0  0
   17.9559  -13.8577  -17.3201 C   0  0  1  0  0  0  0  0  0  0  0  0
   16.8090  -13.1865  -16.6641 C   0  0  0  0  0  0  0  0  0  0  0  0
   16.9059  -12.8876  -15.2197 C   0  0  0  0  0  0  0  0  0  0  0  0
   15.6964  -12.4581  -14.5234 C   0  0  0  0  0  0  0  0  0  0  0  0
   15.4610  -11.2693  -14.2713 O   0  0  0  0  0  0  0  0  0  0  0  0
   19.1374  -12.9391  -17.4621 C   0  0  0  0  0  0  0  0  0  0  0  0
   20.2534  -13.2182  -16.9098 O   0  0  0  0  0  0  0  0  0  0  0  0
   14.7798  -13.4206  -14.1316 O   0  0  0  0  0  0  0  0  0  0  0  0
   20.3784  -11.2297  -20.8646 C   0  0  0  0  0  0  0  0  0  0  0  0
   20.2746  -10.2469  -19.7260 C   0  0  1  0  0  0  0  0  0  0  0  0
   19.1265   -9.4950  -19.8665 O   0  0  0  0  0  0  0  0  0  0  0  0
   20.2610  -10.9112  -18.3803 C   0  0  2  0  0  0  0  0  0  0  0  0
   19.0528  -11.7376  -18.2105 N   0  0  0  0  0  0  0  0  0  0  0  0
   20.1588   -9.8206  -17.3575 C   0  0  0  0  0  0  0  0  0  0  0  0
   19.1056   -9.6699  -16.6601 O   0  0  0  0  0  0  0  0  0  0  0  0
   22.2520   -2.1473  -13.7345 O   0  0  0  0  0  0  0  0  0  0  0  0
   22.2994   -3.4245  -14.2391 C   0  0  0  0  0  0  0  0  0  0  0  0
   21.9902   -4.4995  -13.4245 C   0  0  0  0  0  0  0  0  0  0  0  0
   22.0335   -5.7949  -13.9196 C   0  0  0  0  0  0  0  0  0  0  0  0
   22.3851   -6.0017  -15.2223 C   0  0  0  0  0  0  0  0  0  0  0  0
   22.4514   -7.3675  -15.7594 C   0  0  0  0  0  0  0  0  0  0  0  0
   21.0697   -7.8450  -16.1162 C   0  0  2  0  0  0  0  0  0  0  0  0
   21.2029   -8.9150  -17.1116 N   0  0  0  0  0  0  0  0  0  0  0  0
   20.1918   -6.7912  -16.6560 C   0  0  0  0  0  0  0  0  0  0  0  0
   19.3514   -6.1046  -15.7998 O   0  0  0  0  0  0  0  0  0  0  0  0
   22.6913   -4.9374  -16.0290 C   0  0  0  0  0  0  0  0  0  0  0  0
   22.6569   -3.6295  -15.5622 C   0  0  0  0  0  0  0  0  0  0  0  0
   20.1579   -6.4711  -17.8677 O   0  0  0  0  0  0  0  0  0  0  0  0
  2  1  1  1
  3  2  1  0
  3  4  1  0
  4  5  1  0
  5  9  1  0
  5  6  2  0
  7  8  2  0
  7  2  1  0
 11 10  1  6
 11 13  1  0
 11 12  1  0
 13 14  1  6
 14  7  1  0
 15 13  1  0
 16 15  2  0
 18 17  1  0
 19 18  2  0
 20 19  1  0
 21 27  1  0
 21 20  2  0
 22 21  1  0
 23 22  1  6
 23 24  1  0
 24 15  1  0
 25 23  1  0
 26 25  1  0
 27 28  2  0
 28 18  1  0
 29 25  2  0
M  END
$$$$
