ETY.pdb
     RDKit          3D

 29 29  0  0  1  0  0  0  0  0999 V2000
   16.6701  -12.1251  -17.6105 N   0  0  0  0  0  0  0  0  0  0  0  0
   17.6224  -11.8429  -16.5824 C   0  0  1  0  0  0  0  0  0  0  0  0
   18.4812  -12.9641  -16.1334 C   0  0  0  0  0  0  0  0  0  0  0  0
   17.8256  -14.1963  -15.6469 C   0  0  0  0  0  0  0  0  0  0  0  0
   18.6746  -15.2935  -15.1914 C   0  0  0  0  0  0  0  0  0  0  0  0
   19.9104  -15.2424  -15.2403 O   0  0  0  0  0  0  0  0  0  0  0  0
   18.4266  -10.6149  -16.9064 C   0  0  0  0  0  0  0  0  0  0  0  0
   19.1842  -10.5807  -17.9327 O   0  0  0  0  0  0  0  0  0  0  0  0
   18.0705  -16.4335  -14.6858 O   0  0  0  0  0  0  0  0  0  0  0  0
   17.5429   -7.4883  -18.2868 C   0  0  0  0  0  0  0  0  0  0  0  0
   18.1872   -7.1747  -16.9602 C   0  0  1  0  0  0  0  0  0  0  0  0
   17.2105   -6.9810  -16.0054 O   0  0  0  0  0  0  0  0  0  0  0  0
   19.1184   -8.2550  -16.4932 C   0  0  2  0  0  0  0  0  0  0  0  0
   18.3713   -9.4586  -16.0874 N   0  0  0  0  0  0  0  0  0  0  0  0
   19.7850   -7.7479  -15.2505 C   0  0  0  0  0  0  0  0  0  0  0  0
   19.7856   -8.4328  -14.1785 O   0  0  0  0  0  0  0  0  0  0  0  0
   25.9009   -6.9417  -18.0210 O   0  0  0  0  0  0  0  0  0  0  0  0
   25.0101   -6.9709  -16.9752 C   0  0  0  0  0  0  0  0  0  0  0  0
   24.6413   -5.7925  -16.3505 C   0  0  0  0  0  0  0  0  0  0  0  0
   23.7429   -5.8061  -15.2933 C   0  0  0  0  0  0  0  0  0  0  0  0
   23.2231   -6.9960  -14.8724 C   0  0  0  0  0  0  0  0  0  0  0  0
   22.2825   -7.0310  -13.7444 C   0  0  0  0  0  0  0  0  0  0  0  0
   21.1517   -6.0690  -13.9908 C   0  0  2  0  0  0  0  0  0  0  0  0
   20.4387   -6.5068  -15.1963 N   0  0  0  0  0  0  0  0  0  0  0  0
   21.5820   -4.6703  -14.1666 C   0  0  0  0  0  0  0  0  0  0  0  0
   22.2098   -4.0178  -13.1221 O   0  0  0  0  0  0  0  0  0  0  0  0
   23.5882   -8.1629  -15.4908 C   0  0  0  0  0  0  0  0  0  0  0  0
   24.4851   -8.1814  -16.5514 C   0  0  0  0  0  0  0  0  0  0  0  0
   21.4112   -4.0206  -15.2252 O   0  0  0  0  0  0  0  0  0  0  0  0
  2  1  1  6
  3  2  1  0
  3  4  1  0
  4  5  1  0
  5  9  1  0
  5  6  2  0
  7  8  2  0
  7  2  1  0
 11 10  1  6
 11 13  1  0
 11 12  1  0
 13 14  1  1
 14  7  1  0
 15 13  1  0
 16 15  2  0
 18 17  1  0
 19 18  2  0
 20 19  1  0
 21 27  1  0
 21 20  2  0
 22 21  1  0
 23 22  1  6
 23 24  1  0
 24 15  1  0
 25 23  1  0
 26 25  1  0
 27 28  2  0
 28 18  1  0
 29 25  2  0
M  END
$$$$
