ETY.pdb
     RDKit          3D

 29 29  0  0  1  0  0  0  0  0999 V2000
   28.8000  -16.9280  -19.9121 N   0  0  0  0  0  0  0  0  0  0  0  0
   27.6878  -16.5413  -19.1016 C   0  0  1  0  0  0  0  0  0  0  0  0
   27.0195  -15.2627  -19.4404 C   0  0  0  0  0  0  0  0  0  0  0  0
   27.1701  -14.7370  -20.8137 C   0  0  0  0  0  0  0  0  0  0  0  0
   27.8762  -13.4714  -20.9923 C   0  0  0  0  0  0  0  0  0  0  0  0
   27.3506  -12.3770  -20.7509 O   0  0  0  0  0  0  0  0  0  0  0  0
   26.7029  -17.6674  -18.9542 C   0  0  0  0  0  0  0  0  0  0  0  0
   26.5900  -18.5606  -19.8586 O   0  0  0  0  0  0  0  0  0  0  0  0
   29.1839  -13.5005  -21.4495 O   0  0  0  0  0  0  0  0  0  0  0  0
   26.8725  -20.4741  -18.4898 C   0  0  0  0  0  0  0  0  0  0  0  0
   25.9028  -20.1873  -17.3715 C   0  0  1  0  0  0  0  0  0  0  0  0
   26.5969  -19.9938  -16.1950 O   0  0  0  0  0  0  0  0  0  0  0  0
   25.0457  -18.9840  -17.6357 C   0  0  2  0  0  0  0  0  0  0  0  0
   25.8703  -17.7754  -17.8115 N   0  0  0  0  0  0  0  0  0  0  0  0
   24.2322  -18.7491  -16.3993 C   0  0  0  0  0  0  0  0  0  0  0  0
   24.5727  -17.8695  -15.5455 O   0  0  0  0  0  0  0  0  0  0  0  0
   17.3408  -18.8022  -11.0531 O   0  0  0  0  0  0  0  0  0  0  0  0
   18.2584  -18.7253  -12.0731 C   0  0  0  0  0  0  0  0  0  0  0  0
   19.1848  -17.6976  -12.0911 C   0  0  0  0  0  0  0  0  0  0  0  0
   20.1175  -17.6068  -13.1143 C   0  0  0  0  0  0  0  0  0  0  0  0
   20.1143  -18.5433  -14.1074 C   0  0  0  0  0  0  0  0  0  0  0  0
   21.0845  -18.4540  -15.2070 C   0  0  0  0  0  0  0  0  0  0  0  0
   22.3126  -19.2567  -14.8725 C   0  0  2  0  0  0  0  0  0  0  0  0
   23.0643  -19.4737  -16.1140 N   0  0  0  0  0  0  0  0  0  0  0  0
   22.0251  -20.5610  -14.2491 C   0  0  0  0  0  0  0  0  0  0  0  0
   21.8934  -20.6414  -12.8754 O   0  0  0  0  0  0  0  0  0  0  0  0
   19.1970  -19.5609  -14.0897 C   0  0  0  0  0  0  0  0  0  0  0  0
   18.2512  -19.6783  -13.0792 C   0  0  0  0  0  0  0  0  0  0  0  0
   21.8896  -21.6248  -14.8988 O   0  0  0  0  0  0  0  0  0  0  0  0
  2  1  1  6
  3  2  1  0
  3  4  1  0
  4  5  1  0
  5  9  1  0
  5  6  2  0
  7  8  2  0
  7  2  1  0
 11 10  1  6
 11 13  1  0
 11 12  1  0
 13 14  1  1
 14  7  1  0
 15 13  1  0
 16 15  2  0
 18 17  1  0
 19 18  2  0
 20 19  1  0
 21 27  1  0
 21 20  2  0
 22 21  1  0
 23 22  1  6
 23 24  1  0
 24 15  1  0
 25 23  1  0
 26 25  1  0
 27 28  2  0
 28 18  1  0
 29 25  2  0
M  END
$$$$
