ETY.pdb
     RDKit          3D

 29 29  0  0  1  0  0  0  0  0999 V2000
   18.8476  -12.2551  -16.0800 N   0  0  0  0  0  0  0  0  0  0  0  0
   18.3583  -11.0342  -16.6399 C   0  0  1  0  0  0  0  0  0  0  0  0
   16.9049  -10.9555  -16.9181 C   0  0  0  0  0  0  0  0  0  0  0  0
   16.2879  -12.0289  -17.7257 C   0  0  0  0  0  0  0  0  0  0  0  0
   16.3193  -13.3905  -17.1992 C   0  0  0  0  0  0  0  0  0  0  0  0
   16.7992  -14.3382  -17.8345 O   0  0  0  0  0  0  0  0  0  0  0  0
   18.8461   -9.8438  -15.8624 C   0  0  0  0  0  0  0  0  0  0  0  0
   18.7005   -9.7849  -14.5960 O   0  0  0  0  0  0  0  0  0  0  0  0
   15.7908  -13.6268  -15.9402 O   0  0  0  0  0  0  0  0  0  0  0  0
   22.0348   -8.8494  -14.8073 C   0  0  0  0  0  0  0  0  0  0  0  0
   21.5159   -7.6984  -15.6315 C   0  0  1  0  0  0  0  0  0  0  0  0
   22.0098   -7.7893  -16.9165 O   0  0  0  0  0  0  0  0  0  0  0  0
   20.0170   -7.6491  -15.6875 C   0  0  2  0  0  0  0  0  0  0  0  0
   19.4815   -8.7515  -16.5057 N   0  0  0  0  0  0  0  0  0  0  0  0
   19.6496   -6.3876  -16.4082 C   0  0  0  0  0  0  0  0  0  0  0  0
   19.5018   -6.3715  -17.6717 O   0  0  0  0  0  0  0  0  0  0  0  0
   16.5135    1.2541  -18.7969 O   0  0  0  0  0  0  0  0  0  0  0  0
   16.7963    0.0482  -18.2019 C   0  0  0  0  0  0  0  0  0  0  0  0
   17.2218    0.0116  -16.8858 C   0  0  0  0  0  0  0  0  0  0  0  0
   17.5110   -1.1984  -16.2715 C   0  0  0  0  0  0  0  0  0  0  0  0
   17.3719   -2.3577  -16.9786 C   0  0  0  0  0  0  0  0  0  0  0  0
   17.6886   -3.6468  -16.3492 C   0  0  0  0  0  0  0  0  0  0  0  0
   19.1604   -3.9322  -16.4795 C   0  0  2  0  0  0  0  0  0  0  0  0
   19.4494   -5.1679  -15.7427 N   0  0  0  0  0  0  0  0  0  0  0  0
   20.0276   -2.8541  -15.9713 C   0  0  0  0  0  0  0  0  0  0  0  0
   20.3909   -1.8216  -16.8155 O   0  0  0  0  0  0  0  0  0  0  0  0
   16.9507   -2.3216  -18.2819 C   0  0  0  0  0  0  0  0  0  0  0  0
   16.6536   -1.1261  -18.9239 C   0  0  0  0  0  0  0  0  0  0  0  0
   20.4661   -2.8129  -14.7974 O   0  0  0  0  0  0  0  0  0  0  0  0
  2  1  1  1
  3  2  1  0
  3  4  1  0
  4  5  1  0
  5  9  1  0
  5  6  2  0
  7  8  2  0
  7  2  1  0
 11 10  1  1
 11 13  1  0
 11 12  1  0
 13 14  1  6
 14  7  1  0
 15 13  1  0
 16 15  2  0
 18 17  1  0
 19 18  2  0
 20 19  1  0
 21 27  1  0
 21 20  2  0
 22 21  1  0
 23 22  1  1
 23 24  1  0
 24 15  1  0
 25 23  1  0
 26 25  1  0
 27 28  2  0
 28 18  1  0
 29 25  2  0
M  END
$$$$
