ETY.pdb
     RDKit          3D

 29 29  0  0  1  0  0  0  0  0999 V2000
   17.2216  -13.1372  -17.3905 N   0  0  0  0  0  0  0  0  0  0  0  0
   18.2099  -12.6598  -16.4745 C   0  0  1  0  0  0  0  0  0  0  0  0
   19.3972  -13.5194  -16.2564 C   0  0  0  0  0  0  0  0  0  0  0  0
   19.8468  -14.3863  -17.3660 C   0  0  0  0  0  0  0  0  0  0  0  0
   21.2459  -14.3077  -17.7770 C   0  0  0  0  0  0  0  0  0  0  0  0
   21.6730  -13.4090  -18.5132 O   0  0  0  0  0  0  0  0  0  0  0  0
   18.5941  -11.2387  -16.7787 C   0  0  0  0  0  0  0  0  0  0  0  0
   18.5083  -10.7773  -17.9654 O   0  0  0  0  0  0  0  0  0  0  0  0
   22.1256  -15.2776  -17.3237 O   0  0  0  0  0  0  0  0  0  0  0  0
   16.8143   -8.4824  -16.5446 C   0  0  0  0  0  0  0  0  0  0  0  0
   18.0112   -8.1529  -15.6890 C   0  0  1  0  0  0  0  0  0  0  0  0
   17.7151   -8.3987  -14.3641 O   0  0  0  0  0  0  0  0  0  0  0  0
   19.2341   -8.9356  -16.0688 C   0  0  2  0  0  0  0  0  0  0  0  0
   19.0623  -10.3668  -15.7631 N   0  0  0  0  0  0  0  0  0  0  0  0
   20.3476   -8.4587  -15.1865 C   0  0  0  0  0  0  0  0  0  0  0  0
   20.7763   -9.1728  -14.2249 O   0  0  0  0  0  0  0  0  0  0  0  0
   20.6378   -1.1768  -16.8299 O   0  0  0  0  0  0  0  0  0  0  0  0
   21.2286   -2.3772  -16.5167 C   0  0  0  0  0  0  0  0  0  0  0  0
   22.0682   -2.4673  -15.4206 C   0  0  0  0  0  0  0  0  0  0  0  0
   22.6719   -3.6726  -15.0919 C   0  0  0  0  0  0  0  0  0  0  0  0
   22.4301   -4.7737  -15.8615 C   0  0  0  0  0  0  0  0  0  0  0  0
   23.0730   -6.0543  -15.5376 C   0  0  0  0  0  0  0  0  0  0  0  0
   22.1868   -6.8549  -14.6220 C   0  0  2  0  0  0  0  0  0  0  0  0
   20.9743   -7.2155  -15.3658 N   0  0  0  0  0  0  0  0  0  0  0  0
   21.8023   -6.1457  -13.3884 C   0  0  0  0  0  0  0  0  0  0  0  0
   22.7656   -5.8726  -12.4353 O   0  0  0  0  0  0  0  0  0  0  0  0
   21.5988   -4.6846  -16.9470 C   0  0  0  0  0  0  0  0  0  0  0  0
   20.9801   -3.4923  -17.3011 C   0  0  0  0  0  0  0  0  0  0  0  0
   20.6328   -5.7664  -13.1431 O   0  0  0  0  0  0  0  0  0  0  0  0
  2  1  1  6
  3  2  1  0
  3  4  1  0
  4  5  1  0
  5  9  1  0
  5  6  2  0
  7  8  2  0
  7  2  1  0
 11 10  1  6
 11 13  1  0
 11 12  1  0
 13 14  1  1
 14  7  1  0
 15 13  1  0
 16 15  2  0
 18 17  1  0
 19 18  2  0
 20 19  1  0
 21 27  1  0
 21 20  2  0
 22 21  1  0
 23 22  1  6
 23 24  1  0
 24 15  1  0
 25 23  1  0
 26 25  1  0
 27 28  2  0
 28 18  1  0
 29 25  2  0
M  END
$$$$
