ICI.pdb
     RDKit          3D

 23 22  0  0  1  0  0  0  0  0999 V2000
    7.5278  -12.1330   18.6767 C   0  0  0  0  0  0  0  0  0  0  0  0
    8.3748  -13.4215   18.6262 C   0  0  0  0  0  0  0  0  0  0  0  0
    8.0530  -14.2208   19.8753 C   0  0  2  0  0  0  0  0  0  0  0  0
    8.3877  -13.3286   21.0881 C   0  0  0  0  0  0  0  0  0  0  0  0
    8.6708  -15.5568   19.9690 C   0  0  2  0  0  0  0  0  0  0  0  0
    8.2164  -16.3185   18.7965 N   0  0  0  0  0  0  0  0  0  0  0  0
    8.4780  -16.3177   21.2045 C   0  0  0  0  0  0  0  0  0  0  0  0
    7.7403  -17.3642   21.1490 O   0  0  0  0  0  0  0  0  0  0  0  0
    9.0364  -16.0004   22.4448 N   0  0  0  0  0  0  0  0  0  0  0  0
    8.9434  -16.7648   23.6874 C   0  0  1  0  0  0  0  0  0  0  0  0
    9.5132  -18.1548   23.5496 C   0  0  0  0  0  0  0  0  0  0  0  0
   11.1852  -18.1380   22.8429 S   0  0  0  0  0  0  0  0  0  0  0  0
    9.5390  -16.0136   24.7883 C   0  0  0  0  0  0  0  0  0  0  0  0
   10.6731  -15.4223   24.5904 O   0  0  0  0  0  0  0  0  0  0  0  0
    6.6471  -12.4920   27.0281 C   0  0  0  0  0  0  0  0  0  0  0  0
    7.7916  -13.2785   26.4193 C   0  0  0  0  0  0  0  0  0  0  0  0
    8.5498  -13.9396   27.5263 C   0  0  2  0  0  0  0  0  0  0  0  0
    9.1503  -12.8462   28.3963 C   0  0  0  0  0  0  0  0  0  0  0  0
    9.6165  -14.8868   27.0332 C   0  0  2  0  0  0  0  0  0  0  0  0
    9.0176  -15.8422   26.0770 N   0  0  0  0  0  0  0  0  0  0  0  0
   10.2426  -15.6983   28.0816 C   0  0  0  0  0  0  0  0  0  0  0  0
    9.8689  -16.8780   28.3602 O   0  0  0  0  0  0  0  0  0  0  0  0
   11.2879  -15.1933   28.8152 O   0  0  0  0  0  0  0  0  0  0  0  0
  1  2  1  0
  2  3  1  0
  3  5  1  0
  3  4  1  1
  5  7  1  0
  5  6  1  6
  7  9  1  0
  8  7  2  0
  9 10  1  0
 10 13  1  0
 10 11  1  6
 11 12  1  0
 13 20  1  0
 14 13  2  0
 15 16  1  0
 17 19  1  0
 17 16  1  0
 17 18  1  6
 19 21  1  0
 19 20  1  6
 21 22  2  0
 21 23  1  0
M  END
$$$$
