ICI.pdb
     RDKit          3D

 23 22  0  0  1  0  0  0  0  0999 V2000
    7.8279  -12.0332   18.3021 C   0  0  0  0  0  0  0  0  0  0  0  0
    8.0462  -13.5576   18.2068 C   0  0  0  0  0  0  0  0  0  0  0  0
    7.8487  -14.1283   19.5989 C   0  0  2  0  0  0  0  0  0  0  0  0
    8.8662  -13.4335   20.5268 C   0  0  0  0  0  0  0  0  0  0  0  0
    7.8938  -15.5983   19.7109 C   0  0  2  0  0  0  0  0  0  0  0  0
    6.9078  -16.1277   18.7576 N   0  0  0  0  0  0  0  0  0  0  0  0
    7.7219  -16.1918   21.0379 C   0  0  0  0  0  0  0  0  0  0  0  0
    6.5428  -16.1928   21.5403 O   0  0  0  0  0  0  0  0  0  0  0  0
    8.7390  -16.7639   21.8055 N   0  0  0  0  0  0  0  0  0  0  0  0
    8.6594  -17.2271   23.1897 C   0  0  1  0  0  0  0  0  0  0  0  0
    9.5262  -18.4362   23.4405 C   0  0  0  0  0  0  0  0  0  0  0  0
    9.6560  -18.8257   25.2087 S   0  0  0  0  0  0  0  0  0  0  0  0
    8.9401  -16.1271   24.1074 C   0  0  0  0  0  0  0  0  0  0  0  0
   10.0410  -15.4633   23.9576 O   0  0  0  0  0  0  0  0  0  0  0  0
    6.5454  -11.3753   26.8098 C   0  0  0  0  0  0  0  0  0  0  0  0
    7.7041  -12.3474   26.9165 C   0  0  0  0  0  0  0  0  0  0  0  0
    7.4139  -13.5237   26.0392 C   0  0  2  0  0  0  0  0  0  0  0  0
    6.1217  -14.1602   26.5270 C   0  0  0  0  0  0  0  0  0  0  0  0
    8.5364  -14.5324   26.0071 C   0  0  2  0  0  0  0  0  0  0  0  0
    8.1379  -15.6804   25.1651 N   0  0  0  0  0  0  0  0  0  0  0  0
    8.8914  -15.0907   27.3155 C   0  0  0  0  0  0  0  0  0  0  0  0
    8.5204  -16.2406   27.7016 O   0  0  0  0  0  0  0  0  0  0  0  0
    9.6636  -14.3661   28.1899 O   0  0  0  0  0  0  0  0  0  0  0  0
  1  2  1  0
  2  3  1  0
  3  5  1  0
  3  4  1  1
  5  7  1  0
  5  6  1  6
  7  9  1  0
  8  7  2  0
  9 10  1  0
 10 13  1  0
 10 11  1  6
 11 12  1  0
 13 20  1  0
 14 13  2  0
 15 16  1  0
 17 19  1  0
 17 16  1  0
 17 18  1  1
 19 21  1  0
 19 20  1  6
 21 22  2  0
 21 23  1  0
M  END
$$$$
