ICI.pdb
     RDKit          3D

 23 22  0  0  1  0  0  0  0  0999 V2000
    7.8086  -12.0794   18.2283 C   0  0  0  0  0  0  0  0  0  0  0  0
    8.3205  -13.5346   18.2567 C   0  0  0  0  0  0  0  0  0  0  0  0
    7.8681  -14.1452   19.5702 C   0  0  2  0  0  0  0  0  0  0  0  0
    8.5311  -13.3358   20.7033 C   0  0  0  0  0  0  0  0  0  0  0  0
    8.0760  -15.5980   19.7172 C   0  0  2  0  0  0  0  0  0  0  0  0
    7.3461  -16.2453   18.6173 N   0  0  0  0  0  0  0  0  0  0  0  0
    7.7498  -16.2118   21.0054 C   0  0  0  0  0  0  0  0  0  0  0  0
    6.5139  -16.4335   21.2622 O   0  0  0  0  0  0  0  0  0  0  0  0
    8.6769  -16.5821   21.9822 N   0  0  0  0  0  0  0  0  0  0  0  0
    8.4041  -17.0496   23.3401 C   0  0  1  0  0  0  0  0  0  0  0  0
    8.9426  -18.4369   23.5881 C   0  0  0  0  0  0  0  0  0  0  0  0
    8.8737  -18.8899   25.3446 S   0  0  0  0  0  0  0  0  0  0  0  0
    8.8798  -16.0732   24.3155 C   0  0  0  0  0  0  0  0  0  0  0  0
   10.0896  -15.6272   24.2035 O   0  0  0  0  0  0  0  0  0  0  0  0
    5.9584  -12.1800   27.2001 C   0  0  0  0  0  0  0  0  0  0  0  0
    6.6120  -13.5348   27.0083 C   0  0  0  0  0  0  0  0  0  0  0  0
    7.9611  -13.3243   26.3977 C   0  0  2  0  0  0  0  0  0  0  0  0
    7.7570  -12.7387   25.0090 C   0  0  0  0  0  0  0  0  0  0  0  0
    8.7897  -14.5845   26.3381 C   0  0  2  0  0  0  0  0  0  0  0  0
    8.1655  -15.5355   25.3938 N   0  0  0  0  0  0  0  0  0  0  0  0
    8.9084  -15.2965   27.6143 C   0  0  0  0  0  0  0  0  0  0  0  0
    8.3737  -16.4265   27.8294 O   0  0  0  0  0  0  0  0  0  0  0  0
    9.6273  -14.7479   28.6478 O   0  0  0  0  0  0  0  0  0  0  0  0
  1  2  1  0
  2  3  1  0
  3  5  1  0
  3  4  1  1
  5  7  1  0
  5  6  1  6
  7  9  1  0
  8  7  2  0
  9 10  1  0
 10 13  1  0
 10 11  1  1
 11 12  1  0
 13 20  1  0
 14 13  2  0
 15 16  1  0
 17 19  1  0
 17 16  1  0
 17 18  1  6
 19 21  1  0
 19 20  1  6
 21 22  2  0
 21 23  1  0
M  END
$$$$
