ICI.pdb
     RDKit          3D

 23 22  0  0  1  0  0  0  0  0999 V2000
    7.6394  -12.2957   18.8311 C   0  0  0  0  0  0  0  0  0  0  0  0
    7.8480  -13.8234   18.8882 C   0  0  0  0  0  0  0  0  0  0  0  0
    7.3511  -14.2950   20.2422 C   0  0  2  0  0  0  0  0  0  0  0  0
    8.1837  -13.5640   21.3151 C   0  0  0  0  0  0  0  0  0  0  0  0
    7.3185  -15.7549   20.4500 C   0  0  2  0  0  0  0  0  0  0  0  0
    6.5221  -16.3228   19.3523 N   0  0  0  0  0  0  0  0  0  0  0  0
    6.8650  -16.2540   21.7491 C   0  0  0  0  0  0  0  0  0  0  0  0
    5.6505  -16.0194   22.0850 O   0  0  0  0  0  0  0  0  0  0  0  0
    7.6468  -16.9718   22.6571 N   0  0  0  0  0  0  0  0  0  0  0  0
    7.3509  -17.2559   24.0602 C   0  0  1  0  0  0  0  0  0  0  0  0
    7.4597  -18.7256   24.3830 C   0  0  0  0  0  0  0  0  0  0  0  0
    7.2907  -19.0462   26.1617 S   0  0  0  0  0  0  0  0  0  0  0  0
    8.1752  -16.4213   24.9292 C   0  0  0  0  0  0  0  0  0  0  0  0
    9.4352  -16.3031   24.6582 O   0  0  0  0  0  0  0  0  0  0  0  0
    6.5362  -11.7245   26.6327 C   0  0  0  0  0  0  0  0  0  0  0  0
    7.5205  -12.7508   26.1063 C   0  0  0  0  0  0  0  0  0  0  0  0
    7.9825  -13.5917   27.2538 C   0  0  2  0  0  0  0  0  0  0  0  0
    8.8793  -12.7308   28.1299 C   0  0  0  0  0  0  0  0  0  0  0  0
    8.6949  -14.8496   26.8198 C   0  0  2  0  0  0  0  0  0  0  0  0
    7.7590  -15.7031   26.0574 N   0  0  0  0  0  0  0  0  0  0  0  0
    9.1956  -15.6772   27.9217 C   0  0  0  0  0  0  0  0  0  0  0  0
   10.2974  -15.4548   28.5096 O   0  0  0  0  0  0  0  0  0  0  0  0
    8.4638  -16.7499   28.3685 O   0  0  0  0  0  0  0  0  0  0  0  0
  1  2  1  0
  2  3  1  0
  3  5  1  0
  3  4  1  1
  5  7  1  0
  5  6  1  6
  7  9  1  0
  8  7  2  0
  9 10  1  0
 10 13  1  0
 10 11  1  1
 11 12  1  0
 13 20  1  0
 14 13  2  0
 15 16  1  0
 17 19  1  0
 17 16  1  0
 17 18  1  1
 19 21  1  0
 19 20  1  1
 21 22  2  0
 21 23  1  0
M  END
$$$$
