ICI.pdb
     RDKit          3D

 23 22  0  0  1  0  0  0  0  0999 V2000
    7.5613  -12.0840   20.2638 C   0  0  0  0  0  0  0  0  0  0  0  0
    7.2301  -13.5824   20.4228 C   0  0  0  0  0  0  0  0  0  0  0  0
    8.4377  -14.3640   19.9394 C   0  0  2  0  0  0  0  0  0  0  0  0
    8.6589  -13.9943   18.4584 C   0  0  0  0  0  0  0  0  0  0  0  0
    8.3980  -15.8221   20.1579 C   0  0  2  0  0  0  0  0  0  0  0  0
    7.3543  -16.3566   19.2710 N   0  0  0  0  0  0  0  0  0  0  0  0
    8.2301  -16.3070   21.5288 C   0  0  0  0  0  0  0  0  0  0  0  0
    7.0366  -16.5338   21.9371 O   0  0  0  0  0  0  0  0  0  0  0  0
    9.2666  -16.5486   22.4334 N   0  0  0  0  0  0  0  0  0  0  0  0
    9.1598  -17.0732   23.7936 C   0  0  1  0  0  0  0  0  0  0  0  0
    9.8916  -18.3816   23.9627 C   0  0  0  0  0  0  0  0  0  0  0  0
    9.1557  -19.7071   22.9644 S   0  0  0  0  0  0  0  0  0  0  0  0
    9.5763  -16.0608   24.7594 C   0  0  0  0  0  0  0  0  0  0  0  0
   10.7045  -15.4552   24.5718 O   0  0  0  0  0  0  0  0  0  0  0  0
    6.5695  -12.1639   26.7407 C   0  0  0  0  0  0  0  0  0  0  0  0
    7.7250  -12.9675   26.1766 C   0  0  0  0  0  0  0  0  0  0  0  0
    8.3722  -13.7137   27.2998 C   0  0  2  0  0  0  0  0  0  0  0  0
    8.9181  -12.6908   28.2841 C   0  0  0  0  0  0  0  0  0  0  0  0
    9.4577  -14.6561   26.8398 C   0  0  2  0  0  0  0  0  0  0  0  0
    8.8822  -15.6441   25.9025 N   0  0  0  0  0  0  0  0  0  0  0  0
   10.0867  -15.4315   27.9135 C   0  0  0  0  0  0  0  0  0  0  0  0
   11.0361  -14.9844   28.6259 O   0  0  0  0  0  0  0  0  0  0  0  0
    9.6523  -16.7039   28.1932 O   0  0  0  0  0  0  0  0  0  0  0  0
  1  2  1  0
  2  3  1  0
  3  5  1  0
  3  4  1  6
  5  7  1  0
  5  6  1  6
  7  9  1  0
  8  7  2  0
  9 10  1  0
 10 13  1  0
 10 11  1  6
 11 12  1  0
 13 20  1  0
 14 13  2  0
 15 16  1  0
 17 19  1  0
 17 16  1  0
 17 18  1  1
 19 21  1  0
 19 20  1  6
 21 22  2  0
 21 23  1  0
M  END
$$$$
