ICI.pdb
     RDKit          3D

 23 22  0  0  1  0  0  0  0  0999 V2000
    7.7763  -11.9877   19.1025 C   0  0  0  0  0  0  0  0  0  0  0  0
    8.4948  -13.3458   18.9616 C   0  0  0  0  0  0  0  0  0  0  0  0
    8.2022  -14.1423   20.2196 C   0  0  2  0  0  0  0  0  0  0  0  0
    8.7825  -13.3493   21.4084 C   0  0  0  0  0  0  0  0  0  0  0  0
    8.6389  -15.5511   20.2130 C   0  0  2  0  0  0  0  0  0  0  0  0
    7.9580  -16.2019   19.0842 N   0  0  0  0  0  0  0  0  0  0  0  0
    8.4822  -16.3247   21.4457 C   0  0  0  0  0  0  0  0  0  0  0  0
    7.3835  -16.9637   21.6108 O   0  0  0  0  0  0  0  0  0  0  0  0
    9.4355  -16.4293   22.4611 N   0  0  0  0  0  0  0  0  0  0  0  0
    9.3310  -17.1830   23.7093 C   0  0  1  0  0  0  0  0  0  0  0  0
    9.8613  -18.5891   23.5762 C   0  0  0  0  0  0  0  0  0  0  0  0
   11.6092  -18.6139   23.0869 S   0  0  0  0  0  0  0  0  0  0  0  0
    9.9556  -16.4417   24.8008 C   0  0  0  0  0  0  0  0  0  0  0  0
   11.0460  -15.7879   24.5589 O   0  0  0  0  0  0  0  0  0  0  0  0
    7.5991  -12.7291   27.3470 C   0  0  0  0  0  0  0  0  0  0  0  0
    8.6139  -13.6237   26.6622 C   0  0  0  0  0  0  0  0  0  0  0  0
    9.2438  -14.4999   27.6980 C   0  0  2  0  0  0  0  0  0  0  0  0
    9.9347  -13.5998   28.7107 C   0  0  0  0  0  0  0  0  0  0  0  0
   10.2094  -15.5051   27.1189 C   0  0  2  0  0  0  0  0  0  0  0  0
    9.5056  -16.3414   26.1234 N   0  0  0  0  0  0  0  0  0  0  0  0
   10.7828  -16.4334   28.0983 C   0  0  0  0  0  0  0  0  0  0  0  0
   10.2380  -17.5358   28.4092 O   0  0  0  0  0  0  0  0  0  0  0  0
   11.9660  -16.1316   28.7267 O   0  0  0  0  0  0  0  0  0  0  0  0
  1  2  1  0
  2  3  1  0
  3  5  1  0
  3  4  1  1
  5  7  1  0
  5  6  1  6
  7  9  1  0
  8  7  2  0
  9 10  1  0
 10 13  1  0
 10 11  1  6
 11 12  1  0
 13 20  1  0
 14 13  2  0
 15 16  1  0
 17 19  1  0
 17 16  1  0
 17 18  1  1
 19 21  1  0
 19 20  1  6
 21 22  2  0
 21 23  1  0
M  END
$$$$
