ICI.pdb
     RDKit          3D

 23 22  0  0  1  0  0  0  0  0999 V2000
    7.3675  -12.1346   18.8534 C   0  0  0  0  0  0  0  0  0  0  0  0
    7.7363  -13.6325   18.8266 C   0  0  0  0  0  0  0  0  0  0  0  0
    7.7574  -14.1166   20.2646 C   0  0  2  0  0  0  0  0  0  0  0  0
    8.7638  -13.2332   21.0299 C   0  0  0  0  0  0  0  0  0  0  0  0
    8.0060  -15.5570   20.4617 C   0  0  2  0  0  0  0  0  0  0  0  0
    7.0217  -16.2747   19.6387 N   0  0  0  0  0  0  0  0  0  0  0  0
    8.0268  -16.0692   21.8328 C   0  0  0  0  0  0  0  0  0  0  0  0
    6.9120  -16.1281   22.4623 O   0  0  0  0  0  0  0  0  0  0  0  0
    9.1646  -16.5054   22.5156 N   0  0  0  0  0  0  0  0  0  0  0  0
    9.2370  -17.0609   23.8658 C   0  0  1  0  0  0  0  0  0  0  0  0
   10.1794  -18.2359   23.9526 C   0  0  0  0  0  0  0  0  0  0  0  0
    9.7346  -19.5530   22.7853 S   0  0  0  0  0  0  0  0  0  0  0  0
    9.5506  -16.0093   24.8284 C   0  0  0  0  0  0  0  0  0  0  0  0
   10.5833  -15.2603   24.6106 O   0  0  0  0  0  0  0  0  0  0  0  0
    6.3768  -12.2942   26.6553 C   0  0  0  0  0  0  0  0  0  0  0  0
    7.5901  -13.0610   26.1664 C   0  0  0  0  0  0  0  0  0  0  0  0
    8.2078  -13.7601   27.3357 C   0  0  2  0  0  0  0  0  0  0  0  0
    8.6741  -12.6980   28.3193 C   0  0  0  0  0  0  0  0  0  0  0  0
    9.3432  -14.6761   26.9485 C   0  0  2  0  0  0  0  0  0  0  0  0
    8.8474  -15.6943   25.9982 N   0  0  0  0  0  0  0  0  0  0  0  0
    9.9367  -15.4167   28.0661 C   0  0  0  0  0  0  0  0  0  0  0  0
   10.7101  -14.8827   28.9179 O   0  0  0  0  0  0  0  0  0  0  0  0
    9.6628  -16.7519   28.2338 O   0  0  0  0  0  0  0  0  0  0  0  0
  1  2  1  0
  2  3  1  0
  3  5  1  0
  3  4  1  1
  5  7  1  0
  5  6  1  6
  7  9  1  0
  8  7  2  0
  9 10  1  0
 10 13  1  0
 10 11  1  6
 11 12  1  0
 13 20  1  0
 14 13  2  0
 15 16  1  0
 17 19  1  0
 17 16  1  0
 17 18  1  1
 19 21  1  0
 19 20  1  6
 21 22  2  0
 21 23  1  0
M  END
$$$$
