ICI.pdb
     RDKit          3D

 23 22  0  0  1  0  0  0  0  0999 V2000
    8.2802  -12.1568   18.1014 C   0  0  0  0  0  0  0  0  0  0  0  0
    8.6881  -13.6412   18.2057 C   0  0  0  0  0  0  0  0  0  0  0  0
    7.9329  -14.2338   19.3809 C   0  0  2  0  0  0  0  0  0  0  0  0
    8.3351  -13.4310   20.6349 C   0  0  0  0  0  0  0  0  0  0  0  0
    8.0701  -15.6896   19.5739 C   0  0  2  0  0  0  0  0  0  0  0  0
    7.5625  -16.3302   18.3518 N   0  0  0  0  0  0  0  0  0  0  0  0
    7.4740  -16.2830   20.7719 C   0  0  0  0  0  0  0  0  0  0  0  0
    6.4568  -17.0465   20.6138 O   0  0  0  0  0  0  0  0  0  0  0  0
    7.9248  -16.0897   22.0797 N   0  0  0  0  0  0  0  0  0  0  0  0
    7.4027  -16.6968   23.3027 C   0  0  1  0  0  0  0  0  0  0  0  0
    7.3827  -18.2036   23.2316 C   0  0  0  0  0  0  0  0  0  0  0  0
    7.0050  -18.9560   24.8398 S   0  0  0  0  0  0  0  0  0  0  0  0
    8.1269  -16.1928   24.4657 C   0  0  0  0  0  0  0  0  0  0  0  0
    9.4206  -16.2221   24.4481 O   0  0  0  0  0  0  0  0  0  0  0  0
    5.9090  -11.8909   26.7254 C   0  0  0  0  0  0  0  0  0  0  0  0
    6.8543  -12.8652   26.0499 C   0  0  0  0  0  0  0  0  0  0  0  0
    7.4886  -13.7143   27.1054 C   0  0  2  0  0  0  0  0  0  0  0  0
    8.2716  -12.7969   28.0319 C   0  0  0  0  0  0  0  0  0  0  0  0
    8.3735  -14.7998   26.5426 C   0  0  2  0  0  0  0  0  0  0  0  0
    7.5789  -15.6586   25.6389 N   0  0  0  0  0  0  0  0  0  0  0  0
    8.9546  -15.6946   27.5484 C   0  0  0  0  0  0  0  0  0  0  0  0
    8.3736  -16.7444   27.9597 O   0  0  0  0  0  0  0  0  0  0  0  0
   10.1855  -15.4184   28.0909 O   0  0  0  0  0  0  0  0  0  0  0  0
  1  2  1  0
  2  3  1  0
  3  5  1  0
  3  4  1  1
  5  7  1  0
  5  6  1  6
  7  9  1  0
  8  7  2  0
  9 10  1  0
 10 13  1  0
 10 11  1  6
 11 12  1  0
 13 20  1  0
 14 13  2  0
 15 16  1  0
 17 19  1  0
 17 16  1  0
 17 18  1  1
 19 21  1  0
 19 20  1  6
 21 22  2  0
 21 23  1  0
M  END
$$$$
