ICI.pdb
     RDKit          3D

 23 22  0  0  1  0  0  0  0  0999 V2000
    9.1680  -12.2439   19.3041 C   0  0  0  0  0  0  0  0  0  0  0  0
    7.7631  -12.8664   19.1654 C   0  0  0  0  0  0  0  0  0  0  0  0
    7.5655  -13.7988   20.3462 C   0  0  2  0  0  0  0  0  0  0  0  0
    7.7914  -12.9694   21.6268 C   0  0  0  0  0  0  0  0  0  0  0  0
    8.3579  -15.0427   20.3315 C   0  0  2  0  0  0  0  0  0  0  0  0
    8.0565  -15.7238   19.0639 N   0  0  0  0  0  0  0  0  0  0  0  0
    8.2264  -15.9545   21.4691 C   0  0  0  0  0  0  0  0  0  0  0  0
    7.1012  -16.5470   21.6288 O   0  0  0  0  0  0  0  0  0  0  0  0
    9.2301  -16.2381   22.3980 N   0  0  0  0  0  0  0  0  0  0  0  0
    9.1172  -17.0337   23.6191 C   0  0  1  0  0  0  0  0  0  0  0  0
    9.5386  -18.4672   23.4106 C   0  0  0  0  0  0  0  0  0  0  0  0
   11.1134  -18.5904   22.5161 S   0  0  0  0  0  0  0  0  0  0  0  0
    9.8337  -16.3847   24.7129 C   0  0  0  0  0  0  0  0  0  0  0  0
   10.9840  -15.8461   24.4642 O   0  0  0  0  0  0  0  0  0  0  0  0
    7.8674  -12.5023   27.3141 C   0  0  0  0  0  0  0  0  0  0  0  0
    8.8016  -13.4703   26.6145 C   0  0  0  0  0  0  0  0  0  0  0  0
    9.3480  -14.4177   27.6349 C   0  0  2  0  0  0  0  0  0  0  0  0
   10.1283  -13.6033   28.6551 C   0  0  0  0  0  0  0  0  0  0  0  0
   10.2080  -15.5044   27.0367 C   0  0  2  0  0  0  0  0  0  0  0  0
    9.4170  -16.2631   26.0446 N   0  0  0  0  0  0  0  0  0  0  0  0
   10.7037  -16.4900   28.0024 C   0  0  0  0  0  0  0  0  0  0  0  0
   10.0782  -17.5562   28.2867 O   0  0  0  0  0  0  0  0  0  0  0  0
   11.8991  -16.2860   28.6468 O   0  0  0  0  0  0  0  0  0  0  0  0
  1  2  1  0
  2  3  1  0
  3  5  1  0
  3  4  1  1
  5  7  1  0
  5  6  1  6
  7  9  1  0
  8  7  2  0
  9 10  1  0
 10 13  1  0
 10 11  1  6
 11 12  1  0
 13 20  1  0
 14 13  2  0
 15 16  1  0
 17 19  1  0
 17 16  1  0
 17 18  1  1
 19 21  1  0
 19 20  1  6
 21 22  2  0
 21 23  1  0
M  END
$$$$
