ICI.pdb
     RDKit          3D

 23 22  0  0  1  0  0  0  0  0999 V2000
    5.8513  -11.5571   26.6728 C   0  0  0  0  0  0  0  0  0  0  0  0
    5.4797  -12.7354   25.7487 C   0  0  0  0  0  0  0  0  0  0  0  0
    6.7366  -13.5606   25.5442 C   0  0  2  0  0  0  0  0  0  0  0  0
    7.8122  -12.6198   24.9638 C   0  0  0  0  0  0  0  0  0  0  0  0
    6.5811  -14.7965   24.7543 C   0  0  2  0  0  0  0  0  0  0  0  0
    5.4710  -15.5491   25.3565 N   0  0  0  0  0  0  0  0  0  0  0  0
    7.7590  -15.6452   24.5675 C   0  0  0  0  0  0  0  0  0  0  0  0
    8.1071  -16.4016   25.5418 O   0  0  0  0  0  0  0  0  0  0  0  0
    8.5377  -15.7038   23.4094 N   0  0  0  0  0  0  0  0  0  0  0  0
    9.7750  -16.4543   23.2029 C   0  0  1  0  0  0  0  0  0  0  0  0
   10.3966  -16.1761   21.8567 C   0  0  0  0  0  0  0  0  0  0  0  0
    9.3023  -16.6549   20.4897 S   0  0  0  0  0  0  0  0  0  0  0  0
   10.6961  -16.2246   24.3118 C   0  0  0  0  0  0  0  0  0  0  0  0
   11.6114  -15.3195   24.1773 O   0  0  0  0  0  0  0  0  0  0  0  0
   11.4490  -13.4414   28.8861 C   0  0  0  0  0  0  0  0  0  0  0  0
   11.8695  -14.8559   28.5375 C   0  0  0  0  0  0  0  0  0  0  0  0
   11.0088  -15.3394   27.4138 C   0  0  2  0  0  0  0  0  0  0  0  0
    9.6689  -15.7562   28.0002 C   0  0  0  0  0  0  0  0  0  0  0  0
   11.6327  -16.4691   26.6309 C   0  0  2  0  0  0  0  0  0  0  0  0
   10.7127  -16.8807   25.5493 N   0  0  0  0  0  0  0  0  0  0  0  0
   11.9045  -17.6771   27.4161 C   0  0  0  0  0  0  0  0  0  0  0  0
   12.7751  -17.7229   28.3375 O   0  0  0  0  0  0  0  0  0  0  0  0
   11.2014  -18.8317   27.1744 O   0  0  0  0  0  0  0  0  0  0  0  0
  1  2  1  0
  2  3  1  0
  3  5  1  0
  3  4  1  6
  5  7  1  0
  5  6  1  1
  7  9  1  0
  8  7  2  0
  9 10  1  0
 10 13  1  0
 10 11  1  6
 11 12  1  0
 13 20  1  0
 14 13  2  0
 15 16  1  0
 17 19  1  0
 17 16  1  0
 17 18  1  1
 19 21  1  0
 19 20  1  6
 21 22  2  0
 21 23  1  0
M  END
$$$$
