ICI.pdb
     RDKit          3D

 23 22  0  0  1  0  0  0  0  0999 V2000
    7.7454  -12.5017   18.4341 C   0  0  0  0  0  0  0  0  0  0  0  0
    7.9197  -14.0289   18.5680 C   0  0  0  0  0  0  0  0  0  0  0  0
    7.3916  -14.4240   19.9346 C   0  0  2  0  0  0  0  0  0  0  0  0
    8.2494  -13.6908   20.9860 C   0  0  0  0  0  0  0  0  0  0  0  0
    7.2898  -15.8716   20.1982 C   0  0  2  0  0  0  0  0  0  0  0  0
    6.4537  -16.4403   19.1310 N   0  0  0  0  0  0  0  0  0  0  0  0
    6.8277  -16.2984   21.5199 C   0  0  0  0  0  0  0  0  0  0  0  0
    5.5784  -16.1785   21.7801 O   0  0  0  0  0  0  0  0  0  0  0  0
    7.6366  -16.8319   22.5258 N   0  0  0  0  0  0  0  0  0  0  0  0
    7.2934  -17.0384   23.9317 C   0  0  1  0  0  0  0  0  0  0  0  0
    7.3929  -18.4875   24.3394 C   0  0  0  0  0  0  0  0  0  0  0  0
    9.0492  -19.1670   24.0391 S   0  0  0  0  0  0  0  0  0  0  0  0
    8.0865  -16.1542   24.7803 C   0  0  0  0  0  0  0  0  0  0  0  0
    9.2495  -15.7733   24.3592 O   0  0  0  0  0  0  0  0  0  0  0  0
    6.0626  -11.9327   27.2710 C   0  0  0  0  0  0  0  0  0  0  0  0
    6.9907  -12.8333   26.4793 C   0  0  0  0  0  0  0  0  0  0  0  0
    7.7849  -13.6555   27.4440 C   0  0  2  0  0  0  0  0  0  0  0  0
    8.6554  -12.7086   28.2556 C   0  0  0  0  0  0  0  0  0  0  0  0
    8.6203  -14.7180   26.7722 C   0  0  2  0  0  0  0  0  0  0  0  0
    7.7335  -15.6441   26.0362 N   0  0  0  0  0  0  0  0  0  0  0  0
    9.4038  -15.5489   27.6918 C   0  0  0  0  0  0  0  0  0  0  0  0
   10.4479  -15.1345   28.2809 O   0  0  0  0  0  0  0  0  0  0  0  0
    9.0185  -16.8403   27.9556 O   0  0  0  0  0  0  0  0  0  0  0  0
  1  2  1  0
  2  3  1  0
  3  5  1  0
  3  4  1  1
  5  7  1  0
  5  6  1  6
  7  9  1  0
  8  7  2  0
  9 10  1  0
 10 13  1  0
 10 11  1  1
 11 12  1  0
 13 20  1  0
 14 13  2  0
 15 16  1  0
 17 19  1  0
 17 16  1  0
 17 18  1  6
 19 21  1  0
 19 20  1  1
 21 22  2  0
 21 23  1  0
M  END
$$$$
