LLN.pdb
     RDKit          3D

 25 24  0  0  1  0  0  0  0  0999 V2000
    8.6633  -14.8977   18.1937 C   0  0  0  0  0  0  0  0  0  0  0  0
    7.7526  -14.0118   19.0099 C   0  0  2  0  0  0  0  0  0  0  0  0
    7.3100  -12.8511   18.1395 C   0  0  0  0  0  0  0  0  0  0  0  0
    8.4366  -13.5409   20.2636 C   0  0  0  0  0  0  0  0  0  0  0  0
    8.6052  -14.7596   21.1687 C   0  0  2  0  0  0  0  0  0  0  0  0
    7.4428  -15.5774   21.0625 N   0  0  0  0  0  0  0  0  0  0  0  0
    8.8993  -14.3219   22.5704 C   0  0  0  0  0  0  0  0  0  0  0  0
    9.9934  -13.7323   22.7527 O   0  0  0  0  0  0  0  0  0  0  0  0
    5.4503  -12.5182   27.0974 C   0  0  0  0  0  0  0  0  0  0  0  0
    6.9075  -12.8991   26.7829 C   0  0  2  0  0  0  0  0  0  0  0  0
    7.7572  -11.7142   27.0338 C   0  0  0  0  0  0  0  0  0  0  0  0
    6.9741  -13.4791   25.4333 C   0  0  0  0  0  0  0  0  0  0  0  0
    8.1978  -14.1656   24.9904 C   0  0  2  0  0  0  0  0  0  0  0  0
    7.9617  -14.5837   23.5947 N   0  0  0  0  0  0  0  0  0  0  0  0
    8.5857  -15.3917   25.7224 C   0  0  0  0  0  0  0  0  0  0  0  0
    8.8944  -15.3733   26.9755 O   0  0  0  0  0  0  0  0  0  0  0  0
    6.3566  -18.8566   23.8828 N   0  0  0  0  0  0  0  0  0  0  0  0
    6.8857  -18.7485   25.2066 C   0  0  0  0  0  0  0  0  0  0  0  0
    6.0971  -18.3479   26.1205 O   0  0  0  0  0  0  0  0  0  0  0  0
    8.2897  -19.0897   25.5077 C   0  0  0  0  0  0  0  0  0  0  0  0
    9.0836  -17.8497   25.9381 C   0  0  2  0  0  0  0  0  0  0  0  0
    8.6616  -16.6959   25.1552 N   0  0  0  0  0  0  0  0  0  0  0  0
   10.5194  -18.1099   25.7888 C   0  0  0  0  0  0  0  0  0  0  0  0
   11.3523  -17.3735   24.9247 O   0  0  0  0  0  0  0  0  0  0  0  0
   11.0562  -19.0260   26.4505 O   0  0  0  0  0  0  0  0  0  0  0  0
  2  1  1  6
  2  3  1  0
  4  2  1  0
  4  5  1  0
  5  7  1  0
  5  6  1  1
  7  8  2  0
 10  9  1  6
 10 12  1  0
 11 10  1  0
 13 12  1  1
 14 13  1  0
 14  7  1  0
 15 16  2  0
 15 13  1  0
 17 18  1  0
 18 19  2  0
 18 20  1  0
 21 20  1  6
 21 23  1  0
 21 22  1  0
 22 15  1  0
 23 24  1  0
 25 23  2  0
M  END
$$$$
