LLN.pdb
     RDKit          3D

 25 24  0  0  1  0  0  0  0  0999 V2000
    8.4989  -14.5762   18.3433 C   0  0  0  0  0  0  0  0  0  0  0  0
    7.7521  -13.6471   19.2704 C   0  0  2  0  0  0  0  0  0  0  0  0
    7.4282  -12.3744   18.5114 C   0  0  0  0  0  0  0  0  0  0  0  0
    8.5493  -13.3679   20.5145 C   0  0  0  0  0  0  0  0  0  0  0  0
    8.6499  -14.6811   21.2881 C   0  0  2  0  0  0  0  0  0  0  0  0
    7.4330  -15.4054   21.1276 N   0  0  0  0  0  0  0  0  0  0  0  0
    8.9966  -14.4090   22.7193 C   0  0  0  0  0  0  0  0  0  0  0  0
   10.1111  -13.8691   22.9305 O   0  0  0  0  0  0  0  0  0  0  0  0
    5.7304  -12.6936   27.3318 C   0  0  0  0  0  0  0  0  0  0  0  0
    7.1630  -13.0014   26.8624 C   0  0  2  0  0  0  0  0  0  0  0  0
    7.8595  -11.7156   26.6371 C   0  0  0  0  0  0  0  0  0  0  0  0
    7.1084  -13.9258   25.7202 C   0  0  0  0  0  0  0  0  0  0  0  0
    8.3542  -14.4725   25.1600 C   0  0  2  0  0  0  0  0  0  0  0  0
    8.0828  -14.7611   23.7381 N   0  0  0  0  0  0  0  0  0  0  0  0
    8.8581  -15.7360   25.7425 C   0  0  0  0  0  0  0  0  0  0  0  0
    8.8707  -15.9468   27.0159 O   0  0  0  0  0  0  0  0  0  0  0  0
   10.9504  -19.2768   22.8304 N   0  0  0  0  0  0  0  0  0  0  0  0
    9.6556  -19.0985   23.4101 C   0  0  0  0  0  0  0  0  0  0  0  0
    8.7041  -18.7796   22.6288 O   0  0  0  0  0  0  0  0  0  0  0  0
    9.4254  -19.2791   24.8567 C   0  0  0  0  0  0  0  0  0  0  0  0
    9.8650  -18.0411   25.6488 C   0  0  2  0  0  0  0  0  0  0  0  0
    9.3711  -16.8356   24.9968 N   0  0  0  0  0  0  0  0  0  0  0  0
   11.3267  -18.0305   25.7715 C   0  0  0  0  0  0  0  0  0  0  0  0
   12.1361  -16.9906   25.2754 O   0  0  0  0  0  0  0  0  0  0  0  0
   11.9086  -18.9804   26.3409 O   0  0  0  0  0  0  0  0  0  0  0  0
  2  1  1  6
  2  3  1  0
  4  2  1  0
  4  5  1  0
  5  7  1  0
  5  6  1  1
  7  8  2  0
 10  9  1  6
 10 12  1  0
 11 10  1  0
 13 12  1  1
 14 13  1  0
 14  7  1  0
 15 16  2  0
 15 13  1  0
 17 18  1  0
 18 19  2  0
 18 20  1  0
 21 20  1  6
 21 23  1  0
 21 22  1  0
 22 15  1  0
 23 24  1  0
 25 23  2  0
M  END
$$$$
