LLN.pdb
     RDKit          3D

 25 24  0  0  1  0  0  0  0  0999 V2000
    9.4167  -14.5942   29.1345 C   0  0  0  0  0  0  0  0  0  0  0  0
   10.4785  -15.6492   28.9342 C   0  0  2  0  0  0  0  0  0  0  0  0
   11.8359  -14.9732   28.9710 C   0  0  0  0  0  0  0  0  0  0  0  0
   10.2619  -16.3979   27.6482 C   0  0  0  0  0  0  0  0  0  0  0  0
    8.8285  -16.9248   27.6706 C   0  0  2  0  0  0  0  0  0  0  0  0
    8.8557  -18.3242   27.9389 N   0  0  0  0  0  0  0  0  0  0  0  0
    8.1332  -16.5772   26.3906 C   0  0  0  0  0  0  0  0  0  0  0  0
    7.6696  -17.5389   25.7286 O   0  0  0  0  0  0  0  0  0  0  0  0
    5.4360  -13.1261   26.5692 C   0  0  0  0  0  0  0  0  0  0  0  0
    6.8740  -12.8120   26.1208 C   0  0  2  0  0  0  0  0  0  0  0  0
    7.0810  -11.3510   26.2292 C   0  0  0  0  0  0  0  0  0  0  0  0
    7.1087  -13.4106   24.7984 C   0  0  0  0  0  0  0  0  0  0  0  0
    7.4624  -14.8349   24.6913 C   0  0  2  0  0  0  0  0  0  0  0  0
    8.0326  -15.2240   25.9960 N   0  0  0  0  0  0  0  0  0  0  0  0
    8.4760  -15.2036   23.6782 C   0  0  0  0  0  0  0  0  0  0  0  0
    8.2001  -15.2510   22.4182 O   0  0  0  0  0  0  0  0  0  0  0  0
   14.2465  -16.8090   22.5747 N   0  0  0  0  0  0  0  0  0  0  0  0
   13.1149  -16.0204   22.1986 C   0  0  0  0  0  0  0  0  0  0  0  0
   12.9590  -15.7745   20.9605 O   0  0  0  0  0  0  0  0  0  0  0  0
   12.1599  -15.5114   23.2023 C   0  0  0  0  0  0  0  0  0  0  0  0
   10.7367  -16.0084   22.9183 C   0  0  2  0  0  0  0  0  0  0  0  0
    9.8317  -15.5378   23.9584 N   0  0  0  0  0  0  0  0  0  0  0  0
   10.7379  -17.4721   22.8228 C   0  0  0  0  0  0  0  0  0  0  0  0
   10.2774  -18.3140   23.8533 O   0  0  0  0  0  0  0  0  0  0  0  0
   11.1639  -18.0260   21.7850 O   0  0  0  0  0  0  0  0  0  0  0  0
  2  1  1  6
  2  3  1  0
  4  2  1  0
  4  5  1  0
  5  7  1  0
  5  6  1  6
  7  8  2  0
 10  9  1  6
 10 12  1  0
 11 10  1  0
 13 12  1  1
 14 13  1  0
 14  7  1  0
 15 16  2  0
 15 13  1  0
 17 18  1  0
 18 19  2  0
 18 20  1  0
 21 20  1  1
 21 23  1  0
 21 22  1  0
 22 15  1  0
 23 24  1  0
 25 23  2  0
M  END
$$$$
