LLN.pdb
     RDKit          3D

 25 24  0  0  1  0  0  0  0  0999 V2000
    4.8672  -16.4313   20.7681 C   0  0  0  0  0  0  0  0  0  0  0  0
    5.8837  -17.4727   21.1716 C   0  0  2  0  0  0  0  0  0  0  0  0
    5.1483  -18.7627   21.4810 C   0  0  0  0  0  0  0  0  0  0  0  0
    6.7046  -17.0033   22.3409 C   0  0  0  0  0  0  0  0  0  0  0  0
    7.5740  -15.8493   21.8456 C   0  0  2  0  0  0  0  0  0  0  0  0
    8.2365  -16.2513   20.6495 N   0  0  0  0  0  0  0  0  0  0  0  0
    8.5121  -15.4116   22.9277 C   0  0  0  0  0  0  0  0  0  0  0  0
    9.6743  -15.8863   22.8842 O   0  0  0  0  0  0  0  0  0  0  0  0
    5.9819  -12.5680   25.0894 C   0  0  0  0  0  0  0  0  0  0  0  0
    7.0653  -12.7718   26.1629 C   0  0  2  0  0  0  0  0  0  0  0  0
    6.8693  -11.7493   27.2143 C   0  0  0  0  0  0  0  0  0  0  0  0
    8.3856  -12.8019   25.5163 C   0  0  0  0  0  0  0  0  0  0  0  0
    8.9338  -14.0774   25.0290 C   0  0  2  0  0  0  0  0  0  0  0  0
    8.0621  -14.5114   23.9198 N   0  0  0  0  0  0  0  0  0  0  0  0
    8.9675  -15.2061   25.9854 C   0  0  0  0  0  0  0  0  0  0  0  0
    9.5827  -15.1273   27.1174 O   0  0  0  0  0  0  0  0  0  0  0  0
    8.3386  -19.6805   28.5611 N   0  0  0  0  0  0  0  0  0  0  0  0
    7.5429  -19.7765   27.3771 C   0  0  0  0  0  0  0  0  0  0  0  0
    6.9103  -20.8628   27.1842 O   0  0  0  0  0  0  0  0  0  0  0  0
    7.4527  -18.6613   26.4145 C   0  0  0  0  0  0  0  0  0  0  0  0
    8.4301  -17.5351   26.7746 C   0  0  2  0  0  0  0  0  0  0  0  0
    8.3466  -16.4716   25.7825 N   0  0  0  0  0  0  0  0  0  0  0  0
    9.7892  -18.0778   26.8740 C   0  0  0  0  0  0  0  0  0  0  0  0
   10.7250  -18.0148   25.8236 O   0  0  0  0  0  0  0  0  0  0  0  0
   10.1614  -18.6293   27.9335 O   0  0  0  0  0  0  0  0  0  0  0  0
  2  1  1  1
  2  3  1  0
  4  2  1  0
  4  5  1  0
  5  7  1  0
  5  6  1  6
  7  8  2  0
 10  9  1  6
 10 12  1  0
 11 10  1  0
 13 12  1  1
 14 13  1  0
 14  7  1  0
 15 16  2  0
 15 13  1  0
 17 18  1  0
 18 19  2  0
 18 20  1  0
 21 20  1  6
 21 23  1  0
 21 22  1  0
 22 15  1  0
 23 24  1  0
 25 23  2  0
M  END
$$$$
