LLN.pdb
     RDKit          3D

 25 24  0  0  1  0  0  0  0  0999 V2000
    8.6023  -12.7449   18.3307 C   0  0  0  0  0  0  0  0  0  0  0  0
    7.9245  -13.6078   19.3683 C   0  0  2  0  0  0  0  0  0  0  0  0
    6.4647  -13.2033   19.4457 C   0  0  0  0  0  0  0  0  0  0  0  0
    8.6088  -13.4888   20.7021 C   0  0  0  0  0  0  0  0  0  0  0  0
    8.4675  -14.8391   21.4019 C   0  0  2  0  0  0  0  0  0  0  0  0
    7.1199  -15.2853   21.2757 N   0  0  0  0  0  0  0  0  0  0  0  0
    8.9288  -14.7322   22.8226 C   0  0  0  0  0  0  0  0  0  0  0  0
   10.1329  -14.4189   22.9961 O   0  0  0  0  0  0  0  0  0  0  0  0
    8.0827  -12.1268   26.4416 C   0  0  0  0  0  0  0  0  0  0  0  0
    6.9142  -12.9882   25.9316 C   0  0  2  0  0  0  0  0  0  0  0  0
    5.6868  -12.5651   26.6412 C   0  0  0  0  0  0  0  0  0  0  0  0
    7.2780  -14.4086   26.0416 C   0  0  0  0  0  0  0  0  0  0  0  0
    8.4300  -14.9303   25.2894 C   0  0  2  0  0  0  0  0  0  0  0  0
    8.0171  -14.9811   23.8732 N   0  0  0  0  0  0  0  0  0  0  0  0
    8.8941  -16.2942   25.6271 C   0  0  0  0  0  0  0  0  0  0  0  0
    8.0873  -17.3005   25.6755 O   0  0  0  0  0  0  0  0  0  0  0  0
   11.7665  -20.8277   25.4158 N   0  0  0  0  0  0  0  0  0  0  0  0
   12.4514  -19.6877   25.9408 C   0  0  0  0  0  0  0  0  0  0  0  0
   13.4590  -19.9030   26.6863 O   0  0  0  0  0  0  0  0  0  0  0  0
   12.0130  -18.3128   25.6311 C   0  0  0  0  0  0  0  0  0  0  0  0
   10.6224  -18.0279   26.2127 C   0  0  2  0  0  0  0  0  0  0  0  0
   10.2395  -16.6516   25.9277 N   0  0  0  0  0  0  0  0  0  0  0  0
   10.6278  -18.3014   27.6539 C   0  0  0  0  0  0  0  0  0  0  0  0
   10.6510  -17.2891   28.6323 O   0  0  0  0  0  0  0  0  0  0  0  0
   10.6111  -19.4842   28.0612 O   0  0  0  0  0  0  0  0  0  0  0  0
  2  1  1  6
  2  3  1  0
  4  2  1  0
  4  5  1  0
  5  7  1  0
  5  6  1  1
  7  8  2  0
 10  9  1  1
 10 12  1  0
 11 10  1  0
 13 12  1  1
 14 13  1  0
 14  7  1  0
 15 16  2  0
 15 13  1  0
 17 18  1  0
 18 19  2  0
 18 20  1  0
 21 20  1  1
 21 23  1  0
 21 22  1  0
 22 15  1  0
 23 24  1  0
 25 23  2  0
M  END
$$$$
