LLN.pdb
     RDKit          3D

 25 24  0  0  1  0  0  0  0  0999 V2000
    7.3692  -21.7085   20.0744 C   0  0  0  0  0  0  0  0  0  0  0  0
    8.8776  -21.7077   20.0030 C   0  0  2  0  0  0  0  0  0  0  0  0
    9.4026  -22.7332   20.9896 C   0  0  0  0  0  0  0  0  0  0  0  0
    9.4317  -20.3364   20.2747 C   0  0  0  0  0  0  0  0  0  0  0  0
    8.8771  -19.4059   19.1980 C   0  0  2  0  0  0  0  0  0  0  0  0
    9.1936  -19.9431   17.9164 N   0  0  0  0  0  0  0  0  0  0  0  0
    9.3933  -18.0154   19.4048 C   0  0  0  0  0  0  0  0  0  0  0  0
   10.4274  -17.7031   18.7636 O   0  0  0  0  0  0  0  0  0  0  0  0
    6.6248  -13.0742   21.6622 C   0  0  0  0  0  0  0  0  0  0  0  0
    7.9726  -13.5497   21.0923 C   0  0  2  0  0  0  0  0  0  0  0  0
    8.3230  -12.6766   19.9503 C   0  0  0  0  0  0  0  0  0  0  0  0
    7.8976  -14.9919   20.8155 C   0  0  0  0  0  0  0  0  0  0  0  0
    9.1138  -15.7301   20.4405 C   0  0  2  0  0  0  0  0  0  0  0  0
    8.7151  -17.1428   20.2855 N   0  0  0  0  0  0  0  0  0  0  0  0
   10.2308  -15.7268   21.4110 C   0  0  0  0  0  0  0  0  0  0  0  0
   10.8824  -14.6514   21.7026 O   0  0  0  0  0  0  0  0  0  0  0  0
   15.2314  -15.5158   22.6759 N   0  0  0  0  0  0  0  0  0  0  0  0
   13.9936  -15.9717   22.1244 C   0  0  0  0  0  0  0  0  0  0  0  0
   14.0522  -16.7466   21.1176 O   0  0  0  0  0  0  0  0  0  0  0  0
   12.6959  -15.5653   22.6982 C   0  0  0  0  0  0  0  0  0  0  0  0
   11.8317  -16.7859   23.0394 C   0  0  2  0  0  0  0  0  0  0  0  0
   10.7061  -16.8680   22.1182 N   0  0  0  0  0  0  0  0  0  0  0  0
   11.3852  -16.6969   24.4338 C   0  0  0  0  0  0  0  0  0  0  0  0
   12.2613  -16.7848   25.5326 O   0  0  0  0  0  0  0  0  0  0  0  0
   10.1709  -16.5347   24.6875 O   0  0  0  0  0  0  0  0  0  0  0  0
  2  1  1  1
  2  3  1  0
  4  2  1  0
  4  5  1  0
  5  7  1  0
  5  6  1  6
  7  8  2  0
 10  9  1  6
 10 12  1  0
 11 10  1  0
 13 12  1  1
 14 13  1  0
 14  7  1  0
 15 16  2  0
 15 13  1  0
 17 18  1  0
 18 19  2  0
 18 20  1  0
 21 20  1  6
 21 23  1  0
 21 22  1  0
 22 15  1  0
 23 24  1  0
 25 23  2  0
M  END
$$$$
