LLN.pdb
     RDKit          3D

 25 24  0  0  1  0  0  0  0  0999 V2000
    7.7899  -14.1897   18.4780 C   0  0  0  0  0  0  0  0  0  0  0  0
    7.6699  -13.4380   19.7823 C   0  0  2  0  0  0  0  0  0  0  0  0
    7.4478  -11.9707   19.4688 C   0  0  0  0  0  0  0  0  0  0  0  0
    8.8859  -13.6478   20.6418 C   0  0  0  0  0  0  0  0  0  0  0  0
    8.6604  -14.9345   21.4334 C   0  0  2  0  0  0  0  0  0  0  0  0
    7.2947  -15.3212   21.3058 N   0  0  0  0  0  0  0  0  0  0  0  0
    9.0961  -14.7469   22.8538 C   0  0  0  0  0  0  0  0  0  0  0  0
   10.2953  -14.4169   23.0306 O   0  0  0  0  0  0  0  0  0  0  0  0
    5.8849  -12.6481   27.1792 C   0  0  0  0  0  0  0  0  0  0  0  0
    7.2431  -12.8677   26.4901 C   0  0  2  0  0  0  0  0  0  0  0  0
    7.4308  -11.7932   25.4903 C   0  0  0  0  0  0  0  0  0  0  0  0
    7.3122  -14.2483   25.9889 C   0  0  0  0  0  0  0  0  0  0  0  0
    8.5307  -14.7226   25.3141 C   0  0  2  0  0  0  0  0  0  0  0  0
    8.1675  -14.9437   23.9006 N   0  0  0  0  0  0  0  0  0  0  0  0
    9.1117  -15.9979   25.7892 C   0  0  0  0  0  0  0  0  0  0  0  0
    9.3853  -16.2051   27.0334 O   0  0  0  0  0  0  0  0  0  0  0  0
    9.6709  -21.7451   25.6651 N   0  0  0  0  0  0  0  0  0  0  0  0
   10.4317  -20.7323   25.0021 C   0  0  0  0  0  0  0  0  0  0  0  0
   11.6763  -20.9433   24.8471 O   0  0  0  0  0  0  0  0  0  0  0  0
    9.8029  -19.4903   24.5118 C   0  0  0  0  0  0  0  0  0  0  0  0
    9.9880  -18.3411   25.5110 C   0  0  2  0  0  0  0  0  0  0  0  0
    9.4275  -17.1135   24.9622 N   0  0  0  0  0  0  0  0  0  0  0  0
   11.4122  -18.1917   25.8289 C   0  0  0  0  0  0  0  0  0  0  0  0
   12.0169  -18.7753   26.9586 O   0  0  0  0  0  0  0  0  0  0  0  0
   12.1489  -17.5174   25.0753 O   0  0  0  0  0  0  0  0  0  0  0  0
  2  1  1  6
  2  3  1  0
  4  2  1  0
  4  5  1  0
  5  7  1  0
  5  6  1  1
  7  8  2  0
 10  9  1  6
 10 12  1  0
 11 10  1  0
 13 12  1  1
 14 13  1  0
 14  7  1  0
 15 16  2  0
 15 13  1  0
 17 18  1  0
 18 19  2  0
 18 20  1  0
 21 20  1  6
 21 23  1  0
 21 22  1  0
 22 15  1  0
 23 24  1  0
 25 23  2  0
M  END
$$$$
