SVE.pdb
     RDKit          3D

 23 22  0  0  1  0  0  0  0  0999 V2000
    6.3275  -16.5346   21.7323 O   0  0  0  0  0  0  0  0  0  0  0  0
    7.1128  -15.8833   20.7867 C   0  0  0  0  0  0  0  0  0  0  0  0
    7.2076  -14.4284   21.1835 C   0  0  2  0  0  0  0  0  0  0  0  0
    8.0246  -13.7509   20.1982 N   0  0  0  0  0  0  0  0  0  0  0  0
    7.8518  -14.2486   22.5038 C   0  0  0  0  0  0  0  0  0  0  0  0
    9.0976  -14.3351   22.6173 O   0  0  0  0  0  0  0  0  0  0  0  0
    6.6935  -11.6757   25.1560 C   0  0  0  0  0  0  0  0  0  0  0  0
    6.7470  -13.0306   25.8463 C   0  0  2  0  0  0  0  0  0  0  0  0
    7.3182  -12.8236   27.2164 C   0  0  0  0  0  0  0  0  0  0  0  0
    7.6821  -13.8970   25.0000 C   0  0  2  0  0  0  0  0  0  0  0  0
    7.1186  -13.9746   23.6915 N   0  0  0  0  0  0  0  0  0  0  0  0
    7.8256  -15.2482   25.6338 C   0  0  0  0  0  0  0  0  0  0  0  0
    6.8135  -15.9543   25.8678 O   0  0  0  0  0  0  0  0  0  0  0  0
    9.0902  -15.7888   25.9952 N   0  0  0  0  0  0  0  0  0  0  0  0
    9.2263  -17.0895   26.6535 C   0  0  1  0  0  0  0  0  0  0  0  0
   10.0928  -17.9357   25.7743 C   0  0  0  0  0  0  0  0  0  0  0  0
   11.3601  -17.2578   25.3482 C   0  0  0  0  0  0  0  0  0  0  0  0
   12.1458  -18.0824   24.4059 C   0  0  0  0  0  0  0  0  0  0  0  0
   11.8993  -18.2360   23.1894 O   0  0  0  0  0  0  0  0  0  0  0  0
    9.9156  -16.9166   27.9762 C   0  0  0  0  0  0  0  0  0  0  0  0
   10.0320  -17.9797   28.8477 O   0  0  0  0  0  0  0  0  0  0  0  0
   13.2731  -18.7612   24.9046 O   0  0  0  0  0  0  0  0  0  0  0  0
   10.3963  -15.8099   28.3133 O   0  0  0  0  0  0  0  0  0  0  0  0
  2  1  1  0
  3  2  1  0
  3  4  1  6
  5  6  2  0
  5  3  1  0
  8  7  1  6
  8 10  1  0
  9  8  1  0
 10 12  1  0
 10 11  1  6
 11  5  1  0
 12 14  1  0
 13 12  2  0
 14 15  1  0
 15 20  1  0
 15 16  1  6
 16 17  1  0
 18 22  1  0
 18 17  1  0
 19 18  2  0
 20 23  2  0
 20 21  1  0
M  END
$$$$
