SVE.pdb
     RDKit          3D

 23 22  0  0  1  0  0  0  0  0999 V2000
    5.8076  -16.7464   20.5902 O   0  0  0  0  0  0  0  0  0  0  0  0
    6.7253  -16.3368   21.5521 C   0  0  0  0  0  0  0  0  0  0  0  0
    6.6859  -14.8278   21.6194 C   0  0  2  0  0  0  0  0  0  0  0  0
    7.2408  -14.3129   20.3847 N   0  0  0  0  0  0  0  0  0  0  0  0
    7.4990  -14.2953   22.7355 C   0  0  0  0  0  0  0  0  0  0  0  0
    8.7459  -14.2154   22.6286 O   0  0  0  0  0  0  0  0  0  0  0  0
    6.2712  -11.6433   25.4886 C   0  0  0  0  0  0  0  0  0  0  0  0
    6.7143  -12.9392   26.1516 C   0  0  2  0  0  0  0  0  0  0  0  0
    7.4348  -12.5827   27.4166 C   0  0  0  0  0  0  0  0  0  0  0  0
    7.6676  -13.6131   25.1624 C   0  0  2  0  0  0  0  0  0  0  0  0
    6.9327  -13.8538   23.9634 N   0  0  0  0  0  0  0  0  0  0  0  0
    8.2004  -14.8799   25.7619 C   0  0  0  0  0  0  0  0  0  0  0  0
    7.4279  -15.8332   26.0303 O   0  0  0  0  0  0  0  0  0  0  0  0
    9.5804  -15.0631   26.0514 N   0  0  0  0  0  0  0  0  0  0  0  0
   10.1251  -16.3512   26.4847 C   0  0  1  0  0  0  0  0  0  0  0  0
   11.4106  -16.5531   25.7454 C   0  0  0  0  0  0  0  0  0  0  0  0
   12.1945  -17.7409   26.2166 C   0  0  0  0  0  0  0  0  0  0  0  0
   13.4456  -17.9246   25.4511 C   0  0  0  0  0  0  0  0  0  0  0  0
   13.8594  -17.1766   24.5380 O   0  0  0  0  0  0  0  0  0  0  0  0
   10.4245  -16.3041   27.9553 C   0  0  0  0  0  0  0  0  0  0  0  0
   10.4502  -15.0981   28.6248 O   0  0  0  0  0  0  0  0  0  0  0  0
   14.2541  -19.0331   25.7640 O   0  0  0  0  0  0  0  0  0  0  0  0
   10.6557  -17.3528   28.6005 O   0  0  0  0  0  0  0  0  0  0  0  0
  2  1  1  0
  3  2  1  0
  3  4  1  6
  5  6  2  0
  5  3  1  0
  8  7  1  6
  8 10  1  0
  9  8  1  0
 10 12  1  0
 10 11  1  6
 11  5  1  0
 12 14  1  0
 13 12  2  0
 14 15  1  0
 15 20  1  0
 15 16  1  6
 16 17  1  0
 18 22  1  0
 18 17  1  0
 19 18  2  0
 20 23  2  0
 20 21  1  0
M  END
$$$$
