SVE.pdb
     RDKit          3D

 23 22  0  0  1  0  0  0  0  0999 V2000
    6.7187  -19.1133   17.0302 O   0  0  0  0  0  0  0  0  0  0  0  0
    7.3740  -18.5148   18.1014 C   0  0  0  0  0  0  0  0  0  0  0  0
    8.0469  -17.2611   17.5930 C   0  0  2  0  0  0  0  0  0  0  0  0
    9.0824  -17.6584   16.6617 N   0  0  0  0  0  0  0  0  0  0  0  0
    8.6902  -16.4901   18.6803 C   0  0  0  0  0  0  0  0  0  0  0  0
    9.8839  -16.7127   18.9935 O   0  0  0  0  0  0  0  0  0  0  0  0
    7.4808  -12.7931   19.8334 C   0  0  0  0  0  0  0  0  0  0  0  0
    7.5124  -13.7706   20.9990 C   0  0  2  0  0  0  0  0  0  0  0  0
    7.9979  -13.0271   22.2064 C   0  0  0  0  0  0  0  0  0  0  0  0
    8.5085  -14.8631   20.6047 C   0  0  2  0  0  0  0  0  0  0  0  0
    8.0137  -15.4781   19.4162 N   0  0  0  0  0  0  0  0  0  0  0  0
    8.6504  -15.8434   21.7304 C   0  0  0  0  0  0  0  0  0  0  0  0
    7.6659  -16.5231   22.1128 O   0  0  0  0  0  0  0  0  0  0  0  0
    9.8829  -16.0495   22.4090 N   0  0  0  0  0  0  0  0  0  0  0  0
   10.0184  -16.9999   23.5145 C   0  0  1  0  0  0  0  0  0  0  0  0
   11.1691  -17.8969   23.1813 C   0  0  0  0  0  0  0  0  0  0  0  0
   12.4273  -17.1576   22.8380 C   0  0  0  0  0  0  0  0  0  0  0  0
   13.5251  -18.0703   22.4548 C   0  0  0  0  0  0  0  0  0  0  0  0
   13.4668  -18.9508   21.5685 O   0  0  0  0  0  0  0  0  0  0  0  0
   10.3432  -16.2597   24.7799 C   0  0  0  0  0  0  0  0  0  0  0  0
   10.4147  -16.9308   25.9832 O   0  0  0  0  0  0  0  0  0  0  0  0
   14.7504  -17.9518   23.1368 O   0  0  0  0  0  0  0  0  0  0  0  0
   10.5546  -15.0249   24.7689 O   0  0  0  0  0  0  0  0  0  0  0  0
  2  1  1  0
  3  2  1  0
  3  4  1  6
  5  6  2  0
  5  3  1  0
  8  7  1  6
  8 10  1  0
  9  8  1  0
 10 12  1  0
 10 11  1  6
 11  5  1  0
 12 14  1  0
 13 12  2  0
 14 15  1  0
 15 20  1  0
 15 16  1  6
 16 17  1  0
 18 22  1  0
 18 17  1  0
 19 18  2  0
 20 23  2  0
 20 21  1  0
M  END
$$$$
