SVE.pdb
     RDKit          3D

 23 22  0  0  1  0  0  0  0  0999 V2000
    6.2854  -16.8917   22.3615 O   0  0  0  0  0  0  0  0  0  0  0  0
    6.9252  -16.2856   21.2852 C   0  0  0  0  0  0  0  0  0  0  0  0
    6.9911  -14.8012   21.5594 C   0  0  2  0  0  0  0  0  0  0  0  0
    7.6586  -14.1711   20.4391 N   0  0  0  0  0  0  0  0  0  0  0  0
    7.7687  -14.4908   22.7798 C   0  0  0  0  0  0  0  0  0  0  0  0
    9.0222  -14.4829   22.7469 O   0  0  0  0  0  0  0  0  0  0  0  0
    6.6446  -11.8370   25.4537 C   0  0  0  0  0  0  0  0  0  0  0  0
    6.9232  -13.1549   26.1613 C   0  0  2  0  0  0  0  0  0  0  0  0
    7.5970  -12.8416   27.4629 C   0  0  0  0  0  0  0  0  0  0  0  0
    7.8664  -13.9343   25.2425 C   0  0  2  0  0  0  0  0  0  0  0  0
    7.1597  -14.1910   24.0299 N   0  0  0  0  0  0  0  0  0  0  0  0
    8.2986  -15.1989   25.9223 C   0  0  0  0  0  0  0  0  0  0  0  0
    7.4473  -16.0287   26.3277 O   0  0  0  0  0  0  0  0  0  0  0  0
    9.6676  -15.5170   26.1385 N   0  0  0  0  0  0  0  0  0  0  0  0
   10.0921  -16.7867   26.7310 C   0  0  1  0  0  0  0  0  0  0  0  0
   11.4541  -17.0883   26.1892 C   0  0  0  0  0  0  0  0  0  0  0  0
   11.4994  -17.1774   24.6934 C   0  0  0  0  0  0  0  0  0  0  0  0
   12.8510  -17.5067   24.1936 C   0  0  0  0  0  0  0  0  0  0  0  0
   13.4576  -16.9067   23.2791 O   0  0  0  0  0  0  0  0  0  0  0  0
   10.1951  -16.6391   28.2218 C   0  0  0  0  0  0  0  0  0  0  0  0
   10.3535  -17.7498   29.0246 O   0  0  0  0  0  0  0  0  0  0  0  0
   13.5292  -18.5873   24.7877 O   0  0  0  0  0  0  0  0  0  0  0  0
   10.1397  -15.5109   28.7636 O   0  0  0  0  0  0  0  0  0  0  0  0
  2  1  1  0
  3  2  1  0
  3  4  1  6
  5  6  2  0
  5  3  1  0
  8  7  1  6
  8 10  1  0
  9  8  1  0
 10 12  1  0
 10 11  1  6
 11  5  1  0
 12 14  1  0
 13 12  2  0
 14 15  1  0
 15 20  1  0
 15 16  1  6
 16 17  1  0
 18 22  1  0
 18 17  1  0
 19 18  2  0
 20 23  2  0
 20 21  1  0
M  END
$$$$
