SVE.pdb
     RDKit          3D

 23 22  0  0  1  0  0  0  0  0999 V2000
    4.3231  -19.6875   23.0338 O   0  0  0  0  0  0  0  0  0  0  0  0
    5.5025  -19.0018   22.7621 C   0  0  0  0  0  0  0  0  0  0  0  0
    5.3169  -18.2545   21.4621 C   0  0  2  0  0  0  0  0  0  0  0  0
    5.1742  -19.2324   20.4033 N   0  0  0  0  0  0  0  0  0  0  0  0
    6.4817  -17.4022   21.1344 C   0  0  0  0  0  0  0  0  0  0  0  0
    7.4156  -17.8508   20.4280 O   0  0  0  0  0  0  0  0  0  0  0  0
    6.6339  -13.5705   20.2944 C   0  0  0  0  0  0  0  0  0  0  0  0
    7.4151  -13.8185   21.5763 C   0  0  2  0  0  0  0  0  0  0  0  0
    8.6322  -12.9443   21.5467 C   0  0  0  0  0  0  0  0  0  0  0  0
    7.8141  -15.2954   21.5465 C   0  0  2  0  0  0  0  0  0  0  0  0
    6.6102  -16.0600   21.5876 N   0  0  0  0  0  0  0  0  0  0  0  0
    8.7137  -15.5963   22.7076 C   0  0  0  0  0  0  0  0  0  0  0  0
    8.2357  -15.7800   23.8545 O   0  0  0  0  0  0  0  0  0  0  0  0
   10.1263  -15.6871   22.5723 N   0  0  0  0  0  0  0  0  0  0  0  0
   10.9842  -16.1967   23.6437 C   0  0  1  0  0  0  0  0  0  0  0  0
   10.6892  -17.6573   23.7826 C   0  0  0  0  0  0  0  0  0  0  0  0
   11.5783  -18.3591   24.7646 C   0  0  0  0  0  0  0  0  0  0  0  0
   11.1724  -19.7638   24.9817 C   0  0  0  0  0  0  0  0  0  0  0  0
   11.9248  -20.7604   24.9111 O   0  0  0  0  0  0  0  0  0  0  0  0
   12.4259  -16.0375   23.2553 C   0  0  0  0  0  0  0  0  0  0  0  0
   12.7704  -15.7509   21.9505 O   0  0  0  0  0  0  0  0  0  0  0  0
    9.8250  -20.0204   25.2963 O   0  0  0  0  0  0  0  0  0  0  0  0
   13.3399  -16.1608   24.1032 O   0  0  0  0  0  0  0  0  0  0  0  0
  2  1  1  0
  3  2  1  0
  3  4  1  6
  5  6  2  0
  5  3  1  0
  8  7  1  6
  8 10  1  0
  9  8  1  0
 10 12  1  0
 10 11  1  1
 11  5  1  0
 12 14  1  0
 13 12  2  0
 14 15  1  0
 15 20  1  0
 15 16  1  6
 16 17  1  0
 18 22  1  0
 18 17  1  0
 19 18  2  0
 20 23  2  0
 20 21  1  0
M  END
$$$$
