SVE.pdb
     RDKit          3D

 23 22  0  0  1  0  0  0  0  0999 V2000
    7.7575  -19.2005   18.9535 O   0  0  0  0  0  0  0  0  0  0  0  0
    6.7914  -18.5398   18.2018 C   0  0  0  0  0  0  0  0  0  0  0  0
    7.4332  -17.3145   17.5936 C   0  0  2  0  0  0  0  0  0  0  0  0
    8.3292  -17.7559   16.5448 N   0  0  0  0  0  0  0  0  0  0  0  0
    8.2331  -16.5534   18.5790 C   0  0  0  0  0  0  0  0  0  0  0  0
    9.4446  -16.8245   18.7558 O   0  0  0  0  0  0  0  0  0  0  0  0
    7.3686  -12.7353   19.6158 C   0  0  0  0  0  0  0  0  0  0  0  0
    7.5128  -13.6334   20.8356 C   0  0  2  0  0  0  0  0  0  0  0  0
    8.1915  -12.8394   21.9105 C   0  0  0  0  0  0  0  0  0  0  0  0
    8.3946  -14.8034   20.3944 C   0  0  2  0  0  0  0  0  0  0  0  0
    7.6926  -15.4975   19.3642 N   0  0  0  0  0  0  0  0  0  0  0  0
    8.6856  -15.6850   21.5718 C   0  0  0  0  0  0  0  0  0  0  0  0
    7.8695  -16.5736   21.9210 O   0  0  0  0  0  0  0  0  0  0  0  0
    9.8770  -15.5623   22.3382 N   0  0  0  0  0  0  0  0  0  0  0  0
   10.3048  -16.5892   23.2900 C   0  0  1  0  0  0  0  0  0  0  0  0
   10.6407  -17.8109   22.4934 C   0  0  0  0  0  0  0  0  0  0  0  0
   11.2056  -18.9287   23.3172 C   0  0  0  0  0  0  0  0  0  0  0  0
   11.5243  -20.1191   22.5008 C   0  0  0  0  0  0  0  0  0  0  0  0
   11.2899  -21.3060   22.8178 O   0  0  0  0  0  0  0  0  0  0  0  0
   11.5439  -16.1315   24.0040 C   0  0  0  0  0  0  0  0  0  0  0  0
   11.8629  -16.6405   25.2460 O   0  0  0  0  0  0  0  0  0  0  0  0
   12.1463  -19.9174   21.2546 O   0  0  0  0  0  0  0  0  0  0  0  0
   12.3087  -15.2830   23.4895 O   0  0  0  0  0  0  0  0  0  0  0  0
  2  1  1  0
  3  2  1  0
  3  4  1  6
  5  6  2  0
  5  3  1  0
  8  7  1  6
  8 10  1  0
  9  8  1  0
 10 12  1  0
 10 11  1  6
 11  5  1  0
 12 14  1  0
 13 12  2  0
 14 15  1  0
 15 20  1  0
 15 16  1  6
 16 17  1  0
 18 22  1  0
 18 17  1  0
 19 18  2  0
 20 23  2  0
 20 21  1  0
M  END
$$$$
