SVE.pdb
     RDKit          3D

 23 22  0  0  1  0  0  0  0  0999 V2000
    8.2451  -19.3584   18.6537 O   0  0  0  0  0  0  0  0  0  0  0  0
    7.3255  -18.5118   18.0431 C   0  0  0  0  0  0  0  0  0  0  0  0
    8.0756  -17.3072   17.5242 C   0  0  2  0  0  0  0  0  0  0  0  0
    9.1366  -17.7822   16.6602 N   0  0  0  0  0  0  0  0  0  0  0  0
    8.6988  -16.5230   18.6137 C   0  0  0  0  0  0  0  0  0  0  0  0
    9.9307  -16.6094   18.8312 O   0  0  0  0  0  0  0  0  0  0  0  0
    7.2821  -12.9310   19.8854 C   0  0  0  0  0  0  0  0  0  0  0  0
    7.4368  -13.9304   21.0222 C   0  0  2  0  0  0  0  0  0  0  0  0
    7.9057  -13.1789   22.2313 C   0  0  0  0  0  0  0  0  0  0  0  0
    8.5026  -14.9277   20.5632 C   0  0  2  0  0  0  0  0  0  0  0  0
    7.9600  -15.6480   19.4575 N   0  0  0  0  0  0  0  0  0  0  0  0
    8.8676  -15.8324   21.7018 C   0  0  0  0  0  0  0  0  0  0  0  0
    8.0318  -16.6500   22.1606 O   0  0  0  0  0  0  0  0  0  0  0  0
   10.1535  -15.8113   22.3083 N   0  0  0  0  0  0  0  0  0  0  0  0
   10.5121  -16.7011   23.4143 C   0  0  1  0  0  0  0  0  0  0  0  0
   11.9529  -17.0635   23.2343 C   0  0  0  0  0  0  0  0  0  0  0  0
   12.1705  -18.5043   22.8822 C   0  0  0  0  0  0  0  0  0  0  0  0
   13.5927  -18.8058   22.6147 C   0  0  0  0  0  0  0  0  0  0  0  0
   14.3719  -18.1047   21.9325 O   0  0  0  0  0  0  0  0  0  0  0  0
   10.3644  -15.9712   24.7182 C   0  0  0  0  0  0  0  0  0  0  0  0
    9.9991  -14.6409   24.7367 O   0  0  0  0  0  0  0  0  0  0  0  0
   14.1337  -19.9810   23.1685 O   0  0  0  0  0  0  0  0  0  0  0  0
   10.5688  -16.5518   25.8093 O   0  0  0  0  0  0  0  0  0  0  0  0
  2  1  1  0
  3  2  1  0
  3  4  1  6
  5  6  2  0
  5  3  1  0
  8  7  1  6
  8 10  1  0
  9  8  1  0
 10 12  1  0
 10 11  1  6
 11  5  1  0
 12 14  1  0
 13 12  2  0
 14 15  1  0
 15 20  1  0
 15 16  1  6
 16 17  1  0
 18 22  1  0
 18 17  1  0
 19 18  2  0
 20 23  2  0
 20 21  1  0
M  END
$$$$
