SVE.pdb
     RDKit          3D

 23 22  0  0  1  0  0  0  0  0999 V2000
    7.5356  -19.5714   17.0383 O   0  0  0  0  0  0  0  0  0  0  0  0
    7.4820  -18.6299   18.0610 C   0  0  0  0  0  0  0  0  0  0  0  0
    7.8813  -17.2922   17.4830 C   0  0  2  0  0  0  0  0  0  0  0  0
    8.8141  -17.5354   16.4020 N   0  0  0  0  0  0  0  0  0  0  0  0
    8.5590  -16.4316   18.4781 C   0  0  0  0  0  0  0  0  0  0  0  0
    9.8093  -16.4394   18.5749 O   0  0  0  0  0  0  0  0  0  0  0  0
    7.0360  -12.9248   19.7700 C   0  0  0  0  0  0  0  0  0  0  0  0
    7.3856  -13.8409   20.9335 C   0  0  2  0  0  0  0  0  0  0  0  0
    7.9421  -12.9898   22.0345 C   0  0  0  0  0  0  0  0  0  0  0  0
    8.4530  -14.8019   20.4060 C   0  0  2  0  0  0  0  0  0  0  0  0
    7.8544  -15.5672   19.3611 N   0  0  0  0  0  0  0  0  0  0  0  0
    8.9481  -15.6667   21.5263 C   0  0  0  0  0  0  0  0  0  0  0  0
    8.2125  -16.5585   22.0173 O   0  0  0  0  0  0  0  0  0  0  0  0
   10.2504  -15.5240   22.0793 N   0  0  0  0  0  0  0  0  0  0  0  0
   10.7754  -16.4411   23.0927 C   0  0  1  0  0  0  0  0  0  0  0  0
   12.2666  -16.4243   22.9669 C   0  0  0  0  0  0  0  0  0  0  0  0
   12.9634  -17.3020   23.9626 C   0  0  0  0  0  0  0  0  0  0  0  0
   14.4345  -17.2329   23.8358 C   0  0  0  0  0  0  0  0  0  0  0  0
   15.1143  -16.1845   23.7817 O   0  0  0  0  0  0  0  0  0  0  0  0
   10.4078  -15.9455   24.4615 C   0  0  0  0  0  0  0  0  0  0  0  0
   10.3410  -16.8199   25.5266 O   0  0  0  0  0  0  0  0  0  0  0  0
   15.1487  -18.4437   23.7687 O   0  0  0  0  0  0  0  0  0  0  0  0
   10.1557  -14.7350   24.6631 O   0  0  0  0  0  0  0  0  0  0  0  0
  2  1  1  0
  3  2  1  0
  3  4  1  6
  5  6  2  0
  5  3  1  0
  8  7  1  6
  8 10  1  0
  9  8  1  0
 10 12  1  0
 10 11  1  6
 11  5  1  0
 12 14  1  0
 13 12  2  0
 14 15  1  0
 15 20  1  0
 15 16  1  1
 16 17  1  0
 18 22  1  0
 18 17  1  0
 19 18  2  0
 20 23  2  0
 20 21  1  0
M  END
$$$$
