SVE.pdb
     RDKit          3D

 23 22  0  0  1  0  0  0  0  0999 V2000
    8.0455  -12.4741   27.4458 O   0  0  0  0  0  0  0  0  0  0  0  0
    7.9229  -11.8336   26.2170 C   0  0  0  0  0  0  0  0  0  0  0  0
    6.7537  -12.4508   25.4857 C   0  0  2  0  0  0  0  0  0  0  0  0
    5.7386  -12.7780   26.4656 N   0  0  0  0  0  0  0  0  0  0  0  0
    7.1263  -13.7017   24.7879 C   0  0  0  0  0  0  0  0  0  0  0  0
    6.9677  -14.8114   25.3499 O   0  0  0  0  0  0  0  0  0  0  0  0
    8.9586  -13.3308   21.1193 C   0  0  0  0  0  0  0  0  0  0  0  0
    8.1181  -14.5862   21.3004 C   0  0  2  0  0  0  0  0  0  0  0  0
    6.7254  -14.2741   20.8428 C   0  0  0  0  0  0  0  0  0  0  0  0
    8.1349  -14.8908   22.7998 C   0  0  2  0  0  0  0  0  0  0  0  0
    7.6720  -13.7219   23.4744 N   0  0  0  0  0  0  0  0  0  0  0  0
    9.5229  -15.2722   23.2194 C   0  0  0  0  0  0  0  0  0  0  0  0
   10.4184  -14.3987   23.3321 O   0  0  0  0  0  0  0  0  0  0  0  0
    9.8891  -16.6161   23.5055 N   0  0  0  0  0  0  0  0  0  0  0  0
   11.2530  -16.9927   23.8816 C   0  0  1  0  0  0  0  0  0  0  0  0
   11.1409  -18.1081   24.8731 C   0  0  0  0  0  0  0  0  0  0  0  0
   10.4607  -17.7118   26.1489 C   0  0  0  0  0  0  0  0  0  0  0  0
   10.4927  -18.7912   27.1582 C   0  0  0  0  0  0  0  0  0  0  0  0
    9.4976  -19.4040   27.6037 O   0  0  0  0  0  0  0  0  0  0  0  0
   11.9878  -17.5010   22.6748 C   0  0  0  0  0  0  0  0  0  0  0  0
   13.3547  -17.6834   22.7145 O   0  0  0  0  0  0  0  0  0  0  0  0
   11.7444  -19.1758   27.6738 O   0  0  0  0  0  0  0  0  0  0  0  0
   11.3780  -17.7683   21.6135 O   0  0  0  0  0  0  0  0  0  0  0  0
  2  1  1  0
  3  2  1  0
  3  4  1  1
  5  6  2  0
  5  3  1  0
  8  7  1  1
  8 10  1  0
  9  8  1  0
 10 12  1  0
 10 11  1  1
 11  5  1  0
 12 14  1  0
 13 12  2  0
 14 15  1  0
 15 20  1  0
 15 16  1  1
 16 17  1  0
 18 22  1  0
 18 17  1  0
 19 18  2  0
 20 23  2  0
 20 21  1  0
M  END
$$$$
