SVE.pdb
     RDKit          3D

 23 22  0  0  1  0  0  0  0  0999 V2000
    6.2281  -17.0509   20.9087 O   0  0  0  0  0  0  0  0  0  0  0  0
    7.0202  -16.5864   21.9537 C   0  0  0  0  0  0  0  0  0  0  0  0
    7.0143  -15.0762   21.9056 C   0  0  2  0  0  0  0  0  0  0  0  0
    7.6716  -14.6675   20.6814 N   0  0  0  0  0  0  0  0  0  0  0  0
    7.7562  -14.4767   23.0373 C   0  0  0  0  0  0  0  0  0  0  0  0
    9.0092  -14.4301   23.0191 O   0  0  0  0  0  0  0  0  0  0  0  0
    6.3823  -11.6464   25.5803 C   0  0  0  0  0  0  0  0  0  0  0  0
    6.7360  -12.9329   26.3117 C   0  0  2  0  0  0  0  0  0  0  0  0
    7.3534  -12.5575   27.6248 C   0  0  0  0  0  0  0  0  0  0  0  0
    7.7546  -13.6536   25.4261 C   0  0  2  0  0  0  0  0  0  0  0  0
    7.1124  -13.9320   24.1827 N   0  0  0  0  0  0  0  0  0  0  0  0
    8.2219  -14.9023   26.1119 C   0  0  0  0  0  0  0  0  0  0  0  0
    7.4075  -15.8124   26.4052 O   0  0  0  0  0  0  0  0  0  0  0  0
    9.5844  -15.1157   26.4585 N   0  0  0  0  0  0  0  0  0  0  0  0
   10.0510  -16.3623   27.0683 C   0  0  1  0  0  0  0  0  0  0  0  0
   11.2133  -16.8386   26.2547 C   0  0  0  0  0  0  0  0  0  0  0  0
   12.3069  -15.8224   26.1171 C   0  0  0  0  0  0  0  0  0  0  0  0
   13.4057  -16.2975   25.2499 C   0  0  0  0  0  0  0  0  0  0  0  0
   13.4740  -17.4228   24.7084 O   0  0  0  0  0  0  0  0  0  0  0  0
   10.5275  -16.0933   28.4666 C   0  0  0  0  0  0  0  0  0  0  0  0
   10.8951  -17.1357   29.2921 O   0  0  0  0  0  0  0  0  0  0  0  0
   14.4769  -15.4194   25.0013 O   0  0  0  0  0  0  0  0  0  0  0  0
   10.6005  -14.9236   28.9094 O   0  0  0  0  0  0  0  0  0  0  0  0
  2  1  1  0
  3  2  1  0
  3  4  1  6
  5  6  2  0
  5  3  1  0
  8  7  1  6
  8 10  1  0
  9  8  1  0
 10 12  1  0
 10 11  1  6
 11  5  1  0
 12 14  1  0
 13 12  2  0
 14 15  1  0
 15 20  1  0
 15 16  1  6
 16 17  1  0
 18 22  1  0
 18 17  1  0
 19 18  2  0
 20 23  2  0
 20 21  1  0
M  END
$$$$
