THC.pdb
     RDKit          3D

 24 24  0  0  1  0  0  0  0  0999 V2000
   22.8621  -12.0042  -18.7641 C   0  0  0  0  0  0  0  0  0  0  0  0
   21.4097  -11.7100  -18.9755 C   0  0  1  0  0  0  0  0  0  0  0  0
   20.6947  -12.8703  -19.1740 O   0  0  0  0  0  0  0  0  0  0  0  0
   20.8856  -10.9846  -17.7471 C   0  0  2  0  0  0  0  0  0  0  0  0
   19.4464  -10.9588  -17.7510 N   0  0  0  0  0  0  0  0  0  0  0  0
   21.4313   -9.6073  -17.7436 C   0  0  0  0  0  0  0  0  0  0  0  0
   22.6772   -9.4264  -17.6332 O   0  0  0  0  0  0  0  0  0  0  0  0
   20.5331   -8.5205  -17.8652 N   0  0  0  0  0  0  0  0  0  0  0  0
   20.9893   -7.1501  -17.8733 C   0  0  1  0  0  0  0  0  0  0  0  0
   20.3024   -6.4679  -19.0301 C   0  0  0  0  0  0  0  0  0  0  0  0
   21.0054   -6.7055  -20.3149 C   0  0  0  0  0  0  0  0  0  0  0  0
   21.9957   -5.9370  -20.8842 C   0  0  0  0  0  0  0  0  0  0  0  0
   22.3703   -6.4864  -22.0495 N   0  0  0  0  0  0  0  0  0  0  0  0
   21.6403   -7.5981  -22.2462 C   0  0  0  0  0  0  0  0  0  0  0  0
   20.8159   -7.7248  -21.1921 N   0  0  0  0  0  0  0  0  0  0  0  0
   20.6950   -6.5316  -16.5802 C   0  0  0  0  0  0  0  0  0  0  0  0
   19.4972   -6.3298  -16.2230 O   0  0  0  0  0  0  0  0  0  0  0  0
   21.7272   -6.1496  -15.7103 N   0  0  0  0  0  0  0  0  0  0  0  0
   21.4804   -5.5494  -14.4115 C   0  0  1  0  0  0  0  0  0  0  0  0
   22.1147   -6.4921  -13.3862 C   0  0  0  0  0  0  0  0  0  0  0  0
   21.2509   -8.0826  -13.4414 S   0  0  0  0  0  0  0  0  0  0  0  0
   22.1153   -4.2423  -14.2681 C   0  0  0  0  0  0  0  0  0  0  0  0
   22.9429   -3.8160  -15.1070 O   0  0  0  0  0  0  0  0  0  0  0  0
   21.8056   -3.4425  -13.1838 O   0  0  0  0  0  0  0  0  0  0  0  0
  2  1  1  1
  3  2  1  0
  4  5  1  6
  4  6  1  0
  4  2  1  0
  6  7  2  0
  8  9  1  0
  8  6  1  0
  9 10  1  6
 10 11  1  0
 11 15  1  0
 11 12  2  0
 12 13  1  0
 14 13  1  0
 15 14  2  0
 16 17  2  0
 16  9  1  0
 18 16  1  0
 19 22  1  0
 19 18  1  0
 19 20  1  1
 21 20  1  0
 22 24  1  0
 23 22  2  0
M  END
$$$$
