THC.pdb
     RDKit          3D

 24 24  0  0  1  0  0  0  0  0999 V2000
   25.5095  -10.6220  -15.2353 C   0  0  0  0  0  0  0  0  0  0  0  0
   25.1835  -11.7620  -16.1488 C   0  0  1  0  0  0  0  0  0  0  0  0
   26.0348  -12.8238  -15.9366 O   0  0  0  0  0  0  0  0  0  0  0  0
   23.7492  -12.1899  -15.8857 C   0  0  2  0  0  0  0  0  0  0  0  0
   23.4130  -13.3447  -16.6766 N   0  0  0  0  0  0  0  0  0  0  0  0
   22.8515  -11.0570  -16.2102 C   0  0  0  0  0  0  0  0  0  0  0  0
   22.7104  -10.6927  -17.4121 O   0  0  0  0  0  0  0  0  0  0  0  0
   22.1692  -10.4070  -15.1545 N   0  0  0  0  0  0  0  0  0  0  0  0
   21.2946   -9.2817  -15.3890 C   0  0  1  0  0  0  0  0  0  0  0  0
   20.0346   -9.5358  -14.5995 C   0  0  0  0  0  0  0  0  0  0  0  0
   19.0929  -10.4253  -15.3231 C   0  0  0  0  0  0  0  0  0  0  0  0
   19.2465  -10.9650  -16.5802 C   0  0  0  0  0  0  0  0  0  0  0  0
   18.1729  -11.7130  -16.8771 N   0  0  0  0  0  0  0  0  0  0  0  0
   17.3255  -11.6680  -15.8344 C   0  0  0  0  0  0  0  0  0  0  0  0
   17.8888  -10.8866  -14.8969 N   0  0  0  0  0  0  0  0  0  0  0  0
   21.9779   -8.0460  -15.0049 C   0  0  0  0  0  0  0  0  0  0  0  0
   22.6356   -7.9853  -13.9248 O   0  0  0  0  0  0  0  0  0  0  0  0
   21.9209   -6.9055  -15.8199 N   0  0  0  0  0  0  0  0  0  0  0  0
   22.5636   -5.6525  -15.4664 C   0  0  1  0  0  0  0  0  0  0  0  0
   22.6321   -4.8367  -16.7594 C   0  0  0  0  0  0  0  0  0  0  0  0
   23.2991   -3.1962  -16.3812 S   0  0  0  0  0  0  0  0  0  0  0  0
   21.7937   -4.8824  -14.4936 C   0  0  0  0  0  0  0  0  0  0  0  0
   20.5453   -4.7961  -14.5604 O   0  0  0  0  0  0  0  0  0  0  0  0
   22.4449   -4.2257  -13.4659 O   0  0  0  0  0  0  0  0  0  0  0  0
  2  1  1  1
  3  2  1  0
  4  5  1  6
  4  6  1  0
  4  2  1  0
  6  7  2  0
  8  9  1  0
  8  6  1  0
  9 10  1  1
 10 11  1  0
 11 15  1  0
 11 12  2  0
 12 13  1  0
 14 13  1  0
 15 14  2  0
 16 17  2  0
 16  9  1  0
 18 16  1  0
 19 22  1  0
 19 18  1  0
 19 20  1  6
 21 20  1  0
 22 24  1  0
 23 22  2  0
M  END
$$$$
