THC.pdb
     RDKit          3D

 24 24  0  0  1  0  0  0  0  0999 V2000
   16.9335  -11.8624  -16.7921 C   0  0  0  0  0  0  0  0  0  0  0  0
   18.0635  -10.9525  -16.4239 C   0  0  1  0  0  0  0  0  0  0  0  0
   18.0567  -10.6781  -15.0742 O   0  0  0  0  0  0  0  0  0  0  0  0
   19.3680  -11.6321  -16.8058 C   0  0  2  0  0  0  0  0  0  0  0  0
   19.5883  -12.7978  -15.9905 N   0  0  0  0  0  0  0  0  0  0  0  0
   20.4738  -10.6610  -16.6357 C   0  0  0  0  0  0  0  0  0  0  0  0
   21.2381  -10.7497  -15.6332 O   0  0  0  0  0  0  0  0  0  0  0  0
   20.6459   -9.6498  -17.6108 N   0  0  0  0  0  0  0  0  0  0  0  0
   21.7112   -8.6785  -17.5238 C   0  0  1  0  0  0  0  0  0  0  0  0
   22.0274   -8.2494  -18.9350 C   0  0  0  0  0  0  0  0  0  0  0  0
   22.8821   -9.2363  -19.6398 C   0  0  0  0  0  0  0  0  0  0  0  0
   23.4528  -10.3757  -19.1188 C   0  0  0  0  0  0  0  0  0  0  0  0
   24.1556  -10.9990  -20.0768 N   0  0  0  0  0  0  0  0  0  0  0  0
   24.0508  -10.2839  -21.2103 C   0  0  0  0  0  0  0  0  0  0  0  0
   23.2783   -9.2178  -20.9387 N   0  0  0  0  0  0  0  0  0  0  0  0
   21.2915   -7.5717  -16.6635 C   0  0  0  0  0  0  0  0  0  0  0  0
   20.1081   -7.1255  -16.7231 O   0  0  0  0  0  0  0  0  0  0  0  0
   22.1853   -6.9819  -15.7572 N   0  0  0  0  0  0  0  0  0  0  0  0
   21.7943   -5.9268  -14.8397 C   0  0  1  0  0  0  0  0  0  0  0  0
   22.0575   -6.4736  -13.4347 C   0  0  0  0  0  0  0  0  0  0  0  0
   21.7917   -5.1468  -12.2315 S   0  0  0  0  0  0  0  0  0  0  0  0
   22.5938   -4.7160  -15.0040 C   0  0  0  0  0  0  0  0  0  0  0  0
   23.8216   -4.7653  -15.2499 O   0  0  0  0  0  0  0  0  0  0  0  0
   21.9949   -3.4754  -14.8881 O   0  0  0  0  0  0  0  0  0  0  0  0
  2  1  1  1
  3  2  1  0
  4  5  1  1
  4  6  1  0
  4  2  1  0
  6  7  2  0
  8  9  1  0
  8  6  1  0
  9 10  1  6
 10 11  1  0
 11 15  1  0
 11 12  2  0
 12 13  1  0
 14 13  1  0
 15 14  2  0
 16 17  2  0
 16  9  1  0
 18 16  1  0
 19 22  1  0
 19 18  1  0
 19 20  1  1
 21 20  1  0
 22 24  1  0
 23 22  2  0
M  END
$$$$
