THC.pdb
     RDKit          3D

 24 24  0  0  1  0  0  0  0  0999 V2000
   24.8602   -8.3242  -16.8177 C   0  0  0  0  0  0  0  0  0  0  0  0
   24.5738   -9.6879  -17.3644 C   0  0  1  0  0  0  0  0  0  0  0  0
   25.7177  -10.4539  -17.4046 O   0  0  0  0  0  0  0  0  0  0  0  0
   23.5387  -10.3525  -16.4719 C   0  0  2  0  0  0  0  0  0  0  0  0
   23.3603  -11.7313  -16.8448 N   0  0  0  0  0  0  0  0  0  0  0  0
   22.2626   -9.6103  -16.5952 C   0  0  0  0  0  0  0  0  0  0  0  0
   21.6783   -9.5486  -17.7141 O   0  0  0  0  0  0  0  0  0  0  0  0
   21.7270   -8.9840  -15.4447 N   0  0  0  0  0  0  0  0  0  0  0  0
   20.4389   -8.3310  -15.4605 C   0  0  1  0  0  0  0  0  0  0  0  0
   19.6283   -8.9367  -14.3418 C   0  0  0  0  0  0  0  0  0  0  0  0
   18.9185  -10.1671  -14.7703 C   0  0  0  0  0  0  0  0  0  0  0  0
   18.9658  -10.7768  -16.0037 C   0  0  0  0  0  0  0  0  0  0  0  0
   18.1818  -11.8656  -15.9919 N   0  0  0  0  0  0  0  0  0  0  0  0
   17.6266  -11.9729  -14.7722 C   0  0  0  0  0  0  0  0  0  0  0  0
   18.0769  -10.9413  -14.0375 N   0  0  0  0  0  0  0  0  0  0  0  0
   20.6242   -6.8860  -15.3232 C   0  0  0  0  0  0  0  0  0  0  0  0
   21.3004   -6.4140  -14.3625 O   0  0  0  0  0  0  0  0  0  0  0  0
   20.0600   -5.9941  -16.2475 N   0  0  0  0  0  0  0  0  0  0  0  0
   20.1678   -4.5521  -16.1166 C   0  0  1  0  0  0  0  0  0  0  0  0
   20.1955   -4.0021  -17.5445 C   0  0  0  0  0  0  0  0  0  0  0  0
   20.2219   -2.1929  -17.4738 S   0  0  0  0  0  0  0  0  0  0  0  0
   19.0188   -3.9636  -15.4342 C   0  0  0  0  0  0  0  0  0  0  0  0
   19.1539   -3.0644  -14.5719 O   0  0  0  0  0  0  0  0  0  0  0  0
   17.7420   -4.3993  -15.7365 O   0  0  0  0  0  0  0  0  0  0  0  0
  2  1  1  1
  3  2  1  0
  4  5  1  6
  4  6  1  0
  4  2  1  0
  6  7  2  0
  8  9  1  0
  8  6  1  0
  9 10  1  1
 10 11  1  0
 11 15  1  0
 11 12  2  0
 12 13  1  0
 14 13  1  0
 15 14  2  0
 16 17  2  0
 16  9  1  0
 18 16  1  0
 19 22  1  0
 19 18  1  0
 19 20  1  6
 21 20  1  0
 22 24  1  0
 23 22  2  0
M  END
$$$$
