THC.pdb
     RDKit          3D

 24 24  0  0  1  0  0  0  0  0999 V2000
   25.5486  -16.5819  -14.9327 C   0  0  0  0  0  0  0  0  0  0  0  0
   24.8718  -15.2913  -15.2748 C   0  0  1  0  0  0  0  0  0  0  0  0
   25.7578  -14.2385  -15.2162 O   0  0  0  0  0  0  0  0  0  0  0  0
   24.3015  -15.4084  -16.6786 C   0  0  2  0  0  0  0  0  0  0  0  0
   25.3608  -15.5186  -17.6469 N   0  0  0  0  0  0  0  0  0  0  0  0
   23.4688  -14.2139  -16.9511 C   0  0  0  0  0  0  0  0  0  0  0  0
   23.9401  -13.2641  -17.6388 O   0  0  0  0  0  0  0  0  0  0  0  0
   22.1545  -14.1684  -16.4283 N   0  0  0  0  0  0  0  0  0  0  0  0
   21.2560  -13.0746  -16.7154 C   0  0  1  0  0  0  0  0  0  0  0  0
   19.8583  -13.6418  -16.6995 C   0  0  0  0  0  0  0  0  0  0  0  0
   18.8304  -12.5991  -16.9389 C   0  0  0  0  0  0  0  0  0  0  0  0
   18.5250  -11.9796  -18.1298 C   0  0  0  0  0  0  0  0  0  0  0  0
   17.5376  -11.0934  -17.9297 N   0  0  0  0  0  0  0  0  0  0  0  0
   17.1970  -11.1273  -16.6296 C   0  0  0  0  0  0  0  0  0  0  0  0
   17.9837  -12.0411  -16.0354 N   0  0  0  0  0  0  0  0  0  0  0  0
   21.4582  -12.0083  -15.7340 C   0  0  0  0  0  0  0  0  0  0  0  0
   21.8289  -12.2829  -14.5549 O   0  0  0  0  0  0  0  0  0  0  0  0
   21.2472  -10.6637  -16.0741 N   0  0  0  0  0  0  0  0  0  0  0  0
   21.3907   -9.5785  -15.1203 C   0  0  1  0  0  0  0  0  0  0  0  0
   22.5392   -8.7113  -15.6410 C   0  0  0  0  0  0  0  0  0  0  0  0
   22.7290   -7.2770  -14.5521 S   0  0  0  0  0  0  0  0  0  0  0  0
   20.1983   -8.7394  -15.0420 C   0  0  0  0  0  0  0  0  0  0  0  0
   19.6997   -8.4035  -13.9424 O   0  0  0  0  0  0  0  0  0  0  0  0
   19.5921   -8.2958  -16.2026 O   0  0  0  0  0  0  0  0  0  0  0  0
  2  1  1  6
  3  2  1  0
  4  5  1  6
  4  6  1  0
  4  2  1  0
  6  7  2  0
  8  9  1  0
  8  6  1  0
  9 10  1  1
 10 11  1  0
 11 15  1  0
 11 12  2  0
 12 13  1  0
 14 13  1  0
 15 14  2  0
 16 17  2  0
 16  9  1  0
 18 16  1  0
 19 22  1  0
 19 18  1  0
 19 20  1  6
 21 20  1  0
 22 24  1  0
 23 22  2  0
M  END
$$$$
