THC.pdb
     RDKit          3D

 24 24  0  0  1  0  0  0  0  0999 V2000
   19.2581   -3.0603  -15.7313 C   0  0  0  0  0  0  0  0  0  0  0  0
   18.4543   -3.8171  -16.7421 C   0  0  1  0  0  0  0  0  0  0  0  0
   18.4447   -3.1640  -17.9546 O   0  0  0  0  0  0  0  0  0  0  0  0
   19.0687   -5.1976  -16.9043 C   0  0  2  0  0  0  0  0  0  0  0  0
   18.4433   -5.9047  -17.9910 N   0  0  0  0  0  0  0  0  0  0  0  0
   18.9013   -5.9412  -15.6340 C   0  0  0  0  0  0  0  0  0  0  0  0
   17.7493   -6.3147  -15.2728 O   0  0  0  0  0  0  0  0  0  0  0  0
   20.0480   -6.2159  -14.8515 N   0  0  0  0  0  0  0  0  0  0  0  0
   19.9767   -7.0023  -13.6421 C   0  0  1  0  0  0  0  0  0  0  0  0
   21.3343   -7.6309  -13.4492 C   0  0  0  0  0  0  0  0  0  0  0  0
   21.5185   -8.8327  -14.2995 C   0  0  0  0  0  0  0  0  0  0  0  0
   20.6146   -9.3852  -15.1786 C   0  0  0  0  0  0  0  0  0  0  0  0
   21.1590  -10.4679  -15.7544 N   0  0  0  0  0  0  0  0  0  0  0  0
   22.4006  -10.6274  -15.2641 C   0  0  0  0  0  0  0  0  0  0  0  0
   22.6119   -9.6339  -14.3837 N   0  0  0  0  0  0  0  0  0  0  0  0
   19.5731   -6.1449  -12.5272 C   0  0  0  0  0  0  0  0  0  0  0  0
   20.1629   -5.0443  -12.3176 O   0  0  0  0  0  0  0  0  0  0  0  0
   18.5288   -6.5197  -11.6687 N   0  0  0  0  0  0  0  0  0  0  0  0
   18.0497   -5.6694  -10.5938 C   0  0  1  0  0  0  0  0  0  0  0  0
   17.2579   -4.5467  -11.2680 C   0  0  0  0  0  0  0  0  0  0  0  0
   16.5347   -3.4904   -9.9872 S   0  0  0  0  0  0  0  0  0  0  0  0
   17.1457   -6.3694   -9.6855 C   0  0  0  0  0  0  0  0  0  0  0  0
   16.5279   -7.4016  -10.0364 O   0  0  0  0  0  0  0  0  0  0  0  0
   16.9560   -5.8932   -8.4015 O   0  0  0  0  0  0  0  0  0  0  0  0
  2  1  1  1
  3  2  1  0
  4  5  1  6
  4  6  1  0
  4  2  1  0
  6  7  2  0
  8  9  1  0
  8  6  1  0
  9 10  1  1
 10 11  1  0
 11 15  1  0
 11 12  2  0
 12 13  1  0
 14 13  1  0
 15 14  2  0
 16 17  2  0
 16  9  1  0
 18 16  1  0
 19 22  1  0
 19 18  1  0
 19 20  1  6
 21 20  1  0
 22 24  1  0
 23 22  2  0
M  END
$$$$
