THC.pdb
     RDKit          3D

 24 24  0  0  1  0  0  0  0  0999 V2000
   24.7874  -11.0595  -15.0835 C   0  0  0  0  0  0  0  0  0  0  0  0
   24.4180  -12.0102  -16.1790 C   0  0  1  0  0  0  0  0  0  0  0  0
   25.1411  -13.1785  -16.0835 O   0  0  0  0  0  0  0  0  0  0  0  0
   22.9326  -12.3123  -16.0686 C   0  0  2  0  0  0  0  0  0  0  0  0
   22.5442  -13.3005  -17.0404 N   0  0  0  0  0  0  0  0  0  0  0  0
   22.1784  -11.0540  -16.2752 C   0  0  0  0  0  0  0  0  0  0  0  0
   22.0597  -10.5776  -17.4397 O   0  0  0  0  0  0  0  0  0  0  0  0
   21.6054  -10.4131  -15.1510 N   0  0  0  0  0  0  0  0  0  0  0  0
   20.8767   -9.1717  -15.2688 C   0  0  1  0  0  0  0  0  0  0  0  0
   19.5374   -9.3871  -14.6089 C   0  0  0  0  0  0  0  0  0  0  0  0
   18.5664  -10.0431  -15.5189 C   0  0  0  0  0  0  0  0  0  0  0  0
   18.7406  -10.3546  -16.8485 C   0  0  0  0  0  0  0  0  0  0  0  0
   17.6276  -10.9389  -17.3179 N   0  0  0  0  0  0  0  0  0  0  0  0
   16.7344  -11.0119  -16.3158 C   0  0  0  0  0  0  0  0  0  0  0  0
   17.3093  -10.4678  -15.2294 N   0  0  0  0  0  0  0  0  0  0  0  0
   21.6539   -8.0916  -14.6601 C   0  0  0  0  0  0  0  0  0  0  0  0
   22.1437   -8.2279  -13.5006 O   0  0  0  0  0  0  0  0  0  0  0  0
   21.8736   -6.8859  -15.3430 N   0  0  0  0  0  0  0  0  0  0  0  0
   22.6589   -5.7984  -14.7875 C   0  0  1  0  0  0  0  0  0  0  0  0
   23.0133   -4.8912  -15.9680 C   0  0  0  0  0  0  0  0  0  0  0  0
   23.9715   -5.8457  -17.1720 S   0  0  0  0  0  0  0  0  0  0  0  0
   21.9081   -5.0009  -13.8219 C   0  0  0  0  0  0  0  0  0  0  0  0
   20.6560   -5.0285  -13.7759 O   0  0  0  0  0  0  0  0  0  0  0  0
   22.5819   -4.1891  -12.9284 O   0  0  0  0  0  0  0  0  0  0  0  0
  2  1  1  1
  3  2  1  0
  4  5  1  6
  4  6  1  0
  4  2  1  0
  6  7  2  0
  8  9  1  0
  8  6  1  0
  9 10  1  1
 10 11  1  0
 11 15  1  0
 11 12  2  0
 12 13  1  0
 14 13  1  0
 15 14  2  0
 16 17  2  0
 16  9  1  0
 18 16  1  0
 19 22  1  0
 19 18  1  0
 19 20  1  6
 21 20  1  0
 22 24  1  0
 23 22  2  0
M  END
$$$$
