THC.pdb
     RDKit          3D

 24 24  0  0  1  0  0  0  0  0999 V2000
   24.7581  -31.1243   -6.9436 C   0  0  0  0  0  0  0  0  0  0  0  0
   23.6291  -31.0923   -7.9259 C   0  0  1  0  0  0  0  0  0  0  0  0
   23.2282  -29.7985   -8.1754 O   0  0  0  0  0  0  0  0  0  0  0  0
   24.0993  -31.7447   -9.2155 C   0  0  2  0  0  0  0  0  0  0  0  0
   23.0575  -31.7111  -10.2081 N   0  0  0  0  0  0  0  0  0  0  0  0
   24.4936  -33.1420   -8.9212 C   0  0  0  0  0  0  0  0  0  0  0  0
   23.6082  -34.0402   -8.8417 O   0  0  0  0  0  0  0  0  0  0  0  0
   25.8654  -33.4360   -8.7353 N   0  0  0  0  0  0  0  0  0  0  0  0
   26.3202  -34.7562   -8.3662 C   0  0  1  0  0  0  0  0  0  0  0  0
   27.4801  -35.0877   -9.2720 C   0  0  0  0  0  0  0  0  0  0  0  0
   27.0376  -35.3996  -10.6534 C   0  0  0  0  0  0  0  0  0  0  0  0
   27.3113  -34.6920  -11.8021 C   0  0  0  0  0  0  0  0  0  0  0  0
   26.7279  -35.2981  -12.8474 N   0  0  0  0  0  0  0  0  0  0  0  0
   26.0805  -36.3867  -12.3967 C   0  0  0  0  0  0  0  0  0  0  0  0
   26.2721  -36.4422  -11.0674 N   0  0  0  0  0  0  0  0  0  0  0  0
   26.6735  -34.7699   -6.9463 C   0  0  0  0  0  0  0  0  0  0  0  0
   27.0815  -33.7156   -6.3762 O   0  0  0  0  0  0  0  0  0  0  0  0
   26.5691  -35.9450   -6.1870 N   0  0  0  0  0  0  0  0  0  0  0  0
   26.7645  -35.9727   -4.7486 C   0  0  1  0  0  0  0  0  0  0  0  0
   25.6216  -35.1467   -4.1539 C   0  0  0  0  0  0  0  0  0  0  0  0
   25.7792  -35.1440   -2.3500 S   0  0  0  0  0  0  0  0  0  0  0  0
   26.6742  -37.3214   -4.1964 C   0  0  0  0  0  0  0  0  0  0  0  0
   25.8325  -38.1501   -4.6150 O   0  0  0  0  0  0  0  0  0  0  0  0
   27.5330  -37.7093   -3.1847 O   0  0  0  0  0  0  0  0  0  0  0  0
  2  1  1  1
  3  2  1  0
  4  5  1  6
  4  6  1  0
  4  2  1  0
  6  7  2  0
  8  9  1  0
  8  6  1  0
  9 10  1  6
 10 11  1  0
 11 15  1  0
 11 12  2  0
 12 13  1  0
 14 13  1  0
 15 14  2  0
 16 17  2  0
 16  9  1  0
 18 16  1  0
 19 22  1  0
 19 18  1  0
 19 20  1  1
 21 20  1  0
 22 24  1  0
 23 22  2  0
M  END
$$$$
