THC.pdb
     RDKit          3D

 24 24  0  0  1  0  0  0  0  0999 V2000
   25.3360  -12.2516  -20.2126 C   0  0  0  0  0  0  0  0  0  0  0  0
   24.2644  -11.3586  -19.6696 C   0  0  1  0  0  0  0  0  0  0  0  0
   23.5611  -10.7554  -20.6886 O   0  0  0  0  0  0  0  0  0  0  0  0
   23.3251  -12.2005  -18.8220 C   0  0  2  0  0  0  0  0  0  0  0  0
   22.6717  -13.1969  -19.6296 N   0  0  0  0  0  0  0  0  0  0  0  0
   22.3275  -11.3049  -18.1915 C   0  0  0  0  0  0  0  0  0  0  0  0
   21.2756  -10.9961  -18.8203 O   0  0  0  0  0  0  0  0  0  0  0  0
   22.5824  -10.8146  -16.8887 N   0  0  0  0  0  0  0  0  0  0  0  0
   21.6788   -9.9037  -16.2253 C   0  0  1  0  0  0  0  0  0  0  0  0
   21.8083  -10.1611  -14.7446 C   0  0  0  0  0  0  0  0  0  0  0  0
   20.8916   -9.3088  -13.9481 C   0  0  0  0  0  0  0  0  0  0  0  0
   19.9526   -8.4185  -14.4183 C   0  0  0  0  0  0  0  0  0  0  0  0
   19.3283   -7.8412  -13.3804 N   0  0  0  0  0  0  0  0  0  0  0  0
   19.8458   -8.3416  -12.2450 C   0  0  0  0  0  0  0  0  0  0  0  0
   20.7919   -9.2296  -12.5960 N   0  0  0  0  0  0  0  0  0  0  0  0
   22.0086   -8.5293  -16.6040 C   0  0  0  0  0  0  0  0  0  0  0  0
   23.2163   -8.1586  -16.6874 O   0  0  0  0  0  0  0  0  0  0  0  0
   21.0000   -7.5947  -16.8821 N   0  0  0  0  0  0  0  0  0  0  0  0
   21.2819   -6.2283  -17.2841 C   0  0  1  0  0  0  0  0  0  0  0  0
   21.1038   -6.1927  -18.8036 C   0  0  0  0  0  0  0  0  0  0  0  0
   21.3637   -4.4970  -19.3833 S   0  0  0  0  0  0  0  0  0  0  0  0
   20.3474   -5.2687  -16.7029 C   0  0  0  0  0  0  0  0  0  0  0  0
   19.1180   -5.5025  -16.6377 O   0  0  0  0  0  0  0  0  0  0  0  0
   20.8159   -4.0660  -16.2073 O   0  0  0  0  0  0  0  0  0  0  0  0
  2  1  1  6
  3  2  1  0
  4  5  1  6
  4  6  1  0
  4  2  1  0
  6  7  2  0
  8  9  1  0
  8  6  1  0
  9 10  1  1
 10 11  1  0
 11 15  1  0
 11 12  2  0
 12 13  1  0
 14 13  1  0
 15 14  2  0
 16 17  2  0
 16  9  1  0
 18 16  1  0
 19 22  1  0
 19 18  1  0
 19 20  1  6
 21 20  1  0
 22 24  1  0
 23 22  2  0
M  END
$$$$
