SNW.pdb
     RDKit          3D

 29 30  0  0  1  0  0  0  0  0999 V2000
   20.4464  -17.0084  -16.5680 O   0  0  0  0  0  0  0  0  0  0  0  0
   20.9333  -16.0828  -17.4914 C   0  0  0  0  0  0  0  0  0  0  0  0
   21.6892  -15.0385  -16.6990 C   0  0  2  0  0  0  0  0  0  0  0  0
   20.7984  -14.6761  -15.5918 N   0  0  0  0  0  0  0  0  0  0  0  0
   22.0130  -13.8299  -17.5412 C   0  0  0  0  0  0  0  0  0  0  0  0
   22.4182  -14.0452  -18.6841 O   0  0  0  0  0  0  0  0  0  0  0  0
   19.1262  -10.0365  -19.9470 N   0  0  0  0  0  0  0  0  0  0  0  0
   19.1305  -10.4377  -18.5635 C   0  0  0  0  0  0  0  0  0  0  0  0
   18.5630   -9.6441  -17.7698 O   0  0  0  0  0  0  0  0  0  0  0  0
   19.7709  -11.7007  -18.1406 C   0  0  0  0  0  0  0  0  0  0  0  0
   21.0851  -11.4278  -17.4870 C   0  0  2  0  0  0  0  0  0  0  0  0
   21.8474  -12.5466  -17.0153 N   0  0  0  0  0  0  0  0  0  0  0  0
   21.1181  -10.2811  -16.5952 C   0  0  0  0  0  0  0  0  0  0  0  0
   20.5888   -9.1933  -16.9739 O   0  0  0  0  0  0  0  0  0  0  0  0
   21.6986  -10.2539  -15.3101 N   0  0  0  0  0  0  0  0  0  0  0  0
   22.6152   -9.2298  -14.8744 C   0  0  1  0  0  0  0  0  0  0  0  0
   23.8115   -9.0584  -15.7682 C   0  0  0  0  0  0  0  0  0  0  0  0
   24.7481  -10.1933  -15.5142 C   0  0  0  0  0  0  0  0  0  0  0  0
   24.4678  -11.3594  -14.8388 C   0  0  0  0  0  0  0  0  0  0  0  0
   25.5853  -12.1434  -14.8207 N   0  0  0  0  0  0  0  0  0  0  0  0
   26.5879  -11.5223  -15.4656 C   0  0  0  0  0  0  0  0  0  0  0  0
   27.9003  -11.8881  -15.7226 C   0  0  0  0  0  0  0  0  0  0  0  0
   28.7252  -11.0286  -16.4278 C   0  0  0  0  0  0  0  0  0  0  0  0
   28.2233   -9.8216  -16.8621 C   0  0  0  0  0  0  0  0  0  0  0  0
   26.8983   -9.4696  -16.5942 C   0  0  0  0  0  0  0  0  0  0  0  0
   26.0703  -10.3070  -15.8989 C   0  0  0  0  0  0  0  0  0  0  0  0
   21.8763   -7.9894  -14.6104 C   0  0  0  0  0  0  0  0  0  0  0  0
   21.6126   -7.5075  -13.3222 O   0  0  0  0  0  0  0  0  0  0  0  0
   21.4478   -7.3077  -15.5688 O   0  0  0  0  0  0  0  0  0  0  0  0
  2  3  1  0
  2  1  1  0
  3  4  1  1
  5  3  1  0
  5  6  2  0
  7  8  1  0
  8  9  2  0
 10  8  1  0
 11 10  1  1
 11 12  1  0
 12  5  1  0
 13 11  1  0
 14 13  2  0
 15 13  1  0
 16 17  1  6
 16 15  1  0
 18 17  1  0
 19 18  2  0
 20 21  1  0
 20 19  1  0
 21 26  2  0
 22 21  1  0
 22 23  2  0
 23 24  1  0
 24 25  2  0
 26 18  1  0
 26 25  1  0
 27 16  1  0
 28 27  1  0
 29 27  2  0
M  END
$$$$
