SNW.pdb
     RDKit          3D

 29 30  0  0  1  0  0  0  0  0999 V2000
   28.8962  -21.7115  -14.0527 O   0  0  0  0  0  0  0  0  0  0  0  0
   29.3417  -20.5506  -14.6854 C   0  0  0  0  0  0  0  0  0  0  0  0
   28.1319  -19.9279  -15.3476 C   0  0  2  0  0  0  0  0  0  0  0  0
   28.6491  -18.7687  -16.0821 N   0  0  0  0  0  0  0  0  0  0  0  0
   27.1020  -19.5003  -14.3319 C   0  0  0  0  0  0  0  0  0  0  0  0
   27.2311  -18.3720  -13.8554 O   0  0  0  0  0  0  0  0  0  0  0  0
   22.6422  -18.3408  -14.3414 N   0  0  0  0  0  0  0  0  0  0  0  0
   23.2687  -19.6197  -14.5581 C   0  0  0  0  0  0  0  0  0  0  0  0
   23.4777  -19.9212  -15.7611 O   0  0  0  0  0  0  0  0  0  0  0  0
   23.6246  -20.4938  -13.4209 C   0  0  0  0  0  0  0  0  0  0  0  0
   25.0330  -20.2470  -12.9919 C   0  0  2  0  0  0  0  0  0  0  0  0
   26.0678  -20.3692  -13.9766 N   0  0  0  0  0  0  0  0  0  0  0  0
   25.3979  -20.7836  -11.6918 C   0  0  0  0  0  0  0  0  0  0  0  0
   26.5128  -21.3728  -11.5617 O   0  0  0  0  0  0  0  0  0  0  0  0
   24.6124  -20.7143  -10.5225 N   0  0  0  0  0  0  0  0  0  0  0  0
   25.1104  -21.0457   -9.2106 C   0  0  1  0  0  0  0  0  0  0  0  0
   26.4049  -20.3680   -8.8580 C   0  0  0  0  0  0  0  0  0  0  0  0
   26.6756  -20.6078   -7.4092 C   0  0  0  0  0  0  0  0  0  0  0  0
   26.0258  -21.4978   -6.5845 C   0  0  0  0  0  0  0  0  0  0  0  0
   26.5645  -21.4199   -5.3325 N   0  0  0  0  0  0  0  0  0  0  0  0
   27.5483  -20.5041   -5.3161 C   0  0  0  0  0  0  0  0  0  0  0  0
   28.3918  -20.0586   -4.3100 C   0  0  0  0  0  0  0  0  0  0  0  0
   29.3335  -19.0827   -4.5880 C   0  0  0  0  0  0  0  0  0  0  0  0
   29.4141  -18.5715   -5.8646 C   0  0  0  0  0  0  0  0  0  0  0  0
   28.5562  -19.0325   -6.8659 C   0  0  0  0  0  0  0  0  0  0  0  0
   27.6204  -19.9958   -6.6080 C   0  0  0  0  0  0  0  0  0  0  0  0
   24.0435  -20.8622   -8.2195 C   0  0  0  0  0  0  0  0  0  0  0  0
   22.8380  -20.2051   -8.4958 O   0  0  0  0  0  0  0  0  0  0  0  0
   24.1934  -21.3059   -7.0586 O   0  0  0  0  0  0  0  0  0  0  0  0
  2  3  1  0
  2  1  1  0
  3  4  1  1
  5  3  1  0
  5  6  2  0
  7  8  1  0
  8  9  2  0
 10  8  1  0
 11 10  1  6
 11 12  1  0
 12  5  1  0
 13 11  1  0
 14 13  2  0
 15 13  1  0
 16 17  1  1
 16 15  1  0
 18 17  1  0
 19 18  2  0
 20 21  1  0
 20 19  1  0
 21 26  2  0
 22 21  1  0
 22 23  2  0
 23 24  1  0
 24 25  2  0
 26 18  1  0
 26 25  1  0
 27 16  1  0
 28 27  1  0
 29 27  2  0
M  END
$$$$
