SNW.pdb
     RDKit          3D

 29 30  0  0  1  0  0  0  0  0999 V2000
   29.6626  -21.2318  -15.3968 O   0  0  0  0  0  0  0  0  0  0  0  0
   29.2218  -20.7776  -16.6400 C   0  0  0  0  0  0  0  0  0  0  0  0
   28.8283  -19.3280  -16.4558 C   0  0  2  0  0  0  0  0  0  0  0  0
   30.0916  -18.5832  -16.4570 N   0  0  0  0  0  0  0  0  0  0  0  0
   28.0844  -19.1153  -15.1610 C   0  0  0  0  0  0  0  0  0  0  0  0
   28.5888  -18.3313  -14.3562 O   0  0  0  0  0  0  0  0  0  0  0  0
   23.1893  -18.4161  -12.3010 N   0  0  0  0  0  0  0  0  0  0  0  0
   23.6405  -19.5752  -13.0276 C   0  0  0  0  0  0  0  0  0  0  0  0
   23.2511  -20.6818  -12.5739 O   0  0  0  0  0  0  0  0  0  0  0  0
   24.5045  -19.4366  -14.2185 C   0  0  0  0  0  0  0  0  0  0  0  0
   25.9338  -19.6743  -13.8586 C   0  0  2  0  0  0  0  0  0  0  0  0
   26.8856  -19.7917  -14.9243 N   0  0  0  0  0  0  0  0  0  0  0  0
   26.1612  -20.6063  -12.7673 C   0  0  0  0  0  0  0  0  0  0  0  0
   26.4635  -21.8072  -13.0384 O   0  0  0  0  0  0  0  0  0  0  0  0
   26.0763  -20.3013  -11.3929 N   0  0  0  0  0  0  0  0  0  0  0  0
   26.1817  -21.2929  -10.3516 C   0  0  1  0  0  0  0  0  0  0  0  0
   27.4922  -21.2711   -9.6158 C   0  0  0  0  0  0  0  0  0  0  0  0
   27.3617  -20.3329   -8.4614 C   0  0  0  0  0  0  0  0  0  0  0  0
   26.4858  -19.2770   -8.3510 C   0  0  0  0  0  0  0  0  0  0  0  0
   26.6765  -18.6641   -7.1461 N   0  0  0  0  0  0  0  0  0  0  0  0
   27.6524  -19.2902   -6.4660 C   0  0  0  0  0  0  0  0  0  0  0  0
   28.2132  -19.0642   -5.2183 C   0  0  0  0  0  0  0  0  0  0  0  0
   29.2278  -19.8893   -4.7640 C   0  0  0  0  0  0  0  0  0  0  0  0
   29.6617  -20.9231   -5.5643 C   0  0  0  0  0  0  0  0  0  0  0  0
   29.0849  -21.1361   -6.8185 C   0  0  0  0  0  0  0  0  0  0  0  0
   28.0820  -20.3302   -7.2823 C   0  0  0  0  0  0  0  0  0  0  0  0
   25.0006  -21.2205   -9.4830 C   0  0  0  0  0  0  0  0  0  0  0  0
   24.6971  -22.1821   -8.5113 O   0  0  0  0  0  0  0  0  0  0  0  0
   24.2064  -20.2596   -9.5964 O   0  0  0  0  0  0  0  0  0  0  0  0
  2  3  1  0
  2  1  1  0
  3  4  1  1
  5  3  1  0
  5  6  2  0
  7  8  1  0
  8  9  2  0
 10  8  1  0
 11 10  1  6
 11 12  1  0
 12  5  1  0
 13 11  1  0
 14 13  2  0
 15 13  1  0
 16 17  1  1
 16 15  1  0
 18 17  1  0
 19 18  2  0
 20 21  1  0
 20 19  1  0
 21 26  2  0
 22 21  1  0
 22 23  2  0
 23 24  1  0
 24 25  2  0
 26 18  1  0
 26 25  1  0
 27 16  1  0
 28 27  1  0
 29 27  2  0
M  END
$$$$
