SNW.pdb
     RDKit          3D

 29 30  0  0  1  0  0  0  0  0999 V2000
   26.7555  -16.2500  -13.1462 O   0  0  0  0  0  0  0  0  0  0  0  0
   26.3491  -15.9948  -14.4562 C   0  0  0  0  0  0  0  0  0  0  0  0
   26.7774  -17.1884  -15.2818 C   0  0  2  0  0  0  0  0  0  0  0  0
   26.3063  -16.9050  -16.6414 N   0  0  0  0  0  0  0  0  0  0  0  0
   26.1711  -18.4684  -14.7627 C   0  0  0  0  0  0  0  0  0  0  0  0
   24.9936  -18.6804  -15.0549 O   0  0  0  0  0  0  0  0  0  0  0  0
   29.0681  -20.5015  -14.6270 N   0  0  0  0  0  0  0  0  0  0  0  0
   28.3496  -21.7496  -14.6569 C   0  0  0  0  0  0  0  0  0  0  0  0
   28.9695  -22.7169  -15.1690 O   0  0  0  0  0  0  0  0  0  0  0  0
   26.9775  -21.8497  -14.1172 C   0  0  0  0  0  0  0  0  0  0  0  0
   26.6103  -20.6007  -13.3865 C   0  0  2  0  0  0  0  0  0  0  0  0
   26.9400  -19.3443  -13.9931 N   0  0  0  0  0  0  0  0  0  0  0  0
   26.8204  -20.6280  -11.9489 C   0  0  0  0  0  0  0  0  0  0  0  0
   27.8602  -20.0835  -11.4700 O   0  0  0  0  0  0  0  0  0  0  0  0
   25.9580  -21.2183  -11.0018 N   0  0  0  0  0  0  0  0  0  0  0  0
   26.1616  -21.1273   -9.5774 C   0  0  1  0  0  0  0  0  0  0  0  0
   27.0664  -20.0023   -9.1589 C   0  0  0  0  0  0  0  0  0  0  0  0
   27.0804  -19.9475   -7.6668 C   0  0  0  0  0  0  0  0  0  0  0  0
   26.0062  -19.7106   -6.8395 C   0  0  0  0  0  0  0  0  0  0  0  0
   26.4282  -19.7415   -5.5415 N   0  0  0  0  0  0  0  0  0  0  0  0
   27.7480  -19.9922   -5.4975 C   0  0  0  0  0  0  0  0  0  0  0  0
   28.6383  -20.1231   -4.4428 C   0  0  0  0  0  0  0  0  0  0  0  0
   29.9722  -20.3886   -4.7015 C   0  0  0  0  0  0  0  0  0  0  0  0
   30.3900  -20.5181   -6.0077 C   0  0  0  0  0  0  0  0  0  0  0  0
   29.4789  -20.3833   -7.0578 C   0  0  0  0  0  0  0  0  0  0  0  0
   28.1580  -20.1209   -6.8195 C   0  0  0  0  0  0  0  0  0  0  0  0
   24.8628  -21.1436   -8.8937 C   0  0  0  0  0  0  0  0  0  0  0  0
   24.6598  -21.7259   -7.6364 O   0  0  0  0  0  0  0  0  0  0  0  0
   23.8680  -20.6169   -9.4412 O   0  0  0  0  0  0  0  0  0  0  0  0
  2  3  1  0
  2  1  1  0
  3  4  1  6
  5  3  1  0
  5  6  2  0
  7  8  1  0
  8  9  2  0
 10  8  1  0
 11 10  1  6
 11 12  1  0
 12  5  1  0
 13 11  1  0
 14 13  2  0
 15 13  1  0
 16 17  1  6
 16 15  1  0
 18 17  1  0
 19 18  2  0
 20 21  1  0
 20 19  1  0
 21 26  2  0
 22 21  1  0
 22 23  2  0
 23 24  1  0
 24 25  2  0
 26 18  1  0
 26 25  1  0
 27 16  1  0
 28 27  1  0
 29 27  2  0
M  END
$$$$
