SNW.pdb
     RDKit          3D

 29 30  0  0  1  0  0  0  0  0999 V2000
   22.9828  -10.3885  -19.2269 O   0  0  0  0  0  0  0  0  0  0  0  0
   22.8493  -11.7551  -19.4735 C   0  0  0  0  0  0  0  0  0  0  0  0
   21.7366  -11.9045  -20.4881 C   0  0  2  0  0  0  0  0  0  0  0  0
   22.2424  -11.2709  -21.7102 N   0  0  0  0  0  0  0  0  0  0  0  0
   20.4686  -11.2325  -20.0238 C   0  0  0  0  0  0  0  0  0  0  0  0
   20.3682  -10.0259  -20.2490 O   0  0  0  0  0  0  0  0  0  0  0  0
   15.4694  -13.5672  -17.4035 N   0  0  0  0  0  0  0  0  0  0  0  0
   16.7999  -13.3471  -17.9100 C   0  0  0  0  0  0  0  0  0  0  0  0
   17.7155  -13.9647  -17.3081 O   0  0  0  0  0  0  0  0  0  0  0  0
   17.0366  -12.4472  -19.0581 C   0  0  0  0  0  0  0  0  0  0  0  0
   18.2254  -11.5798  -18.8067 C   0  0  2  0  0  0  0  0  0  0  0  0
   19.4802  -11.9764  -19.3752 N   0  0  0  0  0  0  0  0  0  0  0  0
   18.3379  -11.0409  -17.4619 C   0  0  0  0  0  0  0  0  0  0  0  0
   18.3324  -11.8400  -16.4778 O   0  0  0  0  0  0  0  0  0  0  0  0
   18.4556   -9.6754  -17.1293 N   0  0  0  0  0  0  0  0  0  0  0  0
   18.6120   -9.1980  -15.7779 C   0  0  1  0  0  0  0  0  0  0  0  0
   19.8523   -9.6981  -15.0917 C   0  0  0  0  0  0  0  0  0  0  0  0
   20.2136   -8.7256  -14.0177 C   0  0  0  0  0  0  0  0  0  0  0  0
   19.7994   -8.7537  -12.7054 C   0  0  0  0  0  0  0  0  0  0  0  0
   20.3467   -7.6930  -12.0427 N   0  0  0  0  0  0  0  0  0  0  0  0
   21.1071   -6.9728  -12.8851 C   0  0  0  0  0  0  0  0  0  0  0  0
   21.8639   -5.8245  -12.7091 C   0  0  0  0  0  0  0  0  0  0  0  0
   22.5611   -5.2929  -13.7806 C   0  0  0  0  0  0  0  0  0  0  0  0
   22.4886   -5.9185  -15.0057 C   0  0  0  0  0  0  0  0  0  0  0  0
   21.7213   -7.0748  -15.1646 C   0  0  0  0  0  0  0  0  0  0  0  0
   21.0265   -7.6127  -14.1166 C   0  0  0  0  0  0  0  0  0  0  0  0
   18.4539   -7.7390  -15.7510 C   0  0  0  0  0  0  0  0  0  0  0  0
   17.8671   -7.0458  -14.6850 O   0  0  0  0  0  0  0  0  0  0  0  0
   18.8554   -7.0546  -16.7191 O   0  0  0  0  0  0  0  0  0  0  0  0
  2  3  1  0
  2  1  1  0
  3  4  1  6
  5  3  1  0
  5  6  2  0
  7  8  1  0
  8  9  2  0
 10  8  1  0
 11 10  1  1
 11 12  1  0
 12  5  1  0
 13 11  1  0
 14 13  2  0
 15 13  1  0
 16 17  1  6
 16 15  1  0
 18 17  1  0
 19 18  2  0
 20 21  1  0
 20 19  1  0
 21 26  2  0
 22 21  1  0
 22 23  2  0
 23 24  1  0
 24 25  2  0
 26 18  1  0
 26 25  1  0
 27 16  1  0
 28 27  1  0
 29 27  2  0
M  END
$$$$
