LRI.pdb
     RDKit          3D

 28 27  0  0  1  0  0  0  0  0999 V2000
   25.2540  -14.0229  -18.1885 C   0  0  0  0  0  0  0  0  0  0  0  0
   26.2498  -15.1127  -17.7821 C   0  0  1  0  0  0  0  0  0  0  0  0
   27.6622  -14.6297  -17.8191 C   0  0  0  0  0  0  0  0  0  0  0  0
   25.8603  -15.6624  -16.4252 C   0  0  0  0  0  0  0  0  0  0  0  0
   26.8363  -16.7649  -16.0801 C   0  0  2  0  0  0  0  0  0  0  0  0
   27.4588  -17.2225  -17.3092 N   0  0  0  0  0  0  0  0  0  0  0  0
   26.1741  -17.9204  -15.4450 C   0  0  0  0  0  0  0  0  0  0  0  0
   25.6039  -17.8188  -14.3290 O   0  0  0  0  0  0  0  0  0  0  0  0
   24.0037  -25.3681  -14.0526 N   0  0  0  0  0  0  0  0  0  0  0  0
   22.9737  -25.1188  -15.0166 C   0  0  0  0  0  0  0  0  0  0  0  0
   21.7467  -25.4038  -14.7265 N   0  0  0  0  0  0  0  0  0  0  0  0
   23.3534  -24.5618  -16.2651 N   0  0  0  0  0  0  0  0  0  0  0  0
   24.7185  -24.0186  -16.3552 C   0  0  0  0  0  0  0  0  0  0  0  0
   24.7988  -22.7866  -15.5156 C   0  0  0  0  0  0  0  0  0  0  0  0
   25.4164  -21.6054  -16.1875 C   0  0  0  0  0  0  0  0  0  0  0  0
   25.5314  -20.3527  -15.4097 C   0  0  2  0  0  0  0  0  0  0  0  0
   26.1300  -19.2292  -16.0416 N   0  0  0  0  0  0  0  0  0  0  0  0
   26.2382  -20.6269  -14.0972 C   0  0  0  0  0  0  0  0  0  0  0  0
   27.4777  -20.7840  -14.1263 O   0  0  0  0  0  0  0  0  0  0  0  0
   21.0102  -25.3176  -15.4440 C   0  0  0  0  0  0  0  0  0  0  0  0
   26.0691  -17.9980   -9.6200 C   0  0  0  0  0  0  0  0  0  0  0  0
   26.4536  -18.9861  -10.6517 C   0  0  2  0  0  0  0  0  0  0  0  0
   25.9045  -20.3470  -10.6044 C   0  0  0  0  0  0  0  0  0  0  0  0
   26.2521  -21.0618   -9.2948 C   0  0  2  0  0  0  0  0  0  0  0  0
   26.1995  -21.2815  -11.7083 N   0  0  0  0  0  0  0  0  0  0  0  0
   25.5370  -20.7000  -12.9120 C   0  0  0  0  0  0  0  0  0  0  0  0
   25.7290  -22.6624  -11.5614 O   0  0  0  0  0  0  0  0  0  0  0  0
   26.3870  -23.5071  -10.8354 O   0  0  0  0  0  0  0  0  0  0  0  0
  2  4  1  0
  2  1  1  1
  3  2  1  0
  5  4  1  0
  5  6  1  6
  7  5  1  0
  7  8  2  0
  9 10  1  0
 10 12  1  0
 10 11  2  0
 12 13  1  0
 13 14  1  0
 16 15  1  6
 15 14  1  0
 17 16  1  0
 17  7  1  0
 18 16  1  0
 19 18  2  0
 20 21  1  0
 21 22  1  0
 22 24  1  0
 22 23  1  6
 24 26  1  0
 24 25  1  6
 25 18  1  0
 26 28  1  0
 27 26  2  0
M  END
$$$$
