LRI.pdb
     RDKit          3D

 28 27  0  0  1  0  0  0  0  0999 V2000
   14.4843  -23.7077   -4.0531 C   0  0  0  0  0  0  0  0  0  0  0  0
   15.3544  -24.9050   -4.4455 C   0  0  1  0  0  0  0  0  0  0  0  0
   14.5776  -25.9549   -5.1693 C   0  0  0  0  0  0  0  0  0  0  0  0
   16.5471  -24.4147   -5.2405 C   0  0  0  0  0  0  0  0  0  0  0  0
   17.3411  -25.6278   -5.6706 C   0  0  2  0  0  0  0  0  0  0  0  0
   18.2392  -25.9905   -4.5892 N   0  0  0  0  0  0  0  0  0  0  0  0
   18.1553  -25.3668   -6.8731 C   0  0  0  0  0  0  0  0  0  0  0  0
   19.3637  -25.0301   -6.7876 O   0  0  0  0  0  0  0  0  0  0  0  0
   21.6633  -27.4919  -12.5170 N   0  0  0  0  0  0  0  0  0  0  0  0
   21.2302  -26.8802  -13.7380 C   0  0  0  0  0  0  0  0  0  0  0  0
   22.1044  -26.5550  -14.6329 N   0  0  0  0  0  0  0  0  0  0  0  0
   19.8401  -26.6557  -13.9116 N   0  0  0  0  0  0  0  0  0  0  0  0
   18.9689  -27.0181  -12.7818 C   0  0  0  0  0  0  0  0  0  0  0  0
   19.1530  -26.0116  -11.6946 C   0  0  0  0  0  0  0  0  0  0  0  0
   18.2980  -26.2225  -10.4894 C   0  0  0  0  0  0  0  0  0  0  0  0
   18.4347  -25.2638   -9.3715 C   0  0  2  0  0  0  0  0  0  0  0  0
   17.6399  -25.4748   -8.2124 N   0  0  0  0  0  0  0  0  0  0  0  0
   18.2198  -23.8514   -9.8779 C   0  0  0  0  0  0  0  0  0  0  0  0
   17.0594  -23.3892   -9.8365 O   0  0  0  0  0  0  0  0  0  0  0  0
   21.8012  -26.1457  -15.5302 C   0  0  0  0  0  0  0  0  0  0  0  0
   22.3850  -20.3746   -9.4083 C   0  0  0  0  0  0  0  0  0  0  0  0
   21.0154  -20.9303   -9.4724 C   0  0  2  0  0  0  0  0  0  0  0  0
   20.3217  -21.0238  -10.7630 C   0  0  0  0  0  0  0  0  0  0  0  0
   20.1558  -19.6534  -11.4271 C   0  0  2  0  0  0  0  0  0  0  0  0
   19.0151  -21.7073  -10.8306 N   0  0  0  0  0  0  0  0  0  0  0  0
   19.2693  -23.1025  -10.3672 C   0  0  0  0  0  0  0  0  0  0  0  0
   18.3650  -21.7827  -12.1427 O   0  0  0  0  0  0  0  0  0  0  0  0
   18.7857  -22.6168  -13.0376 O   0  0  0  0  0  0  0  0  0  0  0  0
  2  4  1  0
  2  1  1  6
  3  2  1  0
  5  4  1  0
  5  6  1  1
  7  5  1  0
  7  8  2  0
  9 10  1  0
 10 12  1  0
 10 11  2  0
 12 13  1  0
 13 14  1  0
 16 15  1  6
 15 14  1  0
 17 16  1  0
 17  7  1  0
 18 16  1  0
 19 18  2  0
 20 21  1  0
 21 22  1  0
 22 24  1  0
 22 23  1  6
 24 26  1  0
 24 25  1  1
 25 18  1  0
 26 28  1  0
 27 26  2  0
M  END
$$$$
