LRI.pdb
     RDKit          3D

 28 27  0  0  1  0  0  0  0  0999 V2000
   19.5096  -17.7790  -20.7393 C   0  0  0  0  0  0  0  0  0  0  0  0
   20.4090  -17.1388  -19.6784 C   0  0  1  0  0  0  0  0  0  0  0  0
   21.8230  -17.6080  -19.7786 C   0  0  0  0  0  0  0  0  0  0  0  0
   20.2906  -15.6312  -19.7689 C   0  0  0  0  0  0  0  0  0  0  0  0
   20.9535  -15.0451  -18.5425 C   0  0  2  0  0  0  0  0  0  0  0  0
   20.3494  -15.6467  -17.3675 N   0  0  0  0  0  0  0  0  0  0  0  0
   20.7720  -13.5836  -18.4524 C   0  0  0  0  0  0  0  0  0  0  0  0
   21.2036  -12.8119  -19.3464 O   0  0  0  0  0  0  0  0  0  0  0  0
   15.3319  -13.6026  -16.8254 N   0  0  0  0  0  0  0  0  0  0  0  0
   14.9406  -12.9765  -15.5977 C   0  0  0  0  0  0  0  0  0  0  0  0
   14.2481  -13.6441  -14.7342 N   0  0  0  0  0  0  0  0  0  0  0  0
   15.3372  -11.6313  -15.3825 N   0  0  0  0  0  0  0  0  0  0  0  0
   16.1679  -11.0147  -16.4296 C   0  0  0  0  0  0  0  0  0  0  0  0
   17.5376  -11.6050  -16.3620 C   0  0  0  0  0  0  0  0  0  0  0  0
   18.5247  -11.0171  -17.3151 C   0  0  0  0  0  0  0  0  0  0  0  0
   19.9104  -11.5328  -17.2767 C   0  0  2  0  0  0  0  0  0  0  0  0
   20.0999  -12.9390  -17.3552 N   0  0  0  0  0  0  0  0  0  0  0  0
   20.6231  -10.9972  -16.0509 C   0  0  0  0  0  0  0  0  0  0  0  0
   20.2901  -11.4570  -14.9375 O   0  0  0  0  0  0  0  0  0  0  0  0
   13.9919  -13.2156  -13.8313 C   0  0  0  0  0  0  0  0  0  0  0  0
   25.5683  -11.6293  -15.9742 C   0  0  0  0  0  0  0  0  0  0  0  0
   24.1600  -11.3090  -15.6535 C   0  0  2  0  0  0  0  0  0  0  0  0
   23.7893   -9.9432  -15.2626 C   0  0  0  0  0  0  0  0  0  0  0  0
   24.6384   -9.4287  -14.0960 C   0  0  2  0  0  0  0  0  0  0  0  0
   22.3790   -9.6418  -14.9477 N   0  0  0  0  0  0  0  0  0  0  0  0
   21.6055  -10.0356  -16.1612 C   0  0  0  0  0  0  0  0  0  0  0  0
   22.0446   -8.2487  -14.6361 O   0  0  0  0  0  0  0  0  0  0  0  0
   21.7499   -7.4163  -15.5816 O   0  0  0  0  0  0  0  0  0  0  0  0
  2  4  1  0
  2  1  1  6
  3  2  1  0
  5  4  1  0
  5  6  1  1
  7  5  1  0
  7  8  2  0
  9 10  1  0
 10 12  1  0
 10 11  2  0
 12 13  1  0
 13 14  1  0
 16 15  1  1
 15 14  1  0
 17 16  1  0
 17  7  1  0
 18 16  1  0
 19 18  2  0
 20 21  1  0
 21 22  1  0
 22 24  1  0
 22 23  1  6
 24 26  1  0
 24 25  1  1
 25 18  1  0
 26 28  1  0
 27 26  2  0
M  END
$$$$
