LRI.pdb
     RDKit          3D

 28 27  0  0  1  0  0  0  0  0999 V2000
   33.7356  -21.9336  -10.2182 C   0  0  0  0  0  0  0  0  0  0  0  0
   32.6529  -22.4791  -11.1534 C   0  0  1  0  0  0  0  0  0  0  0  0
   32.0297  -23.7299  -10.6274 C   0  0  0  0  0  0  0  0  0  0  0  0
   31.6329  -21.3918  -11.4223 C   0  0  0  0  0  0  0  0  0  0  0  0
   30.7185  -21.8831  -12.5220 C   0  0  2  0  0  0  0  0  0  0  0  0
   31.3842  -21.6733  -13.7949 N   0  0  0  0  0  0  0  0  0  0  0  0
   29.4358  -21.1544  -12.5511 C   0  0  0  0  0  0  0  0  0  0  0  0
   29.3814  -19.9321  -12.8408 O   0  0  0  0  0  0  0  0  0  0  0  0
   21.4880  -21.9254  -13.2038 N   0  0  0  0  0  0  0  0  0  0  0  0
   21.3976  -20.5234  -13.4840 C   0  0  0  0  0  0  0  0  0  0  0  0
   20.3090  -19.8860  -13.2019 N   0  0  0  0  0  0  0  0  0  0  0  0
   22.5246  -19.8888  -14.0673 N   0  0  0  0  0  0  0  0  0  0  0  0
   23.7165  -20.7269  -14.2766 C   0  0  0  0  0  0  0  0  0  0  0  0
   24.6804  -20.4725  -13.1653 C   0  0  0  0  0  0  0  0  0  0  0  0
   25.9731  -21.2113  -13.2710 C   0  0  0  0  0  0  0  0  0  0  0  0
   26.9506  -21.0499  -12.1728 C   0  0  2  0  0  0  0  0  0  0  0  0
   28.1708  -21.7737  -12.2558 N   0  0  0  0  0  0  0  0  0  0  0  0
   26.2822  -21.3423  -10.8442 C   0  0  0  0  0  0  0  0  0  0  0  0
   26.0523  -22.5373  -10.5596 O   0  0  0  0  0  0  0  0  0  0  0  0
   20.2329  -18.8761  -13.3990 C   0  0  0  0  0  0  0  0  0  0  0  0
   27.9993  -18.7641   -6.6148 C   0  0  0  0  0  0  0  0  0  0  0  0
   27.3664  -19.7146   -7.5554 C   0  0  2  0  0  0  0  0  0  0  0  0
   25.9045  -19.7526   -7.6866 C   0  0  0  0  0  0  0  0  0  0  0  0
   25.2133  -20.0094   -6.3439 C   0  0  2  0  0  0  0  0  0  0  0  0
   25.2936  -20.6603   -8.6774 N   0  0  0  0  0  0  0  0  0  0  0  0
   25.9398  -20.3240   -9.9794 C   0  0  0  0  0  0  0  0  0  0  0  0
   23.8418  -20.5719   -8.8620 O   0  0  0  0  0  0  0  0  0  0  0  0
   23.3372  -19.7402   -9.7148 O   0  0  0  0  0  0  0  0  0  0  0  0
  2  4  1  0
  2  1  1  1
  3  2  1  0
  5  4  1  0
  5  6  1  6
  7  5  1  0
  7  8  2  0
  9 10  1  0
 10 12  1  0
 10 11  2  0
 12 13  1  0
 13 14  1  0
 16 15  1  6
 15 14  1  0
 17 16  1  0
 17  7  1  0
 18 16  1  0
 19 18  2  0
 20 21  1  0
 21 22  1  0
 22 24  1  0
 22 23  1  6
 24 26  1  0
 24 25  1  1
 25 18  1  0
 26 28  1  0
 27 26  2  0
M  END
$$$$
