LRI.pdb
     RDKit          3D

 28 27  0  0  1  0  0  0  0  0999 V2000
   22.7507  -14.4837  -18.3994 C   0  0  0  0  0  0  0  0  0  0  0  0
   21.8561  -15.7047  -18.1684 C   0  0  1  0  0  0  0  0  0  0  0  0
   22.0039  -16.7258  -19.2477 C   0  0  0  0  0  0  0  0  0  0  0  0
   22.1337  -16.2721  -16.7914 C   0  0  0  0  0  0  0  0  0  0  0  0
   21.2417  -17.4790  -16.6048 C   0  0  2  0  0  0  0  0  0  0  0  0
   19.8878  -17.0118  -16.3677 N   0  0  0  0  0  0  0  0  0  0  0  0
   21.6495  -18.3037  -15.4513 C   0  0  0  0  0  0  0  0  0  0  0  0
   21.4170  -17.9413  -14.2699 O   0  0  0  0  0  0  0  0  0  0  0  0
   20.9317  -25.7433  -15.8835 N   0  0  0  0  0  0  0  0  0  0  0  0
   21.8532  -25.5054  -14.8128 C   0  0  0  0  0  0  0  0  0  0  0  0
   22.8708  -26.2881  -14.6619 N   0  0  0  0  0  0  0  0  0  0  0  0
   21.6029  -24.4044  -13.9536 N   0  0  0  0  0  0  0  0  0  0  0  0
   20.4609  -23.5437  -14.3028 C   0  0  0  0  0  0  0  0  0  0  0  0
   20.8608  -22.1182  -14.1103 C   0  0  0  0  0  0  0  0  0  0  0  0
   22.2653  -21.7993  -14.5024 C   0  0  0  0  0  0  0  0  0  0  0  0
   22.6825  -20.3806  -14.4765 C   0  0  2  0  0  0  0  0  0  0  0  0
   22.3324  -19.5633  -15.5853 N   0  0  0  0  0  0  0  0  0  0  0  0
   24.1764  -20.2896  -14.2370 C   0  0  0  0  0  0  0  0  0  0  0  0
   24.9033  -19.9857  -15.2072 O   0  0  0  0  0  0  0  0  0  0  0  0
   23.5135  -26.1563  -13.8656 C   0  0  0  0  0  0  0  0  0  0  0  0
   25.7392  -19.9757   -8.9821 C   0  0  0  0  0  0  0  0  0  0  0  0
   25.6339  -19.7684  -10.4431 C   0  0  2  0  0  0  0  0  0  0  0  0
   26.4238  -20.5992  -11.3604 C   0  0  0  0  0  0  0  0  0  0  0  0
   27.9293  -20.4479  -11.1211 C   0  0  2  0  0  0  0  0  0  0  0  0
   26.1950  -20.4846  -12.8142 N   0  0  0  0  0  0  0  0  0  0  0  0
   24.7144  -20.5336  -12.9908 C   0  0  0  0  0  0  0  0  0  0  0  0
   26.7825  -21.5209  -13.6691 O   0  0  0  0  0  0  0  0  0  0  0  0
   26.2410  -22.6931  -13.7474 O   0  0  0  0  0  0  0  0  0  0  0  0
  2  4  1  0
  2  1  1  6
  3  2  1  0
  5  4  1  0
  5  6  1  1
  7  5  1  0
  7  8  2  0
  9 10  1  0
 10 12  1  0
 10 11  2  0
 12 13  1  0
 13 14  1  0
 16 15  1  6
 15 14  1  0
 17 16  1  0
 17  7  1  0
 18 16  1  0
 19 18  2  0
 20 21  1  0
 21 22  1  0
 22 24  1  0
 22 23  1  6
 24 26  1  0
 24 25  1  6
 25 18  1  0
 26 28  1  0
 27 26  2  0
M  END
$$$$
