GEA.pdb
     RDKit          3D

 19 18  0  0  1  0  0  0  0  0999 V2000
   24.9222  -12.6099  -16.4091 N   0  0  0  0  0  0  0  0  0  0  0  0
   23.7391  -12.2606  -15.6462 C   0  0  0  0  0  0  0  0  0  0  0  0
   23.2714  -10.8816  -15.9733 C   0  0  0  0  0  0  0  0  0  0  0  0
   23.9415  -10.1224  -16.6843 O   0  0  0  0  0  0  0  0  0  0  0  0
   22.0384  -10.4285  -15.4630 N   0  0  0  0  0  0  0  0  0  0  0  0
   21.4490   -9.1537  -15.7652 C   0  0  1  0  0  0  0  0  0  0  0  0
   19.9464   -9.2885  -15.6102 C   0  0  0  0  0  0  0  0  0  0  0  0
   19.2474   -8.0326  -16.1044 C   0  0  0  0  0  0  0  0  0  0  0  0
   17.7875   -8.1334  -16.0040 C   0  0  0  0  0  0  0  0  0  0  0  0
   17.1041   -7.1590  -16.4107 O   0  0  0  0  0  0  0  0  0  0  0  0
   22.0041   -8.0494  -14.9885 C   0  0  0  0  0  0  0  0  0  0  0  0
   22.2859   -8.1914  -13.7720 O   0  0  0  0  0  0  0  0  0  0  0  0
   17.2042   -9.2721  -15.4762 O   0  0  0  0  0  0  0  0  0  0  0  0
   23.1541   -4.5320  -15.9071 C   0  0  0  0  0  0  0  0  0  0  0  0
   22.8998   -5.6895  -14.9501 C   0  0  2  0  0  0  0  0  0  0  0  0
   22.2396   -6.7854  -15.5894 N   0  0  0  0  0  0  0  0  0  0  0  0
   22.0129   -5.1408  -13.8741 C   0  0  0  0  0  0  0  0  0  0  0  0
   22.5394   -4.4117  -12.8427 O   0  0  0  0  0  0  0  0  0  0  0  0
   20.7768   -5.3654  -13.9409 O   0  0  0  0  0  0  0  0  0  0  0  0
  1  2  1  0
  3  4  2  0
  3  2  1  0
  5  3  1  0
  6  5  1  0
  6 11  1  0
  6  7  1  1
  8  7  1  0
  9  8  1  0
 10  9  2  0
 11 12  2  0
 13  9  1  0
 15 14  1  6
 16 11  1  0
 16 15  1  0
 17 18  1  0
 17 15  1  0
 19 17  2  0
M  END
$$$$
