GEA.pdb
     RDKit          3D

 19 18  0  0  1  0  0  0  0  0999 V2000
   18.6629  -10.4283  -19.3648 N   0  0  0  0  0  0  0  0  0  0  0  0
   17.8786   -9.2505  -19.6829 C   0  0  0  0  0  0  0  0  0  0  0  0
   17.8150   -8.3127  -18.5235 C   0  0  0  0  0  0  0  0  0  0  0  0
   16.7580   -8.1080  -17.9138 O   0  0  0  0  0  0  0  0  0  0  0  0
   18.9833   -7.6421  -18.1094 N   0  0  0  0  0  0  0  0  0  0  0  0
   19.0578   -6.7515  -16.9847 C   0  0  1  0  0  0  0  0  0  0  0  0
   20.2007   -7.2138  -16.1015 C   0  0  0  0  0  0  0  0  0  0  0  0
   19.7472   -7.3096  -14.6540 C   0  0  0  0  0  0  0  0  0  0  0  0
   20.7860   -7.8684  -13.7822 C   0  0  0  0  0  0  0  0  0  0  0  0
   20.5091   -8.0206  -12.5648 O   0  0  0  0  0  0  0  0  0  0  0  0
   19.1587   -5.3430  -17.3546 C   0  0  0  0  0  0  0  0  0  0  0  0
   19.9319   -4.9687  -18.2720 O   0  0  0  0  0  0  0  0  0  0  0  0
   22.0218   -8.2093  -14.3041 O   0  0  0  0  0  0  0  0  0  0  0  0
   17.1536   -2.2470  -16.4921 C   0  0  0  0  0  0  0  0  0  0  0  0
   18.4030   -2.9620  -16.9898 C   0  0  2  0  0  0  0  0  0  0  0  0
   18.3844   -4.3595  -16.6857 N   0  0  0  0  0  0  0  0  0  0  0  0
   19.5523   -2.3184  -16.2754 C   0  0  0  0  0  0  0  0  0  0  0  0
   19.9985   -1.0799  -16.6491 O   0  0  0  0  0  0  0  0  0  0  0  0
   20.0958   -2.9413  -15.3270 O   0  0  0  0  0  0  0  0  0  0  0  0
  1  2  1  0
  3  4  2  0
  3  2  1  0
  5  3  1  0
  6  5  1  0
  6 11  1  0
  6  7  1  6
  8  7  1  0
  9  8  1  0
 10  9  2  0
 11 12  2  0
 13  9  1  0
 15 14  1  1
 16 11  1  0
 16 15  1  0
 17 18  1  0
 17 15  1  0
 19 17  2  0
M  END
$$$$
