GEA.pdb
     RDKit          3D

 19 18  0  0  1  0  0  0  0  0999 V2000
   17.0188   -9.5881  -10.7293 N   0  0  0  0  0  0  0  0  0  0  0  0
   17.0313   -9.2582  -12.1416 C   0  0  0  0  0  0  0  0  0  0  0  0
   18.3012   -8.5754  -12.5271 C   0  0  0  0  0  0  0  0  0  0  0  0
   19.0326   -8.0441  -11.6824 O   0  0  0  0  0  0  0  0  0  0  0  0
   18.6808   -8.5320  -13.8836 N   0  0  0  0  0  0  0  0  0  0  0  0
   19.9380   -8.0288  -14.3635 C   0  0  1  0  0  0  0  0  0  0  0  0
   20.2814   -8.7765  -15.6375 C   0  0  0  0  0  0  0  0  0  0  0  0
   20.8421  -10.1510  -15.3111 C   0  0  0  0  0  0  0  0  0  0  0  0
   21.1228  -10.9371  -16.5171 C   0  0  0  0  0  0  0  0  0  0  0  0
   20.2160  -11.6961  -16.9454 O   0  0  0  0  0  0  0  0  0  0  0  0
   19.9671   -6.5788  -14.5296 C   0  0  0  0  0  0  0  0  0  0  0  0
   18.9832   -5.9629  -15.0112 O   0  0  0  0  0  0  0  0  0  0  0  0
   22.3514  -10.8310  -17.1455 O   0  0  0  0  0  0  0  0  0  0  0  0
   22.4076   -3.8837  -13.4068 C   0  0  0  0  0  0  0  0  0  0  0  0
   21.1835   -4.3991  -14.1527 C   0  0  2  0  0  0  0  0  0  0  0  0
   21.1098   -5.8274  -14.1503 N   0  0  0  0  0  0  0  0  0  0  0  0
   21.3332   -3.9166  -15.5634 C   0  0  0  0  0  0  0  0  0  0  0  0
   21.0085   -2.6297  -15.8970 O   0  0  0  0  0  0  0  0  0  0  0  0
   21.7630   -4.7196  -16.4313 O   0  0  0  0  0  0  0  0  0  0  0  0
  1  2  1  0
  3  4  2  0
  3  2  1  0
  5  3  1  0
  6  5  1  0
  6 11  1  0
  6  7  1  6
  8  7  1  0
  9  8  1  0
 10  9  2  0
 11 12  2  0
 13  9  1  0
 15 14  1  1
 16 11  1  0
 16 15  1  0
 17 18  1  0
 17 15  1  0
 19 17  2  0
M  END
$$$$
