GEA.pdb
     RDKit          3D

 19 18  0  0  1  0  0  0  0  0999 V2000
   24.2246  -12.6049  -17.5118 N   0  0  0  0  0  0  0  0  0  0  0  0
   23.5927  -12.1128  -16.3026 C   0  0  0  0  0  0  0  0  0  0  0  0
   22.9372  -10.7919  -16.5330 C   0  0  0  0  0  0  0  0  0  0  0  0
   23.0623  -10.1854  -17.6042 O   0  0  0  0  0  0  0  0  0  0  0  0
   22.1566  -10.2175  -15.5099 N   0  0  0  0  0  0  0  0  0  0  0  0
   21.4225   -8.9891  -15.6356 C   0  0  1  0  0  0  0  0  0  0  0  0
   19.9916   -9.2579  -15.2109 C   0  0  0  0  0  0  0  0  0  0  0  0
   19.3512  -10.2881  -16.1267 C   0  0  0  0  0  0  0  0  0  0  0  0
   17.9473  -10.5393  -15.7843 C   0  0  0  0  0  0  0  0  0  0  0  0
   17.0706  -10.1935  -16.6172 O   0  0  0  0  0  0  0  0  0  0  0  0
   22.0259   -7.8669  -14.9232 C   0  0  0  0  0  0  0  0  0  0  0  0
   22.4860   -8.0096  -13.7624 O   0  0  0  0  0  0  0  0  0  0  0  0
   17.6222  -11.1380  -14.5794 O   0  0  0  0  0  0  0  0  0  0  0  0
   22.7684   -4.2489  -15.8782 C   0  0  0  0  0  0  0  0  0  0  0  0
   22.7526   -5.4494  -14.9407 C   0  0  2  0  0  0  0  0  0  0  0  0
   22.1080   -6.5844  -15.5254 N   0  0  0  0  0  0  0  0  0  0  0  0
   21.9804   -5.0129  -13.7330 C   0  0  0  0  0  0  0  0  0  0  0  0
   20.6894   -5.4263  -13.5456 O   0  0  0  0  0  0  0  0  0  0  0  0
   22.5448   -4.2598  -12.8981 O   0  0  0  0  0  0  0  0  0  0  0  0
  1  2  1  0
  3  4  2  0
  3  2  1  0
  5  3  1  0
  6  5  1  0
  6 11  1  0
  6  7  1  1
  8  7  1  0
  9  8  1  0
 10  9  2  0
 11 12  2  0
 13  9  1  0
 15 14  1  6
 16 11  1  0
 16 15  1  0
 17 18  1  0
 17 15  1  0
 19 17  2  0
M  END
$$$$
