GEA.pdb
     RDKit          3D

 19 18  0  0  1  0  0  0  0  0999 V2000
   18.3394  -26.5919   -3.1521 N   0  0  0  0  0  0  0  0  0  0  0  0
   17.5776  -27.3505   -2.1785 C   0  0  0  0  0  0  0  0  0  0  0  0
   16.9689  -26.4556   -1.1507 C   0  0  0  0  0  0  0  0  0  0  0  0
   17.2349  -25.2481   -1.1046 O   0  0  0  0  0  0  0  0  0  0  0  0
   16.0696  -26.9934   -0.2084 N   0  0  0  0  0  0  0  0  0  0  0  0
   15.4299  -26.2379    0.8327 C   0  0  1  0  0  0  0  0  0  0  0  0
   13.9998  -26.7288    0.9506 C   0  0  0  0  0  0  0  0  0  0  0  0
   13.1589  -26.1933   -0.1968 C   0  0  0  0  0  0  0  0  0  0  0  0
   11.7557  -26.6086   -0.0981 C   0  0  0  0  0  0  0  0  0  0  0  0
   10.9160  -25.7501    0.2758 O   0  0  0  0  0  0  0  0  0  0  0  0
   16.1466  -26.2634    2.1042 C   0  0  0  0  0  0  0  0  0  0  0  0
   16.7808  -27.2852    2.4690 O   0  0  0  0  0  0  0  0  0  0  0  0
   11.3914  -27.9067   -0.4109 O   0  0  0  0  0  0  0  0  0  0  0  0
   16.8689  -23.6379    4.7661 C   0  0  0  0  0  0  0  0  0  0  0  0
   16.8348  -25.0562    4.2118 C   0  0  2  0  0  0  0  0  0  0  0  0
   16.1446  -25.1323    2.9614 N   0  0  0  0  0  0  0  0  0  0  0  0
   16.0998  -25.8739    5.2300 C   0  0  0  0  0  0  0  0  0  0  0  0
   16.7423  -26.3377    6.3456 O   0  0  0  0  0  0  0  0  0  0  0  0
   14.8820  -26.1232    5.0358 O   0  0  0  0  0  0  0  0  0  0  0  0
  1  2  1  0
  3  4  2  0
  3  2  1  0
  5  3  1  0
  6  5  1  0
  6 11  1  0
  6  7  1  1
  8  7  1  0
  9  8  1  0
 10  9  2  0
 11 12  2  0
 13  9  1  0
 15 14  1  1
 16 11  1  0
 16 15  1  0
 17 18  1  0
 17 15  1  0
 19 17  2  0
M  END
$$$$
