GEA.pdb
     RDKit          3D

 19 18  0  0  1  0  0  0  0  0999 V2000
   18.0460  -11.8372  -16.0987 N   0  0  0  0  0  0  0  0  0  0  0  0
   18.6119  -10.6113  -16.6283 C   0  0  0  0  0  0  0  0  0  0  0  0
   18.4873   -9.4906  -15.6504 C   0  0  0  0  0  0  0  0  0  0  0  0
   17.7233   -9.5607  -14.6796 O   0  0  0  0  0  0  0  0  0  0  0  0
   19.2553   -8.3231  -15.8325 N   0  0  0  0  0  0  0  0  0  0  0  0
   19.1375   -7.1358  -15.0322 C   0  0  1  0  0  0  0  0  0  0  0  0
   20.5384   -6.6558  -14.7050 C   0  0  0  0  0  0  0  0  0  0  0  0
   20.4850   -5.4775  -13.7465 C   0  0  0  0  0  0  0  0  0  0  0  0
   21.8220   -5.0079  -13.3683 C   0  0  0  0  0  0  0  0  0  0  0  0
   22.1630   -3.8543  -13.7355 O   0  0  0  0  0  0  0  0  0  0  0  0
   18.3074   -6.0983  -15.6367 C   0  0  0  0  0  0  0  0  0  0  0  0
   18.4997   -5.7242  -16.8210 O   0  0  0  0  0  0  0  0  0  0  0  0
   22.6629   -5.8243  -12.6320 O   0  0  0  0  0  0  0  0  0  0  0  0
   15.0766   -4.3984  -14.6472 C   0  0  0  0  0  0  0  0  0  0  0  0
   16.3940   -4.4674  -15.4087 C   0  0  2  0  0  0  0  0  0  0  0  0
   17.2606   -5.4852  -14.9001 N   0  0  0  0  0  0  0  0  0  0  0  0
   17.0432   -3.1298  -15.2213 C   0  0  0  0  0  0  0  0  0  0  0  0
   16.7656   -2.0960  -16.0738 O   0  0  0  0  0  0  0  0  0  0  0  0
   17.8467   -2.9800  -14.2649 O   0  0  0  0  0  0  0  0  0  0  0  0
  1  2  1  0
  3  4  2  0
  3  2  1  0
  5  3  1  0
  6  5  1  0
  6 11  1  0
  6  7  1  6
  8  7  1  0
  9  8  1  0
 10  9  2  0
 11 12  2  0
 13  9  1  0
 15 14  1  1
 16 11  1  0
 16 15  1  0
 17 18  1  0
 17 15  1  0
 19 17  2  0
M  END
$$$$
