GEA.pdb
     RDKit          3D

 19 18  0  0  1  0  0  0  0  0999 V2000
   15.9511   -9.8683  -15.2412 N   0  0  0  0  0  0  0  0  0  0  0  0
   16.0436   -8.5959  -15.9311 C   0  0  0  0  0  0  0  0  0  0  0  0
   16.9811   -7.6680  -15.2326 C   0  0  0  0  0  0  0  0  0  0  0  0
   16.7500   -7.2537  -14.0899 O   0  0  0  0  0  0  0  0  0  0  0  0
   18.1583   -7.2509  -15.8854 N   0  0  0  0  0  0  0  0  0  0  0  0
   19.1321   -6.3584  -15.3206 C   0  0  1  0  0  0  0  0  0  0  0  0
   20.4468   -7.1082  -15.2221 C   0  0  0  0  0  0  0  0  0  0  0  0
   20.5242   -7.8730  -13.9109 C   0  0  0  0  0  0  0  0  0  0  0  0
   21.8076   -8.5636  -13.7456 C   0  0  0  0  0  0  0  0  0  0  0  0
   22.0762   -9.0364  -12.6115 O   0  0  0  0  0  0  0  0  0  0  0  0
   19.2526   -5.0906  -16.0339 C   0  0  0  0  0  0  0  0  0  0  0  0
   19.2419   -5.0513  -17.2901 O   0  0  0  0  0  0  0  0  0  0  0  0
   22.6777   -8.6789  -14.8159 O   0  0  0  0  0  0  0  0  0  0  0  0
   18.3836   -1.6358  -15.4928 C   0  0  0  0  0  0  0  0  0  0  0  0
   19.4943   -2.5796  -15.9354 C   0  0  2  0  0  0  0  0  0  0  0  0
   19.3850   -3.8683  -15.3248 N   0  0  0  0  0  0  0  0  0  0  0  0
   20.7746   -1.9351  -15.4984 C   0  0  0  0  0  0  0  0  0  0  0  0
   21.2049   -0.7752  -16.0832 O   0  0  0  0  0  0  0  0  0  0  0  0
   21.4425   -2.4836  -14.5841 O   0  0  0  0  0  0  0  0  0  0  0  0
  1  2  1  0
  3  4  2  0
  3  2  1  0
  5  3  1  0
  6  5  1  0
  6 11  1  0
  6  7  1  6
  8  7  1  0
  9  8  1  0
 10  9  2  0
 11 12  2  0
 13  9  1  0
 15 14  1  1
 16 11  1  0
 16 15  1  0
 17 18  1  0
 17 15  1  0
 19 17  2  0
M  END
$$$$
