GEA.pdb
     RDKit          3D

 19 18  0  0  1  0  0  0  0  0999 V2000
   16.6989  -11.8416  -15.3332 N   0  0  0  0  0  0  0  0  0  0  0  0
   16.9408  -10.4671  -15.7280 C   0  0  0  0  0  0  0  0  0  0  0  0
   18.3278  -10.0397  -15.3801 C   0  0  0  0  0  0  0  0  0  0  0  0
   18.8768  -10.4116  -14.3355 O   0  0  0  0  0  0  0  0  0  0  0  0
   19.0330   -9.1928  -16.2584 N   0  0  0  0  0  0  0  0  0  0  0  0
   20.3164   -8.6118  -15.9770 C   0  0  1  0  0  0  0  0  0  0  0  0
   21.1318   -8.6459  -17.2553 C   0  0  0  0  0  0  0  0  0  0  0  0
   21.6822  -10.0420  -17.4962 C   0  0  0  0  0  0  0  0  0  0  0  0
   22.4340  -10.1337  -18.7523 C   0  0  0  0  0  0  0  0  0  0  0  0
   21.8014   -9.9678  -19.8266 O   0  0  0  0  0  0  0  0  0  0  0  0
   20.2426   -7.2795  -15.3849 C   0  0  0  0  0  0  0  0  0  0  0  0
   19.3422   -6.4704  -15.7227 O   0  0  0  0  0  0  0  0  0  0  0  0
   23.7931  -10.3948  -18.7313 O   0  0  0  0  0  0  0  0  0  0  0  0
   22.0166   -5.6192  -12.4675 C   0  0  0  0  0  0  0  0  0  0  0  0
   21.1500   -5.6128  -13.7201 C   0  0  2  0  0  0  0  0  0  0  0  0
   21.1879   -6.8645  -14.4111 N   0  0  0  0  0  0  0  0  0  0  0  0
   21.7199   -4.5454  -14.6041 C   0  0  0  0  0  0  0  0  0  0  0  0
   21.5179   -3.2227  -14.3171 O   0  0  0  0  0  0  0  0  0  0  0  0
   22.3863   -4.8926  -15.6132 O   0  0  0  0  0  0  0  0  0  0  0  0
  1  2  1  0
  3  4  2  0
  3  2  1  0
  5  3  1  0
  6  5  1  0
  6 11  1  0
  6  7  1  6
  8  7  1  0
  9  8  1  0
 10  9  2  0
 11 12  2  0
 13  9  1  0
 15 14  1  1
 16 11  1  0
 16 15  1  0
 17 18  1  0
 17 15  1  0
 19 17  2  0
M  END
$$$$
