YCK.pdb
     RDKit          3D

 28 28  0  0  1  0  0  0  0  0999 V2000
    6.1433  -19.4824   14.2141 O   0  0  0  0  0  0  0  0  0  0  0  0
    7.0374  -19.2542   15.2659 C   0  0  0  0  0  0  0  0  0  0  0  0
    8.3754  -19.4512   15.0883 C   0  0  0  0  0  0  0  0  0  0  0  0
    9.2815  -19.2270   16.1310 C   0  0  0  0  0  0  0  0  0  0  0  0
    8.8465  -18.7990   17.3725 C   0  0  0  0  0  0  0  0  0  0  0  0
    9.7788  -18.5590   18.4752 C   0  0  0  0  0  0  0  0  0  0  0  0
   10.0487  -17.1079   18.7509 C   0  0  2  0  0  0  0  0  0  0  0  0
   10.6278  -16.4120   17.6452 N   0  0  0  0  0  0  0  0  0  0  0  0
   10.9353  -17.0649   19.9549 C   0  0  0  0  0  0  0  0  0  0  0  0
   12.1662  -17.2448   19.8140 O   0  0  0  0  0  0  0  0  0  0  0  0
    7.4894  -18.6079   17.5244 C   0  0  0  0  0  0  0  0  0  0  0  0
    6.5841  -18.8251   16.5048 C   0  0  0  0  0  0  0  0  0  0  0  0
   10.4386  -16.8266   21.2650 N   0  0  0  0  0  0  0  0  0  0  0  0
   11.2780  -16.8049   22.4452 C   0  0  1  0  0  0  0  0  0  0  0  0
   10.7899  -15.6380   23.3149 C   0  0  0  0  0  0  0  0  0  0  0  0
    9.0016  -15.6807   23.4633 S   0  0  0  0  0  0  0  0  0  0  0  0
   11.2194  -18.0779   23.1930 C   0  0  0  0  0  0  0  0  0  0  0  0
   10.1142  -18.5995   23.4809 O   0  0  0  0  0  0  0  0  0  0  0  0
   12.3892  -18.7601   23.6143 N   0  0  0  0  0  0  0  0  0  0  0  0
   12.3395  -20.0055   24.3844 C   0  0  1  0  0  0  0  0  0  0  0  0
   12.9275  -21.0749   23.5156 C   0  0  0  0  0  0  0  0  0  0  0  0
   12.5549  -20.9945   22.0746 C   0  0  0  0  0  0  0  0  0  0  0  0
   13.3213  -21.9561   21.2049 C   0  0  0  0  0  0  0  0  0  0  0  0
   12.8845  -21.8868   19.7582 C   0  0  0  0  0  0  0  0  0  0  0  0
   13.6824  -22.7344   18.9092 N   0  0  0  0  0  0  0  0  0  0  0  0
   13.0522  -19.8558   25.6705 C   0  0  0  0  0  0  0  0  0  0  0  0
   13.0804  -20.8298   26.4867 O   0  0  0  0  0  0  0  0  0  0  0  0
   13.7102  -18.7112   26.0709 O   0  0  0  0  0  0  0  0  0  0  0  0
  2  1  1  0
  2 12  2  0
  3  2  1  0
  4  3  2  0
  4  5  1  0
  5 11  2  0
  6  5  1  0
  7  9  1  0
  7  6  1  0
  7  8  1  6
  9 10  2  0
 11 12  1  0
 13  9  1  0
 13 14  1  0
 14 17  1  0
 15 16  1  0
 14 15  1  1
 17 18  2  0
 19 17  1  0
 19 20  1  0
 20 26  1  0
 20 21  1  6
 22 21  1  0
 23 22  1  0
 24 23  1  0
 25 24  1  0
 26 27  2  0
 26 28  1  0
M  END
$$$$
