YCK.pdb
     RDKit          3D

 28 28  0  0  1  0  0  0  0  0999 V2000
    9.2648  -12.4480   18.2886 O   0  0  0  0  0  0  0  0  0  0  0  0
    8.4718  -13.1446   19.2072 C   0  0  0  0  0  0  0  0  0  0  0  0
    8.1348  -14.4465   18.9790 C   0  0  0  0  0  0  0  0  0  0  0  0
    7.3424  -15.1559   19.8887 C   0  0  0  0  0  0  0  0  0  0  0  0
    6.8778  -14.5573   21.0460 C   0  0  0  0  0  0  0  0  0  0  0  0
    6.0483  -15.2829   22.0094 C   0  0  0  0  0  0  0  0  0  0  0  0
    6.7697  -16.3734   22.7476 C   0  0  2  0  0  0  0  0  0  0  0  0
    5.9152  -17.1741   23.5666 N   0  0  0  0  0  0  0  0  0  0  0  0
    7.8363  -15.7029   23.5540 C   0  0  0  0  0  0  0  0  0  0  0  0
    8.8208  -15.1995   22.9667 O   0  0  0  0  0  0  0  0  0  0  0  0
    7.2333  -13.2410   21.2517 C   0  0  0  0  0  0  0  0  0  0  0  0
    8.0142  -12.5290   20.3631 C   0  0  0  0  0  0  0  0  0  0  0  0
    7.7824  -15.6103   24.9712 N   0  0  0  0  0  0  0  0  0  0  0  0
    8.8407  -15.0334   25.7743 C   0  0  1  0  0  0  0  0  0  0  0  0
    8.2116  -13.8884   26.5802 C   0  0  0  0  0  0  0  0  0  0  0  0
    9.4088  -13.2104   27.7328 S   0  0  0  0  0  0  0  0  0  0  0  0
    9.4627  -16.0282   26.6725 C   0  0  0  0  0  0  0  0  0  0  0  0
    8.8312  -16.4818   27.6584 O   0  0  0  0  0  0  0  0  0  0  0  0
   10.7807  -16.5102   26.4675 N   0  0  0  0  0  0  0  0  0  0  0  0
   11.3689  -17.5682   27.2929 C   0  0  1  0  0  0  0  0  0  0  0  0
   12.5749  -18.0690   26.5589 C   0  0  0  0  0  0  0  0  0  0  0  0
   13.2904  -19.1997   27.2157 C   0  0  0  0  0  0  0  0  0  0  0  0
   14.5269  -19.6353   26.4745 C   0  0  0  0  0  0  0  0  0  0  0  0
   15.1319  -20.8897   27.0652 C   0  0  0  0  0  0  0  0  0  0  0  0
   16.2228  -21.3928   26.2696 N   0  0  0  0  0  0  0  0  0  0  0  0
   11.6896  -17.0621   28.6440 C   0  0  0  0  0  0  0  0  0  0  0  0
   11.9826  -15.8350   28.7988 O   0  0  0  0  0  0  0  0  0  0  0  0
   11.6972  -17.8351   29.7868 O   0  0  0  0  0  0  0  0  0  0  0  0
  2  1  1  0
  2 12  2  0
  3  2  1  0
  4  3  2  0
  4  5  1  0
  5 11  2  0
  6  5  1  0
  7  9  1  0
  7  6  1  0
  7  8  1  1
  9 10  2  0
 11 12  1  0
 13  9  1  0
 13 14  1  0
 14 17  1  0
 15 16  1  0
 14 15  1  1
 17 18  2  0
 19 17  1  0
 19 20  1  0
 20 26  1  0
 20 21  1  6
 22 21  1  0
 23 22  1  0
 24 23  1  0
 25 24  1  0
 26 27  2  0
 26 28  1  0
M  END
$$$$
