YCK.pdb
     RDKit          3D

 28 28  0  0  1  0  0  0  0  0999 V2000
   10.3585  -14.0015   30.8768 O   0  0  0  0  0  0  0  0  0  0  0  0
    9.9673  -14.5855   29.6669 C   0  0  0  0  0  0  0  0  0  0  0  0
    9.5894  -13.8040   28.6147 C   0  0  0  0  0  0  0  0  0  0  0  0
    9.1957  -14.3738   27.3986 C   0  0  0  0  0  0  0  0  0  0  0  0
    9.1784  -15.7465   27.2281 C   0  0  0  0  0  0  0  0  0  0  0  0
    8.7700  -16.3609   25.9639 C   0  0  0  0  0  0  0  0  0  0  0  0
    7.3551  -16.0612   25.5603 C   0  0  2  0  0  0  0  0  0  0  0  0
    6.3832  -16.8552   26.2436 N   0  0  0  0  0  0  0  0  0  0  0  0
    7.2875  -16.2606   24.0793 C   0  0  0  0  0  0  0  0  0  0  0  0
    6.1793  -16.4894   23.5435 O   0  0  0  0  0  0  0  0  0  0  0  0
    9.5650  -16.5125   28.3075 C   0  0  0  0  0  0  0  0  0  0  0  0
    9.9557  -15.9641   29.5129 C   0  0  0  0  0  0  0  0  0  0  0  0
    8.4360  -16.2015   23.2442 N   0  0  0  0  0  0  0  0  0  0  0  0
    8.3878  -16.3757   21.8071 C   0  0  1  0  0  0  0  0  0  0  0  0
    7.3946  -15.3369   21.2678 C   0  0  0  0  0  0  0  0  0  0  0  0
    7.7092  -13.7337   22.0111 S   0  0  0  0  0  0  0  0  0  0  0  0
    9.7157  -16.2072   21.1815 C   0  0  0  0  0  0  0  0  0  0  0  0
   10.5048  -15.3185   21.5867 O   0  0  0  0  0  0  0  0  0  0  0  0
   10.1553  -17.0276   20.1114 N   0  0  0  0  0  0  0  0  0  0  0  0
   11.5510  -17.4484   19.9646 C   0  0  1  0  0  0  0  0  0  0  0  0
   11.5578  -18.5943   18.9996 C   0  0  0  0  0  0  0  0  0  0  0  0
   12.9035  -19.1619   18.7017 C   0  0  0  0  0  0  0  0  0  0  0  0
   12.8626  -20.3266   17.7478 C   0  0  0  0  0  0  0  0  0  0  0  0
   14.2448  -20.8601   17.4419 C   0  0  0  0  0  0  0  0  0  0  0  0
   14.2017  -22.0258   16.5961 N   0  0  0  0  0  0  0  0  0  0  0  0
   12.3951  -16.3197   19.5197 C   0  0  0  0  0  0  0  0  0  0  0  0
   11.8865  -15.4047   18.7989 O   0  0  0  0  0  0  0  0  0  0  0  0
   13.7309  -16.1720   19.8321 O   0  0  0  0  0  0  0  0  0  0  0  0
  2  1  1  0
  2 12  2  0
  3  2  1  0
  4  3  2  0
  4  5  1  0
  5 11  2  0
  6  5  1  0
  7  9  1  0
  7  6  1  0
  7  8  1  1
  9 10  2  0
 11 12  1  0
 13  9  1  0
 13 14  1  0
 14 17  1  0
 15 16  1  0
 14 15  1  6
 17 18  2  0
 19 17  1  0
 19 20  1  0
 20 26  1  0
 20 21  1  6
 22 21  1  0
 23 22  1  0
 24 23  1  0
 25 24  1  0
 26 27  2  0
 26 28  1  0
M  END
$$$$
