YCK.pdb
     RDKit          3D

 28 28  0  0  1  0  0  0  0  0999 V2000
   10.2930  -13.9955   31.1828 O   0  0  0  0  0  0  0  0  0  0  0  0
   10.0859  -14.4575   29.8783 C   0  0  0  0  0  0  0  0  0  0  0  0
    9.4760  -13.6613   28.9538 C   0  0  0  0  0  0  0  0  0  0  0  0
    9.2622  -14.1097   27.6454 C   0  0  0  0  0  0  0  0  0  0  0  0
    9.6632  -15.3737   27.2516 C   0  0  0  0  0  0  0  0  0  0  0  0
    9.4485  -15.8603   25.8879 C   0  0  0  0  0  0  0  0  0  0  0  0
    8.0044  -16.0304   25.5131 C   0  0  2  0  0  0  0  0  0  0  0  0
    7.3270  -17.0290   26.2787 N   0  0  0  0  0  0  0  0  0  0  0  0
    7.9823  -16.3471   24.0514 C   0  0  0  0  0  0  0  0  0  0  0  0
    7.9535  -17.5442   23.6859 O   0  0  0  0  0  0  0  0  0  0  0  0
   10.2769  -16.1573   28.2059 C   0  0  0  0  0  0  0  0  0  0  0  0
   10.4944  -15.7281   29.5001 C   0  0  0  0  0  0  0  0  0  0  0  0
    7.9926  -15.3404   23.0482 N   0  0  0  0  0  0  0  0  0  0  0  0
    8.3400  -15.5949   21.6654 C   0  0  1  0  0  0  0  0  0  0  0  0
    8.0859  -14.2906   20.8971 C   0  0  0  0  0  0  0  0  0  0  0  0
    6.3368  -13.8883   20.9192 S   0  0  0  0  0  0  0  0  0  0  0  0
    9.7448  -16.0279   21.5154 C   0  0  0  0  0  0  0  0  0  0  0  0
   10.6403  -15.5612   22.2616 O   0  0  0  0  0  0  0  0  0  0  0  0
   10.1421  -16.9755   20.5379 N   0  0  0  0  0  0  0  0  0  0  0  0
   11.5015  -17.5183   20.4751 C   0  0  1  0  0  0  0  0  0  0  0  0
   11.4330  -18.7603   19.6402 C   0  0  0  0  0  0  0  0  0  0  0  0
   12.7168  -19.5064   19.5104 C   0  0  0  0  0  0  0  0  0  0  0  0
   12.5953  -20.7668   18.6949 C   0  0  0  0  0  0  0  0  0  0  0  0
   13.8905  -21.5475   18.6581 C   0  0  0  0  0  0  0  0  0  0  0  0
   13.7581  -22.7846   17.9313 N   0  0  0  0  0  0  0  0  0  0  0  0
   12.4424  -16.5152   19.9339 C   0  0  0  0  0  0  0  0  0  0  0  0
   13.6278  -16.4602   20.3893 O   0  0  0  0  0  0  0  0  0  0  0  0
   12.1313  -15.6056   18.9443 O   0  0  0  0  0  0  0  0  0  0  0  0
  2  1  1  0
  2 12  2  0
  3  2  1  0
  4  3  2  0
  4  5  1  0
  5 11  2  0
  6  5  1  0
  7  9  1  0
  7  6  1  0
  7  8  1  1
  9 10  2  0
 11 12  1  0
 13  9  1  0
 13 14  1  0
 14 17  1  0
 15 16  1  0
 14 15  1  6
 17 18  2  0
 19 17  1  0
 19 20  1  0
 20 26  1  0
 20 21  1  6
 22 21  1  0
 23 22  1  0
 24 23  1  0
 25 24  1  0
 26 27  2  0
 26 28  1  0
M  END
$$$$
