YCK.pdb
     RDKit          3D

 28 28  0  0  1  0  0  0  0  0999 V2000
    6.7459  -16.0931   15.2388 O   0  0  0  0  0  0  0  0  0  0  0  0
    7.1423  -15.7536   16.5371 C   0  0  0  0  0  0  0  0  0  0  0  0
    8.0226  -14.7324   16.7442 C   0  0  0  0  0  0  0  0  0  0  0  0
    8.4281  -14.3815   18.0369 C   0  0  0  0  0  0  0  0  0  0  0  0
    7.9480  -15.0603   19.1425 C   0  0  0  0  0  0  0  0  0  0  0  0
    8.3602  -14.7079   20.5021 C   0  0  0  0  0  0  0  0  0  0  0  0
    7.4713  -13.7026   21.1759 C   0  0  2  0  0  0  0  0  0  0  0  0
    7.4558  -12.4275   20.5310 N   0  0  0  0  0  0  0  0  0  0  0  0
    7.9472  -13.5994   22.5902 C   0  0  0  0  0  0  0  0  0  0  0  0
    8.3245  -12.4890   23.0285 O   0  0  0  0  0  0  0  0  0  0  0  0
    7.0598  -16.0879   18.9045 C   0  0  0  0  0  0  0  0  0  0  0  0
    6.6510  -16.4449   17.6349 C   0  0  0  0  0  0  0  0  0  0  0  0
    7.9911  -14.7162   23.4681 N   0  0  0  0  0  0  0  0  0  0  0  0
    8.5068  -14.6491   24.8199 C   0  0  1  0  0  0  0  0  0  0  0  0
    7.7231  -13.5424   25.5389 C   0  0  0  0  0  0  0  0  0  0  0  0
    5.9661  -13.9082   25.5111 S   0  0  0  0  0  0  0  0  0  0  0  0
    8.3706  -15.9367   25.5318 C   0  0  0  0  0  0  0  0  0  0  0  0
    7.2893  -16.5741   25.4982 O   0  0  0  0  0  0  0  0  0  0  0  0
    9.4368  -16.5048   26.2747 N   0  0  0  0  0  0  0  0  0  0  0  0
    9.4048  -17.8840   26.7682 C   0  0  1  0  0  0  0  0  0  0  0  0
   10.2877  -18.6875   25.8632 C   0  0  0  0  0  0  0  0  0  0  0  0
   10.2568  -18.2842   24.4286 C   0  0  0  0  0  0  0  0  0  0  0  0
   11.1657  -19.1097   23.5564 C   0  0  0  0  0  0  0  0  0  0  0  0
   11.2652  -18.5548   22.1526 C   0  0  0  0  0  0  0  0  0  0  0  0
   12.1162  -19.3569   21.3109 N   0  0  0  0  0  0  0  0  0  0  0  0
    9.8275  -17.9447   28.1831 C   0  0  0  0  0  0  0  0  0  0  0  0
   10.3397  -16.9166   28.7273 O   0  0  0  0  0  0  0  0  0  0  0  0
    9.7081  -19.0594   28.9874 O   0  0  0  0  0  0  0  0  0  0  0  0
  2  1  1  0
  2 12  2  0
  3  2  1  0
  4  3  2  0
  4  5  1  0
  5 11  2  0
  6  5  1  0
  7  9  1  0
  7  6  1  0
  7  8  1  6
  9 10  2  0
 11 12  1  0
 13  9  1  0
 13 14  1  0
 14 17  1  0
 15 16  1  0
 14 15  1  1
 17 18  2  0
 19 17  1  0
 19 20  1  0
 20 26  1  0
 20 21  1  6
 22 21  1  0
 23 22  1  0
 24 23  1  0
 25 24  1  0
 26 27  2  0
 26 28  1  0
M  END
$$$$
