YCK.pdb
     RDKit          3D

 28 28  0  0  1  0  0  0  0  0999 V2000
    1.6160  -19.2528   20.0320 O   0  0  0  0  0  0  0  0  0  0  0  0
    2.6372  -18.6304   20.7583 C   0  0  0  0  0  0  0  0  0  0  0  0
    3.6118  -17.9271   20.1133 C   0  0  0  0  0  0  0  0  0  0  0  0
    4.6393  -17.2992   20.8264 C   0  0  0  0  0  0  0  0  0  0  0  0
    4.6966  -17.3736   22.2066 C   0  0  0  0  0  0  0  0  0  0  0  0
    5.7631  -16.7236   22.9699 C   0  0  0  0  0  0  0  0  0  0  0  0
    6.7147  -15.9152   22.1359 C   0  0  2  0  0  0  0  0  0  0  0  0
    7.1148  -16.5664   20.9284 N   0  0  0  0  0  0  0  0  0  0  0  0
    7.8879  -15.6087   23.0119 C   0  0  0  0  0  0  0  0  0  0  0  0
    8.8763  -15.0151   22.5239 O   0  0  0  0  0  0  0  0  0  0  0  0
    3.6991  -18.0906   22.8330 C   0  0  0  0  0  0  0  0  0  0  0  0
    2.6795  -18.7150   22.1424 C   0  0  0  0  0  0  0  0  0  0  0  0
    7.9319  -15.9645   24.3871 N   0  0  0  0  0  0  0  0  0  0  0  0
    8.4075  -15.0753   25.4268 C   0  0  1  0  0  0  0  0  0  0  0  0
    7.5322  -13.8157   25.3675 C   0  0  0  0  0  0  0  0  0  0  0  0
    8.0120  -12.6656   26.6592 S   0  0  0  0  0  0  0  0  0  0  0  0
    8.3413  -15.6985   26.7650 C   0  0  0  0  0  0  0  0  0  0  0  0
    8.6399  -15.0404   27.7917 O   0  0  0  0  0  0  0  0  0  0  0  0
    7.9439  -17.0472   26.9505 N   0  0  0  0  0  0  0  0  0  0  0  0
    8.9041  -18.1201   27.2217 C   0  0  1  0  0  0  0  0  0  0  0  0
    8.9750  -18.9601   25.9833 C   0  0  0  0  0  0  0  0  0  0  0  0
    8.5510  -20.3785   26.1564 C   0  0  0  0  0  0  0  0  0  0  0  0
    8.6007  -21.1767   24.8802 C   0  0  0  0  0  0  0  0  0  0  0  0
    8.2484  -22.6307   25.1046 C   0  0  0  0  0  0  0  0  0  0  0  0
    8.3593  -23.4087   23.8969 N   0  0  0  0  0  0  0  0  0  0  0  0
   10.2162  -17.5634   27.6124 C   0  0  0  0  0  0  0  0  0  0  0  0
   10.7118  -17.8653   28.7433 O   0  0  0  0  0  0  0  0  0  0  0  0
   10.9715  -16.7172   26.8269 O   0  0  0  0  0  0  0  0  0  0  0  0
  2  1  1  0
  2 12  2  0
  3  2  1  0
  4  3  2  0
  4  5  1  0
  5 11  2  0
  6  5  1  0
  7  9  1  0
  7  6  1  0
  7  8  1  6
  9 10  2  0
 11 12  1  0
 13  9  1  0
 13 14  1  0
 14 17  1  0
 15 16  1  0
 14 15  1  1
 17 18  2  0
 19 17  1  0
 19 20  1  0
 20 26  1  0
 20 21  1  6
 22 21  1  0
 23 22  1  0
 24 23  1  0
 25 24  1  0
 26 27  2  0
 26 28  1  0
M  END
$$$$
