YCK.pdb
     RDKit          3D

 28 28  0  0  1  0  0  0  0  0999 V2000
    7.9066  -28.9766   13.1078 O   0  0  0  0  0  0  0  0  0  0  0  0
    8.4943  -27.8634   13.7187 C   0  0  0  0  0  0  0  0  0  0  0  0
    8.3148  -27.6334   15.0512 C   0  0  0  0  0  0  0  0  0  0  0  0
    8.8964  -26.5243   15.6758 C   0  0  0  0  0  0  0  0  0  0  0  0
    9.6704  -25.6287   14.9600 C   0  0  0  0  0  0  0  0  0  0  0  0
   10.2870  -24.4631   15.5955 C   0  0  0  0  0  0  0  0  0  0  0  0
    9.3505  -23.3092   15.8102 C   0  0  2  0  0  0  0  0  0  0  0  0
    8.8856  -22.7144   14.5968 N   0  0  0  0  0  0  0  0  0  0  0  0
   10.0846  -22.3227   16.6618 C   0  0  0  0  0  0  0  0  0  0  0  0
   10.5639  -21.2950   16.1314 O   0  0  0  0  0  0  0  0  0  0  0  0
    9.8353  -25.8850   13.6152 C   0  0  0  0  0  0  0  0  0  0  0  0
    9.2677  -26.9750   12.9858 C   0  0  0  0  0  0  0  0  0  0  0  0
   10.2646  -22.5010   18.0603 N   0  0  0  0  0  0  0  0  0  0  0  0
   10.9166  -21.5274   18.9117 C   0  0  1  0  0  0  0  0  0  0  0  0
    9.8157  -20.8654   19.7519 C   0  0  0  0  0  0  0  0  0  0  0  0
   10.5252  -19.6235   20.8363 S   0  0  0  0  0  0  0  0  0  0  0  0
   11.9405  -22.1448   19.7799 C   0  0  0  0  0  0  0  0  0  0  0  0
   11.6045  -22.8823   20.7389 O   0  0  0  0  0  0  0  0  0  0  0  0
   13.3284  -21.9373   19.5750 N   0  0  0  0  0  0  0  0  0  0  0  0
   14.3461  -22.4659   20.4869 C   0  0  1  0  0  0  0  0  0  0  0  0
   15.6769  -22.1854   19.8589 C   0  0  0  0  0  0  0  0  0  0  0  0
   15.8291  -22.6695   18.4573 C   0  0  0  0  0  0  0  0  0  0  0  0
   17.1622  -22.3242   17.8476 C   0  0  0  0  0  0  0  0  0  0  0  0
   17.2672  -22.7855   16.4107 C   0  0  0  0  0  0  0  0  0  0  0  0
   18.4547  -22.2858   15.7656 N   0  0  0  0  0  0  0  0  0  0  0  0
   14.2087  -21.8661   21.8306 C   0  0  0  0  0  0  0  0  0  0  0  0
   13.9288  -20.6309   21.9383 O   0  0  0  0  0  0  0  0  0  0  0  0
   14.3635  -22.5572   23.0147 O   0  0  0  0  0  0  0  0  0  0  0  0
  2  1  1  0
  2 12  2  0
  3  2  1  0
  4  3  2  0
  4  5  1  0
  5 11  2  0
  6  5  1  0
  7  9  1  0
  7  6  1  0
  7  8  1  6
  9 10  2  0
 11 12  1  0
 13  9  1  0
 13 14  1  0
 14 17  1  0
 15 16  1  0
 14 15  1  1
 17 18  2  0
 19 17  1  0
 19 20  1  0
 20 26  1  0
 20 21  1  6
 22 21  1  0
 23 22  1  0
 24 23  1  0
 25 24  1  0
 26 27  2  0
 26 28  1  0
M  END
$$$$
