IQM.pdb
     RDKit          3D

 26 25  0  0  1  0  0  0  0  0999 V2000
   27.1186  -15.0706  -16.3062 C   0  0  0  0  0  0  0  0  0  0  0  0
   26.6617  -16.4519  -16.6973 C   0  0  0  0  0  0  0  0  0  0  0  0
   26.2335  -17.2838  -15.5043 C   0  0  2  0  0  0  0  0  0  0  0  0
   27.4275  -17.3974  -14.5958 C   0  0  0  0  0  0  0  0  0  0  0  0
   25.7560  -18.6141  -16.0459 C   0  0  2  0  0  0  0  0  0  0  0  0
   24.7221  -18.2731  -17.0391 N   0  0  0  0  0  0  0  0  0  0  0  0
   25.0841  -19.4516  -15.0204 C   0  0  0  0  0  0  0  0  0  0  0  0
   23.9149  -19.1612  -14.5907 O   0  0  0  0  0  0  0  0  0  0  0  0
   25.4103  -25.0736  -15.3427 N   0  0  0  0  0  0  0  0  0  0  0  0
   24.4333  -24.2046  -15.8766 C   0  0  0  0  0  0  0  0  0  0  0  0
   23.9171  -24.5710  -16.9854 O   0  0  0  0  0  0  0  0  0  0  0  0
   24.0238  -22.9392  -15.1978 C   0  0  0  0  0  0  0  0  0  0  0  0
   24.8088  -22.8540  -13.9029 C   0  0  0  0  0  0  0  0  0  0  0  0
   24.9571  -21.4204  -13.4423 C   0  0  2  0  0  0  0  0  0  0  0  0
   25.6392  -20.6121  -14.4322 N   0  0  0  0  0  0  0  0  0  0  0  0
   25.5695  -21.3152  -12.1054 C   0  0  0  0  0  0  0  0  0  0  0  0
   26.8265  -21.1175  -12.0640 O   0  0  0  0  0  0  0  0  0  0  0  0
   27.4587  -17.5292   -9.2911 C   0  0  0  0  0  0  0  0  0  0  0  0
   27.8320  -18.6018   -7.8778 S   0  0  0  0  0  0  0  0  0  0  0  0
   26.9123  -20.1741   -8.0270 C   0  0  0  0  0  0  0  0  0  0  0  0
   26.3640  -20.2440   -9.4196 C   0  0  0  0  0  0  0  0  0  0  0  0
   25.4855  -21.4577   -9.6375 C   0  0  2  0  0  0  0  0  0  0  0  0
   24.8169  -21.4255  -10.9139 N   0  0  0  0  0  0  0  0  0  0  0  0
   24.5048  -21.6067   -8.5297 C   0  0  0  0  0  0  0  0  0  0  0  0
   24.9375  -21.9909   -7.2685 O   0  0  0  0  0  0  0  0  0  0  0  0
   23.2767  -21.3954   -8.6901 O   0  0  0  0  0  0  0  0  0  0  0  0
  1  2  1  0
  3  5  1  0
  3  2  1  0
  3  4  1  1
  5  6  1  6
  7  5  1  0
  7  8  2  0
  9 10  1  0
 10 11  2  0
 12 10  1  0
 12 13  1  0
 14 13  1  6
 14 15  1  0
 15  7  1  0
 16 14  1  0
 17 16  2  0
 19 18  1  0
 19 20  1  0
 21 20  1  0
 22 21  1  1
 22 23  1  0
 23 16  1  0
 24 25  1  0
 24 22  1  0
 26 24  2  0
M  END
$$$$
