IQM.pdb
     RDKit          3D

 26 25  0  0  1  0  0  0  0  0999 V2000
   25.5272  -19.7785  -19.6721 C   0  0  0  0  0  0  0  0  0  0  0  0
   24.6494  -19.5977  -18.4610 C   0  0  0  0  0  0  0  0  0  0  0  0
   23.2097  -19.2921  -18.8251 C   0  0  2  0  0  0  0  0  0  0  0  0
   23.2085  -17.9691  -19.5419 C   0  0  0  0  0  0  0  0  0  0  0  0
   22.4232  -19.2808  -17.5318 C   0  0  2  0  0  0  0  0  0  0  0  0
   23.0620  -18.2411  -16.7055 N   0  0  0  0  0  0  0  0  0  0  0  0
   22.5432  -20.5481  -16.7677 C   0  0  0  0  0  0  0  0  0  0  0  0
   22.1125  -21.6532  -17.2464 O   0  0  0  0  0  0  0  0  0  0  0  0
   25.0956  -24.9628  -14.2513 N   0  0  0  0  0  0  0  0  0  0  0  0
   25.4822  -24.2688  -15.4191 C   0  0  0  0  0  0  0  0  0  0  0  0
   25.9880  -24.9877  -16.3451 O   0  0  0  0  0  0  0  0  0  0  0  0
   25.3151  -22.7927  -15.5711 C   0  0  0  0  0  0  0  0  0  0  0  0
   24.5530  -22.3029  -14.3547 C   0  0  0  0  0  0  0  0  0  0  0  0
   23.1413  -21.8963  -14.7165 C   0  0  2  0  0  0  0  0  0  0  0  0
   23.1222  -20.6670  -15.4826 N   0  0  0  0  0  0  0  0  0  0  0  0
   22.2478  -21.8476  -13.5448 C   0  0  0  0  0  0  0  0  0  0  0  0
   22.6970  -21.2674  -12.5044 O   0  0  0  0  0  0  0  0  0  0  0  0
   20.4976  -18.0091  -10.5474 C   0  0  0  0  0  0  0  0  0  0  0  0
   18.8378  -18.7292  -10.6638 S   0  0  0  0  0  0  0  0  0  0  0  0
   18.9570  -20.5313  -10.9433 C   0  0  0  0  0  0  0  0  0  0  0  0
   19.8946  -20.7472  -12.0919 C   0  0  0  0  0  0  0  0  0  0  0  0
   20.0696  -22.2123  -12.4311 C   0  0  2  0  0  0  0  0  0  0  0  0
   20.9514  -22.4111  -13.5537 N   0  0  0  0  0  0  0  0  0  0  0  0
   18.7531  -22.8607  -12.6708 C   0  0  0  0  0  0  0  0  0  0  0  0
   18.4433  -23.3550  -13.9298 O   0  0  0  0  0  0  0  0  0  0  0  0
   17.8921  -22.9825  -11.7639 O   0  0  0  0  0  0  0  0  0  0  0  0
  1  2  1  0
  3  5  1  0
  3  2  1  0
  3  4  1  1
  5  6  1  1
  7  5  1  0
  7  8  2  0
  9 10  1  0
 10 11  2  0
 12 10  1  0
 12 13  1  0
 14 13  1  1
 14 15  1  0
 15  7  1  0
 16 14  1  0
 17 16  2  0
 19 18  1  0
 19 20  1  0
 21 20  1  0
 22 21  1  6
 22 23  1  0
 23 16  1  0
 24 25  1  0
 24 22  1  0
 26 24  2  0
M  END
$$$$
