IQM.pdb
     RDKit          3D

 26 25  0  0  1  0  0  0  0  0999 V2000
   23.1818  -16.1789  -15.9974 C   0  0  0  0  0  0  0  0  0  0  0  0
   21.8013  -15.6699  -16.3216 C   0  0  0  0  0  0  0  0  0  0  0  0
   21.7137  -14.1568  -16.2817 C   0  0  2  0  0  0  0  0  0  0  0  0
   22.0990  -13.7303  -14.8911 C   0  0  0  0  0  0  0  0  0  0  0  0
   20.2938  -13.7896  -16.6561 C   0  0  2  0  0  0  0  0  0  0  0  0
   20.1368  -14.2436  -18.0493 N   0  0  0  0  0  0  0  0  0  0  0  0
   20.0570  -12.3240  -16.6695 C   0  0  0  0  0  0  0  0  0  0  0  0
   20.6227  -11.5698  -17.5339 O   0  0  0  0  0  0  0  0  0  0  0  0
   15.0286   -8.5359  -15.0198 N   0  0  0  0  0  0  0  0  0  0  0  0
   16.1439   -7.9764  -15.6815 C   0  0  0  0  0  0  0  0  0  0  0  0
   15.8726   -7.2025  -16.6601 O   0  0  0  0  0  0  0  0  0  0  0  0
   17.5509   -8.2641  -15.2722 C   0  0  0  0  0  0  0  0  0  0  0  0
   17.7089   -9.7723  -15.2496 C   0  0  0  0  0  0  0  0  0  0  0  0
   19.0795  -10.1896  -15.7360 C   0  0  2  0  0  0  0  0  0  0  0  0
   19.2160  -11.6314  -15.7674 N   0  0  0  0  0  0  0  0  0  0  0  0
   20.1692   -9.5334  -14.9907 C   0  0  0  0  0  0  0  0  0  0  0  0
   20.5641  -10.1093  -13.9262 O   0  0  0  0  0  0  0  0  0  0  0  0
   25.5681  -10.9707  -14.1164 C   0  0  0  0  0  0  0  0  0  0  0  0
   25.7633   -9.4310  -15.0536 S   0  0  0  0  0  0  0  0  0  0  0  0
   24.4529   -8.2455  -14.5874 C   0  0  0  0  0  0  0  0  0  0  0  0
   23.1656   -8.7472  -15.1673 C   0  0  0  0  0  0  0  0  0  0  0  0
   21.9868   -7.8653  -14.8138 C   0  0  2  0  0  0  0  0  0  0  0  0
   20.7615   -8.3234  -15.4188 N   0  0  0  0  0  0  0  0  0  0  0  0
   22.2586   -6.4488  -15.1756 C   0  0  0  0  0  0  0  0  0  0  0  0
   23.1314   -5.6926  -14.4063 O   0  0  0  0  0  0  0  0  0  0  0  0
   21.7208   -5.8964  -16.1677 O   0  0  0  0  0  0  0  0  0  0  0  0
  1  2  1  0
  3  5  1  0
  3  2  1  0
  3  4  1  1
  5  6  1  6
  7  5  1  0
  7  8  2  0
  9 10  1  0
 10 11  2  0
 12 10  1  0
 12 13  1  0
 14 13  1  1
 14 15  1  0
 15  7  1  0
 16 14  1  0
 17 16  2  0
 19 18  1  0
 19 20  1  0
 21 20  1  0
 22 21  1  6
 22 23  1  0
 23 16  1  0
 24 25  1  0
 24 22  1  0
 26 24  2  0
M  END
$$$$
