IQM.pdb
     RDKit          3D

 26 25  0  0  1  0  0  0  0  0999 V2000
   27.8945  -10.9464  -16.1738 C   0  0  0  0  0  0  0  0  0  0  0  0
   26.5293  -11.5369  -15.9341 C   0  0  0  0  0  0  0  0  0  0  0  0
   25.4221  -10.5063  -16.0381 C   0  0  2  0  0  0  0  0  0  0  0  0
   25.6721   -9.4821  -14.9646 C   0  0  0  0  0  0  0  0  0  0  0  0
   24.1140  -11.2498  -15.8729 C   0  0  2  0  0  0  0  0  0  0  0  0
   24.0948  -12.2366  -16.9671 N   0  0  0  0  0  0  0  0  0  0  0  0
   22.9244  -10.3847  -16.0752 C   0  0  0  0  0  0  0  0  0  0  0  0
   22.5946   -9.9745  -17.2410 O   0  0  0  0  0  0  0  0  0  0  0  0
   17.2074  -10.5632  -14.2050 N   0  0  0  0  0  0  0  0  0  0  0  0
   17.2490   -9.2643  -14.7582 C   0  0  0  0  0  0  0  0  0  0  0  0
   16.1142   -8.7139  -14.9573 O   0  0  0  0  0  0  0  0  0  0  0  0
   18.5291   -8.5716  -15.0916 C   0  0  0  0  0  0  0  0  0  0  0  0
   19.6440   -9.5834  -14.9087 C   0  0  0  0  0  0  0  0  0  0  0  0
   20.9918   -8.9844  -15.2463 C   0  0  2  0  0  0  0  0  0  0  0  0
   22.0628   -9.9390  -15.0457 N   0  0  0  0  0  0  0  0  0  0  0  0
   21.2341   -7.7068  -14.5516 C   0  0  0  0  0  0  0  0  0  0  0  0
   22.2195   -7.6695  -13.7463 O   0  0  0  0  0  0  0  0  0  0  0  0
   24.9716   -1.7037  -15.4588 C   0  0  0  0  0  0  0  0  0  0  0  0
   24.3893   -3.4147  -15.6021 S   0  0  0  0  0  0  0  0  0  0  0  0
   22.7622   -3.5909  -14.7887 C   0  0  0  0  0  0  0  0  0  0  0  0
   22.2795   -4.9858  -15.0460 C   0  0  0  0  0  0  0  0  0  0  0  0
   20.9262   -5.2560  -14.4232 C   0  0  2  0  0  0  0  0  0  0  0  0
   20.4246   -6.5659  -14.7546 N   0  0  0  0  0  0  0  0  0  0  0  0
   19.9484   -4.2026  -14.8047 C   0  0  0  0  0  0  0  0  0  0  0  0
   19.9900   -2.9618  -14.1849 O   0  0  0  0  0  0  0  0  0  0  0  0
   19.0687   -4.3919  -15.6815 O   0  0  0  0  0  0  0  0  0  0  0  0
  1  2  1  0
  3  5  1  0
  3  2  1  0
  3  4  1  1
  5  6  1  6
  7  5  1  0
  7  8  2  0
  9 10  1  0
 10 11  2  0
 12 10  1  0
 12 13  1  0
 14 13  1  1
 14 15  1  0
 15  7  1  0
 16 14  1  0
 17 16  2  0
 19 18  1  0
 19 20  1  0
 21 20  1  0
 22 21  1  6
 22 23  1  0
 23 16  1  0
 24 25  1  0
 24 22  1  0
 26 24  2  0
M  END
$$$$
