IQM.pdb
     RDKit          3D

 26 25  0  0  1  0  0  0  0  0999 V2000
   24.9125  -19.9797   -8.7079 C   0  0  0  0  0  0  0  0  0  0  0  0
   24.7832  -21.3057   -9.4115 C   0  0  0  0  0  0  0  0  0  0  0  0
   24.9756  -21.1910  -10.9110 C   0  0  2  0  0  0  0  0  0  0  0  0
   26.2561  -20.4328  -11.1335 C   0  0  0  0  0  0  0  0  0  0  0  0
   23.7522  -20.4869  -11.4576 C   0  0  2  0  0  0  0  0  0  0  0  0
   22.6214  -21.3699  -11.1213 N   0  0  0  0  0  0  0  0  0  0  0  0
   23.7610  -20.3717  -12.9378 C   0  0  0  0  0  0  0  0  0  0  0  0
   24.2130  -21.3159  -13.6728 O   0  0  0  0  0  0  0  0  0  0  0  0
   19.3351  -17.7510  -15.9284 N   0  0  0  0  0  0  0  0  0  0  0  0
   19.7646  -18.9138  -15.2515 C   0  0  0  0  0  0  0  0  0  0  0  0
   19.0116  -19.3058  -14.2978 O   0  0  0  0  0  0  0  0  0  0  0  0
   21.0144  -19.6439  -15.6186 C   0  0  0  0  0  0  0  0  0  0  0  0
   22.1207  -18.6112  -15.7186 C   0  0  0  0  0  0  0  0  0  0  0  0
   23.4060  -19.1201  -15.1035 C   0  0  2  0  0  0  0  0  0  0  0  0
   23.2906  -19.2538  -13.6657 N   0  0  0  0  0  0  0  0  0  0  0  0
   24.5805  -18.3250  -15.5061 C   0  0  0  0  0  0  0  0  0  0  0  0
   24.7637  -17.2228  -14.8959 O   0  0  0  0  0  0  0  0  0  0  0  0
   29.2507  -21.0831  -12.9014 C   0  0  0  0  0  0  0  0  0  0  0  0
   29.0306  -19.4352  -13.6247 S   0  0  0  0  0  0  0  0  0  0  0  0
   27.8533  -19.5178  -15.0201 C   0  0  0  0  0  0  0  0  0  0  0  0
   27.6072  -18.1147  -15.4845 C   0  0  0  0  0  0  0  0  0  0  0  0
   26.7231  -18.0561  -16.7122 C   0  0  2  0  0  0  0  0  0  0  0  0
   25.4730  -18.7467  -16.5180 N   0  0  0  0  0  0  0  0  0  0  0  0
   27.4385  -18.5818  -17.9050 C   0  0  0  0  0  0  0  0  0  0  0  0
   26.9123  -19.6537  -18.6118 O   0  0  0  0  0  0  0  0  0  0  0  0
   28.5208  -18.0870  -18.3083 O   0  0  0  0  0  0  0  0  0  0  0  0
  1  2  1  0
  3  5  1  0
  3  2  1  0
  3  4  1  1
  5  6  1  6
  7  5  1  0
  7  8  2  0
  9 10  1  0
 10 11  2  0
 12 10  1  0
 12 13  1  0
 14 13  1  1
 14 15  1  0
 15  7  1  0
 16 14  1  0
 17 16  2  0
 19 18  1  0
 19 20  1  0
 21 20  1  0
 22 21  1  1
 22 23  1  0
 23 16  1  0
 24 25  1  0
 24 22  1  0
 26 24  2  0
M  END
$$$$
