IQM.pdb
     RDKit          3D

 26 25  0  0  1  0  0  0  0  0999 V2000
   29.2826  -19.7101  -11.7760 C   0  0  0  0  0  0  0  0  0  0  0  0
   28.2313  -20.7235  -12.1472 C   0  0  0  0  0  0  0  0  0  0  0  0
   26.8326  -20.2778  -11.7682 C   0  0  2  0  0  0  0  0  0  0  0  0
   26.8222  -20.0822  -10.2764 C   0  0  0  0  0  0  0  0  0  0  0  0
   25.8843  -21.3574  -12.2439 C   0  0  2  0  0  0  0  0  0  0  0  0
   26.3741  -21.7335  -13.5819 N   0  0  0  0  0  0  0  0  0  0  0  0
   24.4954  -20.8682  -12.4344 C   0  0  0  0  0  0  0  0  0  0  0  0
   23.6704  -20.8210  -11.4581 O   0  0  0  0  0  0  0  0  0  0  0  0
   22.1941  -17.5300  -17.2953 N   0  0  0  0  0  0  0  0  0  0  0  0
   21.1566  -17.4809  -16.3382 C   0  0  0  0  0  0  0  0  0  0  0  0
   20.2123  -16.6596  -16.5913 O   0  0  0  0  0  0  0  0  0  0  0  0
   21.1542  -18.3285  -15.1089 C   0  0  0  0  0  0  0  0  0  0  0  0
   22.4857  -19.0536  -15.0651 C   0  0  0  0  0  0  0  0  0  0  0  0
   22.6165  -19.8889  -13.8104 C   0  0  2  0  0  0  0  0  0  0  0  0
   23.9562  -20.4200  -13.6628 N   0  0  0  0  0  0  0  0  0  0  0  0
   21.5796  -20.9325  -13.7138 C   0  0  0  0  0  0  0  0  0  0  0  0
   21.8110  -22.0289  -14.3181 O   0  0  0  0  0  0  0  0  0  0  0  0
   19.8761  -23.3589   -8.7531 C   0  0  0  0  0  0  0  0  0  0  0  0
   18.3951  -24.0163   -9.5665 S   0  0  0  0  0  0  0  0  0  0  0  0
   18.3151  -23.4222  -11.2930 C   0  0  0  0  0  0  0  0  0  0  0  0
   19.4016  -22.4057  -11.4697 C   0  0  0  0  0  0  0  0  0  0  0  0
   19.4345  -21.8281  -12.8688 C   0  0  2  0  0  0  0  0  0  0  0  0
   20.3792  -20.7465  -12.9908 N   0  0  0  0  0  0  0  0  0  0  0  0
   18.0769  -21.3958  -13.2947 C   0  0  0  0  0  0  0  0  0  0  0  0
   17.1256  -22.3439  -13.6433 O   0  0  0  0  0  0  0  0  0  0  0  0
   17.7480  -20.1847  -13.3538 O   0  0  0  0  0  0  0  0  0  0  0  0
  1  2  1  0
  3  5  1  0
  3  2  1  0
  3  4  1  1
  5  6  1  6
  7  5  1  0
  7  8  2  0
  9 10  1  0
 10 11  2  0
 12 10  1  0
 12 13  1  0
 14 13  1  6
 14 15  1  0
 15  7  1  0
 16 14  1  0
 17 16  2  0
 19 18  1  0
 19 20  1  0
 21 20  1  0
 22 21  1  1
 22 23  1  0
 23 16  1  0
 24 25  1  0
 24 22  1  0
 26 24  2  0
M  END
$$$$
