IQM.pdb
     RDKit          3D

 26 25  0  0  1  0  0  0  0  0999 V2000
   17.7511  -13.2670  -16.1222 C   0  0  0  0  0  0  0  0  0  0  0  0
   18.3356  -11.9954  -15.5643 C   0  0  0  0  0  0  0  0  0  0  0  0
   17.2754  -10.9643  -15.2300 C   0  0  2  0  0  0  0  0  0  0  0  0
   16.5287  -10.6722  -16.5032 C   0  0  0  0  0  0  0  0  0  0  0  0
   17.9974   -9.7613  -14.6619 C   0  0  2  0  0  0  0  0  0  0  0  0
   18.6515  -10.2522  -13.4361 N   0  0  0  0  0  0  0  0  0  0  0  0
   17.0755   -8.6791  -14.2337 C   0  0  0  0  0  0  0  0  0  0  0  0
   16.3676   -8.0373  -15.0840 O   0  0  0  0  0  0  0  0  0  0  0  0
   14.6695   -7.6485   -8.5378 N   0  0  0  0  0  0  0  0  0  0  0  0
   15.8842   -6.9548   -8.7335 C   0  0  0  0  0  0  0  0  0  0  0  0
   16.4559   -6.5350   -7.6718 O   0  0  0  0  0  0  0  0  0  0  0  0
   16.4697   -6.7223  -10.0873 C   0  0  0  0  0  0  0  0  0  0  0  0
   15.5126   -7.3270  -11.0966 C   0  0  0  0  0  0  0  0  0  0  0  0
   16.0251   -7.1595  -12.5103 C   0  0  2  0  0  0  0  0  0  0  0  0
   16.8871   -8.2578  -12.8966 N   0  0  0  0  0  0  0  0  0  0  0  0
   16.6500   -5.8431  -12.7341 C   0  0  0  0  0  0  0  0  0  0  0  0
   17.8876   -5.8388  -13.0325 O   0  0  0  0  0  0  0  0  0  0  0  0
   18.2640   -0.7138  -17.5111 C   0  0  0  0  0  0  0  0  0  0  0  0
   17.8613   -2.3269  -16.7880 S   0  0  0  0  0  0  0  0  0  0  0  0
   17.4905   -2.1385  -15.0084 C   0  0  0  0  0  0  0  0  0  0  0  0
   16.9433   -3.4458  -14.5221 C   0  0  0  0  0  0  0  0  0  0  0  0
   16.5254   -3.3955  -13.0678 C   0  0  2  0  0  0  0  0  0  0  0  0
   15.9291   -4.6317  -12.6281 N   0  0  0  0  0  0  0  0  0  0  0  0
   15.6114   -2.2491  -12.8194 C   0  0  0  0  0  0  0  0  0  0  0  0
   16.1236   -0.9632  -12.7225 O   0  0  0  0  0  0  0  0  0  0  0  0
   14.3705   -2.3982  -12.6908 O   0  0  0  0  0  0  0  0  0  0  0  0
  1  2  1  0
  3  5  1  0
  3  2  1  0
  3  4  1  6
  5  6  1  1
  7  5  1  0
  7  8  2  0
  9 10  1  0
 10 11  2  0
 12 10  1  0
 12 13  1  0
 14 13  1  1
 14 15  1  0
 15  7  1  0
 16 14  1  0
 17 16  2  0
 19 18  1  0
 19 20  1  0
 21 20  1  0
 22 21  1  6
 22 23  1  0
 23 16  1  0
 24 25  1  0
 24 22  1  0
 26 24  2  0
M  END
$$$$
