IQM.pdb
     RDKit          3D

 26 25  0  0  1  0  0  0  0  0999 V2000
   22.5362  -17.2819  -21.2460 C   0  0  0  0  0  0  0  0  0  0  0  0
   22.1341  -17.1504  -19.8001 C   0  0  0  0  0  0  0  0  0  0  0  0
   22.1280  -18.4811  -19.0735 C   0  0  2  0  0  0  0  0  0  0  0  0
   21.2334  -19.4048  -19.8547 C   0  0  0  0  0  0  0  0  0  0  0  0
   21.6387  -18.2105  -17.6669 C   0  0  2  0  0  0  0  0  0  0  0  0
   22.6769  -17.3598  -17.0585 N   0  0  0  0  0  0  0  0  0  0  0  0
   21.5658  -19.4356  -16.8313 C   0  0  0  0  0  0  0  0  0  0  0  0
   20.8340  -20.4275  -17.1729 O   0  0  0  0  0  0  0  0  0  0  0  0
   25.8423  -21.4340  -12.7798 N   0  0  0  0  0  0  0  0  0  0  0  0
   25.8963  -21.3109  -14.1858 C   0  0  0  0  0  0  0  0  0  0  0  0
   27.0621  -21.3867  -14.7009 O   0  0  0  0  0  0  0  0  0  0  0  0
   24.6774  -21.1054  -15.0236 C   0  0  0  0  0  0  0  0  0  0  0  0
   23.4868  -21.0991  -14.0840 C   0  0  0  0  0  0  0  0  0  0  0  0
   22.1964  -20.8461  -14.8324 C   0  0  2  0  0  0  0  0  0  0  0  0
   22.2674  -19.6316  -15.6188 N   0  0  0  0  0  0  0  0  0  0  0  0
   21.0143  -20.8827  -13.9521 C   0  0  0  0  0  0  0  0  0  0  0  0
   20.7951  -19.8486  -13.2426 O   0  0  0  0  0  0  0  0  0  0  0  0
   13.5839  -20.8607  -13.2873 C   0  0  0  0  0  0  0  0  0  0  0  0
   15.0839  -21.2913  -14.2102 S   0  0  0  0  0  0  0  0  0  0  0  0
   16.4987  -21.4488  -13.0642 C   0  0  0  0  0  0  0  0  0  0  0  0
   17.7425  -21.5385  -13.8949 C   0  0  0  0  0  0  0  0  0  0  0  0
   18.9551  -21.9419  -13.0830 C   0  0  2  0  0  0  0  0  0  0  0  0
   20.1525  -22.0011  -13.8830 N   0  0  0  0  0  0  0  0  0  0  0  0
   18.7193  -23.2345  -12.3866 C   0  0  0  0  0  0  0  0  0  0  0  0
   17.9622  -23.2670  -11.2243 O   0  0  0  0  0  0  0  0  0  0  0  0
   19.1857  -24.3199  -12.8142 O   0  0  0  0  0  0  0  0  0  0  0  0
  1  2  1  0
  3  5  1  0
  3  2  1  0
  3  4  1  6
  5  6  1  1
  7  5  1  0
  7  8  2  0
  9 10  1  0
 10 11  2  0
 12 10  1  0
 12 13  1  0
 14 13  1  1
 14 15  1  0
 15  7  1  0
 16 14  1  0
 17 16  2  0
 19 18  1  0
 19 20  1  0
 21 20  1  0
 22 21  1  6
 22 23  1  0
 23 16  1  0
 24 25  1  0
 24 22  1  0
 26 24  2  0
M  END
$$$$
