GCR.pdb
     RDKit          3D

 22 21  0  0  1  0  0  0  0  0999 V2000
   18.1683  -25.0752   -9.1962 N   0  0  0  0  0  0  0  0  0  0  0  0
   17.8176  -23.6931   -9.4585 C   0  0  0  0  0  0  0  0  0  0  0  0
   18.0815  -23.3669  -10.9006 C   0  0  0  0  0  0  0  0  0  0  0  0
   18.7904  -24.1258  -11.6082 O   0  0  0  0  0  0  0  0  0  0  0  0
   17.5187  -22.1937  -11.4452 N   0  0  0  0  0  0  0  0  0  0  0  0
   17.7201  -21.8877  -12.8772 C   0  0  1  0  0  0  0  0  0  0  0  0
   16.4867  -21.1263  -13.3301 C   0  0  0  0  0  0  0  0  0  0  0  0
   15.1444  -22.2955  -13.6094 S   0  0  0  0  0  0  0  0  0  0  0  0
   18.9565  -21.0809  -12.9462 C   0  0  0  0  0  0  0  0  0  0  0  0
   19.0387  -19.9802  -12.2995 O   0  0  0  0  0  0  0  0  0  0  0  0
   27.6813  -20.4461  -12.9997 N   0  0  0  0  0  0  0  0  0  0  0  0
   26.9849  -21.0128  -11.9100 C   0  0  0  0  0  0  0  0  0  0  0  0
   27.5023  -21.0304  -10.7125 N   0  0  0  0  0  0  0  0  0  0  0  0
   25.7004  -21.5760  -12.0716 N   0  0  0  0  0  0  0  0  0  0  0  0
   24.9843  -21.5204  -13.2960 C   0  0  0  0  0  0  0  0  0  0  0  0
   23.7565  -20.6794  -13.2438 C   0  0  0  0  0  0  0  0  0  0  0  0
   22.4913  -21.4536  -13.1714 C   0  0  0  0  0  0  0  0  0  0  0  0
   21.3163  -20.5988  -13.6458 C   0  0  2  0  0  0  0  0  0  0  0  0
   20.1114  -21.4225  -13.6897 N   0  0  0  0  0  0  0  0  0  0  0  0
   21.6464  -19.9996  -14.9510 C   0  0  0  0  0  0  0  0  0  0  0  0
   21.0226  -20.4012  -16.1010 O   0  0  0  0  0  0  0  0  0  0  0  0
   22.5366  -19.0922  -14.9611 O   0  0  0  0  0  0  0  0  0  0  0  0
  1  2  1  0
  2  3  1  0
  3  5  1  0
  4  3  2  0
  5  6  1  0
  6  9  1  0
  6  7  1  1
  8  7  1  0
  9 10  2  0
  9 19  1  0
 11 12  1  0
 12 13  2  0
 12 14  1  0
 14 15  1  0
 15 16  1  0
 17 16  1  0
 18 17  1  6
 18 20  1  0
 19 18  1  0
 20 22  2  0
 20 21  1  0
M  END
$$$$
