GCR.pdb
     RDKit          3D

 22 21  0  0  1  0  0  0  0  0999 V2000
   22.8761  -14.5636  -18.0731 N   0  0  0  0  0  0  0  0  0  0  0  0
   23.3668  -13.2767  -18.5263 C   0  0  0  0  0  0  0  0  0  0  0  0
   23.4050  -12.3133  -17.3747 C   0  0  0  0  0  0  0  0  0  0  0  0
   22.6931  -12.5051  -16.3571 O   0  0  0  0  0  0  0  0  0  0  0  0
   24.2547  -11.1903  -17.4569 N   0  0  0  0  0  0  0  0  0  0  0  0
   24.2592  -10.2001  -16.3596 C   0  0  1  0  0  0  0  0  0  0  0  0
   25.6648   -9.6281  -16.3044 C   0  0  0  0  0  0  0  0  0  0  0  0
   26.7487  -10.8117  -15.4853 S   0  0  0  0  0  0  0  0  0  0  0  0
   23.2383   -9.1943  -16.7211 C   0  0  0  0  0  0  0  0  0  0  0  0
   23.1780   -8.7462  -17.9178 O   0  0  0  0  0  0  0  0  0  0  0  0
   14.8605   -7.1174  -14.4545 N   0  0  0  0  0  0  0  0  0  0  0  0
   15.2497   -6.3354  -15.5638 C   0  0  0  0  0  0  0  0  0  0  0  0
   14.3927   -5.5776  -16.1909 N   0  0  0  0  0  0  0  0  0  0  0  0
   16.5813   -6.3373  -16.0333 N   0  0  0  0  0  0  0  0  0  0  0  0
   17.5952   -7.1545  -15.4684 C   0  0  0  0  0  0  0  0  0  0  0  0
   18.9338   -6.9838  -16.0979 C   0  0  0  0  0  0  0  0  0  0  0  0
   19.9780   -7.8948  -15.5639 C   0  0  0  0  0  0  0  0  0  0  0  0
   21.3087   -7.6550  -16.2766 C   0  0  2  0  0  0  0  0  0  0  0  0
   22.2764   -8.6549  -15.8340 N   0  0  0  0  0  0  0  0  0  0  0  0
   21.7560   -6.2746  -16.0202 C   0  0  0  0  0  0  0  0  0  0  0  0
   21.3687   -5.2360  -16.8230 O   0  0  0  0  0  0  0  0  0  0  0  0
   22.5178   -6.0910  -15.0191 O   0  0  0  0  0  0  0  0  0  0  0  0
  1  2  1  0
  2  3  1  0
  3  5  1  0
  4  3  2  0
  5  6  1  0
  6  9  1  0
  6  7  1  6
  8  7  1  0
  9 10  2  0
  9 19  1  0
 11 12  1  0
 12 13  2  0
 12 14  1  0
 14 15  1  0
 15 16  1  0
 17 16  1  0
 18 17  1  1
 18 20  1  0
 19 18  1  0
 20 22  2  0
 20 21  1  0
M  END
$$$$
