GCR.pdb
     RDKit          3D

 22 21  0  0  1  0  0  0  0  0999 V2000
   31.3779  -21.8319  -10.4913 N   0  0  0  0  0  0  0  0  0  0  0  0
   30.4001  -21.0937  -11.2666 C   0  0  0  0  0  0  0  0  0  0  0  0
   29.0167  -21.5662  -10.9220 C   0  0  0  0  0  0  0  0  0  0  0  0
   28.6643  -22.7466  -11.1698 O   0  0  0  0  0  0  0  0  0  0  0  0
   28.1216  -20.6605  -10.3151 N   0  0  0  0  0  0  0  0  0  0  0  0
   26.7617  -21.1139   -9.9546 C   0  0  1  0  0  0  0  0  0  0  0  0
   26.3926  -20.3852   -8.6744 C   0  0  0  0  0  0  0  0  0  0  0  0
   24.6831  -20.7679   -8.2529 S   0  0  0  0  0  0  0  0  0  0  0  0
   25.8995  -20.7487  -11.0982 C   0  0  0  0  0  0  0  0  0  0  0  0
   25.8769  -19.5419  -11.5221 O   0  0  0  0  0  0  0  0  0  0  0  0
   23.2947  -22.2970  -18.2850 N   0  0  0  0  0  0  0  0  0  0  0  0
   22.8112  -20.9920  -18.0470 C   0  0  0  0  0  0  0  0  0  0  0  0
   21.9065  -20.4549  -18.8184 N   0  0  0  0  0  0  0  0  0  0  0  0
   23.2820  -20.2203  -16.9624 N   0  0  0  0  0  0  0  0  0  0  0  0
   24.0061  -20.7796  -15.8771 C   0  0  0  0  0  0  0  0  0  0  0  0
   23.2251  -21.7508  -15.0621 C   0  0  0  0  0  0  0  0  0  0  0  0
   23.9528  -22.2760  -13.8789 C   0  0  0  0  0  0  0  0  0  0  0  0
   24.1442  -21.1724  -12.8387 C   0  0  2  0  0  0  0  0  0  0  0  0
   25.0596  -21.6435  -11.8032 N   0  0  0  0  0  0  0  0  0  0  0  0
   22.8301  -20.7764  -12.3022 C   0  0  0  0  0  0  0  0  0  0  0  0
   22.3357  -21.3190  -11.1472 O   0  0  0  0  0  0  0  0  0  0  0  0
   22.1760  -19.9073  -12.9602 O   0  0  0  0  0  0  0  0  0  0  0  0
  1  2  1  0
  2  3  1  0
  3  5  1  0
  4  3  2  0
  5  6  1  0
  6  9  1  0
  6  7  1  1
  8  7  1  0
  9 10  2  0
  9 19  1  0
 11 12  1  0
 12 13  2  0
 12 14  1  0
 14 15  1  0
 15 16  1  0
 17 16  1  0
 18 17  1  6
 18 20  1  0
 19 18  1  0
 20 22  2  0
 20 21  1  0
M  END
$$$$
