GCR.pdb
     RDKit          3D

 22 21  0  0  1  0  0  0  0  0999 V2000
   24.7725  -19.4265  -18.4875 N   0  0  0  0  0  0  0  0  0  0  0  0
   25.0510  -18.0355  -18.7872 C   0  0  0  0  0  0  0  0  0  0  0  0
   24.5426  -17.1645  -17.6743 C   0  0  0  0  0  0  0  0  0  0  0  0
   23.3518  -17.2565  -17.2837 O   0  0  0  0  0  0  0  0  0  0  0  0
   25.4266  -16.2421  -17.0762 N   0  0  0  0  0  0  0  0  0  0  0  0
   24.9470  -15.3884  -15.9690 C   0  0  1  0  0  0  0  0  0  0  0  0
   26.1860  -14.8497  -15.2758 C   0  0  0  0  0  0  0  0  0  0  0  0
   26.9389  -16.1703  -14.3085 S   0  0  0  0  0  0  0  0  0  0  0  0
   24.1307  -14.3307  -16.6010 C   0  0  0  0  0  0  0  0  0  0  0  0
   24.4869  -13.8340  -17.7248 O   0  0  0  0  0  0  0  0  0  0  0  0
   17.0986  -10.0099  -15.6365 N   0  0  0  0  0  0  0  0  0  0  0  0
   16.9161  -10.2318  -17.0189 C   0  0  0  0  0  0  0  0  0  0  0  0
   16.1707   -9.4390  -17.7384 N   0  0  0  0  0  0  0  0  0  0  0  0
   17.5377  -11.3150  -17.6775 N   0  0  0  0  0  0  0  0  0  0  0  0
   18.3432  -12.2675  -17.0003 C   0  0  0  0  0  0  0  0  0  0  0  0
   19.8073  -12.0496  -17.1623 C   0  0  0  0  0  0  0  0  0  0  0  0
   20.6525  -13.0612  -16.4782 C   0  0  0  0  0  0  0  0  0  0  0  0
   22.1269  -12.8376  -16.8136 C   0  0  2  0  0  0  0  0  0  0  0  0
   22.9391  -13.7900  -16.0617 N   0  0  0  0  0  0  0  0  0  0  0  0
   22.4827  -11.4357  -16.5313 C   0  0  0  0  0  0  0  0  0  0  0  0
   22.2517  -10.4413  -17.4428 O   0  0  0  0  0  0  0  0  0  0  0  0
   23.0138  -11.1908  -15.4026 O   0  0  0  0  0  0  0  0  0  0  0  0
  1  2  1  0
  2  3  1  0
  3  5  1  0
  4  3  2  0
  5  6  1  0
  6  9  1  0
  6  7  1  6
  8  7  1  0
  9 10  2  0
  9 19  1  0
 11 12  1  0
 12 13  2  0
 12 14  1  0
 14 15  1  0
 15 16  1  0
 17 16  1  0
 18 17  1  1
 18 20  1  0
 19 18  1  0
 20 22  2  0
 20 21  1  0
M  END
$$$$
