GCR.pdb
     RDKit          3D

 22 21  0  0  1  0  0  0  0  0999 V2000
   32.0011  -22.4601  -11.4631 N   0  0  0  0  0  0  0  0  0  0  0  0
   31.1783  -22.1283  -12.6098 C   0  0  0  0  0  0  0  0  0  0  0  0
   30.0604  -21.2189  -12.1869 C   0  0  0  0  0  0  0  0  0  0  0  0
   30.1896  -20.4697  -11.1864 O   0  0  0  0  0  0  0  0  0  0  0  0
   28.8637  -21.2215  -12.9338 N   0  0  0  0  0  0  0  0  0  0  0  0
   27.7834  -20.2770  -12.5793 C   0  0  1  0  0  0  0  0  0  0  0  0
   28.3311  -18.8840  -12.8358 C   0  0  0  0  0  0  0  0  0  0  0  0
   28.5325  -18.6498  -14.6109 S   0  0  0  0  0  0  0  0  0  0  0  0
   26.6441  -20.6218  -13.4554 C   0  0  0  0  0  0  0  0  0  0  0  0
   26.8558  -21.0219  -14.6519 O   0  0  0  0  0  0  0  0  0  0  0  0
   17.9661  -20.1318  -13.7809 N   0  0  0  0  0  0  0  0  0  0  0  0
   18.2764  -21.2228  -14.6216 C   0  0  0  0  0  0  0  0  0  0  0  0
   17.4922  -21.5609  -15.6079 N   0  0  0  0  0  0  0  0  0  0  0  0
   19.4494  -21.9857  -14.4328 N   0  0  0  0  0  0  0  0  0  0  0  0
   20.4858  -21.5963  -13.5445 C   0  0  0  0  0  0  0  0  0  0  0  0
   21.7950  -21.3494  -14.2098 C   0  0  0  0  0  0  0  0  0  0  0  0
   22.8892  -20.9732  -13.2788 C   0  0  0  0  0  0  0  0  0  0  0  0
   24.2155  -20.8676  -14.0313 C   0  0  2  0  0  0  0  0  0  0  0  0
   25.2802  -20.5511  -13.0836 N   0  0  0  0  0  0  0  0  0  0  0  0
   24.0880  -19.8643  -15.1032 C   0  0  0  0  0  0  0  0  0  0  0  0
   23.7829  -20.2244  -16.3878 O   0  0  0  0  0  0  0  0  0  0  0  0
   24.2737  -18.6487  -14.7812 O   0  0  0  0  0  0  0  0  0  0  0  0
  1  2  1  0
  2  3  1  0
  3  5  1  0
  4  3  2  0
  5  6  1  0
  6  9  1  0
  6  7  1  6
  8  7  1  0
  9 10  2  0
  9 19  1  0
 11 12  1  0
 12 13  2  0
 12 14  1  0
 14 15  1  0
 15 16  1  0
 17 16  1  0
 18 17  1  1
 18 20  1  0
 19 18  1  0
 20 22  2  0
 20 21  1  0
M  END
$$$$
