GCR.pdb
     RDKit          3D

 22 21  0  0  1  0  0  0  0  0999 V2000
   25.8981  -22.5689  -15.5106 N   0  0  0  0  0  0  0  0  0  0  0  0
   24.6588  -21.8296  -15.6498 C   0  0  0  0  0  0  0  0  0  0  0  0
   24.0279  -21.6368  -14.3005 C   0  0  0  0  0  0  0  0  0  0  0  0
   24.7269  -21.3091  -13.3091 O   0  0  0  0  0  0  0  0  0  0  0  0
   22.6369  -21.8301  -14.1676 N   0  0  0  0  0  0  0  0  0  0  0  0
   21.9307  -21.2537  -13.0041 C   0  0  1  0  0  0  0  0  0  0  0  0
   22.0952  -19.7475  -13.1062 C   0  0  0  0  0  0  0  0  0  0  0  0
   21.2976  -18.9722  -11.6887 S   0  0  0  0  0  0  0  0  0  0  0  0
   20.5249  -21.6926  -13.1289 C   0  0  0  0  0  0  0  0  0  0  0  0
   19.8075  -21.2717  -14.1008 O   0  0  0  0  0  0  0  0  0  0  0  0
   16.1761  -27.7134   -9.2394 N   0  0  0  0  0  0  0  0  0  0  0  0
   17.5214  -28.0200   -9.5389 C   0  0  0  0  0  0  0  0  0  0  0  0
   17.9275  -29.2559   -9.6375 N   0  0  0  0  0  0  0  0  0  0  0  0
   18.4775  -27.0027   -9.7498 N   0  0  0  0  0  0  0  0  0  0  0  0
   18.1475  -25.6222   -9.7382 C   0  0  0  0  0  0  0  0  0  0  0  0
   18.4588  -24.9126  -11.0098 C   0  0  0  0  0  0  0  0  0  0  0  0
   17.9488  -23.5191  -11.0697 C   0  0  0  0  0  0  0  0  0  0  0  0
   18.4313  -22.8300  -12.3459 C   0  0  2  0  0  0  0  0  0  0  0  0
   19.8648  -22.5739  -12.2395 N   0  0  0  0  0  0  0  0  0  0  0  0
   17.6461  -21.6019  -12.5621 C   0  0  0  0  0  0  0  0  0  0  0  0
   17.9293  -20.4439  -11.8899 O   0  0  0  0  0  0  0  0  0  0  0  0
   16.6938  -21.6658  -13.4017 O   0  0  0  0  0  0  0  0  0  0  0  0
  1  2  1  0
  2  3  1  0
  3  5  1  0
  4  3  2  0
  5  6  1  0
  6  9  1  0
  6  7  1  6
  8  7  1  0
  9 10  2  0
  9 19  1  0
 11 12  1  0
 12 13  2  0
 12 14  1  0
 14 15  1  0
 15 16  1  0
 17 16  1  0
 18 17  1  1
 18 20  1  0
 19 18  1  0
 20 22  2  0
 20 21  1  0
M  END
$$$$
