GCR.pdb
     RDKit          3D

 22 21  0  0  1  0  0  0  0  0999 V2000
   22.3789  -16.8434  -17.4143 N   0  0  0  0  0  0  0  0  0  0  0  0
   21.2947  -17.4007  -16.6294 C   0  0  0  0  0  0  0  0  0  0  0  0
   21.8408  -18.3862  -15.6363 C   0  0  0  0  0  0  0  0  0  0  0  0
   23.0806  -18.5530  -15.5170 O   0  0  0  0  0  0  0  0  0  0  0  0
   20.9364  -19.1202  -14.8406 N   0  0  0  0  0  0  0  0  0  0  0  0
   21.4571  -20.0204  -13.7902 C   0  0  1  0  0  0  0  0  0  0  0  0
   21.7333  -19.1490  -12.5776 C   0  0  0  0  0  0  0  0  0  0  0  0
   20.1877  -18.4068  -12.0235 S   0  0  0  0  0  0  0  0  0  0  0  0
   20.3948  -21.0207  -13.5549 C   0  0  0  0  0  0  0  0  0  0  0  0
   19.1684  -20.7061  -13.7380 O   0  0  0  0  0  0  0  0  0  0  0  0
   21.4308  -28.3247  -11.9649 N   0  0  0  0  0  0  0  0  0  0  0  0
   20.2348  -28.4345  -11.2227 C   0  0  0  0  0  0  0  0  0  0  0  0
   20.2192  -28.9941  -10.0443 N   0  0  0  0  0  0  0  0  0  0  0  0
   19.0114  -27.9377  -11.7226 N   0  0  0  0  0  0  0  0  0  0  0  0
   18.9377  -26.8646  -12.6489 C   0  0  0  0  0  0  0  0  0  0  0  0
   18.9462  -25.5159  -12.0179 C   0  0  0  0  0  0  0  0  0  0  0  0
   20.0456  -24.6330  -12.4838 C   0  0  0  0  0  0  0  0  0  0  0  0
   19.4960  -23.2634  -12.8819 C   0  0  2  0  0  0  0  0  0  0  0  0
   20.6107  -22.3531  -13.1291 N   0  0  0  0  0  0  0  0  0  0  0  0
   18.5863  -22.7793  -11.8284 C   0  0  0  0  0  0  0  0  0  0  0  0
   17.2364  -22.9945  -11.8942 O   0  0  0  0  0  0  0  0  0  0  0  0
   19.1117  -22.1530  -10.8548 O   0  0  0  0  0  0  0  0  0  0  0  0
  1  2  1  0
  2  3  1  0
  3  5  1  0
  4  3  2  0
  5  6  1  0
  6  9  1  0
  6  7  1  1
  8  7  1  0
  9 10  2  0
  9 19  1  0
 11 12  1  0
 12 13  2  0
 12 14  1  0
 14 15  1  0
 15 16  1  0
 17 16  1  0
 18 17  1  1
 18 20  1  0
 19 18  1  0
 20 22  2  0
 20 21  1  0
M  END
$$$$
