GCR.pdb
     RDKit          3D

 22 21  0  0  1  0  0  0  0  0999 V2000
   29.8604  -25.6792  -16.7226 N   0  0  0  0  0  0  0  0  0  0  0  0
   28.7571  -24.8481  -17.1632 C   0  0  0  0  0  0  0  0  0  0  0  0
   28.8326  -23.5062  -16.4929 C   0  0  0  0  0  0  0  0  0  0  0  0
   29.9223  -22.8836  -16.4300 O   0  0  0  0  0  0  0  0  0  0  0  0
   27.6580  -22.9583  -15.9362 N   0  0  0  0  0  0  0  0  0  0  0  0
   27.6761  -21.5742  -15.4179 C   0  0  1  0  0  0  0  0  0  0  0  0
   27.9464  -20.6737  -16.6105 C   0  0  0  0  0  0  0  0  0  0  0  0
   27.6227  -18.9645  -16.1410 S   0  0  0  0  0  0  0  0  0  0  0  0
   26.3449  -21.3530  -14.8150 C   0  0  0  0  0  0  0  0  0  0  0  0
   25.2881  -21.5514  -15.5081 O   0  0  0  0  0  0  0  0  0  0  0  0
   22.2862  -20.5527   -7.6607 N   0  0  0  0  0  0  0  0  0  0  0  0
   21.3039  -21.0329   -8.5540 C   0  0  0  0  0  0  0  0  0  0  0  0
   20.0363  -20.9991   -8.2471 N   0  0  0  0  0  0  0  0  0  0  0  0
   21.6534  -21.5616   -9.8157 N   0  0  0  0  0  0  0  0  0  0  0  0
   22.9928  -21.6171  -10.2824 C   0  0  0  0  0  0  0  0  0  0  0  0
   23.4804  -20.3440  -10.8814 C   0  0  0  0  0  0  0  0  0  0  0  0
   24.8419  -20.4299  -11.4682 C   0  0  0  0  0  0  0  0  0  0  0  0
   24.7620  -20.8227  -12.9432 C   0  0  2  0  0  0  0  0  0  0  0  0
   26.1138  -20.9253  -13.4857 N   0  0  0  0  0  0  0  0  0  0  0  0
   23.9305  -19.8422  -13.6634 C   0  0  0  0  0  0  0  0  0  0  0  0
   22.5962  -20.0568  -13.8792 O   0  0  0  0  0  0  0  0  0  0  0  0
   24.5079  -18.7872  -14.0752 O   0  0  0  0  0  0  0  0  0  0  0  0
  1  2  1  0
  2  3  1  0
  3  5  1  0
  4  3  2  0
  5  6  1  0
  6  9  1  0
  6  7  1  6
  8  7  1  0
  9 10  2  0
  9 19  1  0
 11 12  1  0
 12 13  2  0
 12 14  1  0
 14 15  1  0
 15 16  1  0
 17 16  1  0
 18 17  1  1
 18 20  1  0
 19 18  1  0
 20 22  2  0
 20 21  1  0
M  END
$$$$
