YSE.pdb
     RDKit          3D

 28 28  0  0  1  0  0  0  0  0999 V2000
   10.0138  -10.4022   -8.7394 O   0  0  0  0  0  0  0  0  0  0  0  0
   11.1711   -9.8970   -9.3011 C   0  0  0  0  0  0  0  0  0  0  0  0
   11.8985   -8.9700   -8.6077 C   0  0  0  0  0  0  0  0  0  0  0  0
   13.0694   -8.4558   -9.1716 C   0  0  0  0  0  0  0  0  0  0  0  0
   13.4707   -8.8911  -10.4154 C   0  0  0  0  0  0  0  0  0  0  0  0
   14.7081   -8.3883  -11.0649 C   0  0  0  0  0  0  0  0  0  0  0  0
   15.7251   -9.5118  -11.0738 C   0  0  2  0  0  0  0  0  0  0  0  0
   16.2050   -9.8644   -9.7760 N   0  0  0  0  0  0  0  0  0  0  0  0
   16.8436   -9.1317  -11.9468 C   0  0  0  0  0  0  0  0  0  0  0  0
   17.5419   -8.1368  -11.5894 O   0  0  0  0  0  0  0  0  0  0  0  0
   12.7120   -9.8337  -11.0961 C   0  0  0  0  0  0  0  0  0  0  0  0
   11.5701  -10.3349  -10.5455 C   0  0  0  0  0  0  0  0  0  0  0  0
   17.5036  -10.8365  -15.6596 O   0  0  0  0  0  0  0  0  0  0  0  0
   18.6028  -10.3005  -15.0367 C   0  0  0  0  0  0  0  0  0  0  0  0
   18.1815   -9.3108  -13.9816 C   0  0  2  0  0  0  0  0  0  0  0  0
   17.1317   -9.8304  -13.1245 N   0  0  0  0  0  0  0  0  0  0  0  0
   17.6574   -8.0527  -14.6043 C   0  0  0  0  0  0  0  0  0  0  0  0
   16.4216   -7.7842  -14.5172 O   0  0  0  0  0  0  0  0  0  0  0  0
   18.4524   -7.1291  -15.2885 N   0  0  0  0  0  0  0  0  0  0  0  0
   17.8633   -5.9645  -16.0167 C   0  0  1  0  0  0  0  0  0  0  0  0
   17.1459   -5.2012  -14.9670 C   0  0  0  0  0  0  0  0  0  0  0  0
   16.6580   -3.8412  -15.2419 C   0  0  0  0  0  0  0  0  0  0  0  0
   16.1160   -3.0651  -14.1355 C   0  0  0  0  0  0  0  0  0  0  0  0
   16.7721   -2.9632  -13.0567 O   0  0  0  0  0  0  0  0  0  0  0  0
   18.9819   -5.3184  -16.6927 C   0  0  0  0  0  0  0  0  0  0  0  0
   18.8174   -4.2984  -17.3820 O   0  0  0  0  0  0  0  0  0  0  0  0
   14.8654   -2.4264  -14.2650 O   0  0  0  0  0  0  0  0  0  0  0  0
   20.2718   -5.8130  -16.5953 O   0  0  0  0  0  0  0  0  0  0  0  0
  2  1  1  0
  2 12  2  0
  3  2  1  0
  4  3  2  0
  4  5  1  0
  5 11  2  0
  6  5  1  0
  7  8  1  1
  7  6  1  0
  9  7  1  0
  9 10  2  0
 11 12  1  0
 13 14  1  0
 15 14  1  6
 15 16  1  0
 15 17  1  0
 16  9  1  0
 17 19  1  0
 18 17  2  0
 19 20  1  0
 20 25  1  0
 20 21  1  1
 22 21  1  0
 23 22  1  0
 23 24  2  0
 25 26  2  0
 25 28  1  0
 27 23  1  0
M  END
$$$$
