YSE.pdb
     RDKit          3D

 28 28  0  0  1  0  0  0  0  0999 V2000
   28.6605  -19.9763   -4.3084 O   0  0  0  0  0  0  0  0  0  0  0  0
   28.3398  -19.9695   -5.6528 C   0  0  0  0  0  0  0  0  0  0  0  0
   29.3116  -20.2556   -6.5709 C   0  0  0  0  0  0  0  0  0  0  0  0
   28.9923  -20.2496   -7.9316 C   0  0  0  0  0  0  0  0  0  0  0  0
   27.7052  -19.9558   -8.3246 C   0  0  0  0  0  0  0  0  0  0  0  0
   27.3018  -19.9401   -9.7538 C   0  0  0  0  0  0  0  0  0  0  0  0
   26.9822  -21.3621  -10.1686 C   0  0  2  0  0  0  0  0  0  0  0  0
   28.1379  -22.1687  -10.3980 N   0  0  0  0  0  0  0  0  0  0  0  0
   26.1366  -21.3270  -11.3692 C   0  0  0  0  0  0  0  0  0  0  0  0
   26.7261  -21.3403  -12.4905 O   0  0  0  0  0  0  0  0  0  0  0  0
   26.7390  -19.6695   -7.3697 C   0  0  0  0  0  0  0  0  0  0  0  0
   27.0510  -19.6756   -6.0427 C   0  0  0  0  0  0  0  0  0  0  0  0
   22.1245  -22.3384  -11.3171 O   0  0  0  0  0  0  0  0  0  0  0  0
   22.9649  -22.5867  -12.3734 C   0  0  0  0  0  0  0  0  0  0  0  0
   23.9828  -21.4841  -12.5089 C   0  0  2  0  0  0  0  0  0  0  0  0
   24.7404  -21.2787  -11.2881 N   0  0  0  0  0  0  0  0  0  0  0  0
   23.3216  -20.1808  -12.8398 C   0  0  0  0  0  0  0  0  0  0  0  0
   22.8712  -19.4567  -11.9020 O   0  0  0  0  0  0  0  0  0  0  0  0
   23.1644  -19.6918  -14.1396 N   0  0  0  0  0  0  0  0  0  0  0  0
   22.4090  -18.4345  -14.4258 C   0  0  1  0  0  0  0  0  0  0  0  0
   22.8335  -18.0559  -15.7952 C   0  0  0  0  0  0  0  0  0  0  0  0
   23.5832  -19.0080  -16.6290 C   0  0  0  0  0  0  0  0  0  0  0  0
   23.9696  -18.5956  -17.9709 C   0  0  0  0  0  0  0  0  0  0  0  0
   23.7363  -17.4122  -18.3578 O   0  0  0  0  0  0  0  0  0  0  0  0
   21.0052  -18.7623  -14.2075 C   0  0  0  0  0  0  0  0  0  0  0  0
   20.1742  -17.8845  -13.9226 O   0  0  0  0  0  0  0  0  0  0  0  0
   24.6043  -19.5100  -18.8368 O   0  0  0  0  0  0  0  0  0  0  0  0
   20.5400  -20.0629  -14.3085 O   0  0  0  0  0  0  0  0  0  0  0  0
  2  1  1  0
  2 12  2  0
  3  2  1  0
  4  3  2  0
  4  5  1  0
  5 11  2  0
  6  5  1  0
  7  8  1  6
  7  6  1  0
  9  7  1  0
  9 10  2  0
 11 12  1  0
 13 14  1  0
 15 14  1  1
 15 16  1  0
 15 17  1  0
 16  9  1  0
 17 19  1  0
 18 17  2  0
 19 20  1  0
 20 25  1  0
 20 21  1  6
 22 21  1  0
 23 22  1  0
 23 24  2  0
 25 26  2  0
 25 28  1  0
 27 23  1  0
M  END
$$$$
