YSE.pdb
     RDKit          3D

 28 28  0  0  1  0  0  0  0  0999 V2000
   21.1413  -15.8109  -17.4704 O   0  0  0  0  0  0  0  0  0  0  0  0
   21.5067  -14.5604  -17.0090 C   0  0  0  0  0  0  0  0  0  0  0  0
   21.3586  -13.4778  -17.8308 C   0  0  0  0  0  0  0  0  0  0  0  0
   21.7271  -12.2111  -17.3690 C   0  0  0  0  0  0  0  0  0  0  0  0
   22.2329  -12.0746  -16.0951 C   0  0  0  0  0  0  0  0  0  0  0  0
   22.6358  -10.7556  -15.5443 C   0  0  0  0  0  0  0  0  0  0  0  0
   23.9443  -10.3536  -16.1944 C   0  0  2  0  0  0  0  0  0  0  0  0
   25.0385  -11.2095  -15.8641 N   0  0  0  0  0  0  0  0  0  0  0  0
   24.2508   -8.9656  -15.8240 C   0  0  0  0  0  0  0  0  0  0  0  0
   25.3417   -8.7590  -15.2137 O   0  0  0  0  0  0  0  0  0  0  0  0
   22.3718  -13.1920  -15.2829 C   0  0  0  0  0  0  0  0  0  0  0  0
   22.0121  -14.4272  -15.7338 C   0  0  0  0  0  0  0  0  0  0  0  0
   24.8528   -6.2671  -17.9540 O   0  0  0  0  0  0  0  0  0  0  0  0
   25.0770   -6.1966  -16.6019 C   0  0  0  0  0  0  0  0  0  0  0  0
   23.8289   -6.5606  -15.8401 C   0  0  2  0  0  0  0  0  0  0  0  0
   23.3815   -7.9114  -16.1259 N   0  0  0  0  0  0  0  0  0  0  0  0
   22.6991   -5.6406  -16.1898 C   0  0  0  0  0  0  0  0  0  0  0  0
   21.9284   -5.9401  -17.1506 O   0  0  0  0  0  0  0  0  0  0  0  0
   22.4243   -4.4481  -15.5146 N   0  0  0  0  0  0  0  0  0  0  0  0
   21.2383   -3.6035  -15.8515 C   0  0  1  0  0  0  0  0  0  0  0  0
   20.0763   -4.4958  -15.6219 C   0  0  0  0  0  0  0  0  0  0  0  0
   18.9307   -4.4735  -16.5442 C   0  0  0  0  0  0  0  0  0  0  0  0
   17.8133   -5.3686  -16.2792 C   0  0  0  0  0  0  0  0  0  0  0  0
   17.8099   -6.0782  -15.2298 O   0  0  0  0  0  0  0  0  0  0  0  0
   21.3608   -2.4084  -15.0255 C   0  0  0  0  0  0  0  0  0  0  0  0
   22.1525   -2.3629  -14.0696 O   0  0  0  0  0  0  0  0  0  0  0  0
   16.7364   -5.4439  -17.1866 O   0  0  0  0  0  0  0  0  0  0  0  0
   20.6019   -1.2762  -15.2709 O   0  0  0  0  0  0  0  0  0  0  0  0
  2  1  1  0
  2 12  2  0
  3  2  1  0
  4  3  2  0
  4  5  1  0
  5 11  2  0
  6  5  1  0
  7  8  1  1
  7  6  1  0
  9  7  1  0
  9 10  2  0
 11 12  1  0
 13 14  1  0
 15 14  1  6
 15 16  1  0
 15 17  1  0
 16  9  1  0
 17 19  1  0
 18 17  2  0
 19 20  1  0
 20 25  1  0
 20 21  1  1
 22 21  1  0
 23 22  1  0
 23 24  2  0
 25 26  2  0
 25 28  1  0
 27 23  1  0
M  END
$$$$
