YSE.pdb
     RDKit          3D

 28 28  0  0  1  0  0  0  0  0999 V2000
   28.1544  -20.0469   -6.0774 O   0  0  0  0  0  0  0  0  0  0  0  0
   27.6622  -20.2886   -7.3460 C   0  0  0  0  0  0  0  0  0  0  0  0
   28.5245  -20.2850   -8.4069 C   0  0  0  0  0  0  0  0  0  0  0  0
   28.0315  -20.5285   -9.6919 C   0  0  0  0  0  0  0  0  0  0  0  0
   26.6865  -20.7678   -9.8679 C   0  0  0  0  0  0  0  0  0  0  0  0
   26.1029  -21.0398  -11.2062 C   0  0  0  0  0  0  0  0  0  0  0  0
   25.6707  -19.7183  -11.8089 C   0  0  2  0  0  0  0  0  0  0  0  0
   24.5271  -19.1432  -11.1762 N   0  0  0  0  0  0  0  0  0  0  0  0
   25.4187  -19.9113  -13.2431 C   0  0  0  0  0  0  0  0  0  0  0  0
   24.2492  -20.2621  -13.5811 O   0  0  0  0  0  0  0  0  0  0  0  0
   25.8345  -20.7655   -8.7717 C   0  0  0  0  0  0  0  0  0  0  0  0
   26.3160  -20.5281   -7.5186 C   0  0  0  0  0  0  0  0  0  0  0  0
   28.2993  -19.3282  -16.1562 O   0  0  0  0  0  0  0  0  0  0  0  0
   27.0880  -18.7099  -16.3402 C   0  0  0  0  0  0  0  0  0  0  0  0
   26.0103  -19.4171  -15.5601 C   0  0  2  0  0  0  0  0  0  0  0  0
   26.4205  -19.7204  -14.2013 N   0  0  0  0  0  0  0  0  0  0  0  0
   25.6435  -20.7172  -16.2085 C   0  0  0  0  0  0  0  0  0  0  0  0
   26.0456  -21.8036  -15.6938 O   0  0  0  0  0  0  0  0  0  0  0  0
   24.8682  -20.8219  -17.3666 N   0  0  0  0  0  0  0  0  0  0  0  0
   24.5498  -22.1429  -17.9887 C   0  0  1  0  0  0  0  0  0  0  0  0
   23.1033  -22.3334  -17.7236 C   0  0  0  0  0  0  0  0  0  0  0  0
   22.6520  -23.3722  -16.7852 C   0  0  0  0  0  0  0  0  0  0  0  0
   21.2304  -23.4587  -16.4820 C   0  0  0  0  0  0  0  0  0  0  0  0
   20.6632  -22.5193  -15.8492 O   0  0  0  0  0  0  0  0  0  0  0  0
   24.9862  -22.0383  -19.3759 C   0  0  0  0  0  0  0  0  0  0  0  0
   25.1259  -20.9341  -19.9270 O   0  0  0  0  0  0  0  0  0  0  0  0
   20.4863  -24.5835  -16.8938 O   0  0  0  0  0  0  0  0  0  0  0  0
   25.2628  -23.1625  -20.1360 O   0  0  0  0  0  0  0  0  0  0  0  0
  2  1  1  0
  2 12  2  0
  3  2  1  0
  4  3  2  0
  4  5  1  0
  5 11  2  0
  6  5  1  0
  7  8  1  1
  7  6  1  0
  9  7  1  0
  9 10  2  0
 11 12  1  0
 13 14  1  0
 15 14  1  6
 15 16  1  0
 15 17  1  0
 16  9  1  0
 17 19  1  0
 18 17  2  0
 19 20  1  0
 20 25  1  0
 20 21  1  6
 22 21  1  0
 23 22  1  0
 23 24  2  0
 25 26  2  0
 25 28  1  0
 27 23  1  0
M  END
$$$$
