YSE.pdb
     RDKit          3D

 28 28  0  0  1  0  0  0  0  0999 V2000
   20.9353  -15.7741  -19.3492 O   0  0  0  0  0  0  0  0  0  0  0  0
   20.5746  -14.4438  -19.2487 C   0  0  0  0  0  0  0  0  0  0  0  0
   20.3044  -13.9182  -18.0158 C   0  0  0  0  0  0  0  0  0  0  0  0
   19.9388  -12.5734  -17.9090 C   0  0  0  0  0  0  0  0  0  0  0  0
   19.8568  -11.8007  -19.0464 C   0  0  0  0  0  0  0  0  0  0  0  0
   19.4807  -10.3648  -18.9983 C   0  0  0  0  0  0  0  0  0  0  0  0
   17.9997  -10.2761  -18.6897 C   0  0  2  0  0  0  0  0  0  0  0  0
   17.1682  -10.8901  -19.6749 N   0  0  0  0  0  0  0  0  0  0  0  0
   17.6346   -8.8633  -18.5208 C   0  0  0  0  0  0  0  0  0  0  0  0
   17.6872   -8.1269  -19.5504 O   0  0  0  0  0  0  0  0  0  0  0  0
   20.1372  -12.3617  -20.2851 C   0  0  0  0  0  0  0  0  0  0  0  0
   20.4939  -13.6733  -20.3886 C   0  0  0  0  0  0  0  0  0  0  0  0
   14.8967   -7.6016  -15.9751 O   0  0  0  0  0  0  0  0  0  0  0  0
   15.3061   -6.8528  -17.0499 C   0  0  0  0  0  0  0  0  0  0  0  0
   16.7974   -6.9645  -17.2339 C   0  0  2  0  0  0  0  0  0  0  0  0
   17.2464   -8.3439  -17.2807 N   0  0  0  0  0  0  0  0  0  0  0  0
   17.5287   -6.3028  -16.1057 C   0  0  0  0  0  0  0  0  0  0  0  0
   18.0834   -7.0196  -15.2195 O   0  0  0  0  0  0  0  0  0  0  0  0
   17.6492   -4.9184  -15.9576 N   0  0  0  0  0  0  0  0  0  0  0  0
   18.4280   -4.3075  -14.8378 C   0  0  1  0  0  0  0  0  0  0  0  0
   19.8013   -4.8383  -15.0147 C   0  0  0  0  0  0  0  0  0  0  0  0
   20.9059   -4.3274  -14.1886 C   0  0  0  0  0  0  0  0  0  0  0  0
   22.2421   -4.8590  -14.4167 C   0  0  0  0  0  0  0  0  0  0  0  0
   23.1693   -4.0875  -14.8036 O   0  0  0  0  0  0  0  0  0  0  0  0
   18.2265   -2.8687  -14.9595 C   0  0  0  0  0  0  0  0  0  0  0  0
   17.8812   -2.3540  -16.0357 O   0  0  0  0  0  0  0  0  0  0  0  0
   22.5044   -6.2284  -14.2052 O   0  0  0  0  0  0  0  0  0  0  0  0
   18.4108   -2.0169  -13.8831 O   0  0  0  0  0  0  0  0  0  0  0  0
  2  1  1  0
  2 12  2  0
  3  2  1  0
  4  3  2  0
  4  5  1  0
  5 11  2  0
  6  5  1  0
  7  8  1  6
  7  6  1  0
  9  7  1  0
  9 10  2  0
 11 12  1  0
 13 14  1  0
 15 14  1  1
 15 16  1  0
 15 17  1  0
 16  9  1  0
 17 19  1  0
 18 17  2  0
 19 20  1  0
 20 25  1  0
 20 21  1  6
 22 21  1  0
 23 22  1  0
 23 24  2  0
 25 26  2  0
 25 28  1  0
 27 23  1  0
M  END
$$$$
