YSE.pdb
     RDKit          3D

 28 28  0  0  1  0  0  0  0  0999 V2000
   24.0640  -25.7791  -12.8464 O   0  0  0  0  0  0  0  0  0  0  0  0
   23.7413  -24.4642  -13.1243 C   0  0  0  0  0  0  0  0  0  0  0  0
   22.4321  -24.1291  -13.3314 C   0  0  0  0  0  0  0  0  0  0  0  0
   22.1007  -22.8008  -13.6131 C   0  0  0  0  0  0  0  0  0  0  0  0
   23.0976  -21.8524  -13.6775 C   0  0  0  0  0  0  0  0  0  0  0  0
   22.8094  -20.4243  -13.9657 C   0  0  0  0  0  0  0  0  0  0  0  0
   22.7252  -20.2551  -15.4693 C   0  0  2  0  0  0  0  0  0  0  0  0
   23.9935  -20.2887  -16.1246 N   0  0  0  0  0  0  0  0  0  0  0  0
   22.0293  -18.9961  -15.7664 C   0  0  0  0  0  0  0  0  0  0  0  0
   22.6282  -17.9211  -15.4652 O   0  0  0  0  0  0  0  0  0  0  0  0
   24.4185  -22.2220  -13.4624 C   0  0  0  0  0  0  0  0  0  0  0  0
   24.7410  -23.5177  -13.1875 C   0  0  0  0  0  0  0  0  0  0  0  0
   20.1593  -18.0526  -18.9731 O   0  0  0  0  0  0  0  0  0  0  0  0
   20.5377  -17.1624  -17.9995 C   0  0  0  0  0  0  0  0  0  0  0  0
   20.1640  -17.6815  -16.6353 C   0  0  2  0  0  0  0  0  0  0  0  0
   20.7596  -18.9749  -16.3542 N   0  0  0  0  0  0  0  0  0  0  0  0
   18.6797  -17.8452  -16.5111 C   0  0  0  0  0  0  0  0  0  0  0  0
   18.1835  -19.0112  -16.4819 O   0  0  0  0  0  0  0  0  0  0  0  0
   17.7806  -16.7792  -16.4197 N   0  0  0  0  0  0  0  0  0  0  0  0
   16.3012  -16.9860  -16.4658 C   0  0  1  0  0  0  0  0  0  0  0  0
   15.8271  -16.5369  -15.1344 C   0  0  0  0  0  0  0  0  0  0  0  0
   15.8926  -15.1147  -14.7649 C   0  0  0  0  0  0  0  0  0  0  0  0
   15.3827  -14.7157  -13.4607 C   0  0  0  0  0  0  0  0  0  0  0  0
   14.8592  -15.5808  -12.6977 O   0  0  0  0  0  0  0  0  0  0  0  0
   15.8400  -16.2571  -17.6412 C   0  0  0  0  0  0  0  0  0  0  0  0
   16.5918  -15.4841  -18.2575 O   0  0  0  0  0  0  0  0  0  0  0  0
   15.4736  -13.3708  -13.0466 O   0  0  0  0  0  0  0  0  0  0  0  0
   14.5476  -16.3954  -18.1195 O   0  0  0  0  0  0  0  0  0  0  0  0
  2  1  1  0
  2 12  2  0
  3  2  1  0
  4  3  2  0
  4  5  1  0
  5 11  2  0
  6  5  1  0
  7  8  1  1
  7  6  1  0
  9  7  1  0
  9 10  2  0
 11 12  1  0
 13 14  1  0
 15 14  1  6
 15 16  1  0
 15 17  1  0
 16  9  1  0
 17 19  1  0
 18 17  2  0
 19 20  1  0
 20 25  1  0
 20 21  1  1
 22 21  1  0
 23 22  1  0
 23 24  2  0
 25 26  2  0
 25 28  1  0
 27 23  1  0
M  END
$$$$
