YSE.pdb
     RDKit          3D

 28 28  0  0  1  0  0  0  0  0999 V2000
   15.4473  -14.9551  -15.2340 O   0  0  0  0  0  0  0  0  0  0  0  0
   16.0135  -13.6960  -15.3000 C   0  0  0  0  0  0  0  0  0  0  0  0
   17.3533  -13.5803  -15.5465 C   0  0  0  0  0  0  0  0  0  0  0  0
   17.9306  -12.3092  -15.6137 C   0  0  0  0  0  0  0  0  0  0  0  0
   17.1411  -11.1954  -15.4307 C   0  0  0  0  0  0  0  0  0  0  0  0
   17.6933   -9.8184  -15.4969 C   0  0  0  0  0  0  0  0  0  0  0  0
   18.4955   -9.5716  -14.2352 C   0  0  2  0  0  0  0  0  0  0  0  0
   17.7003   -9.5039  -13.0511 N   0  0  0  0  0  0  0  0  0  0  0  0
   19.2718   -8.3356  -14.4012 C   0  0  0  0  0  0  0  0  0  0  0  0
   18.7996   -7.2832  -13.8772 O   0  0  0  0  0  0  0  0  0  0  0  0
   15.7832  -11.3437  -15.1822 C   0  0  0  0  0  0  0  0  0  0  0  0
   15.2206  -12.5837  -15.1168 C   0  0  0  0  0  0  0  0  0  0  0  0
   22.6493   -7.9932  -16.8028 O   0  0  0  0  0  0  0  0  0  0  0  0
   22.6047   -7.2137  -15.6741 C   0  0  0  0  0  0  0  0  0  0  0  0
   21.1829   -7.0453  -15.2046 C   0  0  2  0  0  0  0  0  0  0  0  0
   20.4798   -8.3113  -15.1072 N   0  0  0  0  0  0  0  0  0  0  0  0
   20.4040   -6.1820  -16.1497 C   0  0  0  0  0  0  0  0  0  0  0  0
   19.9324   -6.6905  -17.2108 O   0  0  0  0  0  0  0  0  0  0  0  0
   20.1507   -4.8238  -15.9396 N   0  0  0  0  0  0  0  0  0  0  0  0
   19.4510   -3.9828  -16.9579 C   0  0  1  0  0  0  0  0  0  0  0  0
   18.2890   -3.4178  -16.2302 C   0  0  0  0  0  0  0  0  0  0  0  0
   17.4217   -2.4217  -16.8775 C   0  0  0  0  0  0  0  0  0  0  0  0
   16.2373   -1.9683  -16.1622 C   0  0  0  0  0  0  0  0  0  0  0  0
   16.0042   -2.3983  -14.9937 O   0  0  0  0  0  0  0  0  0  0  0  0
   20.4597   -3.0598  -17.4640 C   0  0  0  0  0  0  0  0  0  0  0  0
   20.2282   -2.3190  -18.4335 O   0  0  0  0  0  0  0  0  0  0  0  0
   15.3532   -1.0511  -16.7671 O   0  0  0  0  0  0  0  0  0  0  0  0
   21.7155   -2.9700  -16.8868 O   0  0  0  0  0  0  0  0  0  0  0  0
  2  1  1  0
  2 12  2  0
  3  2  1  0
  4  3  2  0
  4  5  1  0
  5 11  2  0
  6  5  1  0
  7  8  1  1
  7  6  1  0
  9  7  1  0
  9 10  2  0
 11 12  1  0
 13 14  1  0
 15 14  1  6
 15 16  1  0
 15 17  1  0
 16  9  1  0
 17 19  1  0
 18 17  2  0
 19 20  1  0
 20 25  1  0
 20 21  1  1
 22 21  1  0
 23 22  1  0
 23 24  2  0
 25 26  2  0
 25 28  1  0
 27 23  1  0
M  END
$$$$
