YSE.pdb
     RDKit          3D

 28 28  0  0  1  0  0  0  0  0999 V2000
   27.8284   -4.1686  -18.4324 O   0  0  0  0  0  0  0  0  0  0  0  0
   26.5596   -4.6278  -18.1334 C   0  0  0  0  0  0  0  0  0  0  0  0
   25.9268   -4.1569  -17.0166 C   0  0  0  0  0  0  0  0  0  0  0  0
   24.6438   -4.6185  -16.7098 C   0  0  0  0  0  0  0  0  0  0  0  0
   24.0387   -5.5392  -17.5366 C   0  0  0  0  0  0  0  0  0  0  0  0
   22.6750   -6.0626  -17.2687 C   0  0  0  0  0  0  0  0  0  0  0  0
   22.8018   -7.2545  -16.3415 C   0  0  2  0  0  0  0  0  0  0  0  0
   23.4486   -8.3803  -16.9358 N   0  0  0  0  0  0  0  0  0  0  0  0
   21.4640   -7.6271  -15.8628 C   0  0  0  0  0  0  0  0  0  0  0  0
   20.6787   -8.1598  -16.7023 O   0  0  0  0  0  0  0  0  0  0  0  0
   24.7055   -5.9993  -18.6641 C   0  0  0  0  0  0  0  0  0  0  0  0
   25.9569   -5.5486  -18.9630 C   0  0  0  0  0  0  0  0  0  0  0  0
   20.1479   -7.1783  -11.9202 O   0  0  0  0  0  0  0  0  0  0  0  0
   19.6082   -8.1622  -12.7104 C   0  0  0  0  0  0  0  0  0  0  0  0
   19.7154   -7.7885  -14.1661 C   0  0  2  0  0  0  0  0  0  0  0  0
   21.0645   -7.4056  -14.5401 N   0  0  0  0  0  0  0  0  0  0  0  0
   18.8241   -6.6282  -14.4896 C   0  0  0  0  0  0  0  0  0  0  0  0
   19.3032   -5.4547  -14.4793 O   0  0  0  0  0  0  0  0  0  0  0  0
   17.4699   -6.7492  -14.8131 N   0  0  0  0  0  0  0  0  0  0  0  0
   16.6247   -5.5600  -15.1372 C   0  0  1  0  0  0  0  0  0  0  0  0
   15.3853   -6.1372  -15.7113 C   0  0  0  0  0  0  0  0  0  0  0  0
   14.2627   -5.2624  -16.0827 C   0  0  0  0  0  0  0  0  0  0  0  0
   13.0800   -5.8705  -16.6755 C   0  0  0  0  0  0  0  0  0  0  0  0
   13.1706   -6.4714  -17.7870 O   0  0  0  0  0  0  0  0  0  0  0  0
   16.5193   -4.8038  -13.8951 C   0  0  0  0  0  0  0  0  0  0  0  0
   16.4024   -3.5674  -13.9002 O   0  0  0  0  0  0  0  0  0  0  0  0
   11.8373   -5.7933  -16.0133 O   0  0  0  0  0  0  0  0  0  0  0  0
   16.5449   -5.4303  -12.6602 O   0  0  0  0  0  0  0  0  0  0  0  0
  2  1  1  0
  2 12  2  0
  3  2  1  0
  4  3  2  0
  4  5  1  0
  5 11  2  0
  6  5  1  0
  7  8  1  6
  7  6  1  0
  9  7  1  0
  9 10  2  0
 11 12  1  0
 13 14  1  0
 15 14  1  1
 15 16  1  0
 15 17  1  0
 16  9  1  0
 17 19  1  0
 18 17  2  0
 19 20  1  0
 20 25  1  0
 20 21  1  1
 22 21  1  0
 23 22  1  0
 23 24  2  0
 25 26  2  0
 25 28  1  0
 27 23  1  0
M  END
$$$$
