YSE.pdb
     RDKit          3D

 28 28  0  0  1  0  0  0  0  0999 V2000
   17.4871  -13.5822  -22.2598 O   0  0  0  0  0  0  0  0  0  0  0  0
   17.8721  -12.7268  -21.2449 C   0  0  0  0  0  0  0  0  0  0  0  0
   16.9324  -11.9279  -20.6548 C   0  0  0  0  0  0  0  0  0  0  0  0
   17.3168  -11.0608  -19.6282 C   0  0  0  0  0  0  0  0  0  0  0  0
   18.6345  -11.0255  -19.2284 C   0  0  0  0  0  0  0  0  0  0  0  0
   19.1039  -10.1314  -18.1395 C   0  0  0  0  0  0  0  0  0  0  0  0
   19.0378  -10.9018  -16.8362 C   0  0  2  0  0  0  0  0  0  0  0  0
   17.7122  -11.2630  -16.4472 N   0  0  0  0  0  0  0  0  0  0  0  0
   19.6812  -10.1064  -15.7821 C   0  0  0  0  0  0  0  0  0  0  0  0
   18.9452   -9.3033  -15.1352 O   0  0  0  0  0  0  0  0  0  0  0  0
   19.5667  -11.8485  -19.8458 C   0  0  0  0  0  0  0  0  0  0  0  0
   19.1911  -12.6941  -20.8469 C   0  0  0  0  0  0  0  0  0  0  0  0
   23.6475  -10.5713  -14.5610 O   0  0  0  0  0  0  0  0  0  0  0  0
   22.6969  -10.1190  -13.6804 C   0  0  0  0  0  0  0  0  0  0  0  0
   21.5854   -9.4179  -14.4174 C   0  0  2  0  0  0  0  0  0  0  0  0
   21.0467  -10.2220  -15.4990 N   0  0  0  0  0  0  0  0  0  0  0  0
   22.0680   -8.1348  -15.0224 C   0  0  0  0  0  0  0  0  0  0  0  0
   22.4874   -8.1309  -16.2186 O   0  0  0  0  0  0  0  0  0  0  0  0
   22.0869   -6.9110  -14.3479 N   0  0  0  0  0  0  0  0  0  0  0  0
   22.3995   -5.6274  -15.0466 C   0  0  1  0  0  0  0  0  0  0  0  0
   21.4214   -5.5688  -16.1597 C   0  0  0  0  0  0  0  0  0  0  0  0
   21.2005   -4.3097  -16.8872 C   0  0  0  0  0  0  0  0  0  0  0  0
   20.1483   -4.2685  -17.8929 C   0  0  0  0  0  0  0  0  0  0  0  0
   19.4724   -5.3110  -18.1402 O   0  0  0  0  0  0  0  0  0  0  0  0
   22.3334   -4.5954  -14.0189 C   0  0  0  0  0  0  0  0  0  0  0  0
   22.7714   -3.4514  -14.2238 O   0  0  0  0  0  0  0  0  0  0  0  0
   19.8803   -3.0712  -18.5880 O   0  0  0  0  0  0  0  0  0  0  0  0
   21.7809   -4.8460  -12.7738 O   0  0  0  0  0  0  0  0  0  0  0  0
  2  1  1  0
  2 12  2  0
  3  2  1  0
  4  3  2  0
  4  5  1  0
  5 11  2  0
  6  5  1  0
  7  8  1  1
  7  6  1  0
  9  7  1  0
  9 10  2  0
 11 12  1  0
 13 14  1  0
 15 14  1  6
 15 16  1  0
 15 17  1  0
 16  9  1  0
 17 19  1  0
 18 17  2  0
 19 20  1  0
 20 25  1  0
 20 21  1  6
 22 21  1  0
 23 22  1  0
 23 24  2  0
 25 26  2  0
 25 28  1  0
 27 23  1  0
M  END
$$$$
