YSE.pdb
     RDKit          3D

 28 28  0  0  1  0  0  0  0  0999 V2000
   13.9029  -12.2688  -20.4764 O   0  0  0  0  0  0  0  0  0  0  0  0
   14.7939  -11.6216  -19.6413 C   0  0  0  0  0  0  0  0  0  0  0  0
   14.3267  -11.0233  -18.5041 C   0  0  0  0  0  0  0  0  0  0  0  0
   15.2237  -10.3672  -17.6566 C   0  0  0  0  0  0  0  0  0  0  0  0
   16.5621  -10.3341  -17.9807 C   0  0  0  0  0  0  0  0  0  0  0  0
   17.5654   -9.6594  -17.1183 C   0  0  0  0  0  0  0  0  0  0  0  0
   18.1716  -10.6999  -16.1985 C   0  0  2  0  0  0  0  0  0  0  0  0
   17.2352  -11.2826  -15.2915 N   0  0  0  0  0  0  0  0  0  0  0  0
   19.2857  -10.0893  -15.4611 C   0  0  0  0  0  0  0  0  0  0  0  0
   18.9880   -9.2909  -14.5236 O   0  0  0  0  0  0  0  0  0  0  0  0
   17.0077  -10.9507  -19.1421 C   0  0  0  0  0  0  0  0  0  0  0  0
   16.1323  -11.5907  -19.9682 C   0  0  0  0  0  0  0  0  0  0  0  0
   23.2866  -10.4713  -16.5274 O   0  0  0  0  0  0  0  0  0  0  0  0
   23.0077  -10.3434  -15.1897 C   0  0  0  0  0  0  0  0  0  0  0  0
   21.6524   -9.7158  -14.9906 C   0  0  2  0  0  0  0  0  0  0  0  0
   20.6204  -10.3694  -15.7744 N   0  0  0  0  0  0  0  0  0  0  0  0
   21.6641   -8.2732  -15.3958 C   0  0  0  0  0  0  0  0  0  0  0  0
   21.3186   -7.9557  -16.5734 O   0  0  0  0  0  0  0  0  0  0  0  0
   22.0343   -7.2260  -14.5477 N   0  0  0  0  0  0  0  0  0  0  0  0
   22.0164   -5.8006  -14.9965 C   0  0  1  0  0  0  0  0  0  0  0  0
   20.5942   -5.5375  -15.3236 C   0  0  0  0  0  0  0  0  0  0  0  0
   20.1179   -4.1577  -15.5048 C   0  0  0  0  0  0  0  0  0  0  0  0
   18.7175   -3.9496  -15.8449 C   0  0  0  0  0  0  0  0  0  0  0  0
   18.3882   -2.9818  -16.5930 O   0  0  0  0  0  0  0  0  0  0  0  0
   22.6238   -5.0402  -13.9109 C   0  0  0  0  0  0  0  0  0  0  0  0
   23.0855   -3.9027  -14.0992 O   0  0  0  0  0  0  0  0  0  0  0  0
   17.7304   -4.8240  -15.3451 O   0  0  0  0  0  0  0  0  0  0  0  0
   22.7114   -5.5523  -12.6271 O   0  0  0  0  0  0  0  0  0  0  0  0
  2  1  1  0
  2 12  2  0
  3  2  1  0
  4  3  2  0
  4  5  1  0
  5 11  2  0
  6  5  1  0
  7  8  1  1
  7  6  1  0
  9  7  1  0
  9 10  2  0
 11 12  1  0
 13 14  1  0
 15 14  1  6
 15 16  1  0
 15 17  1  0
 16  9  1  0
 17 19  1  0
 18 17  2  0
 19 20  1  0
 20 25  1  0
 20 21  1  1
 22 21  1  0
 23 22  1  0
 23 24  2  0
 25 26  2  0
 25 28  1  0
 27 23  1  0
M  END
$$$$
