FQP.pdb
     RDKit          3D

 28 29  0  0  1  0  0  0  0  0999 V2000
    7.7891  -15.7639   25.9247 N   0  0  0  0  0  0  0  0  0  0  0  0
    6.9477  -15.4480   24.7891 C   0  0  1  0  0  0  0  0  0  0  0  0
    7.0165  -13.9562   24.4828 C   0  0  0  0  0  0  0  0  0  0  0  0
    6.9496  -13.2428   25.7786 C   0  0  0  0  0  0  0  0  0  0  0  0
    5.7132  -13.0491   26.3615 C   0  0  0  0  0  0  0  0  0  0  0  0
    5.6160  -12.3810   27.5820 C   0  0  0  0  0  0  0  0  0  0  0  0
    6.7924  -11.9371   28.1583 C   0  0  0  0  0  0  0  0  0  0  0  0
    8.0231  -12.1415   27.5573 C   0  0  0  0  0  0  0  0  0  0  0  0
    8.1126  -12.7970   26.3606 C   0  0  0  0  0  0  0  0  0  0  0  0
    7.4531  -16.1680   23.6025 C   0  0  0  0  0  0  0  0  0  0  0  0
    8.5521  -16.7975   23.6777 O   0  0  0  0  0  0  0  0  0  0  0  0
    6.1359  -20.2982   21.8490 N   0  0  0  0  0  0  0  0  0  0  0  0
    6.4567  -20.0737   20.4817 C   0  0  0  0  0  0  0  0  0  0  0  0
    7.1486  -20.8822   19.8446 O   0  0  0  0  0  0  0  0  0  0  0  0
    5.9126  -18.8077   19.8604 C   0  0  0  0  0  0  0  0  0  0  0  0
    5.7583  -17.7783   20.9032 C   0  0  0  0  0  0  0  0  0  0  0  0
    7.1329  -17.2544   21.3686 C   0  0  2  0  0  0  0  0  0  0  0  0
    6.7755  -16.1965   22.3741 N   0  0  0  0  0  0  0  0  0  0  0  0
    7.8291  -16.5470   20.3041 C   0  0  0  0  0  0  0  0  0  0  0  0
    8.4867  -17.2489   19.4499 O   0  0  0  0  0  0  0  0  0  0  0  0
    7.8246  -15.1610   20.1471 N   0  0  0  0  0  0  0  0  0  0  0  0
    7.3598  -14.2694   21.2479 C   0  0  0  0  0  0  0  0  0  0  0  0
    8.1471  -13.0191   20.9536 C   0  0  0  0  0  0  0  0  0  0  0  0
    7.8778  -12.9042   19.4432 C   0  0  0  0  0  0  0  0  0  0  0  0
    8.2013  -14.3432   19.0365 C   0  0  1  0  0  0  0  0  0  0  0  0
    9.7027  -14.3435   18.8502 C   0  0  0  0  0  0  0  0  0  0  0  0
   10.2787  -13.7279   17.9275 O   0  0  0  0  0  0  0  0  0  0  0  0
   10.4462  -15.0668   19.7585 O   0  0  0  0  0  0  0  0  0  0  0  0
  2 10  1  0
  2  1  1  1
  3  2  1  0
  4  3  1  0
  5  4  2  0
  6  5  1  0
  7  8  1  0
  7  6  2  0
  8  9  2  0
  9  4  1  0
 10 11  2  0
 13 12  1  0
 14 13  2  0
 15 13  1  0
 16 15  1  0
 17 16  1  6
 18 17  1  0
 18 10  1  0
 19 17  1  0
 20 19  2  0
 21 19  1  0
 21 25  1  0
 22 23  1  0
 22 21  1  0
 23 24  1  0
 24 25  1  0
 25 26  1  1
 26 28  1  0
 27 26  2  0
M  END
$$$$
