FQP.pdb
     RDKit          3D

 28 29  0  0  1  0  0  0  0  0999 V2000
    5.7785  -16.6013   20.5288 N   0  0  0  0  0  0  0  0  0  0  0  0
    6.9860  -17.0103   21.2159 C   0  0  1  0  0  0  0  0  0  0  0  0
    8.1929  -16.2801   20.6376 C   0  0  0  0  0  0  0  0  0  0  0  0
    7.8674  -14.8356   20.6365 C   0  0  0  0  0  0  0  0  0  0  0  0
    7.6662  -14.2061   19.4243 C   0  0  0  0  0  0  0  0  0  0  0  0
    7.3580  -12.8463   19.3888 C   0  0  0  0  0  0  0  0  0  0  0  0
    7.2677  -12.1839   20.5996 C   0  0  0  0  0  0  0  0  0  0  0  0
    7.4731  -12.8337   21.8051 C   0  0  0  0  0  0  0  0  0  0  0  0
    7.7751  -14.1669   21.8341 C   0  0  0  0  0  0  0  0  0  0  0  0
    6.8793  -16.6321   22.6397 C   0  0  0  0  0  0  0  0  0  0  0  0
    5.8999  -15.9227   23.0237 O   0  0  0  0  0  0  0  0  0  0  0  0
    6.2801  -21.2100   26.8797 N   0  0  0  0  0  0  0  0  0  0  0  0
    6.5065  -19.8069   26.9346 C   0  0  0  0  0  0  0  0  0  0  0  0
    6.5525  -19.2071   28.0192 O   0  0  0  0  0  0  0  0  0  0  0  0
    6.6841  -19.1002   25.6102 C   0  0  0  0  0  0  0  0  0  0  0  0
    7.8294  -18.1775   25.6978 C   0  0  0  0  0  0  0  0  0  0  0  0
    7.4885  -16.8135   25.0624 C   0  0  2  0  0  0  0  0  0  0  0  0
    7.8160  -17.0189   23.6103 N   0  0  0  0  0  0  0  0  0  0  0  0
    8.3950  -15.7674   25.5120 C   0  0  0  0  0  0  0  0  0  0  0  0
    9.6494  -15.9179   25.2695 O   0  0  0  0  0  0  0  0  0  0  0  0
    7.9921  -14.6121   26.1817 N   0  0  0  0  0  0  0  0  0  0  0  0
    6.5457  -14.3052   26.3722 C   0  0  0  0  0  0  0  0  0  0  0  0
    6.5925  -13.4835   27.6341 C   0  0  0  0  0  0  0  0  0  0  0  0
    7.7393  -12.5261   27.2664 C   0  0  0  0  0  0  0  0  0  0  0  0
    8.7557  -13.5564   26.7704 C   0  0  1  0  0  0  0  0  0  0  0  0
    9.4463  -14.0276   28.0315 C   0  0  0  0  0  0  0  0  0  0  0  0
   10.2980  -13.3463   28.6417 O   0  0  0  0  0  0  0  0  0  0  0  0
    9.0981  -15.2738   28.5077 O   0  0  0  0  0  0  0  0  0  0  0  0
  2 10  1  0
  2  1  1  6
  3  2  1  0
  4  3  1  0
  5  4  2  0
  6  5  1  0
  7  8  1  0
  7  6  2  0
  8  9  2  0
  9  4  1  0
 10 11  2  0
 13 12  1  0
 14 13  2  0
 15 13  1  0
 16 15  1  0
 17 16  1  1
 18 17  1  0
 18 10  1  0
 19 17  1  0
 20 19  2  0
 21 19  1  0
 21 25  1  0
 22 23  1  0
 22 21  1  0
 23 24  1  0
 24 25  1  0
 25 26  1  1
 26 28  1  0
 27 26  2  0
M  END
$$$$
