FQP.pdb
     RDKit          3D

 28 29  0  0  1  0  0  0  0  0999 V2000
    7.6504  -17.0199   19.8319 N   0  0  0  0  0  0  0  0  0  0  0  0
    7.9095  -15.8533   20.6499 C   0  0  1  0  0  0  0  0  0  0  0  0
    6.8073  -14.8184   20.4538 C   0  0  0  0  0  0  0  0  0  0  0  0
    7.0593  -13.7263   21.4214 C   0  0  0  0  0  0  0  0  0  0  0  0
    7.8924  -12.6916   21.0454 C   0  0  0  0  0  0  0  0  0  0  0  0
    8.1500  -11.6475   21.9336 C   0  0  0  0  0  0  0  0  0  0  0  0
    7.5423  -11.7051   23.1747 C   0  0  0  0  0  0  0  0  0  0  0  0
    6.7097  -12.7521   23.5327 C   0  0  0  0  0  0  0  0  0  0  0  0
    6.4606  -13.7732   22.6581 C   0  0  0  0  0  0  0  0  0  0  0  0
    7.8956  -16.2518   22.0721 C   0  0  0  0  0  0  0  0  0  0  0  0
    6.9464  -16.9726   22.5073 O   0  0  0  0  0  0  0  0  0  0  0  0
   10.4151  -20.3583   23.5470 N   0  0  0  0  0  0  0  0  0  0  0  0
   10.2771  -20.0575   24.9303 C   0  0  0  0  0  0  0  0  0  0  0  0
   10.5829  -20.8870   25.8002 O   0  0  0  0  0  0  0  0  0  0  0  0
    9.7415  -18.6859   25.2720 C   0  0  0  0  0  0  0  0  0  0  0  0
    9.5048  -17.9298   24.0298 C   0  0  0  0  0  0  0  0  0  0  0  0
    8.9290  -16.5316   24.3364 C   0  0  2  0  0  0  0  0  0  0  0  0
    8.8896  -15.8721   22.9868 N   0  0  0  0  0  0  0  0  0  0  0  0
    9.8524  -15.7290   25.1247 C   0  0  0  0  0  0  0  0  0  0  0  0
   11.1081  -15.8349   24.8660 O   0  0  0  0  0  0  0  0  0  0  0  0
    9.4645  -14.8498   26.1358 N   0  0  0  0  0  0  0  0  0  0  0  0
    8.0523  -14.3842   26.2424 C   0  0  0  0  0  0  0  0  0  0  0  0
    7.9543  -14.1072   27.7200 C   0  0  0  0  0  0  0  0  0  0  0  0
    9.2507  -13.3005   27.9094 C   0  0  0  0  0  0  0  0  0  0  0  0
   10.2188  -14.2380   27.1850 C   0  0  1  0  0  0  0  0  0  0  0  0
   10.6026  -15.2545   28.2379 C   0  0  0  0  0  0  0  0  0  0  0  0
   10.0904  -16.3922   28.3109 O   0  0  0  0  0  0  0  0  0  0  0  0
   11.5682  -14.8792   29.1478 O   0  0  0  0  0  0  0  0  0  0  0  0
  2 10  1  0
  2  1  1  6
  3  2  1  0
  4  3  1  0
  5  4  2  0
  6  5  1  0
  7  8  1  0
  7  6  2  0
  8  9  2  0
  9  4  1  0
 10 11  2  0
 13 12  1  0
 14 13  2  0
 15 13  1  0
 16 15  1  0
 17 16  1  6
 18 17  1  0
 18 10  1  0
 19 17  1  0
 20 19  2  0
 21 19  1  0
 21 25  1  0
 22 23  1  0
 22 21  1  0
 23 24  1  0
 24 25  1  0
 25 26  1  1
 26 28  1  0
 27 26  2  0
M  END
$$$$
