FQP.pdb
     RDKit          3D

 28 29  0  0  1  0  0  0  0  0999 V2000
    6.0020  -16.4868   20.0443 N   0  0  0  0  0  0  0  0  0  0  0  0
    7.0868  -16.9561   20.8811 C   0  0  1  0  0  0  0  0  0  0  0  0
    8.4041  -16.3338   20.4322 C   0  0  0  0  0  0  0  0  0  0  0  0
    8.1681  -14.8801   20.2787 C   0  0  0  0  0  0  0  0  0  0  0  0
    9.2604  -14.0421   20.1754 C   0  0  0  0  0  0  0  0  0  0  0  0
    9.0721  -12.6678   20.0297 C   0  0  0  0  0  0  0  0  0  0  0  0
    7.7689  -12.2056   19.9954 C   0  0  0  0  0  0  0  0  0  0  0  0
    6.6865  -13.0629   20.1007 C   0  0  0  0  0  0  0  0  0  0  0  0
    6.8768  -14.4093   20.2434 C   0  0  0  0  0  0  0  0  0  0  0  0
    6.8425  -16.5219   22.2716 C   0  0  0  0  0  0  0  0  0  0  0  0
    5.8364  -15.7928   22.5284 O   0  0  0  0  0  0  0  0  0  0  0  0
    7.9699  -20.2058   26.7422 N   0  0  0  0  0  0  0  0  0  0  0  0
    7.2787  -19.2400   27.5247 C   0  0  0  0  0  0  0  0  0  0  0  0
    6.9679  -19.4730   28.7026 O   0  0  0  0  0  0  0  0  0  0  0  0
    6.9491  -17.9312   26.8440 C   0  0  0  0  0  0  0  0  0  0  0  0
    7.3863  -17.9874   25.4382 C   0  0  0  0  0  0  0  0  0  0  0  0
    7.2023  -16.6196   24.7484 C   0  0  2  0  0  0  0  0  0  0  0  0
    7.6743  -16.8756   23.3450 N   0  0  0  0  0  0  0  0  0  0  0  0
    8.1167  -15.6199   25.2802 C   0  0  0  0  0  0  0  0  0  0  0  0
    9.3771  -15.8088   25.1053 O   0  0  0  0  0  0  0  0  0  0  0  0
    7.7156  -14.4700   25.9604 N   0  0  0  0  0  0  0  0  0  0  0  0
    6.2700  -14.1406   26.1168 C   0  0  0  0  0  0  0  0  0  0  0  0
    6.2961  -13.3433   27.3948 C   0  0  0  0  0  0  0  0  0  0  0  0
    7.4693  -12.4001   27.0768 C   0  0  0  0  0  0  0  0  0  0  0  0
    8.4810  -13.4393   26.5896 C   0  0  1  0  0  0  0  0  0  0  0  0
    9.1278  -13.9459   27.8601 C   0  0  0  0  0  0  0  0  0  0  0  0
    9.9695  -13.2888   28.5095 O   0  0  0  0  0  0  0  0  0  0  0  0
    8.7502  -15.1973   28.2989 O   0  0  0  0  0  0  0  0  0  0  0  0
  2 10  1  0
  2  1  1  6
  3  2  1  0
  4  3  1  0
  5  4  2  0
  6  5  1  0
  7  8  1  0
  7  6  2  0
  8  9  2  0
  9  4  1  0
 10 11  2  0
 13 12  1  0
 14 13  2  0
 15 13  1  0
 16 15  1  0
 17 16  1  1
 18 17  1  0
 18 10  1  0
 19 17  1  0
 20 19  2  0
 21 19  1  0
 21 25  1  0
 22 23  1  0
 22 21  1  0
 23 24  1  0
 24 25  1  0
 25 26  1  1
 26 28  1  0
 27 26  2  0
M  END
$$$$
