EGS.pdb
     RDKit          3D

 20 19  0  0  1  0  0  0  0  0999 V2000
   19.4764  -12.2619  -16.5394 N   0  0  0  0  0  0  0  0  0  0  0  0
   18.1355  -11.7405  -16.8486 C   0  0  1  0  0  0  0  0  0  0  0  0
   17.0876  -12.5972  -16.2200 C   0  0  0  0  0  0  0  0  0  0  0  0
   17.2606  -14.0291  -16.5863 C   0  0  0  0  0  0  0  0  0  0  0  0
   17.3808  -14.8630  -15.3477 C   0  0  0  0  0  0  0  0  0  0  0  0
   17.4316  -14.2898  -14.2470 O   0  0  0  0  0  0  0  0  0  0  0  0
   18.0416  -10.3584  -16.3912 C   0  0  0  0  0  0  0  0  0  0  0  0
   17.0179   -9.6725  -16.5349 O   0  0  0  0  0  0  0  0  0  0  0  0
   17.4319  -16.2235  -15.4498 O   0  0  0  0  0  0  0  0  0  0  0  0
   19.1590   -9.7418  -15.7475 N   0  0  0  0  0  0  0  0  0  0  0  0
   19.0039   -8.4523  -15.1579 C   0  0  0  0  0  0  0  0  0  0  0  0
   20.3025   -7.6872  -15.1562 C   0  0  0  0  0  0  0  0  0  0  0  0
   21.3437   -8.1697  -15.6523 O   0  0  0  0  0  0  0  0  0  0  0  0
   20.7329   -4.3188  -16.3997 O   0  0  0  0  0  0  0  0  0  0  0  0
   21.2825   -4.2561  -15.1411 C   0  0  0  0  0  0  0  0  0  0  0  0
   21.6176   -5.6343  -14.5822 C   0  0  2  0  0  0  0  0  0  0  0  0
   20.3802   -6.3875  -14.5870 N   0  0  0  0  0  0  0  0  0  0  0  0
   22.1910   -5.5195  -13.2225 C   0  0  0  0  0  0  0  0  0  0  0  0
   23.5132   -5.1419  -13.0918 O   0  0  0  0  0  0  0  0  0  0  0  0
   21.5213   -5.7519  -12.1938 O   0  0  0  0  0  0  0  0  0  0  0  0
  2  1  1  1
  3  4  1  0
  3  2  1  0
  4  5  1  0
  5  9  1  0
  5  6  2  0
  7  2  1  0
  8  7  2  0
 10  7  1  0
 11 10  1  0
 11 12  1  0
 12 13  2  0
 16 15  1  1
 15 14  1  0
 17 12  1  0
 17 16  1  0
 18 16  1  0
 18 19  1  0
 20 18  2  0
M  END
$$$$
