EGS.pdb
     RDKit          3D

 20 19  0  0  1  0  0  0  0  0999 V2000
   15.0165   -9.9588  -10.3120 N   0  0  0  0  0  0  0  0  0  0  0  0
   14.9989   -8.5139  -10.0334 C   0  0  1  0  0  0  0  0  0  0  0  0
   14.1389   -8.2241   -8.8487 C   0  0  0  0  0  0  0  0  0  0  0  0
   12.6939   -8.2509   -9.2030 C   0  0  0  0  0  0  0  0  0  0  0  0
   11.8684   -7.8638   -8.0145 C   0  0  0  0  0  0  0  0  0  0  0  0
   11.9912   -6.7173   -7.5527 O   0  0  0  0  0  0  0  0  0  0  0  0
   16.3663   -8.0488   -9.8283 C   0  0  0  0  0  0  0  0  0  0  0  0
   17.2674   -8.7845   -9.3973 O   0  0  0  0  0  0  0  0  0  0  0  0
   11.0052   -8.7683   -7.4660 O   0  0  0  0  0  0  0  0  0  0  0  0
   16.7122   -6.6946  -10.1273 N   0  0  0  0  0  0  0  0  0  0  0  0
   18.0812   -6.2959  -10.0863 C   0  0  0  0  0  0  0  0  0  0  0  0
   18.6948   -6.2890  -11.4630 C   0  0  0  0  0  0  0  0  0  0  0  0
   18.1171   -6.8196  -12.4365 O   0  0  0  0  0  0  0  0  0  0  0  0
   20.4471   -3.7655  -14.7306 O   0  0  0  0  0  0  0  0  0  0  0  0
   19.9536   -4.1224  -13.4981 C   0  0  0  0  0  0  0  0  0  0  0  0
   20.4693   -5.4801  -13.0347 C   0  0  2  0  0  0  0  0  0  0  0  0
   19.9552   -5.6752  -11.6944 N   0  0  0  0  0  0  0  0  0  0  0  0
   21.9486   -5.5155  -13.0711 C   0  0  0  0  0  0  0  0  0  0  0  0
   22.6461   -5.2091  -11.9189 O   0  0  0  0  0  0  0  0  0  0  0  0
   22.5840   -5.8119  -14.1051 O   0  0  0  0  0  0  0  0  0  0  0  0
  2  1  1  1
  3  4  1  0
  3  2  1  0
  4  5  1  0
  5  9  1  0
  5  6  2  0
  7  2  1  0
  8  7  2  0
 10  7  1  0
 11 10  1  0
 11 12  1  0
 12 13  2  0
 16 15  1  1
 15 14  1  0
 17 12  1  0
 17 16  1  0
 18 16  1  0
 18 19  1  0
 20 18  2  0
M  END
$$$$
