EGS.pdb
     RDKit          3D

 20 19  0  0  1  0  0  0  0  0999 V2000
   19.1281  -11.0117  -17.6214 N   0  0  0  0  0  0  0  0  0  0  0  0
   18.7603  -10.8136  -16.2104 C   0  0  1  0  0  0  0  0  0  0  0  0
   18.4964  -12.1272  -15.5532 C   0  0  0  0  0  0  0  0  0  0  0  0
   17.2406  -12.7471  -16.0562 C   0  0  0  0  0  0  0  0  0  0  0  0
   16.9791  -14.0324  -15.3327 C   0  0  0  0  0  0  0  0  0  0  0  0
   15.8227  -14.4854  -15.3233 O   0  0  0  0  0  0  0  0  0  0  0  0
   19.8270  -10.0825  -15.5353 C   0  0  0  0  0  0  0  0  0  0  0  0
   19.7434   -9.7133  -14.3538 O   0  0  0  0  0  0  0  0  0  0  0  0
   18.0056  -14.6761  -14.7034 O   0  0  0  0  0  0  0  0  0  0  0  0
   21.0301   -9.7640  -16.2382 N   0  0  0  0  0  0  0  0  0  0  0  0
   21.9987   -8.9177  -15.6215 C   0  0  0  0  0  0  0  0  0  0  0  0
   21.5842   -7.4699  -15.6823 C   0  0  0  0  0  0  0  0  0  0  0  0
   21.1657   -6.9559  -16.7424 O   0  0  0  0  0  0  0  0  0  0  0  0
   19.5677   -5.5061  -13.0014 O   0  0  0  0  0  0  0  0  0  0  0  0
   19.8754   -5.0869  -14.2740 C   0  0  0  0  0  0  0  0  0  0  0  0
   21.3600   -5.2267  -14.5907 C   0  0  2  0  0  0  0  0  0  0  0  0
   21.6579   -6.6431  -14.5290 N   0  0  0  0  0  0  0  0  0  0  0  0
   22.1731   -4.4474  -13.6304 C   0  0  0  0  0  0  0  0  0  0  0  0
   22.0897   -3.0689  -13.6590 O   0  0  0  0  0  0  0  0  0  0  0  0
   22.9289   -4.9930  -12.7986 O   0  0  0  0  0  0  0  0  0  0  0  0
  2  1  1  6
  3  4  1  0
  3  2  1  0
  4  5  1  0
  5  9  1  0
  5  6  2  0
  7  2  1  0
  8  7  2  0
 10  7  1  0
 11 10  1  0
 11 12  1  0
 12 13  2  0
 16 15  1  1
 15 14  1  0
 17 12  1  0
 17 16  1  0
 18 16  1  0
 18 19  1  0
 20 18  2  0
M  END
$$$$
