EGS.pdb
     RDKit          3D

 20 19  0  0  1  0  0  0  0  0999 V2000
   19.5109  -11.4214  -15.9367 N   0  0  0  0  0  0  0  0  0  0  0  0
   18.0783  -11.1213  -16.0892 C   0  0  1  0  0  0  0  0  0  0  0  0
   17.2541  -12.2813  -15.6394 C   0  0  0  0  0  0  0  0  0  0  0  0
   17.4737  -13.4742  -16.5014 C   0  0  0  0  0  0  0  0  0  0  0  0
   16.5649  -13.4201  -17.6909 C   0  0  0  0  0  0  0  0  0  0  0  0
   17.0241  -13.0188  -18.7729 O   0  0  0  0  0  0  0  0  0  0  0  0
   17.7588   -9.9139  -15.3354 C   0  0  0  0  0  0  0  0  0  0  0  0
   16.6177   -9.4286  -15.2986 O   0  0  0  0  0  0  0  0  0  0  0  0
   15.2620  -13.8087  -17.5659 O   0  0  0  0  0  0  0  0  0  0  0  0
   18.7819   -9.2402  -14.5989 N   0  0  0  0  0  0  0  0  0  0  0  0
   18.4478   -8.0848  -13.8320 C   0  0  0  0  0  0  0  0  0  0  0  0
   19.6723   -7.4610  -13.2131 C   0  0  0  0  0  0  0  0  0  0  0  0
   20.4046   -8.1024  -12.4285 O   0  0  0  0  0  0  0  0  0  0  0  0
   23.2801   -6.2050  -15.0962 O   0  0  0  0  0  0  0  0  0  0  0  0
   22.0040   -6.5841  -14.7529 C   0  0  0  0  0  0  0  0  0  0  0  0
   21.4160   -5.7158  -13.6463 C   0  0  2  0  0  0  0  0  0  0  0  0
   20.0313   -6.1177  -13.5058 N   0  0  0  0  0  0  0  0  0  0  0  0
   21.5446   -4.2810  -13.9862 C   0  0  0  0  0  0  0  0  0  0  0  0
   22.5864   -3.5613  -13.4343 O   0  0  0  0  0  0  0  0  0  0  0  0
   20.7454   -3.7022  -14.7524 O   0  0  0  0  0  0  0  0  0  0  0  0
  2  1  1  1
  3  4  1  0
  3  2  1  0
  4  5  1  0
  5  9  1  0
  5  6  2  0
  7  2  1  0
  8  7  2  0
 10  7  1  0
 11 10  1  0
 11 12  1  0
 12 13  2  0
 16 15  1  6
 15 14  1  0
 17 12  1  0
 17 16  1  0
 18 16  1  0
 18 19  1  0
 20 18  2  0
M  END
$$$$
