EGS.pdb
     RDKit          3D

 20 19  0  0  1  0  0  0  0  0999 V2000
   16.6396  -12.3246  -17.4459 N   0  0  0  0  0  0  0  0  0  0  0  0
   17.1901  -11.7417  -16.2118 C   0  0  1  0  0  0  0  0  0  0  0  0
   17.6444  -12.8202  -15.2859 C   0  0  0  0  0  0  0  0  0  0  0  0
   16.5357  -13.7538  -14.9490 C   0  0  0  0  0  0  0  0  0  0  0  0
   17.0539  -14.8822  -14.1111 C   0  0  0  0  0  0  0  0  0  0  0  0
   16.3003  -15.3889  -13.2636 O   0  0  0  0  0  0  0  0  0  0  0  0
   18.2814  -10.8365  -16.5549 C   0  0  0  0  0  0  0  0  0  0  0  0
   19.0418  -11.0361  -17.5146 O   0  0  0  0  0  0  0  0  0  0  0  0
   18.3313  -15.3288  -14.2919 O   0  0  0  0  0  0  0  0  0  0  0  0
   18.5086   -9.6628  -15.7713 N   0  0  0  0  0  0  0  0  0  0  0  0
   19.6548   -8.8556  -16.0349 C   0  0  0  0  0  0  0  0  0  0  0  0
   19.7502   -7.7019  -15.0697 C   0  0  0  0  0  0  0  0  0  0  0  0
   18.7925   -7.3918  -14.3282 O   0  0  0  0  0  0  0  0  0  0  0  0
   22.4474   -5.1184  -12.2253 O   0  0  0  0  0  0  0  0  0  0  0  0
   22.2494   -6.0958  -13.1715 C   0  0  0  0  0  0  0  0  0  0  0  0
   21.0453   -5.8098  -14.0617 C   0  0  2  0  0  0  0  0  0  0  0  0
   20.9389   -6.9292  -14.9749 N   0  0  0  0  0  0  0  0  0  0  0  0
   21.2197   -4.5259  -14.7772 C   0  0  0  0  0  0  0  0  0  0  0  0
   20.7288   -3.3729  -14.1962 O   0  0  0  0  0  0  0  0  0  0  0  0
   21.7939   -4.4512  -15.8842 O   0  0  0  0  0  0  0  0  0  0  0  0
  2  1  1  6
  3  4  1  0
  3  2  1  0
  4  5  1  0
  5  9  1  0
  5  6  2  0
  7  2  1  0
  8  7  2  0
 10  7  1  0
 11 10  1  0
 11 12  1  0
 12 13  2  0
 16 15  1  1
 15 14  1  0
 17 12  1  0
 17 16  1  0
 18 16  1  0
 18 19  1  0
 20 18  2  0
M  END
$$$$
