EGS.pdb
     RDKit          3D

 20 19  0  0  1  0  0  0  0  0999 V2000
   26.0776  -32.5345   -8.4849 N   0  0  0  0  0  0  0  0  0  0  0  0
   24.7787  -33.2161   -8.6019 C   0  0  1  0  0  0  0  0  0  0  0  0
   24.6453  -33.8525   -9.9451 C   0  0  0  0  0  0  0  0  0  0  0  0
   24.5735  -32.8338  -11.0275 C   0  0  0  0  0  0  0  0  0  0  0  0
   24.3837  -33.5073  -12.3520 C   0  0  0  0  0  0  0  0  0  0  0  0
   24.3666  -32.8078  -13.3782 O   0  0  0  0  0  0  0  0  0  0  0  0
   24.6546  -34.1980   -7.5301 C   0  0  0  0  0  0  0  0  0  0  0  0
   23.6293  -34.8743   -7.3555 O   0  0  0  0  0  0  0  0  0  0  0  0
   24.2346  -34.8633  -12.4070 O   0  0  0  0  0  0  0  0  0  0  0  0
   25.7427  -34.4119   -6.6282 N   0  0  0  0  0  0  0  0  0  0  0  0
   25.6078  -35.3735   -5.5833 C   0  0  0  0  0  0  0  0  0  0  0  0
   25.9517  -34.7806   -4.2409 C   0  0  0  0  0  0  0  0  0  0  0  0
   26.3605  -33.6040   -4.1337 O   0  0  0  0  0  0  0  0  0  0  0  0
   26.1440  -35.6841    0.5526 O   0  0  0  0  0  0  0  0  0  0  0  0
   25.8128  -36.0596   -0.7277 C   0  0  0  0  0  0  0  0  0  0  0  0
   26.2562  -35.0373   -1.7681 C   0  0  2  0  0  0  0  0  0  0  0  0
   25.8202  -35.5474   -3.0519 N   0  0  0  0  0  0  0  0  0  0  0  0
   27.7230  -34.8453   -1.7175 C   0  0  0  0  0  0  0  0  0  0  0  0
   28.2382  -33.9139   -0.8371 O   0  0  0  0  0  0  0  0  0  0  0  0
   28.5067  -35.4951   -2.4416 O   0  0  0  0  0  0  0  0  0  0  0  0
  2  1  1  6
  3  4  1  0
  3  2  1  0
  4  5  1  0
  5  9  1  0
  5  6  2  0
  7  2  1  0
  8  7  2  0
 10  7  1  0
 11 10  1  0
 11 12  1  0
 12 13  2  0
 16 15  1  1
 15 14  1  0
 17 12  1  0
 17 16  1  0
 18 16  1  0
 18 19  1  0
 20 18  2  0
M  END
$$$$
