EGS.pdb
     RDKit          3D

 20 19  0  0  1  0  0  0  0  0999 V2000
   21.4597  -12.1907  -16.6765 N   0  0  0  0  0  0  0  0  0  0  0  0
   21.1981  -11.9284  -18.1008 C   0  0  1  0  0  0  0  0  0  0  0  0
   19.8451  -12.4301  -18.4812 C   0  0  0  0  0  0  0  0  0  0  0  0
   19.0956  -12.9312  -17.2973 C   0  0  0  0  0  0  0  0  0  0  0  0
   17.7667  -13.4739  -17.7254 C   0  0  0  0  0  0  0  0  0  0  0  0
   17.7382  -14.5232  -18.3893 O   0  0  0  0  0  0  0  0  0  0  0  0
   21.3296  -10.4982  -18.3566 C   0  0  0  0  0  0  0  0  0  0  0  0
   21.2758  -10.0132  -19.4972 O   0  0  0  0  0  0  0  0  0  0  0  0
   16.6227  -12.8125  -17.3818 O   0  0  0  0  0  0  0  0  0  0  0  0
   21.5295   -9.5935  -17.2682 N   0  0  0  0  0  0  0  0  0  0  0  0
   21.5457   -8.1893  -17.5183 C   0  0  0  0  0  0  0  0  0  0  0  0
   21.0626   -7.4106  -16.3217 C   0  0  0  0  0  0  0  0  0  0  0  0
   19.8639   -7.4375  -15.9674 O   0  0  0  0  0  0  0  0  0  0  0  0
   21.0576   -7.9704  -13.1964 O   0  0  0  0  0  0  0  0  0  0  0  0
   21.8344   -6.8362  -13.1910 C   0  0  0  0  0  0  0  0  0  0  0  0
   21.5298   -5.9155  -14.3673 C   0  0  2  0  0  0  0  0  0  0  0  0
   21.9618   -6.6190  -15.5576 N   0  0  0  0  0  0  0  0  0  0  0  0
   22.2251   -4.6187  -14.2073 C   0  0  0  0  0  0  0  0  0  0  0  0
   21.8433   -3.7866  -13.1730 O   0  0  0  0  0  0  0  0  0  0  0  0
   23.1418   -4.2536  -14.9736 O   0  0  0  0  0  0  0  0  0  0  0  0
  2  1  1  1
  3  4  1  0
  3  2  1  0
  4  5  1  0
  5  9  1  0
  5  6  2  0
  7  2  1  0
  8  7  2  0
 10  7  1  0
 11 10  1  0
 11 12  1  0
 12 13  2  0
 16 15  1  1
 15 14  1  0
 17 12  1  0
 17 16  1  0
 18 16  1  0
 18 19  1  0
 20 18  2  0
M  END
$$$$
