QES.pdb
     RDKit          3D

 25 24  0  0  1  0  0  0  0  0999 V2000
    6.2458  -14.0512   16.9929 N   0  0  0  0  0  0  0  0  0  0  0  0
    7.5557  -14.2468   16.4924 C   0  0  0  0  0  0  0  0  0  0  0  0
    7.6953  -14.5380   15.2813 O   0  0  0  0  0  0  0  0  0  0  0  0
    8.7412  -14.1194   17.3427 C   0  0  0  0  0  0  0  0  0  0  0  0
    8.3238  -13.8587   18.7907 C   0  0  0  0  0  0  0  0  0  0  0  0
    9.5745  -13.6465   19.5735 C   0  0  2  0  0  0  0  0  0  0  0  0
   10.6262  -13.2659   18.6652 N   0  0  0  0  0  0  0  0  0  0  0  0
    9.9463  -14.7732   20.4517 C   0  0  0  0  0  0  0  0  0  0  0  0
    9.0519  -15.3112   21.1560 O   0  0  0  0  0  0  0  0  0  0  0  0
   11.2475  -15.3022   20.5646 N   0  0  0  0  0  0  0  0  0  0  0  0
   11.5646  -16.5540   21.2724 C   0  0  1  0  0  0  0  0  0  0  0  0
   12.7418  -17.1463   20.5833 C   0  0  0  0  0  0  0  0  0  0  0  0
   14.0371  -16.4060   20.7593 C   0  0  0  0  0  0  0  0  0  0  0  0
   15.1998  -17.0353   20.1145 C   0  0  0  0  0  0  0  0  0  0  0  0
   16.3142  -17.0512   20.6557 O   0  0  0  0  0  0  0  0  0  0  0  0
   11.6951  -16.3382   22.7116 C   0  0  0  0  0  0  0  0  0  0  0  0
   12.3300  -15.3598   23.1677 O   0  0  0  0  0  0  0  0  0  0  0  0
   15.0569  -17.6340   18.8591 O   0  0  0  0  0  0  0  0  0  0  0  0
    8.7436  -16.7416   25.1516 O   0  0  0  0  0  0  0  0  0  0  0  0
    9.9129  -16.0920   25.5179 C   0  0  0  0  0  0  0  0  0  0  0  0
   11.0820  -16.9344   25.0949 C   0  0  2  0  0  0  0  0  0  0  0  0
   11.1135  -17.2195   23.6917 N   0  0  0  0  0  0  0  0  0  0  0  0
   11.1373  -18.1729   25.9240 C   0  0  0  0  0  0  0  0  0  0  0  0
   11.1423  -18.0479   27.1702 O   0  0  0  0  0  0  0  0  0  0  0  0
   11.1819  -19.4234   25.3554 O   0  0  0  0  0  0  0  0  0  0  0  0
  2  4  1  0
  2  1  1  0
  3  2  2  0
  5  4  1  0
  6  5  1  0
  6  8  1  0
  6  7  1  6
  8 10  1  0
  9  8  2  0
 10 11  1  0
 11 16  1  0
 11 12  1  6
 12 13  1  0
 13 14  1  0
 14 18  1  0
 14 15  2  0
 16 17  2  0
 19 20  1  0
 21 20  1  6
 21 22  1  0
 21 23  1  0
 22 16  1  0
 23 24  2  0
 23 25  1  0
M  END
$$$$
