QES.pdb
     RDKit          3D

 25 24  0  0  1  0  0  0  0  0999 V2000
    6.8699  -15.4914   15.0687 N   0  0  0  0  0  0  0  0  0  0  0  0
    7.5351  -14.2441   15.1492 C   0  0  0  0  0  0  0  0  0  0  0  0
    7.7254  -13.5990   14.0915 O   0  0  0  0  0  0  0  0  0  0  0  0
    8.0025  -13.6918   16.4224 C   0  0  0  0  0  0  0  0  0  0  0  0
    8.7750  -14.7551   17.2046 C   0  0  0  0  0  0  0  0  0  0  0  0
    9.1535  -14.1460   18.5113 C   0  0  2  0  0  0  0  0  0  0  0  0
    9.5754  -12.7877   18.2804 N   0  0  0  0  0  0  0  0  0  0  0  0
   10.1286  -14.9308   19.2937 C   0  0  0  0  0  0  0  0  0  0  0  0
    9.8868  -16.1464   19.5161 O   0  0  0  0  0  0  0  0  0  0  0  0
   11.3301  -14.4157   19.8201 N   0  0  0  0  0  0  0  0  0  0  0  0
   12.2952  -15.2152   20.5932 C   0  0  1  0  0  0  0  0  0  0  0  0
   13.6382  -14.6340   20.3285 C   0  0  0  0  0  0  0  0  0  0  0  0
   14.7894  -15.3275   20.9999 C   0  0  0  0  0  0  0  0  0  0  0  0
   16.1133  -14.7669   20.6892 C   0  0  0  0  0  0  0  0  0  0  0  0
   17.0969  -15.4937   20.4903 O   0  0  0  0  0  0  0  0  0  0  0  0
   11.8998  -15.3246   21.9955 C   0  0  0  0  0  0  0  0  0  0  0  0
   11.9560  -14.3389   22.7661 O   0  0  0  0  0  0  0  0  0  0  0  0
   16.2792  -13.3808   20.6134 O   0  0  0  0  0  0  0  0  0  0  0  0
    9.3078  -18.0936   23.4838 O   0  0  0  0  0  0  0  0  0  0  0  0
    9.6935  -17.0150   24.2655 C   0  0  0  0  0  0  0  0  0  0  0  0
   11.1339  -16.7039   23.9761 C   0  0  2  0  0  0  0  0  0  0  0  0
   11.4254  -16.5519   22.5821 N   0  0  0  0  0  0  0  0  0  0  0  0
   12.0100  -17.7192   24.6287 C   0  0  0  0  0  0  0  0  0  0  0  0
   12.7535  -18.4130   23.8977 O   0  0  0  0  0  0  0  0  0  0  0  0
   12.0151  -17.9028   25.9909 O   0  0  0  0  0  0  0  0  0  0  0  0
  2  4  1  0
  2  1  1  0
  3  2  2  0
  5  4  1  0
  6  5  1  0
  6  8  1  0
  6  7  1  6
  8 10  1  0
  9  8  2  0
 10 11  1  0
 11 16  1  0
 11 12  1  1
 12 13  1  0
 13 14  1  0
 14 18  1  0
 14 15  2  0
 16 17  2  0
 19 20  1  0
 21 20  1  6
 21 22  1  0
 21 23  1  0
 22 16  1  0
 23 24  2  0
 23 25  1  0
M  END
$$$$
