QES.pdb
     RDKit          3D

 25 24  0  0  1  0  0  0  0  0999 V2000
    7.7360  -12.7884   17.9200 N   0  0  0  0  0  0  0  0  0  0  0  0
    7.8380  -13.6318   16.7874 C   0  0  0  0  0  0  0  0  0  0  0  0
    7.5760  -13.1520   15.6594 O   0  0  0  0  0  0  0  0  0  0  0  0
    8.2375  -15.0365   16.8961 C   0  0  0  0  0  0  0  0  0  0  0  0
    8.5070  -15.3947   18.3583 C   0  0  0  0  0  0  0  0  0  0  0  0
    8.9548  -16.8162   18.3837 C   0  0  2  0  0  0  0  0  0  0  0  0
    7.9088  -17.6376   17.8295 N   0  0  0  0  0  0  0  0  0  0  0  0
    9.4252  -17.2870   19.7013 C   0  0  0  0  0  0  0  0  0  0  0  0
    8.5863  -17.7752   20.5034 O   0  0  0  0  0  0  0  0  0  0  0  0
   10.7638  -17.2312   20.1382 N   0  0  0  0  0  0  0  0  0  0  0  0
   11.2025  -17.6260   21.4873 C   0  0  1  0  0  0  0  0  0  0  0  0
   12.6093  -18.0905   21.3585 C   0  0  0  0  0  0  0  0  0  0  0  0
   13.2625  -18.5434   22.6333 C   0  0  0  0  0  0  0  0  0  0  0  0
   14.6758  -18.9287   22.4993 C   0  0  0  0  0  0  0  0  0  0  0  0
   15.5780  -18.3012   23.0714 O   0  0  0  0  0  0  0  0  0  0  0  0
   10.9549  -16.5671   22.4631 C   0  0  0  0  0  0  0  0  0  0  0  0
   11.1267  -15.3611   22.1722 O   0  0  0  0  0  0  0  0  0  0  0  0
   15.0227  -20.0288   21.7093 O   0  0  0  0  0  0  0  0  0  0  0  0
    7.8791  -15.8103   24.4213 O   0  0  0  0  0  0  0  0  0  0  0  0
    8.9924  -14.9836   24.4041 C   0  0  0  0  0  0  0  0  0  0  0  0
   10.2021  -15.8010   24.7561 C   0  0  2  0  0  0  0  0  0  0  0  0
   10.5035  -16.8293   23.8058 N   0  0  0  0  0  0  0  0  0  0  0  0
   10.0636  -16.3356   26.1416 C   0  0  0  0  0  0  0  0  0  0  0  0
    9.8195  -15.5247   27.0643 O   0  0  0  0  0  0  0  0  0  0  0  0
   10.1966  -17.6755   26.4173 O   0  0  0  0  0  0  0  0  0  0  0  0
  2  4  1  0
  2  1  1  0
  3  2  2  0
  5  4  1  0
  6  5  1  0
  6  8  1  0
  6  7  1  1
  8 10  1  0
  9  8  2  0
 10 11  1  0
 11 16  1  0
 11 12  1  6
 12 13  1  0
 13 14  1  0
 14 18  1  0
 14 15  2  0
 16 17  2  0
 19 20  1  0
 21 20  1  6
 21 22  1  0
 21 23  1  0
 22 16  1  0
 23 24  2  0
 23 25  1  0
M  END
$$$$
