QES.pdb
     RDKit          3D

 25 24  0  0  1  0  0  0  0  0999 V2000
    8.1934  -11.3343   20.5606 N   0  0  0  0  0  0  0  0  0  0  0  0
    7.5269  -12.5792   20.4576 C   0  0  0  0  0  0  0  0  0  0  0  0
    6.5235  -12.7814   21.1811 O   0  0  0  0  0  0  0  0  0  0  0  0
    7.9732  -13.6276   19.5377 C   0  0  0  0  0  0  0  0  0  0  0  0
    9.1255  -13.1131   18.6737 C   0  0  0  0  0  0  0  0  0  0  0  0
    9.5719  -14.2505   17.8199 C   0  0  2  0  0  0  0  0  0  0  0  0
    8.4085  -14.8845   17.2538 N   0  0  0  0  0  0  0  0  0  0  0  0
   10.4811  -15.2003   18.4908 C   0  0  0  0  0  0  0  0  0  0  0  0
   10.0364  -16.3303   18.8236 O   0  0  0  0  0  0  0  0  0  0  0  0
   11.8318  -14.9352   18.7929 N   0  0  0  0  0  0  0  0  0  0  0  0
   12.7165  -15.8829   19.4913 C   0  0  1  0  0  0  0  0  0  0  0  0
   14.0914  -15.6372   18.9806 C   0  0  0  0  0  0  0  0  0  0  0  0
   14.5250  -14.1992   18.9498 C   0  0  0  0  0  0  0  0  0  0  0  0
   15.9053  -13.9808   18.4908 C   0  0  0  0  0  0  0  0  0  0  0  0
   16.2217  -14.1047   17.2993 O   0  0  0  0  0  0  0  0  0  0  0  0
   12.5397  -15.8138   20.9400 C   0  0  0  0  0  0  0  0  0  0  0  0
   12.8862  -14.8010   21.5901 O   0  0  0  0  0  0  0  0  0  0  0  0
   16.8943  -13.6240   19.4123 O   0  0  0  0  0  0  0  0  0  0  0  0
    9.5514  -16.0979   22.8203 O   0  0  0  0  0  0  0  0  0  0  0  0
   10.3284  -16.9900   23.5440 C   0  0  0  0  0  0  0  0  0  0  0  0
   11.7617  -16.8247   23.1274 C   0  0  2  0  0  0  0  0  0  0  0  0
   11.9646  -16.8864   21.7109 N   0  0  0  0  0  0  0  0  0  0  0  0
   12.6164  -17.8007   23.8631 C   0  0  0  0  0  0  0  0  0  0  0  0
   13.3126  -18.5970   23.1925 O   0  0  0  0  0  0  0  0  0  0  0  0
   12.6523  -17.8402   25.2366 O   0  0  0  0  0  0  0  0  0  0  0  0
  2  4  1  0
  2  1  1  0
  3  2  2  0
  5  4  1  0
  6  5  1  0
  6  8  1  0
  6  7  1  1
  8 10  1  0
  9  8  2  0
 10 11  1  0
 11 16  1  0
 11 12  1  1
 12 13  1  0
 13 14  1  0
 14 18  1  0
 14 15  2  0
 16 17  2  0
 19 20  1  0
 21 20  1  6
 21 22  1  0
 21 23  1  0
 22 16  1  0
 23 24  2  0
 23 25  1  0
M  END
$$$$
