QES.pdb
     RDKit          3D

 25 24  0  0  1  0  0  0  0  0999 V2000
   12.4262  -21.1432   17.2867 N   0  0  0  0  0  0  0  0  0  0  0  0
   11.5255  -20.0595   17.1494 C   0  0  0  0  0  0  0  0  0  0  0  0
   11.0831  -19.7911   16.0077 O   0  0  0  0  0  0  0  0  0  0  0  0
   11.1003  -19.2507   18.2938 C   0  0  0  0  0  0  0  0  0  0  0  0
   11.7187  -19.7962   19.5818 C   0  0  0  0  0  0  0  0  0  0  0  0
   11.1793  -18.9782   20.7050 C   0  0  2  0  0  0  0  0  0  0  0  0
   10.9886  -17.6279   20.2400 N   0  0  0  0  0  0  0  0  0  0  0  0
   11.9649  -19.0564   21.9523 C   0  0  0  0  0  0  0  0  0  0  0  0
   12.1279  -20.1811   22.4945 O   0  0  0  0  0  0  0  0  0  0  0  0
   12.5567  -17.9502   22.5942 N   0  0  0  0  0  0  0  0  0  0  0  0
   13.3773  -18.0523   23.8126 C   0  0  1  0  0  0  0  0  0  0  0  0
   14.3980  -16.9740   23.7301 C   0  0  0  0  0  0  0  0  0  0  0  0
   15.5670  -17.2543   22.8292 C   0  0  0  0  0  0  0  0  0  0  0  0
   16.5975  -16.2048   22.8111 C   0  0  0  0  0  0  0  0  0  0  0  0
   17.7655  -16.4342   23.1551 O   0  0  0  0  0  0  0  0  0  0  0  0
   12.5498  -18.0726   25.0166 C   0  0  0  0  0  0  0  0  0  0  0  0
   11.6386  -17.2319   25.1939 O   0  0  0  0  0  0  0  0  0  0  0  0
   16.2633  -14.9119   22.3974 O   0  0  0  0  0  0  0  0  0  0  0  0
   10.2205  -20.6052   26.2677 O   0  0  0  0  0  0  0  0  0  0  0  0
   10.3901  -19.3359   26.8000 C   0  0  0  0  0  0  0  0  0  0  0  0
   11.8318  -19.1660   27.1847 C   0  0  2  0  0  0  0  0  0  0  0  0
   12.7194  -19.0435   26.0673 N   0  0  0  0  0  0  0  0  0  0  0  0
   12.2387  -20.2613   28.1116 C   0  0  0  0  0  0  0  0  0  0  0  0
   13.2291  -20.9608   27.7982 O   0  0  0  0  0  0  0  0  0  0  0  0
   11.5591  -20.5109   29.2799 O   0  0  0  0  0  0  0  0  0  0  0  0
  2  4  1  0
  2  1  1  0
  3  2  2  0
  5  4  1  0
  6  5  1  0
  6  8  1  0
  6  7  1  6
  8 10  1  0
  9  8  2  0
 10 11  1  0
 11 16  1  0
 11 12  1  1
 12 13  1  0
 13 14  1  0
 14 18  1  0
 14 15  2  0
 16 17  2  0
 19 20  1  0
 21 20  1  6
 21 22  1  0
 21 23  1  0
 22 16  1  0
 23 24  2  0
 23 25  1  0
M  END
$$$$
