QES.pdb
     RDKit          3D

 25 24  0  0  1  0  0  0  0  0999 V2000
    7.5962  -12.9490   19.4435 N   0  0  0  0  0  0  0  0  0  0  0  0
    7.5944  -13.6848   18.2339 C   0  0  0  0  0  0  0  0  0  0  0  0
    6.9869  -13.2092   17.2460 O   0  0  0  0  0  0  0  0  0  0  0  0
    8.2764  -14.9744   18.1060 C   0  0  0  0  0  0  0  0  0  0  0  0
    8.9284  -15.3583   19.4351 C   0  0  0  0  0  0  0  0  0  0  0  0
    9.5774  -16.6852   19.2353 C   0  0  2  0  0  0  0  0  0  0  0  0
    8.5737  -17.6290   18.8136 N   0  0  0  0  0  0  0  0  0  0  0  0
   10.3714  -17.1585   20.3862 C   0  0  0  0  0  0  0  0  0  0  0  0
    9.8715  -18.0264   21.1492 O   0  0  0  0  0  0  0  0  0  0  0  0
   11.6680  -16.7061   20.7022 N   0  0  0  0  0  0  0  0  0  0  0  0
   12.4085  -17.1175   21.9067 C   0  0  1  0  0  0  0  0  0  0  0  0
   13.8066  -16.6429   21.7298 C   0  0  0  0  0  0  0  0  0  0  0  0
   14.7607  -17.0092   22.8309 C   0  0  0  0  0  0  0  0  0  0  0  0
   16.1195  -16.4680   22.6753 C   0  0  0  0  0  0  0  0  0  0  0  0
   16.4360  -15.3625   23.1366 O   0  0  0  0  0  0  0  0  0  0  0  0
   11.7273  -16.6909   23.1269 C   0  0  0  0  0  0  0  0  0  0  0  0
   11.4851  -15.4822   23.3482 O   0  0  0  0  0  0  0  0  0  0  0  0
   17.0875  -17.2099   21.9917 O   0  0  0  0  0  0  0  0  0  0  0  0
    8.5966  -16.5909   24.3774 O   0  0  0  0  0  0  0  0  0  0  0  0
    9.1523  -17.4205   25.3398 C   0  0  0  0  0  0  0  0  0  0  0  0
   10.6392  -17.2099   25.3536 C   0  0  2  0  0  0  0  0  0  0  0  0
   11.2930  -17.6132   24.1448 N   0  0  0  0  0  0  0  0  0  0  0  0
   11.2293  -17.8606   26.5589 C   0  0  0  0  0  0  0  0  0  0  0  0
   12.1421  -18.7008   26.3875 O   0  0  0  0  0  0  0  0  0  0  0  0
   10.7973  -17.5600   27.8286 O   0  0  0  0  0  0  0  0  0  0  0  0
  2  4  1  0
  2  1  1  0
  3  2  2  0
  5  4  1  0
  6  5  1  0
  6  8  1  0
  6  7  1  1
  8 10  1  0
  9  8  2  0
 10 11  1  0
 11 16  1  0
 11 12  1  6
 12 13  1  0
 13 14  1  0
 14 18  1  0
 14 15  2  0
 16 17  2  0
 19 20  1  0
 21 20  1  6
 21 22  1  0
 21 23  1  0
 22 16  1  0
 23 24  2  0
 23 25  1  0
M  END
$$$$
