QES.pdb
     RDKit          3D

 25 24  0  0  1  0  0  0  0  0999 V2000
    9.6831  -12.9821   18.4337 N   0  0  0  0  0  0  0  0  0  0  0  0
    8.2932  -12.7189   18.3745 C   0  0  0  0  0  0  0  0  0  0  0  0
    7.8640  -11.9767   17.4602 O   0  0  0  0  0  0  0  0  0  0  0  0
    7.3517  -13.2846   19.3431 C   0  0  0  0  0  0  0  0  0  0  0  0
    8.1085  -14.0733   20.4129 C   0  0  0  0  0  0  0  0  0  0  0  0
    8.6124  -15.3166   19.7631 C   0  0  2  0  0  0  0  0  0  0  0  0
    7.5000  -15.9998   19.1532 N   0  0  0  0  0  0  0  0  0  0  0  0
    9.4144  -16.1871   20.6452 C   0  0  0  0  0  0  0  0  0  0  0  0
    8.8209  -17.0476   21.3472 O   0  0  0  0  0  0  0  0  0  0  0  0
   10.8174  -16.1283   20.7643 N   0  0  0  0  0  0  0  0  0  0  0  0
   11.6006  -16.9948   21.6610 C   0  0  1  0  0  0  0  0  0  0  0  0
   12.9438  -17.1457   21.0410 C   0  0  0  0  0  0  0  0  0  0  0  0
   12.9686  -17.8323   19.7051 C   0  0  0  0  0  0  0  0  0  0  0  0
   14.3050  -17.9670   19.1054 C   0  0  0  0  0  0  0  0  0  0  0  0
   15.1736  -18.6932   19.6089 O   0  0  0  0  0  0  0  0  0  0  0  0
   11.5719  -16.5072   23.0381 C   0  0  0  0  0  0  0  0  0  0  0  0
   12.1100  -15.4216   23.3552 O   0  0  0  0  0  0  0  0  0  0  0  0
   14.6154  -17.2632   17.9380 O   0  0  0  0  0  0  0  0  0  0  0  0
    8.6427  -17.2787   25.6751 O   0  0  0  0  0  0  0  0  0  0  0  0
    9.5861  -16.2990   25.9462 C   0  0  0  0  0  0  0  0  0  0  0  0
   10.9271  -16.7802   25.4714 C   0  0  2  0  0  0  0  0  0  0  0  0
   10.9342  -17.2271   24.1107 N   0  0  0  0  0  0  0  0  0  0  0  0
   11.4520  -17.8151   26.4084 C   0  0  0  0  0  0  0  0  0  0  0  0
   11.6681  -18.9632   25.9570 O   0  0  0  0  0  0  0  0  0  0  0  0
   11.6977  -17.5359   27.7316 O   0  0  0  0  0  0  0  0  0  0  0  0
  2  4  1  0
  2  1  1  0
  3  2  2  0
  5  4  1  0
  6  5  1  0
  6  8  1  0
  6  7  1  1
  8 10  1  0
  9  8  2  0
 10 11  1  0
 11 16  1  0
 11 12  1  6
 12 13  1  0
 13 14  1  0
 14 18  1  0
 14 15  2  0
 16 17  2  0
 19 20  1  0
 21 20  1  1
 21 22  1  0
 21 23  1  0
 22 16  1  0
 23 24  2  0
 23 25  1  0
M  END
$$$$
