QES.pdb
     RDKit          3D

 25 24  0  0  1  0  0  0  0  0999 V2000
    7.6320  -20.1705   15.1918 N   0  0  0  0  0  0  0  0  0  0  0  0
    7.0832  -18.8782   15.3738 C   0  0  0  0  0  0  0  0  0  0  0  0
    6.0706  -18.5596   14.7073 O   0  0  0  0  0  0  0  0  0  0  0  0
    7.6605  -17.9120   16.3108 C   0  0  0  0  0  0  0  0  0  0  0  0
    8.9317  -18.4845   16.9395 C   0  0  0  0  0  0  0  0  0  0  0  0
    9.2753  -17.6131   18.0989 C   0  0  2  0  0  0  0  0  0  0  0  0
    9.4656  -16.2669   17.6217 N   0  0  0  0  0  0  0  0  0  0  0  0
   10.4004  -18.1015   18.9203 C   0  0  0  0  0  0  0  0  0  0  0  0
   10.3591  -19.2797   19.3625 O   0  0  0  0  0  0  0  0  0  0  0  0
   11.5368  -17.3375   19.2535 N   0  0  0  0  0  0  0  0  0  0  0  0
   12.5847  -17.7905   20.1835 C   0  0  1  0  0  0  0  0  0  0  0  0
   13.8835  -17.6106   19.4819 C   0  0  0  0  0  0  0  0  0  0  0  0
   14.1005  -18.4893   18.2829 C   0  0  0  0  0  0  0  0  0  0  0  0
   15.3680  -18.2611   17.5722 C   0  0  0  0  0  0  0  0  0  0  0  0
   15.4378  -18.3061   16.3360 O   0  0  0  0  0  0  0  0  0  0  0  0
   12.4575  -17.1475   21.4894 C   0  0  0  0  0  0  0  0  0  0  0  0
   12.9407  -16.0125   21.7055 O   0  0  0  0  0  0  0  0  0  0  0  0
   16.5305  -17.9857   18.2986 O   0  0  0  0  0  0  0  0  0  0  0  0
    9.9775  -15.7957   22.9744 O   0  0  0  0  0  0  0  0  0  0  0  0
   10.3364  -16.4798   24.1261 C   0  0  0  0  0  0  0  0  0  0  0  0
   11.6590  -17.1515   23.8923 C   0  0  2  0  0  0  0  0  0  0  0  0
   11.7793  -17.7617   22.6021 N   0  0  0  0  0  0  0  0  0  0  0  0
   11.9398  -18.1110   24.9991 C   0  0  0  0  0  0  0  0  0  0  0  0
   12.1283  -19.3132   24.7030 O   0  0  0  0  0  0  0  0  0  0  0  0
   11.9942  -17.7065   26.3116 O   0  0  0  0  0  0  0  0  0  0  0  0
  2  4  1  0
  2  1  1  0
  3  2  2  0
  5  4  1  0
  6  5  1  0
  6  8  1  0
  6  7  1  6
  8 10  1  0
  9  8  2  0
 10 11  1  0
 11 16  1  0
 11 12  1  6
 12 13  1  0
 13 14  1  0
 14 18  1  0
 14 15  2  0
 16 17  2  0
 19 20  1  0
 21 20  1  1
 21 22  1  0
 21 23  1  0
 22 16  1  0
 23 24  2  0
 23 25  1  0
M  END
$$$$
