DAV.pdb
     RDKit          3D

 21 20  0  0  1  0  0  0  0  0999 V2000
   10.8826  -16.9014   19.5145 N   0  0  0  0  0  0  0  0  0  0  0  0
   10.9933  -17.0722   20.9407 C   0  0  1  0  0  0  0  0  0  0  0  0
   12.3114  -16.5075   21.4227 C   0  0  0  0  0  0  0  0  0  0  0  0
   13.4634  -17.2379   20.8559 C   0  0  0  0  0  0  0  0  0  0  0  0
   13.2524  -18.1670   20.0237 O   0  0  0  0  0  0  0  0  0  0  0  0
    9.9159  -16.3646   21.6731 C   0  0  0  0  0  0  0  0  0  0  0  0
    9.9439  -15.1113   21.8040 O   0  0  0  0  0  0  0  0  0  0  0  0
   14.7444  -16.9227   21.2188 O   0  0  0  0  0  0  0  0  0  0  0  0
    6.4760  -17.1962   23.0260 C   0  0  0  0  0  0  0  0  0  0  0  0
    7.6666  -16.3041   22.8314 C   0  0  2  0  0  0  0  0  0  0  0  0
    8.8019  -17.0231   22.2667 N   0  0  0  0  0  0  0  0  0  0  0  0
    8.0512  -15.6026   24.0900 C   0  0  0  0  0  0  0  0  0  0  0  0
    9.0139  -16.0408   24.7688 O   0  0  0  0  0  0  0  0  0  0  0  0
    7.1414  -12.0155   27.3684 C   0  0  0  0  0  0  0  0  0  0  0  0
    6.7921  -12.6602   26.0681 C   0  0  1  0  0  0  0  0  0  0  0  0
    6.8130  -11.7489   24.8888 C   0  0  0  0  0  0  0  0  0  0  0  0
    7.7068  -13.8762   25.8910 C   0  0  2  0  0  0  0  0  0  0  0  0
    7.3890  -14.4470   24.5856 N   0  0  0  0  0  0  0  0  0  0  0  0
    7.5781  -14.8537   26.9713 C   0  0  0  0  0  0  0  0  0  0  0  0
    8.5489  -14.8876   27.9547 O   0  0  0  0  0  0  0  0  0  0  0  0
    6.6370  -15.6816   27.0783 O   0  0  0  0  0  0  0  0  0  0  0  0
  2  3  1  0
  2  1  1  6
  3  4  1  0
  4  5  2  0
  4  8  1  0
  6 11  1  0
  6  2  1  0
  7  6  2  0
 10 11  1  0
 10  9  1  1
 12 10  1  0
 12 18  1  0
 13 12  2  0
 15 14  1  1
 15 16  1  0
 17 18  1  6
 17 15  1  0
 19 17  1  0
 20 19  1  0
 21 19  2  0
M  END
$$$$
