DAV.pdb
     RDKit          3D

 21 20  0  0  1  0  0  0  0  0999 V2000
    9.8413  -14.4570   19.0335 N   0  0  0  0  0  0  0  0  0  0  0  0
    8.9185  -13.4605   19.5139 C   0  0  1  0  0  0  0  0  0  0  0  0
    7.8923  -13.1559   18.4449 C   0  0  0  0  0  0  0  0  0  0  0  0
    8.0582  -14.0221   17.2599 C   0  0  0  0  0  0  0  0  0  0  0  0
    8.9235  -14.9444   17.2896 O   0  0  0  0  0  0  0  0  0  0  0  0
    8.1808  -13.9160   20.7166 C   0  0  0  0  0  0  0  0  0  0  0  0
    7.3594  -13.1537   21.2935 O   0  0  0  0  0  0  0  0  0  0  0  0
    7.2926  -13.8383   16.1409 O   0  0  0  0  0  0  0  0  0  0  0  0
    7.6217  -17.1287   22.6418 C   0  0  0  0  0  0  0  0  0  0  0  0
    7.6051  -15.6371   22.4803 C   0  0  2  0  0  0  0  0  0  0  0  0
    8.3370  -15.2074   21.2953 N   0  0  0  0  0  0  0  0  0  0  0  0
    8.1038  -14.9373   23.6991 C   0  0  0  0  0  0  0  0  0  0  0  0
    9.3204  -14.6322   23.7787 O   0  0  0  0  0  0  0  0  0  0  0  0
    7.1941  -12.4377   27.8158 C   0  0  0  0  0  0  0  0  0  0  0  0
    6.7265  -13.0012   26.5150 C   0  0  1  0  0  0  0  0  0  0  0  0
    6.3081  -11.9881   25.5050 C   0  0  0  0  0  0  0  0  0  0  0  0
    7.8206  -13.9381   25.9935 C   0  0  2  0  0  0  0  0  0  0  0  0
    7.2794  -14.5839   24.8015 N   0  0  0  0  0  0  0  0  0  0  0  0
    8.2727  -14.9054   26.9931 C   0  0  0  0  0  0  0  0  0  0  0  0
    9.2490  -14.5221   27.8935 O   0  0  0  0  0  0  0  0  0  0  0  0
    7.8358  -16.0802   27.1001 O   0  0  0  0  0  0  0  0  0  0  0  0
  2  3  1  0
  2  1  1  6
  3  4  1  0
  4  5  2  0
  4  8  1  0
  6 11  1  0
  6  2  1  0
  7  6  2  0
 10 11  1  0
 10  9  1  1
 12 10  1  0
 12 18  1  0
 13 12  2  0
 15 14  1  1
 15 16  1  0
 17 18  1  6
 17 15  1  0
 19 17  1  0
 20 19  1  0
 21 19  2  0
M  END
$$$$
