DAV.pdb
     RDKit          3D

 21 20  0  0  1  0  0  0  0  0999 V2000
   10.5795  -18.5472   20.8595 N   0  0  0  0  0  0  0  0  0  0  0  0
   11.0647  -17.2555   21.2735 C   0  0  1  0  0  0  0  0  0  0  0  0
   11.0367  -16.2990   20.1019 C   0  0  0  0  0  0  0  0  0  0  0  0
   11.9116  -16.7513   19.0010 C   0  0  0  0  0  0  0  0  0  0  0  0
   13.0013  -17.3299   19.2806 O   0  0  0  0  0  0  0  0  0  0  0  0
   10.2304  -16.6633   22.3465 C   0  0  0  0  0  0  0  0  0  0  0  0
   10.3632  -15.4520   22.6690 O   0  0  0  0  0  0  0  0  0  0  0  0
   11.5585  -16.5525   17.6941 O   0  0  0  0  0  0  0  0  0  0  0  0
    7.3546  -17.6761   24.6082 C   0  0  0  0  0  0  0  0  0  0  0  0
    8.5341  -16.8355   24.2166 C   0  0  2  0  0  0  0  0  0  0  0  0
    9.2463  -17.3918   23.0730 N   0  0  0  0  0  0  0  0  0  0  0  0
    9.4608  -16.6046   25.3621 C   0  0  0  0  0  0  0  0  0  0  0  0
   10.5584  -17.2157   25.3981 O   0  0  0  0  0  0  0  0  0  0  0  0
   10.5311  -14.1239   29.4904 C   0  0  0  0  0  0  0  0  0  0  0  0
    9.5155  -14.4549   28.4477 C   0  0  1  0  0  0  0  0  0  0  0  0
    9.0203  -13.2903   27.6602 C   0  0  0  0  0  0  0  0  0  0  0  0
   10.1002  -15.5604   27.5629 C   0  0  2  0  0  0  0  0  0  0  0  0
    9.1816  -15.7215   26.4399 N   0  0  0  0  0  0  0  0  0  0  0  0
   10.3235  -16.8139   28.2826 C   0  0  0  0  0  0  0  0  0  0  0  0
   11.5516  -17.0262   28.8804 O   0  0  0  0  0  0  0  0  0  0  0  0
    9.4711  -17.7313   28.4026 O   0  0  0  0  0  0  0  0  0  0  0  0
  2  3  1  0
  2  1  1  6
  3  4  1  0
  4  5  2  0
  4  8  1  0
  6 11  1  0
  6  2  1  0
  7  6  2  0
 10 11  1  0
 10  9  1  1
 12 10  1  0
 12 18  1  0
 13 12  2  0
 15 14  1  1
 15 16  1  0
 17 18  1  6
 17 15  1  0
 19 17  1  0
 20 19  1  0
 21 19  2  0
M  END
$$$$
