DAV.pdb
     RDKit          3D

 21 20  0  0  1  0  0  0  0  0999 V2000
    8.4317  -17.5160   19.4013 N   0  0  0  0  0  0  0  0  0  0  0  0
    9.1071  -17.5261   20.6737 C   0  0  1  0  0  0  0  0  0  0  0  0
   10.4112  -16.7668   20.5666 C   0  0  0  0  0  0  0  0  0  0  0  0
   11.4339  -17.5314   19.8239 C   0  0  0  0  0  0  0  0  0  0  0  0
   11.4872  -18.7870   19.9684 O   0  0  0  0  0  0  0  0  0  0  0  0
    8.3043  -16.8762   21.7372 C   0  0  0  0  0  0  0  0  0  0  0  0
    7.7966  -15.7372   21.5536 O   0  0  0  0  0  0  0  0  0  0  0  0
   12.3159  -16.9010   18.9892 O   0  0  0  0  0  0  0  0  0  0  0  0
    6.5047  -17.8850   24.8643 C   0  0  0  0  0  0  0  0  0  0  0  0
    7.1819  -16.8580   24.0053 C   0  0  2  0  0  0  0  0  0  0  0  0
    8.0520  -17.4677   23.0074 N   0  0  0  0  0  0  0  0  0  0  0  0
    7.9242  -15.8515   24.8177 C   0  0  0  0  0  0  0  0  0  0  0  0
    9.1662  -15.9751   24.9652 O   0  0  0  0  0  0  0  0  0  0  0  0
    6.7349  -12.0205   25.1829 C   0  0  0  0  0  0  0  0  0  0  0  0
    7.1443  -12.5887   26.5011 C   0  0  1  0  0  0  0  0  0  0  0  0
    6.0175  -12.9454   27.4093 C   0  0  0  0  0  0  0  0  0  0  0  0
    8.0797  -13.7708   26.2282 C   0  0  2  0  0  0  0  0  0  0  0  0
    7.3099  -14.7372   25.4507 N   0  0  0  0  0  0  0  0  0  0  0  0
    8.6365  -14.3557   27.4476 C   0  0  0  0  0  0  0  0  0  0  0  0
    9.6290  -13.6679   28.1202 O   0  0  0  0  0  0  0  0  0  0  0  0
    8.2777  -15.4556   27.9416 O   0  0  0  0  0  0  0  0  0  0  0  0
  2  3  1  0
  2  1  1  6
  3  4  1  0
  4  5  2  0
  4  8  1  0
  6 11  1  0
  6  2  1  0
  7  6  2  0
 10 11  1  0
 10  9  1  1
 12 10  1  0
 12 18  1  0
 13 12  2  0
 15 14  1  6
 15 16  1  0
 17 18  1  1
 17 15  1  0
 19 17  1  0
 20 19  1  0
 21 19  2  0
M  END
$$$$
