DAV.pdb
     RDKit          3D

 21 20  0  0  1  0  0  0  0  0999 V2000
    8.9441  -17.7161   20.3071 N   0  0  0  0  0  0  0  0  0  0  0  0
    8.3607  -16.3990   20.3086 C   0  0  1  0  0  0  0  0  0  0  0  0
    7.3302  -16.2946   19.2061 C   0  0  0  0  0  0  0  0  0  0  0  0
    7.9423  -16.4157   17.8672 C   0  0  0  0  0  0  0  0  0  0  0  0
    8.4378  -17.5256   17.5165 O   0  0  0  0  0  0  0  0  0  0  0  0
    7.6725  -16.0945   21.5860 C   0  0  0  0  0  0  0  0  0  0  0  0
    7.0186  -15.0259   21.7247 O   0  0  0  0  0  0  0  0  0  0  0  0
    7.9787  -15.3493   17.0107 O   0  0  0  0  0  0  0  0  0  0  0  0
    6.8051  -17.8225   24.8340 C   0  0  0  0  0  0  0  0  0  0  0  0
    7.0677  -16.6112   23.9884 C   0  0  2  0  0  0  0  0  0  0  0  0
    7.6953  -16.9564   22.7190 N   0  0  0  0  0  0  0  0  0  0  0  0
    7.8659  -15.5835   24.7168 C   0  0  0  0  0  0  0  0  0  0  0  0
    9.1209  -15.6347   24.6730 O   0  0  0  0  0  0  0  0  0  0  0  0
    6.9135  -11.7860   25.0127 C   0  0  0  0  0  0  0  0  0  0  0  0
    7.2511  -12.3040   26.3714 C   0  0  1  0  0  0  0  0  0  0  0  0
    6.0805  -12.5369   27.2642 C   0  0  0  0  0  0  0  0  0  0  0  0
    8.1144  -13.5565   26.1907 C   0  0  2  0  0  0  0  0  0  0  0  0
    7.2921  -14.5266   25.4740 N   0  0  0  0  0  0  0  0  0  0  0  0
    8.6271  -14.0875   27.4535 C   0  0  0  0  0  0  0  0  0  0  0  0
    9.6579  -13.4175   28.0853 O   0  0  0  0  0  0  0  0  0  0  0  0
    8.1967  -15.1248   28.0203 O   0  0  0  0  0  0  0  0  0  0  0  0
  2  3  1  0
  2  1  1  1
  3  4  1  0
  4  5  2  0
  4  8  1  0
  6 11  1  0
  6  2  1  0
  7  6  2  0
 10 11  1  0
 10  9  1  1
 12 10  1  0
 12 18  1  0
 13 12  2  0
 15 14  1  6
 15 16  1  0
 17 18  1  1
 17 15  1  0
 19 17  1  0
 20 19  1  0
 21 19  2  0
M  END
$$$$
