DAV.pdb
     RDKit          3D

 21 20  0  0  1  0  0  0  0  0999 V2000
    9.7134  -18.7671   21.1414 N   0  0  0  0  0  0  0  0  0  0  0  0
    9.5339  -17.3608   20.8857 C   0  0  1  0  0  0  0  0  0  0  0  0
    8.9567  -17.1621   19.5015 C   0  0  0  0  0  0  0  0  0  0  0  0
    9.9197  -17.5341   18.4451 C   0  0  0  0  0  0  0  0  0  0  0  0
   10.9794  -18.1452   18.7675 O   0  0  0  0  0  0  0  0  0  0  0  0
    8.5972  -16.7333   21.8485 C   0  0  0  0  0  0  0  0  0  0  0  0
    8.2155  -15.5424   21.6904 O   0  0  0  0  0  0  0  0  0  0  0  0
    9.6794  -17.2271   17.1335 O   0  0  0  0  0  0  0  0  0  0  0  0
    6.5215  -17.7387   24.8599 C   0  0  0  0  0  0  0  0  0  0  0  0
    7.2066  -16.7502   23.9628 C   0  0  2  0  0  0  0  0  0  0  0  0
    8.0726  -17.4039   22.9896 N   0  0  0  0  0  0  0  0  0  0  0  0
    7.9559  -15.7188   24.7366 C   0  0  0  0  0  0  0  0  0  0  0  0
    9.1973  -15.8444   24.8872 O   0  0  0  0  0  0  0  0  0  0  0  0
    7.1139  -11.8225   24.9438 C   0  0  0  0  0  0  0  0  0  0  0  0
    7.2571  -12.3952   26.3148 C   0  0  1  0  0  0  0  0  0  0  0  0
    5.9747  -12.6105   27.0434 C   0  0  0  0  0  0  0  0  0  0  0  0
    8.0930  -13.6738   26.2002 C   0  0  2  0  0  0  0  0  0  0  0  0
    7.3491  -14.5783   25.3288 N   0  0  0  0  0  0  0  0  0  0  0  0
    8.3993  -14.2776   27.4967 C   0  0  0  0  0  0  0  0  0  0  0  0
    9.3533  -13.6794   28.2985 O   0  0  0  0  0  0  0  0  0  0  0  0
    7.8539  -15.3175   27.9480 O   0  0  0  0  0  0  0  0  0  0  0  0
  2  3  1  0
  2  1  1  1
  3  4  1  0
  4  5  2  0
  4  8  1  0
  6 11  1  0
  6  2  1  0
  7  6  2  0
 10 11  1  0
 10  9  1  1
 12 10  1  0
 12 18  1  0
 13 12  2  0
 15 14  1  6
 15 16  1  0
 17 18  1  6
 17 15  1  0
 19 17  1  0
 20 19  1  0
 21 19  2  0
M  END
$$$$
