HDP.pdb
     RDKit          3D

 26 27  0  0  1  0  0  0  0  0999 V2000
    6.4380  -15.7919   20.0425 N   0  0  0  0  0  0  0  0  0  0  0  0
    7.5201  -15.3104   20.8424 C   0  0  1  0  0  0  0  0  0  0  0  0
    7.8293  -13.8973   20.4708 C   0  0  0  0  0  0  0  0  0  0  0  0
    8.2210  -13.8646   19.0349 C   0  0  0  0  0  0  0  0  0  0  0  0
    7.6538  -13.1772   17.9849 C   0  0  0  0  0  0  0  0  0  0  0  0
    8.3046  -13.4127   16.8321 N   0  0  0  0  0  0  0  0  0  0  0  0
    9.3004  -14.2620   17.1524 C   0  0  0  0  0  0  0  0  0  0  0  0
    9.2623  -14.5410   18.4677 N   0  0  0  0  0  0  0  0  0  0  0  0
    7.2781  -15.4797   22.2984 C   0  0  0  0  0  0  0  0  0  0  0  0
    6.2543  -14.9397   22.7920 O   0  0  0  0  0  0  0  0  0  0  0  0
    8.1492  -16.2188   23.1396 N   0  0  0  0  0  0  0  0  0  0  0  0
    7.8453  -16.3723   24.5598 C   0  0  1  0  0  0  0  0  0  0  0  0
    7.6529  -17.8516   24.8833 C   0  0  0  0  0  0  0  0  0  0  0  0
    7.5031  -18.1132   26.3176 C   0  0  0  0  0  0  0  0  0  0  0  0
    6.4132  -18.0221   26.9273 O   0  0  0  0  0  0  0  0  0  0  0  0
    8.9098  -15.7935   25.4045 C   0  0  0  0  0  0  0  0  0  0  0  0
   10.1060  -15.9656   24.9883 O   0  0  0  0  0  0  0  0  0  0  0  0
    8.6113  -18.4788   27.0428 O   0  0  0  0  0  0  0  0  0  0  0  0
    8.7286  -15.0816   26.6045 N   0  0  0  0  0  0  0  0  0  0  0  0
    7.5037  -14.8033   27.2844 C   0  0  0  0  0  0  0  0  0  0  0  0
    7.7398  -13.4310   27.8810 C   0  0  0  0  0  0  0  0  0  0  0  0
    9.2125  -13.1357   27.7133 C   0  0  0  0  0  0  0  0  0  0  0  0
    9.7801  -14.5006   27.3896 C   0  0  1  0  0  0  0  0  0  0  0  0
    9.9863  -15.2223   28.6779 C   0  0  0  0  0  0  0  0  0  0  0  0
    9.2477  -16.3480   29.0082 O   0  0  0  0  0  0  0  0  0  0  0  0
   10.8359  -14.8470   29.5234 O   0  0  0  0  0  0  0  0  0  0  0  0
  2  1  1  6
  3  2  1  0
  4  3  1  0
  5  4  2  0
  6  7  1  0
  6  5  1  0
  7  8  2  0
  8  4  1  0
  9  2  1  0
  9 11  1  0
 10  9  2  0
 12 11  1  0
 13 14  1  0
 12 13  1  1
 14 18  1  0
 15 14  2  0
 16 17  2  0
 16 12  1  0
 19 16  1  0
 20 19  1  0
 20 21  1  0
 21 22  1  0
 23 19  1  0
 23 22  1  0
 23 24  1  1
 24 25  1  0
 26 24  2  0
M  END
$$$$
