HDP.pdb
     RDKit          3D

 26 27  0  0  1  0  0  0  0  0999 V2000
    6.6746  -16.9931   20.0377 N   0  0  0  0  0  0  0  0  0  0  0  0
    7.0918  -15.8610   20.8037 C   0  0  1  0  0  0  0  0  0  0  0  0
    6.4605  -14.6235   20.2556 C   0  0  0  0  0  0  0  0  0  0  0  0
    7.4947  -13.8636   19.5012 C   0  0  0  0  0  0  0  0  0  0  0  0
    8.8140  -14.1770   19.2604 C   0  0  0  0  0  0  0  0  0  0  0  0
    9.4225  -13.2242   18.5324 N   0  0  0  0  0  0  0  0  0  0  0  0
    8.4774  -12.2908   18.3063 C   0  0  0  0  0  0  0  0  0  0  0  0
    7.3186  -12.6606   18.8805 N   0  0  0  0  0  0  0  0  0  0  0  0
    6.8490  -16.0312   22.2595 C   0  0  0  0  0  0  0  0  0  0  0  0
    5.6578  -16.0093   22.6644 O   0  0  0  0  0  0  0  0  0  0  0  0
    7.8990  -16.2149   23.1956 N   0  0  0  0  0  0  0  0  0  0  0  0
    7.5975  -16.3911   24.6138 C   0  0  1  0  0  0  0  0  0  0  0  0
    7.5219  -17.8807   24.9379 C   0  0  0  0  0  0  0  0  0  0  0  0
    7.4481  -18.1547   26.3758 C   0  0  0  0  0  0  0  0  0  0  0  0
    6.5687  -17.6751   27.1272 O   0  0  0  0  0  0  0  0  0  0  0  0
    8.6057  -15.7281   25.4656 C   0  0  0  0  0  0  0  0  0  0  0  0
    9.8238  -15.8847   25.1111 O   0  0  0  0  0  0  0  0  0  0  0  0
    8.3890  -18.9808   26.9411 O   0  0  0  0  0  0  0  0  0  0  0  0
    8.3503  -14.9527   26.6116 N   0  0  0  0  0  0  0  0  0  0  0  0
    7.0858  -14.6436   27.1992 C   0  0  0  0  0  0  0  0  0  0  0  0
    7.2829  -13.2398   27.7330 C   0  0  0  0  0  0  0  0  0  0  0  0
    8.7626  -12.9470   27.6397 C   0  0  0  0  0  0  0  0  0  0  0  0
    9.3509  -14.3247   27.4264 C   0  0  1  0  0  0  0  0  0  0  0  0
    9.4789  -14.9741   28.7625 C   0  0  0  0  0  0  0  0  0  0  0  0
   10.4354  -14.5687   29.6804 O   0  0  0  0  0  0  0  0  0  0  0  0
    8.7294  -15.9164   29.1200 O   0  0  0  0  0  0  0  0  0  0  0  0
  2  1  1  6
  3  2  1  0
  4  3  1  0
  5  4  2  0
  6  7  1  0
  6  5  1  0
  7  8  2  0
  8  4  1  0
  9  2  1  0
  9 11  1  0
 10  9  2  0
 12 11  1  0
 13 14  1  0
 12 13  1  1
 14 18  1  0
 15 14  2  0
 16 17  2  0
 16 12  1  0
 19 16  1  0
 20 19  1  0
 20 21  1  0
 21 22  1  0
 23 19  1  0
 23 22  1  0
 23 24  1  1
 24 25  1  0
 26 24  2  0
M  END
$$$$
