HDP.pdb
     RDKit          3D

 26 27  0  0  1  0  0  0  0  0999 V2000
    7.9555  -15.7764   19.8012 N   0  0  0  0  0  0  0  0  0  0  0  0
    8.3163  -14.6285   20.5723 C   0  0  1  0  0  0  0  0  0  0  0  0
    7.8286  -13.3923   19.8910 C   0  0  0  0  0  0  0  0  0  0  0  0
    8.1889  -13.4778   18.4491 C   0  0  0  0  0  0  0  0  0  0  0  0
    7.4159  -13.2385   17.3347 C   0  0  0  0  0  0  0  0  0  0  0  0
    8.1137  -13.4264   16.2007 N   0  0  0  0  0  0  0  0  0  0  0  0
    9.3484  -13.7906   16.5985 C   0  0  0  0  0  0  0  0  0  0  0  0
    9.4076  -13.8254   17.9419 N   0  0  0  0  0  0  0  0  0  0  0  0
    7.8648  -14.7200   21.9848 C   0  0  0  0  0  0  0  0  0  0  0  0
    7.2646  -13.7293   22.4766 O   0  0  0  0  0  0  0  0  0  0  0  0
    8.0838  -15.8694   22.7868 N   0  0  0  0  0  0  0  0  0  0  0  0
    7.6399  -15.8910   24.1781 C   0  0  1  0  0  0  0  0  0  0  0  0
    7.1349  -17.2876   24.5308 C   0  0  0  0  0  0  0  0  0  0  0  0
    6.0802  -17.7633   23.6312 C   0  0  0  0  0  0  0  0  0  0  0  0
    4.8638  -17.5200   23.8015 O   0  0  0  0  0  0  0  0  0  0  0  0
    8.7242  -15.4871   25.0962 C   0  0  0  0  0  0  0  0  0  0  0  0
    9.9116  -15.7587   24.7088 O   0  0  0  0  0  0  0  0  0  0  0  0
    6.4330  -18.5178   22.5386 O   0  0  0  0  0  0  0  0  0  0  0  0
    8.5702  -14.8411   26.3366 N   0  0  0  0  0  0  0  0  0  0  0  0
    7.3557  -14.4517   26.9795 C   0  0  0  0  0  0  0  0  0  0  0  0
    7.7320  -13.1661   27.6868 C   0  0  0  0  0  0  0  0  0  0  0  0
    9.2372  -13.0555   27.6082 C   0  0  0  0  0  0  0  0  0  0  0  0
    9.6429  -14.4577   27.2094 C   0  0  1  0  0  0  0  0  0  0  0  0
    9.6851  -15.2864   28.4483 C   0  0  0  0  0  0  0  0  0  0  0  0
   10.6980  -15.1455   29.3843 O   0  0  0  0  0  0  0  0  0  0  0  0
    8.8085  -16.1490   28.7033 O   0  0  0  0  0  0  0  0  0  0  0  0
  2  1  1  6
  3  2  1  0
  4  3  1  0
  5  4  2  0
  6  7  1  0
  6  5  1  0
  7  8  2  0
  8  4  1  0
  9  2  1  0
  9 11  1  0
 10  9  2  0
 12 11  1  0
 13 14  1  0
 12 13  1  1
 14 18  1  0
 15 14  2  0
 16 17  2  0
 16 12  1  0
 19 16  1  0
 20 19  1  0
 20 21  1  0
 21 22  1  0
 23 19  1  0
 23 22  1  0
 23 24  1  1
 24 25  1  0
 26 24  2  0
M  END
$$$$
