HDP.pdb
     RDKit          3D

 26 27  0  0  1  0  0  0  0  0999 V2000
    9.8126  -16.6745   26.5218 N   0  0  0  0  0  0  0  0  0  0  0  0
    9.8510  -15.2843   26.1928 C   0  0  1  0  0  0  0  0  0  0  0  0
   10.9201  -14.6094   26.9876 C   0  0  0  0  0  0  0  0  0  0  0  0
   10.6518  -14.8473   28.4325 C   0  0  0  0  0  0  0  0  0  0  0  0
    9.8651  -14.1337   29.3091 C   0  0  0  0  0  0  0  0  0  0  0  0
    9.8826  -14.6745   30.5401 N   0  0  0  0  0  0  0  0  0  0  0  0
   10.6918  -15.7477   30.4461 C   0  0  0  0  0  0  0  0  0  0  0  0
   11.1592  -15.8632   29.1901 N   0  0  0  0  0  0  0  0  0  0  0  0
    9.9840  -15.0428   24.7329 C   0  0  0  0  0  0  0  0  0  0  0  0
    9.9338  -13.8531   24.3257 O   0  0  0  0  0  0  0  0  0  0  0  0
   10.1632  -16.0922   23.7953 N   0  0  0  0  0  0  0  0  0  0  0  0
   10.1422  -15.8100   22.3625 C   0  0  1  0  0  0  0  0  0  0  0  0
   11.0245  -16.8182   21.6311 C   0  0  0  0  0  0  0  0  0  0  0  0
   12.4483  -16.6745   21.9476 C   0  0  0  0  0  0  0  0  0  0  0  0
   13.1575  -15.7299   21.5321 O   0  0  0  0  0  0  0  0  0  0  0  0
    8.7663  -15.8437   21.8265 C   0  0  0  0  0  0  0  0  0  0  0  0
    7.9391  -16.5819   22.4625 O   0  0  0  0  0  0  0  0  0  0  0  0
   13.0482  -17.6211   22.7423 O   0  0  0  0  0  0  0  0  0  0  0  0
    8.2925  -15.1481   20.6989 N   0  0  0  0  0  0  0  0  0  0  0  0
    9.0125  -14.2477   19.8557 C   0  0  0  0  0  0  0  0  0  0  0  0
    7.9660  -13.2254   19.4628 C   0  0  0  0  0  0  0  0  0  0  0  0
    6.6329  -13.7797   19.9097 C   0  0  0  0  0  0  0  0  0  0  0  0
    6.9601  -15.2334   20.1728 C   0  0  1  0  0  0  0  0  0  0  0  0
    6.9148  -15.9512   18.8666 C   0  0  0  0  0  0  0  0  0  0  0  0
    8.0714  -16.3448   18.2116 O   0  0  0  0  0  0  0  0  0  0  0  0
    5.8307  -16.2330   18.2984 O   0  0  0  0  0  0  0  0  0  0  0  0
  2  1  1  6
  3  2  1  0
  4  3  1  0
  5  4  2  0
  6  7  1  0
  6  5  1  0
  7  8  2  0
  8  4  1  0
  9  2  1  0
  9 11  1  0
 10  9  2  0
 12 11  1  0
 13 14  1  0
 12 13  1  6
 14 18  1  0
 15 14  2  0
 16 17  2  0
 16 12  1  0
 19 16  1  0
 20 19  1  0
 20 21  1  0
 21 22  1  0
 23 19  1  0
 23 22  1  0
 23 24  1  6
 24 25  1  0
 26 24  2  0
M  END
$$$$
