HDP.pdb
     RDKit          3D

 26 27  0  0  1  0  0  0  0  0999 V2000
    7.5047  -16.3786   19.6291 N   0  0  0  0  0  0  0  0  0  0  0  0
    7.6403  -15.2261   20.4634 C   0  0  1  0  0  0  0  0  0  0  0  0
    6.8979  -14.0793   19.8601 C   0  0  0  0  0  0  0  0  0  0  0  0
    7.5167  -13.7597   18.5443 C   0  0  0  0  0  0  0  0  0  0  0  0
    8.3954  -12.7541   18.2078 C   0  0  0  0  0  0  0  0  0  0  0  0
    8.7239  -12.8016   16.9048 N   0  0  0  0  0  0  0  0  0  0  0  0
    8.0449  -13.8523   16.4044 C   0  0  0  0  0  0  0  0  0  0  0  0
    7.3182  -14.4351   17.3748 N   0  0  0  0  0  0  0  0  0  0  0  0
    7.2454  -15.4866   21.8718 C   0  0  0  0  0  0  0  0  0  0  0  0
    6.0211  -15.4382   22.1587 O   0  0  0  0  0  0  0  0  0  0  0  0
    8.1876  -15.7839   22.8898 N   0  0  0  0  0  0  0  0  0  0  0  0
    7.7387  -16.0352   24.2567 C   0  0  1  0  0  0  0  0  0  0  0  0
    7.7960  -17.5330   24.5451 C   0  0  0  0  0  0  0  0  0  0  0  0
    7.5144  -17.8615   25.9454 C   0  0  0  0  0  0  0  0  0  0  0  0
    8.4046  -18.0171   26.8121 O   0  0  0  0  0  0  0  0  0  0  0  0
    8.5533  -15.2893   25.2373 C   0  0  0  0  0  0  0  0  0  0  0  0
    9.8179  -15.3291   25.0556 O   0  0  0  0  0  0  0  0  0  0  0  0
    6.2068  -18.0093   26.3402 O   0  0  0  0  0  0  0  0  0  0  0  0
    8.0709  -14.5511   26.3338 N   0  0  0  0  0  0  0  0  0  0  0  0
    6.7137  -14.3614   26.7362 C   0  0  0  0  0  0  0  0  0  0  0  0
    6.7076  -12.9510   27.2889 C   0  0  0  0  0  0  0  0  0  0  0  0
    8.1536  -12.5272   27.4047 C   0  0  0  0  0  0  0  0  0  0  0  0
    8.8867  -13.8451   27.2801 C   0  0  1  0  0  0  0  0  0  0  0  0
    8.8826  -14.4940   28.6226 C   0  0  0  0  0  0  0  0  0  0  0  0
    8.2432  -15.7038   28.8445 O   0  0  0  0  0  0  0  0  0  0  0  0
    9.4562  -13.9782   29.6138 O   0  0  0  0  0  0  0  0  0  0  0  0
  2  1  1  6
  3  2  1  0
  4  3  1  0
  5  4  2  0
  6  7  1  0
  6  5  1  0
  7  8  2  0
  8  4  1  0
  9  2  1  0
  9 11  1  0
 10  9  2  0
 12 11  1  0
 13 14  1  0
 12 13  1  1
 14 18  1  0
 15 14  2  0
 16 17  2  0
 16 12  1  0
 19 16  1  0
 20 19  1  0
 20 21  1  0
 21 22  1  0
 23 19  1  0
 23 22  1  0
 23 24  1  1
 24 25  1  0
 26 24  2  0
M  END
$$$$
