HDP.pdb
     RDKit          3D

 26 27  0  0  1  0  0  0  0  0999 V2000
    6.4434  -15.8050   19.6663 N   0  0  0  0  0  0  0  0  0  0  0  0
    7.4436  -15.2587   20.5287 C   0  0  1  0  0  0  0  0  0  0  0  0
    7.7113  -13.8389   20.1510 C   0  0  0  0  0  0  0  0  0  0  0  0
    8.1632  -13.8076   18.7329 C   0  0  0  0  0  0  0  0  0  0  0  0
    7.5678  -13.2297   17.6337 C   0  0  0  0  0  0  0  0  0  0  0  0
    8.2954  -13.4236   16.5196 N   0  0  0  0  0  0  0  0  0  0  0  0
    9.3692  -14.1350   16.9148 C   0  0  0  0  0  0  0  0  0  0  0  0
    9.3030  -14.3720   18.2373 N   0  0  0  0  0  0  0  0  0  0  0  0
    7.1094  -15.4153   21.9678 C   0  0  0  0  0  0  0  0  0  0  0  0
    5.9656  -15.0551   22.3493 O   0  0  0  0  0  0  0  0  0  0  0  0
    8.0223  -15.9492   22.9133 N   0  0  0  0  0  0  0  0  0  0  0  0
    7.6184  -16.1291   24.3053 C   0  0  1  0  0  0  0  0  0  0  0  0
    7.6117  -17.6170   24.6461 C   0  0  0  0  0  0  0  0  0  0  0  0
    7.3745  -17.8814   26.0681 C   0  0  0  0  0  0  0  0  0  0  0  0
    8.2825  -17.8947   26.9302 O   0  0  0  0  0  0  0  0  0  0  0  0
    8.5097  -15.3930   25.2246 C   0  0  0  0  0  0  0  0  0  0  0  0
    9.7599  -15.4730   24.9710 O   0  0  0  0  0  0  0  0  0  0  0  0
    6.0907  -18.1295   26.4897 O   0  0  0  0  0  0  0  0  0  0  0  0
    8.1132  -14.6246   26.3347 N   0  0  0  0  0  0  0  0  0  0  0  0
    6.7852  -14.3344   26.7729 C   0  0  0  0  0  0  0  0  0  0  0  0
    6.9000  -12.9296   27.3279 C   0  0  0  0  0  0  0  0  0  0  0  0
    8.3765  -12.6165   27.4063 C   0  0  0  0  0  0  0  0  0  0  0  0
    9.0044  -13.9856   27.2603 C   0  0  1  0  0  0  0  0  0  0  0  0
    8.9864  -14.6371   28.6013 C   0  0  0  0  0  0  0  0  0  0  0  0
    9.8609  -14.2567   29.6075 O   0  0  0  0  0  0  0  0  0  0  0  0
    8.1812  -15.5588   28.8837 O   0  0  0  0  0  0  0  0  0  0  0  0
  2  1  1  6
  3  2  1  0
  4  3  1  0
  5  4  2  0
  6  7  1  0
  6  5  1  0
  7  8  2  0
  8  4  1  0
  9  2  1  0
  9 11  1  0
 10  9  2  0
 12 11  1  0
 13 14  1  0
 12 13  1  1
 14 18  1  0
 15 14  2  0
 16 17  2  0
 16 12  1  0
 19 16  1  0
 20 19  1  0
 20 21  1  0
 21 22  1  0
 23 19  1  0
 23 22  1  0
 23 24  1  1
 24 25  1  0
 26 24  2  0
M  END
$$$$
