HDP.pdb
     RDKit          3D

 26 27  0  0  1  0  0  0  0  0999 V2000
    7.8197  -16.0866   19.8002 N   0  0  0  0  0  0  0  0  0  0  0  0
    7.7039  -14.9012   20.5901 C   0  0  1  0  0  0  0  0  0  0  0  0
    6.7987  -13.9292   19.9074 C   0  0  0  0  0  0  0  0  0  0  0  0
    7.3113  -13.6992   18.5287 C   0  0  0  0  0  0  0  0  0  0  0  0
    8.1048  -12.6830   18.0445 C   0  0  0  0  0  0  0  0  0  0  0  0
    8.3510  -12.8326   16.7311 N   0  0  0  0  0  0  0  0  0  0  0  0
    7.7052  -13.9597   16.3737 C   0  0  0  0  0  0  0  0  0  0  0  0
    7.0786  -14.4890   17.4399 N   0  0  0  0  0  0  0  0  0  0  0  0
    7.2920  -15.1814   21.9898 C   0  0  0  0  0  0  0  0  0  0  0  0
    6.1109  -14.9030   22.3231 O   0  0  0  0  0  0  0  0  0  0  0  0
    8.1718  -15.7440   22.9500 N   0  0  0  0  0  0  0  0  0  0  0  0
    7.7141  -15.9825   24.3163 C   0  0  1  0  0  0  0  0  0  0  0  0
    7.6166  -17.4851   24.5665 C   0  0  0  0  0  0  0  0  0  0  0  0
    7.4111  -17.8222   25.9780 C   0  0  0  0  0  0  0  0  0  0  0  0
    6.3071  -17.7204   26.5599 O   0  0  0  0  0  0  0  0  0  0  0  0
    8.6136  -15.3521   25.3038 C   0  0  0  0  0  0  0  0  0  0  0  0
    9.8631  -15.4246   25.0445 O   0  0  0  0  0  0  0  0  0  0  0  0
    8.4801  -18.2754   26.7124 O   0  0  0  0  0  0  0  0  0  0  0  0
    8.2254  -14.6901   26.4831 N   0  0  0  0  0  0  0  0  0  0  0  0
    6.9119  -14.5691   27.0309 C   0  0  0  0  0  0  0  0  0  0  0  0
    6.9216  -13.1909   27.6595 C   0  0  0  0  0  0  0  0  0  0  0  0
    8.3589  -12.7238   27.6518 C   0  0  0  0  0  0  0  0  0  0  0  0
    9.1134  -14.0071   27.3800 C   0  0  1  0  0  0  0  0  0  0  0  0
    9.2666  -14.7256   28.6774 C   0  0  0  0  0  0  0  0  0  0  0  0
   10.1527  -14.2903   29.6506 O   0  0  0  0  0  0  0  0  0  0  0  0
    8.6029  -15.7563   28.9509 O   0  0  0  0  0  0  0  0  0  0  0  0
  2  1  1  6
  3  2  1  0
  4  3  1  0
  5  4  2  0
  6  7  1  0
  6  5  1  0
  7  8  2  0
  8  4  1  0
  9  2  1  0
  9 11  1  0
 10  9  2  0
 12 11  1  0
 13 14  1  0
 12 13  1  1
 14 18  1  0
 15 14  2  0
 16 17  2  0
 16 12  1  0
 19 16  1  0
 20 19  1  0
 20 21  1  0
 21 22  1  0
 23 19  1  0
 23 22  1  0
 23 24  1  1
 24 25  1  0
 26 24  2  0
M  END
$$$$
