HDP.pdb
     RDKit          3D

 26 27  0  0  1  0  0  0  0  0999 V2000
    8.9189  -15.6280   20.2218 N   0  0  0  0  0  0  0  0  0  0  0  0
    8.0225  -14.6395   20.7334 C   0  0  1  0  0  0  0  0  0  0  0  0
    6.9409  -14.3786   19.7372 C   0  0  0  0  0  0  0  0  0  0  0  0
    7.5728  -14.1330   18.4118 C   0  0  0  0  0  0  0  0  0  0  0  0
    8.2121  -13.0089   17.9382 C   0  0  0  0  0  0  0  0  0  0  0  0
    8.6493  -13.1839   16.6787 N   0  0  0  0  0  0  0  0  0  0  0  0
    8.2833  -14.4370   16.3455 C   0  0  0  0  0  0  0  0  0  0  0  0
    7.6380  -15.0168   17.3735 N   0  0  0  0  0  0  0  0  0  0  0  0
    7.4919  -14.9854   22.0773 C   0  0  0  0  0  0  0  0  0  0  0  0
    6.6092  -14.2377   22.5724 O   0  0  0  0  0  0  0  0  0  0  0  0
    7.9399  -16.1137   22.8114 N   0  0  0  0  0  0  0  0  0  0  0  0
    7.5561  -16.2806   24.2106 C   0  0  1  0  0  0  0  0  0  0  0  0
    7.6261  -17.7584   24.5860 C   0  0  0  0  0  0  0  0  0  0  0  0
    7.4052  -18.0014   26.0144 C   0  0  0  0  0  0  0  0  0  0  0  0
    6.4130  -17.5694   26.6442 O   0  0  0  0  0  0  0  0  0  0  0  0
    8.4166  -15.4796   25.1048 C   0  0  0  0  0  0  0  0  0  0  0  0
    9.6705  -15.5286   24.8616 O   0  0  0  0  0  0  0  0  0  0  0  0
    8.3299  -18.7417   26.7104 O   0  0  0  0  0  0  0  0  0  0  0  0
    7.9876  -14.6810   26.1809 N   0  0  0  0  0  0  0  0  0  0  0  0
    6.6646  -14.5457   26.7017 C   0  0  0  0  0  0  0  0  0  0  0  0
    6.6071  -13.0956   27.1360 C   0  0  0  0  0  0  0  0  0  0  0  0
    8.0224  -12.5696   27.0703 C   0  0  0  0  0  0  0  0  0  0  0  0
    8.8354  -13.8427   26.9795 C   0  0  1  0  0  0  0  0  0  0  0  0
    9.0070  -14.3698   28.3637 C   0  0  0  0  0  0  0  0  0  0  0  0
    8.4126  -15.5542   28.7706 O   0  0  0  0  0  0  0  0  0  0  0  0
    9.6958  -13.7688   29.2250 O   0  0  0  0  0  0  0  0  0  0  0  0
  2  1  1  6
  3  2  1  0
  4  3  1  0
  5  4  2  0
  6  7  1  0
  6  5  1  0
  7  8  2  0
  8  4  1  0
  9  2  1  0
  9 11  1  0
 10  9  2  0
 12 11  1  0
 13 14  1  0
 12 13  1  1
 14 18  1  0
 15 14  2  0
 16 17  2  0
 16 12  1  0
 19 16  1  0
 20 19  1  0
 20 21  1  0
 21 22  1  0
 23 19  1  0
 23 22  1  0
 23 24  1  1
 24 25  1  0
 26 24  2  0
M  END
$$$$
