HDP.pdb
     RDKit          3D

 26 27  0  0  1  0  0  0  0  0999 V2000
    7.4927  -16.5155   19.7872 N   0  0  0  0  0  0  0  0  0  0  0  0
    7.7574  -15.4225   20.6690 C   0  0  1  0  0  0  0  0  0  0  0  0
    7.0724  -14.1943   20.1663 C   0  0  0  0  0  0  0  0  0  0  0  0
    7.6607  -13.8356   18.8467 C   0  0  0  0  0  0  0  0  0  0  0  0
    8.5429  -12.8289   18.5225 C   0  0  0  0  0  0  0  0  0  0  0  0
    8.8368  -12.8342   17.2104 N   0  0  0  0  0  0  0  0  0  0  0  0
    8.1320  -13.8586   16.6916 C   0  0  0  0  0  0  0  0  0  0  0  0
    7.4235  -14.4669   17.6598 N   0  0  0  0  0  0  0  0  0  0  0  0
    7.4183  -15.7294   22.0825 C   0  0  0  0  0  0  0  0  0  0  0  0
    6.2054  -15.7005   22.4168 O   0  0  0  0  0  0  0  0  0  0  0  0
    8.4006  -16.0494   23.0547 N   0  0  0  0  0  0  0  0  0  0  0  0
    8.0092  -16.3125   24.4369 C   0  0  1  0  0  0  0  0  0  0  0  0
    7.9571  -17.8195   24.6743 C   0  0  0  0  0  0  0  0  0  0  0  0
    7.7465  -18.1745   26.0806 C   0  0  0  0  0  0  0  0  0  0  0  0
    6.7485  -17.8111   26.7438 O   0  0  0  0  0  0  0  0  0  0  0  0
    8.9367  -15.6715   25.3911 C   0  0  0  0  0  0  0  0  0  0  0  0
   10.1817  -15.8263   25.1467 O   0  0  0  0  0  0  0  0  0  0  0  0
    8.6879  -18.9474   26.7160 O   0  0  0  0  0  0  0  0  0  0  0  0
    8.5792  -14.9184   26.5247 N   0  0  0  0  0  0  0  0  0  0  0  0
    7.2670  -14.5890   26.9824 C   0  0  0  0  0  0  0  0  0  0  0  0
    7.4408  -13.2052   27.5735 C   0  0  0  0  0  0  0  0  0  0  0  0
    8.9289  -12.9517   27.6469 C   0  0  0  0  0  0  0  0  0  0  0  0
    9.5019  -14.3395   27.4590 C   0  0  1  0  0  0  0  0  0  0  0  0
    9.4692  -15.0258   28.7823 C   0  0  0  0  0  0  0  0  0  0  0  0
   10.3364  -14.6757   29.8056 O   0  0  0  0  0  0  0  0  0  0  0  0
    8.6576  -15.9508   29.0334 O   0  0  0  0  0  0  0  0  0  0  0  0
  2  1  1  6
  3  2  1  0
  4  3  1  0
  5  4  2  0
  6  7  1  0
  6  5  1  0
  7  8  2  0
  8  4  1  0
  9  2  1  0
  9 11  1  0
 10  9  2  0
 12 11  1  0
 13 14  1  0
 12 13  1  1
 14 18  1  0
 15 14  2  0
 16 17  2  0
 16 12  1  0
 19 16  1  0
 20 19  1  0
 20 21  1  0
 21 22  1  0
 23 19  1  0
 23 22  1  0
 23 24  1  1
 24 25  1  0
 26 24  2  0
M  END
$$$$
