HDP.pdb
     RDKit          3D

 26 27  0  0  1  0  0  0  0  0999 V2000
    8.6849  -16.8471   20.2860 N   0  0  0  0  0  0  0  0  0  0  0  0
    8.7769  -15.7759   21.2275 C   0  0  1  0  0  0  0  0  0  0  0  0
    7.6540  -14.8162   21.0077 C   0  0  0  0  0  0  0  0  0  0  0  0
    7.8790  -14.1195   19.7114 C   0  0  0  0  0  0  0  0  0  0  0  0
    8.8941  -14.2768   18.7941 C   0  0  0  0  0  0  0  0  0  0  0  0
    8.7396  -13.4545   17.7414 N   0  0  0  0  0  0  0  0  0  0  0  0
    7.6102  -12.7638   17.9919 C   0  0  0  0  0  0  0  0  0  0  0  0
    7.0845  -13.1517   19.1677 N   0  0  0  0  0  0  0  0  0  0  0  0
    8.8570  -16.2513   22.6328 C   0  0  0  0  0  0  0  0  0  0  0  0
    7.7783  -16.4537   23.2485 O   0  0  0  0  0  0  0  0  0  0  0  0
   10.0901  -16.4818   23.2952 N   0  0  0  0  0  0  0  0  0  0  0  0
   10.1062  -16.9151   24.6898 C   0  0  1  0  0  0  0  0  0  0  0  0
   11.0772  -18.0819   24.8503 C   0  0  0  0  0  0  0  0  0  0  0  0
   10.6509  -19.2888   24.1363 C   0  0  0  0  0  0  0  0  0  0  0  0
   11.1823  -19.6890   23.0755 O   0  0  0  0  0  0  0  0  0  0  0  0
   10.4763  -15.8075   25.5942 C   0  0  0  0  0  0  0  0  0  0  0  0
   11.5307  -15.1585   25.2770 O   0  0  0  0  0  0  0  0  0  0  0  0
    9.6134  -20.0291   24.6491 O   0  0  0  0  0  0  0  0  0  0  0  0
    9.7842  -15.4092   26.7528 N   0  0  0  0  0  0  0  0  0  0  0  0
    8.5210  -15.8783   27.2263 C   0  0  0  0  0  0  0  0  0  0  0  0
    7.9072  -14.6472   27.8607 C   0  0  0  0  0  0  0  0  0  0  0  0
    9.0032  -13.6093   27.9359 C   0  0  0  0  0  0  0  0  0  0  0  0
   10.2479  -14.4372   27.7012 C   0  0  1  0  0  0  0  0  0  0  0  0
   10.6312  -15.0570   29.0021 C   0  0  0  0  0  0  0  0  0  0  0  0
   11.2867  -14.3351   29.9874 O   0  0  0  0  0  0  0  0  0  0  0  0
   10.3798  -16.2586   29.2674 O   0  0  0  0  0  0  0  0  0  0  0  0
  2  1  1  6
  3  2  1  0
  4  3  1  0
  5  4  2  0
  6  7  1  0
  6  5  1  0
  7  8  2  0
  8  4  1  0
  9  2  1  0
  9 11  1  0
 10  9  2  0
 12 11  1  0
 13 14  1  0
 12 13  1  6
 14 18  1  0
 15 14  2  0
 16 17  2  0
 16 12  1  0
 19 16  1  0
 20 19  1  0
 20 21  1  0
 21 22  1  0
 23 19  1  0
 23 22  1  0
 23 24  1  1
 24 25  1  0
 26 24  2  0
M  END
$$$$
