HDP.pdb
     RDKit          3D

 26 27  0  0  1  0  0  0  0  0999 V2000
    4.6254  -19.7209   23.3717 N   0  0  0  0  0  0  0  0  0  0  0  0
    4.4261  -18.5903   22.5205 C   0  0  1  0  0  0  0  0  0  0  0  0
    3.0137  -18.1187   22.6344 C   0  0  0  0  0  0  0  0  0  0  0  0
    2.1730  -18.9270   21.7090 C   0  0  0  0  0  0  0  0  0  0  0  0
    2.5344  -19.9496   20.8605 C   0  0  0  0  0  0  0  0  0  0  0  0
    1.4747  -20.4282   20.1851 N   0  0  0  0  0  0  0  0  0  0  0  0
    0.4235  -19.7000   20.6096 C   0  0  0  0  0  0  0  0  0  0  0  0
    0.8270  -18.7976   21.5219 N   0  0  0  0  0  0  0  0  0  0  0  0
    5.4130  -17.5068   22.7639 C   0  0  0  0  0  0  0  0  0  0  0  0
    5.5561  -17.0947   23.9443 O   0  0  0  0  0  0  0  0  0  0  0  0
    6.1886  -16.9288   21.7262 N   0  0  0  0  0  0  0  0  0  0  0  0
    7.3967  -16.1725   22.0449 C   0  0  1  0  0  0  0  0  0  0  0  0
    8.3205  -17.0272   22.9086 C   0  0  0  0  0  0  0  0  0  0  0  0
    9.6012  -16.3771   23.2006 C   0  0  0  0  0  0  0  0  0  0  0  0
    9.7833  -15.6147   24.1771 O   0  0  0  0  0  0  0  0  0  0  0  0
    8.0958  -15.7324   20.8205 C   0  0  0  0  0  0  0  0  0  0  0  0
    8.2764  -16.6306   19.9292 O   0  0  0  0  0  0  0  0  0  0  0  0
   10.6667  -16.6091   22.3650 O   0  0  0  0  0  0  0  0  0  0  0  0
    8.5720  -14.4359   20.5515 N   0  0  0  0  0  0  0  0  0  0  0  0
    8.7776  -13.3664   21.4755 C   0  0  0  0  0  0  0  0  0  0  0  0
    8.4304  -12.1341   20.6657 C   0  0  0  0  0  0  0  0  0  0  0  0
    8.3033  -12.5845   19.2287 C   0  0  0  0  0  0  0  0  0  0  0  0
    8.9595  -13.9477   19.2589 C   0  0  1  0  0  0  0  0  0  0  0  0
   10.4327  -13.7435   19.1519 C   0  0  0  0  0  0  0  0  0  0  0  0
   11.2718  -13.9091   20.2429 O   0  0  0  0  0  0  0  0  0  0  0  0
   10.9829  -13.4127   18.0724 O   0  0  0  0  0  0  0  0  0  0  0  0
  2  1  1  1
  3  2  1  0
  4  3  1  0
  5  4  2  0
  6  7  1  0
  6  5  1  0
  7  8  2  0
  8  4  1  0
  9  2  1  0
  9 11  1  0
 10  9  2  0
 12 11  1  0
 13 14  1  0
 12 13  1  6
 14 18  1  0
 15 14  2  0
 16 17  2  0
 16 12  1  0
 19 16  1  0
 20 19  1  0
 20 21  1  0
 21 22  1  0
 23 19  1  0
 23 22  1  0
 23 24  1  1
 24 25  1  0
 26 24  2  0
M  END
$$$$
