HDP.pdb
     RDKit          3D

 26 27  0  0  1  0  0  0  0  0999 V2000
    9.0677  -15.1128   20.1627 N   0  0  0  0  0  0  0  0  0  0  0  0
    7.8238  -14.4994   20.5077 C   0  0  1  0  0  0  0  0  0  0  0  0
    6.8309  -14.7285   19.4159 C   0  0  0  0  0  0  0  0  0  0  0  0
    7.3977  -14.1955   18.1466 C   0  0  0  0  0  0  0  0  0  0  0  0
    8.6076  -13.5797   17.9151 C   0  0  0  0  0  0  0  0  0  0  0  0
    8.7489  -13.2406   16.6216 N   0  0  0  0  0  0  0  0  0  0  0  0
    7.6131  -13.6462   16.0209 C   0  0  0  0  0  0  0  0  0  0  0  0
    6.7953  -14.2195   16.9219 N   0  0  0  0  0  0  0  0  0  0  0  0
    7.3210  -14.9287   21.8382 C   0  0  0  0  0  0  0  0  0  0  0  0
    6.2476  -14.4205   22.2542 O   0  0  0  0  0  0  0  0  0  0  0  0
    7.9998  -15.8783   22.6445 N   0  0  0  0  0  0  0  0  0  0  0  0
    7.5855  -16.0988   24.0276 C   0  0  1  0  0  0  0  0  0  0  0  0
    7.4881  -17.5979   24.2979 C   0  0  0  0  0  0  0  0  0  0  0  0
    7.2701  -17.9156   25.7120 C   0  0  0  0  0  0  0  0  0  0  0  0
    8.1984  -18.1429   26.5211 O   0  0  0  0  0  0  0  0  0  0  0  0
    8.5199  -15.4626   24.9782 C   0  0  0  0  0  0  0  0  0  0  0  0
    9.7631  -15.6115   24.7208 O   0  0  0  0  0  0  0  0  0  0  0  0
    5.9821  -17.9697   26.1870 O   0  0  0  0  0  0  0  0  0  0  0  0
    8.1708  -14.7198   26.1211 N   0  0  0  0  0  0  0  0  0  0  0  0
    6.8649  -14.4786   26.6468 C   0  0  0  0  0  0  0  0  0  0  0  0
    6.9697  -13.0769   27.2116 C   0  0  0  0  0  0  0  0  0  0  0  0
    8.4372  -12.7160   27.1997 C   0  0  0  0  0  0  0  0  0  0  0  0
    9.0984  -14.0618   26.9962 C   0  0  1  0  0  0  0  0  0  0  0  0
    9.1876  -14.7282   28.3271 C   0  0  0  0  0  0  0  0  0  0  0  0
   10.1078  -14.3258   29.2827 O   0  0  0  0  0  0  0  0  0  0  0  0
    8.4362  -15.6828   28.6460 O   0  0  0  0  0  0  0  0  0  0  0  0
  2  1  1  6
  3  2  1  0
  4  3  1  0
  5  4  2  0
  6  7  1  0
  6  5  1  0
  7  8  2  0
  8  4  1  0
  9  2  1  0
  9 11  1  0
 10  9  2  0
 12 11  1  0
 13 14  1  0
 12 13  1  1
 14 18  1  0
 15 14  2  0
 16 17  2  0
 16 12  1  0
 19 16  1  0
 20 19  1  0
 20 21  1  0
 21 22  1  0
 23 19  1  0
 23 22  1  0
 23 24  1  1
 24 25  1  0
 26 24  2  0
M  END
$$$$
