CKS.pdb
     RDKit          3D

 22 21  0  0  1  0  0  0  0  0999 V2000
    6.7950  -14.2644   19.3511 N   0  0  0  0  0  0  0  0  0  0  0  0
    8.0511  -14.1334   20.1228 C   0  0  1  0  0  0  0  0  0  0  0  0
    8.4994  -12.6858   20.0824 C   0  0  0  0  0  0  0  0  0  0  0  0
    9.1926  -12.3033   18.4624 S   0  0  0  0  0  0  0  0  0  0  0  0
    7.7555  -14.6204   21.4816 C   0  0  0  0  0  0  0  0  0  0  0  0
    6.7111  -14.2050   22.1005 O   0  0  0  0  0  0  0  0  0  0  0  0
    8.5313  -15.5396   22.2142 N   0  0  0  0  0  0  0  0  0  0  0  0
    8.1818  -15.9781   23.5484 C   0  0  1  0  0  0  0  0  0  0  0  0
    8.2582  -17.4797   23.7101 C   0  0  0  0  0  0  0  0  0  0  0  0
    7.2315  -18.0787   22.7755 C   0  0  0  0  0  0  0  0  0  0  0  0
    7.1883  -19.5842   22.8672 C   0  0  0  0  0  0  0  0  0  0  0  0
    6.2056  -20.1570   21.8539 C   0  0  0  0  0  0  0  0  0  0  0  0
    6.8734  -20.9480   20.8401 N   0  0  0  0  0  0  0  0  0  0  0  0
    8.9500  -15.2482   24.5858 C   0  0  0  0  0  0  0  0  0  0  0  0
   10.1677  -15.0283   24.3574 O   0  0  0  0  0  0  0  0  0  0  0  0
    7.1980  -12.9378   27.2390 O   0  0  0  0  0  0  0  0  0  0  0  0
    8.5764  -12.7458   27.1264 C   0  0  0  0  0  0  0  0  0  0  0  0
    9.1935  -14.0759   26.7540 C   0  0  2  0  0  0  0  0  0  0  0  0
    8.3961  -14.7951   25.7952 N   0  0  0  0  0  0  0  0  0  0  0  0
    9.3928  -14.8341   28.0101 C   0  0  0  0  0  0  0  0  0  0  0  0
   10.0723  -14.1893   29.0372 O   0  0  0  0  0  0  0  0  0  0  0  0
    8.9983  -16.0010   28.2127 O   0  0  0  0  0  0  0  0  0  0  0  0
  2  1  1  6
  3  2  1  0
  4  3  1  0
  5  6  2  0
  5  2  1  0
  7  5  1  0
  8  9  1  6
  8  7  1  0
 10 11  1  0
 10  9  1  0
 11 12  1  0
 12 13  1  0
 14  8  1  0
 15 14  2  0
 17 16  1  0
 18 17  1  1
 18 19  1  0
 19 14  1  0
 20 18  1  0
 20 21  1  0
 22 20  2  0
M  END
$$$$
