CKS.pdb
     RDKit          3D

 22 21  0  0  1  0  0  0  0  0999 V2000
   10.3999  -16.1261   18.8418 N   0  0  0  0  0  0  0  0  0  0  0  0
    9.2893  -16.6583   19.6627 C   0  0  1  0  0  0  0  0  0  0  0  0
    9.3621  -18.1725   19.6584 C   0  0  0  0  0  0  0  0  0  0  0  0
    8.0356  -18.8534   20.6723 S   0  0  0  0  0  0  0  0  0  0  0  0
    9.4434  -16.0654   21.0026 C   0  0  0  0  0  0  0  0  0  0  0  0
   10.6092  -15.9551   21.5270 O   0  0  0  0  0  0  0  0  0  0  0  0
    8.3992  -15.5798   21.8136 N   0  0  0  0  0  0  0  0  0  0  0  0
    8.6232  -14.9849   23.1138 C   0  0  1  0  0  0  0  0  0  0  0  0
    7.4779  -14.1039   23.5597 C   0  0  0  0  0  0  0  0  0  0  0  0
    7.7994  -13.6346   24.9607 C   0  0  0  0  0  0  0  0  0  0  0  0
    6.6826  -12.8127   25.5559 C   0  0  0  0  0  0  0  0  0  0  0  0
    7.0038  -12.4307   26.9952 C   0  0  0  0  0  0  0  0  0  0  0  0
    5.9140  -11.7077   27.6191 N   0  0  0  0  0  0  0  0  0  0  0  0
    8.9945  -16.0020   24.1270 C   0  0  0  0  0  0  0  0  0  0  0  0
    8.1423  -16.8867   24.3991 O   0  0  0  0  0  0  0  0  0  0  0  0
   12.5950  -16.7423   24.5148 O   0  0  0  0  0  0  0  0  0  0  0  0
   12.0483  -17.4806   25.5662 C   0  0  0  0  0  0  0  0  0  0  0  0
   10.5832  -17.1171   25.6658 C   0  0  2  0  0  0  0  0  0  0  0  0
   10.2330  -16.0289   24.7907 N   0  0  0  0  0  0  0  0  0  0  0  0
   10.3014  -16.8158   27.0878 C   0  0  0  0  0  0  0  0  0  0  0  0
   10.6758  -17.7733   28.0235 O   0  0  0  0  0  0  0  0  0  0  0  0
    9.7566  -15.7729   27.5048 O   0  0  0  0  0  0  0  0  0  0  0  0
  2  1  1  6
  3  2  1  0
  4  3  1  0
  5  6  2  0
  5  2  1  0
  7  5  1  0
  8  9  1  1
  8  7  1  0
 10 11  1  0
 10  9  1  0
 11 12  1  0
 12 13  1  0
 14  8  1  0
 15 14  2  0
 17 16  1  0
 18 17  1  1
 18 19  1  0
 19 14  1  0
 20 18  1  0
 20 21  1  0
 22 20  2  0
M  END
$$$$
