CKS.pdb
     RDKit          3D

 22 21  0  0  1  0  0  0  0  0999 V2000
    7.1802  -16.1822   18.9652 N   0  0  0  0  0  0  0  0  0  0  0  0
    7.9825  -15.2455   19.7833 C   0  0  1  0  0  0  0  0  0  0  0  0
    7.5336  -13.8288   19.4835 C   0  0  0  0  0  0  0  0  0  0  0  0
    8.4456  -12.6649   20.5153 S   0  0  0  0  0  0  0  0  0  0  0  0
    7.7790  -15.6427   21.1874 C   0  0  0  0  0  0  0  0  0  0  0  0
    6.5961  -15.8820   21.6231 O   0  0  0  0  0  0  0  0  0  0  0  0
    8.7911  -15.7982   22.1545 N   0  0  0  0  0  0  0  0  0  0  0  0
    8.5163  -16.1340   23.5352 C   0  0  1  0  0  0  0  0  0  0  0  0
    9.3142  -17.3243   24.0182 C   0  0  0  0  0  0  0  0  0  0  0  0
    8.7323  -18.5489   23.3487 C   0  0  0  0  0  0  0  0  0  0  0  0
    9.5334  -19.7932   23.6432 C   0  0  0  0  0  0  0  0  0  0  0  0
    8.9079  -21.0079   22.9693 C   0  0  0  0  0  0  0  0  0  0  0  0
    9.7408  -22.1866   23.0979 N   0  0  0  0  0  0  0  0  0  0  0  0
    8.6477  -14.9545   24.4244 C   0  0  0  0  0  0  0  0  0  0  0  0
    9.6845  -14.2517   24.3050 O   0  0  0  0  0  0  0  0  0  0  0  0
    5.9511  -12.4135   25.5837 O   0  0  0  0  0  0  0  0  0  0  0  0
    6.6304  -12.8330   26.7291 C   0  0  0  0  0  0  0  0  0  0  0  0
    7.9193  -13.4866   26.2816 C   0  0  2  0  0  0  0  0  0  0  0  0
    7.6869  -14.5855   25.3812 N   0  0  0  0  0  0  0  0  0  0  0  0
    8.6500  -13.8970   27.5023 C   0  0  0  0  0  0  0  0  0  0  0  0
    8.9240  -12.9067   28.4385 O   0  0  0  0  0  0  0  0  0  0  0  0
    9.0350  -15.0583   27.7502 O   0  0  0  0  0  0  0  0  0  0  0  0
  2  1  1  6
  3  2  1  0
  4  3  1  0
  5  6  2  0
  5  2  1  0
  7  5  1  0
  8  9  1  1
  8  7  1  0
 10 11  1  0
 10  9  1  0
 11 12  1  0
 12 13  1  0
 14  8  1  0
 15 14  2  0
 17 16  1  0
 18 17  1  1
 18 19  1  0
 19 14  1  0
 20 18  1  0
 20 21  1  0
 22 20  2  0
M  END
$$$$
