CKS.pdb
     RDKit          3D

 22 21  0  0  1  0  0  0  0  0999 V2000
    5.0253  -13.8795   26.3042 N   0  0  0  0  0  0  0  0  0  0  0  0
    6.3267  -13.2468   25.9933 C   0  0  1  0  0  0  0  0  0  0  0  0
    7.1128  -13.0911   27.2802 C   0  0  0  0  0  0  0  0  0  0  0  0
    8.7078  -12.3241   26.9357 S   0  0  0  0  0  0  0  0  0  0  0  0
    6.9846  -14.1172   25.0033 C   0  0  0  0  0  0  0  0  0  0  0  0
    6.9571  -15.3918   25.1485 O   0  0  0  0  0  0  0  0  0  0  0  0
    7.6752  -13.6834   23.8550 N   0  0  0  0  0  0  0  0  0  0  0  0
    8.3861  -14.5865   22.9753 C   0  0  1  0  0  0  0  0  0  0  0  0
    8.9131  -13.9013   21.7345 C   0  0  0  0  0  0  0  0  0  0  0  0
    7.7853  -13.8796   20.7275 C   0  0  0  0  0  0  0  0  0  0  0  0
    8.2739  -13.5770   19.3323 C   0  0  0  0  0  0  0  0  0  0  0  0
    7.1020  -13.4524   18.3670 C   0  0  0  0  0  0  0  0  0  0  0  0
    7.5437  -13.2140   17.0078 N   0  0  0  0  0  0  0  0  0  0  0  0
    9.4317  -15.3493   23.6990 C   0  0  0  0  0  0  0  0  0  0  0  0
   10.2650  -14.6921   24.3748 O   0  0  0  0  0  0  0  0  0  0  0  0
    9.4967  -19.3816   23.6963 O   0  0  0  0  0  0  0  0  0  0  0  0
   10.2891  -18.8384   24.7095 C   0  0  0  0  0  0  0  0  0  0  0  0
   10.6415  -17.4240   24.3045 C   0  0  2  0  0  0  0  0  0  0  0  0
    9.5391  -16.7502   23.6697 N   0  0  0  0  0  0  0  0  0  0  0  0
   11.8371  -17.5017   23.4344 C   0  0  0  0  0  0  0  0  0  0  0  0
   11.7168  -16.9914   22.1471 O   0  0  0  0  0  0  0  0  0  0  0  0
   12.9366  -17.9882   23.7699 O   0  0  0  0  0  0  0  0  0  0  0  0
  2  1  1  1
  3  2  1  0
  4  3  1  0
  5  6  2  0
  5  2  1  0
  7  5  1  0
  8  9  1  6
  8  7  1  0
 10 11  1  0
 10  9  1  0
 11 12  1  0
 12 13  1  0
 14  8  1  0
 15 14  2  0
 17 16  1  0
 18 17  1  6
 18 19  1  0
 19 14  1  0
 20 18  1  0
 20 21  1  0
 22 20  2  0
M  END
$$$$
