CKS.pdb
     RDKit          3D

 22 21  0  0  1  0  0  0  0  0999 V2000
   12.5305  -16.0365   16.0369 N   0  0  0  0  0  0  0  0  0  0  0  0
   13.4388  -16.2861   17.1785 C   0  0  1  0  0  0  0  0  0  0  0  0
   14.2241  -15.0208   17.4623 C   0  0  0  0  0  0  0  0  0  0  0  0
   15.7838  -15.0510   16.5580 S   0  0  0  0  0  0  0  0  0  0  0  0
   12.5857  -16.7137   18.3010 C   0  0  0  0  0  0  0  0  0  0  0  0
   11.4461  -16.1558   18.4916 O   0  0  0  0  0  0  0  0  0  0  0  0
   12.8977  -17.7197   19.2360 N   0  0  0  0  0  0  0  0  0  0  0  0
   12.0037  -18.1040   20.3074 C   0  0  1  0  0  0  0  0  0  0  0  0
   11.9638  -19.5994   20.5287 C   0  0  0  0  0  0  0  0  0  0  0  0
   11.3478  -20.2140   19.2920 C   0  0  0  0  0  0  0  0  0  0  0  0
   11.2845  -21.7193   19.3759 C   0  0  0  0  0  0  0  0  0  0  0  0
   10.7340  -22.3075   18.0829 C   0  0  0  0  0  0  0  0  0  0  0  0
   10.7763  -23.7558   18.0864 N   0  0  0  0  0  0  0  0  0  0  0  0
   12.2790  -17.3457   21.5517 C   0  0  0  0  0  0  0  0  0  0  0  0
   13.4815  -17.0920   21.8213 O   0  0  0  0  0  0  0  0  0  0  0  0
    9.3167  -16.1791   24.1192 O   0  0  0  0  0  0  0  0  0  0  0  0
   10.4621  -15.3826   24.1746 C   0  0  0  0  0  0  0  0  0  0  0  0
   11.6168  -16.2067   23.6490 C   0  0  2  0  0  0  0  0  0  0  0  0
   11.2796  -16.9013   22.4340 N   0  0  0  0  0  0  0  0  0  0  0  0
   12.0290  -17.1265   24.7337 C   0  0  0  0  0  0  0  0  0  0  0  0
   12.5195  -16.5501   25.8996 O   0  0  0  0  0  0  0  0  0  0  0  0
   11.9686  -18.3721   24.6781 O   0  0  0  0  0  0  0  0  0  0  0  0
  2  1  1  6
  3  2  1  0
  4  3  1  0
  5  6  2  0
  5  2  1  0
  7  5  1  0
  8  9  1  1
  8  7  1  0
 10 11  1  0
 10  9  1  0
 11 12  1  0
 12 13  1  0
 14  8  1  0
 15 14  2  0
 17 16  1  0
 18 17  1  1
 18 19  1  0
 19 14  1  0
 20 18  1  0
 20 21  1  0
 22 20  2  0
M  END
$$$$
