CKS.pdb
     RDKit          3D

 22 21  0  0  1  0  0  0  0  0999 V2000
    9.2190  -17.7423   17.0742 N   0  0  0  0  0  0  0  0  0  0  0  0
   10.3088  -18.6021   17.5876 C   0  0  1  0  0  0  0  0  0  0  0  0
   11.3937  -18.6959   16.5329 C   0  0  0  0  0  0  0  0  0  0  0  0
   12.8508  -19.5043   17.2218 S   0  0  0  0  0  0  0  0  0  0  0  0
   10.7637  -17.9872   18.8468 C   0  0  0  0  0  0  0  0  0  0  0  0
   10.9760  -16.7231   18.9053 O   0  0  0  0  0  0  0  0  0  0  0  0
   11.0026  -18.6676   20.0566 N   0  0  0  0  0  0  0  0  0  0  0  0
   11.5388  -18.0176   21.2334 C   0  0  1  0  0  0  0  0  0  0  0  0
   11.1827  -18.7386   22.5140 C   0  0  0  0  0  0  0  0  0  0  0  0
   11.8155  -17.9649   23.6487 C   0  0  0  0  0  0  0  0  0  0  0  0
   11.5379  -18.5949   24.9914 C   0  0  0  0  0  0  0  0  0  0  0  0
   12.0622  -17.7136   26.1179 C   0  0  0  0  0  0  0  0  0  0  0  0
   11.8095  -18.2942   27.4212 N   0  0  0  0  0  0  0  0  0  0  0  0
   12.9933  -17.7594   21.1040 C   0  0  0  0  0  0  0  0  0  0  0  0
   13.7540  -18.7583   21.0231 O   0  0  0  0  0  0  0  0  0  0  0  0
   14.5602  -14.1501   19.9608 O   0  0  0  0  0  0  0  0  0  0  0  0
   15.2418  -15.3392   19.6942 C   0  0  0  0  0  0  0  0  0  0  0  0
   14.9685  -16.2885   20.8400 C   0  0  2  0  0  0  0  0  0  0  0  0
   13.5591  -16.4735   21.0676 N   0  0  0  0  0  0  0  0  0  0  0  0
   15.6708  -15.7546   22.0292 C   0  0  0  0  0  0  0  0  0  0  0  0
   17.0422  -15.5567   21.9181 O   0  0  0  0  0  0  0  0  0  0  0  0
   15.1257  -15.4714   23.1159 O   0  0  0  0  0  0  0  0  0  0  0  0
  2  1  1  6
  3  2  1  0
  4  3  1  0
  5  6  2  0
  5  2  1  0
  7  5  1  0
  8  9  1  1
  8  7  1  0
 10 11  1  0
 10  9  1  0
 11 12  1  0
 12 13  1  0
 14  8  1  0
 15 14  2  0
 17 16  1  0
 18 17  1  6
 18 19  1  0
 19 14  1  0
 20 18  1  0
 20 21  1  0
 22 20  2  0
M  END
$$$$
