CKS.pdb
     RDKit          3D

 22 21  0  0  1  0  0  0  0  0999 V2000
    6.5039  -13.6287   18.8224 N   0  0  0  0  0  0  0  0  0  0  0  0
    7.9524  -13.6898   18.5247 C   0  0  1  0  0  0  0  0  0  0  0  0
    8.5780  -12.3530   18.8706 C   0  0  0  0  0  0  0  0  0  0  0  0
    8.3998  -12.0306   20.6356 S   0  0  0  0  0  0  0  0  0  0  0  0
    8.4904  -14.8129   19.3122 C   0  0  0  0  0  0  0  0  0  0  0  0
    7.8931  -15.1920   20.3827 O   0  0  0  0  0  0  0  0  0  0  0  0
    9.6465  -15.5558   19.0041 N   0  0  0  0  0  0  0  0  0  0  0  0
   10.0777  -16.6995   19.7792 C   0  0  1  0  0  0  0  0  0  0  0  0
   10.6501  -17.8058   18.9218 C   0  0  0  0  0  0  0  0  0  0  0  0
    9.5402  -18.2792   18.0104 C   0  0  0  0  0  0  0  0  0  0  0  0
    9.9908  -19.3910   17.0952 C   0  0  0  0  0  0  0  0  0  0  0  0
    8.8269  -19.9013   16.2551 C   0  0  0  0  0  0  0  0  0  0  0  0
    9.2061  -21.0364   15.4382 N   0  0  0  0  0  0  0  0  0  0  0  0
   10.9816  -16.3039   20.8863 C   0  0  0  0  0  0  0  0  0  0  0  0
   11.8936  -15.4781   20.6227 O   0  0  0  0  0  0  0  0  0  0  0  0
   10.3222  -17.4814   24.6915 O   0  0  0  0  0  0  0  0  0  0  0  0
   11.1333  -16.3492   24.5931 C   0  0  0  0  0  0  0  0  0  0  0  0
   11.7854  -16.3721   23.2281 C   0  0  2  0  0  0  0  0  0  0  0  0
   10.8739  -16.7969   22.1979 N   0  0  0  0  0  0  0  0  0  0  0  0
   12.9781  -17.2440   23.3263 C   0  0  0  0  0  0  0  0  0  0  0  0
   13.9910  -16.8357   24.1862 O   0  0  0  0  0  0  0  0  0  0  0  0
   13.1393  -18.3106   22.6981 O   0  0  0  0  0  0  0  0  0  0  0  0
  2  1  1  1
  3  2  1  0
  4  3  1  0
  5  6  2  0
  5  2  1  0
  7  5  1  0
  8  9  1  6
  8  7  1  0
 10 11  1  0
 10  9  1  0
 11 12  1  0
 12 13  1  0
 14  8  1  0
 15 14  2  0
 17 16  1  0
 18 17  1  1
 18 19  1  0
 19 14  1  0
 20 18  1  0
 20 21  1  0
 22 20  2  0
M  END
$$$$
