CKS.pdb
     RDKit          3D

 22 21  0  0  1  0  0  0  0  0999 V2000
    6.6461  -14.5541   17.7099 N   0  0  0  0  0  0  0  0  0  0  0  0
    7.8738  -14.0843   18.3899 C   0  0  1  0  0  0  0  0  0  0  0  0
    7.5594  -12.7996   19.1309 C   0  0  0  0  0  0  0  0  0  0  0  0
    8.9664  -12.3200   20.1514 S   0  0  0  0  0  0  0  0  0  0  0  0
    8.3049  -15.1825   19.2724 C   0  0  0  0  0  0  0  0  0  0  0  0
    7.4669  -15.7281   20.0765 O   0  0  0  0  0  0  0  0  0  0  0  0
    9.6014  -15.7291   19.3341 N   0  0  0  0  0  0  0  0  0  0  0  0
    9.9599  -16.8073   20.2306 C   0  0  1  0  0  0  0  0  0  0  0  0
   10.6073  -17.9722   19.5160 C   0  0  0  0  0  0  0  0  0  0  0  0
    9.5502  -18.5912   18.6296 C   0  0  0  0  0  0  0  0  0  0  0  0
   10.1042  -19.7057   17.7764 C   0  0  0  0  0  0  0  0  0  0  0  0
    9.0441  -20.2233   16.8126 C   0  0  0  0  0  0  0  0  0  0  0  0
    9.5624  -21.2616   15.9450 N   0  0  0  0  0  0  0  0  0  0  0  0
   10.7594  -16.3224   21.3815 C   0  0  0  0  0  0  0  0  0  0  0  0
   11.7055  -15.5298   21.1367 O   0  0  0  0  0  0  0  0  0  0  0  0
    9.6521  -17.0583   25.1896 O   0  0  0  0  0  0  0  0  0  0  0  0
   10.5002  -15.9579   25.0505 C   0  0  0  0  0  0  0  0  0  0  0  0
   11.3121  -16.1639   23.7907 C   0  0  2  0  0  0  0  0  0  0  0  0
   10.5186  -16.6971   22.7144 N   0  0  0  0  0  0  0  0  0  0  0  0
   12.4536  -17.0389   24.1425 C   0  0  0  0  0  0  0  0  0  0  0  0
   13.3698  -16.5439   25.0632 O   0  0  0  0  0  0  0  0  0  0  0  0
   12.6518  -18.1798   23.6763 O   0  0  0  0  0  0  0  0  0  0  0  0
  2  1  1  1
  3  2  1  0
  4  3  1  0
  5  6  2  0
  5  2  1  0
  7  5  1  0
  8  9  1  6
  8  7  1  0
 10 11  1  0
 10  9  1  0
 11 12  1  0
 12 13  1  0
 14  8  1  0
 15 14  2  0
 17 16  1  0
 18 17  1  1
 18 19  1  0
 19 14  1  0
 20 18  1  0
 20 21  1  0
 22 20  2  0
M  END
$$$$
