CKS.pdb
     RDKit          3D

 22 21  0  0  1  0  0  0  0  0999 V2000
    5.8248  -17.7878   13.2118 N   0  0  0  0  0  0  0  0  0  0  0  0
    6.2280  -18.8757   14.1306 C   0  0  1  0  0  0  0  0  0  0  0  0
    7.7295  -19.0626   14.0357 C   0  0  0  0  0  0  0  0  0  0  0  0
    8.2614  -20.3481   15.1829 S   0  0  0  0  0  0  0  0  0  0  0  0
    5.7681  -18.4769   15.4723 C   0  0  0  0  0  0  0  0  0  0  0  0
    4.7787  -17.6699   15.5994 O   0  0  0  0  0  0  0  0  0  0  0  0
    6.3216  -18.9061   16.6942 N   0  0  0  0  0  0  0  0  0  0  0  0
    5.5539  -18.9976   17.9177 C   0  0  1  0  0  0  0  0  0  0  0  0
    4.2691  -19.7763   17.7460 C   0  0  0  0  0  0  0  0  0  0  0  0
    3.5117  -19.6748   19.0508 C   0  0  0  0  0  0  0  0  0  0  0  0
    2.1715  -20.3652   18.9860 C   0  0  0  0  0  0  0  0  0  0  0  0
    1.4272  -20.2204   20.3073 C   0  0  0  0  0  0  0  0  0  0  0  0
    0.1486  -20.9016   20.2854 N   0  0  0  0  0  0  0  0  0  0  0  0
    6.3779  -19.4897   19.0481 C   0  0  0  0  0  0  0  0  0  0  0  0
    6.7262  -20.6986   19.0279 O   0  0  0  0  0  0  0  0  0  0  0  0
    7.2792  -17.4652   22.4310 O   0  0  0  0  0  0  0  0  0  0  0  0
    8.4205  -17.6989   21.6613 C   0  0  0  0  0  0  0  0  0  0  0  0
    8.0997  -18.8205   20.6981 C   0  0  2  0  0  0  0  0  0  0  0  0
    6.7850  -18.6865   20.1270 N   0  0  0  0  0  0  0  0  0  0  0  0
    8.2724  -20.0937   21.4340 C   0  0  0  0  0  0  0  0  0  0  0  0
    9.5428  -20.3741   21.9235 O   0  0  0  0  0  0  0  0  0  0  0  0
    7.3675  -20.9272   21.6454 O   0  0  0  0  0  0  0  0  0  0  0  0
  2  1  1  6
  3  2  1  0
  4  3  1  0
  5  6  2  0
  5  2  1  0
  7  5  1  0
  8  9  1  6
  8  7  1  0
 10 11  1  0
 10  9  1  0
 11 12  1  0
 12 13  1  0
 14  8  1  0
 15 14  2  0
 17 16  1  0
 18 17  1  1
 18 19  1  0
 19 14  1  0
 20 18  1  0
 20 21  1  0
 22 20  2  0
M  END
$$$$
