CKS.pdb
     RDKit          3D

 22 21  0  0  1  0  0  0  0  0999 V2000
    7.7555  -17.3591   16.1504 N   0  0  0  0  0  0  0  0  0  0  0  0
    8.4962  -18.5968   16.4820 C   0  0  1  0  0  0  0  0  0  0  0  0
    9.9606  -18.3931   16.1468 C   0  0  0  0  0  0  0  0  0  0  0  0
   10.2438  -18.7379   14.3998 S   0  0  0  0  0  0  0  0  0  0  0  0
    8.2501  -18.8568   17.9112 C   0  0  0  0  0  0  0  0  0  0  0  0
    8.1792  -17.8796   18.7397 O   0  0  0  0  0  0  0  0  0  0  0  0
    8.0738  -20.1242   18.4995 N   0  0  0  0  0  0  0  0  0  0  0  0
    7.9156  -20.3157   19.9253 C   0  0  1  0  0  0  0  0  0  0  0  0
    6.9524  -21.4314   20.2630 C   0  0  0  0  0  0  0  0  0  0  0  0
    5.7340  -21.2453   19.3869 C   0  0  0  0  0  0  0  0  0  0  0  0
    4.7639  -22.3945   19.5096 C   0  0  0  0  0  0  0  0  0  0  0  0
    3.5339  -22.1551   18.6432 C   0  0  0  0  0  0  0  0  0  0  0  0
    2.5472  -23.2041   18.8030 N   0  0  0  0  0  0  0  0  0  0  0  0
    9.2236  -20.4585   20.6092 C   0  0  0  0  0  0  0  0  0  0  0  0
   10.1652  -20.9780   19.9560 O   0  0  0  0  0  0  0  0  0  0  0  0
   12.2708  -19.4990   24.1790 O   0  0  0  0  0  0  0  0  0  0  0  0
   10.9850  -19.2674   23.6864 C   0  0  0  0  0  0  0  0  0  0  0  0
   10.7537  -20.2314   22.5436 C   0  0  2  0  0  0  0  0  0  0  0  0
    9.4633  -20.0491   21.9320 N   0  0  0  0  0  0  0  0  0  0  0  0
   10.9407  -21.5993   23.0787 C   0  0  0  0  0  0  0  0  0  0  0  0
    9.8107  -22.4039   23.1673 O   0  0  0  0  0  0  0  0  0  0  0  0
   12.0306  -22.0791   23.4532 O   0  0  0  0  0  0  0  0  0  0  0  0
  2  1  1  1
  3  2  1  0
  4  3  1  0
  5  6  2  0
  5  2  1  0
  7  5  1  0
  8  9  1  6
  8  7  1  0
 10 11  1  0
 10  9  1  0
 11 12  1  0
 12 13  1  0
 14  8  1  0
 15 14  2  0
 17 16  1  0
 18 17  1  1
 18 19  1  0
 19 14  1  0
 20 18  1  0
 20 21  1  0
 22 20  2  0
M  END
$$$$
