CKS.pdb
     RDKit          3D

 22 21  0  0  1  0  0  0  0  0999 V2000
    7.4669  -13.6382   17.4642 N   0  0  0  0  0  0  0  0  0  0  0  0
    8.7803  -13.6198   18.1461 C   0  0  1  0  0  0  0  0  0  0  0  0
    8.8954  -12.3383   18.9478 C   0  0  0  0  0  0  0  0  0  0  0  0
   10.4314  -12.3414   19.8923 S   0  0  0  0  0  0  0  0  0  0  0  0
    8.8353  -14.8382   18.9726 C   0  0  0  0  0  0  0  0  0  0  0  0
    7.8171  -15.1884   19.6704 O   0  0  0  0  0  0  0  0  0  0  0  0
    9.9380  -15.7069   19.0870 N   0  0  0  0  0  0  0  0  0  0  0  0
    9.9711  -16.8202   20.0112 C   0  0  1  0  0  0  0  0  0  0  0  0
   10.4833  -18.0934   19.3762 C   0  0  0  0  0  0  0  0  0  0  0  0
    9.9230  -18.1450   17.9726 C   0  0  0  0  0  0  0  0  0  0  0  0
    9.3335  -19.4947   17.6445 C   0  0  0  0  0  0  0  0  0  0  0  0
    8.8047  -19.5179   16.2161 C   0  0  0  0  0  0  0  0  0  0  0  0
    8.2039  -20.7936   15.8823 N   0  0  0  0  0  0  0  0  0  0  0  0
   10.6863  -16.4740   21.2633 C   0  0  0  0  0  0  0  0  0  0  0  0
   11.8864  -16.1094   21.1631 O   0  0  0  0  0  0  0  0  0  0  0  0
    8.9776  -16.9069   24.9207 O   0  0  0  0  0  0  0  0  0  0  0  0
    9.9278  -15.8841   24.8967 C   0  0  0  0  0  0  0  0  0  0  0  0
   10.8352  -16.1320   23.7119 C   0  0  2  0  0  0  0  0  0  0  0  0
   10.1010  -16.5311   22.5397 N   0  0  0  0  0  0  0  0  0  0  0  0
   11.8342  -17.1425   24.1281 C   0  0  0  0  0  0  0  0  0  0  0  0
   12.7520  -16.7618   25.1001 O   0  0  0  0  0  0  0  0  0  0  0  0
   11.9118  -18.3025   23.6735 O   0  0  0  0  0  0  0  0  0  0  0  0
  2  1  1  1
  3  2  1  0
  4  3  1  0
  5  6  2  0
  5  2  1  0
  7  5  1  0
  8  9  1  6
  8  7  1  0
 10 11  1  0
 10  9  1  0
 11 12  1  0
 12 13  1  0
 14  8  1  0
 15 14  2  0
 17 16  1  0
 18 17  1  1
 18 19  1  0
 19 14  1  0
 20 18  1  0
 20 21  1  0
 22 20  2  0
M  END
$$$$
