CKS.pdb
     RDKit          3D

 22 21  0  0  1  0  0  0  0  0999 V2000
    7.9408  -12.5779   18.9648 N   0  0  0  0  0  0  0  0  0  0  0  0
    8.4325  -13.9674   18.8314 C   0  0  1  0  0  0  0  0  0  0  0  0
    9.9473  -13.9451   18.7734 C   0  0  0  0  0  0  0  0  0  0  0  0
   10.6069  -13.1757   20.2648 S   0  0  0  0  0  0  0  0  0  0  0  0
    7.8985  -14.7089   19.9872 C   0  0  0  0  0  0  0  0  0  0  0  0
    7.4131  -14.0732   20.9904 O   0  0  0  0  0  0  0  0  0  0  0  0
    7.8585  -16.1104   20.1196 N   0  0  0  0  0  0  0  0  0  0  0  0
    7.2888  -16.7769   21.2712 C   0  0  1  0  0  0  0  0  0  0  0  0
    6.9357  -18.2213   20.9965 C   0  0  0  0  0  0  0  0  0  0  0  0
    6.3436  -18.7825   22.2697 C   0  0  0  0  0  0  0  0  0  0  0  0
    6.0433  -20.2569   22.1560 C   0  0  0  0  0  0  0  0  0  0  0  0
    5.2835  -20.7473   23.3819 C   0  0  0  0  0  0  0  0  0  0  0  0
    4.9645  -22.1579   23.2921 N   0  0  0  0  0  0  0  0  0  0  0  0
    8.1361  -16.6112   22.4769 C   0  0  0  0  0  0  0  0  0  0  0  0
    9.3788  -16.7478   22.3349 O   0  0  0  0  0  0  0  0  0  0  0  0
    8.8894  -14.7176   26.7704 O   0  0  0  0  0  0  0  0  0  0  0  0
    7.9493  -14.9502   25.7645 C   0  0  0  0  0  0  0  0  0  0  0  0
    8.5121  -16.0176   24.8520 C   0  0  2  0  0  0  0  0  0  0  0  0
    7.6298  -16.3135   23.7536 N   0  0  0  0  0  0  0  0  0  0  0  0
    8.7956  -17.2057   25.6890 C   0  0  0  0  0  0  0  0  0  0  0  0
    8.1198  -18.3784   25.3724 O   0  0  0  0  0  0  0  0  0  0  0  0
    9.5909  -17.2309   26.6508 O   0  0  0  0  0  0  0  0  0  0  0  0
  2  1  1  1
  3  2  1  0
  4  3  1  0
  5  6  2  0
  5  2  1  0
  7  5  1  0
  8  9  1  6
  8  7  1  0
 10 11  1  0
 10  9  1  0
 11 12  1  0
 12 13  1  0
 14  8  1  0
 15 14  2  0
 17 16  1  0
 18 17  1  1
 18 19  1  0
 19 14  1  0
 20 18  1  0
 20 21  1  0
 22 20  2  0
M  END
$$$$
