QGN.pdb
     RDKit          3D

 22 21  0  0  1  0  0  0  0  0999 V2000
    7.5994  -12.6031   16.4349 N   0  0  0  0  0  0  0  0  0  0  0  0
    7.9286  -13.8536   17.0697 C   0  0  0  0  0  0  0  0  0  0  0  0
    7.1784  -14.8333   16.8300 O   0  0  0  0  0  0  0  0  0  0  0  0
    9.1082  -13.9610   17.9658 C   0  0  0  0  0  0  0  0  0  0  0  0
    8.6192  -13.8992   19.3816 C   0  0  0  0  0  0  0  0  0  0  0  0
    9.7456  -14.0399   20.3881 C   0  0  2  0  0  0  0  0  0  0  0  0
   10.8021  -14.8459   19.8296 N   0  0  0  0  0  0  0  0  0  0  0  0
    9.1644  -14.6792   21.5884 C   0  0  0  0  0  0  0  0  0  0  0  0
    8.2552  -14.0835   22.2040 O   0  0  0  0  0  0  0  0  0  0  0  0
    9.6202  -15.9370   22.0381 N   0  0  0  0  0  0  0  0  0  0  0  0
    9.1539  -16.5828   23.2396 C   0  0  0  0  0  0  0  0  0  0  0  0
   10.1804  -16.4979   24.3299 C   0  0  0  0  0  0  0  0  0  0  0  0
   10.1758  -15.5738   25.1790 O   0  0  0  0  0  0  0  0  0  0  0  0
   10.9805  -19.4377   28.7693 N   0  0  0  0  0  0  0  0  0  0  0  0
   11.0042  -19.5921   27.3583 C   0  0  0  0  0  0  0  0  0  0  0  0
   11.4327  -20.6998   26.9331 O   0  0  0  0  0  0  0  0  0  0  0  0
   10.5528  -18.5144   26.4624 C   0  0  0  0  0  0  0  0  0  0  0  0
   11.7060  -17.8539   25.7639 C   0  0  2  0  0  0  0  0  0  0  0  0
   11.2055  -17.4770   24.4359 N   0  0  0  0  0  0  0  0  0  0  0  0
   12.8883  -18.7227   25.6453 C   0  0  0  0  0  0  0  0  0  0  0  0
   13.1372  -19.3640   24.5825 O   0  0  0  0  0  0  0  0  0  0  0  0
   13.7793  -18.8751   26.6913 O   0  0  0  0  0  0  0  0  0  0  0  0
  1  2  1  0
  2  4  1  0
  2  3  2  0
  4  5  1  0
  5  6  1  0
  6  8  1  0
  6  7  1  6
  8  9  2  0
 10  8  1  0
 10 11  1  0
 11 12  1  0
 12 19  1  0
 12 13  2  0
 15 14  1  0
 15 17  1  0
 16 15  2  0
 18 17  1  6
 18 20  1  0
 19 18  1  0
 20 22  1  0
 21 20  2  0
M  END
$$$$
