QGN.pdb
     RDKit          3D

 22 21  0  0  1  0  0  0  0  0999 V2000
    8.7031  -12.9467   23.9454 N   0  0  0  0  0  0  0  0  0  0  0  0
    7.9007  -12.4276   22.8675 C   0  0  0  0  0  0  0  0  0  0  0  0
    7.9343  -11.1860   22.6741 O   0  0  0  0  0  0  0  0  0  0  0  0
    7.0756  -13.3366   22.0315 C   0  0  0  0  0  0  0  0  0  0  0  0
    7.8760  -13.6999   20.8170 C   0  0  0  0  0  0  0  0  0  0  0  0
    7.1209  -14.6285   19.8846 C   0  0  2  0  0  0  0  0  0  0  0  0
    6.2962  -15.5274   20.6525 N   0  0  0  0  0  0  0  0  0  0  0  0
    8.1385  -15.3695   19.1084 C   0  0  0  0  0  0  0  0  0  0  0  0
    8.7227  -14.7834   18.1726 O   0  0  0  0  0  0  0  0  0  0  0  0
    8.4515  -16.7122   19.4103 N   0  0  0  0  0  0  0  0  0  0  0  0
    9.3782  -17.5157   18.6529 C   0  0  0  0  0  0  0  0  0  0  0  0
   10.7414  -17.4991   19.2784 C   0  0  0  0  0  0  0  0  0  0  0  0
   11.6759  -18.2241   18.8588 O   0  0  0  0  0  0  0  0  0  0  0  0
   14.9121  -14.0221   19.6745 N   0  0  0  0  0  0  0  0  0  0  0  0
   13.9975  -15.1078   19.6668 C   0  0  0  0  0  0  0  0  0  0  0  0
   14.2510  -16.0348   18.8495 O   0  0  0  0  0  0  0  0  0  0  0  0
   12.8308  -15.1326   20.5644 C   0  0  0  0  0  0  0  0  0  0  0  0
   12.3992  -16.5367   20.8747 C   0  0  2  0  0  0  0  0  0  0  0  0
   11.0202  -16.6484   20.3825 N   0  0  0  0  0  0  0  0  0  0  0  0
   12.4661  -16.8616   22.3088 C   0  0  0  0  0  0  0  0  0  0  0  0
   11.4502  -16.7696   23.0587 O   0  0  0  0  0  0  0  0  0  0  0  0
   13.6433  -17.2827   22.8988 O   0  0  0  0  0  0  0  0  0  0  0  0
  1  2  1  0
  2  4  1  0
  2  3  2  0
  4  5  1  0
  5  6  1  0
  6  8  1  0
  6  7  1  1
  8  9  2  0
 10  8  1  0
 10 11  1  0
 11 12  1  0
 12 19  1  0
 12 13  2  0
 15 14  1  0
 15 17  1  0
 16 15  2  0
 18 17  1  1
 18 20  1  0
 19 18  1  0
 20 22  1  0
 21 20  2  0
M  END
$$$$
