QGN.pdb
     RDKit          3D

 22 21  0  0  1  0  0  0  0  0999 V2000
    7.2226  -12.3223   19.0567 N   0  0  0  0  0  0  0  0  0  0  0  0
    7.9008  -13.4294   19.6809 C   0  0  0  0  0  0  0  0  0  0  0  0
    9.0168  -13.7596   19.2059 O   0  0  0  0  0  0  0  0  0  0  0  0
    7.2912  -14.1377   20.8353 C   0  0  0  0  0  0  0  0  0  0  0  0
    8.2052  -15.2614   21.2220 C   0  0  0  0  0  0  0  0  0  0  0  0
    7.6562  -16.0817   22.3742 C   0  0  2  0  0  0  0  0  0  0  0  0
    7.1733  -15.2051   23.4116 N   0  0  0  0  0  0  0  0  0  0  0  0
    8.7689  -16.9245   22.8627 C   0  0  0  0  0  0  0  0  0  0  0  0
    9.1185  -17.9106   22.1802 O   0  0  0  0  0  0  0  0  0  0  0  0
    9.4298  -16.6297   24.0745 N   0  0  0  0  0  0  0  0  0  0  0  0
   10.8507  -16.7686   24.2742 C   0  0  0  0  0  0  0  0  0  0  0  0
   11.2281  -16.4580   25.6923 C   0  0  0  0  0  0  0  0  0  0  0  0
   12.4249  -16.3601   26.0571 O   0  0  0  0  0  0  0  0  0  0  0  0
   10.1718  -13.5744   26.6365 N   0  0  0  0  0  0  0  0  0  0  0  0
    9.2856  -13.8952   27.6983 C   0  0  0  0  0  0  0  0  0  0  0  0
    8.2803  -13.1433   27.8219 O   0  0  0  0  0  0  0  0  0  0  0  0
    9.5410  -15.0387   28.5898 C   0  0  0  0  0  0  0  0  0  0  0  0
   10.6252  -15.9285   28.0542 C   0  0  2  0  0  0  0  0  0  0  0  0
   10.2259  -16.2621   26.6811 N   0  0  0  0  0  0  0  0  0  0  0  0
   10.8189  -17.1517   28.8498 C   0  0  0  0  0  0  0  0  0  0  0  0
   10.4095  -18.2792   28.4448 O   0  0  0  0  0  0  0  0  0  0  0  0
   11.4580  -17.1214   30.0753 O   0  0  0  0  0  0  0  0  0  0  0  0
  1  2  1  0
  2  4  1  0
  2  3  2  0
  4  5  1  0
  5  6  1  0
  6  8  1  0
  6  7  1  1
  8  9  2  0
 10  8  1  0
 10 11  1  0
 11 12  1  0
 12 19  1  0
 12 13  2  0
 15 14  1  0
 15 17  1  0
 16 15  2  0
 18 17  1  1
 18 20  1  0
 19 18  1  0
 20 22  1  0
 21 20  2  0
M  END
$$$$
