QGN.pdb
     RDKit          3D

 22 21  0  0  1  0  0  0  0  0999 V2000
    1.3534  -19.8963   18.1774 N   0  0  0  0  0  0  0  0  0  0  0  0
    0.2901  -19.6823   19.1254 C   0  0  0  0  0  0  0  0  0  0  0  0
   -0.8674  -19.5215   18.6623 O   0  0  0  0  0  0  0  0  0  0  0  0
    0.5695  -19.6560   20.5840 C   0  0  0  0  0  0  0  0  0  0  0  0
    2.0333  -19.9151   20.7780 C   0  0  0  0  0  0  0  0  0  0  0  0
    2.4272  -19.9328   22.2431 C   0  0  2  0  0  0  0  0  0  0  0  0
    1.5683  -19.0490   22.9907 N   0  0  0  0  0  0  0  0  0  0  0  0
    3.8364  -19.4892   22.3088 C   0  0  0  0  0  0  0  0  0  0  0  0
    4.7048  -20.1609   21.7127 O   0  0  0  0  0  0  0  0  0  0  0  0
    4.2041  -18.3314   23.0275 N   0  0  0  0  0  0  0  0  0  0  0  0
    5.5560  -17.8430   23.1353 C   0  0  0  0  0  0  0  0  0  0  0  0
    6.0858  -18.0268   24.5265 C   0  0  0  0  0  0  0  0  0  0  0  0
    5.4572  -17.6285   25.5370 O   0  0  0  0  0  0  0  0  0  0  0  0
    6.8714  -21.9386   27.6540 N   0  0  0  0  0  0  0  0  0  0  0  0
    6.9299  -20.9804   26.6080 C   0  0  0  0  0  0  0  0  0  0  0  0
    5.8720  -20.8334   25.9368 O   0  0  0  0  0  0  0  0  0  0  0  0
    8.1585  -20.2153   26.3384 C   0  0  0  0  0  0  0  0  0  0  0  0
    7.8673  -18.7601   26.1112 C   0  0  2  0  0  0  0  0  0  0  0  0
    7.3354  -18.6679   24.7456 N   0  0  0  0  0  0  0  0  0  0  0  0
    9.0514  -17.8995   26.2660 C   0  0  0  0  0  0  0  0  0  0  0  0
    9.6233  -17.3709   25.2677 O   0  0  0  0  0  0  0  0  0  0  0  0
    9.5900  -17.6307   27.5105 O   0  0  0  0  0  0  0  0  0  0  0  0
  1  2  1  0
  2  4  1  0
  2  3  2  0
  4  5  1  0
  5  6  1  0
  6  8  1  0
  6  7  1  1
  8  9  2  0
 10  8  1  0
 10 11  1  0
 11 12  1  0
 12 19  1  0
 12 13  2  0
 15 14  1  0
 15 17  1  0
 16 15  2  0
 18 17  1  6
 18 20  1  0
 19 18  1  0
 20 22  1  0
 21 20  2  0
M  END
$$$$
