QGN.pdb
     RDKit          3D

 22 21  0  0  1  0  0  0  0  0999 V2000
   11.0665  -16.2756   17.2098 N   0  0  0  0  0  0  0  0  0  0  0  0
   11.3497  -14.9421   17.6752 C   0  0  0  0  0  0  0  0  0  0  0  0
   12.5585  -14.6052   17.7492 O   0  0  0  0  0  0  0  0  0  0  0  0
   10.2470  -14.0192   18.0469 C   0  0  0  0  0  0  0  0  0  0  0  0
    8.9500  -14.7393   17.8305 C   0  0  0  0  0  0  0  0  0  0  0  0
    7.7549  -13.9286   18.2957 C   0  0  2  0  0  0  0  0  0  0  0  0
    8.0794  -12.5243   18.2755 N   0  0  0  0  0  0  0  0  0  0  0  0
    7.4414  -14.3842   19.6673 C   0  0  0  0  0  0  0  0  0  0  0  0
    7.0781  -15.5672   19.8376 O   0  0  0  0  0  0  0  0  0  0  0  0
    7.5473  -13.5084   20.7690 N   0  0  0  0  0  0  0  0  0  0  0  0
    7.1248  -13.8389   22.1071 C   0  0  0  0  0  0  0  0  0  0  0  0
    8.2523  -14.4361   22.8958 C   0  0  0  0  0  0  0  0  0  0  0  0
    9.2057  -13.7424   23.3255 O   0  0  0  0  0  0  0  0  0  0  0  0
    6.3566  -16.1094   26.0797 N   0  0  0  0  0  0  0  0  0  0  0  0
    7.7644  -16.2883   26.1169 C   0  0  0  0  0  0  0  0  0  0  0  0
    8.3741  -15.6667   27.0298 O   0  0  0  0  0  0  0  0  0  0  0  0
    8.4528  -17.1499   25.1416 C   0  0  0  0  0  0  0  0  0  0  0  0
    9.2484  -16.3454   24.1547 C   0  0  2  0  0  0  0  0  0  0  0  0
    8.2751  -15.8277   23.1847 N   0  0  0  0  0  0  0  0  0  0  0  0
   10.2927  -17.1285   23.4743 C   0  0  0  0  0  0  0  0  0  0  0  0
   10.0564  -18.2768   22.9964 O   0  0  0  0  0  0  0  0  0  0  0  0
   11.5784  -16.6420   23.3273 O   0  0  0  0  0  0  0  0  0  0  0  0
  1  2  1  0
  2  4  1  0
  2  3  2  0
  4  5  1  0
  5  6  1  0
  6  8  1  0
  6  7  1  1
  8  9  2  0
 10  8  1  0
 10 11  1  0
 11 12  1  0
 12 19  1  0
 12 13  2  0
 15 14  1  0
 15 17  1  0
 16 15  2  0
 18 17  1  1
 18 20  1  0
 19 18  1  0
 20 22  1  0
 21 20  2  0
M  END
$$$$
