QGN.pdb
     RDKit          3D

 22 21  0  0  1  0  0  0  0  0999 V2000
    6.7013  -13.3307   19.5067 N   0  0  0  0  0  0  0  0  0  0  0  0
    8.0930  -13.7012   19.5409 C   0  0  0  0  0  0  0  0  0  0  0  0
    8.8498  -13.1662   18.6918 O   0  0  0  0  0  0  0  0  0  0  0  0
    8.5932  -14.6755   20.5442 C   0  0  0  0  0  0  0  0  0  0  0  0
    7.4392  -15.5326   20.9701 C   0  0  0  0  0  0  0  0  0  0  0  0
    7.4978  -15.8892   22.4436 C   0  0  2  0  0  0  0  0  0  0  0  0
    7.1483  -14.7388   23.2389 N   0  0  0  0  0  0  0  0  0  0  0  0
    8.8831  -16.3274   22.7191 C   0  0  0  0  0  0  0  0  0  0  0  0
    9.3253  -17.3298   22.1189 O   0  0  0  0  0  0  0  0  0  0  0  0
    9.6982  -15.6343   23.6396 N   0  0  0  0  0  0  0  0  0  0  0  0
   11.0741  -15.9678   23.9109 C   0  0  0  0  0  0  0  0  0  0  0  0
   11.2795  -16.2639   25.3670 C   0  0  0  0  0  0  0  0  0  0  0  0
   12.4084  -16.5458   25.8369 O   0  0  0  0  0  0  0  0  0  0  0  0
   10.3860  -12.9131   28.2834 N   0  0  0  0  0  0  0  0  0  0  0  0
    9.5579  -13.9079   27.7002 C   0  0  0  0  0  0  0  0  0  0  0  0
    8.9409  -13.5662   26.6542 O   0  0  0  0  0  0  0  0  0  0  0  0
    9.4391  -15.2499   28.2940 C   0  0  0  0  0  0  0  0  0  0  0  0
   10.4456  -16.2030   27.7172 C   0  0  2  0  0  0  0  0  0  0  0  0
   10.1842  -16.2336   26.2726 N   0  0  0  0  0  0  0  0  0  0  0  0
   10.3583  -17.5565   28.2891 C   0  0  0  0  0  0  0  0  0  0  0  0
   10.5906  -17.7761   29.5141 O   0  0  0  0  0  0  0  0  0  0  0  0
   10.0175  -18.6474   27.5114 O   0  0  0  0  0  0  0  0  0  0  0  0
  1  2  1  0
  2  4  1  0
  2  3  2  0
  4  5  1  0
  5  6  1  0
  6  8  1  0
  6  7  1  1
  8  9  2  0
 10  8  1  0
 10 11  1  0
 11 12  1  0
 12 19  1  0
 12 13  2  0
 15 14  1  0
 15 17  1  0
 16 15  2  0
 18 17  1  1
 18 20  1  0
 19 18  1  0
 20 22  1  0
 21 20  2  0
M  END
$$$$
