QGN.pdb
     RDKit          3D

 22 21  0  0  1  0  0  0  0  0999 V2000
   10.2115  -12.4953   19.4022 N   0  0  0  0  0  0  0  0  0  0  0  0
    9.3710  -13.2004   18.4687 C   0  0  0  0  0  0  0  0  0  0  0  0
    9.6264  -13.0579   17.2462 O   0  0  0  0  0  0  0  0  0  0  0  0
    8.2551  -14.0546   18.9496 C   0  0  0  0  0  0  0  0  0  0  0  0
    8.8312  -15.3738   19.3684 C   0  0  0  0  0  0  0  0  0  0  0  0
    7.7694  -16.3346   19.8694 C   0  0  2  0  0  0  0  0  0  0  0  0
    6.6356  -16.3173   18.9794 N   0  0  0  0  0  0  0  0  0  0  0  0
    7.3909  -15.8792   21.2246 C   0  0  0  0  0  0  0  0  0  0  0  0
    6.5566  -14.9561   21.3356 O   0  0  0  0  0  0  0  0  0  0  0  0
    7.9546  -16.4688   22.3764 N   0  0  0  0  0  0  0  0  0  0  0  0
    7.5054  -16.2060   23.7207 C   0  0  0  0  0  0  0  0  0  0  0  0
    8.6492  -15.7962   24.6003 C   0  0  0  0  0  0  0  0  0  0  0  0
    9.8372  -15.8051   24.1960 O   0  0  0  0  0  0  0  0  0  0  0  0
   10.6521  -12.9724   29.1625 N   0  0  0  0  0  0  0  0  0  0  0  0
   10.0280  -14.2445   29.0744 C   0  0  0  0  0  0  0  0  0  0  0  0
   10.4236  -15.1099   29.9026 O   0  0  0  0  0  0  0  0  0  0  0  0
    8.9854  -14.5180   28.0715 C   0  0  0  0  0  0  0  0  0  0  0  0
    9.5642  -15.0979   26.8134 C   0  0  2  0  0  0  0  0  0  0  0  0
    8.4182  -15.3787   25.9393 N   0  0  0  0  0  0  0  0  0  0  0  0
   10.3514  -16.3198   27.0454 C   0  0  0  0  0  0  0  0  0  0  0  0
    9.8109  -17.4646   27.0639 O   0  0  0  0  0  0  0  0  0  0  0  0
   11.7173  -16.2693   27.2525 O   0  0  0  0  0  0  0  0  0  0  0  0
  1  2  1  0
  2  4  1  0
  2  3  2  0
  4  5  1  0
  5  6  1  0
  6  8  1  0
  6  7  1  6
  8  9  2  0
 10  8  1  0
 10 11  1  0
 11 12  1  0
 12 19  1  0
 12 13  2  0
 15 14  1  0
 15 17  1  0
 16 15  2  0
 18 17  1  1
 18 20  1  0
 19 18  1  0
 20 22  1  0
 21 20  2  0
M  END
$$$$
