QGN.pdb
     RDKit          3D

 22 21  0  0  1  0  0  0  0  0999 V2000
    8.5255  -15.9626   15.5423 N   0  0  0  0  0  0  0  0  0  0  0  0
    9.7127  -15.6079   16.2770 C   0  0  0  0  0  0  0  0  0  0  0  0
   10.7971  -16.1158   15.8943 O   0  0  0  0  0  0  0  0  0  0  0  0
    9.6385  -14.6801   17.4344 C   0  0  0  0  0  0  0  0  0  0  0  0
    8.2046  -14.2813   17.6148 C   0  0  0  0  0  0  0  0  0  0  0  0
    8.0244  -13.2596   18.7219 C   0  0  2  0  0  0  0  0  0  0  0  0
    9.3122  -12.7889   19.1667 N   0  0  0  0  0  0  0  0  0  0  0  0
    7.2991  -13.9423   19.8150 C   0  0  0  0  0  0  0  0  0  0  0  0
    6.2280  -14.5277   19.5496 O   0  0  0  0  0  0  0  0  0  0  0  0
    7.7980  -13.9389   21.1353 N   0  0  0  0  0  0  0  0  0  0  0  0
    7.2216  -14.6954   22.2186 C   0  0  0  0  0  0  0  0  0  0  0  0
    7.9586  -14.4467   23.5011 C   0  0  0  0  0  0  0  0  0  0  0  0
    9.1561  -14.0717   23.5196 O   0  0  0  0  0  0  0  0  0  0  0  0
    5.1664  -12.4242   26.5405 N   0  0  0  0  0  0  0  0  0  0  0  0
    6.5591  -12.6473   26.7019 C   0  0  0  0  0  0  0  0  0  0  0  0
    7.2990  -11.6361   26.5549 O   0  0  0  0  0  0  0  0  0  0  0  0
    7.0886  -13.9835   27.0208 C   0  0  0  0  0  0  0  0  0  0  0  0
    8.0793  -14.4478   25.9927 C   0  0  2  0  0  0  0  0  0  0  0  0
    7.3126  -14.6311   24.7538 N   0  0  0  0  0  0  0  0  0  0  0  0
    8.7647  -15.6952   26.3680 C   0  0  0  0  0  0  0  0  0  0  0  0
    8.4820  -16.7998   25.8176 O   0  0  0  0  0  0  0  0  0  0  0  0
    9.7487  -15.7135   27.3388 O   0  0  0  0  0  0  0  0  0  0  0  0
  1  2  1  0
  2  4  1  0
  2  3  2  0
  4  5  1  0
  5  6  1  0
  6  8  1  0
  6  7  1  1
  8  9  2  0
 10  8  1  0
 10 11  1  0
 11 12  1  0
 12 19  1  0
 12 13  2  0
 15 14  1  0
 15 17  1  0
 16 15  2  0
 18 17  1  1
 18 20  1  0
 19 18  1  0
 20 22  1  0
 21 20  2  0
M  END
$$$$
