PGH.pdb
     RDKit          3D

 22 23  0  0  1  0  0  0  0  0999 V2000
    9.2937  -13.9073   18.9991 N   0  0  0  0  0  0  0  0  0  0  0  0
    8.5356  -13.0992   18.0945 C   0  0  0  0  0  0  0  0  0  0  0  0
    7.3551  -12.5392   18.8593 C   0  0  0  0  0  0  0  0  0  0  0  0
    7.1453  -13.5872   19.9317 C   0  0  0  0  0  0  0  0  0  0  0  0
    8.5952  -13.9724   20.2431 C   0  0  1  0  0  0  0  0  0  0  0  0
    8.6679  -15.3155   20.8763 C   0  0  0  0  0  0  0  0  0  0  0  0
    8.0663  -15.5188   21.9427 O   0  0  0  0  0  0  0  0  0  0  0  0
    9.4294  -16.3294   20.2344 N   0  0  0  0  0  0  0  0  0  0  0  0
    9.6120  -17.6092   20.8585 C   0  0  0  0  0  0  0  0  0  0  0  0
   10.9119  -17.6737   21.5755 C   0  0  0  0  0  0  0  0  0  0  0  0
   11.4829  -18.7898   21.6925 O   0  0  0  0  0  0  0  0  0  0  0  0
   11.5357  -16.5353   22.1325 N   0  0  0  0  0  0  0  0  0  0  0  0
   12.9535  -16.5982   22.6073 C   0  0  1  0  0  0  0  0  0  0  0  0
   13.6497  -15.4039   22.0832 C   0  0  0  0  0  0  0  0  0  0  0  0
   13.6972  -15.2317   20.6309 C   0  0  0  0  0  0  0  0  0  0  0  0
   13.0230  -14.4072   19.7758 C   0  0  0  0  0  0  0  0  0  0  0  0
   13.4549  -14.5706   18.4930 N   0  0  0  0  0  0  0  0  0  0  0  0
   14.4016  -15.5030   18.5720 C   0  0  0  0  0  0  0  0  0  0  0  0
   14.5691  -15.9159   19.8309 N   0  0  0  0  0  0  0  0  0  0  0  0
   12.8233  -16.6145   24.0868 C   0  0  0  0  0  0  0  0  0  0  0  0
   11.6770  -16.5298   24.6205 O   0  0  0  0  0  0  0  0  0  0  0  0
   13.8844  -16.7162   24.9454 O   0  0  0  0  0  0  0  0  0  0  0  0
  1  2  1  0
  1  5  1  0
  2  3  1  0
  3  4  1  0
  5  4  1  0
  5  6  1  6
  6  7  2  0
  8  9  1  0
  8  6  1  0
  9 10  1  0
 10 12  1  0
 10 11  2  0
 12 13  1  0
 13 14  1  1
 14 15  1  0
 15 16  2  0
 16 17  1  0
 18 17  1  0
 19 15  1  0
 19 18  2  0
 20 13  1  0
 20 22  1  0
 21 20  2  0
M  END
$$$$
