PGH.pdb
     RDKit          3D

 22 23  0  0  1  0  0  0  0  0999 V2000
    7.3873  -16.3012   21.2781 N   0  0  0  0  0  0  0  0  0  0  0  0
    6.2837  -15.4927   20.8607 C   0  0  0  0  0  0  0  0  0  0  0  0
    6.6416  -14.8846   19.5212 C   0  0  0  0  0  0  0  0  0  0  0  0
    8.1536  -14.8370   19.5880 C   0  0  0  0  0  0  0  0  0  0  0  0
    8.4484  -16.1414   20.3356 C   0  0  1  0  0  0  0  0  0  0  0  0
    9.7888  -16.0993   20.9771 C   0  0  0  0  0  0  0  0  0  0  0  0
   10.8006  -16.2974   20.2860 O   0  0  0  0  0  0  0  0  0  0  0  0
    9.8676  -15.8316   22.3707 N   0  0  0  0  0  0  0  0  0  0  0  0
   11.1404  -15.7800   23.0323 C   0  0  0  0  0  0  0  0  0  0  0  0
   11.0279  -16.2317   24.4435 C   0  0  0  0  0  0  0  0  0  0  0  0
   12.0414  -16.1515   25.1864 O   0  0  0  0  0  0  0  0  0  0  0  0
    9.8314  -16.7479   24.9886 N   0  0  0  0  0  0  0  0  0  0  0  0
    9.6313  -16.8063   26.4704 C   0  0  1  0  0  0  0  0  0  0  0  0
    8.2251  -16.4400   26.7425 C   0  0  0  0  0  0  0  0  0  0  0  0
    7.8246  -15.0564   26.4848 C   0  0  0  0  0  0  0  0  0  0  0  0
    8.5342  -13.9328   26.1695 C   0  0  0  0  0  0  0  0  0  0  0  0
    7.7054  -12.8700   25.9637 N   0  0  0  0  0  0  0  0  0  0  0  0
    6.4807  -13.3552   26.1552 C   0  0  0  0  0  0  0  0  0  0  0  0
    6.5187  -14.6534   26.4663 N   0  0  0  0  0  0  0  0  0  0  0  0
    9.9597  -18.2147   26.8094 C   0  0  0  0  0  0  0  0  0  0  0  0
   10.1938  -19.0484   25.8842 O   0  0  0  0  0  0  0  0  0  0  0  0
   10.0293  -18.6956   28.0890 O   0  0  0  0  0  0  0  0  0  0  0  0
  1  2  1  0
  1  5  1  0
  2  3  1  0
  3  4  1  0
  5  4  1  0
  5  6  1  1
  6  7  2  0
  8  9  1  0
  8  6  1  0
  9 10  1  0
 10 12  1  0
 10 11  2  0
 12 13  1  0
 13 14  1  6
 14 15  1  0
 15 16  2  0
 16 17  1  0
 18 17  1  0
 19 15  1  0
 19 18  2  0
 20 13  1  0
 20 22  1  0
 21 20  2  0
M  END
$$$$
