PGH.pdb
     RDKit          3D

 22 23  0  0  1  0  0  0  0  0999 V2000
    7.2656  -14.8717   20.6700 N   0  0  0  0  0  0  0  0  0  0  0  0
    6.5314  -13.7240   20.2345 C   0  0  0  0  0  0  0  0  0  0  0  0
    7.2301  -13.1699   19.0110 C   0  0  0  0  0  0  0  0  0  0  0  0
    8.6600  -13.6157   19.2328 C   0  0  0  0  0  0  0  0  0  0  0  0
    8.4358  -14.9952   19.8606 C   0  0  1  0  0  0  0  0  0  0  0  0
    9.6286  -15.4317   20.6332 C   0  0  0  0  0  0  0  0  0  0  0  0
   10.6529  -15.7807   20.0253 O   0  0  0  0  0  0  0  0  0  0  0  0
    9.5555  -15.4350   22.0525 N   0  0  0  0  0  0  0  0  0  0  0  0
   10.7529  -15.4413   22.8442 C   0  0  0  0  0  0  0  0  0  0  0  0
   10.4649  -15.8418   24.2459 C   0  0  0  0  0  0  0  0  0  0  0  0
   11.4173  -15.8920   25.0680 O   0  0  0  0  0  0  0  0  0  0  0  0
    9.1668  -16.1692   24.6967 N   0  0  0  0  0  0  0  0  0  0  0  0
    8.8709  -16.2712   26.1600 C   0  0  1  0  0  0  0  0  0  0  0  0
    7.5000  -15.7599   26.3716 C   0  0  0  0  0  0  0  0  0  0  0  0
    7.2815  -14.3223   26.2074 C   0  0  0  0  0  0  0  0  0  0  0  0
    8.1358  -13.2740   26.0166 C   0  0  0  0  0  0  0  0  0  0  0  0
    7.4518  -12.1053   25.8584 N   0  0  0  0  0  0  0  0  0  0  0  0
    6.1694  -12.4496   25.9532 C   0  0  0  0  0  0  0  0  0  0  0  0
    6.0357  -13.7620   26.1606 N   0  0  0  0  0  0  0  0  0  0  0  0
    9.0194  -17.7217   26.4435 C   0  0  0  0  0  0  0  0  0  0  0  0
    9.1809  -18.5382   25.4879 O   0  0  0  0  0  0  0  0  0  0  0  0
    8.9928  -18.2603   27.7015 O   0  0  0  0  0  0  0  0  0  0  0  0
  1  2  1  0
  1  5  1  0
  2  3  1  0
  3  4  1  0
  5  4  1  0
  5  6  1  1
  6  7  2  0
  8  9  1  0
  8  6  1  0
  9 10  1  0
 10 12  1  0
 10 11  2  0
 12 13  1  0
 13 14  1  6
 14 15  1  0
 15 16  2  0
 16 17  1  0
 18 17  1  0
 19 15  1  0
 19 18  2  0
 20 13  1  0
 20 22  1  0
 21 20  2  0
M  END
$$$$
