PGH.pdb
     RDKit          3D

 22 23  0  0  1  0  0  0  0  0999 V2000
    8.3675  -14.6657   18.9420 N   0  0  0  0  0  0  0  0  0  0  0  0
    7.9178  -13.7450   17.9440 C   0  0  0  0  0  0  0  0  0  0  0  0
    7.6878  -12.4107   18.6216 C   0  0  0  0  0  0  0  0  0  0  0  0
    7.3701  -12.8267   20.0423 C   0  0  0  0  0  0  0  0  0  0  0  0
    8.3221  -14.0150   20.2125 C   0  0  1  0  0  0  0  0  0  0  0  0
    7.8661  -14.9138   21.3054 C   0  0  0  0  0  0  0  0  0  0  0  0
    7.3093  -15.9855   21.0192 O   0  0  0  0  0  0  0  0  0  0  0  0
    8.0846  -14.5128   22.6512 N   0  0  0  0  0  0  0  0  0  0  0  0
    7.7170  -15.3757   23.7379 C   0  0  0  0  0  0  0  0  0  0  0  0
    8.7658  -16.3985   23.9866 C   0  0  0  0  0  0  0  0  0  0  0  0
    8.5779  -17.2481   24.8967 O   0  0  0  0  0  0  0  0  0  0  0  0
    9.9666  -16.4591   23.2450 N   0  0  0  0  0  0  0  0  0  0  0  0
   10.9327  -17.5837   23.4485 C   0  0  1  0  0  0  0  0  0  0  0  0
   11.1553  -18.2202   22.1328 C   0  0  0  0  0  0  0  0  0  0  0  0
   10.0027  -18.8387   21.4770 C   0  0  0  0  0  0  0  0  0  0  0  0
    9.2462  -19.9349   21.7794 C   0  0  0  0  0  0  0  0  0  0  0  0
    8.2249  -20.0878   20.8892 N   0  0  0  0  0  0  0  0  0  0  0  0
    8.3635  -19.0727   20.0393 C   0  0  0  0  0  0  0  0  0  0  0  0
    9.4121  -18.3116   20.3628 N   0  0  0  0  0  0  0  0  0  0  0  0
   12.1367  -16.9109   23.9997 C   0  0  0  0  0  0  0  0  0  0  0  0
   12.9846  -17.5789   24.6636 O   0  0  0  0  0  0  0  0  0  0  0  0
   12.4073  -15.5787   23.8398 O   0  0  0  0  0  0  0  0  0  0  0  0
  1  2  1  0
  1  5  1  0
  2  3  1  0
  3  4  1  0
  5  4  1  0
  5  6  1  1
  6  7  2  0
  8  9  1  0
  8  6  1  0
  9 10  1  0
 10 12  1  0
 10 11  2  0
 12 13  1  0
 13 14  1  6
 14 15  1  0
 15 16  2  0
 16 17  1  0
 18 17  1  0
 19 15  1  0
 19 18  2  0
 20 13  1  0
 20 22  1  0
 21 20  2  0
M  END
$$$$
