PGH.pdb
     RDKit          3D

 22 23  0  0  1  0  0  0  0  0999 V2000
    6.7692  -17.7610   21.8445 N   0  0  0  0  0  0  0  0  0  0  0  0
    5.3449  -17.6469   21.7795 C   0  0  0  0  0  0  0  0  0  0  0  0
    5.0023  -16.9005   20.5076 C   0  0  0  0  0  0  0  0  0  0  0  0
    6.2436  -16.0619   20.2874 C   0  0  0  0  0  0  0  0  0  0  0  0
    7.3325  -17.0349   20.7513 C   0  0  1  0  0  0  0  0  0  0  0  0
    8.5766  -16.3094   21.1202 C   0  0  0  0  0  0  0  0  0  0  0  0
    9.2950  -15.8390   20.2240 O   0  0  0  0  0  0  0  0  0  0  0  0
    8.9041  -16.1777   22.4968 N   0  0  0  0  0  0  0  0  0  0  0  0
   10.0726  -15.4489   22.9018 C   0  0  0  0  0  0  0  0  0  0  0  0
   10.1966  -15.4174   24.3822 C   0  0  0  0  0  0  0  0  0  0  0  0
   11.1624  -14.7930   24.8947 O   0  0  0  0  0  0  0  0  0  0  0  0
    9.2763  -16.0587   25.2409 N   0  0  0  0  0  0  0  0  0  0  0  0
    9.3769  -15.8957   26.7250 C   0  0  1  0  0  0  0  0  0  0  0  0
    8.0332  -15.5320   27.2229 C   0  0  0  0  0  0  0  0  0  0  0  0
    7.4485  -14.2809   26.7392 C   0  0  0  0  0  0  0  0  0  0  0  0
    7.5110  -12.9950   27.1952 C   0  0  0  0  0  0  0  0  0  0  0  0
    6.8392  -12.1465   26.3660 N   0  0  0  0  0  0  0  0  0  0  0  0
    6.3657  -12.9266   25.3968 C   0  0  0  0  0  0  0  0  0  0  0  0
    6.7117  -14.2018   25.5907 N   0  0  0  0  0  0  0  0  0  0  0  0
    9.8476  -17.2259   27.1888 C   0  0  0  0  0  0  0  0  0  0  0  0
    9.9214  -17.4718   28.4298 O   0  0  0  0  0  0  0  0  0  0  0  0
   10.2213  -18.2392   26.3481 O   0  0  0  0  0  0  0  0  0  0  0  0
  1  2  1  0
  1  5  1  0
  2  3  1  0
  3  4  1  0
  5  4  1  0
  5  6  1  1
  6  7  2  0
  8  9  1  0
  8  6  1  0
  9 10  1  0
 10 12  1  0
 10 11  2  0
 12 13  1  0
 13 14  1  1
 14 15  1  0
 15 16  2  0
 16 17  1  0
 18 17  1  0
 19 15  1  0
 19 18  2  0
 20 13  1  0
 20 22  1  0
 21 20  2  0
M  END
$$$$
