PGH.pdb
     RDKit          3D

 22 23  0  0  1  0  0  0  0  0999 V2000
    7.6871  -15.3354   20.2700 N   0  0  0  0  0  0  0  0  0  0  0  0
    7.2509  -14.6185   19.1117 C   0  0  0  0  0  0  0  0  0  0  0  0
    7.7208  -13.1865   19.2550 C   0  0  0  0  0  0  0  0  0  0  0  0
    7.7938  -13.0251   20.7587 C   0  0  0  0  0  0  0  0  0  0  0  0
    8.2987  -14.4116   21.1713 C   0  0  1  0  0  0  0  0  0  0  0  0
    7.9784  -14.6960   22.5948 C   0  0  0  0  0  0  0  0  0  0  0  0
    8.5160  -14.0200   23.4862 O   0  0  0  0  0  0  0  0  0  0  0  0
    7.0604  -15.7401   22.8897 N   0  0  0  0  0  0  0  0  0  0  0  0
    6.7473  -16.0729   24.2505 C   0  0  0  0  0  0  0  0  0  0  0  0
    7.7263  -17.0454   24.8018 C   0  0  0  0  0  0  0  0  0  0  0  0
    7.4352  -18.2704   24.7868 O   0  0  0  0  0  0  0  0  0  0  0  0
    8.9712  -16.6546   25.3428 N   0  0  0  0  0  0  0  0  0  0  0  0
    9.9886  -17.6800   25.7337 C   0  0  1  0  0  0  0  0  0  0  0  0
   11.3213  -17.1281   25.4096 C   0  0  0  0  0  0  0  0  0  0  0  0
   11.6511  -16.9428   23.9961 C   0  0  0  0  0  0  0  0  0  0  0  0
   10.9816  -17.2431   22.8442 C   0  0  0  0  0  0  0  0  0  0  0  0
   11.6755  -16.8225   21.7487 N   0  0  0  0  0  0  0  0  0  0  0  0
   12.7766  -16.2603   22.2422 C   0  0  0  0  0  0  0  0  0  0  0  0
   12.7910  -16.3160   23.5765 N   0  0  0  0  0  0  0  0  0  0  0  0
    9.7542  -17.8638   27.1889 C   0  0  0  0  0  0  0  0  0  0  0  0
    8.9639  -17.0872   27.8039 O   0  0  0  0  0  0  0  0  0  0  0  0
   10.3487  -18.8411   27.9404 O   0  0  0  0  0  0  0  0  0  0  0  0
  1  2  1  0
  1  5  1  0
  2  3  1  0
  3  4  1  0
  5  4  1  0
  5  6  1  1
  6  7  2  0
  8  9  1  0
  8  6  1  0
  9 10  1  0
 10 12  1  0
 10 11  2  0
 12 13  1  0
 13 14  1  1
 14 15  1  0
 15 16  2  0
 16 17  1  0
 18 17  1  0
 19 15  1  0
 19 18  2  0
 20 13  1  0
 20 22  1  0
 21 20  2  0
M  END
$$$$
