PGH.pdb
     RDKit          3D

 22 23  0  0  1  0  0  0  0  0999 V2000
    7.4454  -15.2474   20.3605 N   0  0  0  0  0  0  0  0  0  0  0  0
    6.3266  -14.3568   20.3284 C   0  0  0  0  0  0  0  0  0  0  0  0
    6.8472  -12.9792   19.9772 C   0  0  0  0  0  0  0  0  0  0  0  0
    8.2693  -13.0359   20.4941 C   0  0  0  0  0  0  0  0  0  0  0  0
    8.6371  -14.4857   20.1621 C   0  0  1  0  0  0  0  0  0  0  0  0
    9.7696  -14.9563   21.0024 C   0  0  0  0  0  0  0  0  0  0  0  0
   10.8575  -14.3615   20.9456 O   0  0  0  0  0  0  0  0  0  0  0  0
    9.5672  -16.0798   21.8489 N   0  0  0  0  0  0  0  0  0  0  0  0
   10.6299  -16.5649   22.6830 C   0  0  0  0  0  0  0  0  0  0  0  0
   10.2769  -16.4463   24.1216 C   0  0  0  0  0  0  0  0  0  0  0  0
   11.2033  -16.2938   24.9606 O   0  0  0  0  0  0  0  0  0  0  0  0
    8.9450  -16.4972   24.5893 N   0  0  0  0  0  0  0  0  0  0  0  0
    8.6529  -16.5362   26.0565 C   0  0  1  0  0  0  0  0  0  0  0  0
    7.2966  -15.9818   26.2532 C   0  0  0  0  0  0  0  0  0  0  0  0
    7.1236  -14.5394   26.0775 C   0  0  0  0  0  0  0  0  0  0  0  0
    8.0090  -13.5224   25.8606 C   0  0  0  0  0  0  0  0  0  0  0  0
    7.3618  -12.3330   25.7019 N   0  0  0  0  0  0  0  0  0  0  0  0
    6.0705  -12.6329   25.8227 C   0  0  0  0  0  0  0  0  0  0  0  0
    5.8966  -13.9379   26.0464 N   0  0  0  0  0  0  0  0  0  0  0  0
    8.7652  -17.9783   26.3941 C   0  0  0  0  0  0  0  0  0  0  0  0
    8.7391  -18.8465   25.4713 O   0  0  0  0  0  0  0  0  0  0  0  0
    8.8978  -18.4555   27.6701 O   0  0  0  0  0  0  0  0  0  0  0  0
  1  2  1  0
  1  5  1  0
  2  3  1  0
  3  4  1  0
  5  4  1  0
  5  6  1  1
  6  7  2  0
  8  9  1  0
  8  6  1  0
  9 10  1  0
 10 12  1  0
 10 11  2  0
 12 13  1  0
 13 14  1  6
 14 15  1  0
 15 16  2  0
 16 17  1  0
 18 17  1  0
 19 15  1  0
 19 18  2  0
 20 13  1  0
 20 22  1  0
 21 20  2  0
M  END
$$$$
