CNM.pdb
     RDKit          3D

 23 22  0  0  1  0  0  0  0  0999 V2000
   14.4744  -13.3399  -11.7566 N   0  0  0  0  0  0  0  0  0  0  0  0
   14.1961  -12.0106  -12.2568 C   0  0  1  0  0  0  0  0  0  0  0  0
   12.8259  -11.6273  -11.7039 C   0  0  0  0  0  0  0  0  0  0  0  0
   11.4981  -12.5641  -12.4934 S   0  0  0  0  0  0  0  0  0  0  0  0
   15.1708  -11.0089  -11.7275 C   0  0  0  0  0  0  0  0  0  0  0  0
   15.5446  -11.0842  -10.5335 O   0  0  0  0  0  0  0  0  0  0  0  0
   18.5563   -9.4741  -14.9813 N   0  0  0  0  0  0  0  0  0  0  0  0
   18.4234   -9.2978  -13.5613 C   0  0  0  0  0  0  0  0  0  0  0  0
   19.1915   -9.9670  -12.8381 O   0  0  0  0  0  0  0  0  0  0  0  0
   17.3972   -8.3482  -13.1067 C   0  0  0  0  0  0  0  0  0  0  0  0
   16.6144   -8.9720  -11.9791 C   0  0  2  0  0  0  0  0  0  0  0  0
   15.7006   -9.9546  -12.5386 N   0  0  0  0  0  0  0  0  0  0  0  0
   15.7999   -7.9402  -11.2625 C   0  0  0  0  0  0  0  0  0  0  0  0
   14.6990   -7.5456  -11.7095 O   0  0  0  0  0  0  0  0  0  0  0  0
   12.9083   -4.3600   -5.1242 C   0  0  0  0  0  0  0  0  0  0  0  0
   13.4042   -5.7849   -6.1568 S   0  0  0  0  0  0  0  0  0  0  0  0
   14.9076   -5.5627   -7.0097 C   0  0  0  0  0  0  0  0  0  0  0  0
   15.5529   -6.5108   -7.8990 C   0  0  0  0  0  0  0  0  0  0  0  0
   15.3534   -6.4475   -9.3449 C   0  0  2  0  0  0  0  0  0  0  0  0
   16.2569   -7.3850  -10.0585 N   0  0  0  0  0  0  0  0  0  0  0  0
   16.0059   -5.1483   -9.8040 C   0  0  0  0  0  0  0  0  0  0  0  0
   17.1572   -5.2008  -10.3076 O   0  0  0  0  0  0  0  0  0  0  0  0
   15.4264   -3.9415   -9.7020 O   0  0  0  0  0  0  0  0  0  0  0  0
  2  5  1  0
  2  1  1  1
  2  3  1  0
  4  3  1  0
  5  6  2  0
  7  8  1  0
  8  9  2  0
  8 10  1  0
 11 10  1  6
 11 13  1  0
 12 11  1  0
 12  5  1  0
 13 20  1  0
 13 14  2  0
 15 16  1  0
 17 16  1  0
 18 17  1  0
 19 18  1  1
 20 19  1  0
 21 19  1  0
 21 23  1  0
 22 21  2  0
M  END
$$$$
