CNM.pdb
     RDKit          3D

 23 22  0  0  1  0  0  0  0  0999 V2000
   17.8782  -13.8252  -18.3151 N   0  0  0  0  0  0  0  0  0  0  0  0
   17.9620  -13.1163  -17.0561 C   0  0  1  0  0  0  0  0  0  0  0  0
   18.8177  -13.9837  -16.1368 C   0  0  0  0  0  0  0  0  0  0  0  0
   17.8056  -15.0558  -15.0927 S   0  0  0  0  0  0  0  0  0  0  0  0
   18.6756  -11.8117  -17.2063 C   0  0  0  0  0  0  0  0  0  0  0  0
   19.7987  -11.7841  -17.7621 O   0  0  0  0  0  0  0  0  0  0  0  0
   17.1147   -6.9497  -14.8782 N   0  0  0  0  0  0  0  0  0  0  0  0
   17.1862   -8.2162  -15.5536 C   0  0  0  0  0  0  0  0  0  0  0  0
   16.7651   -9.2114  -14.9266 O   0  0  0  0  0  0  0  0  0  0  0  0
   17.7475   -8.2096  -16.9124 C   0  0  0  0  0  0  0  0  0  0  0  0
   18.7711   -9.3107  -17.0274 C   0  0  2  0  0  0  0  0  0  0  0  0
   18.1218  -10.5782  -16.7352 N   0  0  0  0  0  0  0  0  0  0  0  0
   19.8740   -9.1175  -16.0334 C   0  0  0  0  0  0  0  0  0  0  0  0
   20.0416   -9.9072  -15.0765 O   0  0  0  0  0  0  0  0  0  0  0  0
   26.7183  -10.5803  -14.6215 C   0  0  0  0  0  0  0  0  0  0  0  0
   25.7176   -9.8294  -15.9547 S   0  0  0  0  0  0  0  0  0  0  0  0
   24.3765   -8.8703  -15.3902 C   0  0  0  0  0  0  0  0  0  0  0  0
   23.0110   -8.9088  -15.8800 C   0  0  0  0  0  0  0  0  0  0  0  0
   21.9792   -8.0447  -15.3113 C   0  0  2  0  0  0  0  0  0  0  0  0
   20.7563   -8.0341  -16.1531 N   0  0  0  0  0  0  0  0  0  0  0  0
   22.4280   -6.6142  -15.5878 C   0  0  0  0  0  0  0  0  0  0  0  0
   22.0964   -6.0818  -16.6780 O   0  0  0  0  0  0  0  0  0  0  0  0
   23.1627   -5.8811  -14.7361 O   0  0  0  0  0  0  0  0  0  0  0  0
  2  5  1  0
  2  1  1  6
  2  3  1  0
  4  3  1  0
  5  6  2  0
  7  8  1  0
  8  9  2  0
  8 10  1  0
 11 10  1  1
 11 13  1  0
 12 11  1  0
 12  5  1  0
 13 20  1  0
 13 14  2  0
 15 16  1  0
 17 16  1  0
 18 17  1  0
 19 18  1  6
 20 19  1  0
 21 19  1  0
 21 23  1  0
 22 21  2  0
M  END
$$$$
