CNM.pdb
     RDKit          3D

 23 22  0  0  1  0  0  0  0  0999 V2000
   18.6051  -13.0259  -15.7731 N   0  0  0  0  0  0  0  0  0  0  0  0
   18.3238  -11.8444  -16.5602 C   0  0  1  0  0  0  0  0  0  0  0  0
   16.8190  -11.8527  -16.8153 C   0  0  0  0  0  0  0  0  0  0  0  0
   16.3134  -13.2811  -17.7993 S   0  0  0  0  0  0  0  0  0  0  0  0
   18.6260  -10.5931  -15.8007 C   0  0  0  0  0  0  0  0  0  0  0  0
   18.0549  -10.3846  -14.7046 O   0  0  0  0  0  0  0  0  0  0  0  0
   20.3477   -6.1610  -14.2803 N   0  0  0  0  0  0  0  0  0  0  0  0
   21.4724   -6.7437  -14.9592 C   0  0  0  0  0  0  0  0  0  0  0  0
   22.5735   -6.1715  -14.8145 O   0  0  0  0  0  0  0  0  0  0  0  0
   21.2106   -7.9526  -15.7538 C   0  0  0  0  0  0  0  0  0  0  0  0
   19.7802   -8.3802  -15.5426 C   0  0  2  0  0  0  0  0  0  0  0  0
   19.5519   -9.6119  -16.2803 N   0  0  0  0  0  0  0  0  0  0  0  0
   18.8331   -7.3461  -16.0670 C   0  0  0  0  0  0  0  0  0  0  0  0
   18.5673   -7.2572  -17.2872 O   0  0  0  0  0  0  0  0  0  0  0  0
   12.7126   -6.1901  -14.2693 C   0  0  0  0  0  0  0  0  0  0  0  0
   13.2785   -4.5662  -14.8898 S   0  0  0  0  0  0  0  0  0  0  0  0
   14.9301   -4.5478  -15.4455 C   0  0  0  0  0  0  0  0  0  0  0  0
   15.9527   -5.5403  -15.1706 C   0  0  0  0  0  0  0  0  0  0  0  0
   17.2786   -5.4476  -15.7773 C   0  0  2  0  0  0  0  0  0  0  0  0
   18.2132   -6.4418  -15.1924 N   0  0  0  0  0  0  0  0  0  0  0  0
   17.9229   -4.1955  -15.1931 C   0  0  0  0  0  0  0  0  0  0  0  0
   18.6352   -4.3125  -14.1631 O   0  0  0  0  0  0  0  0  0  0  0  0
   17.7755   -2.9654  -15.7105 O   0  0  0  0  0  0  0  0  0  0  0  0
  2  5  1  0
  2  1  1  1
  2  3  1  0
  4  3  1  0
  5  6  2  0
  7  8  1  0
  8  9  2  0
  8 10  1  0
 11 10  1  6
 11 13  1  0
 12 11  1  0
 12  5  1  0
 13 20  1  0
 13 14  2  0
 15 16  1  0
 17 16  1  0
 18 17  1  0
 19 18  1  1
 20 19  1  0
 21 19  1  0
 21 23  1  0
 22 21  2  0
M  END
$$$$
