CNM.pdb
     RDKit          3D

 23 22  0  0  1  0  0  0  0  0999 V2000
   27.4732  -21.0512  -10.6117 N   0  0  0  0  0  0  0  0  0  0  0  0
   26.0723  -21.2691  -10.9026 C   0  0  1  0  0  0  0  0  0  0  0  0
   25.2952  -20.6074   -9.7677 C   0  0  0  0  0  0  0  0  0  0  0  0
   25.6512  -21.3778   -8.1728 S   0  0  0  0  0  0  0  0  0  0  0  0
   25.6599  -20.5838  -12.1651 C   0  0  0  0  0  0  0  0  0  0  0  0
   26.0543  -19.4153  -12.3890 O   0  0  0  0  0  0  0  0  0  0  0  0
   26.8012  -22.9588  -15.6018 N   0  0  0  0  0  0  0  0  0  0  0  0
   26.1850  -21.6780  -15.8148 C   0  0  0  0  0  0  0  0  0  0  0  0
   26.9239  -20.7625  -16.2350 O   0  0  0  0  0  0  0  0  0  0  0  0
   24.7490  -21.5779  -15.5160 C   0  0  0  0  0  0  0  0  0  0  0  0
   24.5450  -20.5703  -14.4129 C   0  0  2  0  0  0  0  0  0  0  0  0
   24.8228  -21.2153  -13.1400 N   0  0  0  0  0  0  0  0  0  0  0  0
   23.1271  -20.0901  -14.3869 C   0  0  0  0  0  0  0  0  0  0  0  0
   22.2117  -20.7726  -13.8735 O   0  0  0  0  0  0  0  0  0  0  0  0
   17.8131  -17.0860  -12.7348 C   0  0  0  0  0  0  0  0  0  0  0  0
   19.1595  -15.8917  -13.0567 S   0  0  0  0  0  0  0  0  0  0  0  0
   20.0766  -16.2189  -14.5020 C   0  0  0  0  0  0  0  0  0  0  0  0
   21.3433  -16.9218  -14.5893 C   0  0  0  0  0  0  0  0  0  0  0  0
   21.3929  -18.3714  -14.7649 C   0  0  2  0  0  0  0  0  0  0  0  0
   22.7873  -18.8486  -14.9437 N   0  0  0  0  0  0  0  0  0  0  0  0
   20.9030  -18.6411  -16.1832 C   0  0  0  0  0  0  0  0  0  0  0  0
   21.7519  -18.7032  -17.1092 O   0  0  0  0  0  0  0  0  0  0  0  0
   19.6126  -18.8157  -16.5102 O   0  0  0  0  0  0  0  0  0  0  0  0
  2  5  1  0
  2  1  1  1
  2  3  1  0
  4  3  1  0
  5  6  2  0
  7  8  1  0
  8  9  2  0
  8 10  1  0
 11 10  1  6
 11 13  1  0
 12 11  1  0
 12  5  1  0
 13 20  1  0
 13 14  2  0
 15 16  1  0
 17 16  1  0
 18 17  1  0
 19 18  1  6
 20 19  1  0
 21 19  1  0
 21 23  1  0
 22 21  2  0
M  END
$$$$
