CNM.pdb
     RDKit          3D

 23 22  0  0  1  0  0  0  0  0999 V2000
   21.2805  -14.4055  -20.3687 N   0  0  0  0  0  0  0  0  0  0  0  0
   20.7374  -13.8942  -19.1285 C   0  0  1  0  0  0  0  0  0  0  0  0
   21.5016  -14.5962  -18.0091 C   0  0  0  0  0  0  0  0  0  0  0  0
   20.9147  -16.2856  -17.7534 S   0  0  0  0  0  0  0  0  0  0  0  0
   20.9977  -12.4302  -18.9766 C   0  0  0  0  0  0  0  0  0  0  0  0
   22.1623  -11.9925  -19.1284 O   0  0  0  0  0  0  0  0  0  0  0  0
   16.8871   -9.5969  -19.8459 N   0  0  0  0  0  0  0  0  0  0  0  0
   18.3102   -9.3990  -19.8184 C   0  0  0  0  0  0  0  0  0  0  0  0
   18.8858   -9.3073  -20.9234 O   0  0  0  0  0  0  0  0  0  0  0  0
   18.9414   -9.3249  -18.4926 C   0  0  0  0  0  0  0  0  0  0  0  0
   20.2468  -10.0788  -18.5263 C   0  0  2  0  0  0  0  0  0  0  0  0
   19.9584  -11.4973  -18.6610 N   0  0  0  0  0  0  0  0  0  0  0  0
   21.0077   -9.8818  -17.2520 C   0  0  0  0  0  0  0  0  0  0  0  0
   20.7307  -10.5265  -16.2152 O   0  0  0  0  0  0  0  0  0  0  0  0
   27.0384  -11.3280  -16.4515 C   0  0  0  0  0  0  0  0  0  0  0  0
   26.7795  -10.1199  -15.1040 S   0  0  0  0  0  0  0  0  0  0  0  0
   25.1948   -9.3950  -15.0866 C   0  0  0  0  0  0  0  0  0  0  0  0
   24.1740   -9.5081  -16.1120 C   0  0  0  0  0  0  0  0  0  0  0  0
   22.8558   -8.9031  -15.9362 C   0  0  2  0  0  0  0  0  0  0  0  0
   22.0620   -8.9592  -17.1896 N   0  0  0  0  0  0  0  0  0  0  0  0
   23.0841   -7.3960  -15.9081 C   0  0  0  0  0  0  0  0  0  0  0  0
   22.9928   -6.7555  -16.9868 O   0  0  0  0  0  0  0  0  0  0  0  0
   23.3811   -6.7033  -14.7970 O   0  0  0  0  0  0  0  0  0  0  0  0
  2  5  1  0
  2  1  1  6
  2  3  1  0
  4  3  1  0
  5  6  2  0
  7  8  1  0
  8  9  2  0
  8 10  1  0
 11 10  1  1
 11 13  1  0
 12 11  1  0
 12  5  1  0
 13 20  1  0
 13 14  2  0
 15 16  1  0
 17 16  1  0
 18 17  1  0
 19 18  1  6
 20 19  1  0
 21 19  1  0
 21 23  1  0
 22 21  2  0
M  END
$$$$
