CNM.pdb
     RDKit          3D

 23 22  0  0  1  0  0  0  0  0999 V2000
   27.3572  -14.5164  -17.6980 N   0  0  0  0  0  0  0  0  0  0  0  0
   27.4552  -13.1299  -17.2949 C   0  0  1  0  0  0  0  0  0  0  0  0
   27.4205  -13.1280  -15.7689 C   0  0  0  0  0  0  0  0  0  0  0  0
   25.8140  -13.6568  -15.1339 S   0  0  0  0  0  0  0  0  0  0  0  0
   28.7642  -12.5315  -17.6977 C   0  0  0  0  0  0  0  0  0  0  0  0
   29.7782  -13.2641  -17.7769 O   0  0  0  0  0  0  0  0  0  0  0  0
   32.1181  -10.5648  -21.0397 N   0  0  0  0  0  0  0  0  0  0  0  0
   31.1590   -9.6320  -20.5149 C   0  0  0  0  0  0  0  0  0  0  0  0
   31.4654   -8.4220  -20.5682 O   0  0  0  0  0  0  0  0  0  0  0  0
   29.9167  -10.1984  -19.9696 C   0  0  0  0  0  0  0  0  0  0  0  0
   30.1534  -10.6199  -18.5413 C   0  0  2  0  0  0  0  0  0  0  0  0
   28.9082  -11.1394  -18.0000 N   0  0  0  0  0  0  0  0  0  0  0  0
   30.5683   -9.4505  -17.7035 C   0  0  0  0  0  0  0  0  0  0  0  0
   29.7262   -8.7011  -17.1586 O   0  0  0  0  0  0  0  0  0  0  0  0
   36.1459   -7.7368  -13.0313 C   0  0  0  0  0  0  0  0  0  0  0  0
   35.8874   -7.0543  -14.7076 S   0  0  0  0  0  0  0  0  0  0  0  0
   34.2392   -7.1363  -15.2679 C   0  0  0  0  0  0  0  0  0  0  0  0
   33.6795   -8.1091  -16.1880 C   0  0  0  0  0  0  0  0  0  0  0  0
   32.2710   -8.0619  -16.5734 C   0  0  2  0  0  0  0  0  0  0  0  0
   31.9269   -9.1640  -17.5068 N   0  0  0  0  0  0  0  0  0  0  0  0
   32.1434   -6.9101  -17.5640 C   0  0  0  0  0  0  0  0  0  0  0  0
   32.4294   -7.1222  -18.7703 O   0  0  0  0  0  0  0  0  0  0  0  0
   31.7443   -5.6730  -17.2281 O   0  0  0  0  0  0  0  0  0  0  0  0
  2  5  1  0
  2  1  1  1
  2  3  1  0
  4  3  1  0
  5  6  2  0
  7  8  1  0
  8  9  2  0
  8 10  1  0
 11 10  1  6
 11 13  1  0
 12 11  1  0
 12  5  1  0
 13 20  1  0
 13 14  2  0
 15 16  1  0
 17 16  1  0
 18 17  1  0
 19 18  1  6
 20 19  1  0
 21 19  1  0
 21 23  1  0
 22 21  2  0
M  END
$$$$
