CNM.pdb
     RDKit          3D

 23 22  0  0  1  0  0  0  0  0999 V2000
   24.8631  -14.6914  -17.7207 N   0  0  0  0  0  0  0  0  0  0  0  0
   24.8443  -13.5208  -18.5716 C   0  0  1  0  0  0  0  0  0  0  0  0
   23.4433  -13.4564  -19.1740 C   0  0  0  0  0  0  0  0  0  0  0  0
   23.2656  -14.5770  -20.5799 S   0  0  0  0  0  0  0  0  0  0  0  0
   25.0334  -12.2651  -17.7833 C   0  0  0  0  0  0  0  0  0  0  0  0
   24.3911  -12.1030  -16.7193 O   0  0  0  0  0  0  0  0  0  0  0  0
   27.9092  -11.4173  -16.1785 N   0  0  0  0  0  0  0  0  0  0  0  0
   28.4376  -10.2970  -16.9073 C   0  0  0  0  0  0  0  0  0  0  0  0
   29.6740  -10.1259  -16.8549 O   0  0  0  0  0  0  0  0  0  0  0  0
   27.4684   -9.4683  -17.6389 C   0  0  0  0  0  0  0  0  0  0  0  0
   26.0820  -10.0161  -17.4117 C   0  0  2  0  0  0  0  0  0  0  0  0
   25.9288  -11.2282  -18.1996 N   0  0  0  0  0  0  0  0  0  0  0  0
   25.0429   -9.0376  -17.8638 C   0  0  0  0  0  0  0  0  0  0  0  0
   24.9017   -8.7406  -19.0718 O   0  0  0  0  0  0  0  0  0  0  0  0
   17.7164   -6.5606  -17.8146 C   0  0  0  0  0  0  0  0  0  0  0  0
   18.9548   -7.7698  -17.2258 S   0  0  0  0  0  0  0  0  0  0  0  0
   20.6087   -7.2787  -17.4718 C   0  0  0  0  0  0  0  0  0  0  0  0
   21.8000   -8.0567  -17.1858 C   0  0  0  0  0  0  0  0  0  0  0  0
   23.1334   -7.5239  -17.4551 C   0  0  2  0  0  0  0  0  0  0  0  0
   24.1926   -8.4237  -16.9328 N   0  0  0  0  0  0  0  0  0  0  0  0
   23.3366   -6.3783  -16.4699 C   0  0  0  0  0  0  0  0  0  0  0  0
   23.8997   -6.6241  -15.3724 O   0  0  0  0  0  0  0  0  0  0  0  0
   22.9476   -5.1140  -16.6995 O   0  0  0  0  0  0  0  0  0  0  0  0
  2  5  1  0
  2  1  1  1
  2  3  1  0
  4  3  1  0
  5  6  2  0
  7  8  1  0
  8  9  2  0
  8 10  1  0
 11 10  1  6
 11 13  1  0
 12 11  1  0
 12  5  1  0
 13 20  1  0
 13 14  2  0
 15 16  1  0
 17 16  1  0
 18 17  1  0
 19 18  1  1
 20 19  1  0
 21 19  1  0
 21 23  1  0
 22 21  2  0
M  END
$$$$
