YHK.pdb
     RDKit          3D

 32 33  0  0  1  0  0  0  0  0999 V2000
    8.7309  -13.6228   16.7559 O   0  0  0  0  0  0  0  0  0  0  0  0
    8.2414  -13.6912   18.0586 C   0  0  0  0  0  0  0  0  0  0  0  0
    8.6588  -12.7371   18.9718 C   0  0  0  0  0  0  0  0  0  0  0  0
    8.1554  -12.8343   20.2511 C   0  0  0  0  0  0  0  0  0  0  0  0
    7.2827  -13.8200   20.6220 C   0  0  0  0  0  0  0  0  0  0  0  0
    6.7255  -13.9524   21.9815 C   0  0  0  0  0  0  0  0  0  0  0  0
    7.8342  -14.0887   23.0331 C   0  0  2  0  0  0  0  0  0  0  0  0
    8.9192  -13.2308   22.5963 N   0  0  0  0  0  0  0  0  0  0  0  0
    8.2972  -15.4969   22.9573 C   0  0  0  0  0  0  0  0  0  0  0  0
    7.5258  -16.4659   23.2375 O   0  0  0  0  0  0  0  0  0  0  0  0
    6.8857  -14.7603   19.6793 C   0  0  0  0  0  0  0  0  0  0  0  0
    7.3698  -14.6954   18.3844 C   0  0  0  0  0  0  0  0  0  0  0  0
    9.6221  -15.8632   22.5702 N   0  0  0  0  0  0  0  0  0  0  0  0
   10.0634  -17.2433   22.5456 C   0  0  1  0  0  0  0  0  0  0  0  0
   10.8639  -17.4561   21.2575 C   0  0  0  0  0  0  0  0  0  0  0  0
    9.9840  -17.7484   20.1167 C   0  0  0  0  0  0  0  0  0  0  0  0
    8.6420  -17.9641   20.0947 C   0  0  0  0  0  0  0  0  0  0  0  0
    8.2451  -18.1972   18.8235 N   0  0  0  0  0  0  0  0  0  0  0  0
    9.3561  -18.1200   18.0843 C   0  0  0  0  0  0  0  0  0  0  0  0
   10.4291  -17.8490   18.8378 N   0  0  0  0  0  0  0  0  0  0  0  0
   10.9811  -17.5413   23.6790 C   0  0  0  0  0  0  0  0  0  0  0  0
   11.6754  -16.5948   24.1284 O   0  0  0  0  0  0  0  0  0  0  0  0
   11.1118  -18.8061   24.2661 N   0  0  0  0  0  0  0  0  0  0  0  0
   11.9631  -19.0453   25.4046 C   0  0  1  0  0  0  0  0  0  0  0  0
   11.3162  -19.8416   26.4838 C   0  0  0  0  0  0  0  0  0  0  0  0
   12.1222  -20.1538   27.6824 C   0  0  0  0  0  0  0  0  0  0  0  0
   11.4849  -21.0448   28.6858 C   0  0  0  0  0  0  0  0  0  0  0  0
   12.4118  -21.2362   29.8707 C   0  0  0  0  0  0  0  0  0  0  0  0
   11.9258  -22.1796   30.8240 N   0  0  0  0  0  0  0  0  0  0  0  0
   13.3069  -19.5000   25.0400 C   0  0  0  0  0  0  0  0  0  0  0  0
   13.5570  -20.1423   23.9905 O   0  0  0  0  0  0  0  0  0  0  0  0
   14.3719  -19.2199   25.8782 O   0  0  0  0  0  0  0  0  0  0  0  0
  2  1  1  0
  3  2  2  0
  4  3  1  0
  5 11  1  0
  5  4  2  0
  6  5  1  0
  7  8  1  6
  7  6  1  0
  9 13  1  0
  9  7  1  0
 10  9  2  0
 11 12  2  0
 12  2  1  0
 14 13  1  0
 14 15  1  6
 15 16  1  0
 16 17  2  0
 17 18  1  0
 19 18  1  0
 20 16  1  0
 20 19  2  0
 21 14  1  0
 22 21  2  0
 23 21  1  0
 24 30  1  0
 24 23  1  0
 24 25  1  1
 26 25  1  0
 27 26  1  0
 27 28  1  0
 29 28  1  0
 30 32  1  0
 31 30  2  0
M  END
$$$$
