YHK.pdb
     RDKit          3D

 32 33  0  0  1  0  0  0  0  0999 V2000
    5.7902  -10.6471   28.3821 O   0  0  0  0  0  0  0  0  0  0  0  0
    6.2777  -11.7382   27.6659 C   0  0  0  0  0  0  0  0  0  0  0  0
    5.7689  -12.9948   27.9497 C   0  0  0  0  0  0  0  0  0  0  0  0
    6.2731  -14.0518   27.2229 C   0  0  0  0  0  0  0  0  0  0  0  0
    7.2320  -13.8884   26.2612 C   0  0  0  0  0  0  0  0  0  0  0  0
    7.7925  -14.9973   25.4660 C   0  0  0  0  0  0  0  0  0  0  0  0
    6.6899  -15.7953   24.7580 C   0  0  2  0  0  0  0  0  0  0  0  0
    6.5234  -17.0216   25.5145 N   0  0  0  0  0  0  0  0  0  0  0  0
    7.2335  -16.1448   23.4218 C   0  0  0  0  0  0  0  0  0  0  0  0
    8.0097  -17.1366   23.2590 O   0  0  0  0  0  0  0  0  0  0  0  0
    7.7193  -12.6130   26.0033 C   0  0  0  0  0  0  0  0  0  0  0  0
    7.2373  -11.5268   26.7128 C   0  0  0  0  0  0  0  0  0  0  0  0
    6.9305  -15.4056   22.2381 N   0  0  0  0  0  0  0  0  0  0  0  0
    7.6510  -15.6093   20.9974 C   0  0  1  0  0  0  0  0  0  0  0  0
    7.2476  -14.4907   20.0325 C   0  0  0  0  0  0  0  0  0  0  0  0
    7.8231  -14.6968   18.6955 C   0  0  0  0  0  0  0  0  0  0  0  0
    8.6526  -15.6797   18.2549 C   0  0  0  0  0  0  0  0  0  0  0  0
    8.9333  -15.4784   16.9479 N   0  0  0  0  0  0  0  0  0  0  0  0
    8.2679  -14.3701   16.6079 C   0  0  0  0  0  0  0  0  0  0  0  0
    7.5841  -13.8706   17.6448 N   0  0  0  0  0  0  0  0  0  0  0  0
    9.1218  -15.4978   21.1977 C   0  0  0  0  0  0  0  0  0  0  0  0
    9.5245  -14.8320   22.1848 O   0  0  0  0  0  0  0  0  0  0  0  0
   10.0716  -16.0884   20.3548 N   0  0  0  0  0  0  0  0  0  0  0  0
   11.2436  -16.7581   20.8609 C   0  0  1  0  0  0  0  0  0  0  0  0
   10.9675  -17.6782   21.9986 C   0  0  0  0  0  0  0  0  0  0  0  0
   12.0918  -18.4860   22.5154 C   0  0  0  0  0  0  0  0  0  0  0  0
   11.7735  -19.4112   23.6331 C   0  0  0  0  0  0  0  0  0  0  0  0
   13.0242  -20.1538   24.0623 C   0  0  0  0  0  0  0  0  0  0  0  0
   12.8034  -21.0588   25.1428 N   0  0  0  0  0  0  0  0  0  0  0  0
   12.0842  -17.3331   19.8082 C   0  0  0  0  0  0  0  0  0  0  0  0
   11.6228  -17.9460   18.8143 O   0  0  0  0  0  0  0  0  0  0  0  0
   13.4601  -17.2078   19.8902 O   0  0  0  0  0  0  0  0  0  0  0  0
  2  1  1  0
  3  2  2  0
  4  3  1  0
  5 11  1  0
  5  4  2  0
  6  5  1  0
  7  8  1  1
  7  6  1  0
  9 13  1  0
  9  7  1  0
 10  9  2  0
 11 12  2  0
 12  2  1  0
 14 13  1  0
 14 15  1  6
 15 16  1  0
 16 17  2  0
 17 18  1  0
 19 18  1  0
 20 16  1  0
 20 19  2  0
 21 14  1  0
 22 21  2  0
 23 21  1  0
 24 30  1  0
 24 23  1  0
 24 25  1  1
 26 25  1  0
 27 26  1  0
 27 28  1  0
 29 28  1  0
 30 32  1  0
 31 30  2  0
M  END
$$$$
