YHK.pdb
     RDKit          3D

 32 33  0  0  1  0  0  0  0  0999 V2000
   13.8635  -20.3468   10.8299 O   0  0  0  0  0  0  0  0  0  0  0  0
   13.7848  -19.4535   11.8962 C   0  0  0  0  0  0  0  0  0  0  0  0
   13.2767  -19.9078   13.1020 C   0  0  0  0  0  0  0  0  0  0  0  0
   13.2130  -18.9984   14.1356 C   0  0  0  0  0  0  0  0  0  0  0  0
   13.6274  -17.7021   13.9974 C   0  0  0  0  0  0  0  0  0  0  0  0
   13.5729  -16.7042   15.0825 C   0  0  0  0  0  0  0  0  0  0  0  0
   12.1447  -16.1885   15.3013 C   0  0  2  0  0  0  0  0  0  0  0  0
   11.8895  -15.2306   14.2424 N   0  0  0  0  0  0  0  0  0  0  0  0
   12.1687  -15.4569   16.5926 C   0  0  0  0  0  0  0  0  0  0  0  0
   12.7092  -14.3126   16.6979 O   0  0  0  0  0  0  0  0  0  0  0  0
   14.1317  -17.2813   12.7730 C   0  0  0  0  0  0  0  0  0  0  0  0
   14.2113  -18.1659   11.7116 C   0  0  0  0  0  0  0  0  0  0  0  0
   11.5960  -15.9748   17.7939 N   0  0  0  0  0  0  0  0  0  0  0  0
   11.6521  -15.2510   19.0481 C   0  0  1  0  0  0  0  0  0  0  0  0
   10.3401  -15.5067   19.7954 C   0  0  0  0  0  0  0  0  0  0  0  0
    9.2190  -14.7792   19.1831 C   0  0  0  0  0  0  0  0  0  0  0  0
    8.2412  -15.2372   18.3570 C   0  0  0  0  0  0  0  0  0  0  0  0
    7.4130  -14.2188   18.0333 N   0  0  0  0  0  0  0  0  0  0  0  0
    7.8996  -13.1488   18.6695 C   0  0  0  0  0  0  0  0  0  0  0  0
    8.9950  -13.4540   19.3762 N   0  0  0  0  0  0  0  0  0  0  0  0
   12.7502  -15.7542   19.9180 C   0  0  0  0  0  0  0  0  0  0  0  0
   12.8609  -16.9991   20.0517 O   0  0  0  0  0  0  0  0  0  0  0  0
   13.6575  -14.9245   20.5888 N   0  0  0  0  0  0  0  0  0  0  0  0
   14.7948  -15.4440   21.3063 C   0  0  1  0  0  0  0  0  0  0  0  0
   16.0504  -14.6755   21.0827 C   0  0  0  0  0  0  0  0  0  0  0  0
   16.5120  -14.5070   19.6891 C   0  0  0  0  0  0  0  0  0  0  0  0
   17.7187  -13.6622   19.4969 C   0  0  0  0  0  0  0  0  0  0  0  0
   18.1344  -13.6779   18.0385 C   0  0  0  0  0  0  0  0  0  0  0  0
   19.2099  -12.7873   17.7461 N   0  0  0  0  0  0  0  0  0  0  0  0
   14.5090  -15.7403   22.7119 C   0  0  0  0  0  0  0  0  0  0  0  0
   13.5258  -15.2649   23.3314 O   0  0  0  0  0  0  0  0  0  0  0  0
   15.3505  -16.5846   23.4152 O   0  0  0  0  0  0  0  0  0  0  0  0
  2  1  1  0
  3  2  2  0
  4  3  1  0
  5 11  1  0
  5  4  2  0
  6  5  1  0
  7  8  1  6
  7  6  1  0
  9 13  1  0
  9  7  1  0
 10  9  2  0
 11 12  2  0
 12  2  1  0
 14 13  1  0
 14 15  1  1
 15 16  1  0
 16 17  2  0
 17 18  1  0
 19 18  1  0
 20 16  1  0
 20 19  2  0
 21 14  1  0
 22 21  2  0
 23 21  1  0
 24 30  1  0
 24 23  1  0
 24 25  1  1
 26 25  1  0
 27 26  1  0
 27 28  1  0
 29 28  1  0
 30 32  1  0
 31 30  2  0
M  END
$$$$
