YHK.pdb
     RDKit          3D

 32 33  0  0  1  0  0  0  0  0999 V2000
    7.1548  -10.8415   20.1983 O   0  0  0  0  0  0  0  0  0  0  0  0
    7.9291  -11.9599   19.8973 C   0  0  0  0  0  0  0  0  0  0  0  0
    7.7282  -12.5948   18.6828 C   0  0  0  0  0  0  0  0  0  0  0  0
    8.5109  -13.6976   18.4172 C   0  0  0  0  0  0  0  0  0  0  0  0
    9.4486  -14.1601   19.2992 C   0  0  0  0  0  0  0  0  0  0  0  0
   10.3021  -15.3364   19.0461 C   0  0  0  0  0  0  0  0  0  0  0  0
   11.6600  -15.2078   19.7483 C   0  0  2  0  0  0  0  0  0  0  0  0
   12.3484  -14.1036   19.1073 N   0  0  0  0  0  0  0  0  0  0  0  0
   12.3990  -16.4573   19.4390 C   0  0  0  0  0  0  0  0  0  0  0  0
   11.8771  -17.6004   19.6217 O   0  0  0  0  0  0  0  0  0  0  0  0
    9.6228  -13.4980   20.5083 C   0  0  0  0  0  0  0  0  0  0  0  0
    8.8554  -12.3867   20.8105 C   0  0  0  0  0  0  0  0  0  0  0  0
   13.7299  -16.4692   18.9214 N   0  0  0  0  0  0  0  0  0  0  0  0
   14.4423  -17.7031   18.6569 C   0  0  1  0  0  0  0  0  0  0  0  0
   15.3741  -17.4599   17.4662 C   0  0  0  0  0  0  0  0  0  0  0  0
   14.6720  -17.6338   16.1864 C   0  0  0  0  0  0  0  0  0  0  0  0
   13.3460  -17.5245   15.9075 C   0  0  0  0  0  0  0  0  0  0  0  0
   13.1417  -17.7678   14.5934 N   0  0  0  0  0  0  0  0  0  0  0  0
   14.3518  -18.0234   14.0867 C   0  0  0  0  0  0  0  0  0  0  0  0
   15.3028  -17.9504   15.0263 N   0  0  0  0  0  0  0  0  0  0  0  0
   15.3034  -18.0915   19.8073 C   0  0  0  0  0  0  0  0  0  0  0  0
   15.8940  -17.1714   20.4273 O   0  0  0  0  0  0  0  0  0  0  0  0
   15.4894  -19.4130   20.2322 N   0  0  0  0  0  0  0  0  0  0  0  0
   16.3317  -19.7535   21.3515 C   0  0  1  0  0  0  0  0  0  0  0  0
   15.9094  -20.9876   22.0697 C   0  0  0  0  0  0  0  0  0  0  0  0
   16.6620  -21.3655   23.2840 C   0  0  0  0  0  0  0  0  0  0  0  0
   16.2048  -22.5950   23.9812 C   0  0  0  0  0  0  0  0  0  0  0  0
   17.0809  -22.8604   25.1903 C   0  0  0  0  0  0  0  0  0  0  0  0
   16.7862  -24.0936   25.8441 N   0  0  0  0  0  0  0  0  0  0  0  0
   17.7619  -19.6932   21.0418 C   0  0  0  0  0  0  0  0  0  0  0  0
   18.2610  -20.1656   19.9910 O   0  0  0  0  0  0  0  0  0  0  0  0
   18.6283  -19.0902   21.9369 O   0  0  0  0  0  0  0  0  0  0  0  0
  2  1  1  0
  3  2  2  0
  4  3  1  0
  5 11  1  0
  5  4  2  0
  6  5  1  0
  7  8  1  6
  7  6  1  0
  9 13  1  0
  9  7  1  0
 10  9  2  0
 11 12  2  0
 12  2  1  0
 14 13  1  0
 14 15  1  6
 15 16  1  0
 16 17  2  0
 17 18  1  0
 19 18  1  0
 20 16  1  0
 20 19  2  0
 21 14  1  0
 22 21  2  0
 23 21  1  0
 24 30  1  0
 24 23  1  0
 24 25  1  6
 26 25  1  0
 27 26  1  0
 27 28  1  0
 29 28  1  0
 30 32  1  0
 31 30  2  0
M  END
$$$$
