YYQ.pdb
     RDKit          3D

 34 35  0  0  1  0  0  0  0  0999 V2000
    7.2939  -14.1062   15.1277 O   0  0  0  0  0  0  0  0  0  0  0  0
    8.0908  -14.1994   16.2616 C   0  0  0  0  0  0  0  0  0  0  0  0
    8.8994  -15.3251   16.3548 C   0  0  0  0  0  0  0  0  0  0  0  0
    9.7046  -15.4259   17.4938 C   0  0  0  0  0  0  0  0  0  0  0  0
    9.6852  -14.4507   18.4637 C   0  0  0  0  0  0  0  0  0  0  0  0
   10.5493  -14.5978   19.6454 C   0  0  0  0  0  0  0  0  0  0  0  0
   10.0484  -15.7882   20.4588 C   0  0  2  0  0  0  0  0  0  0  0  0
    8.7475  -16.2129   19.9986 N   0  0  0  0  0  0  0  0  0  0  0  0
    9.9409  -15.3322   21.8609 C   0  0  0  0  0  0  0  0  0  0  0  0
   10.9407  -14.9055   22.5035 O   0  0  0  0  0  0  0  0  0  0  0  0
    8.8763  -13.3531   18.3411 C   0  0  0  0  0  0  0  0  0  0  0  0
    8.0587  -13.2158   17.2207 C   0  0  0  0  0  0  0  0  0  0  0  0
    5.9641  -11.8909   28.9565 O   0  0  0  0  0  0  0  0  0  0  0  0
    6.2598  -12.4305   27.7066 C   0  0  0  0  0  0  0  0  0  0  0  0
    7.1297  -11.7885   26.8492 C   0  0  0  0  0  0  0  0  0  0  0  0
    7.4521  -12.2873   25.5997 C   0  0  0  0  0  0  0  0  0  0  0  0
    6.9016  -13.4700   25.1604 C   0  0  0  0  0  0  0  0  0  0  0  0
    7.1946  -14.0696   23.8385 C   0  0  0  0  0  0  0  0  0  0  0  0
    8.4464  -14.9167   23.8590 C   0  0  2  0  0  0  0  0  0  0  0  0
    8.6779  -15.3756   22.5022 N   0  0  0  0  0  0  0  0  0  0  0  0
    8.1555  -16.1042   24.7192 C   0  0  0  0  0  0  0  0  0  0  0  0
    7.6378  -17.1186   24.1987 O   0  0  0  0  0  0  0  0  0  0  0  0
    6.0324  -14.1208   26.0050 C   0  0  0  0  0  0  0  0  0  0  0  0
    5.7106  -13.6158   27.2615 C   0  0  0  0  0  0  0  0  0  0  0  0
    5.9385  -20.2348   24.9632 N   0  0  0  0  0  0  0  0  0  0  0  0
    6.5491  -20.5922   26.1793 C   0  0  0  0  0  0  0  0  0  0  0  0
    6.3527  -21.7078   26.6880 O   0  0  0  0  0  0  0  0  0  0  0  0
    7.4475  -19.6287   26.8790 C   0  0  0  0  0  0  0  0  0  0  0  0
    7.4861  -18.3022   26.1805 C   0  0  0  0  0  0  0  0  0  0  0  0
    8.3942  -17.3552   26.9208 C   0  0  2  0  0  0  0  0  0  0  0  0
    8.4405  -16.1321   26.1000 N   0  0  0  0  0  0  0  0  0  0  0  0
    9.7821  -17.8635   26.9543 C   0  0  0  0  0  0  0  0  0  0  0  0
   10.8162  -17.2939   26.2474 O   0  0  0  0  0  0  0  0  0  0  0  0
   10.0695  -18.8886   27.6679 O   0  0  0  0  0  0  0  0  0  0  0  0
  2  1  1  0
  2  3  2  0
  4  3  1  0
  5  4  2  0
  6  5  1  0
  7  6  1  0
  7  8  1  6
  9 10  2  0
  9  7  1  0
 11 12  2  0
 11  5  1  0
 12  2  1  0
 13 14  1  0
 14 15  2  0
 15 16  1  0
 17 16  2  0
 17 18  1  0
 19 18  1  6
 19 20  1  0
 20  9  1  0
 21 19  1  0
 21 31  1  0
 22 21  2  0
 23 17  1  0
 24 14  1  0
 24 23  2  0
 25 26  1  0
 26 27  2  0
 26 28  1  0
 28 29  1  0
 30 29  1  6
 30 31  1  0
 30 32  1  0
 32 34  2  0
 32 33  1  0
M  END
$$$$
