YYQ.pdb
     RDKit          3D

 34 35  0  0  1  0  0  0  0  0999 V2000
   20.0244  -15.8758   14.4755 O   0  0  0  0  0  0  0  0  0  0  0  0
   18.9808  -15.3731   15.2420 C   0  0  0  0  0  0  0  0  0  0  0  0
   18.4561  -16.2275   16.2035 C   0  0  0  0  0  0  0  0  0  0  0  0
   17.4050  -15.7282   16.9792 C   0  0  0  0  0  0  0  0  0  0  0  0
   16.9263  -14.4529   16.7871 C   0  0  0  0  0  0  0  0  0  0  0  0
   15.8191  -13.9690   17.6263 C   0  0  0  0  0  0  0  0  0  0  0  0
   15.0186  -15.1771   18.1052 C   0  0  2  0  0  0  0  0  0  0  0  0
   14.4212  -15.8714   16.9892 N   0  0  0  0  0  0  0  0  0  0  0  0
   13.9475  -14.6589   18.9825 C   0  0  0  0  0  0  0  0  0  0  0  0
   14.2017  -14.0190   20.0410 O   0  0  0  0  0  0  0  0  0  0  0  0
   17.4660  -13.6360   15.8303 C   0  0  0  0  0  0  0  0  0  0  0  0
   18.5151  -14.0966   15.0365 C   0  0  0  0  0  0  0  0  0  0  0  0
    5.3889  -13.0873   21.0419 O   0  0  0  0  0  0  0  0  0  0  0  0
    6.5816  -13.4122   20.3994 C   0  0  0  0  0  0  0  0  0  0  0  0
    7.4569  -12.4247   19.9958 C   0  0  0  0  0  0  0  0  0  0  0  0
    8.6516  -12.7008   19.3550 C   0  0  0  0  0  0  0  0  0  0  0  0
    9.0147  -14.0024   19.0927 C   0  0  0  0  0  0  0  0  0  0  0  0
   10.2740  -14.3810   18.4119 C   0  0  0  0  0  0  0  0  0  0  0  0
   11.4656  -14.3258   19.3403 C   0  0  2  0  0  0  0  0  0  0  0  0
   12.5956  -14.8876   18.6243 N   0  0  0  0  0  0  0  0  0  0  0  0
   11.1532  -15.2103   20.5042 C   0  0  0  0  0  0  0  0  0  0  0  0
   10.3001  -14.8347   21.3405 O   0  0  0  0  0  0  0  0  0  0  0  0
    8.1514  -14.9972   19.4896 C   0  0  0  0  0  0  0  0  0  0  0  0
    6.9503  -14.7153   20.1341 C   0  0  0  0  0  0  0  0  0  0  0  0
   12.3831  -21.2309   20.2586 N   0  0  0  0  0  0  0  0  0  0  0  0
   13.4240  -20.2936   20.3904 C   0  0  0  0  0  0  0  0  0  0  0  0
   14.5833  -20.5751   20.0457 O   0  0  0  0  0  0  0  0  0  0  0  0
   13.1470  -18.9389   20.9500 C   0  0  0  0  0  0  0  0  0  0  0  0
   11.6923  -18.7594   21.2676 C   0  0  0  0  0  0  0  0  0  0  0  0
   11.4491  -17.3742   21.8078 C   0  0  2  0  0  0  0  0  0  0  0  0
   11.7811  -16.4573   20.7029 N   0  0  0  0  0  0  0  0  0  0  0  0
   12.4002  -17.0498   22.8922 C   0  0  0  0  0  0  0  0  0  0  0  0
   13.4715  -16.2010   22.7333 O   0  0  0  0  0  0  0  0  0  0  0  0
   12.2477  -17.5722   24.0526 O   0  0  0  0  0  0  0  0  0  0  0  0
  2  1  1  0
  2  3  2  0
  4  3  1  0
  5  4  2  0
  6  5  1  0
  7  6  1  0
  7  8  1  6
  9 10  2  0
  9  7  1  0
 11 12  2  0
 11  5  1  0
 12  2  1  0
 13 14  1  0
 14 15  2  0
 15 16  1  0
 17 16  2  0
 17 18  1  0
 19 18  1  6
 19 20  1  0
 20  9  1  0
 21 19  1  0
 21 31  1  0
 22 21  2  0
 23 17  1  0
 24 14  1  0
 24 23  2  0
 25 26  1  0
 26 27  2  0
 26 28  1  0
 28 29  1  0
 30 29  1  6
 30 31  1  0
 30 32  1  0
 32 34  2  0
 32 33  1  0
M  END
$$$$
