YYQ.pdb
     RDKit          3D

 34 35  0  0  1  0  0  0  0  0999 V2000
    7.3729  -14.3578   16.0046 O   0  0  0  0  0  0  0  0  0  0  0  0
    7.6015  -14.1789   17.3630 C   0  0  0  0  0  0  0  0  0  0  0  0
    8.2756  -15.2043   18.0140 C   0  0  0  0  0  0  0  0  0  0  0  0
    8.5095  -15.0312   19.3819 C   0  0  0  0  0  0  0  0  0  0  0  0
    8.0868  -13.8968   20.0350 C   0  0  0  0  0  0  0  0  0  0  0  0
    8.3547  -13.7568   21.4749 C   0  0  0  0  0  0  0  0  0  0  0  0
    9.2670  -14.9022   21.9051 C   0  0  2  0  0  0  0  0  0  0  0  0
    8.5867  -16.1704   21.7905 N   0  0  0  0  0  0  0  0  0  0  0  0
    9.6116  -14.6640   23.3229 C   0  0  0  0  0  0  0  0  0  0  0  0
    9.7112  -13.4991   23.7998 O   0  0  0  0  0  0  0  0  0  0  0  0
    7.4247  -12.9044   19.3635 C   0  0  0  0  0  0  0  0  0  0  0  0
    7.1722  -13.0391   17.9994 C   0  0  0  0  0  0  0  0  0  0  0  0
    6.1173  -10.5297   26.9439 O   0  0  0  0  0  0  0  0  0  0  0  0
    6.5690  -11.8087   26.6264 C   0  0  0  0  0  0  0  0  0  0  0  0
    6.0139  -12.5124   25.5772 C   0  0  0  0  0  0  0  0  0  0  0  0
    6.4307  -13.7841   25.2263 C   0  0  0  0  0  0  0  0  0  0  0  0
    7.4382  -14.4040   25.9303 C   0  0  0  0  0  0  0  0  0  0  0  0
    7.9406  -15.7617   25.6188 C   0  0  0  0  0  0  0  0  0  0  0  0
    9.4504  -15.8159   25.5691 C   0  0  2  0  0  0  0  0  0  0  0  0
    9.8367  -15.7767   24.1711 N   0  0  0  0  0  0  0  0  0  0  0  0
    9.8585  -17.1367   26.1380 C   0  0  0  0  0  0  0  0  0  0  0  0
    9.2647  -17.5707   27.1515 O   0  0  0  0  0  0  0  0  0  0  0  0
    8.0008  -13.7140   26.9790 C   0  0  0  0  0  0  0  0  0  0  0  0
    7.5786  -12.4346   27.3289 C   0  0  0  0  0  0  0  0  0  0  0  0
   12.2197  -20.6681   21.7099 N   0  0  0  0  0  0  0  0  0  0  0  0
   11.8999  -21.6503   22.6651 C   0  0  0  0  0  0  0  0  0  0  0  0
   12.0322  -22.8578   22.4071 O   0  0  0  0  0  0  0  0  0  0  0  0
   11.3939  -21.2516   24.0105 C   0  0  0  0  0  0  0  0  0  0  0  0
   11.2685  -19.7623   24.1343 C   0  0  0  0  0  0  0  0  0  0  0  0
   10.8677  -19.3931   25.5389 C   0  0  2  0  0  0  0  0  0  0  0  0
   10.8896  -17.9202   25.5798 N   0  0  0  0  0  0  0  0  0  0  0  0
   11.8854  -19.8326   26.5170 C   0  0  0  0  0  0  0  0  0  0  0  0
   12.6332  -18.9626   27.2769 O   0  0  0  0  0  0  0  0  0  0  0  0
   12.1084  -21.0831   26.6882 O   0  0  0  0  0  0  0  0  0  0  0  0
  2  1  1  0
  2  3  2  0
  4  3  1  0
  5  4  2  0
  6  5  1  0
  7  6  1  0
  7  8  1  1
  9 10  2  0
  9  7  1  0
 11 12  2  0
 11  5  1  0
 12  2  1  0
 13 14  1  0
 14 15  2  0
 15 16  1  0
 17 16  2  0
 17 18  1  0
 19 18  1  6
 19 20  1  0
 20  9  1  0
 21 19  1  0
 21 31  1  0
 22 21  2  0
 23 17  1  0
 24 14  1  0
 24 23  2  0
 25 26  1  0
 26 27  2  0
 26 28  1  0
 28 29  1  0
 30 29  1  6
 30 31  1  0
 30 32  1  0
 32 34  2  0
 32 33  1  0
M  END
$$$$
