YYQ.pdb
     RDKit          3D

 34 35  0  0  1  0  0  0  0  0999 V2000
    7.9752  -26.7434   20.6719 O   0  0  0  0  0  0  0  0  0  0  0  0
    8.3146  -25.4168   20.4389 C   0  0  0  0  0  0  0  0  0  0  0  0
    7.4793  -24.4598   21.0011 C   0  0  0  0  0  0  0  0  0  0  0  0
    7.8148  -23.1218   20.7708 C   0  0  0  0  0  0  0  0  0  0  0  0
    8.9197  -22.7870   20.0229 C   0  0  0  0  0  0  0  0  0  0  0  0
    9.2350  -21.3664   19.8062 C   0  0  0  0  0  0  0  0  0  0  0  0
    8.1179  -20.7511   18.9676 C   0  0  2  0  0  0  0  0  0  0  0  0
    8.0180  -21.4077   17.6857 N   0  0  0  0  0  0  0  0  0  0  0  0
    8.4738  -19.3316   18.7582 C   0  0  0  0  0  0  0  0  0  0  0  0
    9.1599  -18.9537   17.7678 O   0  0  0  0  0  0  0  0  0  0  0  0
    9.7226  -23.7552   19.4825 C   0  0  0  0  0  0  0  0  0  0  0  0
    9.4221  -25.1005   19.6892 C   0  0  0  0  0  0  0  0  0  0  0  0
    8.2676  -10.5757   20.4477 O   0  0  0  0  0  0  0  0  0  0  0  0
    8.0451  -11.9510   20.4506 C   0  0  0  0  0  0  0  0  0  0  0  0
    7.7652  -12.6226   19.2782 C   0  0  0  0  0  0  0  0  0  0  0  0
    7.5377  -13.9865   19.2338 C   0  0  0  0  0  0  0  0  0  0  0  0
    7.5843  -14.7366   20.3871 C   0  0  0  0  0  0  0  0  0  0  0  0
    7.3523  -16.1986   20.4243 C   0  0  0  0  0  0  0  0  0  0  0  0
    8.3976  -16.9640   19.6454 C   0  0  2  0  0  0  0  0  0  0  0  0
    8.0314  -18.3670   19.6974 N   0  0  0  0  0  0  0  0  0  0  0  0
    9.6957  -16.7847   20.3647 C   0  0  0  0  0  0  0  0  0  0  0  0
   10.6864  -16.3546   19.7311 O   0  0  0  0  0  0  0  0  0  0  0  0
    7.8624  -14.0799   21.5635 C   0  0  0  0  0  0  0  0  0  0  0  0
    8.0908  -12.7075   21.6040 C   0  0  0  0  0  0  0  0  0  0  0  0
   10.1739  -17.4313   26.6275 N   0  0  0  0  0  0  0  0  0  0  0  0
   10.7705  -18.4595   25.8749 C   0  0  0  0  0  0  0  0  0  0  0  0
   11.0853  -19.5374   26.4049 O   0  0  0  0  0  0  0  0  0  0  0  0
   11.0346  -18.2673   24.4195 C   0  0  0  0  0  0  0  0  0  0  0  0
   10.6424  -16.8934   23.9637 C   0  0  0  0  0  0  0  0  0  0  0  0
   11.0376  -16.6950   22.5235 C   0  0  2  0  0  0  0  0  0  0  0  0
    9.8543  -17.0808   21.7343 N   0  0  0  0  0  0  0  0  0  0  0  0
   12.1039  -17.6395   22.1279 C   0  0  0  0  0  0  0  0  0  0  0  0
   13.4451  -17.3864   22.3026 O   0  0  0  0  0  0  0  0  0  0  0  0
   11.7958  -18.7608   21.5891 O   0  0  0  0  0  0  0  0  0  0  0  0
  2  1  1  0
  2  3  2  0
  4  3  1  0
  5  4  2  0
  6  5  1  0
  7  6  1  0
  7  8  1  6
  9 10  2  0
  9  7  1  0
 11 12  2  0
 11  5  1  0
 12  2  1  0
 13 14  1  0
 14 15  2  0
 15 16  1  0
 17 16  2  0
 17 18  1  0
 19 18  1  1
 19 20  1  0
 20  9  1  0
 21 19  1  0
 21 31  1  0
 22 21  2  0
 23 17  1  0
 24 14  1  0
 24 23  2  0
 25 26  1  0
 26 27  2  0
 26 28  1  0
 28 29  1  0
 30 29  1  1
 30 31  1  0
 30 32  1  0
 32 34  2  0
 32 33  1  0
M  END
$$$$
