YYQ.pdb
     RDKit          3D

 34 35  0  0  1  0  0  0  0  0999 V2000
    7.6847  -23.4589   17.7259 O   0  0  0  0  0  0  0  0  0  0  0  0
    8.0118  -22.4538   18.6271 C   0  0  0  0  0  0  0  0  0  0  0  0
    9.3421  -22.3900   19.0219 C   0  0  0  0  0  0  0  0  0  0  0  0
    9.6789  -21.3804   19.9292 C   0  0  0  0  0  0  0  0  0  0  0  0
    8.7288  -20.5028   20.3976 C   0  0  0  0  0  0  0  0  0  0  0  0
    9.1280  -19.4559   21.3511 C   0  0  0  0  0  0  0  0  0  0  0  0
    9.0692  -18.1093   20.6350 C   0  0  2  0  0  0  0  0  0  0  0  0
   10.0770  -18.0321   19.6042 N   0  0  0  0  0  0  0  0  0  0  0  0
    9.3380  -17.0722   21.6537 C   0  0  0  0  0  0  0  0  0  0  0  0
   10.5102  -16.7966   22.0337 O   0  0  0  0  0  0  0  0  0  0  0  0
    7.4256  -20.5932   19.9882 C   0  0  0  0  0  0  0  0  0  0  0  0
    7.0497  -21.5857   19.0846 C   0  0  0  0  0  0  0  0  0  0  0  0
    6.9183  -10.9626   27.7210 O   0  0  0  0  0  0  0  0  0  0  0  0
    6.9615  -11.8503   26.6481 C   0  0  0  0  0  0  0  0  0  0  0  0
    7.8752  -11.6799   25.6283 C   0  0  0  0  0  0  0  0  0  0  0  0
    7.9540  -12.5359   24.5443 C   0  0  0  0  0  0  0  0  0  0  0  0
    7.1018  -13.6124   24.4457 C   0  0  0  0  0  0  0  0  0  0  0  0
    7.1216  -14.5733   23.3192 C   0  0  0  0  0  0  0  0  0  0  0  0
    8.3803  -15.4102   23.3027 C   0  0  2  0  0  0  0  0  0  0  0  0
    8.2471  -16.3667   22.2199 N   0  0  0  0  0  0  0  0  0  0  0  0
    8.4232  -16.1591   24.5958 C   0  0  0  0  0  0  0  0  0  0  0  0
    7.4509  -16.8825   24.9109 O   0  0  0  0  0  0  0  0  0  0  0  0
    6.1856  -13.7945   25.4556 C   0  0  0  0  0  0  0  0  0  0  0  0
    6.1095  -12.9310   26.5446 C   0  0  0  0  0  0  0  0  0  0  0  0
   10.0661  -20.9076   25.7194 N   0  0  0  0  0  0  0  0  0  0  0  0
   11.0918  -20.0062   25.3803 C   0  0  0  0  0  0  0  0  0  0  0  0
   12.1136  -20.3949   24.7914 O   0  0  0  0  0  0  0  0  0  0  0  0
   10.9646  -18.5608   25.7262 C   0  0  0  0  0  0  0  0  0  0  0  0
    9.6585  -18.2675   26.4023 C   0  0  0  0  0  0  0  0  0  0  0  0
    9.5817  -16.8073   26.7653 C   0  0  2  0  0  0  0  0  0  0  0  0
    9.5178  -16.0859   25.4819 N   0  0  0  0  0  0  0  0  0  0  0  0
   10.8296  -16.3526   27.4147 C   0  0  0  0  0  0  0  0  0  0  0  0
   11.6874  -15.4357   26.8519 O   0  0  0  0  0  0  0  0  0  0  0  0
   11.1593  -16.8199   28.5617 O   0  0  0  0  0  0  0  0  0  0  0  0
  2  1  1  0
  2  3  2  0
  4  3  1  0
  5  4  2  0
  6  5  1  0
  7  6  1  0
  7  8  1  6
  9 10  2  0
  9  7  1  0
 11 12  2  0
 11  5  1  0
 12  2  1  0
 13 14  1  0
 14 15  2  0
 15 16  1  0
 17 16  2  0
 17 18  1  0
 19 18  1  1
 19 20  1  0
 20  9  1  0
 21 19  1  0
 21 31  1  0
 22 21  2  0
 23 17  1  0
 24 14  1  0
 24 23  2  0
 25 26  1  0
 26 27  2  0
 26 28  1  0
 28 29  1  0
 30 29  1  6
 30 31  1  0
 30 32  1  0
 32 34  2  0
 32 33  1  0
M  END
$$$$
