YYQ.pdb
     RDKit          3D

 34 35  0  0  1  0  0  0  0  0999 V2000
    6.2773  -16.2647   13.0586 O   0  0  0  0  0  0  0  0  0  0  0  0
    6.9004  -16.0182   14.2753 C   0  0  0  0  0  0  0  0  0  0  0  0
    6.3905  -16.6948   15.3761 C   0  0  0  0  0  0  0  0  0  0  0  0
    7.0128  -16.4517   16.6048 C   0  0  0  0  0  0  0  0  0  0  0  0
    8.0753  -15.5834   16.7012 C   0  0  0  0  0  0  0  0  0  0  0  0
    8.6998  -15.3579   18.0141 C   0  0  0  0  0  0  0  0  0  0  0  0
    8.1433  -14.0593   18.5917 C   0  0  2  0  0  0  0  0  0  0  0  0
    8.6172  -12.9201   17.8421 N   0  0  0  0  0  0  0  0  0  0  0  0
    8.6375  -13.9640   19.9817 C   0  0  0  0  0  0  0  0  0  0  0  0
    9.8354  -13.6642   20.2460 O   0  0  0  0  0  0  0  0  0  0  0  0
    8.5538  -14.9322   15.5962 C   0  0  0  0  0  0  0  0  0  0  0  0
    7.9607  -15.1475   14.3533 C   0  0  0  0  0  0  0  0  0  0  0  0
    7.7913  -13.5725   28.8337 O   0  0  0  0  0  0  0  0  0  0  0  0
    7.5625  -13.6237   27.4604 C   0  0  0  0  0  0  0  0  0  0  0  0
    6.9674  -14.7278   26.8853 C   0  0  0  0  0  0  0  0  0  0  0  0
    6.7209  -14.8219   25.5272 C   0  0  0  0  0  0  0  0  0  0  0  0
    7.0704  -13.7911   24.6846 C   0  0  0  0  0  0  0  0  0  0  0  0
    6.8415  -13.8144   23.2217 C   0  0  0  0  0  0  0  0  0  0  0  0
    8.1046  -14.1197   22.4495 C   0  0  2  0  0  0  0  0  0  0  0  0
    7.7397  -14.2168   21.0486 N   0  0  0  0  0  0  0  0  0  0  0  0
    8.5843  -15.4586   22.9096 C   0  0  0  0  0  0  0  0  0  0  0  0
    7.8549  -16.4602   22.7278 O   0  0  0  0  0  0  0  0  0  0  0  0
    7.6646  -12.6839   25.2444 C   0  0  0  0  0  0  0  0  0  0  0  0
    7.9108  -12.5930   26.6113 C   0  0  0  0  0  0  0  0  0  0  0  0
   14.3987  -16.8962   22.6583 N   0  0  0  0  0  0  0  0  0  0  0  0
   13.3935  -16.5486   21.7374 C   0  0  0  0  0  0  0  0  0  0  0  0
   13.6772  -16.2527   20.5652 O   0  0  0  0  0  0  0  0  0  0  0  0
   11.9630  -16.5309   22.1596 C   0  0  0  0  0  0  0  0  0  0  0  0
   11.8033  -16.9603   23.5876 C   0  0  0  0  0  0  0  0  0  0  0  0
   10.3453  -16.9585   23.9672 C   0  0  2  0  0  0  0  0  0  0  0  0
    9.8303  -15.6444   23.5434 N   0  0  0  0  0  0  0  0  0  0  0  0
   10.1762  -16.9966   25.4354 C   0  0  0  0  0  0  0  0  0  0  0  0
   10.2925  -18.1458   26.1831 O   0  0  0  0  0  0  0  0  0  0  0  0
    9.9041  -15.9197   26.0748 O   0  0  0  0  0  0  0  0  0  0  0  0
  2  1  1  0
  2  3  2  0
  4  3  1  0
  5  4  2  0
  6  5  1  0
  7  6  1  0
  7  8  1  6
  9 10  2  0
  9  7  1  0
 11 12  2  0
 11  5  1  0
 12  2  1  0
 13 14  1  0
 14 15  2  0
 15 16  1  0
 17 16  2  0
 17 18  1  0
 19 18  1  1
 19 20  1  0
 20  9  1  0
 21 19  1  0
 21 31  1  0
 22 21  2  0
 23 17  1  0
 24 14  1  0
 24 23  2  0
 25 26  1  0
 26 27  2  0
 26 28  1  0
 28 29  1  0
 30 29  1  1
 30 31  1  0
 30 32  1  0
 32 34  2  0
 32 33  1  0
M  END
$$$$
