MPN.pdb
     RDKit          3D

 24 24  0  0  1  0  0  0  0  0999 V2000
    6.9181  -11.8213   26.3875 C   0  0  0  0  0  0  0  0  0  0  0  0
    7.6516  -13.0417   27.5423 S   0  0  0  0  0  0  0  0  0  0  0  0
    7.6124  -14.6960   26.7891 C   0  0  0  0  0  0  0  0  0  0  0  0
    6.8002  -14.7232   25.5427 C   0  0  0  0  0  0  0  0  0  0  0  0
    6.4520  -16.1601   25.2009 C   0  0  2  0  0  0  0  0  0  0  0  0
    6.9614  -17.0171   26.2219 N   0  0  0  0  0  0  0  0  0  0  0  0
    6.9379  -16.4341   23.8401 C   0  0  0  0  0  0  0  0  0  0  0  0
    6.8138  -17.6413   23.4489 O   0  0  0  0  0  0  0  0  0  0  0  0
    7.5136  -15.5066   22.9576 N   0  0  0  0  0  0  0  0  0  0  0  0
    7.6884  -14.0836   23.3103 C   0  0  0  0  0  0  0  0  0  0  0  0
    8.1548  -13.4073   22.0742 C   0  0  0  0  0  0  0  0  0  0  0  0
    7.6870  -14.3377   20.9563 C   0  0  0  0  0  0  0  0  0  0  0  0
    8.0032  -15.6947   21.6265 C   0  0  1  0  0  0  0  0  0  0  0  0
    9.4560  -15.8470   21.4955 C   0  0  0  0  0  0  0  0  0  0  0  0
   10.0755  -14.8856   20.9198 O   0  0  0  0  0  0  0  0  0  0  0  0
   14.0226  -15.0581   23.0888 N   0  0  0  0  0  0  0  0  0  0  0  0
   12.9586  -15.4699   23.9728 C   0  0  0  0  0  0  0  0  0  0  0  0
   13.2413  -15.7362   25.1782 O   0  0  0  0  0  0  0  0  0  0  0  0
   11.5954  -15.5533   23.4001 C   0  0  0  0  0  0  0  0  0  0  0  0
   11.5122  -16.8162   22.5706 C   0  0  2  0  0  0  0  0  0  0  0  0
   10.2086  -16.9523   21.9514 N   0  0  0  0  0  0  0  0  0  0  0  0
   11.7751  -17.9734   23.4160 C   0  0  0  0  0  0  0  0  0  0  0  0
   10.8840  -18.5129   24.3304 O   0  0  0  0  0  0  0  0  0  0  0  0
   12.8924  -18.5590   23.3417 O   0  0  0  0  0  0  0  0  0  0  0  0
  2  1  1  0
  2  3  1  0
  4  3  1  0
  5  4  1  0
  5  6  1  1
  7  5  1  0
  8  7  2  0
  9  7  1  0
 10  9  1  0
 11 10  1  0
 12 11  1  0
 12 13  1  0
 13  9  1  0
 13 14  1  1
 15 14  2  0
 16 17  1  0
 17 18  2  0
 19 17  1  0
 20 19  1  1
 20 21  1  0
 21 14  1  0
 22 23  1  0
 22 20  1  0
 24 22  2  0
M  END
$$$$
