MPN.pdb
     RDKit          3D

 24 24  0  0  1  0  0  0  0  0999 V2000
    5.5854  -12.1632   26.4243 C   0  0  0  0  0  0  0  0  0  0  0  0
    6.9225  -13.0551   27.3062 S   0  0  0  0  0  0  0  0  0  0  0  0
    7.5593  -14.3954   26.2556 C   0  0  0  0  0  0  0  0  0  0  0  0
    6.4731  -15.0786   25.5022 C   0  0  0  0  0  0  0  0  0  0  0  0
    6.7951  -16.5570   25.3862 C   0  0  2  0  0  0  0  0  0  0  0  0
    7.3557  -17.0087   26.6184 N   0  0  0  0  0  0  0  0  0  0  0  0
    7.6391  -16.7464   24.1968 C   0  0  0  0  0  0  0  0  0  0  0  0
    8.2070  -17.8844   24.1059 O   0  0  0  0  0  0  0  0  0  0  0  0
    7.8697  -15.8068   23.1797 N   0  0  0  0  0  0  0  0  0  0  0  0
    7.2552  -14.4643   23.1899 C   0  0  0  0  0  0  0  0  0  0  0  0
    7.5904  -13.8481   21.8820 C   0  0  0  0  0  0  0  0  0  0  0  0
    7.8827  -15.0482   20.9829 C   0  0  0  0  0  0  0  0  0  0  0  0
    8.6622  -15.9203   21.9940 C   0  0  1  0  0  0  0  0  0  0  0  0
    9.9972  -15.3164   22.0575 C   0  0  0  0  0  0  0  0  0  0  0  0
   10.0660  -14.1509   22.5833 O   0  0  0  0  0  0  0  0  0  0  0  0
   13.9650  -17.9074   24.8801 N   0  0  0  0  0  0  0  0  0  0  0  0
   13.4280  -16.6288   24.4798 C   0  0  0  0  0  0  0  0  0  0  0  0
   14.0639  -15.5796   24.7938 O   0  0  0  0  0  0  0  0  0  0  0  0
   12.1558  -16.6352   23.7216 C   0  0  0  0  0  0  0  0  0  0  0  0
   12.4033  -15.9693   22.3855 C   0  0  2  0  0  0  0  0  0  0  0  0
   11.1902  -15.9146   21.5938 N   0  0  0  0  0  0  0  0  0  0  0  0
   13.4297  -16.7035   21.6572 C   0  0  0  0  0  0  0  0  0  0  0  0
   14.6593  -16.1899   21.2754 O   0  0  0  0  0  0  0  0  0  0  0  0
   13.2211  -17.9052   21.3270 O   0  0  0  0  0  0  0  0  0  0  0  0
  2  1  1  0
  2  3  1  0
  4  3  1  0
  5  4  1  0
  5  6  1  1
  7  5  1  0
  8  7  2  0
  9  7  1  0
 10  9  1  0
 11 10  1  0
 12 11  1  0
 12 13  1  0
 13  9  1  0
 13 14  1  1
 15 14  2  0
 16 17  1  0
 17 18  2  0
 19 17  1  0
 20 19  1  1
 20 21  1  0
 21 14  1  0
 22 23  1  0
 22 20  1  0
 24 22  2  0
M  END
$$$$
