MPN.pdb
     RDKit          3D

 24 24  0  0  1  0  0  0  0  0999 V2000
    9.3622  -13.2070   16.8488 C   0  0  0  0  0  0  0  0  0  0  0  0
    7.6603  -13.5947   17.4095 S   0  0  0  0  0  0  0  0  0  0  0  0
    7.7289  -14.6993   18.8520 C   0  0  0  0  0  0  0  0  0  0  0  0
    8.9383  -15.5660   18.8348 C   0  0  0  0  0  0  0  0  0  0  0  0
    8.9478  -16.4401   20.0753 C   0  0  2  0  0  0  0  0  0  0  0  0
    7.7219  -17.1677   20.1405 N   0  0  0  0  0  0  0  0  0  0  0  0
    9.2402  -15.5823   21.2335 C   0  0  0  0  0  0  0  0  0  0  0  0
   10.4780  -15.4037   21.4820 O   0  0  0  0  0  0  0  0  0  0  0  0
    8.2994  -14.9603   22.0693 N   0  0  0  0  0  0  0  0  0  0  0  0
    6.8441  -15.1039   21.8652 C   0  0  0  0  0  0  0  0  0  0  0  0
    6.2000  -14.1700   22.8221 C   0  0  0  0  0  0  0  0  0  0  0  0
    7.2944  -13.1458   23.1175 C   0  0  0  0  0  0  0  0  0  0  0  0
    8.5044  -14.1049   23.1976 C   0  0  1  0  0  0  0  0  0  0  0  0
    8.3891  -14.7434   24.5129 C   0  0  0  0  0  0  0  0  0  0  0  0
    7.3730  -14.4088   25.2166 O   0  0  0  0  0  0  0  0  0  0  0  0
    8.0944  -18.9301   27.1807 N   0  0  0  0  0  0  0  0  0  0  0  0
    7.4745  -18.8206   25.8819 C   0  0  0  0  0  0  0  0  0  0  0  0
    6.6520  -19.7154   25.5258 O   0  0  0  0  0  0  0  0  0  0  0  0
    7.8494  -17.6557   25.0477 C   0  0  0  0  0  0  0  0  0  0  0  0
    8.8713  -16.8420   25.8116 C   0  0  2  0  0  0  0  0  0  0  0  0
    9.2961  -15.6843   25.0495 N   0  0  0  0  0  0  0  0  0  0  0  0
   10.0263  -17.6748   26.1202 C   0  0  0  0  0  0  0  0  0  0  0  0
   10.2963  -18.2382   27.3576 O   0  0  0  0  0  0  0  0  0  0  0  0
   10.8735  -17.9257   25.2169 O   0  0  0  0  0  0  0  0  0  0  0  0
  2  1  1  0
  2  3  1  0
  4  3  1  0
  5  4  1  0
  5  6  1  1
  7  5  1  0
  8  7  2  0
  9  7  1  0
 10  9  1  0
 11 10  1  0
 12 11  1  0
 12 13  1  0
 13  9  1  0
 13 14  1  1
 15 14  2  0
 16 17  1  0
 17 18  2  0
 19 17  1  0
 20 19  1  6
 20 21  1  0
 21 14  1  0
 22 23  1  0
 22 20  1  0
 24 22  2  0
M  END
$$$$
