MPN.pdb
     RDKit          3D

 24 24  0  0  1  0  0  0  0  0999 V2000
    5.8624  -11.8642   26.5620 C   0  0  0  0  0  0  0  0  0  0  0  0
    7.4355  -12.6673   27.0533 S   0  0  0  0  0  0  0  0  0  0  0  0
    7.3083  -14.4638   26.8045 C   0  0  0  0  0  0  0  0  0  0  0  0
    6.6120  -14.8038   25.5342 C   0  0  0  0  0  0  0  0  0  0  0  0
    6.5950  -16.3110   25.3582 C   0  0  2  0  0  0  0  0  0  0  0  0
    6.9293  -16.9278   26.6009 N   0  0  0  0  0  0  0  0  0  0  0  0
    7.4719  -16.6463   24.2262 C   0  0  0  0  0  0  0  0  0  0  0  0
    7.9752  -17.8175   24.2537 O   0  0  0  0  0  0  0  0  0  0  0  0
    7.7966  -15.8100   23.1465 N   0  0  0  0  0  0  0  0  0  0  0  0
    7.2401  -14.4497   23.0055 C   0  0  0  0  0  0  0  0  0  0  0  0
    7.6710  -13.9649   21.6705 C   0  0  0  0  0  0  0  0  0  0  0  0
    7.9598  -15.2501   20.8968 C   0  0  0  0  0  0  0  0  0  0  0  0
    8.6461  -16.0579   22.0224 C   0  0  1  0  0  0  0  0  0  0  0  0
   10.0003  -15.5015   22.1097 C   0  0  0  0  0  0  0  0  0  0  0  0
   10.1048  -14.3532   22.6665 O   0  0  0  0  0  0  0  0  0  0  0  0
   13.6593  -19.0971   24.0999 N   0  0  0  0  0  0  0  0  0  0  0  0
   13.0099  -17.8400   24.3850 C   0  0  0  0  0  0  0  0  0  0  0  0
   13.4760  -17.1140   25.3121 O   0  0  0  0  0  0  0  0  0  0  0  0
   11.8301  -17.4847   23.5634 C   0  0  0  0  0  0  0  0  0  0  0  0
   12.2751  -16.4967   22.5071 C   0  0  2  0  0  0  0  0  0  0  0  0
   11.1755  -16.1274   21.6376 N   0  0  0  0  0  0  0  0  0  0  0  0
   13.3499  -17.0803   21.7152 C   0  0  0  0  0  0  0  0  0  0  0  0
   13.2093  -18.1480   20.8425 O   0  0  0  0  0  0  0  0  0  0  0  0
   14.5178  -16.6059   21.8033 O   0  0  0  0  0  0  0  0  0  0  0  0
  2  1  1  0
  2  3  1  0
  4  3  1  0
  5  4  1  0
  5  6  1  1
  7  5  1  0
  8  7  2  0
  9  7  1  0
 10  9  1  0
 11 10  1  0
 12 11  1  0
 12 13  1  0
 13  9  1  0
 13 14  1  1
 15 14  2  0
 16 17  1  0
 17 18  2  0
 19 17  1  0
 20 19  1  1
 20 21  1  0
 21 14  1  0
 22 23  1  0
 22 20  1  0
 24 22  2  0
M  END
$$$$
