MPN.pdb
     RDKit          3D

 24 24  0  0  1  0  0  0  0  0999 V2000
    6.1894  -10.7930   26.2262 C   0  0  0  0  0  0  0  0  0  0  0  0
    6.8256  -12.2142   27.1938 S   0  0  0  0  0  0  0  0  0  0  0  0
    6.1877  -13.7656   26.4925 C   0  0  0  0  0  0  0  0  0  0  0  0
    7.1499  -14.3862   25.5421 C   0  0  0  0  0  0  0  0  0  0  0  0
    6.4980  -15.5847   24.8778 C   0  0  2  0  0  0  0  0  0  0  0  0
    6.1629  -16.5454   25.8784 N   0  0  0  0  0  0  0  0  0  0  0  0
    7.3970  -16.0604   23.8156 C   0  0  0  0  0  0  0  0  0  0  0  0
    7.6556  -17.3088   23.8377 O   0  0  0  0  0  0  0  0  0  0  0  0
    7.9820  -15.2796   22.8063 N   0  0  0  0  0  0  0  0  0  0  0  0
    7.8595  -13.8085   22.7744 C   0  0  0  0  0  0  0  0  0  0  0  0
    8.4474  -13.3744   21.4826 C   0  0  0  0  0  0  0  0  0  0  0  0
    8.3590  -14.6244   20.6086 C   0  0  0  0  0  0  0  0  0  0  0  0
    8.7462  -15.6836   21.6663 C   0  0  1  0  0  0  0  0  0  0  0  0
   10.2020  -15.5656   21.7983 C   0  0  0  0  0  0  0  0  0  0  0  0
   10.6270  -14.6124   22.5402 O   0  0  0  0  0  0  0  0  0  0  0  0
   15.4712  -14.4052   21.6173 N   0  0  0  0  0  0  0  0  0  0  0  0
   14.2450  -14.7800   20.9546 C   0  0  0  0  0  0  0  0  0  0  0  0
   14.2477  -14.8911   19.6931 O   0  0  0  0  0  0  0  0  0  0  0  0
   13.0563  -15.0101   21.8075 C   0  0  0  0  0  0  0  0  0  0  0  0
   12.5556  -16.4137   21.5446 C   0  0  2  0  0  0  0  0  0  0  0  0
   11.1520  -16.4109   21.1827 N   0  0  0  0  0  0  0  0  0  0  0  0
   12.7523  -17.2325   22.7337 C   0  0  0  0  0  0  0  0  0  0  0  0
   12.0675  -17.0812   23.9293 O   0  0  0  0  0  0  0  0  0  0  0  0
   13.6066  -18.1635   22.7155 O   0  0  0  0  0  0  0  0  0  0  0  0
  2  1  1  0
  2  3  1  0
  4  3  1  0
  5  4  1  0
  5  6  1  1
  7  5  1  0
  8  7  2  0
  9  7  1  0
 10  9  1  0
 11 10  1  0
 12 11  1  0
 12 13  1  0
 13  9  1  0
 13 14  1  1
 15 14  2  0
 16 17  1  0
 17 18  2  0
 19 17  1  0
 20 19  1  1
 20 21  1  0
 21 14  1  0
 22 23  1  0
 22 20  1  0
 24 22  2  0
M  END
$$$$
