MPN.pdb
     RDKit          3D

 24 24  0  0  1  0  0  0  0  0999 V2000
    6.0709  -12.0663   27.1946 C   0  0  0  0  0  0  0  0  0  0  0  0
    7.6148  -13.0369   27.0068 S   0  0  0  0  0  0  0  0  0  0  0  0
    7.2079  -14.7942   26.7792 C   0  0  0  0  0  0  0  0  0  0  0  0
    6.4925  -15.0406   25.4979 C   0  0  0  0  0  0  0  0  0  0  0  0
    6.4963  -16.5281   25.1981 C   0  0  2  0  0  0  0  0  0  0  0  0
    6.8022  -17.2426   26.3949 N   0  0  0  0  0  0  0  0  0  0  0  0
    7.4078  -16.7617   24.0679 C   0  0  0  0  0  0  0  0  0  0  0  0
    7.8659  -17.9478   23.9720 O   0  0  0  0  0  0  0  0  0  0  0  0
    7.8090  -15.8164   23.1109 N   0  0  0  0  0  0  0  0  0  0  0  0
    7.2598  -14.4463   23.0751 C   0  0  0  0  0  0  0  0  0  0  0  0
    7.7871  -13.8236   21.8352 C   0  0  0  0  0  0  0  0  0  0  0  0
    8.1371  -15.0202   20.9522 C   0  0  0  0  0  0  0  0  0  0  0  0
    8.7407  -15.9466   22.0330 C   0  0  1  0  0  0  0  0  0  0  0  0
   10.0826  -15.4089   22.2796 C   0  0  0  0  0  0  0  0  0  0  0  0
   10.1536  -14.4111   23.0789 O   0  0  0  0  0  0  0  0  0  0  0  0
   12.1936  -15.5127   24.9798 N   0  0  0  0  0  0  0  0  0  0  0  0
   11.8969  -16.9162   24.8206 C   0  0  0  0  0  0  0  0  0  0  0  0
   11.5862  -17.5899   25.8469 O   0  0  0  0  0  0  0  0  0  0  0  0
   11.9786  -17.4754   23.4517 C   0  0  0  0  0  0  0  0  0  0  0  0
   12.3973  -16.3628   22.5153 C   0  0  2  0  0  0  0  0  0  0  0  0
   11.2798  -15.9023   21.7148 N   0  0  0  0  0  0  0  0  0  0  0  0
   13.4627  -16.8358   21.6413 C   0  0  0  0  0  0  0  0  0  0  0  0
   14.7825  -16.4152   21.6918 O   0  0  0  0  0  0  0  0  0  0  0  0
   13.2045  -17.6959   20.7523 O   0  0  0  0  0  0  0  0  0  0  0  0
  2  1  1  0
  2  3  1  0
  4  3  1  0
  5  4  1  0
  5  6  1  1
  7  5  1  0
  8  7  2  0
  9  7  1  0
 10  9  1  0
 11 10  1  0
 12 11  1  0
 12 13  1  0
 13  9  1  0
 13 14  1  1
 15 14  2  0
 16 17  1  0
 17 18  2  0
 19 17  1  0
 20 19  1  1
 20 21  1  0
 21 14  1  0
 22 23  1  0
 22 20  1  0
 24 22  2  0
M  END
$$$$
