MPN.pdb
     RDKit          3D

 24 24  0  0  1  0  0  0  0  0999 V2000
    7.2642  -11.2938   26.3002 C   0  0  0  0  0  0  0  0  0  0  0  0
    7.1437  -12.9316   27.1151 S   0  0  0  0  0  0  0  0  0  0  0  0
    6.3293  -14.1119   25.9974 C   0  0  0  0  0  0  0  0  0  0  0  0
    7.2082  -14.5040   24.8625 C   0  0  0  0  0  0  0  0  0  0  0  0
    6.5038  -15.5512   24.0199 C   0  0  2  0  0  0  0  0  0  0  0  0
    6.1896  -16.6747   24.8417 N   0  0  0  0  0  0  0  0  0  0  0  0
    7.3479  -15.8359   22.8497 C   0  0  0  0  0  0  0  0  0  0  0  0
    7.5716  -17.0711   22.6255 O   0  0  0  0  0  0  0  0  0  0  0  0
    7.9160  -14.8906   21.9813 N   0  0  0  0  0  0  0  0  0  0  0  0
    7.7855  -13.4365   22.2015 C   0  0  0  0  0  0  0  0  0  0  0  0
    8.3547  -12.7847   20.9957 C   0  0  0  0  0  0  0  0  0  0  0  0
    8.2615  -13.8684   19.9229 C   0  0  0  0  0  0  0  0  0  0  0  0
    8.6676  -15.0893   20.7802 C   0  0  1  0  0  0  0  0  0  0  0  0
   10.1244  -14.9850   20.9133 C   0  0  0  0  0  0  0  0  0  0  0  0
   10.5769  -13.8514   21.3004 O   0  0  0  0  0  0  0  0  0  0  0  0
   12.9338  -13.4280   18.7068 N   0  0  0  0  0  0  0  0  0  0  0  0
   13.5343  -14.4282   19.5566 C   0  0  0  0  0  0  0  0  0  0  0  0
   14.4816  -15.1284   19.0918 O   0  0  0  0  0  0  0  0  0  0  0  0
   12.9927  -14.5666   20.9280 C   0  0  0  0  0  0  0  0  0  0  0  0
   12.4343  -15.9657   21.0723 C   0  0  2  0  0  0  0  0  0  0  0  0
   11.0474  -16.0228   20.6547 N   0  0  0  0  0  0  0  0  0  0  0  0
   12.5450  -16.3943   22.4604 C   0  0  0  0  0  0  0  0  0  0  0  0
   13.5552  -17.1947   22.9706 O   0  0  0  0  0  0  0  0  0  0  0  0
   11.6703  -16.0310   23.2970 O   0  0  0  0  0  0  0  0  0  0  0  0
  2  1  1  0
  2  3  1  0
  4  3  1  0
  5  4  1  0
  5  6  1  1
  7  5  1  0
  8  7  2  0
  9  7  1  0
 10  9  1  0
 11 10  1  0
 12 11  1  0
 12 13  1  0
 13  9  1  0
 13 14  1  1
 15 14  2  0
 16 17  1  0
 17 18  2  0
 19 17  1  0
 20 19  1  1
 20 21  1  0
 21 14  1  0
 22 23  1  0
 22 20  1  0
 24 22  2  0
M  END
$$$$
