MPN.pdb
     RDKit          3D

 24 24  0  0  1  0  0  0  0  0999 V2000
    6.3484  -12.0091   25.9918 C   0  0  0  0  0  0  0  0  0  0  0  0
    6.8837  -13.2280   27.2522 S   0  0  0  0  0  0  0  0  0  0  0  0
    7.2602  -14.8142   26.4473 C   0  0  0  0  0  0  0  0  0  0  0  0
    6.2373  -15.1814   25.4309 C   0  0  0  0  0  0  0  0  0  0  0  0
    6.3830  -16.6504   25.0794 C   0  0  2  0  0  0  0  0  0  0  0  0
    6.5441  -17.4022   26.2816 N   0  0  0  0  0  0  0  0  0  0  0  0
    7.4725  -16.7774   24.0996 C   0  0  0  0  0  0  0  0  0  0  0  0
    8.2112  -17.8079   24.2351 O   0  0  0  0  0  0  0  0  0  0  0  0
    7.7638  -15.8849   23.0561 N   0  0  0  0  0  0  0  0  0  0  0  0
    7.0395  -14.6102   22.8811 C   0  0  0  0  0  0  0  0  0  0  0  0
    7.5040  -14.0468   21.5890 C   0  0  0  0  0  0  0  0  0  0  0  0
    8.0259  -15.2664   20.8312 C   0  0  0  0  0  0  0  0  0  0  0  0
    8.7253  -15.9943   22.0022 C   0  0  1  0  0  0  0  0  0  0  0  0
    9.9795  -15.2612   22.2027 C   0  0  0  0  0  0  0  0  0  0  0  0
    9.8744  -14.0878   22.7045 O   0  0  0  0  0  0  0  0  0  0  0  0
   14.2678  -16.1736   24.6041 N   0  0  0  0  0  0  0  0  0  0  0  0
   13.0508  -16.8627   24.9610 C   0  0  0  0  0  0  0  0  0  0  0  0
   13.0393  -17.5653   26.0146 O   0  0  0  0  0  0  0  0  0  0  0  0
   11.8884  -16.6975   24.0584 C   0  0  0  0  0  0  0  0  0  0  0  0
   12.3270  -15.8574   22.8785 C   0  0  2  0  0  0  0  0  0  0  0  0
   11.2702  -15.7449   21.8928 N   0  0  0  0  0  0  0  0  0  0  0  0
   13.5059  -16.4552   22.2655 C   0  0  0  0  0  0  0  0  0  0  0  0
   13.5272  -17.6645   21.5884 O   0  0  0  0  0  0  0  0  0  0  0  0
   14.6167  -15.8568   22.3357 O   0  0  0  0  0  0  0  0  0  0  0  0
  2  1  1  0
  2  3  1  0
  4  3  1  0
  5  4  1  0
  5  6  1  1
  7  5  1  0
  8  7  2  0
  9  7  1  0
 10  9  1  0
 11 10  1  0
 12 11  1  0
 12 13  1  0
 13  9  1  0
 13 14  1  1
 15 14  2  0
 16 17  1  0
 17 18  2  0
 19 17  1  0
 20 19  1  1
 20 21  1  0
 21 14  1  0
 22 23  1  0
 22 20  1  0
 24 22  2  0
M  END
$$$$
