MPN.pdb
     RDKit          3D

 24 24  0  0  1  0  0  0  0  0999 V2000
    9.2016  -12.8122   28.2732 C   0  0  0  0  0  0  0  0  0  0  0  0
    7.6121  -13.1392   27.4203 S   0  0  0  0  0  0  0  0  0  0  0  0
    7.6599  -14.7847   26.6484 C   0  0  0  0  0  0  0  0  0  0  0  0
    6.4380  -15.0606   25.8453 C   0  0  0  0  0  0  0  0  0  0  0  0
    6.4206  -16.5238   25.4434 C   0  0  2  0  0  0  0  0  0  0  0  0
    6.8287  -17.3166   26.5576 N   0  0  0  0  0  0  0  0  0  0  0  0
    7.2339  -16.6708   24.2269 C   0  0  0  0  0  0  0  0  0  0  0  0
    7.4254  -17.8705   23.8399 O   0  0  0  0  0  0  0  0  0  0  0  0
    7.8049  -15.6320   23.4750 N   0  0  0  0  0  0  0  0  0  0  0  0
    7.6850  -14.2138   23.8679 C   0  0  0  0  0  0  0  0  0  0  0  0
    8.2537  -13.4262   22.7458 C   0  0  0  0  0  0  0  0  0  0  0  0
    8.1493  -14.3735   21.5517 C   0  0  0  0  0  0  0  0  0  0  0  0
    8.5505  -15.6905   22.2553 C   0  0  1  0  0  0  0  0  0  0  0  0
   10.0085  -15.6117   22.3932 C   0  0  0  0  0  0  0  0  0  0  0  0
   10.5410  -14.4779   22.1276 O   0  0  0  0  0  0  0  0  0  0  0  0
   12.6120  -15.7146   27.1397 N   0  0  0  0  0  0  0  0  0  0  0  0
   12.7786  -15.4466   25.7313 C   0  0  0  0  0  0  0  0  0  0  0  0
   13.9208  -15.0948   25.3125 O   0  0  0  0  0  0  0  0  0  0  0  0
   11.5871  -15.6033   24.8658 C   0  0  0  0  0  0  0  0  0  0  0  0
   11.9675  -16.4916   23.7013 C   0  0  2  0  0  0  0  0  0  0  0  0
   10.8524  -16.6719   22.7928 N   0  0  0  0  0  0  0  0  0  0  0  0
   12.4064  -17.7884   24.2000 C   0  0  0  0  0  0  0  0  0  0  0  0
   11.8061  -19.0023   23.9042 O   0  0  0  0  0  0  0  0  0  0  0  0
   13.4085  -17.8549   24.9669 O   0  0  0  0  0  0  0  0  0  0  0  0
  2  1  1  0
  2  3  1  0
  4  3  1  0
  5  4  1  0
  5  6  1  1
  7  5  1  0
  8  7  2  0
  9  7  1  0
 10  9  1  0
 11 10  1  0
 12 11  1  0
 12 13  1  0
 13  9  1  0
 13 14  1  1
 15 14  2  0
 16 17  1  0
 17 18  2  0
 19 17  1  0
 20 19  1  1
 20 21  1  0
 21 14  1  0
 22 23  1  0
 22 20  1  0
 24 22  2  0
M  END
$$$$
