VWY.pdb
     RDKit          3D

 34 36  0  0  1  0  0  0  0  0999 V2000
    7.0489  -13.4924   19.6675 C   0  0  0  0  0  0  0  0  0  0  0  0
    7.9321  -14.1670   18.5805 C   0  0  2  0  0  0  0  0  0  0  0  0
    6.9177  -14.7642   17.6271 C   0  0  0  0  0  0  0  0  0  0  0  0
    8.7997  -15.1864   19.2566 C   0  0  2  0  0  0  0  0  0  0  0  0
    7.9408  -16.3825   19.3936 N   0  0  0  0  0  0  0  0  0  0  0  0
    9.3143  -14.8604   20.5728 C   0  0  0  0  0  0  0  0  0  0  0  0
   10.0203  -13.7895   20.7114 O   0  0  0  0  0  0  0  0  0  0  0  0
    9.1124  -15.6155   21.7527 N   0  0  0  0  0  0  0  0  0  0  0  0
    9.6898  -15.1956   23.0399 C   0  0  1  0  0  0  0  0  0  0  0  0
    9.1500  -13.8668   23.4304 C   0  0  0  0  0  0  0  0  0  0  0  0
    8.0333  -13.9235   24.3745 C   0  0  0  0  0  0  0  0  0  0  0  0
    7.3504  -15.0838   24.7199 C   0  0  0  0  0  0  0  0  0  0  0  0
    6.3969  -14.7735   25.5992 N   0  0  0  0  0  0  0  0  0  0  0  0
    6.3992  -13.4604   25.8677 C   0  0  0  0  0  0  0  0  0  0  0  0
    5.6231  -12.6747   26.6935 C   0  0  0  0  0  0  0  0  0  0  0  0
    5.8702  -11.3200   26.7605 C   0  0  0  0  0  0  0  0  0  0  0  0
    6.9015  -10.7863   25.9879 C   0  0  0  0  0  0  0  0  0  0  0  0
    7.6810  -11.5678   25.1606 C   0  0  0  0  0  0  0  0  0  0  0  0
    7.4345  -12.9255   25.0923 C   0  0  0  0  0  0  0  0  0  0  0  0
    9.3828  -16.1994   24.1203 C   0  0  0  0  0  0  0  0  0  0  0  0
    8.8230  -17.2867   23.8515 O   0  0  0  0  0  0  0  0  0  0  0  0
   13.2268  -18.6565   31.7392 O   0  0  0  0  0  0  0  0  0  0  0  0
   12.7305  -17.9975   30.6429 C   0  0  0  0  0  0  0  0  0  0  0  0
   13.2911  -18.1964   29.3978 C   0  0  0  0  0  0  0  0  0  0  0  0
   12.7864  -17.5323   28.3119 C   0  0  0  0  0  0  0  0  0  0  0  0
   11.7257  -16.6766   28.4873 C   0  0  0  0  0  0  0  0  0  0  0  0
   11.1643  -15.9422   27.3527 C   0  0  0  0  0  0  0  0  0  0  0  0
   10.6426  -16.8151   26.2331 C   0  0  2  0  0  0  0  0  0  0  0  0
    9.7061  -15.9666   25.4794 N   0  0  0  0  0  0  0  0  0  0  0  0
    9.9603  -18.0283   26.7315 C   0  0  0  0  0  0  0  0  0  0  0  0
   10.5341  -19.0781   27.0740 O   0  0  0  0  0  0  0  0  0  0  0  0
   11.1570  -16.4718   29.7355 C   0  0  0  0  0  0  0  0  0  0  0  0
   11.6706  -17.1440   30.8234 C   0  0  0  0  0  0  0  0  0  0  0  0
    8.5768  -18.0057   26.8293 O   0  0  0  0  0  0  0  0  0  0  0  0
  2  1  1  1
  2  3  1  0
  4  2  1  0
  4  5  1  1
  6  4  1  0
  6  8  1  0
  7  6  2  0
  9  8  1  0
  9 20  1  0
  9 10  1  1
 11 19  1  0
 11 10  1  0
 12 11  2  0
 13 12  1  0
 13 14  1  0
 14 15  1  0
 14 19  2  0
 15 16  2  0
 16 17  1  0
 18 17  2  0
 19 18  1  0
 20 29  1  0
 21 20  2  0
 22 23  1  0
 23 24  2  0
 23 33  1  0
 24 25  1  0
 25 26  2  0
 26 27  1  0
 28 27  1  1
 28 30  1  0
 29 28  1  0
 30 31  2  0
 30 34  1  0
 32 26  1  0
 33 32  2  0
M  END
$$$$
