VWY.pdb
     RDKit          3D

 34 36  0  0  1  0  0  0  0  0999 V2000
    8.5371  -16.8970   18.2642 C   0  0  0  0  0  0  0  0  0  0  0  0
    9.1972  -18.2200   18.7446 C   0  0  2  0  0  0  0  0  0  0  0  0
    8.5878  -19.2655   17.8335 C   0  0  0  0  0  0  0  0  0  0  0  0
    8.8565  -18.4075   20.1930 C   0  0  2  0  0  0  0  0  0  0  0  0
    7.4108  -18.7187   20.2039 N   0  0  0  0  0  0  0  0  0  0  0  0
    9.0716  -17.2823   21.0825 C   0  0  0  0  0  0  0  0  0  0  0  0
   10.2775  -16.8615   21.2646 O   0  0  0  0  0  0  0  0  0  0  0  0
    8.0663  -16.5778   21.7869 N   0  0  0  0  0  0  0  0  0  0  0  0
    8.4025  -15.6484   22.8776 C   0  0  1  0  0  0  0  0  0  0  0  0
    7.4464  -14.5104   22.8893 C   0  0  0  0  0  0  0  0  0  0  0  0
    7.7222  -13.5017   23.9131 C   0  0  0  0  0  0  0  0  0  0  0  0
    8.7929  -12.6160   23.8796 C   0  0  0  0  0  0  0  0  0  0  0  0
    8.7413  -11.8411   24.9638 N   0  0  0  0  0  0  0  0  0  0  0  0
    7.6886  -12.1569   25.7310 C   0  0  0  0  0  0  0  0  0  0  0  0
    7.2194  -11.6533   26.9259 C   0  0  0  0  0  0  0  0  0  0  0  0
    6.0831  -12.1977   27.4857 C   0  0  0  0  0  0  0  0  0  0  0  0
    5.4426  -13.2442   26.8223 C   0  0  0  0  0  0  0  0  0  0  0  0
    5.9077  -13.7513   25.6267 C   0  0  0  0  0  0  0  0  0  0  0  0
    7.0462  -13.2068   25.0646 C   0  0  0  0  0  0  0  0  0  0  0  0
    8.3663  -16.3482   24.2111 C   0  0  0  0  0  0  0  0  0  0  0  0
    7.3384  -16.9503   24.5969 O   0  0  0  0  0  0  0  0  0  0  0  0
   12.6269  -23.3857   25.7506 O   0  0  0  0  0  0  0  0  0  0  0  0
   12.0471  -22.1814   25.4407 C   0  0  0  0  0  0  0  0  0  0  0  0
   10.6740  -22.0458   25.4532 C   0  0  0  0  0  0  0  0  0  0  0  0
   10.1080  -20.8384   25.1418 C   0  0  0  0  0  0  0  0  0  0  0  0
   10.9257  -19.7815   24.8214 C   0  0  0  0  0  0  0  0  0  0  0  0
   10.3580  -18.4780   24.4743 C   0  0  0  0  0  0  0  0  0  0  0  0
   10.0313  -17.5972   25.6596 C   0  0  2  0  0  0  0  0  0  0  0  0
    9.4793  -16.3594   25.0870 N   0  0  0  0  0  0  0  0  0  0  0  0
   11.2179  -17.3025   26.4907 C   0  0  0  0  0  0  0  0  0  0  0  0
   11.4185  -17.7560   27.6321 O   0  0  0  0  0  0  0  0  0  0  0  0
   12.3064  -19.9103   24.8069 C   0  0  0  0  0  0  0  0  0  0  0  0
   12.8682  -21.1286   25.1217 C   0  0  0  0  0  0  0  0  0  0  0  0
   12.1872  -16.4585   25.9688 O   0  0  0  0  0  0  0  0  0  0  0  0
  2  1  1  6
  2  3  1  0
  4  2  1  0
  4  5  1  6
  6  4  1  0
  6  8  1  0
  7  6  2  0
  9  8  1  0
  9 20  1  0
  9 10  1  1
 11 19  1  0
 11 10  1  0
 12 11  2  0
 13 12  1  0
 13 14  1  0
 14 15  1  0
 14 19  2  0
 15 16  2  0
 16 17  1  0
 18 17  2  0
 19 18  1  0
 20 29  1  0
 21 20  2  0
 22 23  1  0
 23 24  2  0
 23 33  1  0
 24 25  1  0
 25 26  2  0
 26 27  1  0
 28 27  1  6
 28 30  1  0
 29 28  1  0
 30 31  2  0
 30 34  1  0
 32 26  1  0
 33 32  2  0
M  END
$$$$
