VWY.pdb
     RDKit          3D

 34 36  0  0  1  0  0  0  0  0999 V2000
    8.7889  -14.6514   16.2015 C   0  0  0  0  0  0  0  0  0  0  0  0
    9.2686  -14.6250   17.6799 C   0  0  2  0  0  0  0  0  0  0  0  0
    9.4534  -16.0910   18.0136 C   0  0  0  0  0  0  0  0  0  0  0  0
    8.2098  -13.9475   18.4978 C   0  0  2  0  0  0  0  0  0  0  0  0
    8.2556  -12.5307   18.0765 N   0  0  0  0  0  0  0  0  0  0  0  0
    8.3534  -13.9829   19.9406 C   0  0  0  0  0  0  0  0  0  0  0  0
    9.2461  -13.2310   20.4904 O   0  0  0  0  0  0  0  0  0  0  0  0
    7.5914  -14.7767   20.8308 N   0  0  0  0  0  0  0  0  0  0  0  0
    7.8644  -14.7837   22.2772 C   0  0  1  0  0  0  0  0  0  0  0  0
    6.6174  -15.0826   23.0289 C   0  0  0  0  0  0  0  0  0  0  0  0
    6.7780  -15.0926   24.4835 C   0  0  0  0  0  0  0  0  0  0  0  0
    6.9098  -16.2413   25.2547 C   0  0  0  0  0  0  0  0  0  0  0  0
    7.0357  -15.8858   26.5339 N   0  0  0  0  0  0  0  0  0  0  0  0
    6.9960  -14.5529   26.6687 C   0  0  0  0  0  0  0  0  0  0  0  0
    7.0825  -13.7222   27.7661 C   0  0  0  0  0  0  0  0  0  0  0  0
    7.0063  -12.3576   27.5849 C   0  0  0  0  0  0  0  0  0  0  0  0
    6.8438  -11.8598   26.2921 C   0  0  0  0  0  0  0  0  0  0  0  0
    6.7570  -12.6863   25.1911 C   0  0  0  0  0  0  0  0  0  0  0  0
    6.8330  -14.0539   25.3712 C   0  0  0  0  0  0  0  0  0  0  0  0
    8.9155  -15.8063   22.6213 C   0  0  0  0  0  0  0  0  0  0  0  0
    8.8057  -16.9964   22.2476 O   0  0  0  0  0  0  0  0  0  0  0  0
   12.8608  -15.3834   17.6072 O   0  0  0  0  0  0  0  0  0  0  0  0
   12.7416  -15.4521   18.9723 C   0  0  0  0  0  0  0  0  0  0  0  0
   12.3181  -14.3527   19.6907 C   0  0  0  0  0  0  0  0  0  0  0  0
   12.2035  -14.4346   21.0528 C   0  0  0  0  0  0  0  0  0  0  0  0
   12.5152  -15.6177   21.6783 C   0  0  0  0  0  0  0  0  0  0  0  0
   12.4138  -15.7415   23.1330 C   0  0  0  0  0  0  0  0  0  0  0  0
   11.1602  -16.4328   23.6208 C   0  0  2  0  0  0  0  0  0  0  0  0
   10.0671  -15.4784   23.3778 N   0  0  0  0  0  0  0  0  0  0  0  0
   11.2310  -16.7896   25.0538 C   0  0  0  0  0  0  0  0  0  0  0  0
   12.0975  -17.5234   25.5631 O   0  0  0  0  0  0  0  0  0  0  0  0
   12.9412  -16.7267   20.9629 C   0  0  0  0  0  0  0  0  0  0  0  0
   13.0537  -16.6363   19.5924 C   0  0  0  0  0  0  0  0  0  0  0  0
   10.2642  -16.2728   25.9038 O   0  0  0  0  0  0  0  0  0  0  0  0
  2  1  1  6
  2  3  1  0
  4  2  1  0
  4  5  1  6
  6  4  1  0
  6  8  1  0
  7  6  2  0
  9  8  1  0
  9 20  1  0
  9 10  1  1
 11 19  1  0
 11 10  1  0
 12 11  2  0
 13 12  1  0
 13 14  1  0
 14 15  1  0
 14 19  2  0
 15 16  2  0
 16 17  1  0
 18 17  2  0
 19 18  1  0
 20 29  1  0
 21 20  2  0
 22 23  1  0
 23 24  2  0
 23 33  1  0
 24 25  1  0
 25 26  2  0
 26 27  1  0
 28 27  1  1
 28 30  1  0
 29 28  1  0
 30 31  2  0
 30 34  1  0
 32 26  1  0
 33 32  2  0
M  END
$$$$
