VWY.pdb
     RDKit          3D

 34 36  0  0  1  0  0  0  0  0999 V2000
   10.7664  -20.2160   21.5702 C   0  0  0  0  0  0  0  0  0  0  0  0
    9.6366  -20.4441   22.6135 C   0  0  2  0  0  0  0  0  0  0  0  0
    9.4563  -21.9482   22.6101 C   0  0  0  0  0  0  0  0  0  0  0  0
    8.4247  -19.6888   22.1554 C   0  0  2  0  0  0  0  0  0  0  0  0
    8.0210  -20.3501   20.8958 N   0  0  0  0  0  0  0  0  0  0  0  0
    8.5826  -18.2738   21.8791 C   0  0  0  0  0  0  0  0  0  0  0  0
    8.9811  -17.9150   20.7057 O   0  0  0  0  0  0  0  0  0  0  0  0
    8.3340  -17.2183   22.7887 N   0  0  0  0  0  0  0  0  0  0  0  0
    8.6389  -15.8204   22.4428 C   0  0  1  0  0  0  0  0  0  0  0  0
    7.4292  -14.9759   22.6243 C   0  0  0  0  0  0  0  0  0  0  0  0
    7.0291  -14.7876   24.0193 C   0  0  0  0  0  0  0  0  0  0  0  0
    6.5634  -15.8000   24.8499 C   0  0  0  0  0  0  0  0  0  0  0  0
    6.2919  -15.2800   26.0476 N   0  0  0  0  0  0  0  0  0  0  0  0
    6.5505  -13.9651   26.0708 C   0  0  0  0  0  0  0  0  0  0  0  0
    6.4342  -13.0076   27.0564 C   0  0  0  0  0  0  0  0  0  0  0  0
    6.7860  -11.7048   26.7740 C   0  0  0  0  0  0  0  0  0  0  0  0
    7.2501  -11.3966   25.4953 C   0  0  0  0  0  0  0  0  0  0  0  0
    7.3686  -12.3505   24.5059 C   0  0  0  0  0  0  0  0  0  0  0  0
    7.0164  -13.6564   24.7875 C   0  0  0  0  0  0  0  0  0  0  0  0
    9.7572  -15.2860   23.2988 C   0  0  0  0  0  0  0  0  0  0  0  0
    9.5231  -14.5320   24.2707 O   0  0  0  0  0  0  0  0  0  0  0  0
    9.7764  -14.6820   29.9461 O   0  0  0  0  0  0  0  0  0  0  0  0
   10.2364  -15.1554   28.7433 C   0  0  0  0  0  0  0  0  0  0  0  0
   10.5386  -14.2805   27.7200 C   0  0  0  0  0  0  0  0  0  0  0  0
   10.9967  -14.7662   26.5244 C   0  0  0  0  0  0  0  0  0  0  0  0
   11.1460  -16.1233   26.3691 C   0  0  0  0  0  0  0  0  0  0  0  0
   11.6245  -16.6809   25.1034 C   0  0  0  0  0  0  0  0  0  0  0  0
   12.1300  -15.6550   24.1138 C   0  0  2  0  0  0  0  0  0  0  0  0
   11.1149  -15.6040   23.0500 N   0  0  0  0  0  0  0  0  0  0  0  0
   13.4521  -16.0098   23.5553 C   0  0  0  0  0  0  0  0  0  0  0  0
   13.6362  -16.5533   22.4510 O   0  0  0  0  0  0  0  0  0  0  0  0
   10.8445  -17.0086   27.3931 C   0  0  0  0  0  0  0  0  0  0  0  0
   10.3842  -16.5119   28.5933 C   0  0  0  0  0  0  0  0  0  0  0  0
   14.5790  -15.7194   24.3102 O   0  0  0  0  0  0  0  0  0  0  0  0
  2  1  1  6
  2  3  1  0
  4  2  1  0
  4  5  1  6
  6  4  1  0
  6  8  1  0
  7  6  2  0
  9  8  1  0
  9 20  1  0
  9 10  1  1
 11 19  1  0
 11 10  1  0
 12 11  2  0
 13 12  1  0
 13 14  1  0
 14 15  1  0
 14 19  2  0
 15 16  2  0
 16 17  1  0
 18 17  2  0
 19 18  1  0
 20 29  1  0
 21 20  2  0
 22 23  1  0
 23 24  2  0
 23 33  1  0
 24 25  1  0
 25 26  2  0
 26 27  1  0
 28 27  1  1
 28 30  1  0
 29 28  1  0
 30 31  2  0
 30 34  1  0
 32 26  1  0
 33 32  2  0
M  END
$$$$
