VWY.pdb
     RDKit          3D

 34 36  0  0  1  0  0  0  0  0999 V2000
    9.8796  -21.2561   18.7253 C   0  0  0  0  0  0  0  0  0  0  0  0
   10.2373  -19.9929   19.5578 C   0  0  2  0  0  0  0  0  0  0  0  0
   10.1541  -20.4823   20.9890 C   0  0  0  0  0  0  0  0  0  0  0  0
    9.2405  -18.9227   19.2258 C   0  0  2  0  0  0  0  0  0  0  0  0
    9.4898  -18.6020   17.8038 N   0  0  0  0  0  0  0  0  0  0  0  0
    9.3137  -17.6837   19.9762 C   0  0  0  0  0  0  0  0  0  0  0  0
   10.3810  -16.9653   19.8786 O   0  0  0  0  0  0  0  0  0  0  0  0
    8.3054  -17.1668   20.8243 N   0  0  0  0  0  0  0  0  0  0  0  0
    8.5499  -15.9941   21.6797 C   0  0  1  0  0  0  0  0  0  0  0  0
    7.2599  -15.3505   22.0417 C   0  0  0  0  0  0  0  0  0  0  0  0
    7.3970  -14.1353   22.8453 C   0  0  0  0  0  0  0  0  0  0  0  0
    7.8867  -12.9251   22.3683 C   0  0  0  0  0  0  0  0  0  0  0  0
    7.8749  -12.0368   23.3629 N   0  0  0  0  0  0  0  0  0  0  0  0
    7.4013  -12.5841   24.4909 C   0  0  0  0  0  0  0  0  0  0  0  0
    7.1994  -12.0821   25.7594 C   0  0  0  0  0  0  0  0  0  0  0  0
    6.6857  -12.9082   26.7362 C   0  0  0  0  0  0  0  0  0  0  0  0
    6.3853  -14.2302   26.4081 C   0  0  0  0  0  0  0  0  0  0  0  0
    6.5851  -14.7372   25.1409 C   0  0  0  0  0  0  0  0  0  0  0  0
    7.1000  -13.9105   24.1611 C   0  0  0  0  0  0  0  0  0  0  0  0
    9.2842  -16.3875   22.9347 C   0  0  0  0  0  0  0  0  0  0  0  0
    8.8330  -17.2730   23.6965 O   0  0  0  0  0  0  0  0  0  0  0  0
   11.0013  -15.3940   31.0070 O   0  0  0  0  0  0  0  0  0  0  0  0
   10.7127  -15.4166   29.6659 C   0  0  0  0  0  0  0  0  0  0  0  0
   10.2214  -16.5645   29.0784 C   0  0  0  0  0  0  0  0  0  0  0  0
    9.9376  -16.5737   27.7388 C   0  0  0  0  0  0  0  0  0  0  0  0
   10.1500  -15.4320   27.0043 C   0  0  0  0  0  0  0  0  0  0  0  0
    9.8670  -15.4055   25.5686 C   0  0  0  0  0  0  0  0  0  0  0  0
   11.0250  -15.8237   24.6903 C   0  0  2  0  0  0  0  0  0  0  0  0
   10.5071  -15.7818   23.3137 N   0  0  0  0  0  0  0  0  0  0  0  0
   11.5249  -17.1759   25.0176 C   0  0  0  0  0  0  0  0  0  0  0  0
   12.2400  -17.4530   25.9977 O   0  0  0  0  0  0  0  0  0  0  0  0
   10.6433  -14.2747   27.5878 C   0  0  0  0  0  0  0  0  0  0  0  0
   10.9262  -14.2735   28.9365 C   0  0  0  0  0  0  0  0  0  0  0  0
   11.1766  -18.2222   24.1761 O   0  0  0  0  0  0  0  0  0  0  0  0
  2  1  1  6
  2  3  1  0
  4  2  1  0
  4  5  1  6
  6  4  1  0
  6  8  1  0
  7  6  2  0
  9  8  1  0
  9 20  1  0
  9 10  1  1
 11 19  1  0
 11 10  1  0
 12 11  2  0
 13 12  1  0
 13 14  1  0
 14 15  1  0
 14 19  2  0
 15 16  2  0
 16 17  1  0
 18 17  2  0
 19 18  1  0
 20 29  1  0
 21 20  2  0
 22 23  1  0
 23 24  2  0
 23 33  1  0
 24 25  1  0
 25 26  2  0
 26 27  1  0
 28 27  1  1
 28 30  1  0
 29 28  1  0
 30 31  2  0
 30 34  1  0
 32 26  1  0
 33 32  2  0
M  END
$$$$
