VWY.pdb
     RDKit          3D

 34 36  0  0  1  0  0  0  0  0999 V2000
   10.0327  -20.9755   18.0518 C   0  0  0  0  0  0  0  0  0  0  0  0
   10.2731  -20.1234   19.3297 C   0  0  2  0  0  0  0  0  0  0  0  0
    9.3811  -20.7821   20.3619 C   0  0  0  0  0  0  0  0  0  0  0  0
    9.8936  -18.7062   19.0188 C   0  0  2  0  0  0  0  0  0  0  0  0
   10.9022  -18.2516   18.0374 N   0  0  0  0  0  0  0  0  0  0  0  0
    9.8886  -17.7583   20.1165 C   0  0  0  0  0  0  0  0  0  0  0  0
   11.0145  -17.4328   20.6559 O   0  0  0  0  0  0  0  0  0  0  0  0
    8.7443  -17.1348   20.6687 N   0  0  0  0  0  0  0  0  0  0  0  0
    8.8496  -16.2137   21.8120 C   0  0  1  0  0  0  0  0  0  0  0  0
    7.6402  -15.3527   21.8849 C   0  0  0  0  0  0  0  0  0  0  0  0
    7.7364  -14.2587   22.8521 C   0  0  0  0  0  0  0  0  0  0  0  0
    8.4846  -13.1026   22.6635 C   0  0  0  0  0  0  0  0  0  0  0  0
    8.3475  -12.3242   23.7377 N   0  0  0  0  0  0  0  0  0  0  0  0
    7.5433  -12.8947   24.6456 C   0  0  0  0  0  0  0  0  0  0  0  0
    7.1052  -12.4917   25.8895 C   0  0  0  0  0  0  0  0  0  0  0  0
    6.2625  -13.3150   26.6054 C   0  0  0  0  0  0  0  0  0  0  0  0
    5.8787  -14.5336   26.0458 C   0  0  0  0  0  0  0  0  0  0  0  0
    6.3138  -14.9413   24.8019 C   0  0  0  0  0  0  0  0  0  0  0  0
    7.1585  -14.1173   24.0833 C   0  0  0  0  0  0  0  0  0  0  0  0
    9.0030  -16.9744   23.1031 C   0  0  0  0  0  0  0  0  0  0  0  0
    8.1970  -17.8789   23.4196 O   0  0  0  0  0  0  0  0  0  0  0  0
   11.8410  -13.1773   29.6122 O   0  0  0  0  0  0  0  0  0  0  0  0
   11.1980  -14.0648   28.7869 C   0  0  0  0  0  0  0  0  0  0  0  0
    9.8512  -13.9207   28.5233 C   0  0  0  0  0  0  0  0  0  0  0  0
    9.2214  -14.8136   27.6979 C   0  0  0  0  0  0  0  0  0  0  0  0
    9.9495  -15.8405   27.1469 C   0  0  0  0  0  0  0  0  0  0  0  0
    9.3100  -16.8197   26.2671 C   0  0  0  0  0  0  0  0  0  0  0  0
   10.2383  -17.4652   25.2626 C   0  0  2  0  0  0  0  0  0  0  0  0
   10.0531  -16.7073   24.0152 N   0  0  0  0  0  0  0  0  0  0  0  0
    9.9371  -18.8971   25.0514 C   0  0  0  0  0  0  0  0  0  0  0  0
    9.3261  -19.3593   24.0708 O   0  0  0  0  0  0  0  0  0  0  0  0
   11.3032  -15.9916   27.4071 C   0  0  0  0  0  0  0  0  0  0  0  0
   11.9298  -15.0887   28.2387 C   0  0  0  0  0  0  0  0  0  0  0  0
   10.3633  -19.8026   26.0121 O   0  0  0  0  0  0  0  0  0  0  0  0
  2  1  1  6
  2  3  1  0
  4  2  1  0
  4  5  1  6
  6  4  1  0
  6  8  1  0
  7  6  2  0
  9  8  1  0
  9 20  1  0
  9 10  1  1
 11 19  1  0
 11 10  1  0
 12 11  2  0
 13 12  1  0
 13 14  1  0
 14 15  1  0
 14 19  2  0
 15 16  2  0
 16 17  1  0
 18 17  2  0
 19 18  1  0
 20 29  1  0
 21 20  2  0
 22 23  1  0
 23 24  2  0
 23 33  1  0
 24 25  1  0
 25 26  2  0
 26 27  1  0
 28 27  1  1
 28 30  1  0
 29 28  1  0
 30 31  2  0
 30 34  1  0
 32 26  1  0
 33 32  2  0
M  END
$$$$
