VWY.pdb
     RDKit          3D

 34 36  0  0  1  0  0  0  0  0999 V2000
    9.3761  -21.2309   19.4477 C   0  0  0  0  0  0  0  0  0  0  0  0
    9.8366  -20.1982   20.5146 C   0  0  2  0  0  0  0  0  0  0  0  0
    9.1833  -20.6958   21.7875 C   0  0  0  0  0  0  0  0  0  0  0  0
    9.3625  -18.8430   20.0814 C   0  0  2  0  0  0  0  0  0  0  0  0
   10.1537  -18.5350   18.8706 N   0  0  0  0  0  0  0  0  0  0  0  0
    9.5356  -17.7442   21.0121 C   0  0  0  0  0  0  0  0  0  0  0  0
   10.7123  -17.2341   21.1525 O   0  0  0  0  0  0  0  0  0  0  0  0
    8.5174  -17.1565   21.8002 N   0  0  0  0  0  0  0  0  0  0  0  0
    8.8246  -16.1261   22.8055 C   0  0  1  0  0  0  0  0  0  0  0  0
    7.7017  -15.1569   22.9003 C   0  0  0  0  0  0  0  0  0  0  0  0
    7.9651  -14.0126   23.7736 C   0  0  0  0  0  0  0  0  0  0  0  0
    8.9958  -13.0989   23.5874 C   0  0  0  0  0  0  0  0  0  0  0  0
    8.9439  -12.1906   24.5625 N   0  0  0  0  0  0  0  0  0  0  0  0
    7.9289  -12.4426   25.4008 C   0  0  0  0  0  0  0  0  0  0  0  0
    7.4746  -11.8043   26.5357 C   0  0  0  0  0  0  0  0  0  0  0  0
    6.3797  -12.3131   27.2013 C   0  0  0  0  0  0  0  0  0  0  0  0
    5.7644  -13.4613   26.7027 C   0  0  0  0  0  0  0  0  0  0  0  0
    6.2146  -14.1033   25.5678 C   0  0  0  0  0  0  0  0  0  0  0  0
    7.3119  -13.5947   24.8999 C   0  0  0  0  0  0  0  0  0  0  0  0
    9.0666  -16.7477   24.1561 C   0  0  0  0  0  0  0  0  0  0  0  0
    8.2337  -17.5320   24.6649 O   0  0  0  0  0  0  0  0  0  0  0  0
   12.1682  -22.1483   22.8718 O   0  0  0  0  0  0  0  0  0  0  0  0
   12.0809  -21.0592   23.7016 C   0  0  0  0  0  0  0  0  0  0  0  0
   11.4982  -21.1772   24.9469 C   0  0  0  0  0  0  0  0  0  0  0  0
   11.4173  -20.0823   25.7653 C   0  0  0  0  0  0  0  0  0  0  0  0
   11.9214  -18.8821   25.3252 C   0  0  0  0  0  0  0  0  0  0  0  0
   11.8455  -17.6876   26.1674 C   0  0  0  0  0  0  0  0  0  0  0  0
   10.4733  -17.0562   26.2433 C   0  0  2  0  0  0  0  0  0  0  0  0
   10.2341  -16.4784   24.9115 N   0  0  0  0  0  0  0  0  0  0  0  0
   10.3869  -16.0124   27.2868 C   0  0  0  0  0  0  0  0  0  0  0  0
   10.1994  -14.8016   27.0692 O   0  0  0  0  0  0  0  0  0  0  0  0
   12.5084  -18.7559   24.0752 C   0  0  0  0  0  0  0  0  0  0  0  0
   12.5862  -19.8626   23.2576 C   0  0  0  0  0  0  0  0  0  0  0  0
   10.5231  -16.4008   28.6116 O   0  0  0  0  0  0  0  0  0  0  0  0
  2  1  1  6
  2  3  1  0
  4  2  1  0
  4  5  1  6
  6  4  1  0
  6  8  1  0
  7  6  2  0
  9  8  1  0
  9 20  1  0
  9 10  1  1
 11 19  1  0
 11 10  1  0
 12 11  2  0
 13 12  1  0
 13 14  1  0
 14 15  1  0
 14 19  2  0
 15 16  2  0
 16 17  1  0
 18 17  2  0
 19 18  1  0
 20 29  1  0
 21 20  2  0
 22 23  1  0
 23 24  2  0
 23 33  1  0
 24 25  1  0
 25 26  2  0
 26 27  1  0
 28 27  1  6
 28 30  1  0
 29 28  1  0
 30 31  2  0
 30 34  1  0
 32 26  1  0
 33 32  2  0
M  END
$$$$
