VWY.pdb
     RDKit          3D

 34 36  0  0  1  0  0  0  0  0999 V2000
    9.5055  -20.2138   16.9956 C   0  0  0  0  0  0  0  0  0  0  0  0
    9.4483  -18.7657   17.5580 C   0  0  2  0  0  0  0  0  0  0  0  0
   10.5739  -18.0625   16.8277 C   0  0  0  0  0  0  0  0  0  0  0  0
    9.6435  -18.8381   19.0431 C   0  0  2  0  0  0  0  0  0  0  0  0
    8.5590  -19.7210   19.5242 N   0  0  0  0  0  0  0  0  0  0  0  0
    9.5652  -17.5972   19.7899 C   0  0  0  0  0  0  0  0  0  0  0  0
   10.4776  -16.7048   19.6009 O   0  0  0  0  0  0  0  0  0  0  0  0
    8.5614  -17.2551   20.7271 N   0  0  0  0  0  0  0  0  0  0  0  0
    8.7026  -16.0851   21.6090 C   0  0  1  0  0  0  0  0  0  0  0  0
    7.3808  -15.4348   21.8073 C   0  0  0  0  0  0  0  0  0  0  0  0
    7.4225  -14.2208   22.6233 C   0  0  0  0  0  0  0  0  0  0  0  0
    7.8119  -12.9704   22.1578 C   0  0  0  0  0  0  0  0  0  0  0  0
    7.7320  -12.0961   23.1617 N   0  0  0  0  0  0  0  0  0  0  0  0
    7.3076  -12.6912   24.2851 C   0  0  0  0  0  0  0  0  0  0  0  0
    7.0702  -12.2200   25.5592 C   0  0  0  0  0  0  0  0  0  0  0  0
    6.6276  -13.0948   26.5286 C   0  0  0  0  0  0  0  0  0  0  0  0
    6.4333  -14.4332   26.1874 C   0  0  0  0  0  0  0  0  0  0  0  0
    6.6690  -14.9095   24.9144 C   0  0  0  0  0  0  0  0  0  0  0  0
    7.1127  -14.0341   23.9420 C   0  0  0  0  0  0  0  0  0  0  0  0
    9.2711  -16.4845   22.9456 C   0  0  0  0  0  0  0  0  0  0  0  0
    8.7554  -17.4068   23.6174 O   0  0  0  0  0  0  0  0  0  0  0  0
   10.8577  -15.7125   31.1710 O   0  0  0  0  0  0  0  0  0  0  0  0
   10.7405  -15.4963   29.8212 C   0  0  0  0  0  0  0  0  0  0  0  0
   10.1174  -14.3591   29.3495 C   0  0  0  0  0  0  0  0  0  0  0  0
   10.0070  -14.1555   27.9998 C   0  0  0  0  0  0  0  0  0  0  0  0
   10.5223  -15.0947   27.1394 C   0  0  0  0  0  0  0  0  0  0  0  0
   10.4159  -14.9169   25.6906 C   0  0  0  0  0  0  0  0  0  0  0  0
   10.8729  -16.1055   24.8746 C   0  0  2  0  0  0  0  0  0  0  0  0
   10.4035  -15.8436   23.5050 N   0  0  0  0  0  0  0  0  0  0  0  0
   10.3241  -17.3828   25.3777 C   0  0  0  0  0  0  0  0  0  0  0  0
   10.9925  -18.2791   25.9240 O   0  0  0  0  0  0  0  0  0  0  0  0
   11.1499  -16.2399   27.6061 C   0  0  0  0  0  0  0  0  0  0  0  0
   11.2572  -16.4374   28.9658 C   0  0  0  0  0  0  0  0  0  0  0  0
    8.9630  -17.6097   25.2357 O   0  0  0  0  0  0  0  0  0  0  0  0
  2  1  1  6
  2  3  1  0
  4  2  1  0
  4  5  1  1
  6  4  1  0
  6  8  1  0
  7  6  2  0
  9  8  1  0
  9 20  1  0
  9 10  1  1
 11 19  1  0
 11 10  1  0
 12 11  2  0
 13 12  1  0
 13 14  1  0
 14 15  1  0
 14 19  2  0
 15 16  2  0
 16 17  1  0
 18 17  2  0
 19 18  1  0
 20 29  1  0
 21 20  2  0
 22 23  1  0
 23 24  2  0
 23 33  1  0
 24 25  1  0
 25 26  2  0
 26 27  1  0
 28 27  1  1
 28 30  1  0
 29 28  1  0
 30 31  2  0
 30 34  1  0
 32 26  1  0
 33 32  2  0
M  END
$$$$
