VWY.pdb
     RDKit          3D

 34 36  0  0  1  0  0  0  0  0999 V2000
    6.7187  -14.2035   20.7367 C   0  0  0  0  0  0  0  0  0  0  0  0
    8.0708  -13.9109   20.0276 C   0  0  2  0  0  0  0  0  0  0  0  0
    7.7226  -14.0097   18.5567 C   0  0  0  0  0  0  0  0  0  0  0  0
    9.0642  -14.9375   20.4841 C   0  0  2  0  0  0  0  0  0  0  0  0
    8.5263  -16.2263   19.9976 N   0  0  0  0  0  0  0  0  0  0  0  0
    9.2880  -15.0642   21.9115 C   0  0  0  0  0  0  0  0  0  0  0  0
    9.8751  -14.0975   22.5322 O   0  0  0  0  0  0  0  0  0  0  0  0
    8.9148  -16.1681   22.7148 N   0  0  0  0  0  0  0  0  0  0  0  0
    9.2322  -16.2130   24.1514 C   0  0  1  0  0  0  0  0  0  0  0  0
    8.0206  -16.5824   24.9290 C   0  0  0  0  0  0  0  0  0  0  0  0
    7.1287  -15.4605   25.2248 C   0  0  0  0  0  0  0  0  0  0  0  0
    5.7436  -15.5514   25.2958 C   0  0  0  0  0  0  0  0  0  0  0  0
    5.2499  -14.3462   25.5829 N   0  0  0  0  0  0  0  0  0  0  0  0
    6.2313  -13.4423   25.7103 C   0  0  0  0  0  0  0  0  0  0  0  0
    6.2271  -12.0933   25.9961 C   0  0  0  0  0  0  0  0  0  0  0  0
    7.4259  -11.4154   26.0610 C   0  0  0  0  0  0  0  0  0  0  0  0
    8.6086  -12.1193   25.8349 C   0  0  0  0  0  0  0  0  0  0  0  0
    8.6183  -13.4687   25.5491 C   0  0  0  0  0  0  0  0  0  0  0  0
    7.4178  -14.1493   25.4835 C   0  0  0  0  0  0  0  0  0  0  0  0
   10.3294  -17.2071   24.4291 C   0  0  0  0  0  0  0  0  0  0  0  0
   10.8337  -17.8870   23.5064 O   0  0  0  0  0  0  0  0  0  0  0  0
   10.2994  -13.6490   29.9095 O   0  0  0  0  0  0  0  0  0  0  0  0
   10.7392  -14.8128   29.3312 C   0  0  0  0  0  0  0  0  0  0  0  0
   10.3754  -16.0343   29.8601 C   0  0  0  0  0  0  0  0  0  0  0  0
   10.8214  -17.1884   29.2734 C   0  0  0  0  0  0  0  0  0  0  0  0
   11.6270  -17.1039   28.1634 C   0  0  0  0  0  0  0  0  0  0  0  0
   12.1308  -18.3147   27.5137 C   0  0  0  0  0  0  0  0  0  0  0  0
   11.9496  -18.3462   26.0125 C   0  0  2  0  0  0  0  0  0  0  0  0
   10.8393  -17.4223   25.7328 N   0  0  0  0  0  0  0  0  0  0  0  0
   11.6397  -19.7008   25.5076 C   0  0  0  0  0  0  0  0  0  0  0  0
   10.5540  -20.0420   25.0041 O   0  0  0  0  0  0  0  0  0  0  0  0
   11.9967  -15.8800   27.6262 C   0  0  0  0  0  0  0  0  0  0  0  0
   11.5435  -14.7232   28.2224 C   0  0  0  0  0  0  0  0  0  0  0  0
   12.6261  -20.6721   25.5961 O   0  0  0  0  0  0  0  0  0  0  0  0
  2  1  1  1
  2  3  1  0
  4  2  1  0
  4  5  1  1
  6  4  1  0
  6  8  1  0
  7  6  2  0
  9  8  1  0
  9 20  1  0
  9 10  1  1
 11 19  1  0
 11 10  1  0
 12 11  2  0
 13 12  1  0
 13 14  1  0
 14 15  1  0
 14 19  2  0
 15 16  2  0
 16 17  1  0
 18 17  2  0
 19 18  1  0
 20 29  1  0
 21 20  2  0
 22 23  1  0
 23 24  2  0
 23 33  1  0
 24 25  1  0
 25 26  2  0
 26 27  1  0
 28 27  1  1
 28 30  1  0
 29 28  1  0
 30 31  2  0
 30 34  1  0
 32 26  1  0
 33 32  2  0
M  END
$$$$
