VWY.pdb
     RDKit          3D

 34 36  0  0  1  0  0  0  0  0999 V2000
   11.0006  -19.2734   19.8847 C   0  0  0  0  0  0  0  0  0  0  0  0
   10.9768  -18.2011   18.7594 C   0  0  2  0  0  0  0  0  0  0  0  0
   12.2182  -17.3778   19.0348 C   0  0  0  0  0  0  0  0  0  0  0  0
    9.6982  -17.4275   18.8847 C   0  0  2  0  0  0  0  0  0  0  0  0
    9.7075  -16.4937   17.7379 N   0  0  0  0  0  0  0  0  0  0  0  0
    9.5054  -16.6435   20.0896 C   0  0  0  0  0  0  0  0  0  0  0  0
   10.2901  -15.6425   20.3065 O   0  0  0  0  0  0  0  0  0  0  0  0
    8.5157  -16.8683   21.0760 N   0  0  0  0  0  0  0  0  0  0  0  0
    8.4934  -16.0970   22.3295 C   0  0  1  0  0  0  0  0  0  0  0  0
    7.2659  -16.4190   23.1033 C   0  0  0  0  0  0  0  0  0  0  0  0
    7.0896  -15.6178   24.3151 C   0  0  0  0  0  0  0  0  0  0  0  0
    6.6944  -16.1268   25.5466 C   0  0  0  0  0  0  0  0  0  0  0  0
    6.6351  -15.1247   26.4247 N   0  0  0  0  0  0  0  0  0  0  0  0
    6.9707  -13.9613   25.8500 C   0  0  0  0  0  0  0  0  0  0  0  0
    7.0586  -12.6725   26.3326 C   0  0  0  0  0  0  0  0  0  0  0  0
    7.4399  -11.6589   25.4792 C   0  0  0  0  0  0  0  0  0  0  0  0
    7.7258  -11.9717   24.1503 C   0  0  0  0  0  0  0  0  0  0  0  0
    7.6396  -13.2592   23.6628 C   0  0  0  0  0  0  0  0  0  0  0  0
    7.2575  -14.2758   24.5167 C   0  0  0  0  0  0  0  0  0  0  0  0
    9.7085  -16.3976   23.1676 C   0  0  0  0  0  0  0  0  0  0  0  0
    9.9571  -17.5637   23.5499 O   0  0  0  0  0  0  0  0  0  0  0  0
   10.1323  -16.5302   30.8741 O   0  0  0  0  0  0  0  0  0  0  0  0
   10.2858  -16.0237   29.6082 C   0  0  0  0  0  0  0  0  0  0  0  0
    9.1822  -15.6486   28.8696 C   0  0  0  0  0  0  0  0  0  0  0  0
    9.3493  -15.1446   27.6073 C   0  0  0  0  0  0  0  0  0  0  0  0
   10.6208  -15.0232   27.1007 C   0  0  0  0  0  0  0  0  0  0  0  0
   10.8393  -14.4973   25.7525 C   0  0  0  0  0  0  0  0  0  0  0  0
   11.4409  -15.4869   24.7799 C   0  0  2  0  0  0  0  0  0  0  0  0
   10.6199  -15.3881   23.5629 N   0  0  0  0  0  0  0  0  0  0  0  0
   11.4339  -16.8701   25.3019 C   0  0  0  0  0  0  0  0  0  0  0  0
   10.4275  -17.5984   25.3756 O   0  0  0  0  0  0  0  0  0  0  0  0
   11.7345  -15.3979   27.8371 C   0  0  0  0  0  0  0  0  0  0  0  0
   11.5580  -15.9040   29.1067 C   0  0  0  0  0  0  0  0  0  0  0  0
   12.6337  -17.4068   25.7451 O   0  0  0  0  0  0  0  0  0  0  0  0
  2  1  1  1
  2  3  1  0
  4  2  1  0
  4  5  1  6
  6  4  1  0
  6  8  1  0
  7  6  2  0
  9  8  1  0
  9 20  1  0
  9 10  1  1
 11 19  1  0
 11 10  1  0
 12 11  2  0
 13 12  1  0
 13 14  1  0
 14 15  1  0
 14 19  2  0
 15 16  2  0
 16 17  1  0
 18 17  2  0
 19 18  1  0
 20 29  1  0
 21 20  2  0
 22 23  1  0
 23 24  2  0
 23 33  1  0
 24 25  1  0
 25 26  2  0
 26 27  1  0
 28 27  1  1
 28 30  1  0
 29 28  1  0
 30 31  2  0
 30 34  1  0
 32 26  1  0
 33 32  2  0
M  END
$$$$
