VWY.pdb
     RDKit          3D

 34 36  0  0  1  0  0  0  0  0999 V2000
    7.2681  -15.1073   18.0827 C   0  0  0  0  0  0  0  0  0  0  0  0
    8.2338  -14.8516   19.2738 C   0  0  2  0  0  0  0  0  0  0  0  0
    9.3320  -15.8726   19.0588 C   0  0  0  0  0  0  0  0  0  0  0  0
    7.4632  -15.0509   20.5449 C   0  0  2  0  0  0  0  0  0  0  0  0
    6.4352  -13.9879   20.5343 N   0  0  0  0  0  0  0  0  0  0  0  0
    8.1932  -14.9452   21.7937 C   0  0  0  0  0  0  0  0  0  0  0  0
    8.5813  -13.7786   22.1848 O   0  0  0  0  0  0  0  0  0  0  0  0
    8.5289  -16.0196   22.6517 N   0  0  0  0  0  0  0  0  0  0  0  0
    9.4390  -15.8334   23.7935 C   0  0  1  0  0  0  0  0  0  0  0  0
    8.7357  -16.1559   25.0626 C   0  0  0  0  0  0  0  0  0  0  0  0
    7.6453  -15.2391   25.3975 C   0  0  0  0  0  0  0  0  0  0  0  0
    6.2943  -15.5484   25.2925 C   0  0  0  0  0  0  0  0  0  0  0  0
    5.5817  -14.4885   25.6765 N   0  0  0  0  0  0  0  0  0  0  0  0
    6.3821  -13.4758   26.0371 C   0  0  0  0  0  0  0  0  0  0  0  0
    6.1260  -12.2010   26.4965 C   0  0  0  0  0  0  0  0  0  0  0  0
    7.1833  -11.3668   26.7912 C   0  0  0  0  0  0  0  0  0  0  0  0
    8.4829  -11.8416   26.6145 C   0  0  0  0  0  0  0  0  0  0  0  0
    8.7445  -13.1158   26.1556 C   0  0  0  0  0  0  0  0  0  0  0  0
    7.6859  -13.9528   25.8598 C   0  0  0  0  0  0  0  0  0  0  0  0
   10.6575  -16.7087   23.6584 C   0  0  0  0  0  0  0  0  0  0  0  0
   10.5721  -17.8673   23.1912 O   0  0  0  0  0  0  0  0  0  0  0  0
   13.7283  -14.1154   18.3196 O   0  0  0  0  0  0  0  0  0  0  0  0
   13.8446  -14.5972   19.5990 C   0  0  0  0  0  0  0  0  0  0  0  0
   13.4064  -13.8445   20.6692 C   0  0  0  0  0  0  0  0  0  0  0  0
   13.5285  -14.3370   21.9411 C   0  0  0  0  0  0  0  0  0  0  0  0
   14.0888  -15.5782   22.1246 C   0  0  0  0  0  0  0  0  0  0  0  0
   14.2444  -16.1348   23.4692 C   0  0  0  0  0  0  0  0  0  0  0  0
   13.1533  -17.0968   23.8832 C   0  0  2  0  0  0  0  0  0  0  0  0
   11.9466  -16.2716   24.0499 N   0  0  0  0  0  0  0  0  0  0  0  0
   13.4734  -17.8106   25.1377 C   0  0  0  0  0  0  0  0  0  0  0  0
   14.4404  -18.5783   25.2935 O   0  0  0  0  0  0  0  0  0  0  0  0
   14.5314  -16.3404   21.0539 C   0  0  0  0  0  0  0  0  0  0  0  0
   14.4047  -15.8377   19.7770 C   0  0  0  0  0  0  0  0  0  0  0  0
   12.6402  -17.6172   26.2298 O   0  0  0  0  0  0  0  0  0  0  0  0
  2  1  1  6
  2  3  1  0
  4  2  1  0
  4  5  1  1
  6  4  1  0
  6  8  1  0
  7  6  2  0
  9  8  1  0
  9 20  1  0
  9 10  1  1
 11 19  1  0
 11 10  1  0
 12 11  2  0
 13 12  1  0
 13 14  1  0
 14 15  1  0
 14 19  2  0
 15 16  2  0
 16 17  1  0
 18 17  2  0
 19 18  1  0
 20 29  1  0
 21 20  2  0
 22 23  1  0
 23 24  2  0
 23 33  1  0
 24 25  1  0
 25 26  2  0
 26 27  1  0
 28 27  1  1
 28 30  1  0
 29 28  1  0
 30 31  2  0
 30 34  1  0
 32 26  1  0
 33 32  2  0
M  END
$$$$
