FWE.pdb
     RDKit          3D

 35 37  0  0  1  0  0  0  0  0999 V2000
   27.6014  -21.6176  -14.9596 N   0  0  0  0  0  0  0  0  0  0  0  0
   27.4808  -20.4604  -14.1299 C   0  0  1  0  0  0  0  0  0  0  0  0
   26.6201  -19.3854  -14.7181 C   0  0  0  0  0  0  0  0  0  0  0  0
   27.2158  -18.7450  -15.9037 C   0  0  0  0  0  0  0  0  0  0  0  0
   26.8340  -19.2291  -17.1468 C   0  0  0  0  0  0  0  0  0  0  0  0
   27.3489  -18.6785  -18.3015 C   0  0  0  0  0  0  0  0  0  0  0  0
   28.2561  -17.6303  -18.1869 C   0  0  0  0  0  0  0  0  0  0  0  0
   28.6296  -17.1558  -16.9459 C   0  0  0  0  0  0  0  0  0  0  0  0
   28.1218  -17.6986  -15.7996 C   0  0  0  0  0  0  0  0  0  0  0  0
   26.9214  -20.8187  -12.7969 C   0  0  0  0  0  0  0  0  0  0  0  0
   25.9260  -21.5956  -12.6884 O   0  0  0  0  0  0  0  0  0  0  0  0
   27.4584  -20.3196  -11.5668 N   0  0  0  0  0  0  0  0  0  0  0  0
   26.8660  -20.6600  -10.3192 C   0  0  1  0  0  0  0  0  0  0  0  0
   27.6723  -20.2655   -9.1019 C   0  0  0  0  0  0  0  0  0  0  0  0
   26.9859  -20.5797   -7.8251 C   0  0  0  0  0  0  0  0  0  0  0  0
   26.0140  -21.5435   -7.6011 C   0  0  0  0  0  0  0  0  0  0  0  0
   25.6562  -21.5351   -6.3032 N   0  0  0  0  0  0  0  0  0  0  0  0
   26.3572  -20.5934   -5.6432 C   0  0  0  0  0  0  0  0  0  0  0  0
   26.3853  -20.1654   -4.3345 C   0  0  0  0  0  0  0  0  0  0  0  0
   27.2060  -19.1546   -3.8928 C   0  0  0  0  0  0  0  0  0  0  0  0
   28.0334  -18.5511   -4.8156 C   0  0  0  0  0  0  0  0  0  0  0  0
   28.0113  -18.9794   -6.1451 C   0  0  0  0  0  0  0  0  0  0  0  0
   27.1885  -19.9937   -6.5874 C   0  0  0  0  0  0  0  0  0  0  0  0
   25.4985  -20.1107  -10.1289 C   0  0  0  0  0  0  0  0  0  0  0  0
   25.2913  -18.9510  -10.5310 O   0  0  0  0  0  0  0  0  0  0  0  0
   24.4342  -20.8079   -9.5313 N   0  0  0  0  0  0  0  0  0  0  0  0
   23.0387  -20.3942   -9.8117 C   0  0  1  0  0  0  0  0  0  0  0  0
   22.7785  -20.7133  -11.2607 C   0  0  0  0  0  0  0  0  0  0  0  0
   21.3482  -20.4696  -11.6135 C   0  0  0  0  0  0  0  0  0  0  0  0
   21.2867  -19.1226  -12.2773 C   0  0  0  0  0  0  0  0  0  0  0  0
   22.1441  -18.8466  -13.1280 O   0  0  0  0  0  0  0  0  0  0  0  0
   22.1210  -21.0734   -8.8835 C   0  0  0  0  0  0  0  0  0  0  0  0
   20.9727  -20.5162   -8.3715 O   0  0  0  0  0  0  0  0  0  0  0  0
   20.3189  -18.1977  -11.9735 O   0  0  0  0  0  0  0  0  0  0  0  0
   22.3849  -22.2654   -8.5083 O   0  0  0  0  0  0  0  0  0  0  0  0
  2  1  1  6
  2  3  1  0
  3  4  1  0
  4  9  2  0
  5  6  2  0
  5  4  1  0
  6  7  1  0
  7  8  2  0
  9  8  1  0
 10  2  1  0
 11 10  2  0
 12 10  1  0
 13 12  1  0
 14 15  1  0
 13 14  1  1
 15 23  1  0
 16 17  1  0
 16 15  2  0
 17 18  1  0
 18 23  2  0
 18 19  1  0
 19 20  2  0
 20 21  1  0
 22 21  2  0
 23 22  1  0
 24 13  1  0
 24 25  2  0
 26 24  1  0
 27 26  1  0
 27 28  1  6
 28 29  1  0
 29 30  1  0
 30 34  1  0
 30 31  2  0
 32 27  1  0
 33 32  1  0
 35 32  2  0
M  END
$$$$
