FWE.pdb
     RDKit          3D

 35 37  0  0  1  0  0  0  0  0999 V2000
   26.3324  -19.8296   -8.8252 N   0  0  0  0  0  0  0  0  0  0  0  0
   27.1736  -20.0593   -9.9573 C   0  0  1  0  0  0  0  0  0  0  0  0
   27.6730  -21.4673  -10.0601 C   0  0  0  0  0  0  0  0  0  0  0  0
   28.8431  -21.7348   -9.2058 C   0  0  0  0  0  0  0  0  0  0  0  0
   30.0911  -21.7120   -9.8119 C   0  0  0  0  0  0  0  0  0  0  0  0
   31.2321  -21.9520   -9.0757 C   0  0  0  0  0  0  0  0  0  0  0  0
   31.0988  -22.2157   -7.7164 C   0  0  0  0  0  0  0  0  0  0  0  0
   29.8530  -22.2362   -7.1227 C   0  0  0  0  0  0  0  0  0  0  0  0
   28.7203  -21.9990   -7.8487 C   0  0  0  0  0  0  0  0  0  0  0  0
   26.4613  -19.7311  -11.2234 C   0  0  0  0  0  0  0  0  0  0  0  0
   25.1954  -19.7311  -11.2851 O   0  0  0  0  0  0  0  0  0  0  0  0
   27.1436  -19.3990  -12.4378 N   0  0  0  0  0  0  0  0  0  0  0  0
   26.4859  -18.6768  -13.4719 C   0  0  1  0  0  0  0  0  0  0  0  0
   27.4051  -18.0575  -14.5009 C   0  0  0  0  0  0  0  0  0  0  0  0
   26.6839  -17.2327  -15.5009 C   0  0  0  0  0  0  0  0  0  0  0  0
   26.1651  -15.9577  -15.3310 C   0  0  0  0  0  0  0  0  0  0  0  0
   25.6029  -15.5390  -16.4805 N   0  0  0  0  0  0  0  0  0  0  0  0
   25.7260  -16.4937  -17.4223 C   0  0  0  0  0  0  0  0  0  0  0  0
   25.3366  -16.5918  -18.7397 C   0  0  0  0  0  0  0  0  0  0  0  0
   25.5787  -17.7023  -19.5133 C   0  0  0  0  0  0  0  0  0  0  0  0
   26.2433  -18.7588  -18.9281 C   0  0  0  0  0  0  0  0  0  0  0  0
   26.6420  -18.6674  -17.5924 C   0  0  0  0  0  0  0  0  0  0  0  0
   26.3995  -17.5531  -16.8171 C   0  0  0  0  0  0  0  0  0  0  0  0
   25.4757  -19.4719  -14.2169 C   0  0  0  0  0  0  0  0  0  0  0  0
   25.7392  -20.6700  -14.4282 O   0  0  0  0  0  0  0  0  0  0  0  0
   24.2541  -18.9653  -14.6932 N   0  0  0  0  0  0  0  0  0  0  0  0
   23.2776  -19.8834  -15.3263 C   0  0  1  0  0  0  0  0  0  0  0  0
   22.1500  -20.0566  -14.3428 C   0  0  0  0  0  0  0  0  0  0  0  0
   21.0576  -20.8928  -14.9233 C   0  0  0  0  0  0  0  0  0  0  0  0
   20.8774  -22.0709  -14.0076 C   0  0  0  0  0  0  0  0  0  0  0  0
   21.5276  -22.1011  -12.9535 O   0  0  0  0  0  0  0  0  0  0  0  0
   22.8502  -19.3389  -16.6248 C   0  0  0  0  0  0  0  0  0  0  0  0
   22.2363  -18.1205  -16.7980 O   0  0  0  0  0  0  0  0  0  0  0  0
   20.0224  -23.1043  -14.3000 O   0  0  0  0  0  0  0  0  0  0  0  0
   23.0495  -20.0252  -17.6834 O   0  0  0  0  0  0  0  0  0  0  0  0
  2  1  1  1
  2  3  1  0
  3  4  1  0
  4  9  2  0
  5  6  2  0
  5  4  1  0
  6  7  1  0
  7  8  2  0
  9  8  1  0
 10  2  1  0
 11 10  2  0
 12 10  1  0
 13 12  1  0
 14 15  1  0
 13 14  1  6
 15 23  1  0
 16 17  1  0
 16 15  2  0
 17 18  1  0
 18 23  2  0
 18 19  1  0
 19 20  2  0
 20 21  1  0
 22 21  2  0
 23 22  1  0
 24 13  1  0
 24 25  2  0
 26 24  1  0
 27 26  1  0
 27 28  1  1
 28 29  1  0
 29 30  1  0
 30 34  1  0
 30 31  2  0
 32 27  1  0
 33 32  1  0
 35 32  2  0
M  END
$$$$
