FWE.pdb
     RDKit          3D

 35 37  0  0  1  0  0  0  0  0999 V2000
   24.6496  -20.8715  -14.3102 N   0  0  0  0  0  0  0  0  0  0  0  0
   23.7553  -20.2257  -13.4017 C   0  0  1  0  0  0  0  0  0  0  0  0
   22.3473  -20.1379  -13.9039 C   0  0  0  0  0  0  0  0  0  0  0  0
   22.2224  -19.3773  -15.1595 C   0  0  0  0  0  0  0  0  0  0  0  0
   21.8533  -20.0829  -16.2959 C   0  0  0  0  0  0  0  0  0  0  0  0
   21.7154  -19.4381  -17.5071 C   0  0  0  0  0  0  0  0  0  0  0  0
   21.9546  -18.0687  -17.5582 C   0  0  0  0  0  0  0  0  0  0  0  0
   22.3214  -17.3759  -16.4224 C   0  0  0  0  0  0  0  0  0  0  0  0
   22.4591  -18.0110  -15.2208 C   0  0  0  0  0  0  0  0  0  0  0  0
   23.7318  -20.9294  -12.0894 C   0  0  0  0  0  0  0  0  0  0  0  0
   23.7018  -22.1946  -12.0217 O   0  0  0  0  0  0  0  0  0  0  0  0
   23.7407  -20.2391  -10.8348 N   0  0  0  0  0  0  0  0  0  0  0  0
   23.7599  -20.9558   -9.6062 C   0  0  1  0  0  0  0  0  0  0  0  0
   24.5679  -20.3089   -8.5034 C   0  0  0  0  0  0  0  0  0  0  0  0
   26.0209  -20.5876   -8.6094 C   0  0  0  0  0  0  0  0  0  0  0  0
   26.6747  -21.3101   -9.5965 C   0  0  0  0  0  0  0  0  0  0  0  0
   27.9986  -21.3191   -9.3517 N   0  0  0  0  0  0  0  0  0  0  0  0
   28.2590  -20.6244   -8.2277 C   0  0  0  0  0  0  0  0  0  0  0  0
   29.4110  -20.3265   -7.5342 C   0  0  0  0  0  0  0  0  0  0  0  0
   29.4196  -19.5843   -6.3770 C   0  0  0  0  0  0  0  0  0  0  0  0
   28.2103  -19.1243   -5.9012 C   0  0  0  0  0  0  0  0  0  0  0  0
   27.0371  -19.4217   -6.5988 C   0  0  0  0  0  0  0  0  0  0  0  0
   27.0291  -20.1656   -7.7599 C   0  0  0  0  0  0  0  0  0  0  0  0
   22.4117  -21.2353   -9.0477 C   0  0  0  0  0  0  0  0  0  0  0  0
   21.5971  -20.2941   -9.0322 O   0  0  0  0  0  0  0  0  0  0  0  0
   21.9996  -22.4803   -8.5417 N   0  0  0  0  0  0  0  0  0  0  0  0
   20.6129  -22.6462   -8.0452 C   0  0  1  0  0  0  0  0  0  0  0  0
   19.9444  -23.6388   -8.9601 C   0  0  0  0  0  0  0  0  0  0  0  0
   18.5852  -23.9986   -8.4574 C   0  0  0  0  0  0  0  0  0  0  0  0
   17.6644  -22.8778   -8.8510 C   0  0  0  0  0  0  0  0  0  0  0  0
   17.8162  -22.3557   -9.9642 O   0  0  0  0  0  0  0  0  0  0  0  0
   20.6347  -23.0650   -6.6348 C   0  0  0  0  0  0  0  0  0  0  0  0
   19.5534  -23.0124   -5.7866 O   0  0  0  0  0  0  0  0  0  0  0  0
   16.6696  -22.4196   -8.0235 O   0  0  0  0  0  0  0  0  0  0  0  0
   21.7219  -23.5119   -6.1351 O   0  0  0  0  0  0  0  0  0  0  0  0
  2  1  1  6
  2  3  1  0
  3  4  1  0
  4  9  2  0
  5  6  2  0
  5  4  1  0
  6  7  1  0
  7  8  2  0
  9  8  1  0
 10  2  1  0
 11 10  2  0
 12 10  1  0
 13 12  1  0
 14 15  1  0
 13 14  1  1
 15 23  1  0
 16 17  1  0
 16 15  2  0
 17 18  1  0
 18 23  2  0
 18 19  1  0
 19 20  2  0
 20 21  1  0
 22 21  2  0
 23 22  1  0
 24 13  1  0
 24 25  2  0
 26 24  1  0
 27 26  1  0
 27 28  1  6
 28 29  1  0
 29 30  1  0
 30 34  1  0
 30 31  2  0
 32 27  1  0
 33 32  1  0
 35 32  2  0
M  END
$$$$
