FWE.pdb
     RDKit          3D

 35 37  0  0  1  0  0  0  0  0999 V2000
   28.3855  -20.9345  -16.3051 N   0  0  0  0  0  0  0  0  0  0  0  0
   27.9592  -20.1852  -15.1654 C   0  0  1  0  0  0  0  0  0  0  0  0
   27.3402  -18.8659  -15.5098 C   0  0  0  0  0  0  0  0  0  0  0  0
   28.2095  -18.0126  -16.3385 C   0  0  0  0  0  0  0  0  0  0  0  0
   29.2011  -17.2929  -15.6871 C   0  0  0  0  0  0  0  0  0  0  0  0
   30.0536  -16.4738  -16.3971 C   0  0  0  0  0  0  0  0  0  0  0  0
   29.8936  -16.3896  -17.7764 C   0  0  0  0  0  0  0  0  0  0  0  0
   28.9043  -17.1093  -18.4150 C   0  0  0  0  0  0  0  0  0  0  0  0
   28.0577  -17.9217  -17.7152 C   0  0  0  0  0  0  0  0  0  0  0  0
   26.9737  -20.9585  -14.3598 C   0  0  0  0  0  0  0  0  0  0  0  0
   26.0772  -21.6614  -14.9150 O   0  0  0  0  0  0  0  0  0  0  0  0
   26.9694  -20.9620  -12.9278 N   0  0  0  0  0  0  0  0  0  0  0  0
   26.0460  -21.7639  -12.2015 C   0  0  1  0  0  0  0  0  0  0  0  0
   26.4853  -22.1333  -10.8022 C   0  0  0  0  0  0  0  0  0  0  0  0
   26.4653  -20.9832   -9.8657 C   0  0  0  0  0  0  0  0  0  0  0  0
   25.6028  -19.8970   -9.8770 C   0  0  0  0  0  0  0  0  0  0  0  0
   25.8911  -19.0771   -8.8488 N   0  0  0  0  0  0  0  0  0  0  0  0
   26.9235  -19.5767   -8.1430 C   0  0  0  0  0  0  0  0  0  0  0  0
   27.6109  -19.1544   -7.0267 C   0  0  0  0  0  0  0  0  0  0  0  0
   28.6617  -19.8545   -6.4829 C   0  0  0  0  0  0  0  0  0  0  0  0
   29.0328  -21.0324   -7.0954 C   0  0  0  0  0  0  0  0  0  0  0  0
   28.3407  -21.4681   -8.2279 C   0  0  0  0  0  0  0  0  0  0  0  0
   27.2863  -20.7659   -8.7727 C   0  0  0  0  0  0  0  0  0  0  0  0
   24.6889  -21.1699  -12.0862 C   0  0  0  0  0  0  0  0  0  0  0  0
   24.6205  -19.9643  -11.7837 O   0  0  0  0  0  0  0  0  0  0  0  0
   23.4895  -21.8726  -12.2951 N   0  0  0  0  0  0  0  0  0  0  0  0
   22.2123  -21.1272  -12.3964 C   0  0  1  0  0  0  0  0  0  0  0  0
   21.4532  -21.7295  -13.5496 C   0  0  0  0  0  0  0  0  0  0  0  0
   20.9110  -20.6662  -14.4468 C   0  0  0  0  0  0  0  0  0  0  0  0
   20.1748  -21.3650  -15.5552 C   0  0  0  0  0  0  0  0  0  0  0  0
   20.7534  -22.2776  -16.1613 O   0  0  0  0  0  0  0  0  0  0  0  0
   21.4918  -21.1956  -11.1152 C   0  0  0  0  0  0  0  0  0  0  0  0
   20.4227  -20.3999  -10.7759 O   0  0  0  0  0  0  0  0  0  0  0  0
   18.8933  -21.0271  -15.9129 O   0  0  0  0  0  0  0  0  0  0  0  0
   21.8647  -22.0439  -10.2361 O   0  0  0  0  0  0  0  0  0  0  0  0
  2  1  1  6
  2  3  1  0
  3  4  1  0
  4  9  2  0
  5  6  2  0
  5  4  1  0
  6  7  1  0
  7  8  2  0
  9  8  1  0
 10  2  1  0
 11 10  2  0
 12 10  1  0
 13 12  1  0
 14 15  1  0
 13 14  1  1
 15 23  1  0
 16 17  1  0
 16 15  2  0
 17 18  1  0
 18 23  2  0
 18 19  1  0
 19 20  2  0
 20 21  1  0
 22 21  2  0
 23 22  1  0
 24 13  1  0
 24 25  2  0
 26 24  1  0
 27 26  1  0
 27 28  1  6
 28 29  1  0
 29 30  1  0
 30 34  1  0
 30 31  2  0
 32 27  1  0
 33 32  1  0
 35 32  2  0
M  END
$$$$
