FWE.pdb
     RDKit          3D

 35 37  0  0  1  0  0  0  0  0999 V2000
   28.2584  -22.8984  -16.0824 N   0  0  0  0  0  0  0  0  0  0  0  0
   27.6004  -21.6612  -15.8019 C   0  0  1  0  0  0  0  0  0  0  0  0
   26.6304  -21.2415  -16.8628 C   0  0  0  0  0  0  0  0  0  0  0  0
   27.2657  -20.9942  -18.1688 C   0  0  0  0  0  0  0  0  0  0  0  0
   27.8945  -19.7703  -18.3481 C   0  0  0  0  0  0  0  0  0  0  0  0
   28.5118  -19.4682  -19.5436 C   0  0  0  0  0  0  0  0  0  0  0  0
   28.4875  -20.4186  -20.5592 C   0  0  0  0  0  0  0  0  0  0  0  0
   27.8594  -21.6330  -20.3711 C   0  0  0  0  0  0  0  0  0  0  0  0
   27.2466  -21.9360  -19.1883 C   0  0  0  0  0  0  0  0  0  0  0  0
   26.8646  -21.7324  -14.5090 C   0  0  0  0  0  0  0  0  0  0  0  0
   26.1870  -22.7558  -14.1931 O   0  0  0  0  0  0  0  0  0  0  0  0
   26.8701  -20.6693  -13.5497 N   0  0  0  0  0  0  0  0  0  0  0  0
   26.1421  -20.7791  -12.3325 C   0  0  1  0  0  0  0  0  0  0  0  0
   26.6158  -19.8682  -11.2220 C   0  0  0  0  0  0  0  0  0  0  0  0
   27.6270  -20.5038  -10.3424 C   0  0  0  0  0  0  0  0  0  0  0  0
   28.6636  -21.3465  -10.7152 C   0  0  0  0  0  0  0  0  0  0  0  0
   29.3780  -21.6962   -9.6290 N   0  0  0  0  0  0  0  0  0  0  0  0
   28.8545  -21.1152   -8.5326 C   0  0  0  0  0  0  0  0  0  0  0  0
   29.1787  -21.1344   -7.1942 C   0  0  0  0  0  0  0  0  0  0  0  0
   28.4691  -20.4443   -6.2401 C   0  0  0  0  0  0  0  0  0  0  0  0
   27.3846  -19.7033   -6.6587 C   0  0  0  0  0  0  0  0  0  0  0  0
   27.0491  -19.6782   -8.0145 C   0  0  0  0  0  0  0  0  0  0  0  0
   27.7616  -20.3700   -8.9712 C   0  0  0  0  0  0  0  0  0  0  0  0
   24.6803  -20.5575  -12.4800 C   0  0  0  0  0  0  0  0  0  0  0  0
   24.3179  -19.4878  -13.0034 O   0  0  0  0  0  0  0  0  0  0  0  0
   23.6898  -21.4677  -12.0720 N   0  0  0  0  0  0  0  0  0  0  0  0
   22.2612  -21.0818  -12.1566 C   0  0  1  0  0  0  0  0  0  0  0  0
   21.5677  -22.1679  -12.9367 C   0  0  0  0  0  0  0  0  0  0  0  0
   21.3200  -21.7396  -14.3455 C   0  0  0  0  0  0  0  0  0  0  0  0
   20.4718  -22.8048  -14.9818 C   0  0  0  0  0  0  0  0  0  0  0  0
   20.1841  -23.8060  -14.3110 O   0  0  0  0  0  0  0  0  0  0  0  0
   21.7162  -20.8866  -10.8037 C   0  0  0  0  0  0  0  0  0  0  0  0
   20.4876  -20.3337  -10.5278 O   0  0  0  0  0  0  0  0  0  0  0  0
   20.0099  -22.7035  -16.2705 O   0  0  0  0  0  0  0  0  0  0  0  0
   22.4122  -21.2457   -9.7947 O   0  0  0  0  0  0  0  0  0  0  0  0
  2  1  1  6
  2  3  1  0
  3  4  1  0
  4  9  2  0
  5  6  2  0
  5  4  1  0
  6  7  1  0
  7  8  2  0
  9  8  1  0
 10  2  1  0
 11 10  2  0
 12 10  1  0
 13 12  1  0
 14 15  1  0
 13 14  1  1
 15 23  1  0
 16 17  1  0
 16 15  2  0
 17 18  1  0
 18 23  2  0
 18 19  1  0
 19 20  2  0
 20 21  1  0
 22 21  2  0
 23 22  1  0
 24 13  1  0
 24 25  2  0
 26 24  1  0
 27 26  1  0
 27 28  1  1
 28 29  1  0
 29 30  1  0
 30 34  1  0
 30 31  2  0
 32 27  1  0
 33 32  1  0
 35 32  2  0
M  END
$$$$
