FWE.pdb
     RDKit          3D

 35 37  0  0  1  0  0  0  0  0999 V2000
   25.2087  -19.5353   -7.6898 N   0  0  0  0  0  0  0  0  0  0  0  0
   26.4270  -20.0259   -8.2531 C   0  0  1  0  0  0  0  0  0  0  0  0
   27.0850  -21.0898   -7.4300 C   0  0  0  0  0  0  0  0  0  0  0  0
   27.8159  -20.5583   -6.2664 C   0  0  0  0  0  0  0  0  0  0  0  0
   27.7662  -19.1875   -6.0567 C   0  0  0  0  0  0  0  0  0  0  0  0
   28.4250  -18.6180   -4.9874 C   0  0  0  0  0  0  0  0  0  0  0  0
   29.1363  -19.4504   -4.1295 C   0  0  0  0  0  0  0  0  0  0  0  0
   29.1797  -20.8126   -4.3466 C   0  0  0  0  0  0  0  0  0  0  0  0
   28.5286  -21.3806   -5.4048 C   0  0  0  0  0  0  0  0  0  0  0  0
   26.1970  -20.5771   -9.6174 C   0  0  0  0  0  0  0  0  0  0  0  0
   25.0987  -21.1280   -9.9278 O   0  0  0  0  0  0  0  0  0  0  0  0
   27.1824  -20.5251  -10.6551 N   0  0  0  0  0  0  0  0  0  0  0  0
   26.8438  -20.0799  -11.9630 C   0  0  1  0  0  0  0  0  0  0  0  0
   28.0226  -19.7106  -12.8358 C   0  0  0  0  0  0  0  0  0  0  0  0
   27.6189  -19.1421  -14.1450 C   0  0  0  0  0  0  0  0  0  0  0  0
   27.0198  -17.9148  -14.3867 C   0  0  0  0  0  0  0  0  0  0  0  0
   26.8311  -17.7539  -15.7100 N   0  0  0  0  0  0  0  0  0  0  0  0
   27.2845  -18.8367  -16.3701 C   0  0  0  0  0  0  0  0  0  0  0  0
   27.3342  -19.1937  -17.6993 C   0  0  0  0  0  0  0  0  0  0  0  0
   27.8541  -20.3890  -18.1365 C   0  0  0  0  0  0  0  0  0  0  0  0
   28.3444  -21.2603  -17.1874 C   0  0  0  0  0  0  0  0  0  0  0  0
   28.2980  -20.9058  -15.8370 C   0  0  0  0  0  0  0  0  0  0  0  0
   27.7771  -19.7065  -15.3990 C   0  0  0  0  0  0  0  0  0  0  0  0
   26.0189  -21.0445  -12.7357 C   0  0  0  0  0  0  0  0  0  0  0  0
   26.3377  -22.2459  -12.6685 O   0  0  0  0  0  0  0  0  0  0  0  0
   24.9129  -20.6929  -13.5288 N   0  0  0  0  0  0  0  0  0  0  0  0
   24.1222  -21.7553  -14.1947 C   0  0  1  0  0  0  0  0  0  0  0  0
   22.7877  -21.7991  -13.4974 C   0  0  0  0  0  0  0  0  0  0  0  0
   22.2170  -20.4273  -13.3479 C   0  0  0  0  0  0  0  0  0  0  0  0
   20.8830  -20.5818  -12.6729 C   0  0  0  0  0  0  0  0  0  0  0  0
   20.2761  -19.5579  -12.3291 O   0  0  0  0  0  0  0  0  0  0  0  0
   24.0263  -21.4764  -15.6363 C   0  0  0  0  0  0  0  0  0  0  0  0
   23.6388  -22.3925  -16.5860 O   0  0  0  0  0  0  0  0  0  0  0  0
   20.3214  -21.8102  -12.4286 O   0  0  0  0  0  0  0  0  0  0  0  0
   24.3188  -20.3093  -16.0651 O   0  0  0  0  0  0  0  0  0  0  0  0
  2  1  1  1
  2  3  1  0
  3  4  1  0
  4  9  2  0
  5  6  2  0
  5  4  1  0
  6  7  1  0
  7  8  2  0
  9  8  1  0
 10  2  1  0
 11 10  2  0
 12 10  1  0
 13 12  1  0
 14 15  1  0
 13 14  1  6
 15 23  1  0
 16 17  1  0
 16 15  2  0
 17 18  1  0
 18 23  2  0
 18 19  1  0
 19 20  2  0
 20 21  1  0
 22 21  2  0
 23 22  1  0
 24 13  1  0
 24 25  2  0
 26 24  1  0
 27 26  1  0
 27 28  1  1
 28 29  1  0
 29 30  1  0
 30 34  1  0
 30 31  2  0
 32 27  1  0
 33 32  1  0
 35 32  2  0
M  END
$$$$
