FWE.pdb
     RDKit          3D

 35 37  0  0  1  0  0  0  0  0999 V2000
   26.2139  -24.1552  -16.0999 N   0  0  0  0  0  0  0  0  0  0  0  0
   25.2517  -23.2289  -16.6080 C   0  0  1  0  0  0  0  0  0  0  0  0
   24.5456  -23.7088  -17.8383 C   0  0  0  0  0  0  0  0  0  0  0  0
   25.4290  -23.8181  -19.0123 C   0  0  0  0  0  0  0  0  0  0  0  0
   25.6558  -22.6628  -19.7466 C   0  0  0  0  0  0  0  0  0  0  0  0
   26.4723  -22.6878  -20.8577 C   0  0  0  0  0  0  0  0  0  0  0  0
   27.0593  -23.8958  -21.2199 C   0  0  0  0  0  0  0  0  0  0  0  0
   26.8274  -25.0394  -20.4831 C   0  0  0  0  0  0  0  0  0  0  0  0
   26.0191  -25.0188  -19.3819 C   0  0  0  0  0  0  0  0  0  0  0  0
   24.2209  -22.9162  -15.5794 C   0  0  0  0  0  0  0  0  0  0  0  0
   23.8055  -23.8021  -14.7739 O   0  0  0  0  0  0  0  0  0  0  0  0
   23.6371  -21.6171  -15.4310 N   0  0  0  0  0  0  0  0  0  0  0  0
   22.6942  -21.3529  -14.3993 C   0  0  1  0  0  0  0  0  0  0  0  0
   22.6862  -19.9279  -13.8925 C   0  0  0  0  0  0  0  0  0  0  0  0
   21.7554  -19.7219  -12.7562 C   0  0  0  0  0  0  0  0  0  0  0  0
   21.7839  -20.3409  -11.5154 C   0  0  0  0  0  0  0  0  0  0  0  0
   20.7830  -19.8685  -10.7487 N   0  0  0  0  0  0  0  0  0  0  0  0
   20.0782  -18.9488  -11.4351 C   0  0  0  0  0  0  0  0  0  0  0  0
   18.9785  -18.1735  -11.1412 C   0  0  0  0  0  0  0  0  0  0  0  0
   18.4243  -17.2877  -12.0348 C   0  0  0  0  0  0  0  0  0  0  0  0
   19.0081  -17.1826  -13.2792 C   0  0  0  0  0  0  0  0  0  0  0  0
   20.1240  -17.9652  -13.5853 C   0  0  0  0  0  0  0  0  0  0  0  0
   20.6799  -18.8530  -12.6884 C   0  0  0  0  0  0  0  0  0  0  0  0
   21.2930  -21.6920  -14.7590 C   0  0  0  0  0  0  0  0  0  0  0  0
   20.8873  -21.3200  -15.8755 O   0  0  0  0  0  0  0  0  0  0  0  0
   20.4047  -22.3989  -13.9300 N   0  0  0  0  0  0  0  0  0  0  0  0
   19.0137  -22.6381  -14.3828 C   0  0  1  0  0  0  0  0  0  0  0  0
   18.7295  -24.0983  -14.1464 C   0  0  0  0  0  0  0  0  0  0  0  0
   18.6697  -24.4020  -12.6856 C   0  0  0  0  0  0  0  0  0  0  0  0
   19.1863  -25.8025  -12.5103 C   0  0  0  0  0  0  0  0  0  0  0  0
   19.5960  -26.4075  -13.5108 O   0  0  0  0  0  0  0  0  0  0  0  0
   18.0953  -21.7350  -13.6713 C   0  0  0  0  0  0  0  0  0  0  0  0
   18.4872  -20.7679  -12.7756 O   0  0  0  0  0  0  0  0  0  0  0  0
   19.2183  -26.4258  -11.2877 O   0  0  0  0  0  0  0  0  0  0  0  0
   16.8391  -21.8345  -13.8797 O   0  0  0  0  0  0  0  0  0  0  0  0
  2  1  1  1
  2  3  1  0
  3  4  1  0
  4  9  2  0
  5  6  2  0
  5  4  1  0
  6  7  1  0
  7  8  2  0
  9  8  1  0
 10  2  1  0
 11 10  2  0
 12 10  1  0
 13 12  1  0
 14 15  1  0
 13 14  1  6
 15 23  1  0
 16 17  1  0
 16 15  2  0
 17 18  1  0
 18 23  2  0
 18 19  1  0
 19 20  2  0
 20 21  1  0
 22 21  2  0
 23 22  1  0
 24 13  1  0
 24 25  2  0
 26 24  1  0
 27 26  1  0
 27 28  1  1
 28 29  1  0
 29 30  1  0
 30 34  1  0
 30 31  2  0
 32 27  1  0
 33 32  1  0
 35 32  2  0
M  END
$$$$
