FWE.pdb
     RDKit          3D

 35 37  0  0  1  0  0  0  0  0999 V2000
   28.7795  -20.6685  -13.8097 N   0  0  0  0  0  0  0  0  0  0  0  0
   27.8037  -19.8610  -13.1480 C   0  0  1  0  0  0  0  0  0  0  0  0
   26.8564  -19.1748  -14.0831 C   0  0  0  0  0  0  0  0  0  0  0  0
   27.5067  -18.1614  -14.9320 C   0  0  0  0  0  0  0  0  0  0  0  0
   27.8487  -18.5383  -16.2229 C   0  0  0  0  0  0  0  0  0  0  0  0
   28.4593  -17.6430  -17.0757 C   0  0  0  0  0  0  0  0  0  0  0  0
   28.7213  -16.3589  -16.6093 C   0  0  0  0  0  0  0  0  0  0  0  0
   28.3774  -15.9937  -15.3236 C   0  0  0  0  0  0  0  0  0  0  0  0
   27.7725  -16.8777  -14.4758 C   0  0  0  0  0  0  0  0  0  0  0  0
   26.9992  -20.6747  -12.1946 C   0  0  0  0  0  0  0  0  0  0  0  0
   26.6617  -21.8653  -12.4679 O   0  0  0  0  0  0  0  0  0  0  0  0
   26.5582  -20.1783  -10.9259 N   0  0  0  0  0  0  0  0  0  0  0  0
   25.5315  -20.8415  -10.1983 C   0  0  1  0  0  0  0  0  0  0  0  0
   25.5839  -20.6456   -8.6995 C   0  0  0  0  0  0  0  0  0  0  0  0
   26.9671  -20.6390   -8.1637 C   0  0  0  0  0  0  0  0  0  0  0  0
   28.1455  -20.8655   -8.8591 C   0  0  0  0  0  0  0  0  0  0  0  0
   29.1953  -20.7501   -8.0241 N   0  0  0  0  0  0  0  0  0  0  0  0
   28.7612  -20.4529   -6.7844 C   0  0  0  0  0  0  0  0  0  0  0  0
   29.3901  -20.2348   -5.5787 C   0  0  0  0  0  0  0  0  0  0  0  0
   28.7105  -19.9445   -4.4194 C   0  0  0  0  0  0  0  0  0  0  0  0
   27.3353  -19.8723   -4.4833 C   0  0  0  0  0  0  0  0  0  0  0  0
   26.6895  -20.0919   -5.7024 C   0  0  0  0  0  0  0  0  0  0  0  0
   27.3717  -20.3823   -6.8651 C   0  0  0  0  0  0  0  0  0  0  0  0
   24.1557  -20.4864  -10.6331 C   0  0  0  0  0  0  0  0  0  0  0  0
   23.7990  -19.3037  -10.4795 O   0  0  0  0  0  0  0  0  0  0  0  0
   23.2402  -21.3890  -11.2015 N   0  0  0  0  0  0  0  0  0  0  0  0
   21.8848  -20.9194  -11.5749 C   0  0  1  0  0  0  0  0  0  0  0  0
   21.5014  -21.6641  -12.8269 C   0  0  0  0  0  0  0  0  0  0  0  0
   22.4844  -21.4111  -13.9220 C   0  0  0  0  0  0  0  0  0  0  0  0
   21.7840  -20.5673  -14.9498 C   0  0  0  0  0  0  0  0  0  0  0  0
   20.8865  -19.8023  -14.5699 O   0  0  0  0  0  0  0  0  0  0  0  0
   20.9564  -21.1326  -10.4533 C   0  0  0  0  0  0  0  0  0  0  0  0
   19.6815  -20.6214  -10.3855 O   0  0  0  0  0  0  0  0  0  0  0  0
   22.1050  -20.6172  -16.2835 O   0  0  0  0  0  0  0  0  0  0  0  0
   21.3350  -21.8373   -9.4575 O   0  0  0  0  0  0  0  0  0  0  0  0
  2  1  1  6
  2  3  1  0
  3  4  1  0
  4  9  2  0
  5  6  2  0
  5  4  1  0
  6  7  1  0
  7  8  2  0
  9  8  1  0
 10  2  1  0
 11 10  2  0
 12 10  1  0
 13 12  1  0
 14 15  1  0
 13 14  1  1
 15 23  1  0
 16 17  1  0
 16 15  2  0
 17 18  1  0
 18 23  2  0
 18 19  1  0
 19 20  2  0
 20 21  1  0
 22 21  2  0
 23 22  1  0
 24 13  1  0
 24 25  2  0
 26 24  1  0
 27 26  1  0
 27 28  1  6
 28 29  1  0
 29 30  1  0
 30 34  1  0
 30 31  2  0
 32 27  1  0
 33 32  1  0
 35 32  2  0
M  END
$$$$
