MKN.pdb
     RDKit          3D

 26 25  0  0  1  0  0  0  0  0999 V2000
    6.3606  -11.8361   26.6341 C   0  0  0  0  0  0  0  0  0  0  0  0
    7.6923  -12.6902   27.5334 S   0  0  0  0  0  0  0  0  0  0  0  0
    7.8705  -14.3597   26.8066 C   0  0  0  0  0  0  0  0  0  0  0  0
    6.5449  -14.7882   26.2639 C   0  0  0  0  0  0  0  0  0  0  0  0
    6.5522  -16.1642   25.6477 C   0  0  2  0  0  0  0  0  0  0  0  0
    7.0010  -17.1595   26.5810 N   0  0  0  0  0  0  0  0  0  0  0  0
    7.3783  -16.1254   24.4163 C   0  0  0  0  0  0  0  0  0  0  0  0
    8.1224  -17.0820   24.1195 O   0  0  0  0  0  0  0  0  0  0  0  0
    7.3597  -14.9910   23.5170 N   0  0  0  0  0  0  0  0  0  0  0  0
    8.1709  -14.9608   22.3452 C   0  0  1  0  0  0  0  0  0  0  0  0
    7.8481  -14.0244   21.2612 C   0  0  0  0  0  0  0  0  0  0  0  0
    7.6525  -14.4585   19.8763 C   0  0  0  0  0  0  0  0  0  0  0  0
    8.1891  -13.5821   18.7990 C   0  0  0  0  0  0  0  0  0  0  0  0
    7.8058  -14.1586   17.4329 C   0  0  0  0  0  0  0  0  0  0  0  0
    8.1468  -13.2029   16.3861 N   0  0  0  0  0  0  0  0  0  0  0  0
    9.6351  -14.9331   22.7095 C   0  0  0  0  0  0  0  0  0  0  0  0
   10.0347  -14.3877   23.7786 O   0  0  0  0  0  0  0  0  0  0  0  0
   14.3083  -15.9980   24.2252 N   0  0  0  0  0  0  0  0  0  0  0  0
   13.4360  -17.0254   23.7822 C   0  0  0  0  0  0  0  0  0  0  0  0
   13.9078  -18.1818   23.6629 O   0  0  0  0  0  0  0  0  0  0  0  0
   12.0333  -16.6731   23.4898 C   0  0  0  0  0  0  0  0  0  0  0  0
   11.9810  -15.7900   22.2895 C   0  0  2  0  0  0  0  0  0  0  0  0
   10.6119  -15.5127   21.8748 N   0  0  0  0  0  0  0  0  0  0  0  0
   12.7157  -16.3135   21.1310 C   0  0  0  0  0  0  0  0  0  0  0  0
   14.0821  -16.1687   21.0349 O   0  0  0  0  0  0  0  0  0  0  0  0
   12.1032  -16.8990   20.2134 O   0  0  0  0  0  0  0  0  0  0  0  0
  2  1  1  0
  3  2  1  0
  4  3  1  0
  4  5  1  0
  5  7  1  0
  5  6  1  1
  7  8  2  0
  9 10  1  0
  9  7  1  0
 10 11  1  1
 12 11  1  0
 13 14  1  0
 13 12  1  0
 15 14  1  0
 16 17  2  0
 16 10  1  0
 18 19  1  0
 19 21  1  0
 20 19  2  0
 22 21  1  1
 22 23  1  0
 22 24  1  0
 23 16  1  0
 24 25  1  0
 26 24  2  0
M  END
$$$$
