MKN.pdb
     RDKit          3D

 26 25  0  0  1  0  0  0  0  0999 V2000
    6.5628  -12.9205   26.8946 C   0  0  0  0  0  0  0  0  0  0  0  0
    6.9771  -11.5776   25.7384 S   0  0  0  0  0  0  0  0  0  0  0  0
    7.4325  -12.3425   24.1400 C   0  0  0  0  0  0  0  0  0  0  0  0
    7.4023  -13.8292   24.2963 C   0  0  0  0  0  0  0  0  0  0  0  0
    7.7556  -14.5834   23.0395 C   0  0  2  0  0  0  0  0  0  0  0  0
    6.9232  -14.1927   21.9363 N   0  0  0  0  0  0  0  0  0  0  0  0
    7.6778  -16.0372   23.3240 C   0  0  0  0  0  0  0  0  0  0  0  0
    6.6553  -16.5296   23.8424 O   0  0  0  0  0  0  0  0  0  0  0  0
    8.7701  -16.9369   23.0187 N   0  0  0  0  0  0  0  0  0  0  0  0
    8.6787  -18.3330   23.2919 C   0  0  1  0  0  0  0  0  0  0  0  0
    8.7596  -19.2971   22.1873 C   0  0  0  0  0  0  0  0  0  0  0  0
    8.5895  -20.7381   22.3843 C   0  0  0  0  0  0  0  0  0  0  0  0
    8.7406  -21.6174   21.1923 C   0  0  0  0  0  0  0  0  0  0  0  0
    8.5059  -23.0750   21.5995 C   0  0  0  0  0  0  0  0  0  0  0  0
    8.7968  -23.9505   20.4706 N   0  0  0  0  0  0  0  0  0  0  0  0
    9.5713  -18.7106   24.4487 C   0  0  0  0  0  0  0  0  0  0  0  0
    9.6825  -19.9128   24.8261 O   0  0  0  0  0  0  0  0  0  0  0  0
   11.3207  -17.9503   29.5387 N   0  0  0  0  0  0  0  0  0  0  0  0
   10.8638  -18.9432   28.6343 C   0  0  0  0  0  0  0  0  0  0  0  0
   11.1511  -20.1386   28.8844 O   0  0  0  0  0  0  0  0  0  0  0  0
   10.0819  -18.5117   27.4597 C   0  0  0  0  0  0  0  0  0  0  0  0
   11.0051  -17.9938   26.4095 C   0  0  2  0  0  0  0  0  0  0  0  0
   10.3142  -17.7407   25.1517 N   0  0  0  0  0  0  0  0  0  0  0  0
   12.1508  -18.8705   26.1369 C   0  0  0  0  0  0  0  0  0  0  0  0
   12.0735  -19.8603   25.1820 O   0  0  0  0  0  0  0  0  0  0  0  0
   13.2151  -18.7267   26.7744 O   0  0  0  0  0  0  0  0  0  0  0  0
  2  1  1  0
  3  2  1  0
  4  3  1  0
  4  5  1  0
  5  7  1  0
  5  6  1  6
  7  8  2  0
  9 10  1  0
  9  7  1  0
 10 11  1  6
 12 11  1  0
 13 14  1  0
 13 12  1  0
 15 14  1  0
 16 17  2  0
 16 10  1  0
 18 19  1  0
 19 21  1  0
 20 19  2  0
 22 21  1  1
 22 23  1  0
 22 24  1  0
 23 16  1  0
 24 25  1  0
 26 24  2  0
M  END
$$$$
