MKN.pdb
     RDKit          3D

 26 25  0  0  1  0  0  0  0  0999 V2000
    7.1590  -11.1370   26.5627 C   0  0  0  0  0  0  0  0  0  0  0  0
    6.7849  -12.4389   27.7778 S   0  0  0  0  0  0  0  0  0  0  0  0
    6.0146  -13.8331   26.8777 C   0  0  0  0  0  0  0  0  0  0  0  0
    6.9954  -14.3561   25.8778 C   0  0  0  0  0  0  0  0  0  0  0  0
    6.4476  -15.4521   24.9993 C   0  0  2  0  0  0  0  0  0  0  0  0
    6.0294  -16.5892   25.7707 N   0  0  0  0  0  0  0  0  0  0  0  0
    7.4717  -15.7990   23.9837 C   0  0  0  0  0  0  0  0  0  0  0  0
    8.1051  -16.8713   24.0602 O   0  0  0  0  0  0  0  0  0  0  0  0
    7.7789  -14.9206   22.8747 N   0  0  0  0  0  0  0  0  0  0  0  0
    8.8639  -15.1938   21.9914 C   0  0  1  0  0  0  0  0  0  0  0  0
    8.9962  -14.4303   20.7442 C   0  0  0  0  0  0  0  0  0  0  0  0
    8.2033  -14.7278   19.5495 C   0  0  0  0  0  0  0  0  0  0  0  0
    8.4269  -13.8787   18.3471 C   0  0  0  0  0  0  0  0  0  0  0  0
    7.4988  -14.3370   17.2182 C   0  0  0  0  0  0  0  0  0  0  0  0
    7.7189  -13.5092   16.0385 N   0  0  0  0  0  0  0  0  0  0  0  0
   10.1643  -15.2782   22.7525 C   0  0  0  0  0  0  0  0  0  0  0  0
   10.3574  -14.5941   23.7989 O   0  0  0  0  0  0  0  0  0  0  0  0
   10.6143  -18.5584   25.0340 N   0  0  0  0  0  0  0  0  0  0  0  0
   11.7886  -18.2144   24.3161 C   0  0  0  0  0  0  0  0  0  0  0  0
   12.3443  -19.1129   23.6393 O   0  0  0  0  0  0  0  0  0  0  0  0
   12.2829  -16.8273   24.4087 C   0  0  0  0  0  0  0  0  0  0  0  0
   12.4753  -16.2742   23.0373 C   0  0  2  0  0  0  0  0  0  0  0  0
   11.2117  -16.1206   22.3281 N   0  0  0  0  0  0  0  0  0  0  0  0
   13.3818  -17.0659   22.1963 C   0  0  0  0  0  0  0  0  0  0  0  0
   12.9454  -17.6232   21.0147 O   0  0  0  0  0  0  0  0  0  0  0  0
   14.5670  -17.2440   22.5479 O   0  0  0  0  0  0  0  0  0  0  0  0
  2  1  1  0
  3  2  1  0
  4  3  1  0
  4  5  1  0
  5  7  1  0
  5  6  1  1
  7  8  2  0
  9 10  1  0
  9  7  1  0
 10 11  1  6
 12 11  1  0
 13 14  1  0
 13 12  1  0
 15 14  1  0
 16 17  2  0
 16 10  1  0
 18 19  1  0
 19 21  1  0
 20 19  2  0
 22 21  1  1
 22 23  1  0
 22 24  1  0
 23 16  1  0
 24 25  1  0
 26 24  2  0
M  END
$$$$
