MKN.pdb
     RDKit          3D

 26 25  0  0  1  0  0  0  0  0999 V2000
    6.1417  -10.9791   27.1029 C   0  0  0  0  0  0  0  0  0  0  0  0
    7.2703  -12.1985   26.3608 S   0  0  0  0  0  0  0  0  0  0  0  0
    6.3210  -13.7384   26.0871 C   0  0  0  0  0  0  0  0  0  0  0  0
    7.2679  -14.8133   25.6587 C   0  0  0  0  0  0  0  0  0  0  0  0
    8.0504  -14.4787   24.4142 C   0  0  2  0  0  0  0  0  0  0  0  0
    7.1942  -14.0080   23.3615 N   0  0  0  0  0  0  0  0  0  0  0  0
    8.8377  -15.6714   24.0169 C   0  0  0  0  0  0  0  0  0  0  0  0
    9.4150  -16.3673   24.8767 O   0  0  0  0  0  0  0  0  0  0  0  0
    8.9710  -16.0750   22.6330 N   0  0  0  0  0  0  0  0  0  0  0  0
    9.7871  -17.1824   22.2592 C   0  0  1  0  0  0  0  0  0  0  0  0
    9.5355  -17.8753   20.9893 C   0  0  0  0  0  0  0  0  0  0  0  0
   10.3436  -19.0093   20.5362 C   0  0  0  0  0  0  0  0  0  0  0  0
   10.0655  -19.5525   19.1781 C   0  0  0  0  0  0  0  0  0  0  0  0
   11.0303  -20.7042   18.8809 C   0  0  0  0  0  0  0  0  0  0  0  0
   10.8970  -21.1056   17.4857 N   0  0  0  0  0  0  0  0  0  0  0  0
   11.2481  -16.8602   22.4567 C   0  0  0  0  0  0  0  0  0  0  0  0
   11.7560  -15.8022   21.9848 O   0  0  0  0  0  0  0  0  0  0  0  0
   16.0369  -16.1289   24.6700 N   0  0  0  0  0  0  0  0  0  0  0  0
   15.3883  -17.3705   24.8942 C   0  0  0  0  0  0  0  0  0  0  0  0
   16.1040  -18.3611   25.1780 O   0  0  0  0  0  0  0  0  0  0  0  0
   13.9181  -17.4212   24.7806 C   0  0  0  0  0  0  0  0  0  0  0  0
   13.5319  -17.5033   23.3427 C   0  0  2  0  0  0  0  0  0  0  0  0
   12.1014  -17.7236   23.1732 N   0  0  0  0  0  0  0  0  0  0  0  0
   14.2495  -18.5399   22.5903 C   0  0  0  0  0  0  0  0  0  0  0  0
   15.3675  -18.2297   21.8478 O   0  0  0  0  0  0  0  0  0  0  0  0
   13.8490  -19.7227   22.6155 O   0  0  0  0  0  0  0  0  0  0  0  0
  2  1  1  0
  3  2  1  0
  4  3  1  0
  4  5  1  0
  5  7  1  0
  5  6  1  6
  7  8  2  0
  9 10  1  0
  9  7  1  0
 10 11  1  6
 12 11  1  0
 13 14  1  0
 13 12  1  0
 15 14  1  0
 16 17  2  0
 16 10  1  0
 18 19  1  0
 19 21  1  0
 20 19  2  0
 22 21  1  1
 22 23  1  0
 22 24  1  0
 23 16  1  0
 24 25  1  0
 26 24  2  0
M  END
$$$$
