MKN.pdb
     RDKit          3D

 26 25  0  0  1  0  0  0  0  0999 V2000
    8.7728  -11.5725   20.8781 C   0  0  0  0  0  0  0  0  0  0  0  0
    7.5053  -12.0869   19.6779 S   0  0  0  0  0  0  0  0  0  0  0  0
    7.4910  -13.9159   19.6357 C   0  0  0  0  0  0  0  0  0  0  0  0
    7.6841  -14.4272   21.0273 C   0  0  0  0  0  0  0  0  0  0  0  0
    7.7553  -15.9302   21.1223 C   0  0  2  0  0  0  0  0  0  0  0  0
    6.5867  -16.5515   20.5643 N   0  0  0  0  0  0  0  0  0  0  0  0
    7.9757  -16.3035   22.5409 C   0  0  0  0  0  0  0  0  0  0  0  0
    7.0167  -16.3745   23.3359 O   0  0  0  0  0  0  0  0  0  0  0  0
    9.2951  -16.5966   23.0596 N   0  0  0  0  0  0  0  0  0  0  0  0
    9.4905  -16.9651   24.4227 C   0  0  1  0  0  0  0  0  0  0  0  0
   10.3411  -18.1164   24.7501 C   0  0  0  0  0  0  0  0  0  0  0  0
   10.2344  -19.3993   24.0522 C   0  0  0  0  0  0  0  0  0  0  0  0
   11.2480  -20.4420   24.3718 C   0  0  0  0  0  0  0  0  0  0  0  0
   11.0243  -21.6638   23.4758 C   0  0  0  0  0  0  0  0  0  0  0  0
   12.0061  -22.6922   23.7979 N   0  0  0  0  0  0  0  0  0  0  0  0
    9.8172  -15.7541   25.2620 C   0  0  0  0  0  0  0  0  0  0  0  0
   10.8149  -15.0227   24.9977 O   0  0  0  0  0  0  0  0  0  0  0  0
    5.9214  -13.0202   26.4036 N   0  0  0  0  0  0  0  0  0  0  0  0
    7.3366  -13.1100   26.3619 C   0  0  0  0  0  0  0  0  0  0  0  0
    7.9078  -12.8407   25.2778 O   0  0  0  0  0  0  0  0  0  0  0  0
    8.0475  -13.5127   27.5905 C   0  0  0  0  0  0  0  0  0  0  0  0
    9.2949  -14.2446   27.2274 C   0  0  2  0  0  0  0  0  0  0  0  0
    9.0251  -15.3917   26.3701 N   0  0  0  0  0  0  0  0  0  0  0  0
   10.0735  -14.7068   28.3831 C   0  0  0  0  0  0  0  0  0  0  0  0
   10.4895  -16.0165   28.4784 O   0  0  0  0  0  0  0  0  0  0  0  0
   10.3676  -13.9104   29.2992 O   0  0  0  0  0  0  0  0  0  0  0  0
  2  1  1  0
  3  2  1  0
  4  3  1  0
  4  5  1  0
  5  7  1  0
  5  6  1  1
  7  8  2  0
  9 10  1  0
  9  7  1  0
 10 11  1  6
 12 11  1  0
 13 14  1  0
 13 12  1  0
 15 14  1  0
 16 17  2  0
 16 10  1  0
 18 19  1  0
 19 21  1  0
 20 19  2  0
 22 21  1  1
 22 23  1  0
 22 24  1  0
 23 16  1  0
 24 25  1  0
 26 24  2  0
M  END
$$$$
