WCW.pdb
     RDKit          3D

 35 38  0  0  1  0  0  0  0  0999 V2000
   24.2035  -21.3604  -17.1268 N   0  0  0  0  0  0  0  0  0  0  0  0
   24.3925  -20.6273  -15.8522 C   0  0  1  0  0  0  0  0  0  0  0  0
   23.1563  -20.8126  -15.0413 C   0  0  0  0  0  0  0  0  0  0  0  0
   21.9519  -20.1805  -15.5997 C   0  0  0  0  0  0  0  0  0  0  0  0
   20.7830  -20.7974  -16.0096 C   0  0  0  0  0  0  0  0  0  0  0  0
   19.8772  -19.8930  -16.3963 N   0  0  0  0  0  0  0  0  0  0  0  0
   20.4368  -18.6738  -16.2479 C   0  0  0  0  0  0  0  0  0  0  0  0
   19.9083  -17.4195  -16.5134 C   0  0  0  0  0  0  0  0  0  0  0  0
   20.6618  -16.2876  -16.2989 C   0  0  0  0  0  0  0  0  0  0  0  0
   21.9448  -16.4407  -15.8141 C   0  0  0  0  0  0  0  0  0  0  0  0
   22.4440  -17.6879  -15.5565 C   0  0  0  0  0  0  0  0  0  0  0  0
   21.7217  -18.8464  -15.7565 C   0  0  0  0  0  0  0  0  0  0  0  0
   25.6885  -20.9348  -15.2635 C   0  0  0  0  0  0  0  0  0  0  0  0
   26.0534  -22.1499  -15.2240 O   0  0  0  0  0  0  0  0  0  0  0  0
   26.5774  -19.9820  -14.7220 N   0  0  0  0  0  0  0  0  0  0  0  0
   27.4201  -20.0437  -13.5884 C   0  0  1  0  0  0  0  0  0  0  0  0
   28.4406  -18.9386  -13.4127 C   0  0  0  0  0  0  0  0  0  0  0  0
   27.5969  -17.3604  -13.3821 S   0  0  0  0  0  0  0  0  0  0  0  0
   26.7250  -20.3715  -12.3359 C   0  0  0  0  0  0  0  0  0  0  0  0
   25.4831  -20.0645  -12.2103 O   0  0  0  0  0  0  0  0  0  0  0  0
   27.2784  -21.0083  -11.1988 N   0  0  0  0  0  0  0  0  0  0  0  0
   26.6288  -21.2043   -9.9508 C   0  0  1  0  0  0  0  0  0  0  0  0
   27.4324  -21.6704   -8.7961 C   0  0  0  0  0  0  0  0  0  0  0  0
   27.4176  -20.6752   -7.7035 C   0  0  0  0  0  0  0  0  0  0  0  0
   26.4727  -19.6976   -7.5201 C   0  0  0  0  0  0  0  0  0  0  0  0
   26.8093  -18.9726   -6.4150 N   0  0  0  0  0  0  0  0  0  0  0  0
   27.9554  -19.4993   -5.9186 C   0  0  0  0  0  0  0  0  0  0  0  0
   28.7171  -19.1480   -4.8241 C   0  0  0  0  0  0  0  0  0  0  0  0
   29.8689  -19.8500   -4.5119 C   0  0  0  0  0  0  0  0  0  0  0  0
   30.2915  -20.9151   -5.2787 C   0  0  0  0  0  0  0  0  0  0  0  0
   29.5186  -21.2553   -6.3736 C   0  0  0  0  0  0  0  0  0  0  0  0
   28.3724  -20.5611   -6.6889 C   0  0  0  0  0  0  0  0  0  0  0  0
   25.7924  -19.9985   -9.6629 C   0  0  0  0  0  0  0  0  0  0  0  0
   26.1674  -18.8338   -9.9271 O   0  0  0  0  0  0  0  0  0  0  0  0
   24.5615  -20.1783   -9.0805 O   0  0  0  0  0  0  0  0  0  0  0  0
  2  3  1  0
  2  1  1  6
  4  3  1  0
  5  4  2  0
  6  7  1  0
  6  5  1  0
  7 12  2  0
  8  7  1  0
  8  9  2  0
  9 10  1  0
 10 11  2  0
 12  4  1  0
 12 11  1  0
 13  2  1  0
 13 15  1  0
 14 13  2  0
 16 15  1  0
 16 17  1  1
 17 18  1  0
 19 20  2  0
 19 16  1  0
 21 19  1  0
 22 21  1  0
 22 33  1  0
 22 23  1  1
 24 23  1  0
 25 24  2  0
 26 27  1  0
 26 25  1  0
 27 32  2  0
 28 29  2  0
 28 27  1  0
 29 30  1  0
 30 31  2  0
 32 24  1  0
 32 31  1  0
 33 35  1  0
 34 33  2  0
M  END
$$$$
