WCW.pdb
     RDKit          3D

 35 38  0  0  1  0  0  0  0  0999 V2000
   22.0611  -21.5989  -13.2062 N   0  0  0  0  0  0  0  0  0  0  0  0
   23.0489  -20.5120  -13.4082 C   0  0  1  0  0  0  0  0  0  0  0  0
   22.5499  -19.3120  -12.6796 C   0  0  0  0  0  0  0  0  0  0  0  0
   21.2228  -18.8412  -13.1027 C   0  0  0  0  0  0  0  0  0  0  0  0
   20.0558  -18.8148  -12.3595 C   0  0  0  0  0  0  0  0  0  0  0  0
   19.0614  -18.2516  -13.0538 N   0  0  0  0  0  0  0  0  0  0  0  0
   19.5590  -17.9028  -14.2590 C   0  0  0  0  0  0  0  0  0  0  0  0
   18.9294  -17.2916  -15.3328 C   0  0  0  0  0  0  0  0  0  0  0  0
   19.6263  -17.0301  -16.4908 C   0  0  0  0  0  0  0  0  0  0  0  0
   20.9574  -17.3899  -16.5459 C   0  0  0  0  0  0  0  0  0  0  0  0
   21.5583  -17.9890  -15.4731 C   0  0  0  0  0  0  0  0  0  0  0  0
   20.8962  -18.2671  -14.2948 C   0  0  0  0  0  0  0  0  0  0  0  0
   24.4028  -20.9885  -13.1618 C   0  0  0  0  0  0  0  0  0  0  0  0
   24.5837  -21.8070  -12.2086 O   0  0  0  0  0  0  0  0  0  0  0  0
   25.5423  -20.6047  -13.9003 N   0  0  0  0  0  0  0  0  0  0  0  0
   26.9090  -20.9184  -13.7204 C   0  0  1  0  0  0  0  0  0  0  0  0
   27.8520  -20.6281  -14.8693 C   0  0  0  0  0  0  0  0  0  0  0  0
   27.9844  -18.8563  -15.0862 S   0  0  0  0  0  0  0  0  0  0  0  0
   27.4588  -20.5019  -12.4227 C   0  0  0  0  0  0  0  0  0  0  0  0
   26.8948  -19.5396  -11.7838 O   0  0  0  0  0  0  0  0  0  0  0  0
   28.5842  -21.0504  -11.7615 N   0  0  0  0  0  0  0  0  0  0  0  0
   29.0853  -20.6525  -10.4932 C   0  0  1  0  0  0  0  0  0  0  0  0
   28.1464  -20.5777   -9.3490 C   0  0  0  0  0  0  0  0  0  0  0  0
   28.8420  -20.1424   -8.1198 C   0  0  0  0  0  0  0  0  0  0  0  0
   30.0822  -19.5587   -8.0624 C   0  0  0  0  0  0  0  0  0  0  0  0
   30.3851  -19.3141   -6.7553 N   0  0  0  0  0  0  0  0  0  0  0  0
   29.3381  -19.7442   -6.0096 C   0  0  0  0  0  0  0  0  0  0  0  0
   29.1289  -19.7343   -4.6465 C   0  0  0  0  0  0  0  0  0  0  0  0
   27.9565  -20.2383   -4.1095 C   0  0  0  0  0  0  0  0  0  0  0  0
   26.9662  -20.7642   -4.9118 C   0  0  0  0  0  0  0  0  0  0  0  0
   27.1901  -20.7685   -6.2762 C   0  0  0  0  0  0  0  0  0  0  0  0
   28.3537  -20.2687   -6.8161 C   0  0  0  0  0  0  0  0  0  0  0  0
   30.3261  -21.4383  -10.2117 C   0  0  0  0  0  0  0  0  0  0  0  0
   30.6239  -22.4826  -10.8345 O   0  0  0  0  0  0  0  0  0  0  0  0
   31.1726  -20.9957   -9.2247 O   0  0  0  0  0  0  0  0  0  0  0  0
  2  3  1  0
  2  1  1  1
  4  3  1  0
  5  4  2  0
  6  7  1  0
  6  5  1  0
  7 12  2  0
  8  7  1  0
  8  9  2  0
  9 10  1  0
 10 11  2  0
 12  4  1  0
 12 11  1  0
 13  2  1  0
 13 15  1  0
 14 13  2  0
 16 15  1  0
 16 17  1  6
 17 18  1  0
 19 20  2  0
 19 16  1  0
 21 19  1  0
 22 21  1  0
 22 33  1  0
 22 23  1  1
 24 23  1  0
 25 24  2  0
 26 27  1  0
 26 25  1  0
 27 32  2  0
 28 29  2  0
 28 27  1  0
 29 30  1  0
 30 31  2  0
 32 24  1  0
 32 31  1  0
 33 35  1  0
 34 33  2  0
M  END
$$$$
