WCW.pdb
     RDKit          3D

 35 38  0  0  1  0  0  0  0  0999 V2000
   32.8143  -24.4163  -15.8162 N   0  0  0  0  0  0  0  0  0  0  0  0
   32.1173  -25.4244  -16.6503 C   0  0  1  0  0  0  0  0  0  0  0  0
   33.0294  -26.5936  -16.7955 C   0  0  0  0  0  0  0  0  0  0  0  0
   34.1671  -26.3795  -17.7020 C   0  0  0  0  0  0  0  0  0  0  0  0
   35.4017  -25.8329  -17.3988 C   0  0  0  0  0  0  0  0  0  0  0  0
   36.2105  -25.8634  -18.4632 N   0  0  0  0  0  0  0  0  0  0  0  0
   35.5207  -26.4270  -19.4772 C   0  0  0  0  0  0  0  0  0  0  0  0
   35.9151  -26.6801  -20.7823 C   0  0  0  0  0  0  0  0  0  0  0  0
   35.0409  -27.2615  -21.6728 C   0  0  0  0  0  0  0  0  0  0  0  0
   33.7747  -27.5826  -21.2278 C   0  0  0  0  0  0  0  0  0  0  0  0
   33.4088  -27.3264  -19.9349 C   0  0  0  0  0  0  0  0  0  0  0  0
   34.2546  -26.7468  -19.0115 C   0  0  0  0  0  0  0  0  0  0  0  0
   30.7541  -25.6327  -16.1823 C   0  0  0  0  0  0  0  0  0  0  0  0
   30.4807  -25.3229  -14.9821 O   0  0  0  0  0  0  0  0  0  0  0  0
   29.7036  -26.1626  -16.9614 N   0  0  0  0  0  0  0  0  0  0  0  0
   28.3247  -26.3011  -16.6818 C   0  0  1  0  0  0  0  0  0  0  0  0
   27.4640  -25.0579  -16.7665 C   0  0  0  0  0  0  0  0  0  0  0  0
   27.9263  -24.1223  -18.2207 S   0  0  0  0  0  0  0  0  0  0  0  0
   27.6934  -27.4663  -17.3168 C   0  0  0  0  0  0  0  0  0  0  0  0
   27.7400  -27.5839  -18.5960 O   0  0  0  0  0  0  0  0  0  0  0  0
   27.0068  -28.5200  -16.6665 N   0  0  0  0  0  0  0  0  0  0  0  0
   26.3655  -29.6176  -17.3006 C   0  0  1  0  0  0  0  0  0  0  0  0
   25.9379  -30.7682  -16.4701 C   0  0  0  0  0  0  0  0  0  0  0  0
   25.2638  -31.7945  -17.2927 C   0  0  0  0  0  0  0  0  0  0  0  0
   25.8852  -32.7917  -18.0010 C   0  0  0  0  0  0  0  0  0  0  0  0
   24.9310  -33.5271  -18.6403 N   0  0  0  0  0  0  0  0  0  0  0  0
   23.7273  -32.9874  -18.3289 C   0  0  0  0  0  0  0  0  0  0  0  0
   22.4485  -33.3413  -18.7046 C   0  0  0  0  0  0  0  0  0  0  0  0
   21.3556  -32.6245  -18.2478 C   0  0  0  0  0  0  0  0  0  0  0  0
   21.5064  -31.5404  -17.4094 C   0  0  0  0  0  0  0  0  0  0  0  0
   22.7942  -31.1964  -17.0420 C   0  0  0  0  0  0  0  0  0  0  0  0
   23.8848  -31.9054  -17.4928 C   0  0  0  0  0  0  0  0  0  0  0  0
   25.2939  -29.0815  -18.1953 C   0  0  0  0  0  0  0  0  0  0  0  0
   24.4445  -28.2459  -17.8115 O   0  0  0  0  0  0  0  0  0  0  0  0
   25.2388  -29.5287  -19.4929 O   0  0  0  0  0  0  0  0  0  0  0  0
  2  3  1  0
  2  1  1  1
  4  3  1  0
  5  4  2  0
  6  7  1  0
  6  5  1  0
  7 12  2  0
  8  7  1  0
  8  9  2  0
  9 10  1  0
 10 11  2  0
 12  4  1  0
 12 11  1  0
 13  2  1  0
 13 15  1  0
 14 13  2  0
 16 15  1  0
 16 17  1  6
 17 18  1  0
 19 20  2  0
 19 16  1  0
 21 19  1  0
 22 21  1  0
 22 33  1  0
 22 23  1  1
 24 23  1  0
 25 24  2  0
 26 27  1  0
 26 25  1  0
 27 32  2  0
 28 29  2  0
 28 27  1  0
 29 30  1  0
 30 31  2  0
 32 24  1  0
 32 31  1  0
 33 35  1  0
 34 33  2  0
M  END
$$$$
