WCW.pdb
     RDKit          3D

 35 38  0  0  1  0  0  0  0  0999 V2000
   28.1745  -20.4205  -17.8826 N   0  0  0  0  0  0  0  0  0  0  0  0
   27.8043  -21.3732  -16.8088 C   0  0  1  0  0  0  0  0  0  0  0  0
   28.6981  -22.5587  -16.9339 C   0  0  0  0  0  0  0  0  0  0  0  0
   28.6406  -23.2397  -18.2358 C   0  0  0  0  0  0  0  0  0  0  0  0
   29.6992  -23.6091  -19.0469 C   0  0  0  0  0  0  0  0  0  0  0  0
   29.2655  -24.2738  -20.1231 N   0  0  0  0  0  0  0  0  0  0  0  0
   27.9207  -24.3488  -20.0351 C   0  0  0  0  0  0  0  0  0  0  0  0
   27.0087  -24.9334  -20.9009 C   0  0  0  0  0  0  0  0  0  0  0  0
   25.6607  -24.8879  -20.6257 C   0  0  0  0  0  0  0  0  0  0  0  0
   25.2521  -24.2509  -19.4717 C   0  0  0  0  0  0  0  0  0  0  0  0
   26.1700  -23.6841  -18.6308 C   0  0  0  0  0  0  0  0  0  0  0  0
   27.5289  -23.7088  -18.8693 C   0  0  0  0  0  0  0  0  0  0  0  0
   27.6924  -20.6922  -15.5264 C   0  0  0  0  0  0  0  0  0  0  0  0
   28.5934  -19.8544  -15.2144 O   0  0  0  0  0  0  0  0  0  0  0  0
   26.6562  -20.8956  -14.5903 N   0  0  0  0  0  0  0  0  0  0  0  0
   26.3334  -20.1990  -13.4032 C   0  0  1  0  0  0  0  0  0  0  0  0
   25.1671  -19.2342  -13.4517 C   0  0  0  0  0  0  0  0  0  0  0  0
   23.6490  -20.1591  -13.6604 S   0  0  0  0  0  0  0  0  0  0  0  0
   26.3205  -21.0365  -12.1956 C   0  0  0  0  0  0  0  0  0  0  0  0
   26.0788  -22.2939  -12.3086 O   0  0  0  0  0  0  0  0  0  0  0  0
   26.5476  -20.6111  -10.8644 N   0  0  0  0  0  0  0  0  0  0  0  0
   26.3908  -21.4025   -9.6952 C   0  0  1  0  0  0  0  0  0  0  0  0
   27.5508  -21.5684   -8.7878 C   0  0  0  0  0  0  0  0  0  0  0  0
   27.6963  -20.4004   -7.8940 C   0  0  0  0  0  0  0  0  0  0  0  0
   27.1113  -19.1727   -8.0748 C   0  0  0  0  0  0  0  0  0  0  0  0
   27.4927  -18.3568   -7.0506 N   0  0  0  0  0  0  0  0  0  0  0  0
   28.3085  -19.0763   -6.2419 C   0  0  0  0  0  0  0  0  0  0  0  0
   28.9638  -18.7355   -5.0773 C   0  0  0  0  0  0  0  0  0  0  0  0
   29.7555  -19.6600   -4.4174 C   0  0  0  0  0  0  0  0  0  0  0  0
   29.9159  -20.9422   -4.8980 C   0  0  0  0  0  0  0  0  0  0  0  0
   29.2540  -21.2694   -6.0671 C   0  0  0  0  0  0  0  0  0  0  0  0
   28.4653  -20.3546   -6.7276 C   0  0  0  0  0  0  0  0  0  0  0  0
   25.1347  -20.9756   -9.0050 C   0  0  0  0  0  0  0  0  0  0  0  0
   24.4510  -19.9978   -9.3836 O   0  0  0  0  0  0  0  0  0  0  0  0
   24.7164  -21.6862   -7.9064 O   0  0  0  0  0  0  0  0  0  0  0  0
  2  3  1  0
  2  1  1  6
  4  3  1  0
  5  4  2  0
  6  7  1  0
  6  5  1  0
  7 12  2  0
  8  7  1  0
  8  9  2  0
  9 10  1  0
 10 11  2  0
 12  4  1  0
 12 11  1  0
 13  2  1  0
 13 15  1  0
 14 13  2  0
 16 15  1  0
 16 17  1  6
 17 18  1  0
 19 20  2  0
 19 16  1  0
 21 19  1  0
 22 21  1  0
 22 33  1  0
 22 23  1  1
 24 23  1  0
 25 24  2  0
 26 27  1  0
 26 25  1  0
 27 32  2  0
 28 29  2  0
 28 27  1  0
 29 30  1  0
 30 31  2  0
 32 24  1  0
 32 31  1  0
 33 35  1  0
 34 33  2  0
M  END
$$$$
