WCW.pdb
     RDKit          3D

 35 38  0  0  1  0  0  0  0  0999 V2000
   26.3164  -22.2369  -16.6282 N   0  0  0  0  0  0  0  0  0  0  0  0
   25.6024  -21.1618  -15.8986 C   0  0  1  0  0  0  0  0  0  0  0  0
   24.7516  -20.4393  -16.8855 C   0  0  0  0  0  0  0  0  0  0  0  0
   25.4908  -19.7867  -17.9762 C   0  0  0  0  0  0  0  0  0  0  0  0
   25.9359  -20.3542  -19.1572 C   0  0  0  0  0  0  0  0  0  0  0  0
   26.5085  -19.4350  -19.9415 N   0  0  0  0  0  0  0  0  0  0  0  0
   26.4492  -18.2552  -19.2884 C   0  0  0  0  0  0  0  0  0  0  0  0
   26.9064  -17.0050  -19.6770 C   0  0  0  0  0  0  0  0  0  0  0  0
   26.7534  -15.9190  -18.8450 C   0  0  0  0  0  0  0  0  0  0  0  0
   26.1346  -16.1131  -17.6269 C   0  0  0  0  0  0  0  0  0  0  0  0
   25.6888  -17.3549  -17.2661 C   0  0  0  0  0  0  0  0  0  0  0  0
   25.8215  -18.4680  -18.0707 C   0  0  0  0  0  0  0  0  0  0  0  0
   25.0024  -21.6748  -14.6749 C   0  0  0  0  0  0  0  0  0  0  0  0
   24.2725  -22.7101  -14.7560 O   0  0  0  0  0  0  0  0  0  0  0  0
   25.1631  -21.1041  -13.3943 N   0  0  0  0  0  0  0  0  0  0  0  0
   24.4470  -21.3123  -12.1933 C   0  0  1  0  0  0  0  0  0  0  0  0
   25.1901  -21.1078  -10.8897 C   0  0  0  0  0  0  0  0  0  0  0  0
   24.0422  -21.2782   -9.5270 S   0  0  0  0  0  0  0  0  0  0  0  0
   23.1066  -20.7101  -12.1768 C   0  0  0  0  0  0  0  0  0  0  0  0
   22.9933  -19.4391  -12.0219 O   0  0  0  0  0  0  0  0  0  0  0  0
   21.8700  -21.3860  -12.3127 N   0  0  0  0  0  0  0  0  0  0  0  0
   20.5850  -20.7810  -12.3442 C   0  0  1  0  0  0  0  0  0  0  0  0
   20.1350  -20.1322  -13.5984 C   0  0  0  0  0  0  0  0  0  0  0  0
   19.8737  -21.1364  -14.6508 C   0  0  0  0  0  0  0  0  0  0  0  0
   18.9305  -22.1312  -14.5956 C   0  0  0  0  0  0  0  0  0  0  0  0
   19.0021  -22.8595  -15.7465 N   0  0  0  0  0  0  0  0  0  0  0  0
   19.9838  -22.3179  -16.5082 C   0  0  0  0  0  0  0  0  0  0  0  0
   20.4636  -22.6655  -17.7535 C   0  0  0  0  0  0  0  0  0  0  0  0
   21.4923  -21.9469  -18.3385 C   0  0  0  0  0  0  0  0  0  0  0  0
   22.0689  -20.8686  -17.7014 C   0  0  0  0  0  0  0  0  0  0  0  0
   21.5786  -20.5324  -16.4530 C   0  0  0  0  0  0  0  0  0  0  0  0
   20.5558  -21.2429  -15.8663 C   0  0  0  0  0  0  0  0  0  0  0  0
   19.5978  -21.7467  -11.7706 C   0  0  0  0  0  0  0  0  0  0  0  0
   19.8866  -22.9358  -11.5064 O   0  0  0  0  0  0  0  0  0  0  0  0
   18.3187  -21.3095  -11.5269 O   0  0  0  0  0  0  0  0  0  0  0  0
  2  3  1  0
  2  1  1  6
  4  3  1  0
  5  4  2  0
  6  7  1  0
  6  5  1  0
  7 12  2  0
  8  7  1  0
  8  9  2  0
  9 10  1  0
 10 11  2  0
 12  4  1  0
 12 11  1  0
 13  2  1  0
 13 15  1  0
 14 13  2  0
 16 15  1  0
 16 17  1  1
 17 18  1  0
 19 20  2  0
 19 16  1  0
 21 19  1  0
 22 21  1  0
 22 33  1  0
 22 23  1  6
 24 23  1  0
 25 24  2  0
 26 27  1  0
 26 25  1  0
 27 32  2  0
 28 29  2  0
 28 27  1  0
 29 30  1  0
 30 31  2  0
 32 24  1  0
 32 31  1  0
 33 35  1  0
 34 33  2  0
M  END
$$$$
