WCW.pdb
     RDKit          3D

 35 38  0  0  1  0  0  0  0  0999 V2000
   23.9722  -20.2575  -15.3785 N   0  0  0  0  0  0  0  0  0  0  0  0
   24.8067  -19.5982  -14.3457 C   0  0  1  0  0  0  0  0  0  0  0  0
   23.9394  -18.6266  -13.6221 C   0  0  0  0  0  0  0  0  0  0  0  0
   23.4242  -17.5251  -14.4487 C   0  0  0  0  0  0  0  0  0  0  0  0
   22.1037  -17.2220  -14.7301 C   0  0  0  0  0  0  0  0  0  0  0  0
   22.0162  -16.1042  -15.4587 N   0  0  0  0  0  0  0  0  0  0  0  0
   23.2736  -15.6596  -15.6665 C   0  0  0  0  0  0  0  0  0  0  0  0
   23.7138  -14.5443  -16.3632 C   0  0  0  0  0  0  0  0  0  0  0  0
   25.0598  -14.2744  -16.4651 C   0  0  0  0  0  0  0  0  0  0  0  0
   25.9460  -15.1392  -15.8559 C   0  0  0  0  0  0  0  0  0  0  0  0
   25.4886  -16.2315  -15.1713 C   0  0  0  0  0  0  0  0  0  0  0  0
   24.1489  -16.5367  -15.0447 C   0  0  0  0  0  0  0  0  0  0  0  0
   25.5683  -20.5815  -13.5881 C   0  0  0  0  0  0  0  0  0  0  0  0
   24.9775  -21.6451  -13.2264 O   0  0  0  0  0  0  0  0  0  0  0  0
   26.9220  -20.4429  -13.2143 N   0  0  0  0  0  0  0  0  0  0  0  0
   27.6853  -21.1229  -12.2378 C   0  0  1  0  0  0  0  0  0  0  0  0
   29.1842  -21.1918  -12.4427 C   0  0  0  0  0  0  0  0  0  0  0  0
   29.8496  -19.5304  -12.4697 S   0  0  0  0  0  0  0  0  0  0  0  0
   27.3217  -20.7971  -10.8517 C   0  0  0  0  0  0  0  0  0  0  0  0
   27.9467  -19.8508  -10.2466 O   0  0  0  0  0  0  0  0  0  0  0  0
   26.3273  -21.4260  -10.0642 N   0  0  0  0  0  0  0  0  0  0  0  0
   26.0494  -21.1578   -8.6971 C   0  0  1  0  0  0  0  0  0  0  0  0
   25.8639  -19.7503   -8.2718 C   0  0  0  0  0  0  0  0  0  0  0  0
   27.0326  -19.2694   -7.5056 C   0  0  0  0  0  0  0  0  0  0  0  0
   27.8692  -18.2465   -7.8743 C   0  0  0  0  0  0  0  0  0  0  0  0
   28.8326  -18.1098   -6.9186 N   0  0  0  0  0  0  0  0  0  0  0  0
   28.5926  -19.0429   -5.9652 C   0  0  0  0  0  0  0  0  0  0  0  0
   29.2574  -19.3356   -4.7929 C   0  0  0  0  0  0  0  0  0  0  0  0
   28.8134  -20.3533   -3.9658 C   0  0  0  0  0  0  0  0  0  0  0  0
   27.7012  -21.1040   -4.2832 C   0  0  0  0  0  0  0  0  0  0  0  0
   27.0455  -20.8000   -5.4620 C   0  0  0  0  0  0  0  0  0  0  0  0
   27.4821  -19.7892   -6.2883 C   0  0  0  0  0  0  0  0  0  0  0  0
   24.9573  -22.0771   -8.2515 C   0  0  0  0  0  0  0  0  0  0  0  0
   24.4162  -22.9084   -9.0152 O   0  0  0  0  0  0  0  0  0  0  0  0
   24.5284  -22.0024   -6.9487 O   0  0  0  0  0  0  0  0  0  0  0  0
  2  3  1  0
  2  1  1  6
  4  3  1  0
  5  4  2  0
  6  7  1  0
  6  5  1  0
  7 12  2  0
  8  7  1  0
  8  9  2  0
  9 10  1  0
 10 11  2  0
 12  4  1  0
 12 11  1  0
 13  2  1  0
 13 15  1  0
 14 13  2  0
 16 15  1  0
 16 17  1  6
 17 18  1  0
 19 20  2  0
 19 16  1  0
 21 19  1  0
 22 21  1  0
 22 33  1  0
 22 23  1  6
 24 23  1  0
 25 24  2  0
 26 27  1  0
 26 25  1  0
 27 32  2  0
 28 29  2  0
 28 27  1  0
 29 30  1  0
 30 31  2  0
 32 24  1  0
 32 31  1  0
 33 35  1  0
 34 33  2  0
M  END
$$$$
