WCW.pdb
     RDKit          3D

 35 38  0  0  1  0  0  0  0  0999 V2000
   25.3897  -19.5335   -9.4526 N   0  0  0  0  0  0  0  0  0  0  0  0
   26.6268  -20.2432   -9.8569 C   0  0  1  0  0  0  0  0  0  0  0  0
   26.9294  -21.2521   -8.8031 C   0  0  0  0  0  0  0  0  0  0  0  0
   27.0962  -20.7000   -7.4505 C   0  0  0  0  0  0  0  0  0  0  0  0
   26.1071  -20.2861   -6.5757 C   0  0  0  0  0  0  0  0  0  0  0  0
   26.6333  -19.9076   -5.4062 N   0  0  0  0  0  0  0  0  0  0  0  0
   27.9707  -20.0656   -5.4964 C   0  0  0  0  0  0  0  0  0  0  0  0
   28.9571  -19.8110   -4.5556 C   0  0  0  0  0  0  0  0  0  0  0  0
   30.2814  -20.0341   -4.8584 C   0  0  0  0  0  0  0  0  0  0  0  0
   30.5907  -20.5165   -6.1138 C   0  0  0  0  0  0  0  0  0  0  0  0
   29.6006  -20.7633   -7.0247 C   0  0  0  0  0  0  0  0  0  0  0  0
   28.2624  -20.5544   -6.7606 C   0  0  0  0  0  0  0  0  0  0  0  0
   26.5536  -20.6618  -11.2498 C   0  0  0  0  0  0  0  0  0  0  0  0
   25.4232  -21.0105  -11.7101 O   0  0  0  0  0  0  0  0  0  0  0  0
   27.6501  -20.7180  -12.1362 N   0  0  0  0  0  0  0  0  0  0  0  0
   27.7224  -20.5030  -13.5317 C   0  0  1  0  0  0  0  0  0  0  0  0
   29.0734  -20.6645  -14.1967 C   0  0  0  0  0  0  0  0  0  0  0  0
   28.9409  -20.1893  -15.9172 S   0  0  0  0  0  0  0  0  0  0  0  0
   26.6395  -21.1359  -14.2975 C   0  0  0  0  0  0  0  0  0  0  0  0
   26.2466  -22.3148  -13.9687 O   0  0  0  0  0  0  0  0  0  0  0  0
   25.9473  -20.5858  -15.4033 N   0  0  0  0  0  0  0  0  0  0  0  0
   24.5414  -20.4103  -15.5069 C   0  0  1  0  0  0  0  0  0  0  0  0
   23.8059  -19.8585  -14.3446 C   0  0  0  0  0  0  0  0  0  0  0  0
   22.3538  -19.8022  -14.6140 C   0  0  0  0  0  0  0  0  0  0  0  0
   21.4658  -20.8351  -14.4504 C   0  0  0  0  0  0  0  0  0  0  0  0
   20.2251  -20.4004  -14.8133 N   0  0  0  0  0  0  0  0  0  0  0  0
   20.3459  -19.1066  -15.1988 C   0  0  0  0  0  0  0  0  0  0  0  0
   19.4087  -18.2032  -15.6542 C   0  0  0  0  0  0  0  0  0  0  0  0
   19.7794  -16.9127  -15.9920 C   0  0  0  0  0  0  0  0  0  0  0  0
   21.0875  -16.4898  -15.8870 C   0  0  0  0  0  0  0  0  0  0  0  0
   22.0163  -17.4065  -15.4302 C   0  0  0  0  0  0  0  0  0  0  0  0
   21.6538  -18.6910  -15.0926 C   0  0  0  0  0  0  0  0  0  0  0  0
   24.2496  -19.7143  -16.7979 C   0  0  0  0  0  0  0  0  0  0  0  0
   23.2954  -20.0358  -17.5416 O   0  0  0  0  0  0  0  0  0  0  0  0
   25.0667  -18.6800  -17.1842 O   0  0  0  0  0  0  0  0  0  0  0  0
  2  3  1  0
  2  1  1  1
  4  3  1  0
  5  4  2  0
  6  7  1  0
  6  5  1  0
  7 12  2  0
  8  7  1  0
  8  9  2  0
  9 10  1  0
 10 11  2  0
 12  4  1  0
 12 11  1  0
 13  2  1  0
 13 15  1  0
 14 13  2  0
 16 15  1  0
 16 17  1  6
 17 18  1  0
 19 20  2  0
 19 16  1  0
 21 19  1  0
 22 21  1  0
 22 33  1  0
 22 23  1  1
 24 23  1  0
 25 24  2  0
 26 27  1  0
 26 25  1  0
 27 32  2  0
 28 29  2  0
 28 27  1  0
 29 30  1  0
 30 31  2  0
 32 24  1  0
 32 31  1  0
 33 35  1  0
 34 33  2  0
M  END
$$$$
