WCW.pdb
     RDKit          3D

 35 38  0  0  1  0  0  0  0  0999 V2000
   26.9893  -19.8046  -16.7015 N   0  0  0  0  0  0  0  0  0  0  0  0
   26.1822  -19.4143  -15.5208 C   0  0  1  0  0  0  0  0  0  0  0  0
   25.0673  -18.5529  -16.0052 C   0  0  0  0  0  0  0  0  0  0  0  0
   25.4910  -17.3284  -16.7001 C   0  0  0  0  0  0  0  0  0  0  0  0
   25.2883  -16.9932  -18.0274 C   0  0  0  0  0  0  0  0  0  0  0  0
   25.7519  -15.7658  -18.2850 N   0  0  0  0  0  0  0  0  0  0  0  0
   26.2651  -15.2796  -17.1352 C   0  0  0  0  0  0  0  0  0  0  0  0
   26.8647  -14.0551  -16.8821 C   0  0  0  0  0  0  0  0  0  0  0  0
   27.3364  -13.7586  -15.6233 C   0  0  0  0  0  0  0  0  0  0  0  0
   27.1920  -14.7084  -14.6326 C   0  0  0  0  0  0  0  0  0  0  0  0
   26.5943  -15.9083  -14.9047 C   0  0  0  0  0  0  0  0  0  0  0  0
   26.1075  -16.2437  -16.1515 C   0  0  0  0  0  0  0  0  0  0  0  0
   25.8842  -20.5724  -14.6898 C   0  0  0  0  0  0  0  0  0  0  0  0
   25.5046  -21.6385  -15.2649 O   0  0  0  0  0  0  0  0  0  0  0  0
   25.9778  -20.6035  -13.2821 N   0  0  0  0  0  0  0  0  0  0  0  0
   25.1612  -21.2337  -12.3153 C   0  0  1  0  0  0  0  0  0  0  0  0
   25.7379  -21.4254  -10.9281 C   0  0  0  0  0  0  0  0  0  0  0  0
   26.0247  -19.8224  -10.1854 S   0  0  0  0  0  0  0  0  0  0  0  0
   23.7748  -20.7473  -12.2855 C   0  0  0  0  0  0  0  0  0  0  0  0
   23.5469  -19.5258  -11.9564 O   0  0  0  0  0  0  0  0  0  0  0  0
   22.6072  -21.4906  -12.5838 N   0  0  0  0  0  0  0  0  0  0  0  0
   21.2679  -21.0512  -12.4072 C   0  0  1  0  0  0  0  0  0  0  0  0
   20.7657  -19.9427  -13.2530 C   0  0  0  0  0  0  0  0  0  0  0  0
   21.2075  -20.1028  -14.6543 C   0  0  0  0  0  0  0  0  0  0  0  0
   21.1414  -21.2586  -15.3904 C   0  0  0  0  0  0  0  0  0  0  0  0
   21.6545  -21.0120  -16.6298 N   0  0  0  0  0  0  0  0  0  0  0  0
   22.0354  -19.7116  -16.6591 C   0  0  0  0  0  0  0  0  0  0  0  0
   22.6085  -18.9552  -17.6597 C   0  0  0  0  0  0  0  0  0  0  0  0
   22.9121  -17.6209  -17.4490 C   0  0  0  0  0  0  0  0  0  0  0  0
   22.6553  -17.0074  -16.2413 C   0  0  0  0  0  0  0  0  0  0  0  0
   22.0817  -17.7782  -15.2470 C   0  0  0  0  0  0  0  0  0  0  0  0
   21.7774  -19.1052  -15.4506 C   0  0  0  0  0  0  0  0  0  0  0  0
   20.3786  -22.2532  -12.3883 C   0  0  0  0  0  0  0  0  0  0  0  0
   20.7930  -23.4080  -12.6371 O   0  0  0  0  0  0  0  0  0  0  0  0
   19.0494  -22.0806  -12.0880 O   0  0  0  0  0  0  0  0  0  0  0  0
  2  3  1  0
  2  1  1  6
  4  3  1  0
  5  4  2  0
  6  7  1  0
  6  5  1  0
  7 12  2  0
  8  7  1  0
  8  9  2  0
  9 10  1  0
 10 11  2  0
 12  4  1  0
 12 11  1  0
 13  2  1  0
 13 15  1  0
 14 13  2  0
 16 15  1  0
 16 17  1  1
 17 18  1  0
 19 20  2  0
 19 16  1  0
 21 19  1  0
 22 21  1  0
 22 33  1  0
 22 23  1  6
 24 23  1  0
 25 24  2  0
 26 27  1  0
 26 25  1  0
 27 32  2  0
 28 29  2  0
 28 27  1  0
 29 30  1  0
 30 31  2  0
 32 24  1  0
 32 31  1  0
 33 35  1  0
 34 33  2  0
M  END
$$$$
