WCW.pdb
     RDKit          3D

 35 38  0  0  1  0  0  0  0  0999 V2000
   23.4278  -19.9725  -16.0430 N   0  0  0  0  0  0  0  0  0  0  0  0
   24.1974  -19.4164  -14.9044 C   0  0  1  0  0  0  0  0  0  0  0  0
   23.2848  -18.5178  -14.1431 C   0  0  0  0  0  0  0  0  0  0  0  0
   22.9096  -17.2814  -14.8451 C   0  0  0  0  0  0  0  0  0  0  0  0
   21.6490  -16.8930  -15.2633 C   0  0  0  0  0  0  0  0  0  0  0  0
   21.6822  -15.6707  -15.8044 N   0  0  0  0  0  0  0  0  0  0  0  0
   22.9606  -15.2411  -15.7507 C   0  0  0  0  0  0  0  0  0  0  0  0
   23.5105  -14.0440  -16.1838 C   0  0  0  0  0  0  0  0  0  0  0  0
   24.8591  -13.8066  -16.0423 C   0  0  0  0  0  0  0  0  0  0  0  0
   25.6360  -14.7871  -15.4595 C   0  0  0  0  0  0  0  0  0  0  0  0
   25.0710  -15.9590  -15.0369 C   0  0  0  0  0  0  0  0  0  0  0  0
   23.7246  -16.2353  -15.1591 C   0  0  0  0  0  0  0  0  0  0  0  0
   24.9178  -20.4688  -14.2014 C   0  0  0  0  0  0  0  0  0  0  0  0
   24.3212  -21.5716  -14.0036 O   0  0  0  0  0  0  0  0  0  0  0  0
   26.2365  -20.3580  -13.7114 N   0  0  0  0  0  0  0  0  0  0  0  0
   26.9181  -21.0967  -12.7172 C   0  0  1  0  0  0  0  0  0  0  0  0
   28.2023  -21.7922  -13.1176 C   0  0  0  0  0  0  0  0  0  0  0  0
   29.5934  -20.8860  -12.4490 S   0  0  0  0  0  0  0  0  0  0  0  0
   27.0313  -20.4080  -11.4239 C   0  0  0  0  0  0  0  0  0  0  0  0
   27.8596  -19.4324  -11.3046 O   0  0  0  0  0  0  0  0  0  0  0  0
   26.3124  -20.7009  -10.2398 N   0  0  0  0  0  0  0  0  0  0  0  0
   26.8606  -21.2126   -9.0333 C   0  0  1  0  0  0  0  0  0  0  0  0
   28.1383  -20.6488   -8.5373 C   0  0  0  0  0  0  0  0  0  0  0  0
   27.9214  -19.8275   -7.3278 C   0  0  0  0  0  0  0  0  0  0  0  0
   27.2729  -18.6193   -7.2829 C   0  0  0  0  0  0  0  0  0  0  0  0
   27.2873  -18.1684   -5.9958 N   0  0  0  0  0  0  0  0  0  0  0  0
   27.9408  -19.0925   -5.2501 C   0  0  0  0  0  0  0  0  0  0  0  0
   28.2336  -19.1307   -3.9030 C   0  0  0  0  0  0  0  0  0  0  0  0
   28.9245  -20.2016   -3.3618 C   0  0  0  0  0  0  0  0  0  0  0  0
   29.3413  -21.2575   -4.1442 C   0  0  0  0  0  0  0  0  0  0  0  0
   29.0418  -21.2051   -5.4931 C   0  0  0  0  0  0  0  0  0  0  0  0
   28.3550  -20.1432   -6.0370 C   0  0  0  0  0  0  0  0  0  0  0  0
   25.7749  -21.2553   -8.0059 C   0  0  0  0  0  0  0  0  0  0  0  0
   25.9230  -21.7904   -6.8839 O   0  0  0  0  0  0  0  0  0  0  0  0
   24.5626  -20.6853   -8.3092 O   0  0  0  0  0  0  0  0  0  0  0  0
  2  3  1  0
  2  1  1  6
  4  3  1  0
  5  4  2  0
  6  7  1  0
  6  5  1  0
  7 12  2  0
  8  7  1  0
  8  9  2  0
  9 10  1  0
 10 11  2  0
 12  4  1  0
 12 11  1  0
 13  2  1  0
 13 15  1  0
 14 13  2  0
 16 15  1  0
 16 17  1  6
 17 18  1  0
 19 20  2  0
 19 16  1  0
 21 19  1  0
 22 21  1  0
 22 33  1  0
 22 23  1  1
 24 23  1  0
 25 24  2  0
 26 27  1  0
 26 25  1  0
 27 32  2  0
 28 29  2  0
 28 27  1  0
 29 30  1  0
 30 31  2  0
 32 24  1  0
 32 31  1  0
 33 35  1  0
 34 33  2  0
M  END
$$$$
