PEN.pdb
     RDKit          3D

 25 25  0  0  1  0  0  0  0  0999 V2000
   21.1900  -15.5463  -16.6582 N   0  0  0  0  0  0  0  0  0  0  0  0
   20.1274  -16.3589  -17.1976 C   0  0  0  0  0  0  0  0  0  0  0  0
   20.8950  -17.1626  -18.2504 C   0  0  0  0  0  0  0  0  0  0  0  0
   21.8196  -16.1159  -18.8415 C   0  0  0  0  0  0  0  0  0  0  0  0
   21.8667  -15.0434  -17.8066 C   0  0  1  0  0  0  0  0  0  0  0  0
   21.2546  -13.7817  -18.3479 C   0  0  0  0  0  0  0  0  0  0  0  0
   21.8451  -13.2294  -19.3334 O   0  0  0  0  0  0  0  0  0  0  0  0
   20.0937  -13.1806  -17.8464 N   0  0  0  0  0  0  0  0  0  0  0  0
   19.5624  -12.0011  -18.4965 C   0  0  1  0  0  0  0  0  0  0  0  0
   18.1149  -12.1187  -18.8574 C   0  0  0  0  0  0  0  0  0  0  0  0
   17.8465  -12.9533  -20.0758 C   0  0  0  0  0  0  0  0  0  0  0  0
   16.4999  -13.5645  -19.9143 C   0  0  0  0  0  0  0  0  0  0  0  0
   15.4497  -12.9633  -20.3088 O   0  0  0  0  0  0  0  0  0  0  0  0
   19.6676  -10.8684  -17.5159 C   0  0  0  0  0  0  0  0  0  0  0  0
   18.8761  -10.8148  -16.5660 O   0  0  0  0  0  0  0  0  0  0  0  0
   16.2897  -14.8100  -19.3340 O   0  0  0  0  0  0  0  0  0  0  0  0
   21.2750   -7.0867  -14.2956 N   0  0  0  0  0  0  0  0  0  0  0  0
   21.4415   -8.4864  -14.2515 C   0  0  0  0  0  0  0  0  0  0  0  0
   21.9081   -8.9741  -13.1800 O   0  0  0  0  0  0  0  0  0  0  0  0
   21.1203   -9.4021  -15.3314 C   0  0  0  0  0  0  0  0  0  0  0  0
   20.7005   -8.8053  -16.6284 C   0  0  2  0  0  0  0  0  0  0  0  0
   20.6406   -9.8578  -17.6375 N   0  0  0  0  0  0  0  0  0  0  0  0
   21.5528   -7.7263  -17.1380 C   0  0  0  0  0  0  0  0  0  0  0  0
   21.7798   -6.5158  -16.5103 O   0  0  0  0  0  0  0  0  0  0  0  0
   22.1422   -7.8874  -18.2418 O   0  0  0  0  0  0  0  0  0  0  0  0
  2  1  1  0
  3  4  1  0
  3  2  1  0
  4  5  1  0
  5  1  1  0
  5  6  1  6
  7  6  2  0
  8  6  1  0
  9  8  1  0
  9 14  1  0
  9 10  1  1
 11 10  1  0
 12 11  1  0
 13 12  2  0
 14 15  2  0
 14 22  1  0
 16 12  1  0
 18 19  2  0
 18 17  1  0
 20 18  1  0
 21 20  1  1
 21 23  1  0
 22 21  1  0
 23 25  2  0
 23 24  1  0
M  END
$$$$
