PEN.pdb
     RDKit          3D

 25 25  0  0  1  0  0  0  0  0999 V2000
   28.0116  -22.7357  -16.7099 N   0  0  0  0  0  0  0  0  0  0  0  0
   27.6517  -22.5470  -18.0938 C   0  0  0  0  0  0  0  0  0  0  0  0
   28.8412  -21.7167  -18.5829 C   0  0  0  0  0  0  0  0  0  0  0  0
   29.0719  -20.7712  -17.4198 C   0  0  0  0  0  0  0  0  0  0  0  0
   28.4017  -21.4389  -16.2673 C   0  0  1  0  0  0  0  0  0  0  0  0
   27.2454  -20.6038  -15.7929 C   0  0  0  0  0  0  0  0  0  0  0  0
   27.5188  -19.4486  -15.3286 O   0  0  0  0  0  0  0  0  0  0  0  0
   25.9049  -21.0069  -15.8262 N   0  0  0  0  0  0  0  0  0  0  0  0
   24.8725  -20.0901  -15.3904 C   0  0  1  0  0  0  0  0  0  0  0  0
   23.8801  -19.7560  -16.4593 C   0  0  0  0  0  0  0  0  0  0  0  0
   24.3922  -18.8091  -17.5053 C   0  0  0  0  0  0  0  0  0  0  0  0
   23.2632  -18.5001  -18.4235 C   0  0  0  0  0  0  0  0  0  0  0  0
   22.1436  -18.0890  -17.9792 O   0  0  0  0  0  0  0  0  0  0  0  0
   24.1061  -20.7734  -14.2942 C   0  0  0  0  0  0  0  0  0  0  0  0
   23.6154  -21.8900  -14.5042 O   0  0  0  0  0  0  0  0  0  0  0  0
   23.3422  -18.6335  -19.8049 O   0  0  0  0  0  0  0  0  0  0  0  0
   26.2055  -19.9983   -9.8282 N   0  0  0  0  0  0  0  0  0  0  0  0
   25.3200  -20.8340  -10.5400 C   0  0  0  0  0  0  0  0  0  0  0  0
   25.8221  -21.8481  -11.1084 O   0  0  0  0  0  0  0  0  0  0  0  0
   23.8895  -20.6219  -10.6680 C   0  0  0  0  0  0  0  0  0  0  0  0
   23.2655  -20.9569  -11.9768 C   0  0  2  0  0  0  0  0  0  0  0  0
   23.9240  -20.1869  -13.0271 N   0  0  0  0  0  0  0  0  0  0  0  0
   21.8209  -20.7238  -12.0713 C   0  0  0  0  0  0  0  0  0  0  0  0
   21.2013  -19.8625  -12.9574 O   0  0  0  0  0  0  0  0  0  0  0  0
   21.0522  -21.3483  -11.2898 O   0  0  0  0  0  0  0  0  0  0  0  0
  2  1  1  0
  3  4  1  0
  3  2  1  0
  4  5  1  0
  5  1  1  0
  5  6  1  6
  7  6  2  0
  8  6  1  0
  9  8  1  0
  9 14  1  0
  9 10  1  6
 11 10  1  0
 12 11  1  0
 13 12  2  0
 14 15  2  0
 14 22  1  0
 16 12  1  0
 18 19  2  0
 18 17  1  0
 20 18  1  0
 21 20  1  1
 21 23  1  0
 22 21  1  0
 23 25  2  0
 23 24  1  0
M  END
$$$$
