PEN.pdb
     RDKit          3D

 25 25  0  0  1  0  0  0  0  0999 V2000
   18.0003  -10.8303  -17.2072 N   0  0  0  0  0  0  0  0  0  0  0  0
   18.7080  -12.0142  -17.6289 C   0  0  0  0  0  0  0  0  0  0  0  0
   18.0669  -13.0643  -16.7179 C   0  0  0  0  0  0  0  0  0  0  0  0
   17.9556  -12.3210  -15.4007 C   0  0  0  0  0  0  0  0  0  0  0  0
   18.0424  -10.8826  -15.7841 C   0  0  1  0  0  0  0  0  0  0  0  0
   19.2893  -10.2729  -15.2070 C   0  0  0  0  0  0  0  0  0  0  0  0
   19.4486  -10.3672  -13.9458 O   0  0  0  0  0  0  0  0  0  0  0  0
   20.2744   -9.6157  -15.9543 N   0  0  0  0  0  0  0  0  0  0  0  0
   21.4381   -9.0757  -15.2834 C   0  0  1  0  0  0  0  0  0  0  0  0
   22.7335   -9.5967  -15.8218 C   0  0  0  0  0  0  0  0  0  0  0  0
   23.1638  -10.9100  -15.2360 C   0  0  0  0  0  0  0  0  0  0  0  0
   24.4946  -11.2442  -15.8108 C   0  0  0  0  0  0  0  0  0  0  0  0
   25.0577  -10.4820  -16.6605 O   0  0  0  0  0  0  0  0  0  0  0  0
   21.4409   -7.5931  -15.5239 C   0  0  0  0  0  0  0  0  0  0  0  0
   21.4846   -7.1685  -16.6856 O   0  0  0  0  0  0  0  0  0  0  0  0
   25.2089  -12.3875  -15.4719 O   0  0  0  0  0  0  0  0  0  0  0  0
   20.7619   -2.3861  -15.2500 N   0  0  0  0  0  0  0  0  0  0  0  0
   19.7507   -3.3482  -15.0477 C   0  0  0  0  0  0  0  0  0  0  0  0
   18.5573   -2.9261  -15.0136 O   0  0  0  0  0  0  0  0  0  0  0  0
   19.9727   -4.7729  -14.8781 C   0  0  0  0  0  0  0  0  0  0  0  0
   21.3837   -5.2358  -14.7817 C   0  0  2  0  0  0  0  0  0  0  0  0
   21.3949   -6.6613  -14.4692 N   0  0  0  0  0  0  0  0  0  0  0  0
   22.2154   -4.5410  -13.7940 C   0  0  0  0  0  0  0  0  0  0  0  0
   22.6899   -3.2477  -13.9090 O   0  0  0  0  0  0  0  0  0  0  0  0
   22.5426   -5.1502  -12.7388 O   0  0  0  0  0  0  0  0  0  0  0  0
  2  1  1  0
  3  4  1  0
  3  2  1  0
  4  5  1  0
  5  1  1  0
  5  6  1  6
  7  6  2  0
  8  6  1  0
  9  8  1  0
  9 14  1  0
  9 10  1  6
 11 10  1  0
 12 11  1  0
 13 12  2  0
 14 15  2  0
 14 22  1  0
 16 12  1  0
 18 19  2  0
 18 17  1  0
 20 18  1  0
 21 20  1  1
 21 23  1  0
 22 21  1  0
 23 25  2  0
 23 24  1  0
M  END
$$$$
