PEN.pdb
     RDKit          3D

 25 25  0  0  1  0  0  0  0  0999 V2000
   25.2864  -12.9193  -16.2701 N   0  0  0  0  0  0  0  0  0  0  0  0
   24.5032  -14.0774  -15.9156 C   0  0  0  0  0  0  0  0  0  0  0  0
   24.5785  -14.8772  -17.2188 C   0  0  0  0  0  0  0  0  0  0  0  0
   24.4333  -13.7930  -18.2692 C   0  0  0  0  0  0  0  0  0  0  0  0
   24.7906  -12.5367  -17.5497 C   0  0  1  0  0  0  0  0  0  0  0  0
   23.5928  -11.6318  -17.4730 C   0  0  0  0  0  0  0  0  0  0  0  0
   23.1306  -11.1899  -18.5758 O   0  0  0  0  0  0  0  0  0  0  0  0
   22.9601  -11.2465  -16.2848 N   0  0  0  0  0  0  0  0  0  0  0  0
   21.7439  -10.4633  -16.3449 C   0  0  1  0  0  0  0  0  0  0  0  0
   20.5573  -11.1559  -15.7520 C   0  0  0  0  0  0  0  0  0  0  0  0
   19.2739  -10.3847  -15.8573 C   0  0  0  0  0  0  0  0  0  0  0  0
   18.1847  -11.2506  -15.3310 C   0  0  0  0  0  0  0  0  0  0  0  0
   17.0361  -10.7750  -15.0577 O   0  0  0  0  0  0  0  0  0  0  0  0
   21.9714   -9.2267  -15.5234 C   0  0  0  0  0  0  0  0  0  0  0  0
   22.6596   -9.2999  -14.4973 O   0  0  0  0  0  0  0  0  0  0  0  0
   18.3338  -12.6136  -15.1027 O   0  0  0  0  0  0  0  0  0  0  0  0
   22.1800   -3.0954  -15.9161 N   0  0  0  0  0  0  0  0  0  0  0  0
   22.0967   -4.3434  -15.2646 C   0  0  0  0  0  0  0  0  0  0  0  0
   22.2928   -4.3505  -14.0136 O   0  0  0  0  0  0  0  0  0  0  0  0
   21.8047   -5.6088  -15.9138 C   0  0  0  0  0  0  0  0  0  0  0  0
   21.7148   -6.8147  -15.0465 C   0  0  2  0  0  0  0  0  0  0  0  0
   21.4274   -7.9778  -15.8798 N   0  0  0  0  0  0  0  0  0  0  0  0
   20.7141   -6.7559  -13.9764 C   0  0  0  0  0  0  0  0  0  0  0  0
   20.9815   -6.5554  -12.6350 O   0  0  0  0  0  0  0  0  0  0  0  0
   19.4964   -6.8974  -14.2746 O   0  0  0  0  0  0  0  0  0  0  0  0
  2  1  1  0
  3  4  1  0
  3  2  1  0
  4  5  1  0
  5  1  1  0
  5  6  1  1
  7  6  2  0
  8  6  1  0
  9  8  1  0
  9 14  1  0
  9 10  1  1
 11 10  1  0
 12 11  1  0
 13 12  2  0
 14 15  2  0
 14 22  1  0
 16 12  1  0
 18 19  2  0
 18 17  1  0
 20 18  1  0
 21 20  1  6
 21 23  1  0
 22 21  1  0
 23 25  2  0
 23 24  1  0
M  END
$$$$
