PEN.pdb
     RDKit          3D

 25 25  0  0  1  0  0  0  0  0999 V2000
   18.7617  -12.8187  -16.1454 N   0  0  0  0  0  0  0  0  0  0  0  0
   19.1101  -13.5565  -14.9561 C   0  0  0  0  0  0  0  0  0  0  0  0
   17.7379  -14.1013  -14.5512 C   0  0  0  0  0  0  0  0  0  0  0  0
   16.8299  -12.9176  -14.8240 C   0  0  0  0  0  0  0  0  0  0  0  0
   17.6097  -12.0691  -15.7703 C   0  0  1  0  0  0  0  0  0  0  0  0
   17.9451  -10.7547  -15.1227 C   0  0  0  0  0  0  0  0  0  0  0  0
   18.5908  -10.7995  -14.0245 O   0  0  0  0  0  0  0  0  0  0  0  0
   17.5984   -9.5004  -15.6396 N   0  0  0  0  0  0  0  0  0  0  0  0
   17.9474   -8.3035  -14.9035 C   0  0  1  0  0  0  0  0  0  0  0  0
   17.9594   -7.0665  -15.7455 C   0  0  0  0  0  0  0  0  0  0  0  0
   18.4162   -5.8316  -15.0250 C   0  0  0  0  0  0  0  0  0  0  0  0
   18.3899   -4.7072  -15.9988 C   0  0  0  0  0  0  0  0  0  0  0  0
   19.1370   -4.7077  -17.0292 O   0  0  0  0  0  0  0  0  0  0  0  0
   16.8871   -8.0995  -13.8595 C   0  0  0  0  0  0  0  0  0  0  0  0
   15.8062   -8.6919  -13.9710 O   0  0  0  0  0  0  0  0  0  0  0  0
   17.5665   -3.5956  -15.8616 O   0  0  0  0  0  0  0  0  0  0  0  0
   15.6857   -7.6465   -8.2861 N   0  0  0  0  0  0  0  0  0  0  0  0
   15.2900   -8.0789   -9.5689 C   0  0  0  0  0  0  0  0  0  0  0  0
   14.0785   -8.4189   -9.7101 O   0  0  0  0  0  0  0  0  0  0  0  0
   16.1588   -8.1619  -10.7291 C   0  0  0  0  0  0  0  0  0  0  0  0
   16.0045   -7.1119  -11.7723 C   0  0  2  0  0  0  0  0  0  0  0  0
   17.0783   -7.2535  -12.7503 N   0  0  0  0  0  0  0  0  0  0  0  0
   16.0026   -5.7281  -11.2871 C   0  0  0  0  0  0  0  0  0  0  0  0
   14.9776   -5.1238  -10.5835 O   0  0  0  0  0  0  0  0  0  0  0  0
   17.0087   -5.0024  -11.5167 O   0  0  0  0  0  0  0  0  0  0  0  0
  2  1  1  0
  3  4  1  0
  3  2  1  0
  4  5  1  0
  5  1  1  0
  5  6  1  1
  7  6  2  0
  8  6  1  0
  9  8  1  0
  9 14  1  0
  9 10  1  6
 11 10  1  0
 12 11  1  0
 13 12  2  0
 14 15  2  0
 14 22  1  0
 16 12  1  0
 18 19  2  0
 18 17  1  0
 20 18  1  0
 21 20  1  1
 21 23  1  0
 22 21  1  0
 23 25  2  0
 23 24  1  0
M  END
$$$$
