PEN.pdb
     RDKit          3D

 25 25  0  0  1  0  0  0  0  0999 V2000
   21.2031  -21.1621  -15.3313 N   0  0  0  0  0  0  0  0  0  0  0  0
   21.6379  -21.8813  -16.5034 C   0  0  0  0  0  0  0  0  0  0  0  0
   20.6738  -21.3196  -17.5516 C   0  0  0  0  0  0  0  0  0  0  0  0
   19.3675  -21.2554  -16.7838 C   0  0  0  0  0  0  0  0  0  0  0  0
   19.7834  -21.2799  -15.3520 C   0  0  1  0  0  0  0  0  0  0  0  0
   19.2851  -22.5368  -14.6952 C   0  0  0  0  0  0  0  0  0  0  0  0
   18.0474  -22.5794  -14.3930 O   0  0  0  0  0  0  0  0  0  0  0  0
   20.0813  -23.6491  -14.3963 N   0  0  0  0  0  0  0  0  0  0  0  0
   19.4781  -24.8163  -13.7879 C   0  0  1  0  0  0  0  0  0  0  0  0
   20.2188  -26.0860  -14.0678 C   0  0  0  0  0  0  0  0  0  0  0  0
   19.6367  -27.3010  -13.4061 C   0  0  0  0  0  0  0  0  0  0  0  0
   20.4470  -28.4748  -13.8286 C   0  0  0  0  0  0  0  0  0  0  0  0
   20.1821  -29.6466  -13.4081 O   0  0  0  0  0  0  0  0  0  0  0  0
   19.5229  -24.6144  -12.3003 C   0  0  0  0  0  0  0  0  0  0  0  0
   20.5453  -24.1461  -11.7836 O   0  0  0  0  0  0  0  0  0  0  0  0
   21.5305  -28.3845  -14.6948 O   0  0  0  0  0  0  0  0  0  0  0  0
   18.1376  -24.3203   -7.1339 N   0  0  0  0  0  0  0  0  0  0  0  0
   17.2163  -23.8617   -8.0982 C   0  0  0  0  0  0  0  0  0  0  0  0
   16.1686  -23.2968   -7.6660 O   0  0  0  0  0  0  0  0  0  0  0  0
   17.3776  -23.9862   -9.5357 C   0  0  0  0  0  0  0  0  0  0  0  0
   18.5637  -24.7397  -10.0254 C   0  0  2  0  0  0  0  0  0  0  0  0
   18.4369  -24.9402  -11.4653 N   0  0  0  0  0  0  0  0  0  0  0  0
   18.7928  -26.0445   -9.3968 C   0  0  0  0  0  0  0  0  0  0  0  0
   18.2925  -27.2525   -9.8455 O   0  0  0  0  0  0  0  0  0  0  0  0
   19.5031  -26.1011   -8.3557 O   0  0  0  0  0  0  0  0  0  0  0  0
  2  1  1  0
  3  4  1  0
  3  2  1  0
  4  5  1  0
  5  1  1  0
  5  6  1  6
  7  6  2  0
  8  6  1  0
  9  8  1  0
  9 14  1  0
  9 10  1  1
 11 10  1  0
 12 11  1  0
 13 12  2  0
 14 15  2  0
 14 22  1  0
 16 12  1  0
 18 19  2  0
 18 17  1  0
 20 18  1  0
 21 20  1  1
 21 23  1  0
 22 21  1  0
 23 25  2  0
 23 24  1  0
M  END
$$$$
