PEN.pdb
     RDKit          3D

 25 25  0  0  1  0  0  0  0  0999 V2000
   22.6264  -13.1476  -15.4948 N   0  0  0  0  0  0  0  0  0  0  0  0
   23.4162  -13.1258  -16.7014 C   0  0  0  0  0  0  0  0  0  0  0  0
   24.8228  -13.2895  -16.1196 C   0  0  0  0  0  0  0  0  0  0  0  0
   24.7644  -12.4080  -14.8870 C   0  0  0  0  0  0  0  0  0  0  0  0
   23.3063  -12.2595  -14.6124 C   0  0  1  0  0  0  0  0  0  0  0  0
   22.8957  -10.8241  -14.7866 C   0  0  0  0  0  0  0  0  0  0  0  0
   23.5513   -9.9514  -14.1282 O   0  0  0  0  0  0  0  0  0  0  0  0
   21.8529  -10.3884  -15.6133 N   0  0  0  0  0  0  0  0  0  0  0  0
   21.5137   -8.9814  -15.6534 C   0  0  1  0  0  0  0  0  0  0  0  0
   21.0871   -8.5081  -17.0074 C   0  0  0  0  0  0  0  0  0  0  0  0
   22.1965   -8.4363  -18.0160 C   0  0  0  0  0  0  0  0  0  0  0  0
   21.6169   -7.9218  -19.2858 C   0  0  0  0  0  0  0  0  0  0  0  0
   21.4041   -8.6933  -20.2755 O   0  0  0  0  0  0  0  0  0  0  0  0
   20.3375   -8.7823  -14.7409 C   0  0  0  0  0  0  0  0  0  0  0  0
   19.4850   -9.6747  -14.6490 O   0  0  0  0  0  0  0  0  0  0  0  0
   21.2712   -6.5901  -19.4846 O   0  0  0  0  0  0  0  0  0  0  0  0
   16.8831   -6.9950  -11.1260 N   0  0  0  0  0  0  0  0  0  0  0  0
   18.2480   -7.1404  -10.8020 C   0  0  0  0  0  0  0  0  0  0  0  0
   18.5682   -6.9814   -9.5872 O   0  0  0  0  0  0  0  0  0  0  0  0
   19.3037   -7.4567  -11.7472 C   0  0  0  0  0  0  0  0  0  0  0  0
   18.9499   -7.4450  -13.1926 C   0  0  2  0  0  0  0  0  0  0  0  0
   20.1674   -7.6096  -13.9802 N   0  0  0  0  0  0  0  0  0  0  0  0
   18.2525   -6.2458  -13.6675 C   0  0  0  0  0  0  0  0  0  0  0  0
   18.8508   -5.1468  -14.2549 O   0  0  0  0  0  0  0  0  0  0  0  0
   16.9987   -6.1825  -13.5424 O   0  0  0  0  0  0  0  0  0  0  0  0
  2  1  1  0
  3  4  1  0
  3  2  1  0
  4  5  1  0
  5  1  1  0
  5  6  1  6
  7  6  2  0
  8  6  1  0
  9  8  1  0
  9 14  1  0
  9 10  1  6
 11 10  1  0
 12 11  1  0
 13 12  2  0
 14 15  2  0
 14 22  1  0
 16 12  1  0
 18 19  2  0
 18 17  1  0
 20 18  1  0
 21 20  1  1
 21 23  1  0
 22 21  1  0
 23 25  2  0
 23 24  1  0
M  END
$$$$
