PEN.pdb
     RDKit          3D

 25 25  0  0  1  0  0  0  0  0999 V2000
   28.2567  -23.2369  -16.9976 N   0  0  0  0  0  0  0  0  0  0  0  0
   27.5507  -23.3716  -18.2481 C   0  0  0  0  0  0  0  0  0  0  0  0
   28.5525  -22.7239  -19.2076 C   0  0  0  0  0  0  0  0  0  0  0  0
   29.0456  -21.5368  -18.4029 C   0  0  0  0  0  0  0  0  0  0  0  0
   28.7103  -21.8864  -16.9926 C   0  0  1  0  0  0  0  0  0  0  0  0
   27.6903  -20.9224  -16.4544 C   0  0  0  0  0  0  0  0  0  0  0  0
   28.0266  -19.6939  -16.4032 O   0  0  0  0  0  0  0  0  0  0  0  0
   26.4117  -21.2809  -16.0103 N   0  0  0  0  0  0  0  0  0  0  0  0
   25.4954  -20.2517  -15.5660 C   0  0  1  0  0  0  0  0  0  0  0  0
   24.5048  -19.8423  -16.6102 C   0  0  0  0  0  0  0  0  0  0  0  0
   23.5707  -20.9358  -17.0399 C   0  0  0  0  0  0  0  0  0  0  0  0
   22.6722  -20.3749  -18.0845 C   0  0  0  0  0  0  0  0  0  0  0  0
   21.4489  -20.7185  -18.1579 O   0  0  0  0  0  0  0  0  0  0  0  0
   24.7027  -20.8251  -14.4264 C   0  0  0  0  0  0  0  0  0  0  0  0
   24.2605  -21.9775  -14.5163 O   0  0  0  0  0  0  0  0  0  0  0  0
   23.0896  -19.4540  -19.0384 O   0  0  0  0  0  0  0  0  0  0  0  0
   25.5599  -22.1332  -10.1746 N   0  0  0  0  0  0  0  0  0  0  0  0
   25.1170  -20.8082   -9.9809 C   0  0  0  0  0  0  0  0  0  0  0  0
   25.5472  -20.2050   -8.9539 O   0  0  0  0  0  0  0  0  0  0  0  0
   24.2143  -20.0901  -10.8625 C   0  0  0  0  0  0  0  0  0  0  0  0
   23.8084  -20.7698  -12.1225 C   0  0  2  0  0  0  0  0  0  0  0  0
   24.4422  -20.0953  -13.2508 N   0  0  0  0  0  0  0  0  0  0  0  0
   22.3653  -20.8333  -12.3750 C   0  0  0  0  0  0  0  0  0  0  0  0
   21.4970  -21.7713  -11.8486 O   0  0  0  0  0  0  0  0  0  0  0  0
   21.8428  -19.9716  -13.1340 O   0  0  0  0  0  0  0  0  0  0  0  0
  2  1  1  0
  3  4  1  0
  3  2  1  0
  4  5  1  0
  5  1  1  0
  5  6  1  6
  7  6  2  0
  8  6  1  0
  9  8  1  0
  9 14  1  0
  9 10  1  6
 11 10  1  0
 12 11  1  0
 13 12  2  0
 14 15  2  0
 14 22  1  0
 16 12  1  0
 18 19  2  0
 18 17  1  0
 20 18  1  0
 21 20  1  1
 21 23  1  0
 22 21  1  0
 23 25  2  0
 23 24  1  0
M  END
$$$$
