VMD.pdb
     RDKit          3D

 24 23  0  0  1  0  0  0  0  0999 V2000
   28.6374  -18.2470  -16.1600 C   0  0  0  0  0  0  0  0  0  0  0  0
   27.5085  -18.9876  -15.4819 C   0  0  1  0  0  0  0  0  0  0  0  0
   26.4786  -19.3279  -16.5499 C   0  0  0  0  0  0  0  0  0  0  0  0
   28.0161  -20.2712  -14.8458 C   0  0  2  0  0  0  0  0  0  0  0  0
   28.5133  -21.1627  -15.8857 N   0  0  0  0  0  0  0  0  0  0  0  0
   26.9506  -20.9331  -14.0506 C   0  0  0  0  0  0  0  0  0  0  0  0
   26.1769  -21.7489  -14.5733 O   0  0  0  0  0  0  0  0  0  0  0  0
   27.0284  -20.4490   -7.6266 C   0  0  0  0  0  0  0  0  0  0  0  0
   25.2292  -20.4227   -7.8803 S   0  0  0  0  0  0  0  0  0  0  0  0
   24.9037  -20.9590   -9.5637 C   0  0  0  0  0  0  0  0  0  0  0  0
   25.9981  -20.4237  -10.4676 C   0  0  0  0  0  0  0  0  0  0  0  0
   25.6939  -20.9609  -11.8642 C   0  0  2  0  0  0  0  0  0  0  0  0
   26.8158  -20.6339  -12.6958 N   0  0  0  0  0  0  0  0  0  0  0  0
   24.3978  -20.5541  -12.3834 C   0  0  0  0  0  0  0  0  0  0  0  0
   24.2597  -19.3942  -12.8549 O   0  0  0  0  0  0  0  0  0  0  0  0
   23.2798  -21.4005  -12.3853 N   0  0  0  0  0  0  0  0  0  0  0  0
   22.0092  -21.0788  -13.0403 C   0  0  1  0  0  0  0  0  0  0  0  0
   21.9247  -21.7747  -14.3754 C   0  0  0  0  0  0  0  0  0  0  0  0
   20.6468  -21.5439  -15.0651 C   0  0  0  0  0  0  0  0  0  0  0  0
   20.1204  -20.3866  -15.1294 O   0  0  0  0  0  0  0  0  0  0  0  0
   20.8827  -21.3817  -12.1312 C   0  0  0  0  0  0  0  0  0  0  0  0
   21.1369  -21.8199  -10.9519 O   0  0  0  0  0  0  0  0  0  0  0  0
   19.9598  -22.5858  -15.6733 O   0  0  0  0  0  0  0  0  0  0  0  0
   19.5717  -21.2314  -12.4479 O   0  0  0  0  0  0  0  0  0  0  0  0
  2  4  1  0
  2  1  1  6
  3  2  1  0
  4  5  1  6
  6  4  1  0
  6 13  1  0
  7  6  2  0
  9  8  1  0
 10  9  1  0
 11 10  1  0
 12 11  1  1
 12 13  1  0
 14 16  1  0
 14 12  1  0
 15 14  2  0
 17 16  1  0
 17 21  1  0
 17 18  1  6
 19 18  1  0
 19 20  2  0
 21 22  2  0
 21 24  1  0
 23 19  1  0
M  END
$$$$
