VMD.pdb
     RDKit          3D

 24 23  0  0  1  0  0  0  0  0999 V2000
   17.3917  -12.7507  -15.7340 C   0  0  0  0  0  0  0  0  0  0  0  0
   18.3682  -13.4315  -16.6643 C   0  0  1  0  0  0  0  0  0  0  0  0
   17.5680  -14.3595  -17.5674 C   0  0  0  0  0  0  0  0  0  0  0  0
   19.0987  -12.4070  -17.5169 C   0  0  2  0  0  0  0  0  0  0  0  0
   19.8426  -13.0926  -18.5657 N   0  0  0  0  0  0  0  0  0  0  0  0
   20.0051  -11.5701  -16.6900 C   0  0  0  0  0  0  0  0  0  0  0  0
   19.5667  -10.8904  -15.7502 O   0  0  0  0  0  0  0  0  0  0  0  0
   27.5364  -10.6569  -14.8686 C   0  0  0  0  0  0  0  0  0  0  0  0
   26.3367  -11.5363  -15.9124 S   0  0  0  0  0  0  0  0  0  0  0  0
   24.7282  -10.7768  -15.6604 C   0  0  0  0  0  0  0  0  0  0  0  0
   23.7117  -11.4818  -16.5386 C   0  0  0  0  0  0  0  0  0  0  0  0
   22.3702  -10.8092  -16.2566 C   0  0  2  0  0  0  0  0  0  0  0  0
   21.3698  -11.5461  -16.9731 N   0  0  0  0  0  0  0  0  0  0  0  0
   22.3691   -9.3739  -16.4901 C   0  0  0  0  0  0  0  0  0  0  0  0
   22.4287   -8.9421  -17.6720 O   0  0  0  0  0  0  0  0  0  0  0  0
   22.3039   -8.4345  -15.4510 N   0  0  0  0  0  0  0  0  0  0  0  0
   22.3314   -6.9838  -15.6545 C   0  0  1  0  0  0  0  0  0  0  0  0
   21.7561   -6.2815  -14.4504 C   0  0  0  0  0  0  0  0  0  0  0  0
   21.7574   -4.8171  -14.5829 C   0  0  0  0  0  0  0  0  0  0  0  0
   20.9502   -4.2148  -15.3614 O   0  0  0  0  0  0  0  0  0  0  0  0
   23.7007   -6.5502  -16.0069 C   0  0  0  0  0  0  0  0  0  0  0  0
   24.6982   -7.1053  -15.4202 O   0  0  0  0  0  0  0  0  0  0  0  0
   22.6463   -4.0310  -13.8622 O   0  0  0  0  0  0  0  0  0  0  0  0
   23.9970   -5.5915  -16.9205 O   0  0  0  0  0  0  0  0  0  0  0  0
  2  4  1  0
  2  1  1  1
  3  2  1  0
  4  5  1  6
  6  4  1  0
  6 13  1  0
  7  6  2  0
  9  8  1  0
 10  9  1  0
 11 10  1  0
 12 11  1  6
 12 13  1  0
 14 16  1  0
 14 12  1  0
 15 14  2  0
 17 16  1  0
 17 21  1  0
 17 18  1  1
 19 18  1  0
 19 20  2  0
 21 22  2  0
 21 24  1  0
 23 19  1  0
M  END
$$$$
