VMD.pdb
     RDKit          3D

 24 23  0  0  1  0  0  0  0  0999 V2000
   27.1669  -18.1231  -15.5350 C   0  0  0  0  0  0  0  0  0  0  0  0
   27.5758  -19.2995  -16.3902 C   0  0  1  0  0  0  0  0  0  0  0  0
   28.8402  -18.9025  -17.1392 C   0  0  0  0  0  0  0  0  0  0  0  0
   27.8646  -20.5155  -15.5254 C   0  0  2  0  0  0  0  0  0  0  0  0
   28.3003  -21.6187  -16.3718 N   0  0  0  0  0  0  0  0  0  0  0  0
   26.6721  -20.9024  -14.7292 C   0  0  0  0  0  0  0  0  0  0  0  0
   25.7064  -21.4707  -15.2603 O   0  0  0  0  0  0  0  0  0  0  0  0
   26.5465  -19.3885   -8.3685 C   0  0  0  0  0  0  0  0  0  0  0  0
   25.5018  -20.8745   -8.4178 S   0  0  0  0  0  0  0  0  0  0  0  0
   24.9585  -21.1082  -10.1142 C   0  0  0  0  0  0  0  0  0  0  0  0
   26.0778  -20.6883  -11.0483 C   0  0  0  0  0  0  0  0  0  0  0  0
   25.5638  -20.9387  -12.4641 C   0  0  2  0  0  0  0  0  0  0  0  0
   26.6350  -20.6230  -13.3641 N   0  0  0  0  0  0  0  0  0  0  0  0
   24.2968  -20.2871  -12.7556 C   0  0  0  0  0  0  0  0  0  0  0  0
   24.2964  -19.0943  -13.1604 O   0  0  0  0  0  0  0  0  0  0  0  0
   23.0593  -20.9297  -12.6065 N   0  0  0  0  0  0  0  0  0  0  0  0
   21.8336  -20.5182  -13.2959 C   0  0  1  0  0  0  0  0  0  0  0  0
   22.0932  -20.3812  -14.7751 C   0  0  0  0  0  0  0  0  0  0  0  0
   21.3926  -19.2383  -15.3791 C   0  0  0  0  0  0  0  0  0  0  0  0
   20.6628  -18.4585  -14.6864 O   0  0  0  0  0  0  0  0  0  0  0  0
   20.7316  -21.4461  -12.9616 C   0  0  0  0  0  0  0  0  0  0  0  0
   20.9237  -22.7090  -13.0860 O   0  0  0  0  0  0  0  0  0  0  0  0
   21.4981  -18.9663  -16.7365 O   0  0  0  0  0  0  0  0  0  0  0  0
   19.5051  -21.0640  -12.5240 O   0  0  0  0  0  0  0  0  0  0  0  0
  2  4  1  0
  2  1  1  1
  3  2  1  0
  4  5  1  6
  6  4  1  0
  6 13  1  0
  7  6  2  0
  9  8  1  0
 10  9  1  0
 11 10  1  0
 12 11  1  1
 12 13  1  0
 14 16  1  0
 14 12  1  0
 15 14  2  0
 17 16  1  0
 17 21  1  0
 17 18  1  6
 19 18  1  0
 19 20  2  0
 21 22  2  0
 21 24  1  0
 23 19  1  0
M  END
$$$$
