VMD.pdb
     RDKit          3D

 24 23  0  0  1  0  0  0  0  0999 V2000
   18.5785  -12.1174  -19.7252 C   0  0  0  0  0  0  0  0  0  0  0  0
   19.2273  -11.1541  -18.7588 C   0  0  1  0  0  0  0  0  0  0  0  0
   18.1189  -10.3212  -18.1305 C   0  0  0  0  0  0  0  0  0  0  0  0
   19.9693  -11.9086  -17.6678 C   0  0  2  0  0  0  0  0  0  0  0  0
   19.0605  -12.8504  -17.0271 N   0  0  0  0  0  0  0  0  0  0  0  0
   20.5487  -10.9744  -16.6692 C   0  0  0  0  0  0  0  0  0  0  0  0
   19.8611  -10.5255  -15.7401 O   0  0  0  0  0  0  0  0  0  0  0  0
   27.0828  -10.3992  -15.2284 C   0  0  0  0  0  0  0  0  0  0  0  0
   25.9956  -11.7934  -15.6485 S   0  0  0  0  0  0  0  0  0  0  0  0
   24.3004  -11.2759  -15.3558 C   0  0  0  0  0  0  0  0  0  0  0  0
   24.0651   -9.9521  -16.0585 C   0  0  0  0  0  0  0  0  0  0  0  0
   22.5715   -9.6632  -15.9276 C   0  0  2  0  0  0  0  0  0  0  0  0
   21.8856  -10.5943  -16.7761 N   0  0  0  0  0  0  0  0  0  0  0  0
   22.2208   -8.2663  -16.1290 C   0  0  0  0  0  0  0  0  0  0  0  0
   22.1738   -7.8058  -17.3005 O   0  0  0  0  0  0  0  0  0  0  0  0
   21.9284   -7.3954  -15.0695 N   0  0  0  0  0  0  0  0  0  0  0  0
   21.4918   -6.0079  -15.2455 C   0  0  1  0  0  0  0  0  0  0  0  0
   19.9855   -5.9377  -15.2617 C   0  0  0  0  0  0  0  0  0  0  0  0
   19.4749   -4.5744  -15.4685 C   0  0  0  0  0  0  0  0  0  0  0  0
   20.1530   -3.6924  -16.0872 O   0  0  0  0  0  0  0  0  0  0  0  0
   22.1235   -5.1471  -14.2222 C   0  0  0  0  0  0  0  0  0  0  0  0
   22.8970   -5.6844  -13.3502 O   0  0  0  0  0  0  0  0  0  0  0  0
   18.2279   -4.1939  -14.9914 O   0  0  0  0  0  0  0  0  0  0  0  0
   21.9490   -3.8047  -14.1264 O   0  0  0  0  0  0  0  0  0  0  0  0
  2  4  1  0
  2  1  1  6
  3  2  1  0
  4  5  1  1
  6  4  1  0
  6 13  1  0
  7  6  2  0
  9  8  1  0
 10  9  1  0
 11 10  1  0
 12 11  1  6
 12 13  1  0
 14 16  1  0
 14 12  1  0
 15 14  2  0
 17 16  1  0
 17 21  1  0
 17 18  1  1
 19 18  1  0
 19 20  2  0
 21 22  2  0
 21 24  1  0
 23 19  1  0
M  END
$$$$
