VMD.pdb
     RDKit          3D

 24 23  0  0  1  0  0  0  0  0999 V2000
   26.7585  -16.6546  -15.0911 C   0  0  0  0  0  0  0  0  0  0  0  0
   27.1588  -17.5760  -16.2194 C   0  0  1  0  0  0  0  0  0  0  0  0
   28.2822  -16.8953  -16.9887 C   0  0  0  0  0  0  0  0  0  0  0  0
   27.6560  -18.9050  -15.6747 C   0  0  2  0  0  0  0  0  0  0  0  0
   28.2293  -19.6890  -16.7610 N   0  0  0  0  0  0  0  0  0  0  0  0
   26.5611  -19.6537  -15.0066 C   0  0  0  0  0  0  0  0  0  0  0  0
   25.6656  -20.2007  -15.6671 O   0  0  0  0  0  0  0  0  0  0  0  0
   26.0010  -19.6000   -8.3452 C   0  0  0  0  0  0  0  0  0  0  0  0
   25.4720  -21.2526   -8.8850 S   0  0  0  0  0  0  0  0  0  0  0  0
   24.9389  -21.1274  -10.5960 C   0  0  0  0  0  0  0  0  0  0  0  0
   25.9928  -20.3707  -11.3823 C   0  0  0  0  0  0  0  0  0  0  0  0
   25.4882  -20.3160  -12.8224 C   0  0  2  0  0  0  0  0  0  0  0  0
   26.5371  -19.7438  -13.6158 N   0  0  0  0  0  0  0  0  0  0  0  0
   24.1862  -19.6848  -12.9677 C   0  0  0  0  0  0  0  0  0  0  0  0
   24.1122  -18.5367  -13.4808 O   0  0  0  0  0  0  0  0  0  0  0  0
   22.9935  -20.2992  -12.5597 N   0  0  0  0  0  0  0  0  0  0  0  0
   21.7572  -20.2925  -13.3462 C   0  0  1  0  0  0  0  0  0  0  0  0
   22.0491  -20.6862  -14.7723 C   0  0  0  0  0  0  0  0  0  0  0  0
   21.7313  -19.6250  -15.7391 C   0  0  0  0  0  0  0  0  0  0  0  0
   22.0183  -18.4056  -15.5130 O   0  0  0  0  0  0  0  0  0  0  0  0
   20.7357  -21.1341  -12.6864 C   0  0  0  0  0  0  0  0  0  0  0  0
   20.9838  -22.3793  -12.4986 O   0  0  0  0  0  0  0  0  0  0  0  0
   21.0992  -19.9136  -16.9412 O   0  0  0  0  0  0  0  0  0  0  0  0
   19.5293  -20.6886  -12.2531 O   0  0  0  0  0  0  0  0  0  0  0  0
  2  4  1  0
  2  1  1  1
  3  2  1  0
  4  5  1  6
  6  4  1  0
  6 13  1  0
  7  6  2  0
  9  8  1  0
 10  9  1  0
 11 10  1  0
 12 11  1  1
 12 13  1  0
 14 16  1  0
 14 12  1  0
 15 14  2  0
 17 16  1  0
 17 21  1  0
 17 18  1  6
 19 18  1  0
 19 20  2  0
 21 22  2  0
 21 24  1  0
 23 19  1  0
M  END
$$$$
