VMD.pdb
     RDKit          3D

 24 23  0  0  1  0  0  0  0  0999 V2000
   20.5716  -15.4599  -16.9027 C   0  0  0  0  0  0  0  0  0  0  0  0
   21.0170  -14.2369  -16.1356 C   0  0  1  0  0  0  0  0  0  0  0  0
   22.5390  -14.2437  -16.1084 C   0  0  0  0  0  0  0  0  0  0  0  0
   20.5321  -12.9694  -16.8202 C   0  0  2  0  0  0  0  0  0  0  0  0
   21.0442  -12.9299  -18.1838 N   0  0  0  0  0  0  0  0  0  0  0  0
   20.9494  -11.7599  -16.0662 C   0  0  0  0  0  0  0  0  0  0  0  0
   20.5793  -11.5767  -14.8970 O   0  0  0  0  0  0  0  0  0  0  0  0
   27.0027  -11.2565  -14.6104 C   0  0  0  0  0  0  0  0  0  0  0  0
   26.1523  -10.1671  -15.7902 S   0  0  0  0  0  0  0  0  0  0  0  0
   24.3836  -10.3698  -15.5490 C   0  0  0  0  0  0  0  0  0  0  0  0
   23.6527   -9.3761  -16.4321 C   0  0  0  0  0  0  0  0  0  0  0  0
   22.1669   -9.5520  -16.1271 C   0  0  2  0  0  0  0  0  0  0  0  0
   21.7691  -10.8142  -16.6801 N   0  0  0  0  0  0  0  0  0  0  0  0
   21.3459   -8.4173  -16.5184 C   0  0  0  0  0  0  0  0  0  0  0  0
   21.0350   -8.2708  -17.7302 O   0  0  0  0  0  0  0  0  0  0  0  0
   20.8769   -7.4659  -15.6011 N   0  0  0  0  0  0  0  0  0  0  0  0
   20.0727   -6.2981  -15.9703 C   0  0  1  0  0  0  0  0  0  0  0  0
   18.9287   -6.1307  -15.0022 C   0  0  0  0  0  0  0  0  0  0  0  0
   18.1149   -4.9365  -15.2736 C   0  0  0  0  0  0  0  0  0  0  0  0
   17.9565   -4.4888  -16.4546 O   0  0  0  0  0  0  0  0  0  0  0  0
   20.9401   -5.1061  -16.0890 C   0  0  0  0  0  0  0  0  0  0  0  0
   22.0367   -5.0673  -15.4232 O   0  0  0  0  0  0  0  0  0  0  0  0
   17.4872   -4.2457  -14.2458 O   0  0  0  0  0  0  0  0  0  0  0  0
   20.6662   -4.0245  -16.8616 O   0  0  0  0  0  0  0  0  0  0  0  0
  2  4  1  0
  2  1  1  6
  3  2  1  0
  4  5  1  6
  6  4  1  0
  6 13  1  0
  7  6  2  0
  9  8  1  0
 10  9  1  0
 11 10  1  0
 12 11  1  6
 12 13  1  0
 14 16  1  0
 14 12  1  0
 15 14  2  0
 17 16  1  0
 17 21  1  0
 17 18  1  1
 19 18  1  0
 19 20  2  0
 21 22  2  0
 21 24  1  0
 23 19  1  0
M  END
$$$$
