VMD.pdb
     RDKit          3D

 24 23  0  0  1  0  0  0  0  0999 V2000
   18.1278  -11.9508  -15.2879 C   0  0  0  0  0  0  0  0  0  0  0  0
   19.3844  -12.2159  -16.0837 C   0  0  1  0  0  0  0  0  0  0  0  0
   19.1135  -13.4169  -16.9788 C   0  0  0  0  0  0  0  0  0  0  0  0
   19.7351  -11.0148  -16.9465 C   0  0  2  0  0  0  0  0  0  0  0  0
   20.7473  -11.3989  -17.9219 N   0  0  0  0  0  0  0  0  0  0  0  0
   20.2092   -9.8784  -16.1161 C   0  0  0  0  0  0  0  0  0  0  0  0
   19.5243   -9.4431  -15.1785 O   0  0  0  0  0  0  0  0  0  0  0  0
   26.3385  -10.9949  -14.4872 C   0  0  0  0  0  0  0  0  0  0  0  0
   25.7745   -9.5462  -15.4281 S   0  0  0  0  0  0  0  0  0  0  0  0
   24.0116   -9.3555  -15.1391 C   0  0  0  0  0  0  0  0  0  0  0  0
   23.5062   -8.1822  -15.9574 C   0  0  0  0  0  0  0  0  0  0  0  0
   21.9950   -8.1370  -15.7435 C   0  0  2  0  0  0  0  0  0  0  0  0
   21.4421   -9.2901  -16.3931 N   0  0  0  0  0  0  0  0  0  0  0  0
   21.3852   -6.8681  -16.1081 C   0  0  0  0  0  0  0  0  0  0  0  0
   21.3395   -6.5328  -17.3214 O   0  0  0  0  0  0  0  0  0  0  0  0
   20.8382   -5.9881  -15.1632 N   0  0  0  0  0  0  0  0  0  0  0  0
   20.2546   -4.6862  -15.4969 C   0  0  1  0  0  0  0  0  0  0  0  0
   18.9730   -4.4816  -14.7290 C   0  0  0  0  0  0  0  0  0  0  0  0
   18.3443   -3.1793  -14.9946 C   0  0  0  0  0  0  0  0  0  0  0  0
   18.2332   -2.7182  -16.1759 O   0  0  0  0  0  0  0  0  0  0  0  0
   21.2562   -3.6176  -15.2922 C   0  0  0  0  0  0  0  0  0  0  0  0
   20.9387   -2.4065  -15.5746 O   0  0  0  0  0  0  0  0  0  0  0  0
   17.8480   -2.3966  -13.9609 O   0  0  0  0  0  0  0  0  0  0  0  0
   22.5127   -3.8159  -14.8196 O   0  0  0  0  0  0  0  0  0  0  0  0
  2  4  1  0
  2  1  1  6
  3  2  1  0
  4  5  1  6
  6  4  1  0
  6 13  1  0
  7  6  2  0
  9  8  1  0
 10  9  1  0
 11 10  1  0
 12 11  1  6
 12 13  1  0
 14 16  1  0
 14 12  1  0
 15 14  2  0
 17 16  1  0
 17 21  1  0
 17 18  1  1
 19 18  1  0
 19 20  2  0
 21 22  2  0
 21 24  1  0
 23 19  1  0
M  END
$$$$
