VMD.pdb
     RDKit          3D

 24 23  0  0  1  0  0  0  0  0999 V2000
   16.6625  -10.9468  -16.0266 C   0  0  0  0  0  0  0  0  0  0  0  0
   17.5835  -11.7158  -16.9447 C   0  0  1  0  0  0  0  0  0  0  0  0
   16.7145  -12.4310  -17.9696 C   0  0  0  0  0  0  0  0  0  0  0  0
   18.5342  -10.7720  -17.6628 C   0  0  2  0  0  0  0  0  0  0  0  0
   19.2197  -11.4933  -18.7272 N   0  0  0  0  0  0  0  0  0  0  0  0
   19.5117  -10.1745  -16.7178 C   0  0  0  0  0  0  0  0  0  0  0  0
   19.1324   -9.5214  -15.7344 O   0  0  0  0  0  0  0  0  0  0  0  0
   26.9461  -10.6959  -14.4528 C   0  0  0  0  0  0  0  0  0  0  0  0
   25.7836  -11.0355  -15.8076 S   0  0  0  0  0  0  0  0  0  0  0  0
   24.2264  -10.2329  -15.4097 C   0  0  0  0  0  0  0  0  0  0  0  0
   23.1854  -10.6524  -16.4303 C   0  0  0  0  0  0  0  0  0  0  0  0
   21.9387   -9.8243  -16.1281 C   0  0  2  0  0  0  0  0  0  0  0  0
   20.8772  -10.3486  -16.9376 N   0  0  0  0  0  0  0  0  0  0  0  0
   22.1451   -8.3884  -16.2303 C   0  0  0  0  0  0  0  0  0  0  0  0
   22.3606   -7.8761  -17.3608 O   0  0  0  0  0  0  0  0  0  0  0  0
   22.1154   -7.5349  -15.1181 N   0  0  0  0  0  0  0  0  0  0  0  0
   22.1949   -6.0743  -15.2034 C   0  0  1  0  0  0  0  0  0  0  0  0
   21.1191   -5.5503  -16.1211 C   0  0  0  0  0  0  0  0  0  0  0  0
   21.0581   -4.0817  -16.1572 C   0  0  0  0  0  0  0  0  0  0  0  0
   22.1076   -3.3709  -16.2748 O   0  0  0  0  0  0  0  0  0  0  0  0
   22.1662   -5.4879  -13.8460 C   0  0  0  0  0  0  0  0  0  0  0  0
   22.0451   -6.2688  -12.8346 O   0  0  0  0  0  0  0  0  0  0  0  0
   19.8469   -3.4100  -16.0605 O   0  0  0  0  0  0  0  0  0  0  0  0
   22.2594   -4.1615  -13.5746 O   0  0  0  0  0  0  0  0  0  0  0  0
  2  4  1  0
  2  1  1  1
  3  2  1  0
  4  5  1  6
  6  4  1  0
  6 13  1  0
  7  6  2  0
  9  8  1  0
 10  9  1  0
 11 10  1  0
 12 11  1  6
 12 13  1  0
 14 16  1  0
 14 12  1  0
 15 14  2  0
 17 16  1  0
 17 21  1  0
 17 18  1  6
 19 18  1  0
 19 20  2  0
 21 22  2  0
 21 24  1  0
 23 19  1  0
M  END
$$$$
