RAQ.pdb
     RDKit          3D

 26 25  0  0  1  0  0  0  0  0999 V2000
   19.5981  -22.3741   -9.3377 N   0  0  0  0  0  0  0  0  0  0  0  0
   19.5759  -22.8429  -10.6827 C   0  0  0  0  0  0  0  0  0  0  0  0
   18.5174  -23.4250  -11.1016 N   0  0  0  0  0  0  0  0  0  0  0  0
   20.7172  -22.6493  -11.5000 N   0  0  0  0  0  0  0  0  0  0  0  0
   21.1290  -21.2713  -11.8155 C   0  0  0  0  0  0  0  0  0  0  0  0
   22.5300  -21.0775  -11.3581 C   0  0  0  0  0  0  0  0  0  0  0  0
   23.5731  -21.4922  -12.3161 C   0  0  0  0  0  0  0  0  0  0  0  0
   24.9571  -21.3048  -11.8088 C   0  0  2  0  0  0  0  0  0  0  0  0
   25.0620  -20.8126  -10.4607 N   0  0  0  0  0  0  0  0  0  0  0  0
   25.6991  -20.3734  -12.7045 C   0  0  0  0  0  0  0  0  0  0  0  0
   25.6395  -19.1260  -12.5766 O   0  0  0  0  0  0  0  0  0  0  0  0
   18.4222  -23.8647  -12.0384 C   0  0  0  0  0  0  0  0  0  0  0  0
   28.3292  -20.7266  -15.3619 C   0  0  1  0  0  0  0  0  0  0  0  0
   27.1290  -20.0530  -14.7289 N   0  0  0  0  0  0  0  0  0  0  0  0
   26.5027  -20.9071  -13.7399 C   0  0  0  0  0  0  0  0  0  0  0  0
   26.1333  -19.6223  -15.7099 O   0  0  0  0  0  0  0  0  0  0  0  0
   25.0178  -20.2431  -15.7883 N   0  0  0  0  0  0  0  0  0  0  0  0
   22.1570  -16.1381  -14.7907 C   0  0  0  0  0  0  0  0  0  0  0  0
   22.0155  -16.1542  -16.2267 O   0  0  0  0  0  0  0  0  0  0  0  0
   21.0025  -15.5960  -16.6968 C   0  0  0  0  0  0  0  0  0  0  0  0
   22.9959  -16.7895  -17.0888 C   0  0  0  0  0  0  0  0  0  0  0  0
   24.1800  -17.4409  -16.5333 C   0  0  1  0  0  0  0  0  0  0  0  0
   25.1821  -18.0508  -17.4631 N   0  0  0  0  0  0  0  0  0  0  0  0
   26.2876  -18.5484  -16.6130 C   0  0  0  0  0  0  0  0  0  0  0  0
   25.7261  -17.1691  -18.5024 O   0  0  0  0  0  0  0  0  0  0  0  0
   26.6170  -16.3071  -18.2695 O   0  0  0  0  0  0  0  0  0  0  0  0
  2  1  1  0
  3  2  2  0
  4  2  1  0
  5  6  1  0
  5  4  1  0
  6  7  1  0
  7  8  1  0
  8  9  1  1
 10  8  1  0
 11 10  2  0
 13 12  1  1
 13 15  1  0
 13 14  1  0
 14 10  1  0
 15 23  1  0
 16 15  2  0
 18 19  2  0
 18 17  1  0
 20 18  1  0
 22 21  1  1
 21 20  1  0
 22 24  1  0
 23 22  1  0
 24 25  2  0
 24 26  1  0
M  END
$$$$
