RAQ.pdb
     RDKit          3D

 26 25  0  0  1  0  0  0  0  0999 V2000
   19.6967  -19.9122  -16.0309 N   0  0  0  0  0  0  0  0  0  0  0  0
   18.6982  -19.0529  -16.5730 C   0  0  0  0  0  0  0  0  0  0  0  0
   17.5475  -19.0378  -16.0158 N   0  0  0  0  0  0  0  0  0  0  0  0
   19.0131  -18.2536  -17.6999 N   0  0  0  0  0  0  0  0  0  0  0  0
   20.0831  -17.2502  -17.5719 C   0  0  0  0  0  0  0  0  0  0  0  0
   19.4625  -15.9024  -17.4828 C   0  0  0  0  0  0  0  0  0  0  0  0
   20.4076  -14.7694  -17.4555 C   0  0  0  0  0  0  0  0  0  0  0  0
   21.6061  -15.0129  -16.6116 C   0  0  2  0  0  0  0  0  0  0  0  0
   21.5006  -16.1102  -15.6867 N   0  0  0  0  0  0  0  0  0  0  0  0
   21.9357  -13.7820  -15.8392 C   0  0  0  0  0  0  0  0  0  0  0  0
   21.1036  -13.2146  -15.0898 O   0  0  0  0  0  0  0  0  0  0  0  0
   16.7442  -18.4666  -16.3454 C   0  0  0  0  0  0  0  0  0  0  0  0
   25.0683  -11.6985  -15.4058 C   0  0  2  0  0  0  0  0  0  0  0  0
   23.5892  -11.9964  -15.2708 N   0  0  0  0  0  0  0  0  0  0  0  0
   23.2324  -13.2260  -15.9495 C   0  0  0  0  0  0  0  0  0  0  0  0
   22.7415  -10.9050  -15.7498 O   0  0  0  0  0  0  0  0  0  0  0  0
   22.4623  -10.8253  -16.9954 N   0  0  0  0  0  0  0  0  0  0  0  0
   17.0901   -9.6074  -14.4663 C   0  0  0  0  0  0  0  0  0  0  0  0
   17.5140   -8.3665  -15.0689 O   0  0  0  0  0  0  0  0  0  0  0  0
   16.6283   -7.5104  -15.2720 C   0  0  0  0  0  0  0  0  0  0  0  0
   18.8990   -8.1197  -15.4279 C   0  0  0  0  0  0  0  0  0  0  0  0
   19.9406   -9.1026  -15.1377 C   0  0  1  0  0  0  0  0  0  0  0  0
   21.3601   -8.7896  -15.4946 N   0  0  0  0  0  0  0  0  0  0  0  0
   22.1795   -9.8924  -14.9426 C   0  0  0  0  0  0  0  0  0  0  0  0
   21.8840   -7.5059  -15.0135 O   0  0  0  0  0  0  0  0  0  0  0  0
   22.6053   -7.4053  -13.9836 O   0  0  0  0  0  0  0  0  0  0  0  0
  2  1  1  0
  3  2  2  0
  4  2  1  0
  5  6  1  0
  5  4  1  0
  6  7  1  0
  7  8  1  0
  8  9  1  1
 10  8  1  0
 11 10  2  0
 13 12  1  1
 13 15  1  0
 13 14  1  0
 14 10  1  0
 15 23  1  0
 16 15  2  0
 18 19  2  0
 18 17  1  0
 20 18  1  0
 22 21  1  6
 21 20  1  0
 22 24  1  0
 23 22  1  0
 24 25  2  0
 24 26  1  0
M  END
$$$$
