RAQ.pdb
     RDKit          3D

 26 25  0  0  1  0  0  0  0  0999 V2000
   29.6802  -21.0602  -12.0521 N   0  0  0  0  0  0  0  0  0  0  0  0
   29.2869  -21.3059  -10.7052 C   0  0  0  0  0  0  0  0  0  0  0  0
   30.1482  -21.1127   -9.7801 N   0  0  0  0  0  0  0  0  0  0  0  0
   27.9679  -21.7516  -10.4416 N   0  0  0  0  0  0  0  0  0  0  0  0
   26.9373  -21.5427  -11.4722 C   0  0  0  0  0  0  0  0  0  0  0  0
   26.0591  -20.4217  -11.0457 C   0  0  0  0  0  0  0  0  0  0  0  0
   24.6096  -20.6903  -11.1135 C   0  0  0  0  0  0  0  0  0  0  0  0
   24.1405  -21.0937  -12.4644 C   0  0  2  0  0  0  0  0  0  0  0  0
   25.0688  -21.8786  -13.2344 N   0  0  0  0  0  0  0  0  0  0  0  0
   23.7854  -19.8821  -13.2559 C   0  0  0  0  0  0  0  0  0  0  0  0
   22.9445  -19.0398  -12.8567 O   0  0  0  0  0  0  0  0  0  0  0  0
   29.9558  -21.2329   -8.7659 C   0  0  0  0  0  0  0  0  0  0  0  0
   25.2197  -18.2227  -16.3126 C   0  0  2  0  0  0  0  0  0  0  0  0
   24.1176  -18.4993  -15.3109 N   0  0  0  0  0  0  0  0  0  0  0  0
   24.4150  -19.6661  -14.5047 C   0  0  0  0  0  0  0  0  0  0  0  0
   22.8042  -18.6535  -15.9358 O   0  0  0  0  0  0  0  0  0  0  0  0
   22.4373  -19.8057  -16.3528 N   0  0  0  0  0  0  0  0  0  0  0  0
   19.4343  -17.1031  -12.8521 C   0  0  0  0  0  0  0  0  0  0  0  0
   18.9786  -18.3240  -13.4720 O   0  0  0  0  0  0  0  0  0  0  0  0
   18.5790  -19.2262  -12.7070 C   0  0  0  0  0  0  0  0  0  0  0  0
   18.9852  -18.5039  -14.9127 C   0  0  0  0  0  0  0  0  0  0  0  0
   19.5115  -17.4692  -15.8000 C   0  0  2  0  0  0  0  0  0  0  0  0
   20.5631  -17.8317  -16.8018 N   0  0  0  0  0  0  0  0  0  0  0  0
   21.8659  -17.6173  -16.1316 C   0  0  0  0  0  0  0  0  0  0  0  0
   20.5388  -17.0898  -18.0677 O   0  0  0  0  0  0  0  0  0  0  0  0
   21.4342  -16.2626  -18.3920 O   0  0  0  0  0  0  0  0  0  0  0  0
  2  1  1  0
  3  2  2  0
  4  2  1  0
  5  6  1  0
  5  4  1  0
  6  7  1  0
  7  8  1  0
  8  9  1  6
 10  8  1  0
 11 10  2  0
 13 12  1  1
 13 15  1  0
 13 14  1  0
 14 10  1  0
 15 23  1  0
 16 15  2  0
 18 19  2  0
 18 17  1  0
 20 18  1  0
 22 21  1  1
 21 20  1  0
 22 24  1  0
 23 22  1  0
 24 25  2  0
 24 26  1  0
M  END
$$$$
