RAQ.pdb
     RDKit          3D

 26 25  0  0  1  0  0  0  0  0999 V2000
   12.7504  -14.1863  -16.7490 N   0  0  0  0  0  0  0  0  0  0  0  0
   13.4492  -14.0091  -15.5203 C   0  0  0  0  0  0  0  0  0  0  0  0
   12.9183  -13.2657  -14.6257 N   0  0  0  0  0  0  0  0  0  0  0  0
   14.6959  -14.6568  -15.3357 N   0  0  0  0  0  0  0  0  0  0  0  0
   15.9049  -14.0227  -15.8874 C   0  0  0  0  0  0  0  0  0  0  0  0
   17.0500  -14.9554  -15.7184 C   0  0  0  0  0  0  0  0  0  0  0  0
   18.3492  -14.4608  -16.2135 C   0  0  0  0  0  0  0  0  0  0  0  0
   18.2310  -13.4971  -17.3383 C   0  0  2  0  0  0  0  0  0  0  0  0
   18.0308  -14.0822  -18.6377 N   0  0  0  0  0  0  0  0  0  0  0  0
   19.4481  -12.6394  -17.3955 C   0  0  0  0  0  0  0  0  0  0  0  0
   20.0921  -12.3153  -16.3678 O   0  0  0  0  0  0  0  0  0  0  0  0
   13.2733  -13.1745  -13.6533 C   0  0  0  0  0  0  0  0  0  0  0  0
   21.5197  -11.2192  -20.2249 C   0  0  1  0  0  0  0  0  0  0  0  0
   21.1189  -11.3934  -18.7745 N   0  0  0  0  0  0  0  0  0  0  0  0
   19.9009  -12.1687  -18.6509 C   0  0  0  0  0  0  0  0  0  0  0  0
   20.9677  -10.1218  -18.0678 O   0  0  0  0  0  0  0  0  0  0  0  0
   19.8103   -9.5848  -17.9794 N   0  0  0  0  0  0  0  0  0  0  0  0
   21.6846   -7.5242  -13.1714 C   0  0  0  0  0  0  0  0  0  0  0  0
   22.3892   -6.4510  -13.8306 O   0  0  0  0  0  0  0  0  0  0  0  0
   22.4132   -5.3507  -13.2411 C   0  0  0  0  0  0  0  0  0  0  0  0
   23.0367   -6.6324  -15.1173 C   0  0  0  0  0  0  0  0  0  0  0  0
   22.9248   -7.8931  -15.8475 C   0  0  1  0  0  0  0  0  0  0  0  0
   21.8132   -8.0695  -16.8343 N   0  0  0  0  0  0  0  0  0  0  0  0
   22.0127   -9.4012  -17.4501 C   0  0  0  0  0  0  0  0  0  0  0  0
   21.7133   -7.0551  -17.8899 O   0  0  0  0  0  0  0  0  0  0  0  0
   21.0197   -6.0086  -17.7683 O   0  0  0  0  0  0  0  0  0  0  0  0
  2  1  1  0
  3  2  2  0
  4  2  1  0
  5  6  1  0
  5  4  1  0
  6  7  1  0
  7  8  1  0
  8  9  1  6
 10  8  1  0
 11 10  2  0
 13 12  1  1
 13 15  1  0
 13 14  1  0
 14 10  1  0
 15 23  1  0
 16 15  2  0
 18 19  2  0
 18 17  1  0
 20 18  1  0
 22 21  1  1
 21 20  1  0
 22 24  1  0
 23 22  1  0
 24 25  2  0
 24 26  1  0
M  END
$$$$
