RAQ.pdb
     RDKit          3D

 26 25  0  0  1  0  0  0  0  0999 V2000
   28.9856  -21.0258  -15.9420 N   0  0  0  0  0  0  0  0  0  0  0  0
   27.8527  -20.4603  -16.5945 C   0  0  0  0  0  0  0  0  0  0  0  0
   27.5060  -20.9414  -17.7273 N   0  0  0  0  0  0  0  0  0  0  0  0
   27.1575  -19.3947  -15.9707 N   0  0  0  0  0  0  0  0  0  0  0  0
   27.6367  -18.9134  -14.6643 C   0  0  0  0  0  0  0  0  0  0  0  0
   27.3037  -19.9299  -13.6321 C   0  0  0  0  0  0  0  0  0  0  0  0
   25.8937  -19.9542  -13.1974 C   0  0  0  0  0  0  0  0  0  0  0  0
   25.6246  -20.9190  -12.0998 C   0  0  2  0  0  0  0  0  0  0  0  0
   26.2503  -22.2073  -12.2395 N   0  0  0  0  0  0  0  0  0  0  0  0
   24.1555  -21.1264  -11.9617 C   0  0  0  0  0  0  0  0  0  0  0  0
   23.5337  -21.9959  -12.6199 O   0  0  0  0  0  0  0  0  0  0  0  0
   26.6903  -20.6103  -18.2797 C   0  0  0  0  0  0  0  0  0  0  0  0
   21.4905  -19.7224   -9.6813 C   0  0  1  0  0  0  0  0  0  0  0  0
   21.9909  -20.4439  -10.9156 N   0  0  0  0  0  0  0  0  0  0  0  0
   23.4275  -20.3173  -11.0573 C   0  0  0  0  0  0  0  0  0  0  0  0
   21.3332  -19.9973  -12.1433 O   0  0  0  0  0  0  0  0  0  0  0  0
   21.9293  -19.1642  -12.9093 N   0  0  0  0  0  0  0  0  0  0  0  0
   22.8338  -22.3107  -15.3383 C   0  0  0  0  0  0  0  0  0  0  0  0
   22.4034  -21.1579  -16.0922 O   0  0  0  0  0  0  0  0  0  0  0  0
   23.2092  -20.7034  -16.9305 C   0  0  0  0  0  0  0  0  0  0  0  0
   21.1014  -20.5485  -15.8889 C   0  0  0  0  0  0  0  0  0  0  0  0
   20.1812  -21.0552  -14.8733 C   0  0  2  0  0  0  0  0  0  0  0  0
   19.5314  -20.0914  -13.9302 N   0  0  0  0  0  0  0  0  0  0  0  0
   20.0572  -20.4106  -12.5833 C   0  0  0  0  0  0  0  0  0  0  0  0
   18.0644  -20.1038  -13.8957 O   0  0  0  0  0  0  0  0  0  0  0  0
   17.4068  -20.7450  -13.0311 O   0  0  0  0  0  0  0  0  0  0  0  0
  2  1  1  0
  3  2  2  0
  4  2  1  0
  5  6  1  0
  5  4  1  0
  6  7  1  0
  7  8  1  0
  8  9  1  6
 10  8  1  0
 11 10  2  0
 13 12  1  1
 13 15  1  0
 13 14  1  0
 14 10  1  0
 15 23  1  0
 16 15  2  0
 18 19  2  0
 18 17  1  0
 20 18  1  0
 22 21  1  6
 21 20  1  0
 22 24  1  0
 23 22  1  0
 24 25  2  0
 24 26  1  0
M  END
$$$$
