RAQ.pdb
     RDKit          3D

 26 25  0  0  1  0  0  0  0  0999 V2000
   27.2249  -29.1361  -18.1166 N   0  0  0  0  0  0  0  0  0  0  0  0
   28.6293  -29.0446  -17.8958 C   0  0  0  0  0  0  0  0  0  0  0  0
   29.3589  -30.0401  -18.2296 N   0  0  0  0  0  0  0  0  0  0  0  0
   29.1619  -27.8648  -17.3194 N   0  0  0  0  0  0  0  0  0  0  0  0
   28.2288  -26.8803  -16.7466 C   0  0  0  0  0  0  0  0  0  0  0  0
   27.7811  -25.9644  -17.8284 C   0  0  0  0  0  0  0  0  0  0  0  0
   27.3211  -24.6345  -17.3837 C   0  0  0  0  0  0  0  0  0  0  0  0
   28.4254  -23.7254  -16.9814 C   0  0  2  0  0  0  0  0  0  0  0  0
   29.3060  -24.2325  -15.9625 N   0  0  0  0  0  0  0  0  0  0  0  0
   27.8626  -22.4293  -16.5087 C   0  0  0  0  0  0  0  0  0  0  0  0
   27.4011  -22.2780  -15.3511 O   0  0  0  0  0  0  0  0  0  0  0  0
   30.3836  -30.0965  -18.0659 C   0  0  0  0  0  0  0  0  0  0  0  0
   27.7498  -18.9403  -17.9498 C   0  0  2  0  0  0  0  0  0  0  0  0
   27.3554  -20.0260  -16.9697 N   0  0  0  0  0  0  0  0  0  0  0  0
   27.8440  -21.3234  -17.3915 C   0  0  0  0  0  0  0  0  0  0  0  0
   25.9120  -20.0927  -16.7428 O   0  0  0  0  0  0  0  0  0  0  0  0
   25.2040  -20.9066  -17.4300 N   0  0  0  0  0  0  0  0  0  0  0  0
   22.1611  -21.8910  -12.7209 C   0  0  0  0  0  0  0  0  0  0  0  0
   21.4727  -20.8733  -13.4779 O   0  0  0  0  0  0  0  0  0  0  0  0
   20.3384  -21.1663  -13.9094 C   0  0  0  0  0  0  0  0  0  0  0  0
   22.0647  -19.5725  -13.7332 C   0  0  0  0  0  0  0  0  0  0  0  0
   23.4460  -19.4490  -14.1936 C   0  0  2  0  0  0  0  0  0  0  0  0
   23.7236  -19.3899  -15.6633 N   0  0  0  0  0  0  0  0  0  0  0  0
   25.1958  -19.3182  -15.8047 C   0  0  0  0  0  0  0  0  0  0  0  0
   23.1093  -18.2774  -16.3971 O   0  0  0  0  0  0  0  0  0  0  0  0
   21.8940  -18.2701  -16.7347 O   0  0  0  0  0  0  0  0  0  0  0  0
  2  1  1  0
  3  2  2  0
  4  2  1  0
  5  6  1  0
  5  4  1  0
  6  7  1  0
  7  8  1  0
  8  9  1  1
 10  8  1  0
 11 10  2  0
 13 12  1  1
 13 15  1  0
 13 14  1  0
 14 10  1  0
 15 23  1  0
 16 15  2  0
 18 19  2  0
 18 17  1  0
 20 18  1  0
 22 21  1  6
 21 20  1  0
 22 24  1  0
 23 22  1  0
 24 25  2  0
 24 26  1  0
M  END
$$$$
