RAQ.pdb
     RDKit          3D

 26 25  0  0  1  0  0  0  0  0999 V2000
   31.4910  -21.5559   -9.9372 N   0  0  0  0  0  0  0  0  0  0  0  0
   31.0782  -21.7285  -11.2896 C   0  0  0  0  0  0  0  0  0  0  0  0
   31.7491  -22.5281  -12.0281 N   0  0  0  0  0  0  0  0  0  0  0  0
   29.9499  -21.0141  -11.7634 N   0  0  0  0  0  0  0  0  0  0  0  0
   29.1694  -20.2171  -10.8024 C   0  0  0  0  0  0  0  0  0  0  0  0
   27.7930  -20.7738  -10.7305 C   0  0  0  0  0  0  0  0  0  0  0  0
   27.0012  -20.6702  -11.9715 C   0  0  0  0  0  0  0  0  0  0  0  0
   25.5903  -21.1098  -11.8171 C   0  0  2  0  0  0  0  0  0  0  0  0
   25.4056  -22.5013  -11.5003 N   0  0  0  0  0  0  0  0  0  0  0  0
   24.8311  -20.8106  -13.0639 C   0  0  0  0  0  0  0  0  0  0  0  0
   24.7440  -19.6511  -13.5370 O   0  0  0  0  0  0  0  0  0  0  0  0
   31.5710  -22.6793  -13.0408 C   0  0  0  0  0  0  0  0  0  0  0  0
   23.1071  -22.9221  -15.6772 C   0  0  2  0  0  0  0  0  0  0  0  0
   23.4043  -21.6297  -14.9451 N   0  0  0  0  0  0  0  0  0  0  0  0
   24.1815  -21.8671  -13.7453 C   0  0  0  0  0  0  0  0  0  0  0  0
   22.1980  -20.8737  -14.6095 O   0  0  0  0  0  0  0  0  0  0  0  0
   21.5879  -21.1171  -13.5120 N   0  0  0  0  0  0  0  0  0  0  0  0
   20.5676  -15.0833  -16.9079 C   0  0  0  0  0  0  0  0  0  0  0  0
   19.4571  -15.5036  -16.0878 O   0  0  0  0  0  0  0  0  0  0  0  0
   18.5306  -14.6810  -15.9340 C   0  0  0  0  0  0  0  0  0  0  0  0
   19.4137  -16.8146  -15.4654 C   0  0  0  0  0  0  0  0  0  0  0  0
   20.4932  -17.7795  -15.6620 C   0  0  1  0  0  0  0  0  0  0  0  0
   20.4039  -19.1200  -15.0019 N   0  0  0  0  0  0  0  0  0  0  0  0
   21.6184  -19.8637  -15.4074 C   0  0  0  0  0  0  0  0  0  0  0  0
   19.2151  -19.9214  -15.3150 O   0  0  0  0  0  0  0  0  0  0  0  0
   19.1617  -20.7087  -16.2991 O   0  0  0  0  0  0  0  0  0  0  0  0
  2  1  1  0
  3  2  2  0
  4  2  1  0
  5  6  1  0
  5  4  1  0
  6  7  1  0
  7  8  1  0
  8  9  1  6
 10  8  1  0
 11 10  2  0
 13 12  1  6
 13 15  1  0
 13 14  1  0
 14 10  1  0
 15 23  1  0
 16 15  2  0
 18 19  2  0
 18 17  1  0
 20 18  1  0
 22 21  1  1
 21 20  1  0
 22 24  1  0
 23 22  1  0
 24 25  2  0
 24 26  1  0
M  END
$$$$
