RAQ.pdb
     RDKit          3D

 26 25  0  0  1  0  0  0  0  0999 V2000
   12.6632  -15.1248    7.6593 N   0  0  0  0  0  0  0  0  0  0  0  0
   13.4030  -15.4684    6.4915 C   0  0  0  0  0  0  0  0  0  0  0  0
   13.2313  -16.6314    5.9886 N   0  0  0  0  0  0  0  0  0  0  0  0
   14.2945  -14.5181    5.9347 N   0  0  0  0  0  0  0  0  0  0  0  0
   14.5489  -13.2737    6.6796 C   0  0  0  0  0  0  0  0  0  0  0  0
   15.5140  -12.4470    5.9083 C   0  0  0  0  0  0  0  0  0  0  0  0
   16.9015  -12.9492    5.8839 C   0  0  0  0  0  0  0  0  0  0  0  0
   17.8635  -12.0125    5.2477 C   0  0  2  0  0  0  0  0  0  0  0  0
   18.0228  -12.1586    3.8250 N   0  0  0  0  0  0  0  0  0  0  0  0
   19.2029  -12.1581    5.8843 C   0  0  0  0  0  0  0  0  0  0  0  0
   20.0410  -13.0106    5.5015 O   0  0  0  0  0  0  0  0  0  0  0  0
   13.5677  -16.9187    5.0482 C   0  0  0  0  0  0  0  0  0  0  0  0
   21.2741  -10.0248    8.1361 C   0  0  1  0  0  0  0  0  0  0  0  0
   20.8554  -11.3729    7.5867 N   0  0  0  0  0  0  0  0  0  0  0  0
   19.5501  -11.3078    6.9609 C   0  0  0  0  0  0  0  0  0  0  0  0
   20.8649  -12.4292    8.5985 O   0  0  0  0  0  0  0  0  0  0  0  0
   19.7590  -12.8271    9.1031 N   0  0  0  0  0  0  0  0  0  0  0  0
   21.9837  -19.2565    9.9440 C   0  0  0  0  0  0  0  0  0  0  0  0
   22.2043  -17.9832    9.3017 O   0  0  0  0  0  0  0  0  0  0  0  0
   22.5425  -18.0123    8.1003 C   0  0  0  0  0  0  0  0  0  0  0  0
   22.0472  -16.7265   10.0116 C   0  0  0  0  0  0  0  0  0  0  0  0
   22.0809  -15.4496    9.3021 C   0  0  2  0  0  0  0  0  0  0  0  0
   21.9572  -14.1775   10.0812 N   0  0  0  0  0  0  0  0  0  0  0  0
   22.0177  -13.0775    9.0918 C   0  0  0  0  0  0  0  0  0  0  0  0
   22.9662  -13.9517   11.1225 O   0  0  0  0  0  0  0  0  0  0  0  0
   22.9029  -14.4873   12.2628 O   0  0  0  0  0  0  0  0  0  0  0  0
  2  1  1  0
  3  2  2  0
  4  2  1  0
  5  6  1  0
  5  4  1  0
  6  7  1  0
  7  8  1  0
  8  9  1  6
 10  8  1  0
 11 10  2  0
 13 12  1  6
 13 15  1  0
 13 14  1  0
 14 10  1  0
 15 23  1  0
 16 15  2  0
 18 19  2  0
 18 17  1  0
 20 18  1  0
 22 21  1  6
 21 20  1  0
 22 24  1  0
 23 22  1  0
 24 25  2  0
 24 26  1  0
M  END
$$$$
