RAQ.pdb
     RDKit          3D

 26 25  0  0  1  0  0  0  0  0999 V2000
   26.1918  -24.1431  -15.5434 N   0  0  0  0  0  0  0  0  0  0  0  0
   27.2972  -23.6482  -16.2934 C   0  0  0  0  0  0  0  0  0  0  0  0
   28.3859  -24.3186  -16.2777 N   0  0  0  0  0  0  0  0  0  0  0  0
   27.1519  -22.4419  -17.0226 N   0  0  0  0  0  0  0  0  0  0  0  0
   25.8444  -21.7652  -17.0067 C   0  0  0  0  0  0  0  0  0  0  0  0
   25.9714  -20.5041  -16.2299 C   0  0  0  0  0  0  0  0  0  0  0  0
   24.7748  -20.1091  -15.4618 C   0  0  0  0  0  0  0  0  0  0  0  0
   23.5461  -19.9942  -16.2893 C   0  0  2  0  0  0  0  0  0  0  0  0
   23.7020  -19.2942  -17.5369 N   0  0  0  0  0  0  0  0  0  0  0  0
   22.4738  -19.3181  -15.5060 C   0  0  0  0  0  0  0  0  0  0  0  0
   22.1929  -19.6458  -14.3272 O   0  0  0  0  0  0  0  0  0  0  0  0
   29.2707  -24.0100  -16.7271 C   0  0  0  0  0  0  0  0  0  0  0  0
   20.2410  -16.3305  -16.0892 C   0  0  2  0  0  0  0  0  0  0  0  0
   20.6256  -17.6378  -15.4277 N   0  0  0  0  0  0  0  0  0  0  0  0
   21.7406  -18.2671  -16.1063 C   0  0  0  0  0  0  0  0  0  0  0  0
   19.5104  -18.5795  -15.3342 O   0  0  0  0  0  0  0  0  0  0  0  0
   19.5854  -19.7055  -15.9363 N   0  0  0  0  0  0  0  0  0  0  0  0
   19.2646  -23.0940  -12.9022 C   0  0  0  0  0  0  0  0  0  0  0  0
   17.8289  -22.9526  -12.9362 O   0  0  0  0  0  0  0  0  0  0  0  0
   17.1595  -23.9341  -12.5524 C   0  0  0  0  0  0  0  0  0  0  0  0
   17.1869  -21.7344  -13.3964 C   0  0  0  0  0  0  0  0  0  0  0  0
   17.9751  -20.5749  -13.8079 C   0  0  1  0  0  0  0  0  0  0  0  0
   17.2828  -19.4080  -14.4399 N   0  0  0  0  0  0  0  0  0  0  0  0
   18.3139  -18.3604  -14.6178 C   0  0  0  0  0  0  0  0  0  0  0  0
   16.1437  -18.8497  -13.7021 O   0  0  0  0  0  0  0  0  0  0  0  0
   16.2589  -17.8899  -12.8918 O   0  0  0  0  0  0  0  0  0  0  0  0
  2  1  1  0
  3  2  2  0
  4  2  1  0
  5  6  1  0
  5  4  1  0
  6  7  1  0
  7  8  1  0
  8  9  1  6
 10  8  1  0
 11 10  2  0
 13 12  1  1
 13 15  1  0
 13 14  1  0
 14 10  1  0
 15 23  1  0
 16 15  2  0
 18 19  2  0
 18 17  1  0
 20 18  1  0
 22 21  1  6
 21 20  1  0
 22 24  1  0
 23 22  1  0
 24 25  2  0
 24 26  1  0
M  END
$$$$
