RAQ.pdb
     RDKit          3D

 26 25  0  0  1  0  0  0  0  0999 V2000
   30.9208  -21.7715   -9.6545 N   0  0  0  0  0  0  0  0  0  0  0  0
   30.5036  -21.9858  -10.9996 C   0  0  0  0  0  0  0  0  0  0  0  0
   31.1721  -22.8078  -11.7153 N   0  0  0  0  0  0  0  0  0  0  0  0
   29.3736  -21.2865  -11.4915 N   0  0  0  0  0  0  0  0  0  0  0  0
   28.5564  -20.5154  -10.5399 C   0  0  0  0  0  0  0  0  0  0  0  0
   27.2858  -21.2491  -10.3011 C   0  0  0  0  0  0  0  0  0  0  0  0
   26.0793  -20.6368  -10.8903 C   0  0  0  0  0  0  0  0  0  0  0  0
   25.6845  -21.2315  -12.1935 C   0  0  2  0  0  0  0  0  0  0  0  0
   26.7717  -21.6205  -13.0523 N   0  0  0  0  0  0  0  0  0  0  0  0
   24.8189  -20.2761  -12.9406 C   0  0  0  0  0  0  0  0  0  0  0  0
   23.7590  -19.8084  -12.4570 O   0  0  0  0  0  0  0  0  0  0  0  0
   31.0024  -22.9769  -12.7266 C   0  0  0  0  0  0  0  0  0  0  0  0
   25.1823  -18.3235  -16.1379 C   0  0  2  0  0  0  0  0  0  0  0  0
   24.3821  -18.9707  -15.0264 N   0  0  0  0  0  0  0  0  0  0  0  0
   25.1988  -19.8766  -14.2439 C   0  0  0  0  0  0  0  0  0  0  0  0
   23.1946  -19.6726  -15.5127 O   0  0  0  0  0  0  0  0  0  0  0  0
   23.2668  -20.9216  -15.7787 N   0  0  0  0  0  0  0  0  0  0  0  0
   16.5542  -20.2254  -16.0102 C   0  0  0  0  0  0  0  0  0  0  0  0
   17.6432  -20.9439  -15.3935 O   0  0  0  0  0  0  0  0  0  0  0  0
   17.5422  -22.1876  -15.3520 C   0  0  0  0  0  0  0  0  0  0  0  0
   18.8002  -20.2616  -14.8424 C   0  0  0  0  0  0  0  0  0  0  0  0
   20.1544  -20.6082  -15.2680 C   0  0  1  0  0  0  0  0  0  0  0  0
   20.8039  -19.8128  -16.3571 N   0  0  0  0  0  0  0  0  0  0  0  0
   21.9285  -19.0857  -15.7254 C   0  0  0  0  0  0  0  0  0  0  0  0
   19.9444  -18.8582  -17.0667 O   0  0  0  0  0  0  0  0  0  0  0  0
   19.9401  -17.6228  -16.8124 O   0  0  0  0  0  0  0  0  0  0  0  0
  2  1  1  0
  3  2  2  0
  4  2  1  0
  5  6  1  0
  5  4  1  0
  6  7  1  0
  7  8  1  0
  8  9  1  6
 10  8  1  0
 11 10  2  0
 13 12  1  1
 13 15  1  0
 13 14  1  0
 14 10  1  0
 15 23  1  0
 16 15  2  0
 18 19  2  0
 18 17  1  0
 20 18  1  0
 22 21  1  6
 21 20  1  0
 22 24  1  0
 23 22  1  0
 24 25  2  0
 24 26  1  0
M  END
$$$$
