RAQ.pdb
     RDKit          3D

 26 25  0  0  1  0  0  0  0  0999 V2000
   27.5031  -28.3174  -16.7414 N   0  0  0  0  0  0  0  0  0  0  0  0
   28.4803  -27.7328  -17.5971 C   0  0  0  0  0  0  0  0  0  0  0  0
   29.1668  -28.5078  -18.3474 N   0  0  0  0  0  0  0  0  0  0  0  0
   28.6551  -26.3266  -17.5859 N   0  0  0  0  0  0  0  0  0  0  0  0
   27.7175  -25.5090  -16.7982 C   0  0  0  0  0  0  0  0  0  0  0  0
   28.0845  -24.0775  -16.9589 C   0  0  0  0  0  0  0  0  0  0  0  0
   27.2260  -23.1178  -16.2379 C   0  0  0  0  0  0  0  0  0  0  0  0
   27.6393  -21.7012  -16.4110 C   0  0  2  0  0  0  0  0  0  0  0  0
   28.9787  -21.3898  -15.9873 N   0  0  0  0  0  0  0  0  0  0  0  0
   26.6984  -20.8096  -15.6761 C   0  0  0  0  0  0  0  0  0  0  0  0
   26.5650  -20.8537  -14.4286 O   0  0  0  0  0  0  0  0  0  0  0  0
   29.9017  -28.1847  -19.0074 C   0  0  0  0  0  0  0  0  0  0  0  0
   24.9614  -17.6242  -16.4642 C   0  0  1  0  0  0  0  0  0  0  0  0
   25.0280  -18.9517  -15.7377 N   0  0  0  0  0  0  0  0  0  0  0  0
   25.9232  -19.8760  -16.4042 C   0  0  0  0  0  0  0  0  0  0  0  0
   23.7157  -19.5741  -15.5652 O   0  0  0  0  0  0  0  0  0  0  0  0
   23.2645  -20.3532  -16.4736 N   0  0  0  0  0  0  0  0  0  0  0  0
   18.3173  -19.7732  -10.6381 C   0  0  0  0  0  0  0  0  0  0  0  0
   19.5272  -20.4648  -11.0130 O   0  0  0  0  0  0  0  0  0  0  0  0
   20.2024  -20.9568  -10.0852 C   0  0  0  0  0  0  0  0  0  0  0  0
   19.9475  -20.5834  -12.3976 C   0  0  0  0  0  0  0  0  0  0  0  0
   21.2178  -20.0217  -12.8515 C   0  0  1  0  0  0  0  0  0  0  0  0
   21.5803  -20.1124  -14.3009 N   0  0  0  0  0  0  0  0  0  0  0  0
   22.8656  -19.3932  -14.4528 C   0  0  0  0  0  0  0  0  0  0  0  0
   20.6030  -19.5688  -15.2512 O   0  0  0  0  0  0  0  0  0  0  0  0
   19.7012  -20.2734  -15.7817 O   0  0  0  0  0  0  0  0  0  0  0  0
  2  1  1  0
  3  2  2  0
  4  2  1  0
  5  6  1  0
  5  4  1  0
  6  7  1  0
  7  8  1  0
  8  9  1  1
 10  8  1  0
 11 10  2  0
 13 12  1  1
 13 15  1  0
 13 14  1  0
 14 10  1  0
 15 23  1  0
 16 15  2  0
 18 19  2  0
 18 17  1  0
 20 18  1  0
 22 21  1  1
 21 20  1  0
 22 24  1  0
 23 22  1  0
 24 25  2  0
 24 26  1  0
M  END
$$$$
