VSD.pdb
     RDKit          3D

 22 21  0  0  1  0  0  0  0  0999 V2000
    7.7788  -12.2102   26.9511 C   0  0  0  0  0  0  0  0  0  0  0  0
    6.7647  -11.8796   25.8793 C   0  0  2  0  0  0  0  0  0  0  0  0
    5.8804  -10.7709   26.3862 C   0  0  0  0  0  0  0  0  0  0  0  0
    5.9916  -13.0746   25.4174 C   0  0  2  0  0  0  0  0  0  0  0  0
    5.1872  -13.5546   26.5193 N   0  0  0  0  0  0  0  0  0  0  0  0
    6.8134  -14.1654   24.8943 C   0  0  0  0  0  0  0  0  0  0  0  0
    7.4516  -14.9811   25.6257 O   0  0  0  0  0  0  0  0  0  0  0  0
    8.6928  -14.2501   21.0003 O   0  0  0  0  0  0  0  0  0  0  0  0
    7.9528  -15.3275   21.4356 C   0  0  0  0  0  0  0  0  0  0  0  0
    7.9142  -15.3173   22.9388 C   0  0  2  0  0  0  0  0  0  0  0  0
    6.9590  -14.3956   23.4799 N   0  0  0  0  0  0  0  0  0  0  0  0
    9.2792  -15.1222   23.4737 C   0  0  0  0  0  0  0  0  0  0  0  0
    9.4788  -14.2443   24.3486 O   0  0  0  0  0  0  0  0  0  0  0  0
   10.3877  -15.8910   23.0382 N   0  0  0  0  0  0  0  0  0  0  0  0
   11.3332  -16.5440   23.8859 C   0  0  1  0  0  0  0  0  0  0  0  0
   10.6212  -17.4008   24.8979 C   0  0  0  0  0  0  0  0  0  0  0  0
   11.5634  -18.1217   25.7807 C   0  0  0  0  0  0  0  0  0  0  0  0
   12.2331  -19.1006   25.3659 O   0  0  0  0  0  0  0  0  0  0  0  0
   12.3834  -17.2696   23.1418 C   0  0  0  0  0  0  0  0  0  0  0  0
   13.5881  -17.1425   23.4017 O   0  0  0  0  0  0  0  0  0  0  0  0
   11.6902  -17.6845   27.0929 O   0  0  0  0  0  0  0  0  0  0  0  0
   12.0032  -18.1298   22.1080 O   0  0  0  0  0  0  0  0  0  0  0  0
  2  1  1  1
  2  3  1  0
  2  4  1  0
  4  6  1  0
  4  5  1  1
  6  7  2  0
  8  9  1  0
 10  9  1  6
 10 12  1  0
 11  6  1  0
 11 10  1  0
 12 13  2  0
 12 14  1  0
 14 15  1  0
 15 16  1  1
 16 17  1  0
 17 21  1  0
 18 17  2  0
 19 15  1  0
 19 22  1  0
 20 19  2  0
M  END
$$$$
