VSD.pdb
     RDKit          3D

 22 21  0  0  1  0  0  0  0  0999 V2000
    7.5630  -12.3051   20.1135 C   0  0  0  0  0  0  0  0  0  0  0  0
    8.3304  -13.2313   19.1970 C   0  0  2  0  0  0  0  0  0  0  0  0
    7.6183  -13.2868   17.8712 C   0  0  0  0  0  0  0  0  0  0  0  0
    8.5582  -14.5854   19.7916 C   0  0  2  0  0  0  0  0  0  0  0  0
    7.3129  -15.3198   19.7509 N   0  0  0  0  0  0  0  0  0  0  0  0
    9.0774  -14.5696   21.1587 C   0  0  0  0  0  0  0  0  0  0  0  0
   10.2519  -14.2014   21.4632 O   0  0  0  0  0  0  0  0  0  0  0  0
    6.8006  -16.0596   24.4146 O   0  0  0  0  0  0  0  0  0  0  0  0
    7.7955  -15.1459   24.6852 C   0  0  0  0  0  0  0  0  0  0  0  0
    8.8212  -15.2024   23.5871 C   0  0  2  0  0  0  0  0  0  0  0  0
    8.2735  -14.9804   22.2811 N   0  0  0  0  0  0  0  0  0  0  0  0
    9.5948  -16.4589   23.6881 C   0  0  0  0  0  0  0  0  0  0  0  0
    9.5675  -17.2778   22.7369 O   0  0  0  0  0  0  0  0  0  0  0  0
   10.3761  -16.7859   24.8248 N   0  0  0  0  0  0  0  0  0  0  0  0
   11.3702  -17.8092   24.8860 C   0  0  1  0  0  0  0  0  0  0  0  0
   12.3804  -17.6210   23.7864 C   0  0  0  0  0  0  0  0  0  0  0  0
   13.4374  -18.6546   23.8164 C   0  0  0  0  0  0  0  0  0  0  0  0
   13.1573  -19.8793   23.8427 O   0  0  0  0  0  0  0  0  0  0  0  0
   11.9822  -17.9517   26.2232 C   0  0  0  0  0  0  0  0  0  0  0  0
   12.3959  -16.9794   26.8701 O   0  0  0  0  0  0  0  0  0  0  0  0
   14.7607  -18.2329   23.8148 O   0  0  0  0  0  0  0  0  0  0  0  0
   12.0981  -19.2295   26.7775 O   0  0  0  0  0  0  0  0  0  0  0  0
  2  1  1  1
  2  3  1  0
  2  4  1  0
  4  6  1  0
  4  5  1  1
  6  7  2  0
  8  9  1  0
 10  9  1  1
 10 12  1  0
 11  6  1  0
 11 10  1  0
 12 13  2  0
 12 14  1  0
 14 15  1  0
 15 16  1  6
 16 17  1  0
 17 21  1  0
 18 17  2  0
 19 15  1  0
 19 22  1  0
 20 19  2  0
M  END
$$$$
