VSD.pdb
     RDKit          3D

 22 21  0  0  1  0  0  0  0  0999 V2000
    7.7104  -12.4600   20.3472 C   0  0  0  0  0  0  0  0  0  0  0  0
    8.3124  -13.4322   19.3578 C   0  0  2  0  0  0  0  0  0  0  0  0
    7.4610  -13.4357   18.1155 C   0  0  0  0  0  0  0  0  0  0  0  0
    8.5114  -14.8005   19.9298 C   0  0  2  0  0  0  0  0  0  0  0  0
    7.2164  -15.4249   20.0869 N   0  0  0  0  0  0  0  0  0  0  0  0
    9.2305  -14.8285   21.2030 C   0  0  0  0  0  0  0  0  0  0  0  0
   10.4371  -14.4639   21.3399 O   0  0  0  0  0  0  0  0  0  0  0  0
    7.4981  -16.4572   24.6528 O   0  0  0  0  0  0  0  0  0  0  0  0
    8.3367  -15.3837   24.8585 C   0  0  0  0  0  0  0  0  0  0  0  0
    9.2721  -15.2642   23.6872 C   0  0  2  0  0  0  0  0  0  0  0  0
    8.6050  -15.2823   22.4186 N   0  0  0  0  0  0  0  0  0  0  0  0
   10.3434  -16.2780   23.7962 C   0  0  0  0  0  0  0  0  0  0  0  0
   10.2092  -17.3818   23.2134 O   0  0  0  0  0  0  0  0  0  0  0  0
   11.5310  -16.0581   24.5384 N   0  0  0  0  0  0  0  0  0  0  0  0
   12.5915  -16.9986   24.7111 C   0  0  1  0  0  0  0  0  0  0  0  0
   13.9088  -16.2816   24.8357 C   0  0  0  0  0  0  0  0  0  0  0  0
   14.7866  -16.5198   23.6698 C   0  0  0  0  0  0  0  0  0  0  0  0
   15.1236  -17.6812   23.3284 O   0  0  0  0  0  0  0  0  0  0  0  0
   12.3462  -17.9636   25.8028 C   0  0  0  0  0  0  0  0  0  0  0  0
   11.4072  -17.8371   26.6010 O   0  0  0  0  0  0  0  0  0  0  0  0
   15.2333  -15.4160   22.9548 O   0  0  0  0  0  0  0  0  0  0  0  0
   13.2049  -19.0580   25.9390 O   0  0  0  0  0  0  0  0  0  0  0  0
  2  1  1  1
  2  3  1  0
  2  4  1  0
  4  6  1  0
  4  5  1  1
  6  7  2  0
  8  9  1  0
 10  9  1  1
 10 12  1  0
 11  6  1  0
 11 10  1  0
 12 13  2  0
 12 14  1  0
 14 15  1  0
 15 16  1  1
 16 17  1  0
 17 21  1  0
 18 17  2  0
 19 15  1  0
 19 22  1  0
 20 19  2  0
M  END
$$$$
