VSD.pdb
     RDKit          3D

 22 21  0  0  1  0  0  0  0  0999 V2000
    8.9541  -18.9075   18.4427 C   0  0  0  0  0  0  0  0  0  0  0  0
    7.5907  -18.2797   18.2595 C   0  0  2  0  0  0  0  0  0  0  0  0
    6.9635  -18.8572   17.0181 C   0  0  0  0  0  0  0  0  0  0  0  0
    7.6326  -16.7840   18.2476 C   0  0  2  0  0  0  0  0  0  0  0  0
    8.2908  -16.3531   17.0340 N   0  0  0  0  0  0  0  0  0  0  0  0
    8.2932  -16.1850   19.4067 C   0  0  0  0  0  0  0  0  0  0  0  0
    9.5501  -16.0577   19.5148 O   0  0  0  0  0  0  0  0  0  0  0  0
    7.9274  -14.0719   23.7651 O   0  0  0  0  0  0  0  0  0  0  0  0
    7.2146  -14.5905   22.7064 C   0  0  0  0  0  0  0  0  0  0  0  0
    8.1739  -15.2187   21.7337 C   0  0  2  0  0  0  0  0  0  0  0  0
    7.5462  -15.6860   20.5327 N   0  0  0  0  0  0  0  0  0  0  0  0
    8.9706  -16.2603   22.4176 C   0  0  0  0  0  0  0  0  0  0  0  0
    8.5210  -17.4301   22.4928 O   0  0  0  0  0  0  0  0  0  0  0  0
   10.2355  -15.9955   23.0001 N   0  0  0  0  0  0  0  0  0  0  0  0
   11.0001  -16.9121   23.7839 C   0  0  1  0  0  0  0  0  0  0  0  0
   12.4655  -16.5825   23.6895 C   0  0  0  0  0  0  0  0  0  0  0  0
   12.9606  -16.6332   22.2970 C   0  0  0  0  0  0  0  0  0  0  0  0
   13.4251  -15.6137   21.7280 O   0  0  0  0  0  0  0  0  0  0  0  0
   10.5179  -17.0369   25.1749 C   0  0  0  0  0  0  0  0  0  0  0  0
    9.6349  -16.3021   25.6390 O   0  0  0  0  0  0  0  0  0  0  0  0
   12.8984  -17.8487   21.6278 O   0  0  0  0  0  0  0  0  0  0  0  0
   11.0786  -18.0193   25.9959 O   0  0  0  0  0  0  0  0  0  0  0  0
  2  1  1  6
  2  3  1  0
  2  4  1  0
  4  6  1  0
  4  5  1  6
  6  7  2  0
  8  9  1  0
 10  9  1  1
 10 12  1  0
 11  6  1  0
 11 10  1  0
 12 13  2  0
 12 14  1  0
 14 15  1  0
 15 16  1  1
 16 17  1  0
 17 21  1  0
 18 17  2  0
 19 15  1  0
 19 22  1  0
 20 19  2  0
M  END
$$$$
