VSD.pdb
     RDKit          3D

 22 21  0  0  1  0  0  0  0  0999 V2000
    9.2694  -15.9399   18.0666 C   0  0  0  0  0  0  0  0  0  0  0  0
    7.8374  -15.5172   18.3054 C   0  0  2  0  0  0  0  0  0  0  0  0
    7.1106  -15.5304   16.9864 C   0  0  0  0  0  0  0  0  0  0  0  0
    7.7259  -14.2059   19.0174 C   0  0  2  0  0  0  0  0  0  0  0  0
    8.1803  -13.1605   18.1273 N   0  0  0  0  0  0  0  0  0  0  0  0
    8.4620  -14.1345   20.2791 C   0  0  0  0  0  0  0  0  0  0  0  0
    9.6712  -13.7641   20.3704 O   0  0  0  0  0  0  0  0  0  0  0  0
    6.6495  -15.1238   23.9587 O   0  0  0  0  0  0  0  0  0  0  0  0
    7.6718  -14.2005   23.9684 C   0  0  0  0  0  0  0  0  0  0  0  0
    8.5608  -14.4446   22.7805 C   0  0  2  0  0  0  0  0  0  0  0  0
    7.8520  -14.4876   21.5353 N   0  0  0  0  0  0  0  0  0  0  0  0
    9.3955  -15.6424   23.0170 C   0  0  0  0  0  0  0  0  0  0  0  0
    9.0252  -16.7517   22.5605 O   0  0  0  0  0  0  0  0  0  0  0  0
   10.6107  -15.5953   23.7453 N   0  0  0  0  0  0  0  0  0  0  0  0
   11.4004  -16.7238   24.1221 C   0  0  1  0  0  0  0  0  0  0  0  0
   12.8342  -16.3129   24.3231 C   0  0  0  0  0  0  0  0  0  0  0  0
   13.5456  -16.1232   23.0407 C   0  0  0  0  0  0  0  0  0  0  0  0
   13.0433  -16.4943   21.9503 O   0  0  0  0  0  0  0  0  0  0  0  0
   10.8417  -17.4734   25.2662 C   0  0  0  0  0  0  0  0  0  0  0  0
    9.9993  -16.9842   26.0317 O   0  0  0  0  0  0  0  0  0  0  0  0
   14.7954  -15.5181   23.0728 O   0  0  0  0  0  0  0  0  0  0  0  0
   11.2800  -18.7813   25.4922 O   0  0  0  0  0  0  0  0  0  0  0  0
  2  1  1  6
  2  3  1  0
  2  4  1  0
  4  6  1  0
  4  5  1  6
  6  7  2  0
  8  9  1  0
 10  9  1  1
 10 12  1  0
 11  6  1  0
 11 10  1  0
 12 13  2  0
 12 14  1  0
 14 15  1  0
 15 16  1  1
 16 17  1  0
 17 21  1  0
 18 17  2  0
 19 15  1  0
 19 22  1  0
 20 19  2  0
M  END
$$$$
