VSD.pdb
     RDKit          3D

 22 21  0  0  1  0  0  0  0  0999 V2000
    5.4919  -12.4531   25.2669 C   0  0  0  0  0  0  0  0  0  0  0  0
    6.3952  -12.5373   26.4766 C   0  0  2  0  0  0  0  0  0  0  0  0
    6.3560  -11.2133   27.1933 C   0  0  0  0  0  0  0  0  0  0  0  0
    7.7859  -12.9742   26.1384 C   0  0  2  0  0  0  0  0  0  0  0  0
    8.3764  -11.9872   25.2617 N   0  0  0  0  0  0  0  0  0  0  0  0
    7.8745  -14.2977   25.5224 C   0  0  0  0  0  0  0  0  0  0  0  0
    7.6250  -15.3792   26.1353 O   0  0  0  0  0  0  0  0  0  0  0  0
    9.3705  -14.8523   21.5887 O   0  0  0  0  0  0  0  0  0  0  0  0
    8.4247  -15.7415   22.0497 C   0  0  0  0  0  0  0  0  0  0  0  0
    8.4638  -15.7593   23.5528 C   0  0  2  0  0  0  0  0  0  0  0  0
    8.2600  -14.4700   24.1453 N   0  0  0  0  0  0  0  0  0  0  0  0
    9.7026  -16.4227   24.0140 C   0  0  0  0  0  0  0  0  0  0  0  0
   10.4846  -15.8056   24.7780 O   0  0  0  0  0  0  0  0  0  0  0  0
   10.0526  -17.7410   23.6280 N   0  0  0  0  0  0  0  0  0  0  0  0
   10.8948  -18.6287   24.3641 C   0  0  1  0  0  0  0  0  0  0  0  0
   10.4107  -18.7490   25.7840 C   0  0  0  0  0  0  0  0  0  0  0  0
   11.2770  -19.6300   26.5964 C   0  0  0  0  0  0  0  0  0  0  0  0
   12.2672  -20.2197   26.0957 O   0  0  0  0  0  0  0  0  0  0  0  0
   11.0904  -19.9345   23.7011 C   0  0  0  0  0  0  0  0  0  0  0  0
   12.2068  -20.3364   23.3445 O   0  0  0  0  0  0  0  0  0  0  0  0
   10.9649  -19.7906   27.9402 O   0  0  0  0  0  0  0  0  0  0  0  0
    9.9756  -20.7447   23.4682 O   0  0  0  0  0  0  0  0  0  0  0  0
  2  1  1  6
  2  3  1  0
  2  4  1  0
  4  6  1  0
  4  5  1  6
  6  7  2  0
  8  9  1  0
 10  9  1  6
 10 12  1  0
 11  6  1  0
 11 10  1  0
 12 13  2  0
 12 14  1  0
 14 15  1  0
 15 16  1  1
 16 17  1  0
 17 21  1  0
 18 17  2  0
 19 15  1  0
 19 22  1  0
 20 19  2  0
M  END
$$$$
