VSD.pdb
     RDKit          3D

 22 21  0  0  1  0  0  0  0  0999 V2000
    6.6171  -13.3539   18.5483 C   0  0  0  0  0  0  0  0  0  0  0  0
    7.4244  -13.3307   19.8267 C   0  0  2  0  0  0  0  0  0  0  0  0
    8.3948  -12.1811   19.7563 C   0  0  0  0  0  0  0  0  0  0  0  0
    8.0917  -14.6374   20.1206 C   0  0  2  0  0  0  0  0  0  0  0  0
    7.0781  -15.6675   20.1774 N   0  0  0  0  0  0  0  0  0  0  0  0
    8.8814  -14.6536   21.3514 C   0  0  0  0  0  0  0  0  0  0  0  0
    9.9488  -13.9889   21.5136 O   0  0  0  0  0  0  0  0  0  0  0  0
    7.8824  -17.1083   24.6813 O   0  0  0  0  0  0  0  0  0  0  0  0
    8.4288  -15.8647   24.9114 C   0  0  0  0  0  0  0  0  0  0  0  0
    9.2434  -15.4608   23.7137 C   0  0  2  0  0  0  0  0  0  0  0  0
    8.4938  -15.4434   22.4920 N   0  0  0  0  0  0  0  0  0  0  0  0
   10.4650  -16.2908   23.6355 C   0  0  0  0  0  0  0  0  0  0  0  0
   10.4533  -17.3416   22.9486 O   0  0  0  0  0  0  0  0  0  0  0  0
   11.6646  -15.9503   24.3095 N   0  0  0  0  0  0  0  0  0  0  0  0
   12.8517  -16.7430   24.3490 C   0  0  1  0  0  0  0  0  0  0  0  0
   14.0593  -15.8870   24.0769 C   0  0  0  0  0  0  0  0  0  0  0  0
   15.2948  -16.6893   23.9484 C   0  0  0  0  0  0  0  0  0  0  0  0
   16.3729  -16.3242   24.4807 O   0  0  0  0  0  0  0  0  0  0  0  0
   12.9746  -17.5523   25.5791 C   0  0  0  0  0  0  0  0  0  0  0  0
   12.3852  -17.2575   26.6283 O   0  0  0  0  0  0  0  0  0  0  0  0
   15.2323  -17.8684   23.2170 O   0  0  0  0  0  0  0  0  0  0  0  0
   13.7848  -18.6909   25.5573 O   0  0  0  0  0  0  0  0  0  0  0  0
  2  1  1  6
  2  3  1  0
  2  4  1  0
  4  6  1  0
  4  5  1  1
  6  7  2  0
  8  9  1  0
 10  9  1  1
 10 12  1  0
 11  6  1  0
 11 10  1  0
 12 13  2  0
 12 14  1  0
 14 15  1  0
 15 16  1  1
 16 17  1  0
 17 21  1  0
 18 17  2  0
 19 15  1  0
 19 22  1  0
 20 19  2  0
M  END
$$$$
