VSD.pdb
     RDKit          3D

 22 21  0  0  1  0  0  0  0  0999 V2000
    7.6614  -12.3017   20.2722 C   0  0  0  0  0  0  0  0  0  0  0  0
    8.4088  -13.2182   19.3299 C   0  0  2  0  0  0  0  0  0  0  0  0
    7.7349  -13.1695   17.9839 C   0  0  0  0  0  0  0  0  0  0  0  0
    8.5508  -14.6107   19.8588 C   0  0  2  0  0  0  0  0  0  0  0  0
    7.2633  -15.2649   19.7800 N   0  0  0  0  0  0  0  0  0  0  0  0
    9.0630  -14.6925   21.2262 C   0  0  0  0  0  0  0  0  0  0  0  0
   10.2401  -14.3595   21.5597 O   0  0  0  0  0  0  0  0  0  0  0  0
    6.7566  -16.3140   24.3505 O   0  0  0  0  0  0  0  0  0  0  0  0
    7.6166  -15.2913   24.6859 C   0  0  0  0  0  0  0  0  0  0  0  0
    8.7209  -15.2289   23.6671 C   0  0  2  0  0  0  0  0  0  0  0  0
    8.2485  -15.1674   22.3151 N   0  0  0  0  0  0  0  0  0  0  0  0
    9.6798  -16.3307   23.8994 C   0  0  0  0  0  0  0  0  0  0  0  0
    9.5029  -17.4330   23.3253 O   0  0  0  0  0  0  0  0  0  0  0  0
   10.8046  -16.1978   24.7518 N   0  0  0  0  0  0  0  0  0  0  0  0
   11.7921  -17.2012   24.9904 C   0  0  1  0  0  0  0  0  0  0  0  0
   13.1584  -16.5768   25.0809 C   0  0  0  0  0  0  0  0  0  0  0  0
   14.1495  -17.2771   24.2359 C   0  0  0  0  0  0  0  0  0  0  0  0
   13.8478  -18.3133   23.5924 O   0  0  0  0  0  0  0  0  0  0  0  0
   11.4726  -18.0760   26.1374 C   0  0  0  0  0  0  0  0  0  0  0  0
   11.4879  -17.6679   27.3071 O   0  0  0  0  0  0  0  0  0  0  0  0
   15.4348  -16.7549   24.1712 O   0  0  0  0  0  0  0  0  0  0  0  0
   11.1413  -19.4117   25.8931 O   0  0  0  0  0  0  0  0  0  0  0  0
  2  1  1  1
  2  3  1  0
  2  4  1  0
  4  6  1  0
  4  5  1  1
  6  7  2  0
  8  9  1  0
 10  9  1  1
 10 12  1  0
 11  6  1  0
 11 10  1  0
 12 13  2  0
 12 14  1  0
 14 15  1  0
 15 16  1  1
 16 17  1  0
 17 21  1  0
 18 17  2  0
 19 15  1  0
 19 22  1  0
 20 19  2  0
M  END
$$$$
