VSD.pdb
     RDKit          3D

 22 21  0  0  1  0  0  0  0  0999 V2000
    7.4568  -12.3860   20.2888 C   0  0  0  0  0  0  0  0  0  0  0  0
    8.3759  -13.1032   19.3258 C   0  0  2  0  0  0  0  0  0  0  0  0
    7.7780  -13.0207   17.9460 C   0  0  0  0  0  0  0  0  0  0  0  0
    8.6806  -14.5072   19.7442 C   0  0  2  0  0  0  0  0  0  0  0  0
    7.5070  -15.3200   19.5122 N   0  0  0  0  0  0  0  0  0  0  0  0
    9.1111  -14.6474   21.1348 C   0  0  0  0  0  0  0  0  0  0  0  0
   10.2272  -14.2350   21.5728 O   0  0  0  0  0  0  0  0  0  0  0  0
    6.9358  -16.9989   23.8317 O   0  0  0  0  0  0  0  0  0  0  0  0
    7.6180  -15.9443   24.3977 C   0  0  0  0  0  0  0  0  0  0  0  0
    8.7226  -15.5230   23.4683 C   0  0  2  0  0  0  0  0  0  0  0  0
    8.2791  -15.2777   22.1274 N   0  0  0  0  0  0  0  0  0  0  0  0
    9.8381  -16.4910   23.5447 C   0  0  0  0  0  0  0  0  0  0  0  0
   10.2677  -17.0209   22.4908 O   0  0  0  0  0  0  0  0  0  0  0  0
   10.4531  -16.8531   24.7695 N   0  0  0  0  0  0  0  0  0  0  0  0
   11.7793  -17.3615   24.9175 C   0  0  1  0  0  0  0  0  0  0  0  0
   12.7657  -16.4502   24.2381 C   0  0  0  0  0  0  0  0  0  0  0  0
   13.8669  -17.1992   23.5955 C   0  0  0  0  0  0  0  0  0  0  0  0
   15.0647  -16.8405   23.7197 O   0  0  0  0  0  0  0  0  0  0  0  0
   12.1359  -17.6678   26.3182 C   0  0  0  0  0  0  0  0  0  0  0  0
   13.1287  -17.1758   26.8725 O   0  0  0  0  0  0  0  0  0  0  0  0
   13.5399  -18.3204   22.8438 O   0  0  0  0  0  0  0  0  0  0  0  0
   11.3235  -18.5442   27.0432 O   0  0  0  0  0  0  0  0  0  0  0  0
  2  1  1  1
  2  3  1  0
  2  4  1  0
  4  6  1  0
  4  5  1  1
  6  7  2  0
  8  9  1  0
 10  9  1  1
 10 12  1  0
 11  6  1  0
 11 10  1  0
 12 13  2  0
 12 14  1  0
 14 15  1  0
 15 16  1  1
 16 17  1  0
 17 21  1  0
 18 17  2  0
 19 15  1  0
 19 22  1  0
 20 19  2  0
M  END
$$$$
