CSP.pdb
     RDKit          3D

 20 20  0  0  1  0  0  0  0  0999 V2000
   17.0275  -12.6136  -15.9970 N   0  0  0  0  0  0  0  0  0  0  0  0
   16.9597  -11.1652  -16.0273 C   0  0  1  0  0  0  0  0  0  0  0  0
   15.8720  -10.7556  -15.0557 C   0  0  0  0  0  0  0  0  0  0  0  0
   15.8173   -8.9327  -15.0703 S   0  0  0  0  0  0  0  0  0  0  0  0
   18.2674  -10.5782  -15.6354 C   0  0  0  0  0  0  0  0  0  0  0  0
   18.8482  -11.0345  -14.6259 O   0  0  0  0  0  0  0  0  0  0  0  0
   20.1132   -8.7630  -18.2583 O   0  0  0  0  0  0  0  0  0  0  0  0
   21.0200   -9.0960  -17.2303 C   0  0  0  0  0  0  0  0  0  0  0  0
   20.1861   -8.9407  -15.9397 C   0  0  2  0  0  0  0  0  0  0  0  0
   18.8936   -9.5353  -16.3356 N   0  0  0  0  0  0  0  0  0  0  0  0
   20.0425   -7.5180  -15.6427 C   0  0  0  0  0  0  0  0  0  0  0  0
   19.1778   -6.8792  -16.3330 O   0  0  0  0  0  0  0  0  0  0  0  0
   20.7736   -6.8133  -14.6668 N   0  0  0  0  0  0  0  0  0  0  0  0
   21.8392   -7.2908  -13.8138 C   0  0  0  0  0  0  0  0  0  0  0  0
   22.7190   -6.0376  -13.7565 C   0  0  0  0  0  0  0  0  0  0  0  0
   21.6455   -5.0038  -13.4057 C   0  0  0  0  0  0  0  0  0  0  0  0
   20.5412   -5.3861  -14.3620 C   0  0  1  0  0  0  0  0  0  0  0  0
   20.7099   -4.6036  -15.6231 C   0  0  0  0  0  0  0  0  0  0  0  0
   20.2378   -3.3091  -15.7201 O   0  0  0  0  0  0  0  0  0  0  0  0
   21.2831   -5.1020  -16.6223 O   0  0  0  0  0  0  0  0  0  0  0  0
  2  5  1  0
  2  1  1  1
  3  2  1  0
  4  3  1  0
  5  6  2  0
  7  8  1  0
  9  8  1  6
 10  9  1  0
 10  5  1  0
 11 12  2  0
 11  9  1  0
 13 11  1  0
 14 13  1  0
 15 14  1  0
 16 15  1  0
 16 17  1  0
 17 18  1  6
 17 13  1  0
 18 19  1  0
 20 18  2  0
M  END
$$$$
