CSP.pdb
     RDKit          3D

 20 20  0  0  1  0  0  0  0  0999 V2000
   22.3087   -9.1499  -16.5593 N   0  0  0  0  0  0  0  0  0  0  0  0
   20.9904   -8.7583  -16.0986 C   0  0  1  0  0  0  0  0  0  0  0  0
   20.1531  -10.0193  -16.0388 C   0  0  0  0  0  0  0  0  0  0  0  0
   18.5095   -9.5266  -15.4206 S   0  0  0  0  0  0  0  0  0  0  0  0
   21.0795   -8.1186  -14.7603 C   0  0  0  0  0  0  0  0  0  0  0  0
   21.9957   -8.4761  -13.9874 O   0  0  0  0  0  0  0  0  0  0  0  0
   21.8944   -4.2665  -13.0433 O   0  0  0  0  0  0  0  0  0  0  0  0
   21.5399   -5.2319  -14.0089 C   0  0  0  0  0  0  0  0  0  0  0  0
   20.5274   -6.1352  -13.2714 C   0  0  2  0  0  0  0  0  0  0  0  0
   20.1906   -7.1304  -14.3093 N   0  0  0  0  0  0  0  0  0  0  0  0
   19.3603   -5.3344  -12.9111 C   0  0  0  0  0  0  0  0  0  0  0  0
   18.8723   -4.5967  -13.8331 O   0  0  0  0  0  0  0  0  0  0  0  0
   18.7445   -5.3188  -11.6446 N   0  0  0  0  0  0  0  0  0  0  0  0
   19.0921   -6.0712  -10.4597 C   0  0  0  0  0  0  0  0  0  0  0  0
   18.7711   -5.0333   -9.3792 C   0  0  0  0  0  0  0  0  0  0  0  0
   17.3682   -4.6293   -9.8405 C   0  0  0  0  0  0  0  0  0  0  0  0
   17.5794   -4.4671  -11.3268 C   0  0  1  0  0  0  0  0  0  0  0  0
   17.9475   -3.0463  -11.6041 C   0  0  0  0  0  0  0  0  0  0  0  0
   16.9797   -2.0619  -11.6518 O   0  0  0  0  0  0  0  0  0  0  0  0
   19.1418   -2.7135  -11.8001 O   0  0  0  0  0  0  0  0  0  0  0  0
  2  5  1  0
  2  1  1  1
  3  2  1  0
  4  3  1  0
  5  6  2  0
  7  8  1  0
  9  8  1  6
 10  9  1  0
 10  5  1  0
 11 12  2  0
 11  9  1  0
 13 11  1  0
 14 13  1  0
 15 14  1  0
 16 15  1  0
 16 17  1  0
 17 18  1  1
 17 13  1  0
 18 19  1  0
 20 18  2  0
M  END
$$$$
