CSP.pdb
     RDKit          3D

 20 20  0  0  1  0  0  0  0  0999 V2000
   16.1313  -11.9303  -14.5704 N   0  0  0  0  0  0  0  0  0  0  0  0
   16.3028  -10.7054  -15.3279 C   0  0  1  0  0  0  0  0  0  0  0  0
   15.1844   -9.7716  -14.9129 C   0  0  0  0  0  0  0  0  0  0  0  0
   13.6952  -10.3033  -15.8217 S   0  0  0  0  0  0  0  0  0  0  0  0
   17.6298  -10.1016  -15.0407 C   0  0  0  0  0  0  0  0  0  0  0  0
   18.0727  -10.1609  -13.8724 O   0  0  0  0  0  0  0  0  0  0  0  0
   21.7888   -8.7211  -16.8994 O   0  0  0  0  0  0  0  0  0  0  0  0
   20.4441   -9.0752  -17.1367 C   0  0  0  0  0  0  0  0  0  0  0  0
   19.7795   -8.9467  -15.7487 C   0  0  2  0  0  0  0  0  0  0  0  0
   18.4211   -9.4645  -16.0093 N   0  0  0  0  0  0  0  0  0  0  0  0
   19.7425   -7.5352  -15.3754 C   0  0  0  0  0  0  0  0  0  0  0  0
   18.9305   -6.7969  -16.0295 O   0  0  0  0  0  0  0  0  0  0  0  0
   20.5216   -6.9411  -14.3638 N   0  0  0  0  0  0  0  0  0  0  0  0
   21.3938   -7.5771  -13.4017 C   0  0  0  0  0  0  0  0  0  0  0  0
   22.5049   -6.5259  -13.3107 C   0  0  0  0  0  0  0  0  0  0  0  0
   21.6421   -5.2795  -13.0954 C   0  0  0  0  0  0  0  0  0  0  0  0
   20.5637   -5.4821  -14.1328 C   0  0  1  0  0  0  0  0  0  0  0  0
   20.9909   -4.8185  -15.4010 C   0  0  0  0  0  0  0  0  0  0  0  0
   21.5725   -5.5483  -16.4194 O   0  0  0  0  0  0  0  0  0  0  0  0
   20.8321   -3.5851  -15.5714 O   0  0  0  0  0  0  0  0  0  0  0  0
  2  5  1  0
  2  1  1  1
  3  2  1  0
  4  3  1  0
  5  6  2  0
  7  8  1  0
  9  8  1  6
 10  9  1  0
 10  5  1  0
 11 12  2  0
 11  9  1  0
 13 11  1  0
 14 13  1  0
 15 14  1  0
 16 15  1  0
 16 17  1  0
 17 18  1  6
 17 13  1  0
 18 19  1  0
 20 18  2  0
M  END
$$$$
