CSP.pdb
     RDKit          3D

 20 20  0  0  1  0  0  0  0  0999 V2000
   29.5704  -22.0733  -17.9192 N   0  0  0  0  0  0  0  0  0  0  0  0
   29.6763  -23.4206  -17.3929 C   0  0  1  0  0  0  0  0  0  0  0  0
   28.2700  -23.9806  -17.3320 C   0  0  0  0  0  0  0  0  0  0  0  0
   27.5060  -23.3114  -15.8172 S   0  0  0  0  0  0  0  0  0  0  0  0
   30.5392  -24.2524  -18.2714 C   0  0  0  0  0  0  0  0  0  0  0  0
   30.4878  -24.0670  -19.5074 O   0  0  0  0  0  0  0  0  0  0  0  0
   33.5898  -25.1186  -16.9698 O   0  0  0  0  0  0  0  0  0  0  0  0
   33.6880  -25.4763  -18.3308 C   0  0  0  0  0  0  0  0  0  0  0  0
   32.2927  -26.0491  -18.6621 C   0  0  2  0  0  0  0  0  0  0  0  0
   31.4141  -25.2403  -17.7933 N   0  0  0  0  0  0  0  0  0  0  0  0
   32.2609  -27.4578  -18.2781 C   0  0  0  0  0  0  0  0  0  0  0  0
   32.2117  -27.7029  -17.0252 O   0  0  0  0  0  0  0  0  0  0  0  0
   32.2782  -28.5451  -19.1730 N   0  0  0  0  0  0  0  0  0  0  0  0
   32.3218  -28.5275  -20.6183 C   0  0  0  0  0  0  0  0  0  0  0  0
   33.1991  -29.7572  -20.8753 C   0  0  0  0  0  0  0  0  0  0  0  0
   32.4696  -30.7657  -19.9837 C   0  0  0  0  0  0  0  0  0  0  0  0
   32.2591  -29.9541  -18.7279 C   0  0  1  0  0  0  0  0  0  0  0  0
   33.4223  -30.1741  -17.8170 C   0  0  0  0  0  0  0  0  0  0  0  0
   33.4659  -31.2710  -16.9786 O   0  0  0  0  0  0  0  0  0  0  0  0
   34.3856  -29.3698  -17.7915 O   0  0  0  0  0  0  0  0  0  0  0  0
  2  5  1  0
  2  1  1  6
  3  2  1  0
  4  3  1  0
  5  6  2  0
  7  8  1  0
  9  8  1  1
 10  9  1  0
 10  5  1  0
 11 12  2  0
 11  9  1  0
 13 11  1  0
 14 13  1  0
 15 14  1  0
 16 15  1  0
 16 17  1  0
 17 18  1  1
 17 13  1  0
 18 19  1  0
 20 18  2  0
M  END
$$$$
