CSP.pdb
     RDKit          3D

 20 20  0  0  1  0  0  0  0  0999 V2000
   28.3134  -18.0877  -15.9645 N   0  0  0  0  0  0  0  0  0  0  0  0
   27.4803  -17.9922  -14.7811 C   0  0  1  0  0  0  0  0  0  0  0  0
   26.3781  -17.0024  -15.0981 C   0  0  0  0  0  0  0  0  0  0  0  0
   27.0444  -15.3440  -14.7349 S   0  0  0  0  0  0  0  0  0  0  0  0
   26.9139  -19.3227  -14.4389 C   0  0  0  0  0  0  0  0  0  0  0  0
   26.7235  -20.1457  -15.3614 O   0  0  0  0  0  0  0  0  0  0  0  0
   25.3528  -19.9435  -10.8021 O   0  0  0  0  0  0  0  0  0  0  0  0
   26.0836  -21.0554  -11.2707 C   0  0  0  0  0  0  0  0  0  0  0  0
   25.9113  -20.9892  -12.8039 C   0  0  2  0  0  0  0  0  0  0  0  0
   26.5779  -19.7132  -13.1333 N   0  0  0  0  0  0  0  0  0  0  0  0
   24.4850  -20.9336  -13.1134 C   0  0  0  0  0  0  0  0  0  0  0  0
   23.8837  -19.8446  -12.8222 O   0  0  0  0  0  0  0  0  0  0  0  0
   23.7393  -21.9740  -13.7007 N   0  0  0  0  0  0  0  0  0  0  0  0
   24.1884  -23.2810  -14.1263 C   0  0  0  0  0  0  0  0  0  0  0  0
   22.9542  -24.1171  -13.7722 C   0  0  0  0  0  0  0  0  0  0  0  0
   21.8772  -23.2494  -14.4289 C   0  0  0  0  0  0  0  0  0  0  0  0
   22.2915  -21.8694  -13.9775 C   0  0  1  0  0  0  0  0  0  0  0  0
   21.5905  -21.5559  -12.6963 C   0  0  0  0  0  0  0  0  0  0  0  0
   20.2913  -21.0868  -12.6979 O   0  0  0  0  0  0  0  0  0  0  0  0
   22.1635  -21.7109  -11.5903 O   0  0  0  0  0  0  0  0  0  0  0  0
  2  5  1  0
  2  1  1  6
  3  2  1  0
  4  3  1  0
  5  6  2  0
  7  8  1  0
  9  8  1  1
 10  9  1  0
 10  5  1  0
 11 12  2  0
 11  9  1  0
 13 11  1  0
 14 13  1  0
 15 14  1  0
 16 15  1  0
 16 17  1  0
 17 18  1  1
 17 13  1  0
 18 19  1  0
 20 18  2  0
M  END
$$$$
