CSP.pdb
     RDKit          3D

 20 20  0  0  1  0  0  0  0  0999 V2000
   21.3342  -14.4982  -19.1157 N   0  0  0  0  0  0  0  0  0  0  0  0
   21.8214  -13.1904  -19.5105 C   0  0  1  0  0  0  0  0  0  0  0  0
   20.6927  -12.5070  -20.2548 C   0  0  0  0  0  0  0  0  0  0  0  0
   21.0759  -12.6507  -22.0320 S   0  0  0  0  0  0  0  0  0  0  0  0
   22.2184  -12.4039  -18.3140 C   0  0  0  0  0  0  0  0  0  0  0  0
   21.4540  -12.3960  -17.3239 O   0  0  0  0  0  0  0  0  0  0  0  0
   25.7020  -10.0206  -16.0576 O   0  0  0  0  0  0  0  0  0  0  0  0
   25.2959  -10.6802  -17.2366 C   0  0  0  0  0  0  0  0  0  0  0  0
   23.7662  -10.8156  -17.0739 C   0  0  2  0  0  0  0  0  0  0  0  0
   23.4083  -11.6643  -18.2283 N   0  0  0  0  0  0  0  0  0  0  0  0
   23.1634   -9.4902  -17.1877 C   0  0  0  0  0  0  0  0  0  0  0  0
   23.3089   -8.8956  -18.3091 O   0  0  0  0  0  0  0  0  0  0  0  0
   22.4451   -8.8336  -16.1697 N   0  0  0  0  0  0  0  0  0  0  0  0
   22.0722   -9.3265  -14.8624 C   0  0  0  0  0  0  0  0  0  0  0  0
   22.2088   -8.0399  -14.0416 C   0  0  0  0  0  0  0  0  0  0  0  0
   21.4048   -7.0942  -14.9380 C   0  0  0  0  0  0  0  0  0  0  0  0
   21.9425   -7.4503  -16.3033 C   0  0  1  0  0  0  0  0  0  0  0  0
   23.1010   -6.5578  -16.6076 C   0  0  0  0  0  0  0  0  0  0  0  0
   22.9004   -5.2796  -17.0914 O   0  0  0  0  0  0  0  0  0  0  0  0
   24.2813   -6.9466  -16.4314 O   0  0  0  0  0  0  0  0  0  0  0  0
  2  5  1  0
  2  1  1  1
  3  2  1  0
  4  3  1  0
  5  6  2  0
  7  8  1  0
  9  8  1  6
 10  9  1  0
 10  5  1  0
 11 12  2  0
 11  9  1  0
 13 11  1  0
 14 13  1  0
 15 14  1  0
 16 15  1  0
 16 17  1  0
 17 18  1  1
 17 13  1  0
 18 19  1  0
 20 18  2  0
M  END
$$$$
