CSP.pdb
     RDKit          3D

 20 20  0  0  1  0  0  0  0  0999 V2000
   24.8545  -23.8475  -12.4877 N   0  0  0  0  0  0  0  0  0  0  0  0
   24.5587  -22.4288  -12.5442 C   0  0  1  0  0  0  0  0  0  0  0  0
   25.1381  -21.8086  -11.2894 C   0  0  0  0  0  0  0  0  0  0  0  0
   24.0234  -20.4444  -10.8177 S   0  0  0  0  0  0  0  0  0  0  0  0
   25.1610  -21.8231  -13.7601 C   0  0  0  0  0  0  0  0  0  0  0  0
   26.3832  -21.9904  -13.9677 O   0  0  0  0  0  0  0  0  0  0  0  0
   24.3915  -20.3855  -18.1903 O   0  0  0  0  0  0  0  0  0  0  0  0
   23.8353  -20.7306  -16.9408 C   0  0  0  0  0  0  0  0  0  0  0  0
   25.0086  -20.5492  -15.9532 C   0  0  2  0  0  0  0  0  0  0  0  0
   24.4351  -21.0696  -14.6957 N   0  0  0  0  0  0  0  0  0  0  0  0
   25.3130  -19.1250  -15.8434 C   0  0  0  0  0  0  0  0  0  0  0  0
   24.3749  -18.3769  -15.4046 O   0  0  0  0  0  0  0  0  0  0  0  0
   26.5440  -18.5285  -16.1785 N   0  0  0  0  0  0  0  0  0  0  0  0
   27.7987  -19.1665  -16.5097 C   0  0  0  0  0  0  0  0  0  0  0  0
   28.3235  -18.1923  -17.5695 C   0  0  0  0  0  0  0  0  0  0  0  0
   28.1259  -16.8780  -16.8094 C   0  0  0  0  0  0  0  0  0  0  0  0
   26.7363  -17.0650  -16.2490 C   0  0  1  0  0  0  0  0  0  0  0  0
   25.7501  -16.5087  -17.2232 C   0  0  0  0  0  0  0  0  0  0  0  0
   25.4058  -15.1713  -17.1946 O   0  0  0  0  0  0  0  0  0  0  0  0
   25.2120  -17.2411  -18.0890 O   0  0  0  0  0  0  0  0  0  0  0  0
  2  5  1  0
  2  1  1  1
  3  2  1  0
  4  3  1  0
  5  6  2  0
  7  8  1  0
  9  8  1  6
 10  9  1  0
 10  5  1  0
 11 12  2  0
 11  9  1  0
 13 11  1  0
 14 13  1  0
 15 14  1  0
 16 15  1  0
 16 17  1  0
 17 18  1  6
 17 13  1  0
 18 19  1  0
 20 18  2  0
M  END
$$$$
