CSP.pdb
     RDKit          3D

 20 20  0  0  1  0  0  0  0  0999 V2000
   16.3053  -13.5777  -17.6225 N   0  0  0  0  0  0  0  0  0  0  0  0
   16.8542  -12.2947  -18.0176 C   0  0  1  0  0  0  0  0  0  0  0  0
   15.9454  -11.2304  -17.4380 C   0  0  0  0  0  0  0  0  0  0  0  0
   15.9453  -11.4709  -15.6301 S   0  0  0  0  0  0  0  0  0  0  0  0
   18.2400  -12.1447  -17.5026 C   0  0  0  0  0  0  0  0  0  0  0  0
   18.5790  -12.8091  -16.4984 O   0  0  0  0  0  0  0  0  0  0  0  0
   22.6490  -10.4595  -18.3273 O   0  0  0  0  0  0  0  0  0  0  0  0
   21.3027  -10.4976  -18.7470 C   0  0  0  0  0  0  0  0  0  0  0  0
   20.5576  -11.1039  -17.5378 C   0  0  2  0  0  0  0  0  0  0  0  0
   19.1973  -11.2960  -18.0799 N   0  0  0  0  0  0  0  0  0  0  0  0
   20.5584  -10.1295  -16.4499 C   0  0  0  0  0  0  0  0  0  0  0  0
   19.7779   -9.1272  -16.5860 O   0  0  0  0  0  0  0  0  0  0  0  0
   21.3415  -10.2149  -15.2825 N   0  0  0  0  0  0  0  0  0  0  0  0
   22.2670  -11.2531  -14.8872 C   0  0  0  0  0  0  0  0  0  0  0  0
   23.3357  -10.4075  -14.1869 C   0  0  0  0  0  0  0  0  0  0  0  0
   22.4287   -9.5792  -13.2729 C   0  0  0  0  0  0  0  0  0  0  0  0
   21.3297   -9.1795  -14.2282 C   0  0  1  0  0  0  0  0  0  0  0  0
   21.6918   -7.8712  -14.8515 C   0  0  0  0  0  0  0  0  0  0  0  0
   21.4471   -6.6824  -14.1920 O   0  0  0  0  0  0  0  0  0  0  0  0
   22.2256   -7.8207  -15.9864 O   0  0  0  0  0  0  0  0  0  0  0  0
  2  5  1  0
  2  1  1  1
  3  2  1  0
  4  3  1  0
  5  6  2  0
  7  8  1  0
  9  8  1  6
 10  9  1  0
 10  5  1  0
 11 12  2  0
 11  9  1  0
 13 11  1  0
 14 13  1  0
 15 14  1  0
 16 15  1  0
 16 17  1  0
 17 18  1  6
 17 13  1  0
 18 19  1  0
 20 18  2  0
M  END
$$$$
