CSP.pdb
     RDKit          3D

 20 20  0  0  1  0  0  0  0  0999 V2000
   24.4008  -12.8014  -18.3259 N   0  0  0  0  0  0  0  0  0  0  0  0
   24.0049  -12.0887  -17.1264 C   0  0  1  0  0  0  0  0  0  0  0  0
   25.1780  -12.1520  -16.1700 C   0  0  0  0  0  0  0  0  0  0  0  0
   25.2166  -13.8484  -15.5015 S   0  0  0  0  0  0  0  0  0  0  0  0
   23.6630  -10.6796  -17.4514 C   0  0  0  0  0  0  0  0  0  0  0  0
   24.4219  -10.0417  -18.2141 O   0  0  0  0  0  0  0  0  0  0  0  0
   20.2284   -9.6557  -16.4974 O   0  0  0  0  0  0  0  0  0  0  0  0
   20.6244   -8.7730  -17.5240 C   0  0  0  0  0  0  0  0  0  0  0  0
   22.1506   -8.6417  -17.3278 C   0  0  2  0  0  0  0  0  0  0  0  0
   22.5313  -10.0177  -16.9501 N   0  0  0  0  0  0  0  0  0  0  0  0
   22.4040   -7.7063  -16.2352 C   0  0  0  0  0  0  0  0  0  0  0  0
   22.2291   -8.1557  -15.0521 O   0  0  0  0  0  0  0  0  0  0  0  0
   22.8215   -6.3701  -16.3891 N   0  0  0  0  0  0  0  0  0  0  0  0
   23.1480   -5.6580  -17.6046 C   0  0  0  0  0  0  0  0  0  0  0  0
   22.6132   -4.2661  -17.2519 C   0  0  0  0  0  0  0  0  0  0  0  0
   23.2652   -4.0973  -15.8769 C   0  0  0  0  0  0  0  0  0  0  0  0
   22.9900   -5.4434  -15.2505 C   0  0  1  0  0  0  0  0  0  0  0  0
   21.6946   -5.3693  -14.5104 C   0  0  0  0  0  0  0  0  0  0  0  0
   21.6475   -4.8956  -13.2137 O   0  0  0  0  0  0  0  0  0  0  0  0
   20.6205   -5.7347  -15.0475 O   0  0  0  0  0  0  0  0  0  0  0  0
  2  5  1  0
  2  1  1  6
  3  2  1  0
  4  3  1  0
  5  6  2  0
  7  8  1  0
  9  8  1  1
 10  9  1  0
 10  5  1  0
 11 12  2  0
 11  9  1  0
 13 11  1  0
 14 13  1  0
 15 14  1  0
 16 15  1  0
 16 17  1  0
 17 18  1  6
 17 13  1  0
 18 19  1  0
 20 18  2  0
M  END
$$$$
