CSP.pdb
     RDKit          3D

 20 20  0  0  1  0  0  0  0  0999 V2000
   18.9255  -12.6811  -16.0705 N   0  0  0  0  0  0  0  0  0  0  0  0
   20.3537  -12.8105  -16.2872 C   0  0  1  0  0  0  0  0  0  0  0  0
   20.5347  -13.6527  -17.5332 C   0  0  0  0  0  0  0  0  0  0  0  0
   22.2740  -14.2015  -17.5452 S   0  0  0  0  0  0  0  0  0  0  0  0
   20.9737  -11.4711  -16.4595 C   0  0  0  0  0  0  0  0  0  0  0  0
   22.2215  -11.3908  -16.4946 O   0  0  0  0  0  0  0  0  0  0  0  0
   20.8181   -8.8872  -19.0846 O   0  0  0  0  0  0  0  0  0  0  0  0
   20.0853   -8.4005  -17.9819 C   0  0  0  0  0  0  0  0  0  0  0  0
   20.8515   -8.9510  -16.7593 C   0  0  2  0  0  0  0  0  0  0  0  0
   20.2374  -10.2829  -16.5860 N   0  0  0  0  0  0  0  0  0  0  0  0
   20.5794   -8.0920  -15.6098 C   0  0  0  0  0  0  0  0  0  0  0  0
   19.4186   -8.1961  -15.0864 O   0  0  0  0  0  0  0  0  0  0  0  0
   21.4884   -7.1757  -15.0463 N   0  0  0  0  0  0  0  0  0  0  0  0
   22.8596   -6.9129  -15.4230 C   0  0  0  0  0  0  0  0  0  0  0  0
   22.9222   -5.4028  -15.1715 C   0  0  0  0  0  0  0  0  0  0  0  0
   22.3267   -5.3671  -13.7615 C   0  0  0  0  0  0  0  0  0  0  0  0
   21.1409   -6.2890  -13.9164 C   0  0  1  0  0  0  0  0  0  0  0  0
   19.9514   -5.4748  -14.3078 C   0  0  0  0  0  0  0  0  0  0  0  0
   19.1321   -4.9135  -13.3476 O   0  0  0  0  0  0  0  0  0  0  0  0
   19.6683   -5.2814  -15.5152 O   0  0  0  0  0  0  0  0  0  0  0  0
  2  5  1  0
  2  1  1  6
  3  2  1  0
  4  3  1  0
  5  6  2  0
  7  8  1  0
  9  8  1  6
 10  9  1  0
 10  5  1  0
 11 12  2  0
 11  9  1  0
 13 11  1  0
 14 13  1  0
 15 14  1  0
 16 15  1  0
 16 17  1  0
 17 18  1  6
 17 13  1  0
 18 19  1  0
 20 18  2  0
M  END
$$$$
