CSP.pdb
     RDKit          3D

 20 20  0  0  1  0  0  0  0  0999 V2000
   18.4134  -14.3634  -16.5894 N   0  0  0  0  0  0  0  0  0  0  0  0
   17.8363  -13.1257  -16.1010 C   0  0  1  0  0  0  0  0  0  0  0  0
   17.5350  -13.3312  -14.6307 C   0  0  0  0  0  0  0  0  0  0  0  0
   15.9609  -14.2479  -14.5428 S   0  0  0  0  0  0  0  0  0  0  0  0
   18.7875  -12.0004  -16.2937 C   0  0  0  0  0  0  0  0  0  0  0  0
   19.9875  -12.1736  -15.9861 O   0  0  0  0  0  0  0  0  0  0  0  0
   19.6507   -7.9416  -18.6189 O   0  0  0  0  0  0  0  0  0  0  0  0
   18.6975   -8.9102  -18.2406 C   0  0  0  0  0  0  0  0  0  0  0  0
   19.3726   -9.6516  -17.0662 C   0  0  2  0  0  0  0  0  0  0  0  0
   18.4168  -10.7464  -16.8038 N   0  0  0  0  0  0  0  0  0  0  0  0
   19.4590   -8.7432  -15.9258 C   0  0  0  0  0  0  0  0  0  0  0  0
   18.3541   -8.4279  -15.3672 O   0  0  0  0  0  0  0  0  0  0  0  0
   20.6506   -8.2016  -15.4062 N   0  0  0  0  0  0  0  0  0  0  0  0
   22.0042   -8.3626  -15.8890 C   0  0  0  0  0  0  0  0  0  0  0  0
   22.5656   -6.9702  -15.5828 C   0  0  0  0  0  0  0  0  0  0  0  0
   22.1117   -6.8409  -14.1263 C   0  0  0  0  0  0  0  0  0  0  0  0
   20.6850   -7.3272  -14.2155 C   0  0  1  0  0  0  0  0  0  0  0  0
   19.7960   -6.1540  -14.4693 C   0  0  0  0  0  0  0  0  0  0  0  0
   19.3951   -5.8354  -15.7522 O   0  0  0  0  0  0  0  0  0  0  0  0
   19.3929   -5.4312  -13.5255 O   0  0  0  0  0  0  0  0  0  0  0  0
  2  5  1  0
  2  1  1  1
  3  2  1  0
  4  3  1  0
  5  6  2  0
  7  8  1  0
  9  8  1  6
 10  9  1  0
 10  5  1  0
 11 12  2  0
 11  9  1  0
 13 11  1  0
 14 13  1  0
 15 14  1  0
 16 15  1  0
 16 17  1  0
 17 18  1  6
 17 13  1  0
 18 19  1  0
 20 18  2  0
M  END
$$$$
