QHC.pdb
     RDKit          3D

 26 26  0  0  1  0  0  0  0  0999 V2000
   19.2661  -15.5027  -14.9649 N   0  0  0  0  0  0  0  0  0  0  0  0
   18.5361  -15.2720  -16.1665 C   0  0  0  0  0  0  0  0  0  0  0  0
   17.8937  -16.2318  -16.6316 O   0  0  0  0  0  0  0  0  0  0  0  0
   18.5897  -13.9302  -16.7670 C   0  0  0  0  0  0  0  0  0  0  0  0
   19.4203  -13.0181  -15.9374 C   0  0  0  0  0  0  0  0  0  0  0  0
   19.5349  -11.6775  -16.5694 C   0  0  2  0  0  0  0  0  0  0  0  0
   20.0787  -11.7497  -17.9122 N   0  0  0  0  0  0  0  0  0  0  0  0
   20.4506  -10.8622  -15.6892 C   0  0  0  0  0  0  0  0  0  0  0  0
   20.1294  -10.7474  -14.4813 O   0  0  0  0  0  0  0  0  0  0  0  0
   21.6193  -10.2433  -16.1625 N   0  0  0  0  0  0  0  0  0  0  0  0
   22.4353   -9.4867  -15.2320 C   0  0  1  0  0  0  0  0  0  0  0  0
   23.8789   -9.6898  -15.5900 C   0  0  0  0  0  0  0  0  0  0  0  0
   24.2461  -11.1285  -15.4152 C   0  0  0  0  0  0  0  0  0  0  0  0
   23.3694  -12.1147  -15.0101 C   0  0  0  0  0  0  0  0  0  0  0  0
   24.0659  -13.2686  -14.9716 N   0  0  0  0  0  0  0  0  0  0  0  0
   25.3311  -13.0509  -15.3320 C   0  0  0  0  0  0  0  0  0  0  0  0
   25.4306  -11.7296  -15.6029 N   0  0  0  0  0  0  0  0  0  0  0  0
   22.0596   -8.0311  -15.3112 C   0  0  0  0  0  0  0  0  0  0  0  0
   22.6334   -7.1527  -14.6220 O   0  0  0  0  0  0  0  0  0  0  0  0
   21.0270   -7.6095  -16.1847 N   0  0  0  0  0  0  0  0  0  0  0  0
   20.6921   -6.2034  -16.2332 C   0  0  1  0  0  0  0  0  0  0  0  0
   20.5307   -5.8017  -17.6839 C   0  0  0  0  0  0  0  0  0  0  0  0
   19.8241   -4.1369  -17.8379 S   0  0  0  0  0  0  0  0  0  0  0  0
   19.4252   -6.0253  -15.4778 C   0  0  0  0  0  0  0  0  0  0  0  0
   18.4836   -6.8460  -15.5323 O   0  0  0  0  0  0  0  0  0  0  0  0
   19.2648   -4.9075  -14.6743 O   0  0  0  0  0  0  0  0  0  0  0  0
  2  1  1  0
  2  4  1  0
  3  2  2  0
  5  4  1  0
  5  6  1  0
  6  8  1  0
  6  7  1  6
  8 10  1  0
  9  8  2  0
 10 11  1  0
 11 18  1  0
 11 12  1  6
 13 12  1  0
 13 14  2  0
 15 14  1  0
 16 17  2  0
 16 15  1  0
 17 13  1  0
 18 20  1  0
 19 18  2  0
 20 21  1  0
 21 24  1  0
 21 22  1  6
 22 23  1  0
 24 25  2  0
 24 26  1  0
M  END
$$$$
