QHC.pdb
     RDKit          3D

 26 26  0  0  1  0  0  0  0  0999 V2000
   18.5928  -13.3335  -15.9629 N   0  0  0  0  0  0  0  0  0  0  0  0
   18.8578  -14.2097  -17.0547 C   0  0  0  0  0  0  0  0  0  0  0  0
   17.9609  -15.0160  -17.3640 O   0  0  0  0  0  0  0  0  0  0  0  0
   20.1577  -14.1012  -17.7348 C   0  0  0  0  0  0  0  0  0  0  0  0
   20.9590  -12.9895  -17.1585 C   0  0  0  0  0  0  0  0  0  0  0  0
   22.2405  -12.8190  -17.8922 C   0  0  2  0  0  0  0  0  0  0  0  0
   23.1211  -13.9600  -17.7288 N   0  0  0  0  0  0  0  0  0  0  0  0
   22.8971  -11.5809  -17.3320 C   0  0  0  0  0  0  0  0  0  0  0  0
   23.6837  -11.7381  -16.3667 O   0  0  0  0  0  0  0  0  0  0  0  0
   22.6647  -10.2922  -17.8402 N   0  0  0  0  0  0  0  0  0  0  0  0
   23.2970   -9.1601  -17.1901 C   0  0  1  0  0  0  0  0  0  0  0  0
   24.4221   -8.6787  -18.0596 C   0  0  0  0  0  0  0  0  0  0  0  0
   25.5841   -9.6127  -17.9470 C   0  0  0  0  0  0  0  0  0  0  0  0
   26.5113   -9.5861  -16.9248 C   0  0  0  0  0  0  0  0  0  0  0  0
   27.3967  -10.5726  -17.1711 N   0  0  0  0  0  0  0  0  0  0  0  0
   27.0679  -11.2118  -18.2942 C   0  0  0  0  0  0  0  0  0  0  0  0
   25.9502  -10.6122  -18.7634 N   0  0  0  0  0  0  0  0  0  0  0  0
   22.2760   -8.0743  -16.9788 C   0  0  0  0  0  0  0  0  0  0  0  0
   21.3425   -7.8652  -17.7916 O   0  0  0  0  0  0  0  0  0  0  0  0
   22.3464   -7.2449  -15.8324 N   0  0  0  0  0  0  0  0  0  0  0  0
   21.3406   -6.2209  -15.6557 C   0  0  1  0  0  0  0  0  0  0  0  0
   20.9164   -6.2151  -14.2025 C   0  0  0  0  0  0  0  0  0  0  0  0
   20.0753   -7.7584  -13.7495 S   0  0  0  0  0  0  0  0  0  0  0  0
   21.9562   -4.9260  -16.0453 C   0  0  0  0  0  0  0  0  0  0  0  0
   23.1477   -4.8257  -16.4106 O   0  0  0  0  0  0  0  0  0  0  0  0
   21.1907   -3.7713  -16.0075 O   0  0  0  0  0  0  0  0  0  0  0  0
  2  1  1  0
  2  4  1  0
  3  2  2  0
  5  4  1  0
  5  6  1  0
  6  8  1  0
  6  7  1  1
  8 10  1  0
  9  8  2  0
 10 11  1  0
 11 18  1  0
 11 12  1  6
 13 12  1  0
 13 14  2  0
 15 14  1  0
 16 17  2  0
 16 15  1  0
 17 13  1  0
 18 20  1  0
 19 18  2  0
 20 21  1  0
 21 24  1  0
 21 22  1  1
 22 23  1  0
 24 25  2  0
 24 26  1  0
M  END
$$$$
