QHC.pdb
     RDKit          3D

 26 26  0  0  1  0  0  0  0  0999 V2000
   20.7461  -13.0803  -19.3515 N   0  0  0  0  0  0  0  0  0  0  0  0
   22.0670  -12.5468  -19.3787 C   0  0  0  0  0  0  0  0  0  0  0  0
   22.9378  -13.2208  -19.9598 O   0  0  0  0  0  0  0  0  0  0  0  0
   22.3076  -11.2501  -18.7271 C   0  0  0  0  0  0  0  0  0  0  0  0
   21.0537  -10.7262  -18.1243 C   0  0  0  0  0  0  0  0  0  0  0  0
   21.0983  -10.8113  -16.6410 C   0  0  2  0  0  0  0  0  0  0  0  0
   20.4752  -12.0228  -16.1429 N   0  0  0  0  0  0  0  0  0  0  0  0
   20.3605   -9.6034  -16.1170 C   0  0  0  0  0  0  0  0  0  0  0  0
   19.3662   -9.2111  -16.7749 O   0  0  0  0  0  0  0  0  0  0  0  0
   20.7382   -8.9205  -14.9491 N   0  0  0  0  0  0  0  0  0  0  0  0
   19.9350   -7.7968  -14.5059 C   0  0  1  0  0  0  0  0  0  0  0  0
   19.9518   -7.7615  -13.0053 C   0  0  0  0  0  0  0  0  0  0  0  0
   18.8228   -8.5806  -12.4671 C   0  0  0  0  0  0  0  0  0  0  0  0
   17.9384   -9.2991  -13.2461 C   0  0  0  0  0  0  0  0  0  0  0  0
   17.0723   -9.9001  -12.4056 N   0  0  0  0  0  0  0  0  0  0  0  0
   17.3724   -9.5924  -11.1433 C   0  0  0  0  0  0  0  0  0  0  0  0
   18.4521   -8.7794  -11.1933 N   0  0  0  0  0  0  0  0  0  0  0  0
   20.4986   -6.5252  -15.0817 C   0  0  0  0  0  0  0  0  0  0  0  0
   21.7061   -6.2079  -14.9504 O   0  0  0  0  0  0  0  0  0  0  0  0
   19.6610   -5.6375  -15.8010 N   0  0  0  0  0  0  0  0  0  0  0  0
   20.2521   -4.4635  -16.4043 C   0  0  1  0  0  0  0  0  0  0  0  0
   20.1226   -4.5838  -17.9079 C   0  0  0  0  0  0  0  0  0  0  0  0
   20.6186   -3.0504  -18.7425 S   0  0  0  0  0  0  0  0  0  0  0  0
   19.5115   -3.2827  -15.8897 C   0  0  0  0  0  0  0  0  0  0  0  0
   18.2874   -3.3090  -15.6368 O   0  0  0  0  0  0  0  0  0  0  0  0
   20.1920   -2.0945  -15.6758 O   0  0  0  0  0  0  0  0  0  0  0  0
  2  1  1  0
  2  4  1  0
  3  2  2  0
  5  4  1  0
  5  6  1  0
  6  8  1  0
  6  7  1  6
  8 10  1  0
  9  8  2  0
 10 11  1  0
 11 18  1  0
 11 12  1  1
 13 12  1  0
 13 14  2  0
 15 14  1  0
 16 17  2  0
 16 15  1  0
 17 13  1  0
 18 20  1  0
 19 18  2  0
 20 21  1  0
 21 24  1  0
 21 22  1  6
 22 23  1  0
 24 25  2  0
 24 26  1  0
M  END
$$$$
