QHC.pdb
     RDKit          3D

 26 26  0  0  1  0  0  0  0  0999 V2000
   26.4587  -33.7596   -2.7664 N   0  0  0  0  0  0  0  0  0  0  0  0
   26.4958  -32.9004   -3.9024 C   0  0  0  0  0  0  0  0  0  0  0  0
   25.9777  -31.7751   -3.7780 O   0  0  0  0  0  0  0  0  0  0  0  0
   27.1381  -33.3960   -5.1294 C   0  0  0  0  0  0  0  0  0  0  0  0
   27.6265  -34.7872   -4.9397 C   0  0  0  0  0  0  0  0  0  0  0  0
   29.1103  -34.8460   -5.0076 C   0  0  2  0  0  0  0  0  0  0  0  0
   29.5764  -35.6156   -6.1454 N   0  0  0  0  0  0  0  0  0  0  0  0
   29.5757  -35.4934   -3.7261 C   0  0  0  0  0  0  0  0  0  0  0  0
   29.5095  -36.7451   -3.6612 O   0  0  0  0  0  0  0  0  0  0  0  0
   30.0677  -34.7628   -2.6319 N   0  0  0  0  0  0  0  0  0  0  0  0
   30.5015  -35.4824   -1.4495 C   0  0  1  0  0  0  0  0  0  0  0  0
   31.7651  -34.8496   -0.9434 C   0  0  0  0  0  0  0  0  0  0  0  0
   32.9479  -35.4855   -1.6005 C   0  0  0  0  0  0  0  0  0  0  0  0
   32.8749  -36.5379   -2.4905 C   0  0  0  0  0  0  0  0  0  0  0  0
   34.1384  -36.8283   -2.8608 N   0  0  0  0  0  0  0  0  0  0  0  0
   34.9940  -36.0104   -2.2468 C   0  0  0  0  0  0  0  0  0  0  0  0
   34.2498  -35.1877   -1.4733 N   0  0  0  0  0  0  0  0  0  0  0  0
   29.4159  -35.4272   -0.4079 C   0  0  0  0  0  0  0  0  0  0  0  0
   28.8186  -34.3616   -0.1187 O   0  0  0  0  0  0  0  0  0  0  0  0
   29.0348  -36.6024    0.2853 N   0  0  0  0  0  0  0  0  0  0  0  0
   27.9757  -36.5150    1.2663 C   0  0  1  0  0  0  0  0  0  0  0  0
   26.7479  -37.1996    0.7042 C   0  0  0  0  0  0  0  0  0  0  0  0
   25.2591  -36.7780    1.6530 S   0  0  0  0  0  0  0  0  0  0  0  0
   28.4577  -37.1928    2.4974 C   0  0  0  0  0  0  0  0  0  0  0  0
   29.4573  -37.9436    2.5096 O   0  0  0  0  0  0  0  0  0  0  0  0
   27.7816  -36.9947    3.6909 O   0  0  0  0  0  0  0  0  0  0  0  0
  2  1  1  0
  2  4  1  0
  3  2  2  0
  5  4  1  0
  5  6  1  0
  6  8  1  0
  6  7  1  6
  8 10  1  0
  9  8  2  0
 10 11  1  0
 11 18  1  0
 11 12  1  1
 13 12  1  0
 13 14  2  0
 15 14  1  0
 16 17  2  0
 16 15  1  0
 17 13  1  0
 18 20  1  0
 19 18  2  0
 20 21  1  0
 21 24  1  0
 21 22  1  6
 22 23  1  0
 24 25  2  0
 24 26  1  0
M  END
$$$$
