QHC.pdb
     RDKit          3D

 26 26  0  0  1  0  0  0  0  0999 V2000
   21.7426  -12.0510    7.2007 N   0  0  0  0  0  0  0  0  0  0  0  0
   21.1122  -11.2101    6.2386 C   0  0  0  0  0  0  0  0  0  0  0  0
   21.7035  -10.1579    5.9327 O   0  0  0  0  0  0  0  0  0  0  0  0
   19.8217  -11.6392    5.6781 C   0  0  0  0  0  0  0  0  0  0  0  0
   19.4464  -12.9814    6.1954 C   0  0  0  0  0  0  0  0  0  0  0  0
   18.2145  -13.4838    5.5323 C   0  0  2  0  0  0  0  0  0  0  0  0
   17.0333  -12.7479    5.9414 N   0  0  0  0  0  0  0  0  0  0  0  0
   18.0749  -14.9348    5.9234 C   0  0  0  0  0  0  0  0  0  0  0  0
   17.4438  -15.1840    6.9794 O   0  0  0  0  0  0  0  0  0  0  0  0
   18.6127  -15.9888    5.1666 N   0  0  0  0  0  0  0  0  0  0  0  0
   18.5097  -17.3415    5.6802 C   0  0  1  0  0  0  0  0  0  0  0  0
   18.3765  -18.2832    4.5188 C   0  0  0  0  0  0  0  0  0  0  0  0
   16.9434  -18.3742    4.1027 C   0  0  0  0  0  0  0  0  0  0  0  0
   15.9021  -17.7326    4.7425 C   0  0  0  0  0  0  0  0  0  0  0  0
   14.7737  -18.0563    4.0793 N   0  0  0  0  0  0  0  0  0  0  0  0
   15.0595  -18.8664    3.0595 C   0  0  0  0  0  0  0  0  0  0  0  0
   16.3984  -19.0554    3.0837 N   0  0  0  0  0  0  0  0  0  0  0  0
   19.7356  -17.6588    6.4941 C   0  0  0  0  0  0  0  0  0  0  0  0
   20.8906  -17.3439    6.1162 O   0  0  0  0  0  0  0  0  0  0  0  0
   19.6117  -18.3351    7.7328 N   0  0  0  0  0  0  0  0  0  0  0  0
   20.8045  -18.5684    8.5167 C   0  0  1  0  0  0  0  0  0  0  0  0
   21.3558  -17.2285    8.9559 C   0  0  0  0  0  0  0  0  0  0  0  0
   22.7464  -17.4265   10.1054 S   0  0  0  0  0  0  0  0  0  0  0  0
   20.4102  -19.4002    9.6829 C   0  0  0  0  0  0  0  0  0  0  0  0
   21.2355  -19.8295   10.5181 O   0  0  0  0  0  0  0  0  0  0  0  0
   19.0749  -19.7227    9.8667 O   0  0  0  0  0  0  0  0  0  0  0  0
  2  1  1  0
  2  4  1  0
  3  2  2  0
  5  4  1  0
  5  6  1  0
  6  8  1  0
  6  7  1  1
  8 10  1  0
  9  8  2  0
 10 11  1  0
 11 18  1  0
 11 12  1  6
 13 12  1  0
 13 14  2  0
 15 14  1  0
 16 17  2  0
 16 15  1  0
 17 13  1  0
 18 20  1  0
 19 18  2  0
 20 21  1  0
 21 24  1  0
 21 22  1  1
 22 23  1  0
 24 25  2  0
 24 26  1  0
M  END
$$$$
