QHC.pdb
     RDKit          3D

 26 26  0  0  1  0  0  0  0  0999 V2000
   30.7403  -36.5329   -2.1087 N   0  0  0  0  0  0  0  0  0  0  0  0
   29.8011  -36.3946   -3.1711 C   0  0  0  0  0  0  0  0  0  0  0  0
   30.1055  -36.9042   -4.2656 O   0  0  0  0  0  0  0  0  0  0  0  0
   28.5497  -35.6689   -2.9041 C   0  0  0  0  0  0  0  0  0  0  0  0
   28.5545  -35.1056   -1.5283 C   0  0  0  0  0  0  0  0  0  0  0  0
   27.3209  -34.3175   -1.2700 C   0  0  2  0  0  0  0  0  0  0  0  0
   27.0617  -33.3471   -2.3165 N   0  0  0  0  0  0  0  0  0  0  0  0
   27.5296  -33.6081    0.0458 C   0  0  0  0  0  0  0  0  0  0  0  0
   28.0939  -32.4876    0.0079 O   0  0  0  0  0  0  0  0  0  0  0  0
   27.1248  -34.1443    1.2794 N   0  0  0  0  0  0  0  0  0  0  0  0
   27.3783  -33.3843    2.4886 C   0  0  1  0  0  0  0  0  0  0  0  0
   26.1730  -33.4873    3.3775 C   0  0  0  0  0  0  0  0  0  0  0  0
   25.5439  -32.1402    3.5353 C   0  0  0  0  0  0  0  0  0  0  0  0
   26.1223  -30.9554    3.1269 C   0  0  0  0  0  0  0  0  0  0  0  0
   25.2580  -29.9682    3.4374 N   0  0  0  0  0  0  0  0  0  0  0  0
   24.1714  -30.4780    4.0181 C   0  0  0  0  0  0  0  0  0  0  0  0
   24.3584  -31.8163    4.0731 N   0  0  0  0  0  0  0  0  0  0  0  0
   28.6018  -33.9327    3.1731 C   0  0  0  0  0  0  0  0  0  0  0  0
   29.4510  -34.6318    2.5682 O   0  0  0  0  0  0  0  0  0  0  0  0
   28.8282  -33.6667    4.5460 N   0  0  0  0  0  0  0  0  0  0  0  0
   29.9873  -34.2520    5.1828 C   0  0  1  0  0  0  0  0  0  0  0  0
   31.2230  -33.7910    4.4396 C   0  0  0  0  0  0  0  0  0  0  0  0
   32.7381  -34.1979    5.3524 S   0  0  0  0  0  0  0  0  0  0  0  0
   29.9983  -33.7856    6.5934 C   0  0  0  0  0  0  0  0  0  0  0  0
   29.4064  -32.7502    6.9686 O   0  0  0  0  0  0  0  0  0  0  0  0
   30.6893  -34.5181    7.5456 O   0  0  0  0  0  0  0  0  0  0  0  0
  2  1  1  0
  2  4  1  0
  3  2  2  0
  5  4  1  0
  5  6  1  0
  6  8  1  0
  6  7  1  6
  8 10  1  0
  9  8  2  0
 10 11  1  0
 11 18  1  0
 11 12  1  1
 13 12  1  0
 13 14  2  0
 15 14  1  0
 16 17  2  0
 16 15  1  0
 17 13  1  0
 18 20  1  0
 19 18  2  0
 20 21  1  0
 21 24  1  0
 21 22  1  6
 22 23  1  0
 24 25  2  0
 24 26  1  0
M  END
$$$$
