QHC.pdb
     RDKit          3D

 26 26  0  0  1  0  0  0  0  0999 V2000
   17.9666  -27.5182  -10.2831 N   0  0  0  0  0  0  0  0  0  0  0  0
   17.5412  -28.0708  -11.5256 C   0  0  0  0  0  0  0  0  0  0  0  0
   16.6365  -28.9253  -11.4848 O   0  0  0  0  0  0  0  0  0  0  0  0
   18.1917  -27.5976  -12.7571 C   0  0  0  0  0  0  0  0  0  0  0  0
   19.2353  -26.5866  -12.4429 C   0  0  0  0  0  0  0  0  0  0  0  0
   20.5978  -27.1451  -12.6459 C   0  0  2  0  0  0  0  0  0  0  0  0
   21.0728  -27.8675  -11.4811 N   0  0  0  0  0  0  0  0  0  0  0  0
   21.5069  -25.9736  -12.9277 C   0  0  0  0  0  0  0  0  0  0  0  0
   21.9154  -25.3164  -11.9396 O   0  0  0  0  0  0  0  0  0  0  0  0
   21.9014  -25.6029  -14.2238 N   0  0  0  0  0  0  0  0  0  0  0  0
   22.8216  -24.4931  -14.3836 C   0  0  1  0  0  0  0  0  0  0  0  0
   23.7262  -24.7875  -15.5448 C   0  0  0  0  0  0  0  0  0  0  0  0
   24.6920  -23.6618  -15.7322 C   0  0  0  0  0  0  0  0  0  0  0  0
   25.8242  -23.4684  -14.9667 C   0  0  0  0  0  0  0  0  0  0  0  0
   26.4313  -22.3595  -15.4355 N   0  0  0  0  0  0  0  0  0  0  0  0
   25.7349  -21.8529  -16.4534 C   0  0  0  0  0  0  0  0  0  0  0  0
   24.6659  -22.6630  -16.6273 N   0  0  0  0  0  0  0  0  0  0  0  0
   22.0393  -23.2282  -14.6165 C   0  0  0  0  0  0  0  0  0  0  0  0
   21.0222  -23.1954  -15.3516 O   0  0  0  0  0  0  0  0  0  0  0  0
   22.4415  -22.0188  -13.9980 N   0  0  0  0  0  0  0  0  0  0  0  0
   21.7265  -20.8041  -14.3219 C   0  0  1  0  0  0  0  0  0  0  0  0
   21.9162  -19.8220  -13.1855 C   0  0  0  0  0  0  0  0  0  0  0  0
   21.0449  -18.2618  -13.5030 S   0  0  0  0  0  0  0  0  0  0  0  0
   22.2968  -20.2814  -15.5903 C   0  0  0  0  0  0  0  0  0  0  0  0
   23.4972  -20.4321  -15.9056 O   0  0  0  0  0  0  0  0  0  0  0  0
   21.4765  -19.5955  -16.4720 O   0  0  0  0  0  0  0  0  0  0  0  0
  2  1  1  0
  2  4  1  0
  3  2  2  0
  5  4  1  0
  5  6  1  0
  6  8  1  0
  6  7  1  1
  8 10  1  0
  9  8  2  0
 10 11  1  0
 11 18  1  0
 11 12  1  6
 13 12  1  0
 13 14  2  0
 15 14  1  0
 16 17  2  0
 16 15  1  0
 17 13  1  0
 18 20  1  0
 19 18  2  0
 20 21  1  0
 21 24  1  0
 21 22  1  1
 22 23  1  0
 24 25  2  0
 24 26  1  0
M  END
$$$$
