QHC.pdb
     RDKit          3D

 26 26  0  0  1  0  0  0  0  0999 V2000
   26.7649  -19.2005  -18.0847 N   0  0  0  0  0  0  0  0  0  0  0  0
   27.0698  -19.8373  -16.8471 C   0  0  0  0  0  0  0  0  0  0  0  0
   26.5473  -20.9481  -16.6384 O   0  0  0  0  0  0  0  0  0  0  0  0
   27.9720  -19.1471  -15.9127 C   0  0  0  0  0  0  0  0  0  0  0  0
   27.3071  -18.9401  -14.5993 C   0  0  0  0  0  0  0  0  0  0  0  0
   27.8570  -19.8623  -13.5713 C   0  0  2  0  0  0  0  0  0  0  0  0
   27.7613  -21.2522  -13.9751 N   0  0  0  0  0  0  0  0  0  0  0  0
   27.0518  -19.6375  -12.3147 C   0  0  0  0  0  0  0  0  0  0  0  0
   26.8679  -18.4480  -11.9588 O   0  0  0  0  0  0  0  0  0  0  0  0
   26.5149  -20.6859  -11.5494 N   0  0  0  0  0  0  0  0  0  0  0  0
   25.8555  -20.3700  -10.2967 C   0  0  1  0  0  0  0  0  0  0  0  0
   24.6878  -21.2977  -10.1257 C   0  0  0  0  0  0  0  0  0  0  0  0
   23.5672  -20.8707  -11.0184 C   0  0  0  0  0  0  0  0  0  0  0  0
   23.6168  -19.7850  -11.8693 C   0  0  0  0  0  0  0  0  0  0  0  0
   22.4267  -19.7250  -12.5002 N   0  0  0  0  0  0  0  0  0  0  0  0
   21.6390  -20.7177  -12.0854 C   0  0  0  0  0  0  0  0  0  0  0  0
   22.3517  -21.4168  -11.1731 N   0  0  0  0  0  0  0  0  0  0  0  0
   26.8370  -20.5241   -9.1656 C   0  0  0  0  0  0  0  0  0  0  0  0
   27.7769  -21.3554   -9.2029 O   0  0  0  0  0  0  0  0  0  0  0  0
   26.7202  -19.7168   -8.0074 N   0  0  0  0  0  0  0  0  0  0  0  0
   27.6613  -19.9151   -6.9273 C   0  0  1  0  0  0  0  0  0  0  0  0
   28.1187  -18.5572   -6.4385 C   0  0  0  0  0  0  0  0  0  0  0  0
   29.0511  -18.6889   -4.8868 S   0  0  0  0  0  0  0  0  0  0  0  0
   26.9538  -20.6655   -5.8578 C   0  0  0  0  0  0  0  0  0  0  0  0
   25.7216  -20.8758   -5.8802 O   0  0  0  0  0  0  0  0  0  0  0  0
   27.6761  -21.1598   -4.7832 O   0  0  0  0  0  0  0  0  0  0  0  0
  2  1  1  0
  2  4  1  0
  3  2  2  0
  5  4  1  0
  5  6  1  0
  6  8  1  0
  6  7  1  6
  8 10  1  0
  9  8  2  0
 10 11  1  0
 11 18  1  0
 11 12  1  1
 13 12  1  0
 13 14  2  0
 15 14  1  0
 16 17  2  0
 16 15  1  0
 17 13  1  0
 18 20  1  0
 19 18  2  0
 20 21  1  0
 21 24  1  0
 21 22  1  1
 22 23  1  0
 24 25  2  0
 24 26  1  0
M  END
$$$$
