QHC.pdb
     RDKit          3D

 26 26  0  0  1  0  0  0  0  0999 V2000
   22.9715  -20.6860   -9.5049 N   0  0  0  0  0  0  0  0  0  0  0  0
   24.1146  -20.7083   -8.6547 C   0  0  0  0  0  0  0  0  0  0  0  0
   23.9174  -20.9391   -7.4471 O   0  0  0  0  0  0  0  0  0  0  0  0
   25.4344  -20.4617   -9.2558 C   0  0  0  0  0  0  0  0  0  0  0  0
   25.3004  -20.1483  -10.7028 C   0  0  0  0  0  0  0  0  0  0  0  0
   25.3803  -21.3833  -11.5261 C   0  0  2  0  0  0  0  0  0  0  0  0
   26.7441  -21.8538  -11.6769 N   0  0  0  0  0  0  0  0  0  0  0  0
   24.8051  -21.0386  -12.8783 C   0  0  0  0  0  0  0  0  0  0  0  0
   25.4978  -20.3040  -13.6237 O   0  0  0  0  0  0  0  0  0  0  0  0
   23.5538  -21.4993  -13.3201 N   0  0  0  0  0  0  0  0  0  0  0  0
   23.1285  -21.1804  -14.6697 C   0  0  1  0  0  0  0  0  0  0  0  0
   22.7771  -22.4591  -15.3732 C   0  0  0  0  0  0  0  0  0  0  0  0
   24.0128  -23.2712  -15.5942 C   0  0  0  0  0  0  0  0  0  0  0  0
   25.0402  -22.9144  -16.4441 C   0  0  0  0  0  0  0  0  0  0  0  0
   25.9670  -23.8911  -16.3726 N   0  0  0  0  0  0  0  0  0  0  0  0
   25.5689  -24.8374  -15.5217 C   0  0  0  0  0  0  0  0  0  0  0  0
   24.3643  -24.4451  -15.0484 N   0  0  0  0  0  0  0  0  0  0  0  0
   21.9435  -20.2537  -14.6115 C   0  0  0  0  0  0  0  0  0  0  0  0
   21.2130  -20.1635  -13.5946 O   0  0  0  0  0  0  0  0  0  0  0  0
   21.6182  -19.4440  -15.7275 N   0  0  0  0  0  0  0  0  0  0  0  0
   20.4834  -18.5528  -15.6291 C   0  0  1  0  0  0  0  0  0  0  0  0
   20.9553  -17.2447  -15.0307 C   0  0  0  0  0  0  0  0  0  0  0  0
   19.6055  -16.0357  -14.9276 S   0  0  0  0  0  0  0  0  0  0  0  0
   19.9538  -18.3596  -17.0037 C   0  0  0  0  0  0  0  0  0  0  0  0
   20.6582  -18.5018  -18.0268 O   0  0  0  0  0  0  0  0  0  0  0  0
   18.6247  -18.0066  -17.1761 O   0  0  0  0  0  0  0  0  0  0  0  0
  2  1  1  0
  2  4  1  0
  3  2  2  0
  5  4  1  0
  5  6  1  0
  6  8  1  0
  6  7  1  6
  8 10  1  0
  9  8  2  0
 10 11  1  0
 11 18  1  0
 11 12  1  1
 13 12  1  0
 13 14  2  0
 15 14  1  0
 16 17  2  0
 16 15  1  0
 17 13  1  0
 18 20  1  0
 19 18  2  0
 20 21  1  0
 21 24  1  0
 21 22  1  6
 22 23  1  0
 24 25  2  0
 24 26  1  0
M  END
$$$$
