YND.pdb
     RDKit          3D

 29 29  0  0  1  0  0  0  0  0999 V2000
    7.5294  -12.3286   16.8135 O   0  0  0  0  0  0  0  0  0  0  0  0
    7.6059  -13.3287   17.7596 C   0  0  0  0  0  0  0  0  0  0  0  0
    7.2078  -13.1216   19.0597 C   0  0  0  0  0  0  0  0  0  0  0  0
    7.2717  -14.0981   20.0248 C   0  0  0  0  0  0  0  0  0  0  0  0
    7.7550  -15.3618   19.7081 C   0  0  0  0  0  0  0  0  0  0  0  0
    7.8130  -16.3741   20.7737 C   0  0  0  0  0  0  0  0  0  0  0  0
    8.4367  -17.6801   20.2552 C   0  0  2  0  0  0  0  0  0  0  0  0
    7.7507  -18.0902   19.0550 N   0  0  0  0  0  0  0  0  0  0  0  0
    8.3740  -18.6290   21.3654 C   0  0  0  0  0  0  0  0  0  0  0  0
    7.2618  -19.2255   21.5282 O   0  0  0  0  0  0  0  0  0  0  0  0
    8.1540  -15.5732   18.4089 C   0  0  0  0  0  0  0  0  0  0  0  0
    8.0905  -14.5968   17.4412 C   0  0  0  0  0  0  0  0  0  0  0  0
    9.6028  -20.5259   18.2186 N   0  0  0  0  0  0  0  0  0  0  0  0
   10.1357  -20.6729   19.5349 C   0  0  0  0  0  0  0  0  0  0  0  0
   10.1632  -21.7875   20.0948 O   0  0  0  0  0  0  0  0  0  0  0  0
   10.6488  -19.4507   20.1933 C   0  0  0  0  0  0  0  0  0  0  0  0
   10.6126  -19.5667   21.7165 C   0  0  2  0  0  0  0  0  0  0  0  0
    9.4437  -18.9237   22.2527 N   0  0  0  0  0  0  0  0  0  0  0  0
   11.8712  -19.0478   22.2454 C   0  0  0  0  0  0  0  0  0  0  0  0
   12.9947  -19.3175   21.7575 O   0  0  0  0  0  0  0  0  0  0  0  0
   11.8528  -18.1860   23.3775 N   0  0  0  0  0  0  0  0  0  0  0  0
   12.4138  -18.5920   24.6594 C   0  0  1  0  0  0  0  0  0  0  0  0
   11.4382  -19.5413   25.3514 C   0  0  0  0  0  0  0  0  0  0  0  0
   12.0224  -19.8990   26.6610 C   0  0  0  0  0  0  0  0  0  0  0  0
   12.9259  -20.7704   26.7680 O   0  0  0  0  0  0  0  0  0  0  0  0
   13.6770  -19.3224   24.4374 C   0  0  0  0  0  0  0  0  0  0  0  0
   13.6878  -20.3437   23.7145 O   0  0  0  0  0  0  0  0  0  0  0  0
   11.6241  -19.3081   27.8596 O   0  0  0  0  0  0  0  0  0  0  0  0
   14.8794  -18.9235   25.0026 O   0  0  0  0  0  0  0  0  0  0  0  0
  2  1  1  0
  3  2  2  0
  4  3  1  0
  5 11  1  0
  5  4  2  0
  6  5  1  0
  7  6  1  0
  7  8  1  6
  9 18  1  0
  9  7  1  0
 10  9  2  0
 11 12  2  0
 12  2  1  0
 13 14  1  0
 14 15  2  0
 16 14  1  0
 17 16  1  6
 17 18  1  0
 19 21  1  0
 19 17  1  0
 20 19  2  0
 22 21  1  0
 22 26  1  0
 23 24  1  0
 22 23  1  6
 24 25  2  0
 26 29  1  0
 27 26  2  0
 28 24  1  0
M  END
$$$$
