YND.pdb
     RDKit          3D

 29 29  0  0  1  0  0  0  0  0999 V2000
    8.2168  -12.7324   16.8213 O   0  0  0  0  0  0  0  0  0  0  0  0
    7.8701  -13.0442   18.1189 C   0  0  0  0  0  0  0  0  0  0  0  0
    8.5524  -12.5201   19.1920 C   0  0  0  0  0  0  0  0  0  0  0  0
    8.2308  -12.8116   20.4961 C   0  0  0  0  0  0  0  0  0  0  0  0
    7.1757  -13.6704   20.7794 C   0  0  0  0  0  0  0  0  0  0  0  0
    6.8712  -13.9606   22.1889 C   0  0  0  0  0  0  0  0  0  0  0  0
    7.5944  -15.2348   22.6545 C   0  0  2  0  0  0  0  0  0  0  0  0
    7.0706  -16.3684   21.9336 N   0  0  0  0  0  0  0  0  0  0  0  0
    7.4302  -15.2878   24.1061 C   0  0  0  0  0  0  0  0  0  0  0  0
    6.2865  -14.9517   24.5514 O   0  0  0  0  0  0  0  0  0  0  0  0
    6.4905  -14.1966   19.7091 C   0  0  0  0  0  0  0  0  0  0  0  0
    6.8110  -13.9057   18.4028 C   0  0  0  0  0  0  0  0  0  0  0  0
    7.7294  -20.3169   25.7874 N   0  0  0  0  0  0  0  0  0  0  0  0
    7.1263  -19.0489   26.0456 C   0  0  0  0  0  0  0  0  0  0  0  0
    6.3252  -18.9002   26.9903 O   0  0  0  0  0  0  0  0  0  0  0  0
    7.4963  -17.9326   25.1468 C   0  0  0  0  0  0  0  0  0  0  0  0
    8.1569  -16.7841   25.9079 C   0  0  2  0  0  0  0  0  0  0  0  0
    8.4353  -15.6797   25.0305 N   0  0  0  0  0  0  0  0  0  0  0  0
    9.3342  -17.3077   26.5957 C   0  0  0  0  0  0  0  0  0  0  0  0
    9.4767  -17.2912   27.8417 O   0  0  0  0  0  0  0  0  0  0  0  0
   10.3953  -17.8738   25.8353 N   0  0  0  0  0  0  0  0  0  0  0  0
   11.5476  -18.4974   26.4728 C   0  0  1  0  0  0  0  0  0  0  0  0
   11.0713  -19.6771   27.3175 C   0  0  0  0  0  0  0  0  0  0  0  0
   12.2346  -20.1717   28.0830 C   0  0  0  0  0  0  0  0  0  0  0  0
   13.3857  -19.6831   27.9292 O   0  0  0  0  0  0  0  0  0  0  0  0
   12.4622  -19.0198   25.4389 C   0  0  0  0  0  0  0  0  0  0  0  0
   12.0290  -19.2696   24.2920 O   0  0  0  0  0  0  0  0  0  0  0  0
   12.1482  -21.2009   29.0197 O   0  0  0  0  0  0  0  0  0  0  0  0
   13.8082  -19.2523   25.6812 O   0  0  0  0  0  0  0  0  0  0  0  0
  2  1  1  0
  3  2  2  0
  4  3  1  0
  5 11  1  0
  5  4  2  0
  6  5  1  0
  7  6  1  0
  7  8  1  6
  9 18  1  0
  9  7  1  0
 10  9  2  0
 11 12  2  0
 12  2  1  0
 13 14  1  0
 14 15  2  0
 16 14  1  0
 17 16  1  6
 17 18  1  0
 19 21  1  0
 19 17  1  0
 20 19  2  0
 22 21  1  0
 22 26  1  0
 23 24  1  0
 22 23  1  1
 24 25  2  0
 26 29  1  0
 27 26  2  0
 28 24  1  0
M  END
$$$$
