YND.pdb
     RDKit          3D

 29 29  0  0  1  0  0  0  0  0999 V2000
    7.8879  -13.3364   16.9641 O   0  0  0  0  0  0  0  0  0  0  0  0
    7.7827  -13.4667   18.3328 C   0  0  0  0  0  0  0  0  0  0  0  0
    8.4947  -12.6600   19.1895 C   0  0  0  0  0  0  0  0  0  0  0  0
    8.4110  -12.7655   20.5573 C   0  0  0  0  0  0  0  0  0  0  0  0
    7.5806  -13.7185   21.1343 C   0  0  0  0  0  0  0  0  0  0  0  0
    7.5275  -13.8015   22.6019 C   0  0  0  0  0  0  0  0  0  0  0  0
    8.7932  -14.4734   23.1587 C   0  0  2  0  0  0  0  0  0  0  0  0
    9.8810  -14.2783   22.2325 N   0  0  0  0  0  0  0  0  0  0  0  0
    8.4340  -15.8670   23.4152 C   0  0  0  0  0  0  0  0  0  0  0  0
    7.4697  -16.0555   24.2238 O   0  0  0  0  0  0  0  0  0  0  0  0
    6.8665  -14.5273   20.2811 C   0  0  0  0  0  0  0  0  0  0  0  0
    6.9489  -14.4230   18.9114 C   0  0  0  0  0  0  0  0  0  0  0  0
    8.3873  -19.1015   19.6254 N   0  0  0  0  0  0  0  0  0  0  0  0
    9.0150  -19.0002   20.9037 C   0  0  0  0  0  0  0  0  0  0  0  0
   10.2439  -18.8083   21.0013 O   0  0  0  0  0  0  0  0  0  0  0  0
    8.1439  -19.1316   22.0931 C   0  0  0  0  0  0  0  0  0  0  0  0
    8.6592  -18.3046   23.2701 C   0  0  2  0  0  0  0  0  0  0  0  0
    9.0721  -16.9973   22.8373 N   0  0  0  0  0  0  0  0  0  0  0  0
    9.7088  -19.0672   23.9409 C   0  0  0  0  0  0  0  0  0  0  0  0
    9.6171  -20.2887   24.2106 O   0  0  0  0  0  0  0  0  0  0  0  0
   10.9141  -18.4141   24.3222 N   0  0  0  0  0  0  0  0  0  0  0  0
   11.8683  -19.0353   25.2312 C   0  0  1  0  0  0  0  0  0  0  0  0
   13.1618  -18.2237   25.2260 C   0  0  0  0  0  0  0  0  0  0  0  0
   13.7023  -18.2611   23.8511 C   0  0  0  0  0  0  0  0  0  0  0  0
   14.6687  -17.5337   23.4987 O   0  0  0  0  0  0  0  0  0  0  0  0
   11.3271  -19.0175   26.6043 C   0  0  0  0  0  0  0  0  0  0  0  0
   10.3533  -18.2820   26.8809 O   0  0  0  0  0  0  0  0  0  0  0  0
   13.1918  -19.0919   22.8543 O   0  0  0  0  0  0  0  0  0  0  0  0
   11.8560  -19.7930   27.6256 O   0  0  0  0  0  0  0  0  0  0  0  0
  2  1  1  0
  3  2  2  0
  4  3  1  0
  5 11  1  0
  5  4  2  0
  6  5  1  0
  7  6  1  0
  7  8  1  6
  9 18  1  0
  9  7  1  0
 10  9  2  0
 11 12  2  0
 12  2  1  0
 13 14  1  0
 14 15  2  0
 16 14  1  0
 17 16  1  6
 17 18  1  0
 19 21  1  0
 19 17  1  0
 20 19  2  0
 22 21  1  0
 22 26  1  0
 23 24  1  0
 22 23  1  1
 24 25  2  0
 26 29  1  0
 27 26  2  0
 28 24  1  0
M  END
$$$$
