YND.pdb
     RDKit          3D

 29 29  0  0  1  0  0  0  0  0999 V2000
    5.3978  -10.5698   27.0183 O   0  0  0  0  0  0  0  0  0  0  0  0
    6.1492  -11.5955   26.4847 C   0  0  0  0  0  0  0  0  0  0  0  0
    6.2461  -12.8170   27.1093 C   0  0  0  0  0  0  0  0  0  0  0  0
    6.9865  -13.8582   26.6026 C   0  0  0  0  0  0  0  0  0  0  0  0
    7.6809  -13.7047   25.4088 C   0  0  0  0  0  0  0  0  0  0  0  0
    8.4667  -14.8424   24.9071 C   0  0  0  0  0  0  0  0  0  0  0  0
    7.7024  -15.5918   23.8036 C   0  0  2  0  0  0  0  0  0  0  0  0
    6.5870  -16.2924   24.3903 N   0  0  0  0  0  0  0  0  0  0  0  0
    8.6866  -16.4375   23.1303 C   0  0  0  0  0  0  0  0  0  0  0  0
    8.6642  -17.6725   23.4362 O   0  0  0  0  0  0  0  0  0  0  0  0
    7.5865  -12.4847   24.7807 C   0  0  0  0  0  0  0  0  0  0  0  0
    6.8454  -11.4412   25.2864 C   0  0  0  0  0  0  0  0  0  0  0  0
   10.8291  -18.6185   18.8134 N   0  0  0  0  0  0  0  0  0  0  0  0
   11.5334  -17.4755   19.2990 C   0  0  0  0  0  0  0  0  0  0  0  0
   12.7546  -17.3361   19.0850 O   0  0  0  0  0  0  0  0  0  0  0  0
   10.7502  -16.4756   20.0590 C   0  0  0  0  0  0  0  0  0  0  0  0
   10.4024  -16.9716   21.4617 C   0  0  2  0  0  0  0  0  0  0  0  0
    9.6423  -15.9858   22.1811 N   0  0  0  0  0  0  0  0  0  0  0  0
   11.6404  -17.3689   22.1271 C   0  0  0  0  0  0  0  0  0  0  0  0
   12.4309  -18.2287   21.6700 O   0  0  0  0  0  0  0  0  0  0  0  0
   11.9953  -16.7640   23.3651 N   0  0  0  0  0  0  0  0  0  0  0  0
   13.2221  -17.1174   24.0673 C   0  0  1  0  0  0  0  0  0  0  0  0
   14.0035  -15.8424   24.3766 C   0  0  0  0  0  0  0  0  0  0  0  0
   14.8524  -15.5480   23.2032 C   0  0  0  0  0  0  0  0  0  0  0  0
   14.7717  -16.2207   22.1410 O   0  0  0  0  0  0  0  0  0  0  0  0
   12.8881  -17.7671   25.3498 C   0  0  0  0  0  0  0  0  0  0  0  0
   11.6969  -17.8237   25.7284 O   0  0  0  0  0  0  0  0  0  0  0  0
   15.7928  -14.5187   23.1825 O   0  0  0  0  0  0  0  0  0  0  0  0
   13.8509  -18.3309   26.1742 O   0  0  0  0  0  0  0  0  0  0  0  0
  2  1  1  0
  3  2  2  0
  4  3  1  0
  5 11  1  0
  5  4  2  0
  6  5  1  0
  7  6  1  0
  7  8  1  1
  9 18  1  0
  9  7  1  0
 10  9  2  0
 11 12  2  0
 12  2  1  0
 13 14  1  0
 14 15  2  0
 16 14  1  0
 17 16  1  6
 17 18  1  0
 19 21  1  0
 19 17  1  0
 20 19  2  0
 22 21  1  0
 22 26  1  0
 23 24  1  0
 22 23  1  1
 24 25  2  0
 26 29  1  0
 27 26  2  0
 28 24  1  0
M  END
$$$$
