YND.pdb
     RDKit          3D

 29 29  0  0  1  0  0  0  0  0999 V2000
    6.7362  -13.6370   16.3592 O   0  0  0  0  0  0  0  0  0  0  0  0
    7.2763  -13.6812   17.6271 C   0  0  0  0  0  0  0  0  0  0  0  0
    7.9769  -14.7775   18.0732 C   0  0  0  0  0  0  0  0  0  0  0  0
    8.5270  -14.8511   19.3307 C   0  0  0  0  0  0  0  0  0  0  0  0
    8.3880  -13.7896   20.2165 C   0  0  0  0  0  0  0  0  0  0  0  0
    8.9860  -13.9143   21.5546 C   0  0  0  0  0  0  0  0  0  0  0  0
    8.1820  -14.8939   22.4248 C   0  0  2  0  0  0  0  0  0  0  0  0
    7.0683  -14.1969   23.0193 N   0  0  0  0  0  0  0  0  0  0  0  0
    9.1341  -15.4718   23.3716 C   0  0  0  0  0  0  0  0  0  0  0  0
    9.2816  -14.8442   24.4687 O   0  0  0  0  0  0  0  0  0  0  0  0
    7.6882  -12.6912   19.7743 C   0  0  0  0  0  0  0  0  0  0  0  0
    7.1370  -12.6155   18.5156 C   0  0  0  0  0  0  0  0  0  0  0  0
   12.3491  -17.5210   26.8155 N   0  0  0  0  0  0  0  0  0  0  0  0
   12.1216  -18.3342   25.6643 C   0  0  0  0  0  0  0  0  0  0  0  0
   12.9273  -19.2309   25.3432 O   0  0  0  0  0  0  0  0  0  0  0  0
   10.8950  -18.0635   24.8813 C   0  0  0  0  0  0  0  0  0  0  0  0
   11.0677  -16.8650   23.9494 C   0  0  2  0  0  0  0  0  0  0  0  0
    9.8869  -16.6573   23.1559 N   0  0  0  0  0  0  0  0  0  0  0  0
   12.2828  -17.0665   23.1645 C   0  0  0  0  0  0  0  0  0  0  0  0
   12.4452  -18.0201   22.3661 O   0  0  0  0  0  0  0  0  0  0  0  0
   13.3600  -16.1455   23.2924 N   0  0  0  0  0  0  0  0  0  0  0  0
   14.4903  -16.1552   22.3730 C   0  0  1  0  0  0  0  0  0  0  0  0
   14.3807  -14.9538   21.4368 C   0  0  0  0  0  0  0  0  0  0  0  0
   15.5185  -15.0205   20.4960 C   0  0  0  0  0  0  0  0  0  0  0  0
   15.8464  -16.0959   19.9275 O   0  0  0  0  0  0  0  0  0  0  0  0
   15.7480  -16.0239   23.1342 C   0  0  0  0  0  0  0  0  0  0  0  0
   16.8433  -16.0040   22.5296 O   0  0  0  0  0  0  0  0  0  0  0  0
   16.3036  -13.9151   20.1707 O   0  0  0  0  0  0  0  0  0  0  0  0
   15.7763  -15.9188   24.5171 O   0  0  0  0  0  0  0  0  0  0  0  0
  2  1  1  0
  3  2  2  0
  4  3  1  0
  5 11  1  0
  5  4  2  0
  6  5  1  0
  7  6  1  0
  7  8  1  1
  9 18  1  0
  9  7  1  0
 10  9  2  0
 11 12  2  0
 12  2  1  0
 13 14  1  0
 14 15  2  0
 16 14  1  0
 17 16  1  6
 17 18  1  0
 19 21  1  0
 19 17  1  0
 20 19  2  0
 22 21  1  0
 22 26  1  0
 23 24  1  0
 22 23  1  6
 24 25  2  0
 26 29  1  0
 27 26  2  0
 28 24  1  0
M  END
$$$$
