YND.pdb
     RDKit          3D

 29 29  0  0  1  0  0  0  0  0999 V2000
    6.2956  -10.8224   28.3808 O   0  0  0  0  0  0  0  0  0  0  0  0
    6.6479  -11.8506   27.5323 C   0  0  0  0  0  0  0  0  0  0  0  0
    7.0076  -13.0885   28.0119 C   0  0  0  0  0  0  0  0  0  0  0  0
    7.3633  -14.1326   27.1919 C   0  0  0  0  0  0  0  0  0  0  0  0
    7.3714  -13.9652   25.8125 C   0  0  0  0  0  0  0  0  0  0  0  0
    7.7660  -15.1069   24.9732 C   0  0  0  0  0  0  0  0  0  0  0  0
    6.6062  -15.5453   24.0643 C   0  0  2  0  0  0  0  0  0  0  0  0
    5.9975  -16.7328   24.6107 N   0  0  0  0  0  0  0  0  0  0  0  0
    7.1733  -15.6940   22.7252 C   0  0  0  0  0  0  0  0  0  0  0  0
    7.3071  -16.8875   22.3047 O   0  0  0  0  0  0  0  0  0  0  0  0
    7.0121  -12.7288   25.3286 C   0  0  0  0  0  0  0  0  0  0  0  0
    6.6554  -11.6824   26.1481 C   0  0  0  0  0  0  0  0  0  0  0  0
    7.4786  -14.4639   17.3996 N   0  0  0  0  0  0  0  0  0  0  0  0
    8.4787  -13.9775   18.2948 C   0  0  0  0  0  0  0  0  0  0  0  0
    9.6558  -13.8156   17.9145 O   0  0  0  0  0  0  0  0  0  0  0  0
    8.0528  -13.6775   19.6803 C   0  0  0  0  0  0  0  0  0  0  0  0
    8.0025  -14.9359   20.5454 C   0  0  2  0  0  0  0  0  0  0  0  0
    7.5750  -14.6234   21.8820 N   0  0  0  0  0  0  0  0  0  0  0  0
    9.3060  -15.5913   20.4767 C   0  0  0  0  0  0  0  0  0  0  0  0
    9.7685  -16.1124   19.4338 O   0  0  0  0  0  0  0  0  0  0  0  0
   10.1186  -15.6582   21.6428 N   0  0  0  0  0  0  0  0  0  0  0  0
   11.3414  -16.4494   21.6809 C   0  0  1  0  0  0  0  0  0  0  0  0
   12.3026  -15.8317   22.6940 C   0  0  0  0  0  0  0  0  0  0  0  0
   13.5979  -15.6325   22.0109 C   0  0  0  0  0  0  0  0  0  0  0  0
   13.6966  -15.6625   20.7552 O   0  0  0  0  0  0  0  0  0  0  0  0
   11.0295  -17.8206   22.1291 C   0  0  0  0  0  0  0  0  0  0  0  0
   11.4477  -18.8009   21.4736 O   0  0  0  0  0  0  0  0  0  0  0  0
   14.7912  -15.3994   22.6935 O   0  0  0  0  0  0  0  0  0  0  0  0
   10.2794  -18.0820   23.2664 O   0  0  0  0  0  0  0  0  0  0  0  0
  2  1  1  0
  3  2  2  0
  4  3  1  0
  5 11  1  0
  5  4  2  0
  6  5  1  0
  7  6  1  0
  7  8  1  1
  9 18  1  0
  9  7  1  0
 10  9  2  0
 11 12  2  0
 12  2  1  0
 13 14  1  0
 14 15  2  0
 16 14  1  0
 17 16  1  6
 17 18  1  0
 19 21  1  0
 19 17  1  0
 20 19  2  0
 22 21  1  0
 22 26  1  0
 23 24  1  0
 22 23  1  1
 24 25  2  0
 26 29  1  0
 27 26  2  0
 28 24  1  0
M  END
$$$$
