YND.pdb
     RDKit          3D

 29 29  0  0  1  0  0  0  0  0999 V2000
    6.6562  -11.1203   27.9702 O   0  0  0  0  0  0  0  0  0  0  0  0
    6.5709  -12.0454   26.9513 C   0  0  0  0  0  0  0  0  0  0  0  0
    6.9989  -11.7542   25.6770 C   0  0  0  0  0  0  0  0  0  0  0  0
    6.9273  -12.6547   24.6411 C   0  0  0  0  0  0  0  0  0  0  0  0
    6.4046  -13.9243   24.8549 C   0  0  0  0  0  0  0  0  0  0  0  0
    6.3398  -14.8532   23.7163 C   0  0  0  0  0  0  0  0  0  0  0  0
    7.5340  -15.8212   23.7305 C   0  0  2  0  0  0  0  0  0  0  0  0
    8.4657  -15.4110   24.7518 N   0  0  0  0  0  0  0  0  0  0  0  0
    8.0651  -15.8312   22.3686 C   0  0  0  0  0  0  0  0  0  0  0  0
    7.3210  -16.3615   21.4828 O   0  0  0  0  0  0  0  0  0  0  0  0
    5.9755  -14.2197   26.1279 C   0  0  0  0  0  0  0  0  0  0  0  0
    6.0467  -13.3195   27.1664 C   0  0  0  0  0  0  0  0  0  0  0  0
    7.8003  -12.6473   19.8734 N   0  0  0  0  0  0  0  0  0  0  0  0
    8.2887  -13.9182   19.4436 C   0  0  0  0  0  0  0  0  0  0  0  0
    7.5613  -14.6999   18.7983 O   0  0  0  0  0  0  0  0  0  0  0  0
    9.6855  -14.2567   19.7973 C   0  0  0  0  0  0  0  0  0  0  0  0
    9.7680  -15.5359   20.6289 C   0  0  2  0  0  0  0  0  0  0  0  0
    9.3239  -15.3021   21.9761 N   0  0  0  0  0  0  0  0  0  0  0  0
   11.1293  -16.0567   20.5342 C   0  0  0  0  0  0  0  0  0  0  0  0
   11.7185  -16.2701   19.4477 O   0  0  0  0  0  0  0  0  0  0  0  0
   11.8520  -16.3481   21.7248 N   0  0  0  0  0  0  0  0  0  0  0  0
   12.6461  -17.5620   21.8619 C   0  0  1  0  0  0  0  0  0  0  0  0
   11.7130  -18.7387   22.1385 C   0  0  0  0  0  0  0  0  0  0  0  0
   12.5572  -19.9342   22.3442 C   0  0  0  0  0  0  0  0  0  0  0  0
   13.6083  -20.1263   21.6767 O   0  0  0  0  0  0  0  0  0  0  0  0
   13.3564  -17.8338   20.5970 C   0  0  0  0  0  0  0  0  0  0  0  0
   12.7076  -17.9850   19.5378 O   0  0  0  0  0  0  0  0  0  0  0  0
   12.2594  -20.9252   23.2788 O   0  0  0  0  0  0  0  0  0  0  0  0
   14.7382  -17.9319   20.5227 O   0  0  0  0  0  0  0  0  0  0  0  0
  2  1  1  0
  3  2  2  0
  4  3  1  0
  5 11  1  0
  5  4  2  0
  6  5  1  0
  7  6  1  0
  7  8  1  1
  9 18  1  0
  9  7  1  0
 10  9  2  0
 11 12  2  0
 12  2  1  0
 13 14  1  0
 14 15  2  0
 16 14  1  0
 17 16  1  6
 17 18  1  0
 19 21  1  0
 19 17  1  0
 20 19  2  0
 22 21  1  0
 22 26  1  0
 23 24  1  0
 22 23  1  6
 24 25  2  0
 26 29  1  0
 27 26  2  0
 28 24  1  0
M  END
$$$$
