YND.pdb
     RDKit          3D

 29 29  0  0  1  0  0  0  0  0999 V2000
    5.8087  -11.1155   28.5289 O   0  0  0  0  0  0  0  0  0  0  0  0
    6.4213  -12.0089   27.6759 C   0  0  0  0  0  0  0  0  0  0  0  0
    6.1148  -12.0505   26.3357 C   0  0  0  0  0  0  0  0  0  0  0  0
    6.7081  -12.9289   25.4609 C   0  0  0  0  0  0  0  0  0  0  0  0
    7.6638  -13.8290   25.9163 C   0  0  0  0  0  0  0  0  0  0  0  0
    8.2674  -14.7562   24.9469 C   0  0  0  0  0  0  0  0  0  0  0  0
    7.1825  -15.4896   24.1416 C   0  0  2  0  0  0  0  0  0  0  0  0
    6.8949  -16.7534   24.7735 N   0  0  0  0  0  0  0  0  0  0  0  0
    7.6829  -15.5764   22.7709 C   0  0  0  0  0  0  0  0  0  0  0  0
    7.8015  -16.7497   22.2928 O   0  0  0  0  0  0  0  0  0  0  0  0
    7.9735  -13.7907   27.2559 C   0  0  0  0  0  0  0  0  0  0  0  0
    7.3807  -12.9117   28.1333 C   0  0  0  0  0  0  0  0  0  0  0  0
    8.9658  -12.7190   17.5966 N   0  0  0  0  0  0  0  0  0  0  0  0
    8.2153  -13.7231   18.2797 C   0  0  0  0  0  0  0  0  0  0  0  0
    7.8157  -14.7428   17.6822 O   0  0  0  0  0  0  0  0  0  0  0  0
    7.9395  -13.4961   19.7161 C   0  0  0  0  0  0  0  0  0  0  0  0
    8.3162  -14.7084   20.5665 C   0  0  2  0  0  0  0  0  0  0  0  0
    8.0368  -14.4676   21.9561 N   0  0  0  0  0  0  0  0  0  0  0  0
    9.7102  -15.0459   20.2907 C   0  0  0  0  0  0  0  0  0  0  0  0
   10.1442  -15.3315   19.1492 O   0  0  0  0  0  0  0  0  0  0  0  0
   10.6515  -15.0601   21.3577 N   0  0  0  0  0  0  0  0  0  0  0  0
   12.0224  -15.5145   21.1648 C   0  0  1  0  0  0  0  0  0  0  0  0
   12.9793  -14.3945   21.5669 C   0  0  0  0  0  0  0  0  0  0  0  0
   14.3523  -14.8626   21.2843 C   0  0  0  0  0  0  0  0  0  0  0  0
   14.6155  -15.5778   20.2811 O   0  0  0  0  0  0  0  0  0  0  0  0
   12.2871  -16.6733   22.0398 C   0  0  0  0  0  0  0  0  0  0  0  0
   11.4877  -16.9547   22.9604 O   0  0  0  0  0  0  0  0  0  0  0  0
   15.4444  -14.5528   22.0940 O   0  0  0  0  0  0  0  0  0  0  0  0
   13.4026  -17.4838   21.8885 O   0  0  0  0  0  0  0  0  0  0  0  0
  2  1  1  0
  3  2  2  0
  4  3  1  0
  5 11  1  0
  5  4  2  0
  6  5  1  0
  7  6  1  0
  7  8  1  1
  9 18  1  0
  9  7  1  0
 10  9  2  0
 11 12  2  0
 12  2  1  0
 13 14  1  0
 14 15  2  0
 16 14  1  0
 17 16  1  6
 17 18  1  0
 19 21  1  0
 19 17  1  0
 20 19  2  0
 22 21  1  0
 22 26  1  0
 23 24  1  0
 22 23  1  1
 24 25  2  0
 26 29  1  0
 27 26  2  0
 28 24  1  0
M  END
$$$$
