YND.pdb
     RDKit          3D

 29 29  0  0  1  0  0  0  0  0999 V2000
    5.5463  -14.3274   19.4342 O   0  0  0  0  0  0  0  0  0  0  0  0
    6.9097  -14.1217   19.4434 C   0  0  0  0  0  0  0  0  0  0  0  0
    7.4474  -12.8572   19.3844 C   0  0  0  0  0  0  0  0  0  0  0  0
    8.8012  -12.6202   19.3920 C   0  0  0  0  0  0  0  0  0  0  0  0
    9.6952  -13.6817   19.4611 C   0  0  0  0  0  0  0  0  0  0  0  0
   11.1353  -13.3827   19.4590 C   0  0  0  0  0  0  0  0  0  0  0  0
   11.9364  -14.5502   18.8602 C   0  0  2  0  0  0  0  0  0  0  0  0
   11.1495  -15.1896   17.8349 N   0  0  0  0  0  0  0  0  0  0  0  0
   12.3099  -15.4058   19.9851 C   0  0  0  0  0  0  0  0  0  0  0  0
   13.2148  -14.9516   20.7559 O   0  0  0  0  0  0  0  0  0  0  0  0
    9.1617  -14.9481   19.5205 C   0  0  0  0  0  0  0  0  0  0  0  0
    7.8065  -15.1873   19.5133 C   0  0  0  0  0  0  0  0  0  0  0  0
    9.3908  -19.5528   21.3807 N   0  0  0  0  0  0  0  0  0  0  0  0
   10.5032  -19.0153   22.0962 C   0  0  0  0  0  0  0  0  0  0  0  0
   10.3968  -18.6884   23.2955 O   0  0  0  0  0  0  0  0  0  0  0  0
   11.7743  -18.8685   21.3522 C   0  0  0  0  0  0  0  0  0  0  0  0
   12.2826  -17.4277   21.3725 C   0  0  2  0  0  0  0  0  0  0  0  0
   11.7452  -16.6781   20.2696 N   0  0  0  0  0  0  0  0  0  0  0  0
   13.7422  -17.4576   21.4153 C   0  0  0  0  0  0  0  0  0  0  0  0
   14.4375  -18.3271   20.8376 O   0  0  0  0  0  0  0  0  0  0  0  0
   14.4420  -16.4572   22.1461 N   0  0  0  0  0  0  0  0  0  0  0  0
   15.8863  -16.5115   22.3302 C   0  0  1  0  0  0  0  0  0  0  0  0
   16.4905  -15.1685   21.9261 C   0  0  0  0  0  0  0  0  0  0  0  0
   16.6953  -15.1978   20.4628 C   0  0  0  0  0  0  0  0  0  0  0  0
   16.7061  -16.2791   19.8164 O   0  0  0  0  0  0  0  0  0  0  0  0
   16.1950  -16.7371   23.7558 C   0  0  0  0  0  0  0  0  0  0  0  0
   17.3839  -16.8697   24.1228 O   0  0  0  0  0  0  0  0  0  0  0  0
   16.8890  -14.0482   19.6977 O   0  0  0  0  0  0  0  0  0  0  0  0
   15.2105  -16.8109   24.7304 O   0  0  0  0  0  0  0  0  0  0  0  0
  2  1  1  0
  3  2  2  0
  4  3  1  0
  5 11  1  0
  5  4  2  0
  6  5  1  0
  7  6  1  0
  7  8  1  6
  9 18  1  0
  9  7  1  0
 10  9  2  0
 11 12  2  0
 12  2  1  0
 13 14  1  0
 14 15  2  0
 16 14  1  0
 17 16  1  6
 17 18  1  0
 19 21  1  0
 19 17  1  0
 20 19  2  0
 22 21  1  0
 22 26  1  0
 23 24  1  0
 22 23  1  1
 24 25  2  0
 26 29  1  0
 27 26  2  0
 28 24  1  0
M  END
$$$$
