KMF.pdb
     RDKit          3D

 29 29  0  0  1  0  0  0  0  0999 V2000
   28.2160  -19.5950  -14.7213 N   0  0  0  0  0  0  0  0  0  0  0  0
   27.5131  -19.3127  -13.5615 C   0  0  1  0  0  0  0  0  0  0  0  0
   26.1142  -18.9396  -13.4884 C   0  0  0  0  0  0  0  0  0  0  0  0
   25.0619  -19.4783  -14.3041 C   0  0  0  0  0  0  0  0  0  0  0  0
   24.5563  -18.9750  -15.5422 C   0  0  0  0  0  0  0  0  0  0  0  0
   23.4499  -19.4849  -16.3290 C   0  0  0  0  0  0  0  0  0  0  0  0
   23.1481  -18.9217  -17.5795 N   0  0  0  0  0  0  0  0  0  0  0  0
   27.7379  -20.4484  -12.5461 C   0  0  0  0  0  0  0  0  0  0  0  0
   26.8742  -21.3435  -12.4606 O   0  0  0  0  0  0  0  0  0  0  0  0
   33.4283  -22.4692  -11.0493 C   0  0  0  0  0  0  0  0  0  0  0  0
   32.6660  -23.2063   -9.5944 S   0  0  0  0  0  0  0  0  0  0  0  0
   30.8565  -22.9877   -9.6578 C   0  0  0  0  0  0  0  0  0  0  0  0
   30.5784  -21.8762  -10.6277 C   0  0  0  0  0  0  0  0  0  0  0  0
   29.1070  -21.5497  -10.7460 C   0  0  2  0  0  0  0  0  0  0  0  0
   28.8750  -20.4978  -11.7283 N   0  0  0  0  0  0  0  0  0  0  0  0
   28.5089  -21.1310   -9.4780 C   0  0  0  0  0  0  0  0  0  0  0  0
   29.1893  -20.5996   -8.5712 O   0  0  0  0  0  0  0  0  0  0  0  0
   27.1228  -21.3240   -9.2514 N   0  0  0  0  0  0  0  0  0  0  0  0
   26.5106  -21.1422   -7.9362 C   0  0  1  0  0  0  0  0  0  0  0  0
   26.7643  -19.7445   -7.4777 C   0  0  0  0  0  0  0  0  0  0  0  0
   27.6051  -19.6219   -6.2763 C   0  0  0  0  0  0  0  0  0  0  0  0
   28.1719  -18.4034   -5.9453 C   0  0  0  0  0  0  0  0  0  0  0  0
   28.9636  -18.2061   -4.8375 C   0  0  0  0  0  0  0  0  0  0  0  0
   29.2100  -19.2780   -4.0069 C   0  0  0  0  0  0  0  0  0  0  0  0
   28.6538  -20.5085   -4.3171 C   0  0  0  0  0  0  0  0  0  0  0  0
   27.8634  -20.6871   -5.4309 C   0  0  0  0  0  0  0  0  0  0  0  0
   25.0637  -21.4423   -8.0124 C   0  0  0  0  0  0  0  0  0  0  0  0
   24.2879  -21.6065   -6.8863 O   0  0  0  0  0  0  0  0  0  0  0  0
   24.5089  -21.5553   -9.1375 O   0  0  0  0  0  0  0  0  0  0  0  0
  2  1  1  6
  3  2  1  0
  4  3  1  0
  5  4  1  0
  6  5  1  0
  7  6  1  0
  8 15  1  0
  8  2  1  0
  9  8  2  0
 10 11  1  0
 11 12  1  0
 13 12  1  0
 14 13  1  1
 14 15  1  0
 16 18  1  0
 16 14  1  0
 17 16  2  0
 19 18  1  0
 19 27  1  0
 19 20  1  6
 21 22  2  0
 21 20  1  0
 23 22  1  0
 24 23  2  0
 25 24  1  0
 25 26  2  0
 26 21  1  0
 27 28  1  0
 29 27  2  0
M  END
$$$$
