KMF.pdb
     RDKit          3D

 29 29  0  0  1  0  0  0  0  0999 V2000
   28.1592  -22.1843  -14.3494 N   0  0  0  0  0  0  0  0  0  0  0  0
   27.0264  -21.3986  -14.2136 C   0  0  1  0  0  0  0  0  0  0  0  0
   25.9321  -21.3191  -15.1612 C   0  0  0  0  0  0  0  0  0  0  0  0
   26.0671  -21.1563  -16.5819 C   0  0  0  0  0  0  0  0  0  0  0  0
   27.2405  -20.8248  -17.3270 C   0  0  0  0  0  0  0  0  0  0  0  0
   27.3298  -20.3989  -18.7104 C   0  0  0  0  0  0  0  0  0  0  0  0
   27.0178  -21.2902  -19.7499 N   0  0  0  0  0  0  0  0  0  0  0  0
   26.4109  -21.6366  -12.8222 C   0  0  0  0  0  0  0  0  0  0  0  0
   25.4633  -22.4411  -12.7256 O   0  0  0  0  0  0  0  0  0  0  0  0
   26.9690  -20.0639   -5.0530 C   0  0  0  0  0  0  0  0  0  0  0  0
   27.6896  -20.0620   -6.7029 S   0  0  0  0  0  0  0  0  0  0  0  0
   26.4456  -20.5857   -7.9293 C   0  0  0  0  0  0  0  0  0  0  0  0
   27.1293  -20.6237   -9.2651 C   0  0  0  0  0  0  0  0  0  0  0  0
   26.2034  -21.0236  -10.3914 C   0  0  2  0  0  0  0  0  0  0  0  0
   26.8855  -20.9792  -11.6791 N   0  0  0  0  0  0  0  0  0  0  0  0
   25.0090  -20.1830  -10.4776 C   0  0  0  0  0  0  0  0  0  0  0  0
   25.0845  -18.9446  -10.6461 O   0  0  0  0  0  0  0  0  0  0  0  0
   23.7222  -20.7682  -10.3697 N   0  0  0  0  0  0  0  0  0  0  0  0
   22.4932  -19.9809  -10.4545 C   0  0  1  0  0  0  0  0  0  0  0  0
   22.4544  -19.2927  -11.7785 C   0  0  0  0  0  0  0  0  0  0  0  0
   22.2265  -20.1727  -12.9357 C   0  0  0  0  0  0  0  0  0  0  0  0
   21.0169  -20.8289  -13.0828 C   0  0  0  0  0  0  0  0  0  0  0  0
   20.7245  -21.6624  -14.1378 C   0  0  0  0  0  0  0  0  0  0  0  0
   21.6859  -21.8589  -15.1055 C   0  0  0  0  0  0  0  0  0  0  0  0
   22.9053  -21.2131  -14.9805 C   0  0  0  0  0  0  0  0  0  0  0  0
   23.1801  -20.3820  -13.9170 C   0  0  0  0  0  0  0  0  0  0  0  0
   21.3206  -20.8617  -10.2575 C   0  0  0  0  0  0  0  0  0  0  0  0
   20.0327  -20.3744  -10.2321 O   0  0  0  0  0  0  0  0  0  0  0  0
   21.4900  -22.1005  -10.1057 O   0  0  0  0  0  0  0  0  0  0  0  0
  2  1  1  6
  3  2  1  0
  4  3  1  0
  5  4  1  0
  6  5  1  0
  7  6  1  0
  8 15  1  0
  8  2  1  0
  9  8  2  0
 10 11  1  0
 11 12  1  0
 13 12  1  0
 14 13  1  1
 14 15  1  0
 16 18  1  0
 16 14  1  0
 17 16  2  0
 19 18  1  0
 19 27  1  0
 19 20  1  6
 21 22  2  0
 21 20  1  0
 23 22  1  0
 24 23  2  0
 25 24  1  0
 25 26  2  0
 26 21  1  0
 27 28  1  0
 29 27  2  0
M  END
$$$$
