KMF.pdb
     RDKit          3D

 29 29  0  0  1  0  0  0  0  0999 V2000
   28.8040  -21.2341  -14.2746 N   0  0  0  0  0  0  0  0  0  0  0  0
   27.6039  -20.5456  -14.2069 C   0  0  1  0  0  0  0  0  0  0  0  0
   26.6216  -20.4492  -15.2688 C   0  0  0  0  0  0  0  0  0  0  0  0
   26.9107  -20.2119  -16.6555 C   0  0  0  0  0  0  0  0  0  0  0  0
   28.0799  -20.5778  -17.3909 C   0  0  0  0  0  0  0  0  0  0  0  0
   28.3367  -20.4004  -18.8071 C   0  0  0  0  0  0  0  0  0  0  0  0
   28.8912  -19.2016  -19.2841 N   0  0  0  0  0  0  0  0  0  0  0  0
   26.8553  -20.9608  -12.9268 C   0  0  0  0  0  0  0  0  0  0  0  0
   25.9014  -21.7567  -13.0325 O   0  0  0  0  0  0  0  0  0  0  0  0
   29.1167  -19.6559   -7.0352 C   0  0  0  0  0  0  0  0  0  0  0  0
   27.3703  -19.7050   -6.6002 S   0  0  0  0  0  0  0  0  0  0  0  0
   26.4091  -20.4568   -7.9554 C   0  0  0  0  0  0  0  0  0  0  0  0
   27.1684  -20.2103   -9.2267 C   0  0  0  0  0  0  0  0  0  0  0  0
   26.4874  -20.7932  -10.4441 C   0  0  2  0  0  0  0  0  0  0  0  0
   27.2172  -20.4716  -11.6644 N   0  0  0  0  0  0  0  0  0  0  0  0
   25.1068  -20.3353  -10.6030 C   0  0  0  0  0  0  0  0  0  0  0  0
   24.8364  -19.1660  -10.9596 O   0  0  0  0  0  0  0  0  0  0  0  0
   24.0325  -21.2253  -10.3508 N   0  0  0  0  0  0  0  0  0  0  0  0
   22.6382  -20.7858  -10.3321 C   0  0  1  0  0  0  0  0  0  0  0  0
   21.9385  -21.3581  -11.5199 C   0  0  0  0  0  0  0  0  0  0  0  0
   22.1050  -20.6006  -12.7705 C   0  0  0  0  0  0  0  0  0  0  0  0
   23.0758  -20.9717  -13.6844 C   0  0  0  0  0  0  0  0  0  0  0  0
   23.2899  -20.3196  -14.8769 C   0  0  0  0  0  0  0  0  0  0  0  0
   22.4967  -19.2353  -15.1843 C   0  0  0  0  0  0  0  0  0  0  0  0
   21.5178  -18.8441  -14.2852 C   0  0  0  0  0  0  0  0  0  0  0  0
   21.3179  -19.5093  -13.0957 C   0  0  0  0  0  0  0  0  0  0  0  0
   21.9997  -21.2021   -9.0638 C   0  0  0  0  0  0  0  0  0  0  0  0
   20.6845  -20.9133   -8.7748 O   0  0  0  0  0  0  0  0  0  0  0  0
   22.6688  -21.8418   -8.2097 O   0  0  0  0  0  0  0  0  0  0  0  0
  2  1  1  6
  3  2  1  0
  4  3  1  0
  5  4  1  0
  6  5  1  0
  7  6  1  0
  8 15  1  0
  8  2  1  0
  9  8  2  0
 10 11  1  0
 11 12  1  0
 13 12  1  0
 14 13  1  1
 14 15  1  0
 16 18  1  0
 16 14  1  0
 17 16  2  0
 19 18  1  0
 19 27  1  0
 19 20  1  6
 21 22  2  0
 21 20  1  0
 23 22  1  0
 24 23  2  0
 25 24  1  0
 25 26  2  0
 26 21  1  0
 27 28  1  0
 29 27  2  0
M  END
$$$$
