KMF.pdb
     RDKit          3D

 29 29  0  0  1  0  0  0  0  0999 V2000
   26.4200  -22.5451  -18.6058 N   0  0  0  0  0  0  0  0  0  0  0  0
   27.7808  -22.5661  -18.3477 C   0  0  1  0  0  0  0  0  0  0  0  0
   28.8307  -22.3228  -19.3173 C   0  0  0  0  0  0  0  0  0  0  0  0
   28.8953  -21.2045  -20.2163 C   0  0  0  0  0  0  0  0  0  0  0  0
   28.9342  -19.8125  -19.8956 C   0  0  0  0  0  0  0  0  0  0  0  0
   28.1856  -18.7328  -20.5097 C   0  0  0  0  0  0  0  0  0  0  0  0
   27.5759  -18.9132  -21.7618 N   0  0  0  0  0  0  0  0  0  0  0  0
   28.0757  -21.6820  -17.1218 C   0  0  0  0  0  0  0  0  0  0  0  0
   29.2404  -21.6581  -16.6775 O   0  0  0  0  0  0  0  0  0  0  0  0
   27.4730  -15.7970  -16.8058 C   0  0  0  0  0  0  0  0  0  0  0  0
   26.9273  -15.9883  -15.1008 S   0  0  0  0  0  0  0  0  0  0  0  0
   27.2704  -17.6829  -14.5208 C   0  0  0  0  0  0  0  0  0  0  0  0
   27.0676  -18.6012  -15.6909 C   0  0  0  0  0  0  0  0  0  0  0  0
   27.3320  -20.0516  -15.3564 C   0  0  2  0  0  0  0  0  0  0  0  0
   27.0790  -20.9146  -16.5038 N   0  0  0  0  0  0  0  0  0  0  0  0
   26.5289  -20.5367  -14.2337 C   0  0  0  0  0  0  0  0  0  0  0  0
   25.2993  -20.7455  -14.3436 O   0  0  0  0  0  0  0  0  0  0  0  0
   27.1417  -20.7828  -12.9792 N   0  0  0  0  0  0  0  0  0  0  0  0
   26.3684  -20.9857  -11.7551 C   0  0  1  0  0  0  0  0  0  0  0  0
   27.3071  -21.0254  -10.5953 C   0  0  0  0  0  0  0  0  0  0  0  0
   26.6873  -20.8019   -9.2795 C   0  0  0  0  0  0  0  0  0  0  0  0
   26.9093  -19.6178   -8.5982 C   0  0  0  0  0  0  0  0  0  0  0  0
   26.3623  -19.3309   -7.3687 C   0  0  0  0  0  0  0  0  0  0  0  0
   25.5468  -20.2713   -6.7772 C   0  0  0  0  0  0  0  0  0  0  0  0
   25.3093  -21.4650   -7.4394 C   0  0  0  0  0  0  0  0  0  0  0  0
   25.8659  -21.7347   -8.6701 C   0  0  0  0  0  0  0  0  0  0  0  0
   25.3642  -19.9082  -11.6138 C   0  0  0  0  0  0  0  0  0  0  0  0
   25.6322  -18.6042  -11.9667 O   0  0  0  0  0  0  0  0  0  0  0  0
   24.2220  -20.1768  -11.1559 O   0  0  0  0  0  0  0  0  0  0  0  0
  2  1  1  6
  3  2  1  0
  4  3  1  0
  5  4  1  0
  6  5  1  0
  7  6  1  0
  8 15  1  0
  8  2  1  0
  9  8  2  0
 10 11  1  0
 11 12  1  0
 13 12  1  0
 14 13  1  6
 14 15  1  0
 16 18  1  0
 16 14  1  0
 17 16  2  0
 19 18  1  0
 19 27  1  0
 19 20  1  1
 21 22  2  0
 21 20  1  0
 23 22  1  0
 24 23  2  0
 25 24  1  0
 25 26  2  0
 26 21  1  0
 27 28  1  0
 29 27  2  0
M  END
$$$$
