KMF.pdb
     RDKit          3D

 29 29  0  0  1  0  0  0  0  0999 V2000
   22.3032  -21.5305  -13.3471 N   0  0  0  0  0  0  0  0  0  0  0  0
   23.0353  -20.4445  -12.8960 C   0  0  1  0  0  0  0  0  0  0  0  0
   22.4881  -19.1678  -12.4806 C   0  0  0  0  0  0  0  0  0  0  0  0
   21.8891  -18.1931  -13.3490 C   0  0  0  0  0  0  0  0  0  0  0  0
   22.1966  -17.9192  -14.7173 C   0  0  0  0  0  0  0  0  0  0  0  0
   21.5774  -16.9445  -15.5945 C   0  0  0  0  0  0  0  0  0  0  0  0
   20.1922  -16.7196  -15.5416 N   0  0  0  0  0  0  0  0  0  0  0  0
   24.0006  -20.9105  -11.7904 C   0  0  0  0  0  0  0  0  0  0  0  0
   23.5408  -21.5950  -10.8551 O   0  0  0  0  0  0  0  0  0  0  0  0
   30.0344  -21.8056  -13.1827 C   0  0  0  0  0  0  0  0  0  0  0  0
   30.3127  -21.8423  -11.4043 S   0  0  0  0  0  0  0  0  0  0  0  0
   28.7175  -21.8133  -10.5209 C   0  0  0  0  0  0  0  0  0  0  0  0
   27.6852  -21.3090  -11.4872 C   0  0  0  0  0  0  0  0  0  0  0  0
   26.3258  -21.1191  -10.8536 C   0  0  2  0  0  0  0  0  0  0  0  0
   25.3642  -20.5877  -11.8119 N   0  0  0  0  0  0  0  0  0  0  0  0
   26.3536  -20.2291   -9.6926 C   0  0  0  0  0  0  0  0  0  0  0  0
   26.2379  -18.9879   -9.8099 O   0  0  0  0  0  0  0  0  0  0  0  0
   26.5151  -20.7679   -8.3914 N   0  0  0  0  0  0  0  0  0  0  0  0
   27.1640  -20.0270   -7.3108 C   0  0  1  0  0  0  0  0  0  0  0  0
   26.8050  -20.6635   -6.0093 C   0  0  0  0  0  0  0  0  0  0  0  0
   27.4846  -20.1045   -4.8298 C   0  0  0  0  0  0  0  0  0  0  0  0
   26.9527  -19.0069   -4.1758 C   0  0  0  0  0  0  0  0  0  0  0  0
   27.5238  -18.4303   -3.0647 C   0  0  0  0  0  0  0  0  0  0  0  0
   28.6911  -18.9713   -2.5706 C   0  0  0  0  0  0  0  0  0  0  0  0
   29.2434  -20.0704   -3.2081 C   0  0  0  0  0  0  0  0  0  0  0  0
   28.6573  -20.6344   -4.3197 C   0  0  0  0  0  0  0  0  0  0  0  0
   28.6275  -20.0057   -7.5279 C   0  0  0  0  0  0  0  0  0  0  0  0
   29.3903  -18.8864   -7.2781 O   0  0  0  0  0  0  0  0  0  0  0  0
   29.2093  -21.0375   -7.9560 O   0  0  0  0  0  0  0  0  0  0  0  0
  2  1  1  1
  3  2  1  0
  4  3  1  0
  5  4  1  0
  6  5  1  0
  7  6  1  0
  8 15  1  0
  8  2  1  0
  9  8  2  0
 10 11  1  0
 11 12  1  0
 13 12  1  0
 14 13  1  6
 14 15  1  0
 16 18  1  0
 16 14  1  0
 17 16  2  0
 19 18  1  0
 19 27  1  0
 19 20  1  1
 21 22  2  0
 21 20  1  0
 23 22  1  0
 24 23  2  0
 25 24  1  0
 25 26  2  0
 26 21  1  0
 27 28  1  0
 29 27  2  0
M  END
$$$$
