KMF.pdb
     RDKit          3D

 29 29  0  0  1  0  0  0  0  0999 V2000
   25.7591  -30.6374    1.3698 N   0  0  0  0  0  0  0  0  0  0  0  0
   25.3248  -31.5136    2.3509 C   0  0  1  0  0  0  0  0  0  0  0  0
   25.1569  -32.9450    2.1942 C   0  0  0  0  0  0  0  0  0  0  0  0
   26.1710  -33.8622    1.7549 C   0  0  0  0  0  0  0  0  0  0  0  0
   26.0532  -35.2675    1.5239 C   0  0  0  0  0  0  0  0  0  0  0  0
   27.0789  -36.1879    1.0724 C   0  0  0  0  0  0  0  0  0  0  0  0
   26.7869  -37.5516    0.9068 N   0  0  0  0  0  0  0  0  0  0  0  0
   26.1498  -31.2867    3.6313 C   0  0  0  0  0  0  0  0  0  0  0  0
   27.3895  -31.4012    3.5630 O   0  0  0  0  0  0  0  0  0  0  0  0
   26.0545  -25.6153    7.8828 C   0  0  0  0  0  0  0  0  0  0  0  0
   25.5025  -27.3146    8.1045 S   0  0  0  0  0  0  0  0  0  0  0  0
   26.3052  -28.3981    6.8768 C   0  0  0  0  0  0  0  0  0  0  0  0
   25.6530  -29.7461    6.9821 C   0  0  0  0  0  0  0  0  0  0  0  0
   26.2964  -30.7849    6.0919 C   0  0  2  0  0  0  0  0  0  0  0  0
   25.5473  -30.9587    4.8534 N   0  0  0  0  0  0  0  0  0  0  0  0
   26.4242  -32.0923    6.7362 C   0  0  0  0  0  0  0  0  0  0  0  0
   26.0336  -33.1433    6.1791 O   0  0  0  0  0  0  0  0  0  0  0  0
   27.0033  -32.1920    8.0263 N   0  0  0  0  0  0  0  0  0  0  0  0
   27.1196  -33.4642    8.7373 C   0  0  1  0  0  0  0  0  0  0  0  0
   27.9628  -34.3917    7.9268 C   0  0  0  0  0  0  0  0  0  0  0  0
   28.2827  -35.6744    8.5733 C   0  0  0  0  0  0  0  0  0  0  0  0
   27.4177  -36.7482    8.4540 C   0  0  0  0  0  0  0  0  0  0  0  0
   27.6477  -37.9799    9.0225 C   0  0  0  0  0  0  0  0  0  0  0  0
   28.8022  -38.1607    9.7531 C   0  0  0  0  0  0  0  0  0  0  0  0
   29.6841  -37.1006    9.8872 C   0  0  0  0  0  0  0  0  0  0  0  0
   29.4370  -35.8743    9.3107 C   0  0  0  0  0  0  0  0  0  0  0  0
   27.6912  -33.2347   10.0827 C   0  0  0  0  0  0  0  0  0  0  0  0
   27.4421  -34.0812   11.1402 O   0  0  0  0  0  0  0  0  0  0  0  0
   28.4312  -32.2355   10.2834 O   0  0  0  0  0  0  0  0  0  0  0  0
  2  1  1  6
  3  2  1  0
  4  3  1  0
  5  4  1  0
  6  5  1  0
  7  6  1  0
  8 15  1  0
  8  2  1  0
  9  8  2  0
 10 11  1  0
 11 12  1  0
 13 12  1  0
 14 13  1  1
 14 15  1  0
 16 18  1  0
 16 14  1  0
 17 16  2  0
 19 18  1  0
 19 27  1  0
 19 20  1  6
 21 22  2  0
 21 20  1  0
 23 22  1  0
 24 23  2  0
 25 24  1  0
 25 26  2  0
 26 21  1  0
 27 28  1  0
 29 27  2  0
M  END
$$$$
