KMF.pdb
     RDKit          3D

 29 29  0  0  1  0  0  0  0  0999 V2000
   28.1098  -20.6791  -15.3018 N   0  0  0  0  0  0  0  0  0  0  0  0
   27.6056  -19.8007  -14.3567 C   0  0  1  0  0  0  0  0  0  0  0  0
   26.8427  -18.6005  -14.6376 C   0  0  0  0  0  0  0  0  0  0  0  0
   27.2725  -17.5133  -15.4721 C   0  0  0  0  0  0  0  0  0  0  0  0
   28.3867  -17.4706  -16.3656 C   0  0  0  0  0  0  0  0  0  0  0  0
   28.8420  -16.3557  -17.1736 C   0  0  0  0  0  0  0  0  0  0  0  0
   29.8848  -16.5273  -18.0984 N   0  0  0  0  0  0  0  0  0  0  0  0
   26.8307  -20.5969  -13.2904 C   0  0  0  0  0  0  0  0  0  0  0  0
   26.2191  -21.6228  -13.6482 O   0  0  0  0  0  0  0  0  0  0  0  0
   27.7314  -20.0411   -6.9715 C   0  0  0  0  0  0  0  0  0  0  0  0
   25.9703  -20.4077   -6.8982 S   0  0  0  0  0  0  0  0  0  0  0  0
   25.3880  -21.0062   -8.5195 C   0  0  0  0  0  0  0  0  0  0  0  0
   26.2151  -20.3203   -9.5679 C   0  0  0  0  0  0  0  0  0  0  0  0
   25.8632  -20.7516  -10.9735 C   0  0  2  0  0  0  0  0  0  0  0  0
   26.7983  -20.2002  -11.9466 N   0  0  0  0  0  0  0  0  0  0  0  0
   24.5093  -20.3640  -11.3701 C   0  0  0  0  0  0  0  0  0  0  0  0
   24.2164  -19.1783  -11.6457 O   0  0  0  0  0  0  0  0  0  0  0  0
   23.4875  -21.3434  -11.4504 N   0  0  0  0  0  0  0  0  0  0  0  0
   22.1135  -21.0142  -11.8264 C   0  0  1  0  0  0  0  0  0  0  0  0
   21.7946  -21.6896  -13.1188 C   0  0  0  0  0  0  0  0  0  0  0  0
   22.2020  -20.9551  -14.3271 C   0  0  0  0  0  0  0  0  0  0  0  0
   21.3255  -20.0717  -14.9327 C   0  0  0  0  0  0  0  0  0  0  0  0
   21.6327  -19.3440  -16.0593 C   0  0  0  0  0  0  0  0  0  0  0  0
   22.8816  -19.4992  -16.6210 C   0  0  0  0  0  0  0  0  0  0  0  0
   23.7770  -20.3780  -16.0332 C   0  0  0  0  0  0  0  0  0  0  0  0
   23.4516  -21.0982  -14.9051 C   0  0  0  0  0  0  0  0  0  0  0  0
   21.1878  -21.4249  -10.7477 C   0  0  0  0  0  0  0  0  0  0  0  0
   19.8301  -21.2058  -10.8226 O   0  0  0  0  0  0  0  0  0  0  0  0
   21.6417  -21.9941   -9.7199 O   0  0  0  0  0  0  0  0  0  0  0  0
  2  1  1  6
  3  2  1  0
  4  3  1  0
  5  4  1  0
  6  5  1  0
  7  6  1  0
  8 15  1  0
  8  2  1  0
  9  8  2  0
 10 11  1  0
 11 12  1  0
 13 12  1  0
 14 13  1  1
 14 15  1  0
 16 18  1  0
 16 14  1  0
 17 16  2  0
 19 18  1  0
 19 27  1  0
 19 20  1  6
 21 22  2  0
 21 20  1  0
 23 22  1  0
 24 23  2  0
 25 24  1  0
 25 26  2  0
 26 21  1  0
 27 28  1  0
 29 27  2  0
M  END
$$$$
