KMF.pdb
     RDKit          3D

 29 29  0  0  1  0  0  0  0  0999 V2000
   21.7233  -12.7080  -18.7182 N   0  0  0  0  0  0  0  0  0  0  0  0
   20.9351  -11.6913  -18.2044 C   0  0  1  0  0  0  0  0  0  0  0  0
   19.5520  -11.8191  -17.7894 C   0  0  0  0  0  0  0  0  0  0  0  0
   18.5895  -12.7221  -18.3562 C   0  0  0  0  0  0  0  0  0  0  0  0
   17.8230  -13.7291  -17.6927 C   0  0  0  0  0  0  0  0  0  0  0  0
   16.8124  -14.6012  -18.2594 C   0  0  0  0  0  0  0  0  0  0  0  0
   16.7425  -14.7996  -19.6478 N   0  0  0  0  0  0  0  0  0  0  0  0
   21.6939  -10.9936  -17.0603 C   0  0  0  0  0  0  0  0  0  0  0  0
   21.0457  -10.6230  -16.0617 O   0  0  0  0  0  0  0  0  0  0  0  0
   27.9566  -12.1346  -14.4824 C   0  0  0  0  0  0  0  0  0  0  0  0
   27.2050  -12.4252  -16.0923 S   0  0  0  0  0  0  0  0  0  0  0  0
   25.4187  -12.0645  -16.0228 C   0  0  0  0  0  0  0  0  0  0  0  0
   25.2678  -10.5710  -16.0333 C   0  0  0  0  0  0  0  0  0  0  0  0
   23.8238  -10.1232  -16.0437 C   0  0  2  0  0  0  0  0  0  0  0  0
   23.0763  -10.7697  -17.1153 N   0  0  0  0  0  0  0  0  0  0  0  0
   23.6736   -8.6752  -16.1907 C   0  0  0  0  0  0  0  0  0  0  0  0
   24.0256   -8.0779  -17.2332 O   0  0  0  0  0  0  0  0  0  0  0  0
   23.1164   -7.9106  -15.1349 N   0  0  0  0  0  0  0  0  0  0  0  0
   22.8735   -6.4735  -15.2510 C   0  0  1  0  0  0  0  0  0  0  0  0
   22.0369   -6.2245  -16.4619 C   0  0  0  0  0  0  0  0  0  0  0  0
   21.6620   -4.8193  -16.6864 C   0  0  0  0  0  0  0  0  0  0  0  0
   20.3681   -4.3963  -16.4368 C   0  0  0  0  0  0  0  0  0  0  0  0
   19.9413   -3.1005  -16.6157 C   0  0  0  0  0  0  0  0  0  0  0  0
   20.8483   -2.1669  -17.0687 C   0  0  0  0  0  0  0  0  0  0  0  0
   22.1499   -2.5660  -17.3259 C   0  0  0  0  0  0  0  0  0  0  0  0
   22.5591   -3.8682  -17.1409 C   0  0  0  0  0  0  0  0  0  0  0  0
   22.2214   -5.9756  -14.0197 C   0  0  0  0  0  0  0  0  0  0  0  0
   22.4451   -4.7070  -13.5323 O   0  0  0  0  0  0  0  0  0  0  0  0
   21.4338   -6.7255  -13.3844 O   0  0  0  0  0  0  0  0  0  0  0  0
  2  1  1  1
  3  2  1  0
  4  3  1  0
  5  4  1  0
  6  5  1  0
  7  6  1  0
  8 15  1  0
  8  2  1  0
  9  8  2  0
 10 11  1  0
 11 12  1  0
 13 12  1  0
 14 13  1  6
 14 15  1  0
 16 18  1  0
 16 14  1  0
 17 16  2  0
 19 18  1  0
 19 27  1  0
 19 20  1  6
 21 22  2  0
 21 20  1  0
 23 22  1  0
 24 23  2  0
 25 24  1  0
 25 26  2  0
 26 21  1  0
 27 28  1  0
 29 27  2  0
M  END
$$$$
