KMF.pdb
     RDKit          3D

 29 29  0  0  1  0  0  0  0  0999 V2000
   26.1900  -21.5992  -16.8449 N   0  0  0  0  0  0  0  0  0  0  0  0
   26.6608  -22.1762  -15.6768 C   0  0  1  0  0  0  0  0  0  0  0  0
   27.9718  -22.7668  -15.4923 C   0  0  0  0  0  0  0  0  0  0  0  0
   28.5071  -23.8654  -16.2469 C   0  0  0  0  0  0  0  0  0  0  0  0
   27.9458  -25.1658  -16.4361 C   0  0  0  0  0  0  0  0  0  0  0  0
   28.4836  -26.2670  -17.2115 C   0  0  0  0  0  0  0  0  0  0  0  0
   29.3551  -27.1948  -16.6184 N   0  0  0  0  0  0  0  0  0  0  0  0
   26.4267  -21.2054  -14.5045 C   0  0  0  0  0  0  0  0  0  0  0  0
   26.8767  -20.0465  -14.5988 O   0  0  0  0  0  0  0  0  0  0  0  0
   20.7780  -18.6040  -14.4770 C   0  0  0  0  0  0  0  0  0  0  0  0
   21.5548  -19.3605  -13.0397 S   0  0  0  0  0  0  0  0  0  0  0  0
   23.3326  -19.6189  -13.3531 C   0  0  0  0  0  0  0  0  0  0  0  0
   23.8623  -20.4624  -12.2300 C   0  0  0  0  0  0  0  0  0  0  0  0
   25.3603  -20.6572  -12.2932 C   0  0  2  0  0  0  0  0  0  0  0  0
   25.7291  -21.5897  -13.3513 N   0  0  0  0  0  0  0  0  0  0  0  0
   25.9286  -21.1443  -11.0361 C   0  0  0  0  0  0  0  0  0  0  0  0
   25.9038  -22.3574  -10.7270 O   0  0  0  0  0  0  0  0  0  0  0  0
   26.5280  -20.2333  -10.1303 N   0  0  0  0  0  0  0  0  0  0  0  0
   26.9054  -20.6139   -8.7700 C   0  0  1  0  0  0  0  0  0  0  0  0
   27.9521  -19.6691   -8.2801 C   0  0  0  0  0  0  0  0  0  0  0  0
   28.3485  -19.8472   -6.8742 C   0  0  0  0  0  0  0  0  0  0  0  0
   29.2522  -20.8360   -6.5263 C   0  0  0  0  0  0  0  0  0  0  0  0
   29.6770  -21.0620   -5.2372 C   0  0  0  0  0  0  0  0  0  0  0  0
   29.1783  -20.2623   -4.2317 C   0  0  0  0  0  0  0  0  0  0  0  0
   28.2720  -19.2654   -4.5547 C   0  0  0  0  0  0  0  0  0  0  0  0
   27.8581  -19.0539   -5.8513 C   0  0  0  0  0  0  0  0  0  0  0  0
   25.7090  -20.6094   -7.8994 C   0  0  0  0  0  0  0  0  0  0  0  0
   25.5526  -21.5019   -6.8622 O   0  0  0  0  0  0  0  0  0  0  0  0
   24.7940  -19.7678   -8.1017 O   0  0  0  0  0  0  0  0  0  0  0  0
  2  1  1  6
  3  2  1  0
  4  3  1  0
  5  4  1  0
  6  5  1  0
  7  6  1  0
  8 15  1  0
  8  2  1  0
  9  8  2  0
 10 11  1  0
 11 12  1  0
 13 12  1  0
 14 13  1  1
 14 15  1  0
 16 18  1  0
 16 14  1  0
 17 16  2  0
 19 18  1  0
 19 27  1  0
 19 20  1  1
 21 22  2  0
 21 20  1  0
 23 22  1  0
 24 23  2  0
 25 24  1  0
 25 26  2  0
 26 21  1  0
 27 28  1  0
 29 27  2  0
M  END
$$$$
