YIC.pdb
     RDKit          3D

 27 27  0  0  1  0  0  0  0  0999 V2000
   12.7268  -17.1812   32.2312 O   0  0  0  0  0  0  0  0  0  0  0  0
   12.0753  -17.0299   31.0347 C   0  0  0  0  0  0  0  0  0  0  0  0
   11.2511  -15.9554   30.8336 C   0  0  0  0  0  0  0  0  0  0  0  0
   10.5824  -15.7812   29.6334 C   0  0  0  0  0  0  0  0  0  0  0  0
   10.7444  -16.6997   28.6217 C   0  0  0  0  0  0  0  0  0  0  0  0
   10.0145  -16.4810   27.3542 C   0  0  0  0  0  0  0  0  0  0  0  0
    8.6370  -17.0941   27.3769 C   0  0  2  0  0  0  0  0  0  0  0  0
    8.6965  -18.5198   27.4430 N   0  0  0  0  0  0  0  0  0  0  0  0
    7.9587  -16.6338   26.1053 C   0  0  0  0  0  0  0  0  0  0  0  0
    7.6065  -17.4755   25.2736 O   0  0  0  0  0  0  0  0  0  0  0  0
   11.5709  -17.7961   28.7956 C   0  0  0  0  0  0  0  0  0  0  0  0
   12.2195  -17.9393   29.9978 C   0  0  0  0  0  0  0  0  0  0  0  0
    7.0844  -11.3952   26.7249 C   0  0  0  0  0  0  0  0  0  0  0  0
    6.4189  -12.6156   26.1352 C   0  0  0  0  0  0  0  0  0  0  0  0
    7.2093  -13.1188   24.9153 C   0  0  2  0  0  0  0  0  0  0  0  0
    6.4778  -12.4908   23.7455 C   0  0  0  0  0  0  0  0  0  0  0  0
    7.0844  -14.6157   24.7965 C   0  0  2  0  0  0  0  0  0  0  0  0
    7.7544  -15.2791   25.9155 N   0  0  0  0  0  0  0  0  0  0  0  0
    7.5643  -15.1213   23.5269 C   0  0  0  0  0  0  0  0  0  0  0  0
    6.7108  -15.3254   22.5508 O   0  0  0  0  0  0  0  0  0  0  0  0
    8.8760  -15.4293   23.1797 N   0  0  0  0  0  0  0  0  0  0  0  0
    9.3076  -15.7094   21.8166 C   0  0  1  0  0  0  0  0  0  0  0  0
    9.1543  -14.4981   20.9262 C   0  0  0  0  0  0  0  0  0  0  0  0
    7.4476  -14.5137   20.2966 S   0  0  0  0  0  0  0  0  0  0  0  0
   10.7380  -16.0457   21.8367 C   0  0  0  0  0  0  0  0  0  0  0  0
   11.3680  -16.0995   22.9122 O   0  0  0  0  0  0  0  0  0  0  0  0
   11.4026  -16.3061   20.6687 O   0  0  0  0  0  0  0  0  0  0  0  0
  2  1  1  0
  3  2  2  0
  4  3  1  0
  5 11  1  0
  5  4  2  0
  6  7  1  0
  6  5  1  0
  7  8  1  6
  9 10  2  0
  9  7  1  0
 11 12  2  0
 12  2  1  0
 14 13  1  0
 14 15  1  0
 15 17  1  0
 15 16  1  6
 17 18  1  1
 18  9  1  0
 19 17  1  0
 20 19  2  0
 21 19  1  0
 22 21  1  0
 22 23  1  6
 23 24  1  0
 25 27  1  0
 25 22  1  0
 26 25  2  0
M  END
$$$$
