YIC.pdb
     RDKit          3D

 27 27  0  0  1  0  0  0  0  0999 V2000
    6.9729  -23.0900   29.8176 O   0  0  0  0  0  0  0  0  0  0  0  0
    7.1028  -22.1393   28.8388 C   0  0  0  0  0  0  0  0  0  0  0  0
    7.4193  -22.5105   27.5597 C   0  0  0  0  0  0  0  0  0  0  0  0
    7.5559  -21.5680   26.5541 C   0  0  0  0  0  0  0  0  0  0  0  0
    7.3718  -20.2343   26.8384 C   0  0  0  0  0  0  0  0  0  0  0  0
    7.5258  -19.2567   25.7395 C   0  0  0  0  0  0  0  0  0  0  0  0
    6.1991  -18.7214   25.2630 C   0  0  2  0  0  0  0  0  0  0  0  0
    5.5260  -19.6576   24.4198 N   0  0  0  0  0  0  0  0  0  0  0  0
    6.5127  -17.4423   24.5184 C   0  0  0  0  0  0  0  0  0  0  0  0
    6.4182  -17.4250   23.2875 O   0  0  0  0  0  0  0  0  0  0  0  0
    7.0512  -19.8287   28.1221 C   0  0  0  0  0  0  0  0  0  0  0  0
    6.9231  -20.7885   29.0962 C   0  0  0  0  0  0  0  0  0  0  0  0
    5.7757  -12.8572   27.2013 C   0  0  0  0  0  0  0  0  0  0  0  0
    5.9756  -13.6393   25.9253 C   0  0  0  0  0  0  0  0  0  0  0  0
    7.4589  -14.0073   25.7504 C   0  0  2  0  0  0  0  0  0  0  0  0
    8.0533  -12.7612   25.1244 C   0  0  0  0  0  0  0  0  0  0  0  0
    7.6010  -15.1392   24.7661 C   0  0  2  0  0  0  0  0  0  0  0  0
    6.8967  -16.3294   25.2442 N   0  0  0  0  0  0  0  0  0  0  0  0
    8.9823  -15.4413   24.4517 C   0  0  0  0  0  0  0  0  0  0  0  0
    9.7988  -15.7987   25.4153 O   0  0  0  0  0  0  0  0  0  0  0  0
    9.5922  -15.4103   23.2016 N   0  0  0  0  0  0  0  0  0  0  0  0
   10.9095  -15.9703   22.9299 C   0  0  1  0  0  0  0  0  0  0  0  0
   11.0006  -16.5171   21.5241 C   0  0  0  0  0  0  0  0  0  0  0  0
    9.7672  -17.8474   21.3901 S   0  0  0  0  0  0  0  0  0  0  0  0
   11.9071  -14.8965   23.0355 C   0  0  0  0  0  0  0  0  0  0  0  0
   11.5556  -13.7059   23.1599 O   0  0  0  0  0  0  0  0  0  0  0  0
   13.2437  -15.1896   22.9986 O   0  0  0  0  0  0  0  0  0  0  0  0
  2  1  1  0
  3  2  2  0
  4  3  1  0
  5 11  1  0
  5  4  2  0
  6  7  1  0
  6  5  1  0
  7  8  1  6
  9 10  2  0
  9  7  1  0
 11 12  2  0
 12  2  1  0
 14 13  1  0
 14 15  1  0
 15 17  1  0
 15 16  1  6
 17 18  1  1
 18  9  1  0
 19 17  1  0
 20 19  2  0
 21 19  1  0
 22 21  1  0
 22 23  1  6
 23 24  1  0
 25 27  1  0
 25 22  1  0
 26 25  2  0
M  END
$$$$
