YIC.pdb
     RDKit          3D

 27 27  0  0  1  0  0  0  0  0999 V2000
    6.7616  -23.6483   29.2091 O   0  0  0  0  0  0  0  0  0  0  0  0
    6.9418  -22.4924   28.4948 C   0  0  0  0  0  0  0  0  0  0  0  0
    7.6747  -22.5078   27.3386 C   0  0  0  0  0  0  0  0  0  0  0  0
    7.8704  -21.3526   26.5999 C   0  0  0  0  0  0  0  0  0  0  0  0
    7.3219  -20.1661   27.0296 C   0  0  0  0  0  0  0  0  0  0  0  0
    7.5518  -18.9532   26.2152 C   0  0  0  0  0  0  0  0  0  0  0  0
    6.2876  -18.4607   25.5572 C   0  0  2  0  0  0  0  0  0  0  0  0
    5.6776  -19.4781   24.7615 N   0  0  0  0  0  0  0  0  0  0  0  0
    6.6972  -17.2761   24.7098 C   0  0  0  0  0  0  0  0  0  0  0  0
    6.8239  -17.4246   23.4908 O   0  0  0  0  0  0  0  0  0  0  0  0
    6.5762  -20.1194   28.1946 C   0  0  0  0  0  0  0  0  0  0  0  0
    6.4011  -21.2826   28.9036 C   0  0  0  0  0  0  0  0  0  0  0  0
    5.5366  -12.3825   26.5933 C   0  0  0  0  0  0  0  0  0  0  0  0
    5.9814  -13.2811   25.4643 C   0  0  0  0  0  0  0  0  0  0  0  0
    7.4486  -13.6994   25.6601 C   0  0  2  0  0  0  0  0  0  0  0  0
    8.2215  -12.5523   25.0400 C   0  0  0  0  0  0  0  0  0  0  0  0
    7.7440  -14.9460   24.8669 C   0  0  2  0  0  0  0  0  0  0  0  0
    6.9172  -16.0603   25.3314 N   0  0  0  0  0  0  0  0  0  0  0  0
    9.1486  -15.2991   24.8761 C   0  0  0  0  0  0  0  0  0  0  0  0
    9.7603  -15.4776   26.0237 O   0  0  0  0  0  0  0  0  0  0  0  0
    9.9801  -15.4926   23.7774 N   0  0  0  0  0  0  0  0  0  0  0  0
   11.3489  -15.9818   23.8749 C   0  0  1  0  0  0  0  0  0  0  0  0
   11.3939  -17.4894   23.9685 C   0  0  0  0  0  0  0  0  0  0  0  0
   11.2895  -17.9158   25.7339 S   0  0  0  0  0  0  0  0  0  0  0  0
   12.0693  -15.6089   22.6495 C   0  0  0  0  0  0  0  0  0  0  0  0
   11.4613  -15.1352   21.6684 O   0  0  0  0  0  0  0  0  0  0  0  0
   13.4252  -15.7772   22.5673 O   0  0  0  0  0  0  0  0  0  0  0  0
  2  1  1  0
  3  2  2  0
  4  3  1  0
  5 11  1  0
  5  4  2  0
  6  7  1  0
  6  5  1  0
  7  8  1  6
  9 10  2  0
  9  7  1  0
 11 12  2  0
 12  2  1  0
 14 13  1  0
 14 15  1  0
 15 17  1  0
 15 16  1  6
 17 18  1  1
 18  9  1  0
 19 17  1  0
 20 19  2  0
 21 19  1  0
 22 21  1  0
 22 23  1  6
 23 24  1  0
 25 27  1  0
 25 22  1  0
 26 25  2  0
M  END
$$$$
