SYY.pdb
     RDKit          3D

 31 32  0  0  1  0  0  0  0  0999 V2000
    7.9771  -19.7271   21.7830 O   0  0  0  0  0  0  0  0  0  0  0  0
    6.9660  -19.0569   21.1166 C   0  0  0  0  0  0  0  0  0  0  0  0
    7.4951  -18.3171   19.8936 C   0  0  2  0  0  0  0  0  0  0  0  0
    7.9248  -19.2544   18.9014 N   0  0  0  0  0  0  0  0  0  0  0  0
    8.5891  -17.4188   20.3113 C   0  0  0  0  0  0  0  0  0  0  0  0
    9.7913  -17.7043   20.0110 O   0  0  0  0  0  0  0  0  0  0  0  0
    7.6664  -13.8421   15.5320 O   0  0  0  0  0  0  0  0  0  0  0  0
    8.0362  -13.8569   16.8762 C   0  0  0  0  0  0  0  0  0  0  0  0
    7.0910  -13.8298   17.8935 C   0  0  0  0  0  0  0  0  0  0  0  0
    7.4259  -13.8434   19.2243 C   0  0  0  0  0  0  0  0  0  0  0  0
    8.7628  -13.8862   19.5821 C   0  0  0  0  0  0  0  0  0  0  0  0
    9.1947  -13.9049   21.0019 C   0  0  0  0  0  0  0  0  0  0  0  0
    9.5016  -15.3448   21.3514 C   0  0  2  0  0  0  0  0  0  0  0  0
    8.4007  -16.2231   21.0451 N   0  0  0  0  0  0  0  0  0  0  0  0
    9.7732  -15.4794   22.8292 C   0  0  0  0  0  0  0  0  0  0  0  0
   10.7859  -14.9436   23.3487 O   0  0  0  0  0  0  0  0  0  0  0  0
    9.7523  -13.9149   18.5980 C   0  0  0  0  0  0  0  0  0  0  0  0
    9.3560  -13.8993   17.2757 C   0  0  0  0  0  0  0  0  0  0  0  0
    5.9870  -11.5781   29.2013 O   0  0  0  0  0  0  0  0  0  0  0  0
    6.4167  -12.2310   28.0454 C   0  0  0  0  0  0  0  0  0  0  0  0
    7.5784  -12.9732   28.0456 C   0  0  0  0  0  0  0  0  0  0  0  0
    8.0069  -13.6208   26.9037 C   0  0  0  0  0  0  0  0  0  0  0  0
    7.3212  -13.5732   25.7093 C   0  0  0  0  0  0  0  0  0  0  0  0
    7.7783  -14.2584   24.4805 C   0  0  0  0  0  0  0  0  0  0  0  0
    8.4024  -15.5995   24.8808 C   0  0  2  0  0  0  0  0  0  0  0  0
    8.8840  -16.2156   23.6514 N   0  0  0  0  0  0  0  0  0  0  0  0
    7.4770  -16.4801   25.6004 C   0  0  0  0  0  0  0  0  0  0  0  0
    6.5404  -17.2431   24.8873 O   0  0  0  0  0  0  0  0  0  0  0  0
    6.1426  -12.8153   25.7248 C   0  0  0  0  0  0  0  0  0  0  0  0
    5.7123  -12.1680   26.8628 C   0  0  0  0  0  0  0  0  0  0  0  0
    7.4760  -16.5918   26.8483 O   0  0  0  0  0  0  0  0  0  0  0  0
  2  1  1  0
  3  5  1  0
  3  2  1  0
  3  4  1  6
  5  6  2  0
  8  7  1  0
  8  9  2  0
 10  9  1  0
 11 10  2  0
 12 11  1  0
 13 12  1  1
 14 13  1  0
 14  5  1  0
 15 16  2  0
 15 13  1  0
 17 18  2  0
 17 11  1  0
 18  8  1  0
 19 20  1  0
 20 30  2  0
 21 22  2  0
 21 20  1  0
 22 23  1  0
 23 24  1  0
 23 29  2  0
 25 24  1  6
 25 27  1  0
 25 26  1  0
 26 15  1  0
 27 28  1  0
 30 29  1  0
 31 27  2  0
M  END
$$$$
