SYY.pdb
     RDKit          3D

 31 32  0  0  1  0  0  0  0  0999 V2000
    9.2818  -19.8843   22.7699 O   0  0  0  0  0  0  0  0  0  0  0  0
    7.9967  -19.6290   22.3239 C   0  0  0  0  0  0  0  0  0  0  0  0
    7.9923  -18.6456   21.1596 C   0  0  2  0  0  0  0  0  0  0  0  0
    8.6768  -19.2112   20.0374 N   0  0  0  0  0  0  0  0  0  0  0  0
    8.6094  -17.3788   21.5982 C   0  0  0  0  0  0  0  0  0  0  0  0
    9.7860  -17.0831   21.2171 O   0  0  0  0  0  0  0  0  0  0  0  0
    8.0518  -13.4048   16.6991 O   0  0  0  0  0  0  0  0  0  0  0  0
    7.9696  -13.5510   18.0832 C   0  0  0  0  0  0  0  0  0  0  0  0
    9.1015  -13.5314   18.8876 C   0  0  0  0  0  0  0  0  0  0  0  0
    9.0506  -13.6730   20.2517 C   0  0  0  0  0  0  0  0  0  0  0  0
    7.8213  -13.8436   20.8658 C   0  0  0  0  0  0  0  0  0  0  0  0
    7.6940  -14.0008   22.3361 C   0  0  0  0  0  0  0  0  0  0  0  0
    8.5810  -15.1599   22.7350 C   0  0  2  0  0  0  0  0  0  0  0  0
    7.9742  -16.4332   22.4387 N   0  0  0  0  0  0  0  0  0  0  0  0
    8.8431  -15.1329   24.2203 C   0  0  0  0  0  0  0  0  0  0  0  0
    8.5736  -14.1111   24.9028 O   0  0  0  0  0  0  0  0  0  0  0  0
    6.6530  -13.8705   20.1025 C   0  0  0  0  0  0  0  0  0  0  0  0
    6.7657  -13.7232   18.7344 C   0  0  0  0  0  0  0  0  0  0  0  0
    6.6033  -10.5998   26.2719 O   0  0  0  0  0  0  0  0  0  0  0  0
    6.9754  -11.9366   26.4183 C   0  0  0  0  0  0  0  0  0  0  0  0
    7.6429  -12.3629   27.5466 C   0  0  0  0  0  0  0  0  0  0  0  0
    8.0127  -13.6851   27.6953 C   0  0  0  0  0  0  0  0  0  0  0  0
    7.7480  -14.6515   26.7492 C   0  0  0  0  0  0  0  0  0  0  0  0
    8.1477  -16.0679   26.8986 C   0  0  0  0  0  0  0  0  0  0  0  0
    9.5540  -16.2357   26.3134 C   0  0  2  0  0  0  0  0  0  0  0  0
    9.3991  -16.2661   24.8650 N   0  0  0  0  0  0  0  0  0  0  0  0
   10.2514  -17.4270   26.8077 C   0  0  0  0  0  0  0  0  0  0  0  0
   10.3056  -18.5843   26.0167 O   0  0  0  0  0  0  0  0  0  0  0  0
    7.0690  -14.2030   25.6083 C   0  0  0  0  0  0  0  0  0  0  0  0
    6.6985  -12.8843   25.4572 C   0  0  0  0  0  0  0  0  0  0  0  0
   10.8157  -17.4700   27.9254 O   0  0  0  0  0  0  0  0  0  0  0  0
  2  1  1  0
  3  5  1  0
  3  2  1  0
  3  4  1  6
  5  6  2  0
  8  7  1  0
  8  9  2  0
 10  9  1  0
 11 10  2  0
 12 11  1  0
 13 12  1  1
 14 13  1  0
 14  5  1  0
 15 16  2  0
 15 13  1  0
 17 18  2  0
 17 11  1  0
 18  8  1  0
 19 20  1  0
 20 30  2  0
 21 22  2  0
 21 20  1  0
 22 23  1  0
 23 24  1  0
 23 29  2  0
 25 24  1  1
 25 27  1  0
 25 26  1  0
 26 15  1  0
 27 28  1  0
 30 29  1  0
 31 27  2  0
M  END
$$$$
