SYY.pdb
     RDKit          3D

 31 32  0  0  1  0  0  0  0  0999 V2000
    9.8801  -17.5873   16.0392 O   0  0  0  0  0  0  0  0  0  0  0  0
    8.6311  -16.9947   15.9732 C   0  0  0  0  0  0  0  0  0  0  0  0
    8.7154  -15.5660   15.4491 C   0  0  2  0  0  0  0  0  0  0  0  0
    9.2040  -15.5652   14.1041 N   0  0  0  0  0  0  0  0  0  0  0  0
    9.5780  -14.7746   16.3477 C   0  0  0  0  0  0  0  0  0  0  0  0
   10.7722  -14.5056   16.0032 O   0  0  0  0  0  0  0  0  0  0  0  0
    5.8176  -15.9128   22.4601 O   0  0  0  0  0  0  0  0  0  0  0  0
    6.6935  -15.1155   21.7247 C   0  0  0  0  0  0  0  0  0  0  0  0
    7.8971  -14.6711   22.2564 C   0  0  0  0  0  0  0  0  0  0  0  0
    8.7780  -13.8857   21.5561 C   0  0  0  0  0  0  0  0  0  0  0  0
    8.4646  -13.5127   20.2600 C   0  0  0  0  0  0  0  0  0  0  0  0
    9.3723  -12.6666   19.4458 C   0  0  0  0  0  0  0  0  0  0  0  0
   10.0865  -13.5869   18.4802 C   0  0  2  0  0  0  0  0  0  0  0  0
    9.1683  -14.2732   17.6065 N   0  0  0  0  0  0  0  0  0  0  0  0
   10.8513  -14.6465   19.2338 C   0  0  0  0  0  0  0  0  0  0  0  0
   10.4981  -15.8528   19.1842 O   0  0  0  0  0  0  0  0  0  0  0  0
    7.2671  -13.9329   19.6788 C   0  0  0  0  0  0  0  0  0  0  0  0
    6.4198  -14.7215   20.4312 C   0  0  0  0  0  0  0  0  0  0  0  0
   16.1639  -15.8441   15.4988 O   0  0  0  0  0  0  0  0  0  0  0  0
   15.6697  -15.6436   16.7882 C   0  0  0  0  0  0  0  0  0  0  0  0
   15.2833  -14.3886   17.2078 C   0  0  0  0  0  0  0  0  0  0  0  0
   14.7936  -14.1861   18.4829 C   0  0  0  0  0  0  0  0  0  0  0  0
   14.6591  -15.1995   19.4072 C   0  0  0  0  0  0  0  0  0  0  0  0
   14.1424  -14.9885   20.7771 C   0  0  0  0  0  0  0  0  0  0  0  0
   12.6482  -15.3284   20.7858 C   0  0  2  0  0  0  0  0  0  0  0  0
   11.9826  -14.2903   20.0098 N   0  0  0  0  0  0  0  0  0  0  0  0
   12.0849  -15.4399   22.1349 C   0  0  0  0  0  0  0  0  0  0  0  0
   12.5758  -16.4114   23.0198 O   0  0  0  0  0  0  0  0  0  0  0  0
   15.0557  -16.4692   18.9661 C   0  0  0  0  0  0  0  0  0  0  0  0
   15.5446  -16.6744   17.6941 C   0  0  0  0  0  0  0  0  0  0  0  0
   11.1661  -14.6972   22.5518 O   0  0  0  0  0  0  0  0  0  0  0  0
  2  1  1  0
  3  5  1  0
  3  2  1  0
  3  4  1  6
  5  6  2  0
  8  7  1  0
  8  9  2  0
 10  9  1  0
 11 10  2  0
 12 11  1  0
 13 12  1  1
 14 13  1  0
 14  5  1  0
 15 16  2  0
 15 13  1  0
 17 18  2  0
 17 11  1  0
 18  8  1  0
 19 20  1  0
 20 30  2  0
 21 22  2  0
 21 20  1  0
 22 23  1  0
 23 24  1  0
 23 29  2  0
 25 24  1  1
 25 27  1  0
 25 26  1  0
 26 15  1  0
 27 28  1  0
 30 29  1  0
 31 27  2  0
M  END
$$$$
