SYY.pdb
     RDKit          3D

 31 32  0  0  1  0  0  0  0  0999 V2000
    8.4777  -19.5233   21.2516 O   0  0  0  0  0  0  0  0  0  0  0  0
    7.8874  -18.7745   20.2484 C   0  0  0  0  0  0  0  0  0  0  0  0
    8.6514  -17.4811   19.9909 C   0  0  2  0  0  0  0  0  0  0  0  0
    9.9678  -17.7758   19.5135 N   0  0  0  0  0  0  0  0  0  0  0  0
    8.6828  -16.6859   21.2338 C   0  0  0  0  0  0  0  0  0  0  0  0
    9.7083  -16.7264   21.9847 O   0  0  0  0  0  0  0  0  0  0  0  0
    7.4257  -11.2167   27.8358 O   0  0  0  0  0  0  0  0  0  0  0  0
    7.2291  -11.9060   26.6399 C   0  0  0  0  0  0  0  0  0  0  0  0
    6.2889  -12.9222   26.5295 C   0  0  0  0  0  0  0  0  0  0  0  0
    6.0742  -13.6174   25.3659 C   0  0  0  0  0  0  0  0  0  0  0  0
    6.8219  -13.3009   24.2443 C   0  0  0  0  0  0  0  0  0  0  0  0
    6.6397  -14.0111   22.9539 C   0  0  0  0  0  0  0  0  0  0  0  0
    7.7517  -15.0320   22.8506 C   0  0  2  0  0  0  0  0  0  0  0  0
    7.6260  -15.8526   21.6724 N   0  0  0  0  0  0  0  0  0  0  0  0
    7.7228  -15.9612   24.0386 C   0  0  0  0  0  0  0  0  0  0  0  0
    6.7972  -16.8020   24.1754 O   0  0  0  0  0  0  0  0  0  0  0  0
    7.7799  -12.2874   24.3024 C   0  0  0  0  0  0  0  0  0  0  0  0
    7.9523  -11.6224   25.4999 C   0  0  0  0  0  0  0  0  0  0  0  0
    8.4220  -22.1138   29.6804 O   0  0  0  0  0  0  0  0  0  0  0  0
    8.4603  -21.1697   28.6537 C   0  0  0  0  0  0  0  0  0  0  0  0
    9.6623  -20.7595   28.1178 C   0  0  0  0  0  0  0  0  0  0  0  0
    9.7043  -19.8256   27.1015 C   0  0  0  0  0  0  0  0  0  0  0  0
    8.5748  -19.2490   26.5621 C   0  0  0  0  0  0  0  0  0  0  0  0
    8.6129  -18.2426   25.4786 C   0  0  0  0  0  0  0  0  0  0  0  0
    8.7193  -16.8530   26.1157 C   0  0  2  0  0  0  0  0  0  0  0  0
    8.7450  -15.8950   25.0182 N   0  0  0  0  0  0  0  0  0  0  0  0
    9.8851  -16.7025   26.9921 C   0  0  0  0  0  0  0  0  0  0  0  0
    9.7899  -17.0482   28.3483 O   0  0  0  0  0  0  0  0  0  0  0  0
    7.3609  -19.6760   27.1169 C   0  0  0  0  0  0  0  0  0  0  0  0
    7.3158  -20.6080   28.1310 C   0  0  0  0  0  0  0  0  0  0  0  0
   10.9895  -16.2713   26.5868 O   0  0  0  0  0  0  0  0  0  0  0  0
  2  1  1  0
  3  5  1  0
  3  2  1  0
  3  4  1  1
  5  6  2  0
  8  7  1  0
  8  9  2  0
 10  9  1  0
 11 10  2  0
 12 11  1  0
 13 12  1  1
 14 13  1  0
 14  5  1  0
 15 16  2  0
 15 13  1  0
 17 18  2  0
 17 11  1  0
 18  8  1  0
 19 20  1  0
 20 30  2  0
 21 22  2  0
 21 20  1  0
 22 23  1  0
 23 24  1  0
 23 29  2  0
 25 24  1  6
 25 27  1  0
 25 26  1  0
 26 15  1  0
 27 28  1  0
 30 29  1  0
 31 27  2  0
M  END
$$$$
