SYY.pdb
     RDKit          3D

 31 32  0  0  1  0  0  0  0  0999 V2000
    8.4804  -19.6877   23.1858 O   0  0  0  0  0  0  0  0  0  0  0  0
    7.4413  -19.5658   22.2797 C   0  0  0  0  0  0  0  0  0  0  0  0
    7.8575  -18.7604   21.0545 C   0  0  2  0  0  0  0  0  0  0  0  0
    8.6484  -19.5713   20.1801 N   0  0  0  0  0  0  0  0  0  0  0  0
    8.5868  -17.5558   21.4963 C   0  0  0  0  0  0  0  0  0  0  0  0
    9.8458  -17.4832   21.3328 O   0  0  0  0  0  0  0  0  0  0  0  0
    7.4315  -13.2887   16.6770 O   0  0  0  0  0  0  0  0  0  0  0  0
    7.5598  -13.4638   18.0542 C   0  0  0  0  0  0  0  0  0  0  0  0
    6.6327  -14.1940   18.7864 C   0  0  0  0  0  0  0  0  0  0  0  0
    6.7336  -14.3826   20.1420 C   0  0  0  0  0  0  0  0  0  0  0  0
    7.8031  -13.8250   20.8220 C   0  0  0  0  0  0  0  0  0  0  0  0
    7.9741  -13.9913   22.2869 C   0  0  0  0  0  0  0  0  0  0  0  0
    8.7412  -15.2782   22.4989 C   0  0  2  0  0  0  0  0  0  0  0  0
    7.9757  -16.4355   22.1090 N   0  0  0  0  0  0  0  0  0  0  0  0
    9.0850  -15.4497   23.9577 C   0  0  0  0  0  0  0  0  0  0  0  0
    9.8951  -14.6713   24.5236 O   0  0  0  0  0  0  0  0  0  0  0  0
    8.7628  -13.0820   20.1326 C   0  0  0  0  0  0  0  0  0  0  0  0
    8.6094  -12.9256   18.7695 C   0  0  0  0  0  0  0  0  0  0  0  0
    7.0244  -10.4515   26.9421 O   0  0  0  0  0  0  0  0  0  0  0  0
    7.1219  -11.8430   26.9100 C   0  0  0  0  0  0  0  0  0  0  0  0
    6.0422  -12.6169   26.5415 C   0  0  0  0  0  0  0  0  0  0  0  0
    6.1348  -13.9943   26.5083 C   0  0  0  0  0  0  0  0  0  0  0  0
    7.2855  -14.6793   26.8337 C   0  0  0  0  0  0  0  0  0  0  0  0
    7.3894  -16.1547   26.8075 C   0  0  0  0  0  0  0  0  0  0  0  0
    8.7202  -16.5320   26.1481 C   0  0  2  0  0  0  0  0  0  0  0  0
    8.4944  -16.4962   24.7091 N   0  0  0  0  0  0  0  0  0  0  0  0
    9.2360  -17.8341   26.5822 C   0  0  0  0  0  0  0  0  0  0  0  0
    9.7374  -17.9893   27.8831 O   0  0  0  0  0  0  0  0  0  0  0  0
    8.3741  -13.8792   27.2060 C   0  0  0  0  0  0  0  0  0  0  0  0
    8.2848  -12.5044   27.2398 C   0  0  0  0  0  0  0  0  0  0  0  0
    9.2543  -18.8411   25.8371 O   0  0  0  0  0  0  0  0  0  0  0  0
  2  1  1  0
  3  5  1  0
  3  2  1  0
  3  4  1  6
  5  6  2  0
  8  7  1  0
  8  9  2  0
 10  9  1  0
 11 10  2  0
 12 11  1  0
 13 12  1  1
 14 13  1  0
 14  5  1  0
 15 16  2  0
 15 13  1  0
 17 18  2  0
 17 11  1  0
 18  8  1  0
 19 20  1  0
 20 30  2  0
 21 22  2  0
 21 20  1  0
 22 23  1  0
 23 24  1  0
 23 29  2  0
 25 24  1  1
 25 27  1  0
 25 26  1  0
 26 15  1  0
 27 28  1  0
 30 29  1  0
 31 27  2  0
M  END
$$$$
