SYY.pdb
     RDKit          3D

 31 32  0  0  1  0  0  0  0  0999 V2000
   13.2286  -15.9485   18.4458 O   0  0  0  0  0  0  0  0  0  0  0  0
   12.0642  -16.6502   18.1862 C   0  0  0  0  0  0  0  0  0  0  0  0
   11.5933  -17.4274   19.4097 C   0  0  2  0  0  0  0  0  0  0  0  0
   10.5623  -18.3478   19.0391 N   0  0  0  0  0  0  0  0  0  0  0  0
   11.1346  -16.4732   20.4379 C   0  0  0  0  0  0  0  0  0  0  0  0
   11.9667  -15.6787   20.9797 O   0  0  0  0  0  0  0  0  0  0  0  0
    7.3020  -13.0956   16.3368 O   0  0  0  0  0  0  0  0  0  0  0  0
    7.4602  -13.5505   17.6452 C   0  0  0  0  0  0  0  0  0  0  0  0
    7.8696  -12.7043   18.6675 C   0  0  0  0  0  0  0  0  0  0  0  0
    8.0338  -13.1244   19.9637 C   0  0  0  0  0  0  0  0  0  0  0  0
    7.7829  -14.4490   20.2795 C   0  0  0  0  0  0  0  0  0  0  0  0
    7.9386  -14.9693   21.6607 C   0  0  0  0  0  0  0  0  0  0  0  0
    9.3926  -15.3538   21.8267 C   0  0  2  0  0  0  0  0  0  0  0  0
    9.7956  -16.3677   20.8850 N   0  0  0  0  0  0  0  0  0  0  0  0
    9.6325  -15.9149   23.2063 C   0  0  0  0  0  0  0  0  0  0  0  0
   10.2896  -16.9759   23.3640 O   0  0  0  0  0  0  0  0  0  0  0  0
    7.3690  -15.3406   19.2885 C   0  0  0  0  0  0  0  0  0  0  0  0
    7.2210  -14.8614   18.0022 C   0  0  0  0  0  0  0  0  0  0  0  0
   11.4331  -15.9870   31.7339 O   0  0  0  0  0  0  0  0  0  0  0  0
   11.0643  -15.6035   30.4440 C   0  0  0  0  0  0  0  0  0  0  0  0
    9.7454  -15.3490   30.1343 C   0  0  0  0  0  0  0  0  0  0  0  0
    9.3764  -14.9691   28.8590 C   0  0  0  0  0  0  0  0  0  0  0  0
   10.2781  -14.8207   27.8274 C   0  0  0  0  0  0  0  0  0  0  0  0
    9.8889  -14.4214   26.4573 C   0  0  0  0  0  0  0  0  0  0  0  0
    9.5490  -15.6880   25.6647 C   0  0  2  0  0  0  0  0  0  0  0  0
    9.1163  -15.2474   24.3451 N   0  0  0  0  0  0  0  0  0  0  0  0
    8.5361  -16.5262   26.3139 C   0  0  0  0  0  0  0  0  0  0  0  0
    7.1785  -16.3429   26.0121 O   0  0  0  0  0  0  0  0  0  0  0  0
   11.6146  -15.0827   28.1575 C   0  0  0  0  0  0  0  0  0  0  0  0
   11.9859  -15.4618   29.4294 C   0  0  0  0  0  0  0  0  0  0  0  0
    8.8229  -17.4195   27.1442 O   0  0  0  0  0  0  0  0  0  0  0  0
  2  1  1  0
  3  5  1  0
  3  2  1  0
  3  4  1  6
  5  6  2  0
  8  7  1  0
  8  9  2  0
 10  9  1  0
 11 10  2  0
 12 11  1  0
 13 12  1  1
 14 13  1  0
 14  5  1  0
 15 16  2  0
 15 13  1  0
 17 18  2  0
 17 11  1  0
 18  8  1  0
 19 20  1  0
 20 30  2  0
 21 22  2  0
 21 20  1  0
 22 23  1  0
 23 24  1  0
 23 29  2  0
 25 24  1  1
 25 27  1  0
 25 26  1  0
 26 15  1  0
 27 28  1  0
 30 29  1  0
 31 27  2  0
M  END
$$$$
