SYY.pdb
     RDKit          3D

 31 32  0  0  1  0  0  0  0  0999 V2000
    7.1880  -19.5503   20.9096 O   0  0  0  0  0  0  0  0  0  0  0  0
    6.1936  -20.1327   21.6761 C   0  0  0  0  0  0  0  0  0  0  0  0
    5.0731  -19.1465   21.9840 C   0  0  2  0  0  0  0  0  0  0  0  0
    4.3553  -18.8306   20.7871 N   0  0  0  0  0  0  0  0  0  0  0  0
    5.6515  -17.9427   22.6119 C   0  0  0  0  0  0  0  0  0  0  0  0
    5.8151  -16.8866   21.9229 O   0  0  0  0  0  0  0  0  0  0  0  0
    7.6472  -11.3159   27.6754 O   0  0  0  0  0  0  0  0  0  0  0  0
    7.3728  -12.6224   27.2734 C   0  0  0  0  0  0  0  0  0  0  0  0
    8.3492  -13.6099   27.2856 C   0  0  0  0  0  0  0  0  0  0  0  0
    8.1079  -14.9034   26.8957 C   0  0  0  0  0  0  0  0  0  0  0  0
    6.8377  -15.2524   26.4689 C   0  0  0  0  0  0  0  0  0  0  0  0
    6.5075  -16.6329   26.0353 C   0  0  0  0  0  0  0  0  0  0  0  0
    6.6000  -16.6557   24.5252 C   0  0  2  0  0  0  0  0  0  0  0  0
    6.0528  -17.8668   23.9673 N   0  0  0  0  0  0  0  0  0  0  0  0
    8.0415  -16.5819   24.0868 C   0  0  0  0  0  0  0  0  0  0  0  0
    8.7322  -17.6265   23.9682 O   0  0  0  0  0  0  0  0  0  0  0  0
    5.8204  -14.2971   26.4377 C   0  0  0  0  0  0  0  0  0  0  0  0
    6.1218  -13.0118   26.8415 C   0  0  0  0  0  0  0  0  0  0  0  0
    7.2095  -14.4078   17.6078 O   0  0  0  0  0  0  0  0  0  0  0  0
    7.9281  -14.3105   18.7999 C   0  0  0  0  0  0  0  0  0  0  0  0
    7.4494  -13.5595   19.8522 C   0  0  0  0  0  0  0  0  0  0  0  0
    8.1576  -13.4609   21.0336 C   0  0  0  0  0  0  0  0  0  0  0  0
    9.3656  -14.0906   21.2417 C   0  0  0  0  0  0  0  0  0  0  0  0
   10.1330  -13.9833   22.5018 C   0  0  0  0  0  0  0  0  0  0  0  0
    9.9896  -15.3033   23.2668 C   0  0  2  0  0  0  0  0  0  0  0  0
    8.6349  -15.3266   23.8026 N   0  0  0  0  0  0  0  0  0  0  0  0
   10.9918  -15.4753   24.3231 C   0  0  0  0  0  0  0  0  0  0  0  0
   10.5834  -15.6305   25.6561 O   0  0  0  0  0  0  0  0  0  0  0  0
    9.8390  -14.8502   20.1633 C   0  0  0  0  0  0  0  0  0  0  0  0
    9.1344  -14.9506   18.9832 C   0  0  0  0  0  0  0  0  0  0  0  0
   12.2238  -15.4916   24.0957 O   0  0  0  0  0  0  0  0  0  0  0  0
  2  1  1  0
  3  5  1  0
  3  2  1  0
  3  4  1  6
  5  6  2  0
  8  7  1  0
  8  9  2  0
 10  9  1  0
 11 10  2  0
 12 11  1  0
 13 12  1  1
 14 13  1  0
 14  5  1  0
 15 16  2  0
 15 13  1  0
 17 18  2  0
 17 11  1  0
 18  8  1  0
 19 20  1  0
 20 30  2  0
 21 22  2  0
 21 20  1  0
 22 23  1  0
 23 24  1  0
 23 29  2  0
 25 24  1  1
 25 27  1  0
 25 26  1  0
 26 15  1  0
 27 28  1  0
 30 29  1  0
 31 27  2  0
M  END
$$$$
