IGH.pdb
     RDKit          3D

 23 23  0  0  1  0  0  0  0  0999 V2000
   32.5742  -25.4501  -17.5061 C   0  0  0  0  0  0  0  0  0  0  0  0
   31.2428  -26.1002  -17.8850 C   0  0  0  0  0  0  0  0  0  0  0  0
   30.2411  -25.0105  -18.1335 C   0  0  2  0  0  0  0  0  0  0  0  0
   30.9035  -23.8370  -18.8227 C   0  0  0  0  0  0  0  0  0  0  0  0
   29.4150  -24.6049  -16.9843 C   0  0  2  0  0  0  0  0  0  0  0  0
   28.9192  -25.6858  -16.1461 N   0  0  0  0  0  0  0  0  0  0  0  0
   28.4151  -23.5606  -17.1329 C   0  0  0  0  0  0  0  0  0  0  0  0
   27.7558  -23.4574  -18.2206 O   0  0  0  0  0  0  0  0  0  0  0  0
   28.1206  -22.6212  -16.1235 N   0  0  0  0  0  0  0  0  0  0  0  0
   27.1141  -21.5799  -16.3722 C   0  0  0  0  0  0  0  0  0  0  0  0
   25.7542  -22.0818  -16.1114 C   0  0  0  0  0  0  0  0  0  0  0  0
   25.4931  -22.7563  -15.0863 O   0  0  0  0  0  0  0  0  0  0  0  0
   24.7169  -21.8048  -17.0250 N   0  0  0  0  0  0  0  0  0  0  0  0
   23.3256  -22.2142  -16.7797 C   0  0  1  0  0  0  0  0  0  0  0  0
   22.4133  -21.1138  -17.2557 C   0  0  0  0  0  0  0  0  0  0  0  0
   22.3675  -20.0165  -16.2737 C   0  0  0  0  0  0  0  0  0  0  0  0
   22.9706  -19.9667  -15.0253 C   0  0  0  0  0  0  0  0  0  0  0  0
   22.6777  -18.7944  -14.4615 N   0  0  0  0  0  0  0  0  0  0  0  0
   21.9085  -18.0871  -15.2999 C   0  0  0  0  0  0  0  0  0  0  0  0
   21.7334  -18.8358  -16.3805 N   0  0  0  0  0  0  0  0  0  0  0  0
   23.0308  -23.4498  -17.5414 C   0  0  0  0  0  0  0  0  0  0  0  0
   22.0188  -24.3350  -17.2244 O   0  0  0  0  0  0  0  0  0  0  0  0
   23.7625  -23.7005  -18.5460 O   0  0  0  0  0  0  0  0  0  0  0  0
  1  2  1  0
  2  3  1  0
  3  5  1  0
  3  4  1  1
  5  7  1  0
  5  6  1  6
  7  9  1  0
  7  8  2  0
  9 10  1  0
 10 11  1  0
 11 12  2  0
 13 14  1  0
 13 11  1  0
 14 15  1  6
 16 17  2  0
 16 15  1  0
 18 17  1  0
 19 20  2  0
 19 18  1  0
 20 16  1  0
 21 22  1  0
 21 14  1  0
 23 21  2  0
M  END
$$$$
