IGH.pdb
     RDKit          3D

 23 23  0  0  1  0  0  0  0  0999 V2000
   30.6630  -20.3919  -12.2395 C   0  0  0  0  0  0  0  0  0  0  0  0
   29.7414  -21.3588  -12.9842 C   0  0  0  0  0  0  0  0  0  0  0  0
   28.6993  -20.5544  -13.7050 C   0  0  2  0  0  0  0  0  0  0  0  0
   27.8575  -19.7794  -12.7142 C   0  0  0  0  0  0  0  0  0  0  0  0
   27.8890  -21.2741  -14.7016 C   0  0  2  0  0  0  0  0  0  0  0  0
   28.6279  -22.1056  -15.6393 N   0  0  0  0  0  0  0  0  0  0  0  0
   26.7767  -20.6093  -15.3598 C   0  0  0  0  0  0  0  0  0  0  0  0
   26.9571  -20.0131  -16.4735 O   0  0  0  0  0  0  0  0  0  0  0  0
   25.4711  -20.5747  -14.8283 N   0  0  0  0  0  0  0  0  0  0  0  0
   24.4229  -19.8179  -15.5267 C   0  0  0  0  0  0  0  0  0  0  0  0
   23.1232  -19.9601  -14.8485 C   0  0  0  0  0  0  0  0  0  0  0  0
   22.2258  -19.0918  -14.9693 O   0  0  0  0  0  0  0  0  0  0  0  0
   22.8712  -21.0906  -14.0449 N   0  0  0  0  0  0  0  0  0  0  0  0
   21.8062  -21.1102  -13.0304 C   0  0  1  0  0  0  0  0  0  0  0  0
   22.1749  -20.1465  -11.9327 C   0  0  0  0  0  0  0  0  0  0  0  0
   23.4682  -20.5151  -11.3312 C   0  0  0  0  0  0  0  0  0  0  0  0
   24.2875  -21.5838  -11.6646 C   0  0  0  0  0  0  0  0  0  0  0  0
   25.3626  -21.5535  -10.8765 N   0  0  0  0  0  0  0  0  0  0  0  0
   25.2666  -20.5053  -10.0478 C   0  0  0  0  0  0  0  0  0  0  0  0
   24.1248  -19.8951  -10.3352 N   0  0  0  0  0  0  0  0  0  0  0  0
   20.5291  -20.6786  -13.6439 C   0  0  0  0  0  0  0  0  0  0  0  0
   19.2989  -20.7687  -13.0220 O   0  0  0  0  0  0  0  0  0  0  0  0
   20.5817  -20.1983  -14.8161 O   0  0  0  0  0  0  0  0  0  0  0  0
  1  2  1  0
  2  3  1  0
  3  5  1  0
  3  4  1  1
  5  7  1  0
  5  6  1  6
  7  9  1  0
  7  8  2  0
  9 10  1  0
 10 11  1  0
 11 12  2  0
 13 14  1  0
 13 11  1  0
 14 15  1  1
 16 17  2  0
 16 15  1  0
 18 17  1  0
 19 20  2  0
 19 18  1  0
 20 16  1  0
 21 22  1  0
 21 14  1  0
 23 21  2  0
M  END
$$$$
