IGH.pdb
     RDKit          3D

 23 23  0  0  1  0  0  0  0  0999 V2000
   28.8802  -20.8068   -3.8042 C   0  0  0  0  0  0  0  0  0  0  0  0
   28.5459  -19.6866   -4.7902 C   0  0  0  0  0  0  0  0  0  0  0  0
   28.0700  -20.3120   -6.0689 C   0  0  2  0  0  0  0  0  0  0  0  0
   29.0555  -21.3606   -6.5379 C   0  0  0  0  0  0  0  0  0  0  0  0
   27.6683  -19.3867   -7.1414 C   0  0  2  0  0  0  0  0  0  0  0  0
   26.9990  -18.1686   -6.7109 N   0  0  0  0  0  0  0  0  0  0  0  0
   27.0805  -19.8980   -8.3684 C   0  0  0  0  0  0  0  0  0  0  0  0
   25.8599  -19.6483   -8.6446 O   0  0  0  0  0  0  0  0  0  0  0  0
   27.7922  -20.6812   -9.3001 N   0  0  0  0  0  0  0  0  0  0  0  0
   27.5527  -20.4953  -10.7379 C   0  0  0  0  0  0  0  0  0  0  0  0
   26.3387  -21.2080  -11.1712 C   0  0  0  0  0  0  0  0  0  0  0  0
   26.3767  -22.4155  -11.5094 O   0  0  0  0  0  0  0  0  0  0  0  0
   25.1035  -20.5298  -11.2106 N   0  0  0  0  0  0  0  0  0  0  0  0
   23.8443  -21.2123  -11.5455 C   0  0  1  0  0  0  0  0  0  0  0  0
   22.7148  -20.4988  -10.8492 C   0  0  0  0  0  0  0  0  0  0  0  0
   22.5791  -20.9727   -9.4609 C   0  0  0  0  0  0  0  0  0  0  0  0
   23.4000  -21.8608   -8.7813 C   0  0  0  0  0  0  0  0  0  0  0  0
   22.9216  -22.0177   -7.5466 N   0  0  0  0  0  0  0  0  0  0  0  0
   21.8232  -21.2639   -7.4053 C   0  0  0  0  0  0  0  0  0  0  0  0
   21.6337  -20.6450   -8.5629 N   0  0  0  0  0  0  0  0  0  0  0  0
   23.6232  -21.1548  -13.0089 C   0  0  0  0  0  0  0  0  0  0  0  0
   22.8840  -22.0801  -13.7200 O   0  0  0  0  0  0  0  0  0  0  0  0
   24.1529  -20.1899  -13.6381 O   0  0  0  0  0  0  0  0  0  0  0  0
  1  2  1  0
  2  3  1  0
  3  5  1  0
  3  4  1  6
  5  7  1  0
  5  6  1  1
  7  9  1  0
  7  8  2  0
  9 10  1  0
 10 11  1  0
 11 12  2  0
 13 14  1  0
 13 11  1  0
 14 15  1  1
 16 17  2  0
 16 15  1  0
 18 17  1  0
 19 20  2  0
 19 18  1  0
 20 16  1  0
 21 22  1  0
 21 14  1  0
 23 21  2  0
M  END
$$$$
