IGH.pdb
     RDKit          3D

 23 23  0  0  1  0  0  0  0  0999 V2000
   28.1324  -33.6274  -18.3786 C   0  0  0  0  0  0  0  0  0  0  0  0
   26.9775  -33.4605  -17.3902 C   0  0  0  0  0  0  0  0  0  0  0  0
   27.5428  -32.9945  -16.0803 C   0  0  2  0  0  0  0  0  0  0  0  0
   28.5991  -33.9621  -15.5917 C   0  0  0  0  0  0  0  0  0  0  0  0
   26.5686  -32.6382  -15.0355 C   0  0  2  0  0  0  0  0  0  0  0  0
   25.4287  -31.8476  -15.4738 N   0  0  0  0  0  0  0  0  0  0  0  0
   27.0249  -32.2112  -13.7232 C   0  0  0  0  0  0  0  0  0  0  0  0
   27.9244  -31.3118  -13.6209 O   0  0  0  0  0  0  0  0  0  0  0  0
   26.5263  -32.7467  -12.5180 N   0  0  0  0  0  0  0  0  0  0  0  0
   27.1330  -32.3478  -11.2405 C   0  0  0  0  0  0  0  0  0  0  0  0
   26.5052  -33.0536  -10.1105 C   0  0  0  0  0  0  0  0  0  0  0  0
   26.7971  -32.7735   -8.9229 O   0  0  0  0  0  0  0  0  0  0  0  0
   25.5556  -34.0662  -10.3560 N   0  0  0  0  0  0  0  0  0  0  0  0
   24.4009  -34.2896   -9.4727 C   0  0  1  0  0  0  0  0  0  0  0  0
   23.5906  -33.0208   -9.4163 C   0  0  0  0  0  0  0  0  0  0  0  0
   22.3784  -33.2149   -8.6018 C   0  0  0  0  0  0  0  0  0  0  0  0
   21.9987  -34.3490   -7.8989 C   0  0  0  0  0  0  0  0  0  0  0  0
   20.8346  -34.1027   -7.2971 N   0  0  0  0  0  0  0  0  0  0  0  0
   20.4501  -32.8523   -7.5860 C   0  0  0  0  0  0  0  0  0  0  0  0
   21.3879  -32.3361   -8.3689 N   0  0  0  0  0  0  0  0  0  0  0  0
   23.5589  -35.3768  -10.0228 C   0  0  0  0  0  0  0  0  0  0  0  0
   22.9798  -35.3523  -11.2767 O   0  0  0  0  0  0  0  0  0  0  0  0
   23.3636  -36.3892   -9.2849 O   0  0  0  0  0  0  0  0  0  0  0  0
  1  2  1  0
  2  3  1  0
  3  5  1  0
  3  4  1  1
  5  7  1  0
  5  6  1  6
  7  9  1  0
  7  8  2  0
  9 10  1  0
 10 11  1  0
 11 12  2  0
 13 14  1  0
 13 11  1  0
 14 15  1  6
 16 17  2  0
 16 15  1  0
 18 17  1  0
 19 20  2  0
 19 18  1  0
 20 16  1  0
 21 22  1  0
 21 14  1  0
 23 21  2  0
M  END
$$$$
