IGH.pdb
     RDKit          3D

 23 23  0  0  1  0  0  0  0  0999 V2000
   15.7536  -14.8778  -18.9576 C   0  0  0  0  0  0  0  0  0  0  0  0
   17.1048  -14.1641  -19.0173 C   0  0  0  0  0  0  0  0  0  0  0  0
   16.8691  -12.6939  -18.8284 C   0  0  2  0  0  0  0  0  0  0  0  0
   15.8639  -12.1900  -19.8415 C   0  0  0  0  0  0  0  0  0  0  0  0
   18.0679  -11.8435  -18.7428 C   0  0  2  0  0  0  0  0  0  0  0  0
   19.1948  -12.4066  -18.0149 N   0  0  0  0  0  0  0  0  0  0  0  0
   17.9390  -10.4194  -18.4822 C   0  0  0  0  0  0  0  0  0  0  0  0
   16.9657   -9.7637  -18.9835 O   0  0  0  0  0  0  0  0  0  0  0  0
   18.8511   -9.6912  -17.6912 N   0  0  0  0  0  0  0  0  0  0  0  0
   18.5920   -8.2738  -17.4032 C   0  0  0  0  0  0  0  0  0  0  0  0
   19.1988   -7.8719  -16.1228 C   0  0  0  0  0  0  0  0  0  0  0  0
   18.5298   -7.8511  -15.0617 O   0  0  0  0  0  0  0  0  0  0  0  0
   20.5581   -7.5009  -16.0765 N   0  0  0  0  0  0  0  0  0  0  0  0
   21.2348   -7.1570  -14.8166 C   0  0  1  0  0  0  0  0  0  0  0  0
   22.6033   -7.7869  -14.8226 C   0  0  0  0  0  0  0  0  0  0  0  0
   22.5014   -9.2482  -14.9799 C   0  0  0  0  0  0  0  0  0  0  0  0
   21.3513  -10.0238  -14.9944 C   0  0  0  0  0  0  0  0  0  0  0  0
   21.7042  -11.2991  -15.1595 N   0  0  0  0  0  0  0  0  0  0  0  0
   23.0386  -11.3740  -15.2520 C   0  0  0  0  0  0  0  0  0  0  0  0
   23.4987  -10.1351  -15.1422 N   0  0  0  0  0  0  0  0  0  0  0  0
   21.3800   -5.6864  -14.7171 C   0  0  0  0  0  0  0  0  0  0  0  0
   21.0005   -4.7996  -15.7059 O   0  0  0  0  0  0  0  0  0  0  0  0
   21.8878   -5.2244  -13.6512 O   0  0  0  0  0  0  0  0  0  0  0  0
  1  2  1  0
  2  3  1  0
  3  5  1  0
  3  4  1  6
  5  7  1  0
  5  6  1  1
  7  9  1  0
  7  8  2  0
  9 10  1  0
 10 11  1  0
 11 12  2  0
 13 14  1  0
 13 11  1  0
 14 15  1  6
 16 17  2  0
 16 15  1  0
 18 17  1  0
 19 20  2  0
 19 18  1  0
 20 16  1  0
 21 22  1  0
 21 14  1  0
 23 21  2  0
M  END
$$$$
