IGH.pdb
     RDKit          3D

 23 23  0  0  1  0  0  0  0  0999 V2000
   21.6254  -17.7524  -21.0421 C   0  0  0  0  0  0  0  0  0  0  0  0
   21.0057  -17.0971  -19.8071 C   0  0  0  0  0  0  0  0  0  0  0  0
   21.2842  -15.6235  -19.8666 C   0  0  2  0  0  0  0  0  0  0  0  0
   22.7730  -15.3759  -19.9810 C   0  0  0  0  0  0  0  0  0  0  0  0
   20.6458  -14.7933  -18.8317 C   0  0  2  0  0  0  0  0  0  0  0  0
   19.2402  -15.0679  -18.5758 N   0  0  0  0  0  0  0  0  0  0  0  0
   20.9184  -13.3672  -18.7652 C   0  0  0  0  0  0  0  0  0  0  0  0
   20.0141  -12.5280  -19.0916 O   0  0  0  0  0  0  0  0  0  0  0  0
   22.1577  -12.8340  -18.3557 N   0  0  0  0  0  0  0  0  0  0  0  0
   22.3985  -11.3887  -18.4670 C   0  0  0  0  0  0  0  0  0  0  0  0
   22.5669  -10.7740  -17.1392 C   0  0  0  0  0  0  0  0  0  0  0  0
   22.0490  -11.2810  -16.1151 O   0  0  0  0  0  0  0  0  0  0  0  0
   23.3231   -9.5920  -17.0040 N   0  0  0  0  0  0  0  0  0  0  0  0
   23.4706   -8.8981  -15.7155 C   0  0  1  0  0  0  0  0  0  0  0  0
   24.9077   -8.4722  -15.5645 C   0  0  0  0  0  0  0  0  0  0  0  0
   25.8055   -9.6375  -15.6448 C   0  0  0  0  0  0  0  0  0  0  0  0
   25.4557  -10.9725  -15.7861 C   0  0  0  0  0  0  0  0  0  0  0  0
   26.5724  -11.7006  -15.8164 N   0  0  0  0  0  0  0  0  0  0  0  0
   27.6285  -10.8846  -15.6999 C   0  0  0  0  0  0  0  0  0  0  0  0
   27.1491   -9.6523  -15.5982 N   0  0  0  0  0  0  0  0  0  0  0  0
   22.6057   -7.6959  -15.6980 C   0  0  0  0  0  0  0  0  0  0  0  0
   22.0018   -7.1568  -16.8174 O   0  0  0  0  0  0  0  0  0  0  0  0
   22.4162   -7.1338  -14.5774 O   0  0  0  0  0  0  0  0  0  0  0  0
  1  2  1  0
  2  3  1  0
  3  5  1  0
  3  4  1  1
  5  7  1  0
  5  6  1  6
  7  9  1  0
  7  8  2  0
  9 10  1  0
 10 11  1  0
 11 12  2  0
 13 14  1  0
 13 11  1  0
 14 15  1  6
 16 17  2  0
 16 15  1  0
 18 17  1  0
 19 20  2  0
 19 18  1  0
 20 16  1  0
 21 22  1  0
 21 14  1  0
 23 21  2  0
M  END
$$$$
