IGH.pdb
     RDKit          3D

 23 23  0  0  1  0  0  0  0  0999 V2000
   25.6426  -15.6312  -18.1090 C   0  0  0  0  0  0  0  0  0  0  0  0
   24.7224  -15.5897  -16.8882 C   0  0  0  0  0  0  0  0  0  0  0  0
   25.2807  -16.5149  -15.8466 C   0  0  2  0  0  0  0  0  0  0  0  0
   26.6376  -16.0276  -15.3860 C   0  0  0  0  0  0  0  0  0  0  0  0
   25.2708  -17.9508  -16.1720 C   0  0  2  0  0  0  0  0  0  0  0  0
   24.1032  -18.4291  -16.8964 N   0  0  0  0  0  0  0  0  0  0  0  0
   25.7107  -18.9278  -15.1900 C   0  0  0  0  0  0  0  0  0  0  0  0
   25.0478  -19.0935  -14.1122 O   0  0  0  0  0  0  0  0  0  0  0  0
   26.8616  -19.7257  -15.3534 N   0  0  0  0  0  0  0  0  0  0  0  0
   27.7698  -19.9314  -14.2167 C   0  0  0  0  0  0  0  0  0  0  0  0
   27.2502  -20.9610  -13.3006 C   0  0  0  0  0  0  0  0  0  0  0  0
   27.8887  -22.0175  -13.0768 O   0  0  0  0  0  0  0  0  0  0  0  0
   26.0113  -20.7665  -12.6566 N   0  0  0  0  0  0  0  0  0  0  0  0
   25.8561  -20.8947  -11.1995 C   0  0  1  0  0  0  0  0  0  0  0  0
   26.7697  -19.8996  -10.5327 C   0  0  0  0  0  0  0  0  0  0  0  0
   26.6801  -20.0138   -9.0667 C   0  0  0  0  0  0  0  0  0  0  0  0
   26.5573  -21.1698   -8.3097 C   0  0  0  0  0  0  0  0  0  0  0  0
   26.5094  -20.8279   -7.0217 N   0  0  0  0  0  0  0  0  0  0  0  0
   26.5966  -19.4949   -6.9207 C   0  0  0  0  0  0  0  0  0  0  0  0
   26.6983  -19.0245   -8.1565 N   0  0  0  0  0  0  0  0  0  0  0  0
   24.4559  -20.5940  -10.8218 C   0  0  0  0  0  0  0  0  0  0  0  0
   23.5093  -20.0848  -11.6895 O   0  0  0  0  0  0  0  0  0  0  0  0
   24.1171  -20.8220   -9.6215 O   0  0  0  0  0  0  0  0  0  0  0  0
  1  2  1  0
  2  3  1  0
  3  5  1  0
  3  4  1  6
  5  7  1  0
  5  6  1  1
  7  9  1  0
  7  8  2  0
  9 10  1  0
 10 11  1  0
 11 12  2  0
 13 14  1  0
 13 11  1  0
 14 15  1  1
 16 17  2  0
 16 15  1  0
 18 17  1  0
 19 20  2  0
 19 18  1  0
 20 16  1  0
 21 22  1  0
 21 14  1  0
 23 21  2  0
M  END
$$$$
