IGH.pdb
     RDKit          3D

 23 23  0  0  1  0  0  0  0  0999 V2000
   29.7626  -21.5432  -10.4984 C   0  0  0  0  0  0  0  0  0  0  0  0
   28.3492  -21.0126  -10.2546 C   0  0  0  0  0  0  0  0  0  0  0  0
   27.6578  -20.8887  -11.5810 C   0  0  2  0  0  0  0  0  0  0  0  0
   28.4706  -20.0195  -12.5163 C   0  0  0  0  0  0  0  0  0  0  0  0
   26.2346  -20.5134  -11.5460 C   0  0  2  0  0  0  0  0  0  0  0  0
   25.4370  -21.1461  -10.5066 N   0  0  0  0  0  0  0  0  0  0  0  0
   25.4784  -20.3915  -12.7811 C   0  0  0  0  0  0  0  0  0  0  0  0
   25.4268  -19.2716  -13.3909 O   0  0  0  0  0  0  0  0  0  0  0  0
   24.7712  -21.4625  -13.3651 N   0  0  0  0  0  0  0  0  0  0  0  0
   24.1398  -21.2844  -14.6799 C   0  0  0  0  0  0  0  0  0  0  0  0
   22.7517  -20.8115  -14.5434 C   0  0  0  0  0  0  0  0  0  0  0  0
   22.2103  -20.6933  -13.4179 O   0  0  0  0  0  0  0  0  0  0  0  0
   22.0064  -20.4820  -15.6938 N   0  0  0  0  0  0  0  0  0  0  0  0
   20.6085  -20.0305  -15.6201 C   0  0  1  0  0  0  0  0  0  0  0  0
   20.3332  -19.1352  -16.8000 C   0  0  0  0  0  0  0  0  0  0  0  0
   21.1086  -17.8868  -16.6963 C   0  0  0  0  0  0  0  0  0  0  0  0
   20.7834  -16.7401  -15.9865 C   0  0  0  0  0  0  0  0  0  0  0  0
   21.7571  -15.8458  -16.1599 N   0  0  0  0  0  0  0  0  0  0  0  0
   22.6975  -16.3735  -16.9548 C   0  0  0  0  0  0  0  0  0  0  0  0
   22.2914  -17.5970  -17.2660 N   0  0  0  0  0  0  0  0  0  0  0  0
   19.7051  -21.2026  -15.6816 C   0  0  0  0  0  0  0  0  0  0  0  0
   18.4829  -21.2759  -15.0419 O   0  0  0  0  0  0  0  0  0  0  0  0
   20.0904  -22.1967  -16.3678 O   0  0  0  0  0  0  0  0  0  0  0  0
  1  2  1  0
  2  3  1  0
  3  5  1  0
  3  4  1  6
  5  7  1  0
  5  6  1  1
  7  9  1  0
  7  8  2  0
  9 10  1  0
 10 11  1  0
 11 12  2  0
 13 14  1  0
 13 11  1  0
 14 15  1  6
 16 17  2  0
 16 15  1  0
 18 17  1  0
 19 20  2  0
 19 18  1  0
 20 16  1  0
 21 22  1  0
 21 14  1  0
 23 21  2  0
M  END
$$$$
