IGH.pdb
     RDKit          3D

 23 23  0  0  1  0  0  0  0  0999 V2000
   25.5924  -14.0704  -16.8878 C   0  0  0  0  0  0  0  0  0  0  0  0
   24.1972  -13.7873  -16.3290 C   0  0  0  0  0  0  0  0  0  0  0  0
   24.1371  -12.3437  -15.9228 C   0  0  2  0  0  0  0  0  0  0  0  0
   25.2164  -12.0401  -14.9061 C   0  0  0  0  0  0  0  0  0  0  0  0
   22.8166  -11.8295  -15.5235 C   0  0  2  0  0  0  0  0  0  0  0  0
   21.7042  -12.2007  -16.3846 N   0  0  0  0  0  0  0  0  0  0  0  0
   22.6750  -10.4627  -15.0500 C   0  0  0  0  0  0  0  0  0  0  0  0
   23.3182  -10.0739  -14.0187 O   0  0  0  0  0  0  0  0  0  0  0  0
   21.8428   -9.5098  -15.6725 N   0  0  0  0  0  0  0  0  0  0  0  0
   21.8648   -8.1149  -15.2111 C   0  0  0  0  0  0  0  0  0  0  0  0
   20.8835   -7.2969  -15.9440 C   0  0  0  0  0  0  0  0  0  0  0  0
   20.2156   -7.7737  -16.8929 O   0  0  0  0  0  0  0  0  0  0  0  0
   20.6823   -5.9497  -15.5809 N   0  0  0  0  0  0  0  0  0  0  0  0
   19.7434   -5.0753  -16.3002 C   0  0  1  0  0  0  0  0  0  0  0  0
   18.3559   -5.6445  -16.1572 C   0  0  0  0  0  0  0  0  0  0  0  0
   17.3813   -4.8302  -16.9039 C   0  0  0  0  0  0  0  0  0  0  0  0
   16.8079   -3.6265  -16.5208 C   0  0  0  0  0  0  0  0  0  0  0  0
   15.9801   -3.2269  -17.4867 N   0  0  0  0  0  0  0  0  0  0  0  0
   15.9986   -4.1281  -18.4777 C   0  0  0  0  0  0  0  0  0  0  0  0
   16.8440   -5.0816  -18.1104 N   0  0  0  0  0  0  0  0  0  0  0  0
   19.7734   -3.7194  -15.7049 C   0  0  0  0  0  0  0  0  0  0  0  0
   19.4504   -2.5633  -16.3887 O   0  0  0  0  0  0  0  0  0  0  0  0
   20.1208   -3.6272  -14.4890 O   0  0  0  0  0  0  0  0  0  0  0  0
  1  2  1  0
  2  3  1  0
  3  5  1  0
  3  4  1  1
  5  7  1  0
  5  6  1  6
  7  9  1  0
  7  8  2  0
  9 10  1  0
 10 11  1  0
 11 12  2  0
 13 14  1  0
 13 11  1  0
 14 15  1  1
 16 17  2  0
 16 15  1  0
 18 17  1  0
 19 20  2  0
 19 18  1  0
 20 16  1  0
 21 22  1  0
 21 14  1  0
 23 21  2  0
M  END
$$$$
