LGS.pdb
     RDKit          3D

 19 18  0  0  1  0  0  0  0  0999 V2000
    5.9123  -12.0474   25.1262 C   0  0  0  0  0  0  0  0  0  0  0  0
    6.6010  -12.7197   26.2658 C   0  0  2  0  0  0  0  0  0  0  0  0
    7.1175  -11.7039   27.2864 C   0  0  0  0  0  0  0  0  0  0  0  0
    7.6546  -13.6688   25.8529 C   0  0  0  0  0  0  0  0  0  0  0  0
    7.2409  -14.7455   24.9597 C   0  0  2  0  0  0  0  0  0  0  0  0
    6.2082  -15.5896   25.6195 N   0  0  0  0  0  0  0  0  0  0  0  0
    8.2398  -15.6770   24.4430 C   0  0  0  0  0  0  0  0  0  0  0  0
    8.6746  -16.4621   25.3000 O   0  0  0  0  0  0  0  0  0  0  0  0
    8.6787  -15.6979   23.0767 N   0  0  0  0  0  0  0  0  0  0  0  0
   10.0481  -15.9709   22.9292 C   0  0  0  0  0  0  0  0  0  0  0  0
   11.0425  -16.5822   23.7458 C   0  0  0  0  0  0  0  0  0  0  0  0
   12.2255  -16.1274   23.5333 O   0  0  0  0  0  0  0  0  0  0  0  0
   10.4403  -18.4102   26.9157 O   0  0  0  0  0  0  0  0  0  0  0  0
   11.7422  -18.8289   26.6302 C   0  0  0  0  0  0  0  0  0  0  0  0
   12.1905  -18.1020   25.3993 C   0  0  2  0  0  0  0  0  0  0  0  0
   11.0228  -17.5523   24.7134 N   0  0  0  0  0  0  0  0  0  0  0  0
   12.9520  -18.9212   24.4678 C   0  0  0  0  0  0  0  0  0  0  0  0
   14.1689  -19.4655   24.8071 O   0  0  0  0  0  0  0  0  0  0  0  0
   12.4761  -19.1409   23.3009 O   0  0  0  0  0  0  0  0  0  0  0  0
  2  1  1  6
  2  3  1  0
  4  2  1  0
  5  4  1  0
  5  6  1  1
  7  5  1  0
  8  7  2  0
  9  7  1  0
 10  9  1  0
 11 10  1  0
 11 16  1  0
 12 11  2  0
 14 13  1  0
 15 17  1  0
 15 16  1  0
 15 14  1  1
 17 18  1  0
 19 17  2  0
M  END
$$$$
