LGS.pdb
     RDKit          3D

 19 18  0  0  1  0  0  0  0  0999 V2000
    6.2327  -11.8074   25.1894 C   0  0  0  0  0  0  0  0  0  0  0  0
    6.2218  -12.4988   26.5111 C   0  0  2  0  0  0  0  0  0  0  0  0
    6.3272  -11.5014   27.6662 C   0  0  0  0  0  0  0  0  0  0  0  0
    7.2181  -13.5830   26.6279 C   0  0  0  0  0  0  0  0  0  0  0  0
    7.1798  -14.6104   25.5930 C   0  0  2  0  0  0  0  0  0  0  0  0
    5.8709  -15.3176   25.6219 N   0  0  0  0  0  0  0  0  0  0  0  0
    8.1947  -15.6603   25.5820 C   0  0  0  0  0  0  0  0  0  0  0  0
    9.3549  -15.2281   25.6662 O   0  0  0  0  0  0  0  0  0  0  0  0
    7.8922  -17.0603   25.4910 N   0  0  0  0  0  0  0  0  0  0  0  0
    9.0213  -17.8679   25.2803 C   0  0  0  0  0  0  0  0  0  0  0  0
   10.1221  -17.8368   24.3767 C   0  0  0  0  0  0  0  0  0  0  0  0
   10.3956  -18.9848   23.8681 O   0  0  0  0  0  0  0  0  0  0  0  0
   10.5594  -16.3576   21.2631 O   0  0  0  0  0  0  0  0  0  0  0  0
   11.8171  -16.0805   21.8043 C   0  0  0  0  0  0  0  0  0  0  0  0
   12.0348  -17.0245   22.9472 C   0  0  2  0  0  0  0  0  0  0  0  0
   10.9613  -16.8526   23.9240 N   0  0  0  0  0  0  0  0  0  0  0  0
   13.3192  -16.8669   23.6137 C   0  0  0  0  0  0  0  0  0  0  0  0
   14.5092  -16.9892   22.9345 O   0  0  0  0  0  0  0  0  0  0  0  0
   13.3417  -16.6074   24.8661 O   0  0  0  0  0  0  0  0  0  0  0  0
  2  1  1  6
  2  3  1  0
  4  2  1  0
  5  4  1  0
  5  6  1  1
  7  5  1  0
  8  7  2  0
  9  7  1  0
 10  9  1  0
 11 10  1  0
 11 16  1  0
 12 11  2  0
 14 13  1  0
 15 17  1  0
 15 16  1  0
 15 14  1  6
 17 18  1  0
 19 17  2  0
M  END
$$$$
