LGS.pdb
     RDKit          3D

 19 18  0  0  1  0  0  0  0  0999 V2000
    5.5406  -12.4583   26.8645 C   0  0  0  0  0  0  0  0  0  0  0  0
    6.9014  -12.5023   26.2554 C   0  0  2  0  0  0  0  0  0  0  0  0
    7.6316  -11.1679   26.4181 C   0  0  0  0  0  0  0  0  0  0  0  0
    6.9156  -12.9698   24.8544 C   0  0  0  0  0  0  0  0  0  0  0  0
    6.9892  -14.4131   24.6552 C   0  0  2  0  0  0  0  0  0  0  0  0
    7.6421  -15.0588   25.8261 N   0  0  0  0  0  0  0  0  0  0  0  0
    7.6738  -14.9444   23.4798 C   0  0  0  0  0  0  0  0  0  0  0  0
    7.0558  -15.8637   22.9205 O   0  0  0  0  0  0  0  0  0  0  0  0
    8.9355  -14.4540   23.0029 N   0  0  0  0  0  0  0  0  0  0  0  0
    9.8908  -15.4627   22.7985 C   0  0  0  0  0  0  0  0  0  0  0  0
   10.4191  -16.5198   23.5939 C   0  0  0  0  0  0  0  0  0  0  0  0
   11.5578  -16.9480   23.1800 O   0  0  0  0  0  0  0  0  0  0  0  0
   10.4853  -16.1709   27.1692 O   0  0  0  0  0  0  0  0  0  0  0  0
   10.4213  -17.5615   27.0519 C   0  0  0  0  0  0  0  0  0  0  0  0
   10.8283  -17.9160   25.6543 C   0  0  2  0  0  0  0  0  0  0  0  0
    9.9845  -17.1880   24.7086 N   0  0  0  0  0  0  0  0  0  0  0  0
   10.7632  -19.3394   25.3576 C   0  0  0  0  0  0  0  0  0  0  0  0
   11.5151  -20.2603   26.0498 O   0  0  0  0  0  0  0  0  0  0  0  0
    9.9848  -19.7453   24.4272 O   0  0  0  0  0  0  0  0  0  0  0  0
  2  1  1  6
  2  3  1  0
  4  2  1  0
  5  4  1  0
  5  6  1  1
  7  5  1  0
  8  7  2  0
  9  7  1  0
 10  9  1  0
 11 10  1  0
 11 16  1  0
 12 11  2  0
 14 13  1  0
 15 17  1  0
 15 16  1  0
 15 14  1  1
 17 18  1  0
 19 17  2  0
M  END
$$$$
