LGS.pdb
     RDKit          3D

 19 18  0  0  1  0  0  0  0  0999 V2000
    5.9854  -12.1825   24.5872 C   0  0  0  0  0  0  0  0  0  0  0  0
    6.1330  -12.8998   25.8867 C   0  0  2  0  0  0  0  0  0  0  0  0
    6.2550  -11.9212   27.0562 C   0  0  0  0  0  0  0  0  0  0  0  0
    7.2145  -13.9057   25.8960 C   0  0  0  0  0  0  0  0  0  0  0  0
    7.1571  -14.9262   24.8552 C   0  0  2  0  0  0  0  0  0  0  0  0
    5.9629  -15.7918   25.0523 N   0  0  0  0  0  0  0  0  0  0  0  0
    8.2820  -15.8409   24.6800 C   0  0  0  0  0  0  0  0  0  0  0  0
    8.2369  -16.8299   25.4281 O   0  0  0  0  0  0  0  0  0  0  0  0
    9.3392  -15.6315   23.7323 N   0  0  0  0  0  0  0  0  0  0  0  0
   10.5747  -16.1586   24.1414 C   0  0  0  0  0  0  0  0  0  0  0  0
   11.1961  -16.3963   25.4010 C   0  0  0  0  0  0  0  0  0  0  0  0
   12.4271  -16.7516   25.3022 O   0  0  0  0  0  0  0  0  0  0  0  0
   10.1025  -14.8971   28.9118 O   0  0  0  0  0  0  0  0  0  0  0  0
   11.4614  -15.0328   28.6176 C   0  0  0  0  0  0  0  0  0  0  0  0
   11.6375  -16.3267   27.8834 C   0  0  2  0  0  0  0  0  0  0  0  0
   10.7750  -16.3313   26.7034 N   0  0  0  0  0  0  0  0  0  0  0  0
   11.3592  -17.5093   28.6850 C   0  0  0  0  0  0  0  0  0  0  0  0
   12.0952  -17.8159   29.8061 O   0  0  0  0  0  0  0  0  0  0  0  0
   10.4035  -18.2851   28.3372 O   0  0  0  0  0  0  0  0  0  0  0  0
  2  1  1  6
  2  3  1  0
  4  2  1  0
  5  4  1  0
  5  6  1  1
  7  5  1  0
  8  7  2  0
  9  7  1  0
 10  9  1  0
 11 10  1  0
 11 16  1  0
 12 11  2  0
 14 13  1  0
 15 17  1  0
 15 16  1  0
 15 14  1  1
 17 18  1  0
 19 17  2  0
M  END
$$$$
