QQF.pdb
     RDKit          3D

 30 30  0  0  1  0  0  0  0  0999 V2000
    8.2136  -12.4332   18.3453 N   0  0  0  0  0  0  0  0  0  0  0  0
    8.1957  -13.7686   17.8891 C   0  0  0  0  0  0  0  0  0  0  0  0
    8.4978  -14.0218   16.7034 O   0  0  0  0  0  0  0  0  0  0  0  0
    7.8153  -14.8423   18.8286 C   0  0  0  0  0  0  0  0  0  0  0  0
    7.3790  -14.2538   20.1335 C   0  0  0  0  0  0  0  0  0  0  0  0
    8.1773  -14.7876   21.2932 C   0  0  2  0  0  0  0  0  0  0  0  0
    9.1734  -15.7190   20.7395 N   0  0  0  0  0  0  0  0  0  0  0  0
    7.2841  -15.4721   22.2425 C   0  0  0  0  0  0  0  0  0  0  0  0
    6.2229  -14.8638   22.5874 O   0  0  0  0  0  0  0  0  0  0  0  0
    6.2445  -21.9070   24.8599 N   0  0  0  0  0  0  0  0  0  0  0  0
    5.6228  -20.9692   24.0247 C   0  0  0  0  0  0  0  0  0  0  0  0
    5.0329  -21.3320   22.9919 O   0  0  0  0  0  0  0  0  0  0  0  0
    5.6617  -19.5269   24.3666 C   0  0  0  0  0  0  0  0  0  0  0  0
    6.5784  -18.7731   23.4270 C   0  0  0  0  0  0  0  0  0  0  0  0
    6.6988  -17.3239   23.7446 C   0  0  2  0  0  0  0  0  0  0  0  0
    7.5896  -16.7443   22.7532 N   0  0  0  0  0  0  0  0  0  0  0  0
    7.1835  -17.0249   25.1307 C   0  0  0  0  0  0  0  0  0  0  0  0
    6.5000  -17.4532   26.1119 O   0  0  0  0  0  0  0  0  0  0  0  0
    8.3416  -16.3015   25.3879 N   0  0  0  0  0  0  0  0  0  0  0  0
    8.9515  -16.0086   26.6535 C   0  0  1  0  0  0  0  0  0  0  0  0
    8.0468  -15.2455   27.6178 C   0  0  0  0  0  0  0  0  0  0  0  0
    7.6019  -14.0046   26.9323 C   0  0  0  0  0  0  0  0  0  0  0  0
    6.3244  -13.4984   26.9956 C   0  0  0  0  0  0  0  0  0  0  0  0
    5.9535  -12.3371   26.3670 C   0  0  0  0  0  0  0  0  0  0  0  0
    6.8749  -11.6130   25.6233 C   0  0  0  0  0  0  0  0  0  0  0  0
    8.1764  -12.1316   25.5537 C   0  0  0  0  0  0  0  0  0  0  0  0
    8.5368  -13.2757   26.1802 C   0  0  0  0  0  0  0  0  0  0  0  0
    9.6849  -17.1253   27.2302 C   0  0  0  0  0  0  0  0  0  0  0  0
   10.3194  -17.1236   28.4335 O   0  0  0  0  0  0  0  0  0  0  0  0
    9.7339  -18.2160   26.5187 O   0  0  0  0  0  0  0  0  0  0  0  0
  1  2  1  0
  2  4  1  0
  2  3  2  0
  4  5  1  0
  6  7  1  6
  6  5  1  0
  8  6  1  0
  9  8  2  0
 10 11  1  0
 11 12  2  0
 13 11  1  0
 13 14  1  0
 15 14  1  6
 15 16  1  0
 16  8  1  0
 17 19  1  0
 17 15  1  0
 18 17  2  0
 20 28  1  0
 20 19  1  0
 20 21  1  1
 22 21  1  0
 22 23  2  0
 24 23  1  0
 25 24  2  0
 26 27  2  0
 26 25  1  0
 27 22  1  0
 28 29  1  0
 30 28  2  0
M  END
$$$$
