QQF.pdb
     RDKit          3D

 30 30  0  0  1  0  0  0  0  0999 V2000
    8.5980  -12.9429   19.6334 N   0  0  0  0  0  0  0  0  0  0  0  0
    8.4802  -13.7520   18.4831 C   0  0  0  0  0  0  0  0  0  0  0  0
    9.0673  -13.4213   17.4310 O   0  0  0  0  0  0  0  0  0  0  0  0
    7.6584  -14.9769   18.5491 C   0  0  0  0  0  0  0  0  0  0  0  0
    7.1467  -15.1792   19.9407 C   0  0  0  0  0  0  0  0  0  0  0  0
    6.9646  -16.6364   20.2734 C   0  0  2  0  0  0  0  0  0  0  0  0
    5.8582  -17.1346   19.4403 N   0  0  0  0  0  0  0  0  0  0  0  0
    6.6578  -16.7881   21.7053 C   0  0  0  0  0  0  0  0  0  0  0  0
    5.6442  -16.1665   22.1538 O   0  0  0  0  0  0  0  0  0  0  0  0
    6.6702  -21.7359   24.9844 N   0  0  0  0  0  0  0  0  0  0  0  0
    6.3518  -20.8007   25.9781 C   0  0  0  0  0  0  0  0  0  0  0  0
    5.9034  -21.1707   27.0774 O   0  0  0  0  0  0  0  0  0  0  0  0
    6.5484  -19.3525   25.7277 C   0  0  0  0  0  0  0  0  0  0  0  0
    6.8924  -19.0968   24.2759 C   0  0  0  0  0  0  0  0  0  0  0  0
    7.1059  -17.6586   23.9569 C   0  0  2  0  0  0  0  0  0  0  0  0
    7.4526  -17.5830   22.5474 N   0  0  0  0  0  0  0  0  0  0  0  0
    8.1457  -16.9790   24.7949 C   0  0  0  0  0  0  0  0  0  0  0  0
    9.3641  -17.1023   24.4579 O   0  0  0  0  0  0  0  0  0  0  0  0
    7.8365  -16.2248   25.9202 N   0  0  0  0  0  0  0  0  0  0  0  0
    8.7275  -15.5275   26.8030 C   0  0  1  0  0  0  0  0  0  0  0  0
    8.0291  -14.5569   27.7521 C   0  0  0  0  0  0  0  0  0  0  0  0
    7.3800  -13.5065   26.9256 C   0  0  0  0  0  0  0  0  0  0  0  0
    6.2894  -12.7691   27.3242 C   0  0  0  0  0  0  0  0  0  0  0  0
    5.7283  -11.7910   26.5432 C   0  0  0  0  0  0  0  0  0  0  0  0
    6.2511  -11.5036   25.2900 C   0  0  0  0  0  0  0  0  0  0  0  0
    7.3597  -12.2592   24.8805 C   0  0  0  0  0  0  0  0  0  0  0  0
    7.9112  -13.2196   25.6581 C   0  0  0  0  0  0  0  0  0  0  0  0
    9.7455  -16.3739   27.4068 C   0  0  0  0  0  0  0  0  0  0  0  0
   10.9782  -15.9678   27.8146 O   0  0  0  0  0  0  0  0  0  0  0  0
    9.4379  -17.6309   27.5609 O   0  0  0  0  0  0  0  0  0  0  0  0
  1  2  1  0
  2  4  1  0
  2  3  2  0
  4  5  1  0
  6  7  1  6
  6  5  1  0
  8  6  1  0
  9  8  2  0
 10 11  1  0
 11 12  2  0
 13 11  1  0
 13 14  1  0
 15 14  1  1
 15 16  1  0
 16  8  1  0
 17 19  1  0
 17 15  1  0
 18 17  2  0
 20 28  1  0
 20 19  1  0
 20 21  1  1
 22 21  1  0
 22 23  2  0
 24 23  1  0
 25 24  2  0
 26 27  2  0
 26 25  1  0
 27 22  1  0
 28 29  1  0
 30 28  2  0
M  END
$$$$
