QQF.pdb
     RDKit          3D

 30 30  0  0  1  0  0  0  0  0999 V2000
    7.0213  -20.7693   27.7990 N   0  0  0  0  0  0  0  0  0  0  0  0
    6.7632  -21.2939   26.5144 C   0  0  0  0  0  0  0  0  0  0  0  0
    7.3206  -22.3527   26.1548 O   0  0  0  0  0  0  0  0  0  0  0  0
    5.8368  -20.5733   25.6185 C   0  0  0  0  0  0  0  0  0  0  0  0
    6.5123  -19.3700   25.0395 C   0  0  0  0  0  0  0  0  0  0  0  0
    6.3108  -19.2660   23.5510 C   0  0  2  0  0  0  0  0  0  0  0  0
    6.4430  -20.6250   23.0013 N   0  0  0  0  0  0  0  0  0  0  0  0
    7.3178  -18.3615   22.9719 C   0  0  0  0  0  0  0  0  0  0  0  0
    8.4594  -18.8528   22.7065 O   0  0  0  0  0  0  0  0  0  0  0  0
    6.4968  -13.1141   19.8666 N   0  0  0  0  0  0  0  0  0  0  0  0
    7.8937  -13.1460   19.9716 C   0  0  0  0  0  0  0  0  0  0  0  0
    8.5964  -12.3431   19.3329 O   0  0  0  0  0  0  0  0  0  0  0  0
    8.5515  -14.1424   20.8509 C   0  0  0  0  0  0  0  0  0  0  0  0
    7.5266  -15.0341   21.5187 C   0  0  0  0  0  0  0  0  0  0  0  0
    8.1255  -16.1365   22.3197 C   0  0  2  0  0  0  0  0  0  0  0  0
    7.0352  -17.0081   22.7246 N   0  0  0  0  0  0  0  0  0  0  0  0
    8.9145  -15.6872   23.5118 C   0  0  0  0  0  0  0  0  0  0  0  0
    9.9533  -14.9835   23.3146 O   0  0  0  0  0  0  0  0  0  0  0  0
    8.5615  -16.0068   24.8172 N   0  0  0  0  0  0  0  0  0  0  0  0
    9.2004  -15.6107   26.0397 C   0  0  1  0  0  0  0  0  0  0  0  0
    8.2355  -15.1098   27.1115 C   0  0  0  0  0  0  0  0  0  0  0  0
    7.6313  -13.8450   26.6187 C   0  0  0  0  0  0  0  0  0  0  0  0
    8.3127  -12.6566   26.4935 C   0  0  0  0  0  0  0  0  0  0  0  0
    7.7283  -11.5121   26.0140 C   0  0  0  0  0  0  0  0  0  0  0  0
    6.3944  -11.5094   25.6304 C   0  0  0  0  0  0  0  0  0  0  0  0
    5.6974  -12.7194   25.7632 C   0  0  0  0  0  0  0  0  0  0  0  0
    6.2815  -13.8462   26.2328 C   0  0  0  0  0  0  0  0  0  0  0  0
   10.2251  -16.5360   26.4993 C   0  0  0  0  0  0  0  0  0  0  0  0
   11.0616  -16.3368   27.5534 O   0  0  0  0  0  0  0  0  0  0  0  0
   10.3442  -17.6481   25.8305 O   0  0  0  0  0  0  0  0  0  0  0  0
  1  2  1  0
  2  4  1  0
  2  3  2  0
  4  5  1  0
  6  7  1  6
  6  5  1  0
  8  6  1  0
  9  8  2  0
 10 11  1  0
 11 12  2  0
 13 11  1  0
 13 14  1  0
 15 14  1  1
 15 16  1  0
 16  8  1  0
 17 19  1  0
 17 15  1  0
 18 17  2  0
 20 28  1  0
 20 19  1  0
 20 21  1  1
 22 21  1  0
 22 23  2  0
 24 23  1  0
 25 24  2  0
 26 27  2  0
 26 25  1  0
 27 22  1  0
 28 29  1  0
 30 28  2  0
M  END
$$$$
