QQF.pdb
     RDKit          3D

 30 30  0  0  1  0  0  0  0  0999 V2000
    9.8183  -13.2299   18.6486 N   0  0  0  0  0  0  0  0  0  0  0  0
    8.5906  -12.8615   19.2392 C   0  0  0  0  0  0  0  0  0  0  0  0
    8.3888  -11.6697   19.5554 O   0  0  0  0  0  0  0  0  0  0  0  0
    7.5676  -13.9001   19.4740 C   0  0  0  0  0  0  0  0  0  0  0  0
    8.1729  -15.0666   20.1896 C   0  0  0  0  0  0  0  0  0  0  0  0
    7.1893  -16.1909   20.3778 C   0  0  2  0  0  0  0  0  0  0  0  0
    5.9661  -15.8215   19.6474 N   0  0  0  0  0  0  0  0  0  0  0  0
    6.9124  -16.3785   21.8116 C   0  0  0  0  0  0  0  0  0  0  0  0
    6.0536  -15.6087   22.3455 O   0  0  0  0  0  0  0  0  0  0  0  0
    6.7027  -21.5023   24.7425 N   0  0  0  0  0  0  0  0  0  0  0  0
    6.6870  -20.6713   25.8706 C   0  0  0  0  0  0  0  0  0  0  0  0
    6.2820  -21.0970   26.9666 O   0  0  0  0  0  0  0  0  0  0  0  0
    7.1564  -19.2685   25.7683 C   0  0  0  0  0  0  0  0  0  0  0  0
    7.5257  -18.9248   24.3411 C   0  0  0  0  0  0  0  0  0  0  0  0
    7.2126  -17.5190   23.9650 C   0  0  2  0  0  0  0  0  0  0  0  0
    7.5710  -17.3640   22.5650 N   0  0  0  0  0  0  0  0  0  0  0  0
    7.8927  -16.4801   24.8037 C   0  0  0  0  0  0  0  0  0  0  0  0
    7.7362  -15.2588   24.4917 O   0  0  0  0  0  0  0  0  0  0  0  0
    8.6846  -16.7933   25.9017 N   0  0  0  0  0  0  0  0  0  0  0  0
    8.8954  -16.0318   27.0997 C   0  0  1  0  0  0  0  0  0  0  0  0
    7.6260  -15.4017   27.6673 C   0  0  0  0  0  0  0  0  0  0  0  0
    7.4338  -14.0907   26.9949 C   0  0  0  0  0  0  0  0  0  0  0  0
    6.3920  -13.7999   26.1450 C   0  0  0  0  0  0  0  0  0  0  0  0
    6.2333  -12.5705   25.5579 C   0  0  0  0  0  0  0  0  0  0  0  0
    7.1415  -11.5499   25.8031 C   0  0  0  0  0  0  0  0  0  0  0  0
    8.2073  -11.8476   26.6652 C   0  0  0  0  0  0  0  0  0  0  0  0
    8.3552  -13.0615   27.2448 C   0  0  0  0  0  0  0  0  0  0  0  0
    9.7623  -16.6827   28.0703 C   0  0  0  0  0  0  0  0  0  0  0  0
   10.1038  -17.9995   28.0748 O   0  0  0  0  0  0  0  0  0  0  0  0
   10.2440  -15.9266   29.0162 O   0  0  0  0  0  0  0  0  0  0  0  0
  1  2  1  0
  2  4  1  0
  2  3  2  0
  4  5  1  0
  6  7  1  6
  6  5  1  0
  8  6  1  0
  9  8  2  0
 10 11  1  0
 11 12  2  0
 13 11  1  0
 13 14  1  0
 15 14  1  1
 15 16  1  0
 16  8  1  0
 17 19  1  0
 17 15  1  0
 18 17  2  0
 20 28  1  0
 20 19  1  0
 20 21  1  1
 22 21  1  0
 22 23  2  0
 24 23  1  0
 25 24  2  0
 26 27  2  0
 26 25  1  0
 27 22  1  0
 28 29  1  0
 30 28  2  0
M  END
$$$$
