QQF.pdb
     RDKit          3D

 30 30  0  0  1  0  0  0  0  0999 V2000
    9.8980  -13.0902   18.9557 N   0  0  0  0  0  0  0  0  0  0  0  0
    8.8269  -13.4806   18.1239 C   0  0  0  0  0  0  0  0  0  0  0  0
    9.0331  -13.7008   16.9114 O   0  0  0  0  0  0  0  0  0  0  0  0
    7.4780  -13.6180   18.7088 C   0  0  0  0  0  0  0  0  0  0  0  0
    7.5644  -13.6394   20.2026 C   0  0  0  0  0  0  0  0  0  0  0  0
    8.3029  -14.8486   20.7121 C   0  0  2  0  0  0  0  0  0  0  0  0
    8.1398  -15.9101   19.7056 N   0  0  0  0  0  0  0  0  0  0  0  0
    7.7483  -15.2627   22.0115 C   0  0  0  0  0  0  0  0  0  0  0  0
    7.2287  -14.3592   22.7387 O   0  0  0  0  0  0  0  0  0  0  0  0
    6.5354  -21.0157   24.0694 N   0  0  0  0  0  0  0  0  0  0  0  0
    6.5482  -20.3047   25.2767 C   0  0  0  0  0  0  0  0  0  0  0  0
    6.2990  -20.8765   26.3524 O   0  0  0  0  0  0  0  0  0  0  0  0
    6.8618  -18.8554   25.2837 C   0  0  0  0  0  0  0  0  0  0  0  0
    7.1537  -18.3588   23.8838 C   0  0  0  0  0  0  0  0  0  0  0  0
    7.4402  -16.8997   23.8152 C   0  0  2  0  0  0  0  0  0  0  0  0
    7.7929  -16.6004   22.4374 N   0  0  0  0  0  0  0  0  0  0  0  0
    8.5115  -16.4273   24.7504 C   0  0  0  0  0  0  0  0  0  0  0  0
    9.7143  -16.4408   24.3425 O   0  0  0  0  0  0  0  0  0  0  0  0
    8.2476  -15.9789   26.0388 N   0  0  0  0  0  0  0  0  0  0  0  0
    9.1776  -15.5666   27.0511 C   0  0  1  0  0  0  0  0  0  0  0  0
    8.5580  -14.7108   28.1531 C   0  0  0  0  0  0  0  0  0  0  0  0
    7.5920  -13.7810   27.5126 C   0  0  0  0  0  0  0  0  0  0  0  0
    6.2484  -14.0372   27.3669 C   0  0  0  0  0  0  0  0  0  0  0  0
    5.3806  -13.1458   26.7892 C   0  0  0  0  0  0  0  0  0  0  0  0
    5.8372  -11.9234   26.3163 C   0  0  0  0  0  0  0  0  0  0  0  0
    7.2082  -11.6639   26.4595 C   0  0  0  0  0  0  0  0  0  0  0  0
    8.0581  -12.5460   27.0346 C   0  0  0  0  0  0  0  0  0  0  0  0
   10.0688  -16.6243   27.5029 C   0  0  0  0  0  0  0  0  0  0  0  0
   10.0213  -17.9260   27.1107 O   0  0  0  0  0  0  0  0  0  0  0  0
   10.9866  -16.2815   28.3623 O   0  0  0  0  0  0  0  0  0  0  0  0
  1  2  1  0
  2  4  1  0
  2  3  2  0
  4  5  1  0
  6  7  1  6
  6  5  1  0
  8  6  1  0
  9  8  2  0
 10 11  1  0
 11 12  2  0
 13 11  1  0
 13 14  1  0
 15 14  1  6
 15 16  1  0
 16  8  1  0
 17 19  1  0
 17 15  1  0
 18 17  2  0
 20 28  1  0
 20 19  1  0
 20 21  1  1
 22 21  1  0
 22 23  2  0
 24 23  1  0
 25 24  2  0
 26 27  2  0
 26 25  1  0
 27 22  1  0
 28 29  1  0
 30 28  2  0
M  END
$$$$
