QQF.pdb
     RDKit          3D

 30 30  0  0  1  0  0  0  0  0999 V2000
   11.0199  -18.6514   19.2633 N   0  0  0  0  0  0  0  0  0  0  0  0
   11.2040  -18.1778   17.9466 C   0  0  0  0  0  0  0  0  0  0  0  0
   11.7269  -18.9208   17.0890 O   0  0  0  0  0  0  0  0  0  0  0  0
   10.7743  -16.8054   17.6116 C   0  0  0  0  0  0  0  0  0  0  0  0
   10.1400  -16.1592   18.8031 C   0  0  0  0  0  0  0  0  0  0  0  0
    8.6660  -16.4533   18.8919 C   0  0  2  0  0  0  0  0  0  0  0  0
    7.9978  -15.6219   17.8776 N   0  0  0  0  0  0  0  0  0  0  0  0
    8.1733  -16.1370   20.2426 C   0  0  0  0  0  0  0  0  0  0  0  0
    8.3291  -14.9455   20.6563 O   0  0  0  0  0  0  0  0  0  0  0  0
    3.6914  -19.1751   23.0840 N   0  0  0  0  0  0  0  0  0  0  0  0
    3.8620  -18.7303   21.7662 C   0  0  0  0  0  0  0  0  0  0  0  0
    3.0302  -19.0165   20.8873 O   0  0  0  0  0  0  0  0  0  0  0  0
    5.0423  -17.9087   21.4048 C   0  0  0  0  0  0  0  0  0  0  0  0
    5.8648  -17.5754   22.6311 C   0  0  0  0  0  0  0  0  0  0  0  0
    7.0398  -16.7076   22.3445 C   0  0  2  0  0  0  0  0  0  0  0  0
    7.5589  -17.1100   21.0479 N   0  0  0  0  0  0  0  0  0  0  0  0
    8.1188  -16.7514   23.3834 C   0  0  0  0  0  0  0  0  0  0  0  0
    8.8732  -17.7725   23.4239 O   0  0  0  0  0  0  0  0  0  0  0  0
    8.3277  -15.7292   24.3011 N   0  0  0  0  0  0  0  0  0  0  0  0
    9.2580  -15.6827   25.3928 C   0  0  1  0  0  0  0  0  0  0  0  0
    9.6209  -14.2690   25.8407 C   0  0  0  0  0  0  0  0  0  0  0  0
    8.3540  -13.5136   26.0197 C   0  0  0  0  0  0  0  0  0  0  0  0
    7.7180  -13.3400   27.2270 C   0  0  0  0  0  0  0  0  0  0  0  0
    6.5597  -12.6173   27.3593 C   0  0  0  0  0  0  0  0  0  0  0  0
    5.9702  -12.0220   26.2527 C   0  0  0  0  0  0  0  0  0  0  0  0
    6.6152  -12.2034   25.0204 C   0  0  0  0  0  0  0  0  0  0  0  0
    7.7604  -12.9138   24.8977 C   0  0  0  0  0  0  0  0  0  0  0  0
    8.9638  -16.6247   26.4621 C   0  0  0  0  0  0  0  0  0  0  0  0
    7.8367  -17.3788   26.5700 O   0  0  0  0  0  0  0  0  0  0  0  0
    9.8663  -16.7436   27.3947 O   0  0  0  0  0  0  0  0  0  0  0  0
  1  2  1  0
  2  4  1  0
  2  3  2  0
  4  5  1  0
  6  7  1  6
  6  5  1  0
  8  6  1  0
  9  8  2  0
 10 11  1  0
 11 12  2  0
 13 11  1  0
 13 14  1  0
 15 14  1  1
 15 16  1  0
 16  8  1  0
 17 19  1  0
 17 15  1  0
 18 17  2  0
 20 28  1  0
 20 19  1  0
 20 21  1  1
 22 21  1  0
 22 23  2  0
 24 23  1  0
 25 24  2  0
 26 27  2  0
 26 25  1  0
 27 22  1  0
 28 29  1  0
 30 28  2  0
M  END
$$$$
