QQF.pdb
     RDKit          3D

 30 30  0  0  1  0  0  0  0  0999 V2000
   10.6040  -13.4454   19.0603 N   0  0  0  0  0  0  0  0  0  0  0  0
    9.8332  -12.2867   19.2946 C   0  0  0  0  0  0  0  0  0  0  0  0
   10.3968  -11.1748   19.3783 O   0  0  0  0  0  0  0  0  0  0  0  0
    8.3695  -12.4163   19.4393 C   0  0  0  0  0  0  0  0  0  0  0  0
    8.0435  -13.3163   20.5895 C   0  0  0  0  0  0  0  0  0  0  0  0
    8.0268  -14.7677   20.1889 C   0  0  2  0  0  0  0  0  0  0  0  0
    6.8130  -14.9796   19.3839 N   0  0  0  0  0  0  0  0  0  0  0  0
    8.0192  -15.6182   21.3906 C   0  0  0  0  0  0  0  0  0  0  0  0
    6.8898  -15.8883   21.9070 O   0  0  0  0  0  0  0  0  0  0  0  0
   11.2675  -20.4832   22.2148 N   0  0  0  0  0  0  0  0  0  0  0  0
   10.7350  -19.7785   21.1270 C   0  0  0  0  0  0  0  0  0  0  0  0
   10.8738  -20.2033   19.9666 O   0  0  0  0  0  0  0  0  0  0  0  0
    9.9960  -18.5125   21.3502 C   0  0  0  0  0  0  0  0  0  0  0  0
    9.9006  -18.1954   22.8273 C   0  0  0  0  0  0  0  0  0  0  0  0
    9.1207  -16.9629   23.1246 C   0  0  2  0  0  0  0  0  0  0  0  0
    9.2094  -16.1106   21.9506 N   0  0  0  0  0  0  0  0  0  0  0  0
    9.5624  -16.2229   24.3505 C   0  0  0  0  0  0  0  0  0  0  0  0
   10.6295  -15.5369   24.2867 O   0  0  0  0  0  0  0  0  0  0  0  0
    8.8595  -16.2559   25.5487 N   0  0  0  0  0  0  0  0  0  0  0  0
    9.2724  -15.7901   26.8417 C   0  0  1  0  0  0  0  0  0  0  0  0
    8.1555  -15.1393   27.6540 C   0  0  0  0  0  0  0  0  0  0  0  0
    7.7166  -13.9224   26.9230 C   0  0  0  0  0  0  0  0  0  0  0  0
    8.5580  -12.9081   26.5290 C   0  0  0  0  0  0  0  0  0  0  0  0
    8.1215  -11.8079   25.8359 C   0  0  0  0  0  0  0  0  0  0  0  0
    6.7816  -11.6723   25.5004 C   0  0  0  0  0  0  0  0  0  0  0  0
    5.9220  -12.7035   25.9069 C   0  0  0  0  0  0  0  0  0  0  0  0
    6.3602  -13.7886   26.5866 C   0  0  0  0  0  0  0  0  0  0  0  0
   10.1132  -16.7290   27.5688 C   0  0  0  0  0  0  0  0  0  0  0  0
   10.4038  -18.0006   27.1824 O   0  0  0  0  0  0  0  0  0  0  0  0
   10.6233  -16.3029   28.6898 O   0  0  0  0  0  0  0  0  0  0  0  0
  1  2  1  0
  2  4  1  0
  2  3  2  0
  4  5  1  0
  6  7  1  1
  6  5  1  0
  8  6  1  0
  9  8  2  0
 10 11  1  0
 11 12  2  0
 13 11  1  0
 13 14  1  0
 15 14  1  6
 15 16  1  0
 16  8  1  0
 17 19  1  0
 17 15  1  0
 18 17  2  0
 20 28  1  0
 20 19  1  0
 20 21  1  1
 22 21  1  0
 22 23  2  0
 24 23  1  0
 25 24  2  0
 26 27  2  0
 26 25  1  0
 27 22  1  0
 28 29  1  0
 30 28  2  0
M  END
$$$$
