QQF.pdb
     RDKit          3D

 30 30  0  0  1  0  0  0  0  0999 V2000
    8.4720  -11.1894   19.8754 N   0  0  0  0  0  0  0  0  0  0  0  0
    8.4028  -12.5739   19.6106 C   0  0  0  0  0  0  0  0  0  0  0  0
    9.3994  -13.1654   19.1436 O   0  0  0  0  0  0  0  0  0  0  0  0
    7.1454  -13.2955   19.8907 C   0  0  0  0  0  0  0  0  0  0  0  0
    7.2385  -14.0000   21.2076 C   0  0  0  0  0  0  0  0  0  0  0  0
    7.4738  -15.4784   21.0462 C   0  0  2  0  0  0  0  0  0  0  0  0
    6.2354  -16.0556   20.4988 N   0  0  0  0  0  0  0  0  0  0  0  0
    7.8049  -16.0775   22.3497 C   0  0  0  0  0  0  0  0  0  0  0  0
    6.8535  -16.2374   23.1769 O   0  0  0  0  0  0  0  0  0  0  0  0
   11.8318  -20.4715   23.1557 N   0  0  0  0  0  0  0  0  0  0  0  0
   11.4802  -20.2549   24.4947 C   0  0  0  0  0  0  0  0  0  0  0  0
   11.8762  -21.0249   25.3871 O   0  0  0  0  0  0  0  0  0  0  0  0
   10.6284  -19.0984   24.8628 C   0  0  0  0  0  0  0  0  0  0  0  0
   10.2601  -18.2870   23.6391 C   0  0  0  0  0  0  0  0  0  0  0  0
    9.3500  -17.1458   23.9307 C   0  0  2  0  0  0  0  0  0  0  0  0
    9.1185  -16.4550   22.6730 N   0  0  0  0  0  0  0  0  0  0  0  0
    9.8535  -16.1938   24.9726 C   0  0  0  0  0  0  0  0  0  0  0  0
   10.7670  -15.3737   24.6463 O   0  0  0  0  0  0  0  0  0  0  0  0
    9.3681  -16.1705   26.2744 N   0  0  0  0  0  0  0  0  0  0  0  0
    9.8288  -15.3909   27.3877 C   0  0  1  0  0  0  0  0  0  0  0  0
    8.7197  -14.6464   28.1268 C   0  0  0  0  0  0  0  0  0  0  0  0
    8.1770  -13.6151   27.2050 C   0  0  0  0  0  0  0  0  0  0  0  0
    8.8082  -12.4291   26.9095 C   0  0  0  0  0  0  0  0  0  0  0  0
    8.2879  -11.5083   26.0361 C   0  0  0  0  0  0  0  0  0  0  0  0
    7.0744  -11.7431   25.4046 C   0  0  0  0  0  0  0  0  0  0  0  0
    6.4276  -12.9497   25.7099 C   0  0  0  0  0  0  0  0  0  0  0  0
    6.9488  -13.8561   26.5691 C   0  0  0  0  0  0  0  0  0  0  0  0
   10.7957  -16.0769   28.2314 C   0  0  0  0  0  0  0  0  0  0  0  0
   11.5537  -15.5006   29.2030 O   0  0  0  0  0  0  0  0  0  0  0  0
   10.9417  -17.3553   28.0246 O   0  0  0  0  0  0  0  0  0  0  0  0
  1  2  1  0
  2  4  1  0
  2  3  2  0
  4  5  1  0
  6  7  1  1
  6  5  1  0
  8  6  1  0
  9  8  2  0
 10 11  1  0
 11 12  2  0
 13 11  1  0
 13 14  1  0
 15 14  1  6
 15 16  1  0
 16  8  1  0
 17 19  1  0
 17 15  1  0
 18 17  2  0
 20 28  1  0
 20 19  1  0
 20 21  1  1
 22 21  1  0
 22 23  2  0
 24 23  1  0
 25 24  2  0
 26 27  2  0
 26 25  1  0
 27 22  1  0
 28 29  1  0
 30 28  2  0
M  END
$$$$
