AIG.pdb
     RDKit          3D

 18 17  0  0  1  0  0  0  0  0999 V2000
    6.3923  -14.4705   20.5661 C   0  0  0  0  0  0  0  0  0  0  0  0
    6.6988  -15.5582   21.5930 C   0  0  2  0  0  0  0  0  0  0  0  0
    5.4976  -16.0228   22.2395 N   0  0  0  0  0  0  0  0  0  0  0  0
    7.5768  -14.9392   22.6100 C   0  0  0  0  0  0  0  0  0  0  0  0
    8.6892  -14.4899   22.2440 O   0  0  0  0  0  0  0  0  0  0  0  0
    5.7373  -11.7420   26.3355 C   0  0  0  0  0  0  0  0  0  0  0  0
    6.6625  -12.3610   25.3315 C   0  0  0  0  0  0  0  0  0  0  0  0
    7.3740  -13.5229   26.0178 C   0  0  2  0  0  0  0  0  0  0  0  0
    8.2507  -12.8963   27.0667 C   0  0  0  0  0  0  0  0  0  0  0  0
    8.1540  -14.3330   25.0048 C   0  0  2  0  0  0  0  0  0  0  0  0
    7.1991  -14.8385   23.9851 N   0  0  0  0  0  0  0  0  0  0  0  0
    8.8909  -15.4768   25.5840 C   0  0  0  0  0  0  0  0  0  0  0  0
    8.3032  -16.2484   26.4372 O   0  0  0  0  0  0  0  0  0  0  0  0
   10.2212  -15.8474   25.3017 N   0  0  0  0  0  0  0  0  0  0  0  0
   10.8769  -16.9921   25.8953 C   0  0  0  0  0  0  0  0  0  0  0  0
   12.2396  -17.1912   25.4257 C   0  0  0  0  0  0  0  0  0  0  0  0
   12.9962  -18.2383   25.9074 O   0  0  0  0  0  0  0  0  0  0  0  0
   12.7399  -16.4188   24.5831 O   0  0  0  0  0  0  0  0  0  0  0  0
  2  1  1  6
  2  3  1  0
  4  5  2  0
  4  2  1  0
  6  7  1  0
  7  8  1  0
  8 10  1  0
  8  9  1  1
 10 12  1  0
 10 11  1  6
 11  4  1  0
 12 14  1  0
 13 12  2  0
 14 15  1  0
 15 16  1  0
 16 18  2  0
 16 17  1  0
M  END
$$$$
