AIG.pdb
     RDKit          3D

 18 17  0  0  1  0  0  0  0  0999 V2000
    9.3743  -19.3199   19.2290 C   0  0  0  0  0  0  0  0  0  0  0  0
    9.3751  -18.0619   18.3636 C   0  0  2  0  0  0  0  0  0  0  0  0
   10.3799  -18.1346   17.3333 N   0  0  0  0  0  0  0  0  0  0  0  0
    9.6987  -16.9338   19.2641 C   0  0  0  0  0  0  0  0  0  0  0  0
   10.9006  -16.5987   19.3924 O   0  0  0  0  0  0  0  0  0  0  0  0
    6.7271  -12.4900   19.5449 C   0  0  0  0  0  0  0  0  0  0  0  0
    7.9383  -13.3730   19.5676 C   0  0  0  0  0  0  0  0  0  0  0  0
    7.9513  -14.1005   20.9085 C   0  0  2  0  0  0  0  0  0  0  0  0
    8.1298  -13.0282   21.9476 C   0  0  0  0  0  0  0  0  0  0  0  0
    9.0555  -15.1353   20.9337 C   0  0  2  0  0  0  0  0  0  0  0  0
    8.6921  -16.2203   19.9861 N   0  0  0  0  0  0  0  0  0  0  0  0
    9.3024  -15.7233   22.2679 C   0  0  0  0  0  0  0  0  0  0  0  0
    8.4514  -16.5588   22.7644 O   0  0  0  0  0  0  0  0  0  0  0  0
   10.4096  -15.4727   23.1034 N   0  0  0  0  0  0  0  0  0  0  0  0
   10.5884  -16.0856   24.4015 C   0  0  0  0  0  0  0  0  0  0  0  0
   11.8601  -16.7770   24.5490 C   0  0  0  0  0  0  0  0  0  0  0  0
   12.2458  -17.2713   25.7769 O   0  0  0  0  0  0  0  0  0  0  0  0
   12.6164  -16.9311   23.5686 O   0  0  0  0  0  0  0  0  0  0  0  0
  2  1  1  1
  2  3  1  0
  4  5  2  0
  4  2  1  0
  6  7  1  0
  7  8  1  0
  8 10  1  0
  8  9  1  1
 10 12  1  0
 10 11  1  6
 11  4  1  0
 12 14  1  0
 13 12  2  0
 14 15  1  0
 15 16  1  0
 16 18  2  0
 16 17  1  0
M  END
$$$$
