AIG.pdb
     RDKit          3D

 18 17  0  0  1  0  0  0  0  0999 V2000
    6.1732  -16.2108   21.3170 C   0  0  0  0  0  0  0  0  0  0  0  0
    6.4670  -14.7132   21.3661 C   0  0  2  0  0  0  0  0  0  0  0  0
    7.0883  -14.2603   20.1473 N   0  0  0  0  0  0  0  0  0  0  0  0
    7.4118  -14.5078   22.4857 C   0  0  0  0  0  0  0  0  0  0  0  0
    8.6414  -14.5873   22.2510 O   0  0  0  0  0  0  0  0  0  0  0  0
    5.7486  -11.3585   26.5903 C   0  0  0  0  0  0  0  0  0  0  0  0
    6.6031  -11.9241   25.4961 C   0  0  0  0  0  0  0  0  0  0  0  0
    7.2115  -13.2237   26.0139 C   0  0  2  0  0  0  0  0  0  0  0  0
    8.1157  -12.8228   27.1466 C   0  0  0  0  0  0  0  0  0  0  0  0
    7.9442  -13.9408   24.9004 C   0  0  2  0  0  0  0  0  0  0  0  0
    6.9698  -14.2241   23.8153 N   0  0  0  0  0  0  0  0  0  0  0  0
    8.5847  -15.2072   25.3158 C   0  0  0  0  0  0  0  0  0  0  0  0
    7.8884  -16.1007   25.9368 O   0  0  0  0  0  0  0  0  0  0  0  0
    9.9281  -15.5772   25.1032 N   0  0  0  0  0  0  0  0  0  0  0  0
   10.4817  -16.8508   25.5083 C   0  0  0  0  0  0  0  0  0  0  0  0
   11.9058  -16.9790   25.2387 C   0  0  0  0  0  0  0  0  0  0  0  0
   12.5855  -15.9700   24.5902 O   0  0  0  0  0  0  0  0  0  0  0  0
   12.5288  -18.0014   25.5902 O   0  0  0  0  0  0  0  0  0  0  0  0
  2  1  1  6
  2  3  1  0
  4  5  2  0
  4  2  1  0
  6  7  1  0
  7  8  1  0
  8 10  1  0
  8  9  1  1
 10 12  1  0
 10 11  1  6
 11  4  1  0
 12 14  1  0
 13 12  2  0
 14 15  1  0
 15 16  1  0
 16 18  2  0
 16 17  1  0
M  END
$$$$
