AIG.pdb
     RDKit          3D

 18 17  0  0  1  0  0  0  0  0999 V2000
    7.9168  -19.5098   18.3555 C   0  0  0  0  0  0  0  0  0  0  0  0
    7.8861  -18.1032   17.7620 C   0  0  2  0  0  0  0  0  0  0  0  0
    8.5006  -18.0702   16.4590 N   0  0  0  0  0  0  0  0  0  0  0  0
    8.6681  -17.2444   18.6780 C   0  0  0  0  0  0  0  0  0  0  0  0
    9.9024  -17.1341   18.4843 O   0  0  0  0  0  0  0  0  0  0  0  0
    6.7692  -12.4924   20.1227 C   0  0  0  0  0  0  0  0  0  0  0  0
    7.7249  -13.5782   19.7291 C   0  0  0  0  0  0  0  0  0  0  0  0
    7.9835  -14.4330   20.9660 C   0  0  2  0  0  0  0  0  0  0  0  0
    8.6202  -13.5103   21.9683 C   0  0  0  0  0  0  0  0  0  0  0  0
    8.8602  -15.6153   20.6132 C   0  0  2  0  0  0  0  0  0  0  0  0
    8.0649  -16.5427   19.7678 N   0  0  0  0  0  0  0  0  0  0  0  0
    9.3777  -16.3548   21.7846 C   0  0  0  0  0  0  0  0  0  0  0  0
    8.5498  -16.9241   22.5964 O   0  0  0  0  0  0  0  0  0  0  0  0
   10.7315  -16.5248   22.1383 N   0  0  0  0  0  0  0  0  0  0  0  0
   11.1734  -17.3475   23.2430 C   0  0  0  0  0  0  0  0  0  0  0  0
   11.2905  -16.6223   24.4990 C   0  0  0  0  0  0  0  0  0  0  0  0
   12.4945  -16.0628   24.8705 O   0  0  0  0  0  0  0  0  0  0  0  0
   10.3052  -16.4977   25.2543 O   0  0  0  0  0  0  0  0  0  0  0  0
  2  1  1  1
  2  3  1  0
  4  5  2  0
  4  2  1  0
  6  7  1  0
  7  8  1  0
  8 10  1  0
  8  9  1  1
 10 12  1  0
 10 11  1  6
 11  4  1  0
 12 14  1  0
 13 12  2  0
 14 15  1  0
 15 16  1  0
 16 18  2  0
 16 17  1  0
M  END
$$$$
