AIG.pdb
     RDKit          3D

 18 17  0  0  1  0  0  0  0  0999 V2000
    8.5981  -19.6920   19.0205 C   0  0  0  0  0  0  0  0  0  0  0  0
    8.5128  -18.3914   18.2251 C   0  0  2  0  0  0  0  0  0  0  0  0
    9.2640  -18.4766   16.9983 N   0  0  0  0  0  0  0  0  0  0  0  0
    9.1105  -17.3394   19.0762 C   0  0  0  0  0  0  0  0  0  0  0  0
   10.3327  -17.0893   18.9456 O   0  0  0  0  0  0  0  0  0  0  0  0
    6.5859  -12.7304   20.0347 C   0  0  0  0  0  0  0  0  0  0  0  0
    7.6804  -13.7218   19.7768 C   0  0  0  0  0  0  0  0  0  0  0  0
    7.9557  -14.4531   21.0871 C   0  0  2  0  0  0  0  0  0  0  0  0
    8.4287  -13.3968   22.0471 C   0  0  0  0  0  0  0  0  0  0  0  0
    8.9739  -15.5520   20.8711 C   0  0  2  0  0  0  0  0  0  0  0  0
    8.3443  -16.6058   20.0345 N   0  0  0  0  0  0  0  0  0  0  0  0
    9.4765  -16.1641   22.1199 C   0  0  0  0  0  0  0  0  0  0  0  0
    8.6726  -16.8503   22.8627 O   0  0  0  0  0  0  0  0  0  0  0  0
   10.7917  -16.0888   22.6211 N   0  0  0  0  0  0  0  0  0  0  0  0
   11.2455  -16.8087   23.7909 C   0  0  0  0  0  0  0  0  0  0  0  0
   12.6247  -16.5202   24.1537 C   0  0  0  0  0  0  0  0  0  0  0  0
   12.9071  -15.7615   25.2697 O   0  0  0  0  0  0  0  0  0  0  0  0
   13.5674  -16.9546   23.4613 O   0  0  0  0  0  0  0  0  0  0  0  0
  2  1  1  1
  2  3  1  0
  4  5  2  0
  4  2  1  0
  6  7  1  0
  7  8  1  0
  8 10  1  0
  8  9  1  1
 10 12  1  0
 10 11  1  6
 11  4  1  0
 12 14  1  0
 13 12  2  0
 14 15  1  0
 15 16  1  0
 16 18  2  0
 16 17  1  0
M  END
$$$$
