AIG.pdb
     RDKit          3D

 18 17  0  0  1  0  0  0  0  0999 V2000
    6.7395  -14.9754   20.5238 C   0  0  0  0  0  0  0  0  0  0  0  0
    6.9435  -13.5198   20.9377 C   0  0  2  0  0  0  0  0  0  0  0  0
    7.7045  -12.7957   19.9512 N   0  0  0  0  0  0  0  0  0  0  0  0
    7.7096  -13.5470   22.2028 C   0  0  0  0  0  0  0  0  0  0  0  0
    8.9578  -13.4364   22.1469 O   0  0  0  0  0  0  0  0  0  0  0  0
    5.8262  -11.2593   26.6326 C   0  0  0  0  0  0  0  0  0  0  0  0
    6.7608  -11.7409   25.5640 C   0  0  0  0  0  0  0  0  0  0  0  0
    7.0738  -13.2057   25.8538 C   0  0  2  0  0  0  0  0  0  0  0  0
    7.8130  -13.2090   27.1633 C   0  0  0  0  0  0  0  0  0  0  0  0
    7.8792  -13.8045   24.7208 C   0  0  2  0  0  0  0  0  0  0  0  0
    7.0761  -13.6942   23.4759 N   0  0  0  0  0  0  0  0  0  0  0  0
    8.2548  -15.2197   24.9284 C   0  0  0  0  0  0  0  0  0  0  0  0
    7.3313  -16.1058   25.1037 O   0  0  0  0  0  0  0  0  0  0  0  0
    9.5624  -15.7453   24.9564 N   0  0  0  0  0  0  0  0  0  0  0  0
    9.8558  -17.1562   25.0824 C   0  0  0  0  0  0  0  0  0  0  0  0
   11.2792  -17.4520   25.1433 C   0  0  0  0  0  0  0  0  0  0  0  0
   11.7676  -18.3338   26.0837 O   0  0  0  0  0  0  0  0  0  0  0  0
   12.0742  -16.9126   24.3472 O   0  0  0  0  0  0  0  0  0  0  0  0
  2  1  1  6
  2  3  1  0
  4  5  2  0
  4  2  1  0
  6  7  1  0
  7  8  1  0
  8 10  1  0
  8  9  1  1
 10 12  1  0
 10 11  1  6
 11  4  1  0
 12 14  1  0
 13 12  2  0
 14 15  1  0
 15 16  1  0
 16 18  2  0
 16 17  1  0
M  END
$$$$
