AIG.pdb
     RDKit          3D

 18 17  0  0  1  0  0  0  0  0999 V2000
    7.6735  -19.5709   18.9917 C   0  0  0  0  0  0  0  0  0  0  0  0
    7.5943  -18.2878   18.1677 C   0  0  2  0  0  0  0  0  0  0  0  0
    8.1481  -18.4753   16.8506 N   0  0  0  0  0  0  0  0  0  0  0  0
    8.4043  -17.2786   18.8844 C   0  0  0  0  0  0  0  0  0  0  0  0
    9.6080  -17.1400   18.5602 O   0  0  0  0  0  0  0  0  0  0  0  0
    6.5557  -12.4243   20.0629 C   0  0  0  0  0  0  0  0  0  0  0  0
    7.5355  -13.4993   19.7000 C   0  0  0  0  0  0  0  0  0  0  0  0
    7.8600  -14.2739   20.9737 C   0  0  2  0  0  0  0  0  0  0  0  0
    8.5558  -13.2929   21.8763 C   0  0  0  0  0  0  0  0  0  0  0  0
    8.7107  -15.4833   20.6503 C   0  0  2  0  0  0  0  0  0  0  0  0
    7.8615  -16.4638   19.9262 N   0  0  0  0  0  0  0  0  0  0  0  0
    9.3022  -16.1405   21.8357 C   0  0  0  0  0  0  0  0  0  0  0  0
    8.5488  -16.8346   22.6227 O   0  0  0  0  0  0  0  0  0  0  0  0
   10.6553  -16.1023   22.2284 N   0  0  0  0  0  0  0  0  0  0  0  0
   11.1904  -16.8670   23.3336 C   0  0  0  0  0  0  0  0  0  0  0  0
   12.5985  -16.6085   23.5933 C   0  0  0  0  0  0  0  0  0  0  0  0
   13.0484  -16.4365   24.8851 O   0  0  0  0  0  0  0  0  0  0  0  0
   13.4152  -16.5392   22.6525 O   0  0  0  0  0  0  0  0  0  0  0  0
  2  1  1  1
  2  3  1  0
  4  5  2  0
  4  2  1  0
  6  7  1  0
  7  8  1  0
  8 10  1  0
  8  9  1  1
 10 12  1  0
 10 11  1  1
 11  4  1  0
 12 14  1  0
 13 12  2  0
 14 15  1  0
 15 16  1  0
 16 18  2  0
 16 17  1  0
M  END
$$$$
