AIG.pdb
     RDKit          3D

 18 17  0  0  1  0  0  0  0  0999 V2000
    6.8983  -16.3099   21.1573 C   0  0  0  0  0  0  0  0  0  0  0  0
    6.9207  -14.7875   21.2730 C   0  0  2  0  0  0  0  0  0  0  0  0
    7.5021  -14.1809   20.1022 N   0  0  0  0  0  0  0  0  0  0  0  0
    7.7671  -14.4684   22.4435 C   0  0  0  0  0  0  0  0  0  0  0  0
    8.9948  -14.2880   22.2605 O   0  0  0  0  0  0  0  0  0  0  0  0
    5.9231  -11.4821   26.4240 C   0  0  0  0  0  0  0  0  0  0  0  0
    6.8670  -12.0779   25.4234 C   0  0  0  0  0  0  0  0  0  0  0  0
    7.3627  -13.4037   25.9925 C   0  0  2  0  0  0  0  0  0  0  0  0
    8.2099  -13.0412   27.1808 C   0  0  0  0  0  0  0  0  0  0  0  0
    8.1262  -14.1753   24.9376 C   0  0  2  0  0  0  0  0  0  0  0  0
    7.2329  -14.3602   23.7651 N   0  0  0  0  0  0  0  0  0  0  0  0
    8.6103  -15.4979   25.3882 C   0  0  0  0  0  0  0  0  0  0  0  0
    7.7609  -16.3886   25.7804 O   0  0  0  0  0  0  0  0  0  0  0  0
    9.9519  -15.9268   25.4413 N   0  0  0  0  0  0  0  0  0  0  0  0
   10.3485  -17.2766   25.7780 C   0  0  0  0  0  0  0  0  0  0  0  0
   10.6001  -17.4728   27.1976 C   0  0  0  0  0  0  0  0  0  0  0  0
   11.8652  -17.7921   27.6431 O   0  0  0  0  0  0  0  0  0  0  0  0
    9.6765  -17.3549   28.0282 O   0  0  0  0  0  0  0  0  0  0  0  0
  2  1  1  6
  2  3  1  0
  4  5  2  0
  4  2  1  0
  6  7  1  0
  7  8  1  0
  8 10  1  0
  8  9  1  1
 10 12  1  0
 10 11  1  6
 11  4  1  0
 12 14  1  0
 13 12  2  0
 14 15  1  0
 15 16  1  0
 16 18  2  0
 16 17  1  0
M  END
$$$$
