TTD.pdb
     RDKit          3D

 23 22  0  0  1  0  0  0  0  0999 V2000
    6.6474  -15.1059   18.4172 C   0  0  0  0  0  0  0  0  0  0  0  0
    7.4255  -15.1243   19.7037 C   0  0  1  0  0  0  0  0  0  0  0  0
    8.7174  -15.6242   19.5495 O   0  0  0  0  0  0  0  0  0  0  0  0
    7.4254  -13.7973   20.4159 C   0  0  2  0  0  0  0  0  0  0  0  0
    7.9056  -12.7834   19.5046 N   0  0  0  0  0  0  0  0  0  0  0  0
    8.1669  -13.8164   21.6862 C   0  0  0  0  0  0  0  0  0  0  0  0
    9.3369  -13.3740   21.7345 O   0  0  0  0  0  0  0  0  0  0  0  0
    6.6526  -12.5832   24.9974 C   0  0  0  0  0  0  0  0  0  0  0  0
    7.1939  -13.9734   25.2372 C   0  0  1  0  0  0  0  0  0  0  0  0
    6.0958  -14.8351   25.0546 O   0  0  0  0  0  0  0  0  0  0  0  0
    8.2438  -14.3018   24.1813 C   0  0  2  0  0  0  0  0  0  0  0  0
    7.5755  -14.3310   22.8675 N   0  0  0  0  0  0  0  0  0  0  0  0
    8.9191  -15.5798   24.4237 C   0  0  0  0  0  0  0  0  0  0  0  0
    8.3886  -16.6520   23.9482 O   0  0  0  0  0  0  0  0  0  0  0  0
   10.1168  -15.7627   25.1356 N   0  0  0  0  0  0  0  0  0  0  0  0
   10.6285  -17.1370   25.3266 C   0  0  1  0  0  0  0  0  0  0  0  0
   12.1281  -17.0117   25.3830 C   0  0  0  0  0  0  0  0  0  0  0  0
   12.6822  -16.7141   24.0726 C   0  0  0  0  0  0  0  0  0  0  0  0
   12.0346  -16.9275   23.0276 O   0  0  0  0  0  0  0  0  0  0  0  0
   10.1308  -17.6027   26.6613 C   0  0  0  0  0  0  0  0  0  0  0  0
   10.1565  -18.8846   27.1178 O   0  0  0  0  0  0  0  0  0  0  0  0
   13.9592  -16.1766   23.8970 O   0  0  0  0  0  0  0  0  0  0  0  0
    9.6311  -16.7338   27.4615 O   0  0  0  0  0  0  0  0  0  0  0  0
  2  1  1  6
  2  4  1  0
  3  2  1  0
  4  5  1  6
  6  4  1  0
  7  6  2  0
  9  8  1  6
  9 10  1  0
  9 11  1  0
 11 13  1  0
 11 12  1  6
 12  6  1  0
 13 15  1  0
 14 13  2  0
 15 16  1  0
 16 20  1  0
 16 17  1  1
 17 18  1  0
 18 22  1  0
 19 18  2  0
 20 23  2  0
 20 21  1  0
M  END
$$$$
