TTD.pdb
     RDKit          3D

 23 22  0  0  1  0  0  0  0  0999 V2000
    7.6811  -15.9161   16.2641 C   0  0  0  0  0  0  0  0  0  0  0  0
    8.4794  -15.6263   17.5049 C   0  0  1  0  0  0  0  0  0  0  0  0
    9.8551  -15.6445   17.2818 O   0  0  0  0  0  0  0  0  0  0  0  0
    8.0477  -14.3659   18.2069 C   0  0  2  0  0  0  0  0  0  0  0  0
    8.2069  -13.2530   17.2986 N   0  0  0  0  0  0  0  0  0  0  0  0
    8.7289  -14.1513   19.4930 C   0  0  0  0  0  0  0  0  0  0  0  0
    9.6874  -13.3496   19.5673 O   0  0  0  0  0  0  0  0  0  0  0  0
    6.8762  -13.2764   22.7313 C   0  0  0  0  0  0  0  0  0  0  0  0
    7.7058  -14.5133   22.9861 C   0  0  1  0  0  0  0  0  0  0  0  0
    6.8483  -15.5965   22.7164 O   0  0  0  0  0  0  0  0  0  0  0  0
    8.8669  -14.5616   21.9989 C   0  0  2  0  0  0  0  0  0  0  0  0
    8.3160  -14.8418   20.6604 N   0  0  0  0  0  0  0  0  0  0  0  0
    9.8703  -15.5725   22.3446 C   0  0  0  0  0  0  0  0  0  0  0  0
    9.7487  -16.7519   21.8433 O   0  0  0  0  0  0  0  0  0  0  0  0
   10.9815  -15.3845   23.1842 N   0  0  0  0  0  0  0  0  0  0  0  0
   11.9227  -16.5080   23.3814 C   0  0  1  0  0  0  0  0  0  0  0  0
   13.2095  -15.8861   23.8557 C   0  0  0  0  0  0  0  0  0  0  0  0
   14.3615  -16.5203   23.2366 C   0  0  0  0  0  0  0  0  0  0  0  0
   14.3959  -17.7506   23.0313 O   0  0  0  0  0  0  0  0  0  0  0  0
   11.3602  -17.3561   24.4816 C   0  0  0  0  0  0  0  0  0  0  0  0
   11.6638  -18.6621   24.7149 O   0  0  0  0  0  0  0  0  0  0  0  0
   15.4922  -15.8055   22.8352 O   0  0  0  0  0  0  0  0  0  0  0  0
   10.5148  -16.8257   25.2871 O   0  0  0  0  0  0  0  0  0  0  0  0
  2  1  1  6
  2  4  1  0
  3  2  1  0
  4  5  1  6
  6  4  1  0
  7  6  2  0
  9  8  1  6
  9 10  1  0
  9 11  1  0
 11 13  1  0
 11 12  1  6
 12  6  1  0
 13 15  1  0
 14 13  2  0
 15 16  1  0
 16 20  1  0
 16 17  1  1
 17 18  1  0
 18 22  1  0
 19 18  2  0
 20 23  2  0
 20 21  1  0
M  END
$$$$
