TTD.pdb
     RDKit          3D

 23 22  0  0  1  0  0  0  0  0999 V2000
    8.2274  -19.3839   19.0763 C   0  0  0  0  0  0  0  0  0  0  0  0
    8.8427  -18.8391   17.8172 C   0  0  1  0  0  0  0  0  0  0  0  0
    8.5097  -19.5811   16.6853 O   0  0  0  0  0  0  0  0  0  0  0  0
    8.5785  -17.3703   17.6154 C   0  0  2  0  0  0  0  0  0  0  0  0
    9.0473  -16.9925   16.3014 N   0  0  0  0  0  0  0  0  0  0  0  0
    9.1362  -16.5248   18.6821 C   0  0  0  0  0  0  0  0  0  0  0  0
   10.3642  -16.2843   18.7124 O   0  0  0  0  0  0  0  0  0  0  0  0
    7.3085  -13.2492   20.1888 C   0  0  0  0  0  0  0  0  0  0  0  0
    7.6679  -14.2442   21.2676 C   0  0  1  0  0  0  0  0  0  0  0  0
    6.5217  -15.0451   21.4295 O   0  0  0  0  0  0  0  0  0  0  0  0
    8.8101  -15.1311   20.7841 C   0  0  2  0  0  0  0  0  0  0  0  0
    8.3008  -15.9721   19.6855 N   0  0  0  0  0  0  0  0  0  0  0  0
    9.3638  -15.9794   21.8435 C   0  0  0  0  0  0  0  0  0  0  0  0
    8.8959  -17.1707   21.9807 O   0  0  0  0  0  0  0  0  0  0  0  0
   10.3799  -15.6216   22.7460 N   0  0  0  0  0  0  0  0  0  0  0  0
   10.8432  -16.6239   23.7297 C   0  0  1  0  0  0  0  0  0  0  0  0
   12.3162  -16.3687   23.9119 C   0  0  0  0  0  0  0  0  0  0  0  0
   13.1095  -17.2008   23.0226 C   0  0  0  0  0  0  0  0  0  0  0  0
   12.5758  -18.0245   22.2521 O   0  0  0  0  0  0  0  0  0  0  0  0
   10.1370  -16.3254   25.0175 C   0  0  0  0  0  0  0  0  0  0  0  0
    9.7702  -15.0907   25.4569 O   0  0  0  0  0  0  0  0  0  0  0  0
   14.5037  -17.1355   22.9710 O   0  0  0  0  0  0  0  0  0  0  0  0
    9.8425  -17.3050   25.7912 O   0  0  0  0  0  0  0  0  0  0  0  0
  2  1  1  1
  2  4  1  0
  3  2  1  0
  4  5  1  6
  6  4  1  0
  7  6  2  0
  9  8  1  6
  9 10  1  0
  9 11  1  0
 11 13  1  0
 11 12  1  6
 12  6  1  0
 13 15  1  0
 14 13  2  0
 15 16  1  0
 16 20  1  0
 16 17  1  1
 17 18  1  0
 18 22  1  0
 19 18  2  0
 20 23  2  0
 20 21  1  0
M  END
$$$$
