TTD.pdb
     RDKit          3D

 23 22  0  0  1  0  0  0  0  0999 V2000
    7.7663  -15.9138   15.2277 C   0  0  0  0  0  0  0  0  0  0  0  0
    8.4464  -15.6301   16.5384 C   0  0  1  0  0  0  0  0  0  0  0  0
    9.8368  -15.6515   16.4442 O   0  0  0  0  0  0  0  0  0  0  0  0
    7.9544  -14.3707   17.2014 C   0  0  2  0  0  0  0  0  0  0  0  0
    8.1390  -13.2652   16.2886 N   0  0  0  0  0  0  0  0  0  0  0  0
    8.5635  -14.1277   18.5181 C   0  0  0  0  0  0  0  0  0  0  0  0
    9.5767  -13.3989   18.6140 O   0  0  0  0  0  0  0  0  0  0  0  0
    6.6730  -13.0365   21.5722 C   0  0  0  0  0  0  0  0  0  0  0  0
    7.4500  -14.2575   22.0067 C   0  0  1  0  0  0  0  0  0  0  0  0
    6.5424  -15.3288   21.9073 O   0  0  0  0  0  0  0  0  0  0  0  0
    8.5964  -14.5064   21.0326 C   0  0  2  0  0  0  0  0  0  0  0  0
    8.0192  -14.7088   19.6912 N   0  0  0  0  0  0  0  0  0  0  0  0
    9.4182  -15.6632   21.3995 C   0  0  0  0  0  0  0  0  0  0  0  0
    9.8017  -16.4621   20.4659 O   0  0  0  0  0  0  0  0  0  0  0  0
    9.8455  -15.9990   22.6955 N   0  0  0  0  0  0  0  0  0  0  0  0
   10.8802  -17.0434   22.8554 C   0  0  1  0  0  0  0  0  0  0  0  0
   12.0878  -16.5415   22.1087 C   0  0  0  0  0  0  0  0  0  0  0  0
   13.2331  -17.4133   22.3112 C   0  0  0  0  0  0  0  0  0  0  0  0
   13.1448  -18.4587   22.9867 O   0  0  0  0  0  0  0  0  0  0  0  0
   11.2070  -17.1091   24.3166 C   0  0  0  0  0  0  0  0  0  0  0  0
   11.5993  -18.2214   24.9957 O   0  0  0  0  0  0  0  0  0  0  0  0
   14.4924  -17.1436   21.7708 O   0  0  0  0  0  0  0  0  0  0  0  0
   11.1152  -16.0338   25.0096 O   0  0  0  0  0  0  0  0  0  0  0  0
  2  1  1  6
  2  4  1  0
  3  2  1  0
  4  5  1  6
  6  4  1  0
  7  6  2  0
  9  8  1  6
  9 10  1  0
  9 11  1  0
 11 13  1  0
 11 12  1  6
 12  6  1  0
 13 15  1  0
 14 13  2  0
 15 16  1  0
 16 20  1  0
 16 17  1  6
 17 18  1  0
 18 22  1  0
 19 18  2  0
 20 23  2  0
 20 21  1  0
M  END
$$$$
