TTD.pdb
     RDKit          3D

 23 22  0  0  1  0  0  0  0  0999 V2000
    8.3677  -12.5452   17.1383 C   0  0  0  0  0  0  0  0  0  0  0  0
    7.8739  -13.9587   17.2771 C   0  0  1  0  0  0  0  0  0  0  0  0
    7.3744  -14.4786   16.0843 O   0  0  0  0  0  0  0  0  0  0  0  0
    8.8854  -14.8814   17.9042 C   0  0  2  0  0  0  0  0  0  0  0  0
    8.4144  -16.2416   17.7728 N   0  0  0  0  0  0  0  0  0  0  0  0
    9.2171  -14.5269   19.2928 C   0  0  0  0  0  0  0  0  0  0  0  0
    9.8538  -13.4769   19.5356 O   0  0  0  0  0  0  0  0  0  0  0  0
    6.9716  -14.1644   22.2303 C   0  0  0  0  0  0  0  0  0  0  0  0
    7.9717  -15.2210   22.6384 C   0  0  1  0  0  0  0  0  0  0  0  0
    7.3464  -16.4507   22.3581 O   0  0  0  0  0  0  0  0  0  0  0  0
    9.2190  -15.1065   21.7689 C   0  0  2  0  0  0  0  0  0  0  0  0
    8.8253  -15.3600   20.3710 N   0  0  0  0  0  0  0  0  0  0  0  0
   10.2792  -16.0386   22.1633 C   0  0  0  0  0  0  0  0  0  0  0  0
   10.8317  -16.7586   21.2504 O   0  0  0  0  0  0  0  0  0  0  0  0
   10.7711  -16.2318   23.4655 N   0  0  0  0  0  0  0  0  0  0  0  0
   12.0776  -16.9021   23.6404 C   0  0  1  0  0  0  0  0  0  0  0  0
   13.0957  -15.9843   23.0168 C   0  0  0  0  0  0  0  0  0  0  0  0
   14.4492  -16.4548   23.2604 C   0  0  0  0  0  0  0  0  0  0  0  0
   14.6803  -17.6398   23.5759 O   0  0  0  0  0  0  0  0  0  0  0  0
   12.3319  -16.9767   25.1155 C   0  0  0  0  0  0  0  0  0  0  0  0
   11.5329  -16.4601   26.0885 O   0  0  0  0  0  0  0  0  0  0  0  0
   15.5673  -15.6240   23.1591 O   0  0  0  0  0  0  0  0  0  0  0  0
   13.3914  -17.5754   25.5208 O   0  0  0  0  0  0  0  0  0  0  0  0
  2  1  1  6
  2  4  1  0
  3  2  1  0
  4  5  1  1
  6  4  1  0
  7  6  2  0
  9  8  1  6
  9 10  1  0
  9 11  1  0
 11 13  1  0
 11 12  1  6
 12  6  1  0
 13 15  1  0
 14 13  2  0
 15 16  1  0
 16 20  1  0
 16 17  1  6
 17 18  1  0
 18 22  1  0
 19 18  2  0
 20 23  2  0
 20 21  1  0
M  END
$$$$
