TTD.pdb
     RDKit          3D

 23 22  0  0  1  0  0  0  0  0999 V2000
    8.9229  -16.7173   17.3682 C   0  0  0  0  0  0  0  0  0  0  0  0
    8.9136  -15.3043   16.8539 C   0  0  1  0  0  0  0  0  0  0  0  0
    8.5346  -15.2164   15.5156 O   0  0  0  0  0  0  0  0  0  0  0  0
    8.1172  -14.3636   17.7192 C   0  0  2  0  0  0  0  0  0  0  0  0
    7.9167  -13.1282   16.9961 N   0  0  0  0  0  0  0  0  0  0  0  0
    8.7075  -14.1533   19.0501 C   0  0  0  0  0  0  0  0  0  0  0  0
    9.7537  -13.4767   19.1708 O   0  0  0  0  0  0  0  0  0  0  0  0
    6.7417  -13.3381   22.3325 C   0  0  0  0  0  0  0  0  0  0  0  0
    7.5876  -14.5664   22.5752 C   0  0  1  0  0  0  0  0  0  0  0  0
    6.7285  -15.6583   22.3490 O   0  0  0  0  0  0  0  0  0  0  0  0
    8.7148  -14.6208   21.5497 C   0  0  2  0  0  0  0  0  0  0  0  0
    8.1078  -14.7076   20.2090 N   0  0  0  0  0  0  0  0  0  0  0  0
    9.6237  -15.7517   21.7578 C   0  0  0  0  0  0  0  0  0  0  0  0
   10.0323  -16.4059   20.7272 O   0  0  0  0  0  0  0  0  0  0  0  0
   10.1113  -16.2068   22.9947 N   0  0  0  0  0  0  0  0  0  0  0  0
   11.3137  -17.0676   23.0125 C   0  0  1  0  0  0  0  0  0  0  0  0
   12.4472  -16.1982   22.5359 C   0  0  0  0  0  0  0  0  0  0  0  0
   13.7244  -16.8801   22.6634 C   0  0  0  0  0  0  0  0  0  0  0  0
   13.8002  -18.0445   23.1053 O   0  0  0  0  0  0  0  0  0  0  0  0
   11.5579  -17.4408   24.4433 C   0  0  0  0  0  0  0  0  0  0  0  0
   12.1679  -18.5776   24.8768 O   0  0  0  0  0  0  0  0  0  0  0  0
   14.9366  -16.2862   22.3048 O   0  0  0  0  0  0  0  0  0  0  0  0
   11.1651  -16.6327   25.3585 O   0  0  0  0  0  0  0  0  0  0  0  0
  2  1  1  1
  2  4  1  0
  3  2  1  0
  4  5  1  6
  6  4  1  0
  7  6  2  0
  9  8  1  6
  9 10  1  0
  9 11  1  0
 11 13  1  0
 11 12  1  6
 12  6  1  0
 13 15  1  0
 14 13  2  0
 15 16  1  0
 16 20  1  0
 16 17  1  1
 17 18  1  0
 18 22  1  0
 19 18  2  0
 20 23  2  0
 20 21  1  0
M  END
$$$$
