KWC.pdb
     RDKit          3D

 30 31  0  0  1  0  0  0  0  0999 V2000
    6.5692  -16.0463   20.6066 N   0  0  0  0  0  0  0  0  0  0  0  0
    7.9117  -15.5174   20.5028 C   0  0  1  0  0  0  0  0  0  0  0  0
    8.0397  -14.2925   19.6611 C   0  0  0  0  0  0  0  0  0  0  0  0
    8.6787  -14.4293   18.3367 C   0  0  0  0  0  0  0  0  0  0  0  0
    7.9597  -13.6662   17.2639 C   0  0  0  0  0  0  0  0  0  0  0  0
    8.7837  -13.8449   15.9638 C   0  0  0  0  0  0  0  0  0  0  0  0
    8.0795  -13.1231   14.9419 N   0  0  0  0  0  0  0  0  0  0  0  0
    8.4169  -15.1899   21.8451 C   0  0  0  0  0  0  0  0  0  0  0  0
    8.5875  -14.0134   22.1837 O   0  0  0  0  0  0  0  0  0  0  0  0
    8.7130  -16.2128   22.7644 N   0  0  0  0  0  0  0  0  0  0  0  0
    9.3461  -16.0284   24.0217 C   0  0  1  0  0  0  0  0  0  0  0  0
    8.5544  -16.3769   25.2452 C   0  0  0  0  0  0  0  0  0  0  0  0
    7.4343  -15.4235   25.4556 C   0  0  0  0  0  0  0  0  0  0  0  0
    6.0705  -15.7094   25.3346 C   0  0  0  0  0  0  0  0  0  0  0  0
    5.3513  -14.6194   25.6166 N   0  0  0  0  0  0  0  0  0  0  0  0
    6.2002  -13.6177   25.9211 C   0  0  0  0  0  0  0  0  0  0  0  0
    5.9326  -12.2996   26.2751 C   0  0  0  0  0  0  0  0  0  0  0  0
    7.0001  -11.4754   26.5306 C   0  0  0  0  0  0  0  0  0  0  0  0
    8.3073  -11.9389   26.4395 C   0  0  0  0  0  0  0  0  0  0  0  0
    8.5492  -13.2426   26.0890 C   0  0  0  0  0  0  0  0  0  0  0  0
    7.4753  -14.0893   25.8279 C   0  0  0  0  0  0  0  0  0  0  0  0
   10.5811  -16.8504   24.0498 C   0  0  0  0  0  0  0  0  0  0  0  0
   10.4788  -18.0606   23.7132 O   0  0  0  0  0  0  0  0  0  0  0  0
   11.8399  -16.3181   24.4369 N   0  0  0  0  0  0  0  0  0  0  0  0
   13.0043  -17.1545   24.4912 C   0  0  1  0  0  0  0  0  0  0  0  0
   14.2901  -16.3578   24.3774 C   0  0  0  0  0  0  0  0  0  0  0  0
   14.2687  -15.4224   22.8216 S   0  0  0  0  0  0  0  0  0  0  0  0
   13.0475  -17.8396   25.8015 C   0  0  0  0  0  0  0  0  0  0  0  0
   14.0758  -18.7264   26.0629 O   0  0  0  0  0  0  0  0  0  0  0  0
   12.1551  -17.6185   26.6747 O   0  0  0  0  0  0  0  0  0  0  0  0
  2  8  1  0
  2  1  1  1
  3  4  1  0
  3  2  1  0
  5  6  1  0
  5  4  1  0
  6  7  1  0
  8  9  2  0
 10 11  1  0
 10  8  1  0
 11 12  1  1
 13 12  1  0
 14 13  2  0
 15 14  1  0
 16 15  1  0
 16 21  2  0
 17 16  1  0
 18 17  2  0
 18 19  1  0
 19 20  2  0
 20 21  1  0
 21 13  1  0
 22 11  1  0
 23 22  2  0
 24 22  1  0
 25 26  1  1
 25 24  1  0
 26 27  1  0
 28 29  1  0
 28 25  1  0
 30 28  2  0
M  END
$$$$
