KWC.pdb
     RDKit          3D

 30 31  0  0  1  0  0  0  0  0999 V2000
    7.1495  -16.5103   21.1060 N   0  0  0  0  0  0  0  0  0  0  0  0
    8.3511  -15.7443   20.8562 C   0  0  1  0  0  0  0  0  0  0  0  0
    8.1270  -14.4210   20.2052 C   0  0  0  0  0  0  0  0  0  0  0  0
    7.0476  -14.3195   19.2024 C   0  0  0  0  0  0  0  0  0  0  0  0
    7.5573  -14.3794   17.7929 C   0  0  0  0  0  0  0  0  0  0  0  0
    7.9539  -12.9333   17.4023 C   0  0  0  0  0  0  0  0  0  0  0  0
    8.3807  -12.9920   16.0328 N   0  0  0  0  0  0  0  0  0  0  0  0
    9.0537  -15.5025   22.1259 C   0  0  0  0  0  0  0  0  0  0  0  0
    9.8015  -14.5269   22.2556 O   0  0  0  0  0  0  0  0  0  0  0  0
    8.8838  -16.3794   23.2127 N   0  0  0  0  0  0  0  0  0  0  0  0
    9.4675  -16.2179   24.4968 C   0  0  1  0  0  0  0  0  0  0  0  0
    8.5745  -16.4098   25.6845 C   0  0  0  0  0  0  0  0  0  0  0  0
    7.4713  -15.4145   25.6995 C   0  0  0  0  0  0  0  0  0  0  0  0
    6.1153  -15.6790   25.4813 C   0  0  0  0  0  0  0  0  0  0  0  0
    5.4091  -14.5502   25.5911 N   0  0  0  0  0  0  0  0  0  0  0  0
    6.2591  -13.5436   25.8757 C   0  0  0  0  0  0  0  0  0  0  0  0
    6.0035  -12.1914   26.0767 C   0  0  0  0  0  0  0  0  0  0  0  0
    7.0699  -11.3713   26.3497 C   0  0  0  0  0  0  0  0  0  0  0  0
    8.3644  -11.8719   26.4237 C   0  0  0  0  0  0  0  0  0  0  0  0
    8.5946  -13.2088   26.2224 C   0  0  0  0  0  0  0  0  0  0  0  0
    7.5217  -14.0517   25.9454 C   0  0  0  0  0  0  0  0  0  0  0  0
   10.5858  -17.1842   24.6284 C   0  0  0  0  0  0  0  0  0  0  0  0
   10.3686  -18.3731   24.2710 O   0  0  0  0  0  0  0  0  0  0  0  0
   11.8591  -16.8090   25.1339 N   0  0  0  0  0  0  0  0  0  0  0  0
   12.9169  -17.7719   25.2445 C   0  0  1  0  0  0  0  0  0  0  0  0
   14.2888  -17.1260   25.2041 C   0  0  0  0  0  0  0  0  0  0  0  0
   14.4538  -16.1879   23.6586 S   0  0  0  0  0  0  0  0  0  0  0  0
   12.8124  -18.4581   26.5507 C   0  0  0  0  0  0  0  0  0  0  0  0
   13.7589  -19.4077   26.8890 O   0  0  0  0  0  0  0  0  0  0  0  0
   11.8686  -18.1812   27.3511 O   0  0  0  0  0  0  0  0  0  0  0  0
  2  8  1  0
  2  1  1  1
  3  4  1  0
  3  2  1  0
  5  6  1  0
  5  4  1  0
  6  7  1  0
  8  9  2  0
 10 11  1  0
 10  8  1  0
 11 12  1  1
 13 12  1  0
 14 13  2  0
 15 14  1  0
 16 15  1  0
 16 21  2  0
 17 16  1  0
 18 17  2  0
 18 19  1  0
 19 20  2  0
 20 21  1  0
 21 13  1  0
 22 11  1  0
 23 22  2  0
 24 22  1  0
 25 26  1  1
 25 24  1  0
 26 27  1  0
 28 29  1  0
 28 25  1  0
 30 28  2  0
M  END
$$$$
