KWC.pdb
     RDKit          3D

 30 31  0  0  1  0  0  0  0  0999 V2000
    7.6887  -16.3347   18.8868 N   0  0  0  0  0  0  0  0  0  0  0  0
    8.8142  -15.4416   19.0552 C   0  0  1  0  0  0  0  0  0  0  0  0
    8.6876  -14.1336   18.3494 C   0  0  0  0  0  0  0  0  0  0  0  0
    7.9000  -14.0969   17.1006 C   0  0  0  0  0  0  0  0  0  0  0  0
    8.6880  -13.5828   15.9323 C   0  0  0  0  0  0  0  0  0  0  0  0
    7.7591  -13.6739   14.6955 C   0  0  0  0  0  0  0  0  0  0  0  0
    8.4845  -13.0837   13.6063 N   0  0  0  0  0  0  0  0  0  0  0  0
    9.0083  -15.1585   20.4857 C   0  0  0  0  0  0  0  0  0  0  0  0
    9.9176  -14.4103   20.8616 O   0  0  0  0  0  0  0  0  0  0  0  0
    8.1600  -15.7359   21.4480 N   0  0  0  0  0  0  0  0  0  0  0  0
    8.2458  -15.5260   22.8496 C   0  0  1  0  0  0  0  0  0  0  0  0
    6.9742  -15.6234   23.6361 C   0  0  0  0  0  0  0  0  0  0  0  0
    7.1549  -15.1209   25.0228 C   0  0  0  0  0  0  0  0  0  0  0  0
    7.4053  -15.8981   26.1584 C   0  0  0  0  0  0  0  0  0  0  0  0
    7.5324  -15.1094   27.2293 N   0  0  0  0  0  0  0  0  0  0  0  0
    7.3727  -13.8302   26.8358 C   0  0  0  0  0  0  0  0  0  0  0  0
    7.4113  -12.6571   27.5818 C   0  0  0  0  0  0  0  0  0  0  0  0
    7.2066  -11.4710   26.9219 C   0  0  0  0  0  0  0  0  0  0  0  0
    6.9682  -11.4390   25.5529 C   0  0  0  0  0  0  0  0  0  0  0  0
    6.9344  -12.6076   24.8358 C   0  0  0  0  0  0  0  0  0  0  0  0
    7.1412  -13.8174   25.4930 C   0  0  0  0  0  0  0  0  0  0  0  0
    9.1890  -16.5216   23.4160 C   0  0  0  0  0  0  0  0  0  0  0  0
    9.0252  -17.7269   23.0863 O   0  0  0  0  0  0  0  0  0  0  0  0
   10.2421  -16.1559   24.2963 N   0  0  0  0  0  0  0  0  0  0  0  0
   11.2264  -17.1179   24.7014 C   0  0  1  0  0  0  0  0  0  0  0  0
   12.6420  -16.6160   24.4895 C   0  0  0  0  0  0  0  0  0  0  0  0
   13.8071  -17.8362   25.1600 S   0  0  0  0  0  0  0  0  0  0  0  0
   11.0832  -17.3760   26.1509 C   0  0  0  0  0  0  0  0  0  0  0  0
   11.8560  -18.3611   26.7379 O   0  0  0  0  0  0  0  0  0  0  0  0
   10.2639  -16.7045   26.8478 O   0  0  0  0  0  0  0  0  0  0  0  0
  2  8  1  0
  2  1  1  1
  3  4  1  0
  3  2  1  0
  5  6  1  0
  5  4  1  0
  6  7  1  0
  8  9  2  0
 10 11  1  0
 10  8  1  0
 11 12  1  1
 13 12  1  0
 14 13  2  0
 15 14  1  0
 16 15  1  0
 16 21  2  0
 17 16  1  0
 18 17  2  0
 18 19  1  0
 19 20  2  0
 20 21  1  0
 21 13  1  0
 22 11  1  0
 23 22  2  0
 24 22  1  0
 25 26  1  1
 25 24  1  0
 26 27  1  0
 28 29  1  0
 28 25  1  0
 30 28  2  0
M  END
$$$$
