KWC.pdb
     RDKit          3D

 30 31  0  0  1  0  0  0  0  0999 V2000
    6.7151  -16.5322   20.6809 N   0  0  0  0  0  0  0  0  0  0  0  0
    8.0758  -16.0719   20.5096 C   0  0  1  0  0  0  0  0  0  0  0  0
    8.2359  -14.9243   19.5702 C   0  0  0  0  0  0  0  0  0  0  0  0
    7.9723  -15.1641   18.1370 C   0  0  0  0  0  0  0  0  0  0  0  0
    8.2403  -13.9570   17.2877 C   0  0  0  0  0  0  0  0  0  0  0  0
    7.8667  -14.3446   15.8347 C   0  0  0  0  0  0  0  0  0  0  0  0
    8.0713  -13.1657   15.0413 N   0  0  0  0  0  0  0  0  0  0  0  0
    8.6242  -15.6612   21.8115 C   0  0  0  0  0  0  0  0  0  0  0  0
    8.7892  -14.4652   22.0760 O   0  0  0  0  0  0  0  0  0  0  0  0
    8.9686  -16.6256   22.7760 N   0  0  0  0  0  0  0  0  0  0  0  0
    9.5517  -16.3499   24.0408 C   0  0  1  0  0  0  0  0  0  0  0  0
    8.7388  -16.6774   25.2562 C   0  0  0  0  0  0  0  0  0  0  0  0
    7.6366  -15.7000   25.4504 C   0  0  0  0  0  0  0  0  0  0  0  0
    6.2694  -15.9541   25.3008 C   0  0  0  0  0  0  0  0  0  0  0  0
    5.5696  -14.8496   25.5755 N   0  0  0  0  0  0  0  0  0  0  0  0
    6.4347  -13.8693   25.9028 C   0  0  0  0  0  0  0  0  0  0  0  0
    6.1901  -12.5475   26.2597 C   0  0  0  0  0  0  0  0  0  0  0  0
    7.2707  -11.7493   26.5412 C   0  0  0  0  0  0  0  0  0  0  0  0
    8.5686  -12.2419   26.4730 C   0  0  0  0  0  0  0  0  0  0  0  0
    8.7878  -13.5487   26.1191 C   0  0  0  0  0  0  0  0  0  0  0  0
    7.7004  -14.3692   25.8317 C   0  0  0  0  0  0  0  0  0  0  0  0
   10.8229  -17.1077   24.1464 C   0  0  0  0  0  0  0  0  0  0  0  0
   10.7809  -18.3446   23.9084 O   0  0  0  0  0  0  0  0  0  0  0  0
   12.0508  -16.4871   24.4996 N   0  0  0  0  0  0  0  0  0  0  0  0
   13.2489  -17.2627   24.6465 C   0  0  1  0  0  0  0  0  0  0  0  0
   14.4991  -16.4057   24.5895 C   0  0  0  0  0  0  0  0  0  0  0  0
   14.5193  -15.4955   23.0188 S   0  0  0  0  0  0  0  0  0  0  0  0
   13.2443  -17.9138   25.9746 C   0  0  0  0  0  0  0  0  0  0  0  0
   14.3170  -18.7070   26.3383 O   0  0  0  0  0  0  0  0  0  0  0  0
   12.2712  -17.7486   26.7707 O   0  0  0  0  0  0  0  0  0  0  0  0
  2  8  1  0
  2  1  1  1
  3  4  1  0
  3  2  1  0
  5  6  1  0
  5  4  1  0
  6  7  1  0
  8  9  2  0
 10 11  1  0
 10  8  1  0
 11 12  1  1
 13 12  1  0
 14 13  2  0
 15 14  1  0
 16 15  1  0
 16 21  2  0
 17 16  1  0
 18 17  2  0
 18 19  1  0
 19 20  2  0
 20 21  1  0
 21 13  1  0
 22 11  1  0
 23 22  2  0
 24 22  1  0
 25 26  1  1
 25 24  1  0
 26 27  1  0
 28 29  1  0
 28 25  1  0
 30 28  2  0
M  END
$$$$
