KWC.pdb
     RDKit          3D

 30 31  0  0  1  0  0  0  0  0999 V2000
    7.6297  -16.1002   20.7680 N   0  0  0  0  0  0  0  0  0  0  0  0
    8.6043  -15.0321   20.7226 C   0  0  1  0  0  0  0  0  0  0  0  0
    8.0553  -13.6981   20.3431 C   0  0  0  0  0  0  0  0  0  0  0  0
    7.3675  -13.5801   19.0415 C   0  0  0  0  0  0  0  0  0  0  0  0
    8.2530  -13.9324   17.8831 C   0  0  0  0  0  0  0  0  0  0  0  0
    7.3529  -13.9384   16.6219 C   0  0  0  0  0  0  0  0  0  0  0  0
    8.2182  -14.2318   15.5145 N   0  0  0  0  0  0  0  0  0  0  0  0
    9.2430  -14.8921   22.0404 C   0  0  0  0  0  0  0  0  0  0  0  0
    9.9592  -13.9167   22.2923 O   0  0  0  0  0  0  0  0  0  0  0  0
    9.0469  -15.8677   23.0348 N   0  0  0  0  0  0  0  0  0  0  0  0
    9.6453  -15.8595   24.3222 C   0  0  1  0  0  0  0  0  0  0  0  0
    8.7915  -16.2861   25.4773 C   0  0  0  0  0  0  0  0  0  0  0  0
    7.6180  -15.3899   25.6439 C   0  0  0  0  0  0  0  0  0  0  0  0
    6.2738  -15.7543   25.5152 C   0  0  0  0  0  0  0  0  0  0  0  0
    5.4920  -14.6975   25.7539 N   0  0  0  0  0  0  0  0  0  0  0  0
    6.2804  -13.6416   26.0372 C   0  0  0  0  0  0  0  0  0  0  0  0
    5.9360  -12.3300   26.3463 C   0  0  0  0  0  0  0  0  0  0  0  0
    6.9531  -11.4407   26.5888 C   0  0  0  0  0  0  0  0  0  0  0  0
    8.2849  -11.8339   26.5284 C   0  0  0  0  0  0  0  0  0  0  0  0
    8.6027  -13.1323   26.2220 C   0  0  0  0  0  0  0  0  0  0  0  0
    7.5806  -14.0447   25.9745 C   0  0  0  0  0  0  0  0  0  0  0  0
   10.8271  -16.7562   24.2958 C   0  0  0  0  0  0  0  0  0  0  0  0
   10.6819  -17.8896   23.7643 O   0  0  0  0  0  0  0  0  0  0  0  0
   12.0823  -16.3757   24.8410 N   0  0  0  0  0  0  0  0  0  0  0  0
   13.2073  -17.2641   24.7814 C   0  0  1  0  0  0  0  0  0  0  0  0
   14.5288  -16.5195   24.7885 C   0  0  0  0  0  0  0  0  0  0  0  0
   14.5285  -15.3043   23.4397 S   0  0  0  0  0  0  0  0  0  0  0  0
   13.2047  -18.1297   25.9808 C   0  0  0  0  0  0  0  0  0  0  0  0
   14.2013  -19.0769   26.1285 O   0  0  0  0  0  0  0  0  0  0  0  0
   12.3021  -18.0071   26.8629 O   0  0  0  0  0  0  0  0  0  0  0  0
  2  8  1  0
  2  1  1  1
  3  4  1  0
  3  2  1  0
  5  6  1  0
  5  4  1  0
  6  7  1  0
  8  9  2  0
 10 11  1  0
 10  8  1  0
 11 12  1  1
 13 12  1  0
 14 13  2  0
 15 14  1  0
 16 15  1  0
 16 21  2  0
 17 16  1  0
 18 17  2  0
 18 19  1  0
 19 20  2  0
 20 21  1  0
 21 13  1  0
 22 11  1  0
 23 22  2  0
 24 22  1  0
 25 26  1  1
 25 24  1  0
 26 27  1  0
 28 29  1  0
 28 25  1  0
 30 28  2  0
M  END
$$$$
