KWC.pdb
     RDKit          3D

 30 31  0  0  1  0  0  0  0  0999 V2000
    9.0769  -16.5553   20.5315 N   0  0  0  0  0  0  0  0  0  0  0  0
    9.5185  -15.1899   20.7145 C   0  0  1  0  0  0  0  0  0  0  0  0
    8.6078  -14.1548   20.1451 C   0  0  0  0  0  0  0  0  0  0  0  0
    8.8677  -13.6898   18.7676 C   0  0  0  0  0  0  0  0  0  0  0  0
    7.9964  -14.3677   17.7521 C   0  0  0  0  0  0  0  0  0  0  0  0
    8.4352  -13.8356   16.3645 C   0  0  0  0  0  0  0  0  0  0  0  0
    7.7842  -14.6683   15.3929 N   0  0  0  0  0  0  0  0  0  0  0  0
    9.6682  -14.9093   22.1509 C   0  0  0  0  0  0  0  0  0  0  0  0
   10.1965  -13.8602   22.5356 O   0  0  0  0  0  0  0  0  0  0  0  0
    9.2111  -15.8325   23.1089 N   0  0  0  0  0  0  0  0  0  0  0  0
    9.1776  -15.6119   24.5110 C   0  0  1  0  0  0  0  0  0  0  0  0
    8.0356  -16.2130   25.2722 C   0  0  0  0  0  0  0  0  0  0  0  0
    6.9846  -15.2028   25.5598 C   0  0  0  0  0  0  0  0  0  0  0  0
    5.6286  -15.4608   25.7859 C   0  0  0  0  0  0  0  0  0  0  0  0
    4.9838  -14.3171   26.0331 N   0  0  0  0  0  0  0  0  0  0  0  0
    5.8744  -13.3069   25.9769 C   0  0  0  0  0  0  0  0  0  0  0  0
    5.6851  -11.9410   26.1579 C   0  0  0  0  0  0  0  0  0  0  0  0
    6.7791  -11.1209   26.0366 C   0  0  0  0  0  0  0  0  0  0  0  0
    8.0367  -11.6346   25.7424 C   0  0  0  0  0  0  0  0  0  0  0  0
    8.2016  -12.9849   25.5679 C   0  0  0  0  0  0  0  0  0  0  0  0
    7.1002  -13.8279   25.6889 C   0  0  0  0  0  0  0  0  0  0  0  0
   10.4286  -16.1496   25.1003 C   0  0  0  0  0  0  0  0  0  0  0  0
   11.0905  -16.9674   24.4064 O   0  0  0  0  0  0  0  0  0  0  0  0
   10.8832  -15.7735   26.3924 N   0  0  0  0  0  0  0  0  0  0  0  0
   11.9930  -16.4465   27.0039 C   0  0  1  0  0  0  0  0  0  0  0  0
   12.3704  -15.8356   28.3401 C   0  0  0  0  0  0  0  0  0  0  0  0
   10.8541  -15.4126   29.2445 S   0  0  0  0  0  0  0  0  0  0  0  0
   11.6181  -17.8517   27.2738 C   0  0  0  0  0  0  0  0  0  0  0  0
   12.5741  -18.7194   27.7693 O   0  0  0  0  0  0  0  0  0  0  0  0
   10.4370  -18.2577   27.0546 O   0  0  0  0  0  0  0  0  0  0  0  0
  2  8  1  0
  2  1  1  1
  3  4  1  0
  3  2  1  0
  5  6  1  0
  5  4  1  0
  6  7  1  0
  8  9  2  0
 10 11  1  0
 10  8  1  0
 11 12  1  1
 13 12  1  0
 14 13  2  0
 15 14  1  0
 16 15  1  0
 16 21  2  0
 17 16  1  0
 18 17  2  0
 18 19  1  0
 19 20  2  0
 20 21  1  0
 21 13  1  0
 22 11  1  0
 23 22  2  0
 24 22  1  0
 25 26  1  1
 25 24  1  0
 26 27  1  0
 28 29  1  0
 28 25  1  0
 30 28  2  0
M  END
$$$$
