KWC.pdb
     RDKit          3D

 30 31  0  0  1  0  0  0  0  0999 V2000
    6.8569  -16.1131   20.8026 N   0  0  0  0  0  0  0  0  0  0  0  0
    8.1879  -15.5622   20.6684 C   0  0  1  0  0  0  0  0  0  0  0  0
    8.2836  -14.3610   19.7892 C   0  0  0  0  0  0  0  0  0  0  0  0
    8.3683  -14.5784   18.3310 C   0  0  0  0  0  0  0  0  0  0  0  0
    7.2453  -13.9258   17.5806 C   0  0  0  0  0  0  0  0  0  0  0  0
    7.8963  -13.0463   16.4835 C   0  0  0  0  0  0  0  0  0  0  0  0
    8.3941  -13.9527   15.4877 N   0  0  0  0  0  0  0  0  0  0  0  0
    8.7006  -15.1851   21.9948 C   0  0  0  0  0  0  0  0  0  0  0  0
    8.8466  -13.9958   22.2983 O   0  0  0  0  0  0  0  0  0  0  0  0
    9.0320  -16.1743   22.9385 N   0  0  0  0  0  0  0  0  0  0  0  0
    9.7458  -15.9512   24.1453 C   0  0  1  0  0  0  0  0  0  0  0  0
    9.0310  -16.2459   25.4288 C   0  0  0  0  0  0  0  0  0  0  0  0
    7.8323  -15.3831   25.5918 C   0  0  0  0  0  0  0  0  0  0  0  0
    6.5015  -15.7723   25.4079 C   0  0  0  0  0  0  0  0  0  0  0  0
    5.6882  -14.7431   25.6613 N   0  0  0  0  0  0  0  0  0  0  0  0
    6.4426  -13.6812   26.0079 C   0  0  0  0  0  0  0  0  0  0  0  0
    6.0584  -12.3903   26.3545 C   0  0  0  0  0  0  0  0  0  0  0  0
    7.0464  -11.4882   26.6614 C   0  0  0  0  0  0  0  0  0  0  0  0
    8.3884  -11.8491   26.6279 C   0  0  0  0  0  0  0  0  0  0  0  0
    8.7457  -13.1276   26.2836 C   0  0  0  0  0  0  0  0  0  0  0  0
    7.7532  -14.0525   25.9708 C   0  0  0  0  0  0  0  0  0  0  0  0
   10.9728  -16.7852   24.1253 C   0  0  0  0  0  0  0  0  0  0  0  0
   10.8799  -17.9399   23.6290 O   0  0  0  0  0  0  0  0  0  0  0  0
   12.2142  -16.3236   24.6389 N   0  0  0  0  0  0  0  0  0  0  0  0
   13.3826  -17.1548   24.5899 C   0  0  1  0  0  0  0  0  0  0  0  0
   14.6458  -16.3560   24.3310 C   0  0  0  0  0  0  0  0  0  0  0  0
   14.6778  -15.8516   22.5873 S   0  0  0  0  0  0  0  0  0  0  0  0
   13.5625  -17.8147   25.9014 C   0  0  0  0  0  0  0  0  0  0  0  0
   14.6498  -18.6477   26.0913 O   0  0  0  0  0  0  0  0  0  0  0  0
   12.7325  -17.6210   26.8402 O   0  0  0  0  0  0  0  0  0  0  0  0
  2  8  1  0
  2  1  1  1
  3  4  1  0
  3  2  1  0
  5  6  1  0
  5  4  1  0
  6  7  1  0
  8  9  2  0
 10 11  1  0
 10  8  1  0
 11 12  1  1
 13 12  1  0
 14 13  2  0
 15 14  1  0
 16 15  1  0
 16 21  2  0
 17 16  1  0
 18 17  2  0
 18 19  1  0
 19 20  2  0
 20 21  1  0
 21 13  1  0
 22 11  1  0
 23 22  2  0
 24 22  1  0
 25 26  1  1
 25 24  1  0
 26 27  1  0
 28 29  1  0
 28 25  1  0
 30 28  2  0
M  END
$$$$
