KWC.pdb
     RDKit          3D

 30 31  0  0  1  0  0  0  0  0999 V2000
    8.4762  -16.9284   21.0420 N   0  0  0  0  0  0  0  0  0  0  0  0
    9.5341  -15.9415   21.0445 C   0  0  1  0  0  0  0  0  0  0  0  0
    9.2613  -14.7280   20.2211 C   0  0  0  0  0  0  0  0  0  0  0  0
    8.8572  -14.9254   18.8144 C   0  0  0  0  0  0  0  0  0  0  0  0
    8.7253  -13.6345   18.0618 C   0  0  0  0  0  0  0  0  0  0  0  0
    8.1963  -13.9952   16.6508 C   0  0  0  0  0  0  0  0  0  0  0  0
    8.0894  -12.7553   15.9349 N   0  0  0  0  0  0  0  0  0  0  0  0
    9.7883  -15.4960   22.4233 C   0  0  0  0  0  0  0  0  0  0  0  0
   10.4629  -14.4839   22.6434 O   0  0  0  0  0  0  0  0  0  0  0  0
    9.2661  -16.2164   23.5129 N   0  0  0  0  0  0  0  0  0  0  0  0
    9.2988  -15.7937   24.8679 C   0  0  1  0  0  0  0  0  0  0  0  0
    8.1435  -16.1881   25.7368 C   0  0  0  0  0  0  0  0  0  0  0  0
    7.0181  -15.2260   25.6114 C   0  0  0  0  0  0  0  0  0  0  0  0
    5.6737  -15.5484   25.3993 C   0  0  0  0  0  0  0  0  0  0  0  0
    4.9399  -14.4327   25.3601 N   0  0  0  0  0  0  0  0  0  0  0  0
    5.7603  -13.3784   25.5399 C   0  0  0  0  0  0  0  0  0  0  0  0
    5.4697  -12.0188   25.5736 C   0  0  0  0  0  0  0  0  0  0  0  0
    6.5107  -11.1456   25.7684 C   0  0  0  0  0  0  0  0  0  0  0  0
    7.8142  -11.6013   25.9270 C   0  0  0  0  0  0  0  0  0  0  0  0
    8.0791  -12.9464   25.8907 C   0  0  0  0  0  0  0  0  0  0  0  0
    7.0320  -13.8428   25.6945 C   0  0  0  0  0  0  0  0  0  0  0  0
   10.5272  -16.3364   25.4988 C   0  0  0  0  0  0  0  0  0  0  0  0
   11.1720  -17.2074   24.8555 O   0  0  0  0  0  0  0  0  0  0  0  0
   10.9790  -15.9078   26.7755 N   0  0  0  0  0  0  0  0  0  0  0  0
   12.0893  -16.5532   27.4151 C   0  0  1  0  0  0  0  0  0  0  0  0
   12.4372  -15.9138   28.7459 C   0  0  0  0  0  0  0  0  0  0  0  0
   10.9128  -15.3141   29.5285 S   0  0  0  0  0  0  0  0  0  0  0  0
   11.7315  -17.9591   27.7036 C   0  0  0  0  0  0  0  0  0  0  0  0
   10.4425  -18.3905   27.4496 O   0  0  0  0  0  0  0  0  0  0  0  0
   12.5931  -18.7598   28.1774 O   0  0  0  0  0  0  0  0  0  0  0  0
  2  8  1  0
  2  1  1  1
  3  4  1  0
  3  2  1  0
  5  6  1  0
  5  4  1  0
  6  7  1  0
  8  9  2  0
 10 11  1  0
 10  8  1  0
 11 12  1  1
 13 12  1  0
 14 13  2  0
 15 14  1  0
 16 15  1  0
 16 21  2  0
 17 16  1  0
 18 17  2  0
 18 19  1  0
 19 20  2  0
 20 21  1  0
 21 13  1  0
 22 11  1  0
 23 22  2  0
 24 22  1  0
 25 26  1  1
 25 24  1  0
 26 27  1  0
 28 29  1  0
 28 25  1  0
 30 28  2  0
M  END
$$$$
