WDS.pdb
     RDKit          3D

 29 30  0  0  1  0  0  0  0  0999 V2000
   28.5187  -21.2918  -11.6137 N   0  0  0  0  0  0  0  0  0  0  0  0
   27.2173  -21.2284  -10.9042 C   0  0  1  0  0  0  0  0  0  0  0  0
   27.3506  -20.0989   -9.9406 C   0  0  0  0  0  0  0  0  0  0  0  0
   28.3820  -20.2267   -8.9042 C   0  0  0  0  0  0  0  0  0  0  0  0
   29.7316  -20.5283   -9.0891 C   0  0  0  0  0  0  0  0  0  0  0  0
   30.2861  -20.5757   -7.8917 N   0  0  0  0  0  0  0  0  0  0  0  0
   29.4156  -20.3291   -6.9134 C   0  0  0  0  0  0  0  0  0  0  0  0
   29.5161  -20.2533   -5.5373 C   0  0  0  0  0  0  0  0  0  0  0  0
   28.4112  -19.9537   -4.7817 C   0  0  0  0  0  0  0  0  0  0  0  0
   27.1904  -19.7243   -5.3722 C   0  0  0  0  0  0  0  0  0  0  0  0
   27.1027  -19.8024   -6.7310 C   0  0  0  0  0  0  0  0  0  0  0  0
   28.1898  -20.1034   -7.5513 C   0  0  0  0  0  0  0  0  0  0  0  0
   26.0944  -21.0226  -11.8251 C   0  0  0  0  0  0  0  0  0  0  0  0
   26.2248  -20.1107  -12.6860 O   0  0  0  0  0  0  0  0  0  0  0  0
   24.8789  -21.7542  -11.8335 N   0  0  0  0  0  0  0  0  0  0  0  0
   23.8799  -21.6587  -12.8574 C   0  0  1  0  0  0  0  0  0  0  0  0
   23.6215  -22.9738  -13.5201 C   0  0  0  0  0  0  0  0  0  0  0  0
   24.7453  -23.4513  -14.3524 C   0  0  0  0  0  0  0  0  0  0  0  0
   25.2367  -22.8762  -15.3312 O   0  0  0  0  0  0  0  0  0  0  0  0
   22.5928  -21.0894  -12.3197 C   0  0  0  0  0  0  0  0  0  0  0  0
   22.2056  -21.2923  -11.1594 O   0  0  0  0  0  0  0  0  0  0  0  0
   25.2983  -24.6857  -13.9774 O   0  0  0  0  0  0  0  0  0  0  0  0
   20.9061  -17.5457  -13.4173 O   0  0  0  0  0  0  0  0  0  0  0  0
   20.0229  -18.6235  -13.6211 C   0  0  0  0  0  0  0  0  0  0  0  0
   20.5058  -19.7577  -12.7626 C   0  0  2  0  0  0  0  0  0  0  0  0
   21.7706  -20.2844  -13.1537 N   0  0  0  0  0  0  0  0  0  0  0  0
   19.5257  -20.8457  -12.6588 C   0  0  0  0  0  0  0  0  0  0  0  0
   19.6910  -21.8941  -13.3248 O   0  0  0  0  0  0  0  0  0  0  0  0
   18.4057  -20.7661  -11.8437 O   0  0  0  0  0  0  0  0  0  0  0  0
  2  1  1  6
  3  4  1  0
  3  2  1  0
  4  5  2  0
  5  6  1  0
  7  6  1  0
  8  7  2  0
  9  8  1  0
 10 11  1  0
 10  9  2  0
 11 12  2  0
 12  4  1  0
 12  7  1  0
 13  2  1  0
 13 14  2  0
 15 13  1  0
 16 15  1  0
 16 17  1  1
 18 17  1  0
 18 22  1  0
 19 18  2  0
 20 16  1  0
 21 20  2  0
 24 23  1  0
 25 24  1  6
 25 27  1  0
 25 26  1  0
 26 20  1  0
 27 29  1  0
 28 27  2  0
M  END
$$$$
