WDS.pdb
     RDKit          3D

 29 30  0  0  1  0  0  0  0  0999 V2000
   15.4867  -18.2273    3.3844 N   0  0  0  0  0  0  0  0  0  0  0  0
   16.8354  -18.8060    3.6014 C   0  0  1  0  0  0  0  0  0  0  0  0
   17.7909  -17.7470    3.1684 C   0  0  0  0  0  0  0  0  0  0  0  0
   18.5978  -18.0264    1.9747 C   0  0  0  0  0  0  0  0  0  0  0  0
   18.3619  -19.0024    1.0059 C   0  0  0  0  0  0  0  0  0  0  0  0
   19.3479  -18.9269    0.1310 N   0  0  0  0  0  0  0  0  0  0  0  0
   20.2305  -17.9756    0.4340 C   0  0  0  0  0  0  0  0  0  0  0  0
   21.3884  -17.5164   -0.1643 C   0  0  0  0  0  0  0  0  0  0  0  0
   22.0880  -16.4782    0.3961 C   0  0  0  0  0  0  0  0  0  0  0  0
   21.6559  -15.8772    1.5554 C   0  0  0  0  0  0  0  0  0  0  0  0
   20.5123  -16.3390    2.1376 C   0  0  0  0  0  0  0  0  0  0  0  0
   19.7593  -17.3906    1.6156 C   0  0  0  0  0  0  0  0  0  0  0  0
   17.0540  -19.1914    4.9996 C   0  0  0  0  0  0  0  0  0  0  0  0
   16.5970  -18.4146    5.8815 O   0  0  0  0  0  0  0  0  0  0  0  0
   17.7315  -20.3546    5.4472 N   0  0  0  0  0  0  0  0  0  0  0  0
   17.9261  -20.7025    6.8244 C   0  0  1  0  0  0  0  0  0  0  0  0
   18.1290  -22.1718    7.0135 C   0  0  0  0  0  0  0  0  0  0  0  0
   17.0175  -22.9969    6.4968 C   0  0  0  0  0  0  0  0  0  0  0  0
   17.1122  -23.9920    5.7680 O   0  0  0  0  0  0  0  0  0  0  0  0
   19.0772  -19.9402    7.4276 C   0  0  0  0  0  0  0  0  0  0  0  0
   20.0476  -19.5554    6.7586 O   0  0  0  0  0  0  0  0  0  0  0  0
   15.7298  -22.5939    6.8841 O   0  0  0  0  0  0  0  0  0  0  0  0
   20.5492  -16.4324    9.7126 O   0  0  0  0  0  0  0  0  0  0  0  0
   19.6509  -17.2565    9.0073 C   0  0  0  0  0  0  0  0  0  0  0  0
   19.9303  -18.6721    9.4250 C   0  0  2  0  0  0  0  0  0  0  0  0
   19.0764  -19.6366    8.8159 N   0  0  0  0  0  0  0  0  0  0  0  0
   19.9145  -18.8455   10.8827 C   0  0  0  0  0  0  0  0  0  0  0  0
   18.8235  -19.0182   11.4742 O   0  0  0  0  0  0  0  0  0  0  0  0
   21.0709  -18.8267   11.6492 O   0  0  0  0  0  0  0  0  0  0  0  0
  2  1  1  1
  3  4  1  0
  3  2  1  0
  4  5  2  0
  5  6  1  0
  7  6  1  0
  8  7  2  0
  9  8  1  0
 10 11  1  0
 10  9  2  0
 11 12  2  0
 12  4  1  0
 12  7  1  0
 13  2  1  0
 13 14  2  0
 15 13  1  0
 16 15  1  0
 16 17  1  6
 18 17  1  0
 18 22  1  0
 19 18  2  0
 20 16  1  0
 21 20  2  0
 24 23  1  0
 25 24  1  1
 25 27  1  0
 25 26  1  0
 26 20  1  0
 27 29  1  0
 28 27  2  0
M  END
$$$$
