WDS.pdb
     RDKit          3D

 29 30  0  0  1  0  0  0  0  0999 V2000
   22.7033  -21.8944  -14.7070 N   0  0  0  0  0  0  0  0  0  0  0  0
   21.7170  -21.2060  -13.8385 C   0  0  1  0  0  0  0  0  0  0  0  0
   20.9918  -20.2645  -14.7384 C   0  0  0  0  0  0  0  0  0  0  0  0
   21.8097  -19.3414  -15.5340 C   0  0  0  0  0  0  0  0  0  0  0  0
   22.5028  -18.2199  -15.0774 C   0  0  0  0  0  0  0  0  0  0  0  0
   23.0752  -17.6629  -16.1288 N   0  0  0  0  0  0  0  0  0  0  0  0
   22.8226  -18.3217  -17.2593 C   0  0  0  0  0  0  0  0  0  0  0  0
   23.1984  -18.1437  -18.5771 C   0  0  0  0  0  0  0  0  0  0  0  0
   22.7789  -19.0280  -19.5381 C   0  0  0  0  0  0  0  0  0  0  0  0
   21.9823  -20.1012  -19.2138 C   0  0  0  0  0  0  0  0  0  0  0  0
   21.6169  -20.2666  -17.9102 C   0  0  0  0  0  0  0  0  0  0  0  0
   22.0112  -19.4013  -16.8899 C   0  0  0  0  0  0  0  0  0  0  0  0
   20.7987  -22.1476  -13.1894 C   0  0  0  0  0  0  0  0  0  0  0  0
   20.3718  -23.1024  -13.8937 O   0  0  0  0  0  0  0  0  0  0  0  0
   20.3487  -22.0805  -11.8457 N   0  0  0  0  0  0  0  0  0  0  0  0
   19.4906  -23.0480  -11.2267 C   0  0  1  0  0  0  0  0  0  0  0  0
   19.7146  -23.1409   -9.7513 C   0  0  0  0  0  0  0  0  0  0  0  0
   19.0327  -24.2885   -9.1176 C   0  0  0  0  0  0  0  0  0  0  0  0
   19.0665  -24.5996   -7.9207 O   0  0  0  0  0  0  0  0  0  0  0  0
   18.0396  -22.7595  -11.5118 C   0  0  0  0  0  0  0  0  0  0  0  0
   17.4906  -21.6995  -11.1766 O   0  0  0  0  0  0  0  0  0  0  0  0
   18.2738  -25.0964   -9.9788 O   0  0  0  0  0  0  0  0  0  0  0  0
   14.1910  -23.8613  -14.1605 O   0  0  0  0  0  0  0  0  0  0  0  0
   15.5021  -24.2594  -13.8350 C   0  0  0  0  0  0  0  0  0  0  0  0
   15.8970  -23.5062  -12.5967 C   0  0  2  0  0  0  0  0  0  0  0  0
   17.2454  -23.7231  -12.1903 N   0  0  0  0  0  0  0  0  0  0  0  0
   14.9921  -23.7583  -11.4685 C   0  0  0  0  0  0  0  0  0  0  0  0
   13.9469  -23.0777  -11.3485 O   0  0  0  0  0  0  0  0  0  0  0  0
   15.2445  -24.7315  -10.5122 O   0  0  0  0  0  0  0  0  0  0  0  0
  2  1  1  6
  3  4  1  0
  3  2  1  0
  4  5  2  0
  5  6  1  0
  7  6  1  0
  8  7  2  0
  9  8  1  0
 10 11  1  0
 10  9  2  0
 11 12  2  0
 12  4  1  0
 12  7  1  0
 13  2  1  0
 13 14  2  0
 15 13  1  0
 16 15  1  0
 16 17  1  1
 18 17  1  0
 18 22  1  0
 19 18  2  0
 20 16  1  0
 21 20  2  0
 24 23  1  0
 25 24  1  6
 25 27  1  0
 25 26  1  0
 26 20  1  0
 27 29  1  0
 28 27  2  0
M  END
$$$$
