WDS.pdb
     RDKit          3D

 29 30  0  0  1  0  0  0  0  0999 V2000
   24.7611   -9.7016  -14.9045 N   0  0  0  0  0  0  0  0  0  0  0  0
   24.7921  -10.0879  -16.3366 C   0  0  1  0  0  0  0  0  0  0  0  0
   24.7831  -11.5784  -16.3411 C   0  0  0  0  0  0  0  0  0  0  0  0
   25.9997  -12.2526  -15.8723 C   0  0  0  0  0  0  0  0  0  0  0  0
   26.1347  -13.0618  -14.7437 C   0  0  0  0  0  0  0  0  0  0  0  0
   27.4006  -13.4316  -14.6807 N   0  0  0  0  0  0  0  0  0  0  0  0
   28.1302  -12.9352  -15.6793 C   0  0  0  0  0  0  0  0  0  0  0  0
   29.4586  -13.0460  -16.0432 C   0  0  0  0  0  0  0  0  0  0  0  0
   29.9192  -12.4123  -17.1691 C   0  0  0  0  0  0  0  0  0  0  0  0
   29.0763  -11.6595  -17.9530 C   0  0  0  0  0  0  0  0  0  0  0  0
   27.7674  -11.5565  -17.5839 C   0  0  0  0  0  0  0  0  0  0  0  0
   27.2414  -12.1768  -16.4508 C   0  0  0  0  0  0  0  0  0  0  0  0
   23.6548   -9.5389  -17.0827 C   0  0  0  0  0  0  0  0  0  0  0  0
   22.6862   -9.1031  -16.4033 O   0  0  0  0  0  0  0  0  0  0  0  0
   23.5468   -9.4554  -18.4948 N   0  0  0  0  0  0  0  0  0  0  0  0
   22.4220   -8.9049  -19.1927 C   0  0  1  0  0  0  0  0  0  0  0  0
   22.8359   -7.9815  -20.2935 C   0  0  0  0  0  0  0  0  0  0  0  0
   21.7006   -7.3655  -21.0112 C   0  0  0  0  0  0  0  0  0  0  0  0
   20.4984   -7.5863  -20.8210 O   0  0  0  0  0  0  0  0  0  0  0  0
   21.5271   -9.9882  -19.7362 C   0  0  0  0  0  0  0  0  0  0  0  0
   21.9297  -10.8524  -20.5289 O   0  0  0  0  0  0  0  0  0  0  0  0
   22.0422   -6.4369  -22.0069 O   0  0  0  0  0  0  0  0  0  0  0  0
   18.7187  -11.7189  -17.5245 O   0  0  0  0  0  0  0  0  0  0  0  0
   19.2184  -12.2305  -18.7376 C   0  0  0  0  0  0  0  0  0  0  0  0
   19.2654  -11.0880  -19.7119 C   0  0  2  0  0  0  0  0  0  0  0  0
   20.1631  -10.0453  -19.3414 N   0  0  0  0  0  0  0  0  0  0  0  0
   17.9380  -10.5251  -19.9882 C   0  0  0  0  0  0  0  0  0  0  0  0
   17.7036   -9.3259  -19.7110 O   0  0  0  0  0  0  0  0  0  0  0  0
   16.9132  -11.2718  -20.5515 O   0  0  0  0  0  0  0  0  0  0  0  0
  2  1  1  1
  3  4  1  0
  3  2  1  0
  4  5  2  0
  5  6  1  0
  7  6  1  0
  8  7  2  0
  9  8  1  0
 10 11  1  0
 10  9  2  0
 11 12  2  0
 12  4  1  0
 12  7  1  0
 13  2  1  0
 13 14  2  0
 15 13  1  0
 16 15  1  0
 16 17  1  6
 18 17  1  0
 18 22  1  0
 19 18  2  0
 20 16  1  0
 21 20  2  0
 24 23  1  0
 25 24  1  1
 25 27  1  0
 25 26  1  0
 26 20  1  0
 27 29  1  0
 28 27  2  0
M  END
$$$$
