WDS.pdb
     RDKit          3D

 29 30  0  0  1  0  0  0  0  0999 V2000
   26.5521  -22.5465  -13.6173 N   0  0  0  0  0  0  0  0  0  0  0  0
   25.6646  -21.6395  -12.8487 C   0  0  1  0  0  0  0  0  0  0  0  0
   26.4921  -20.4340  -12.5588 C   0  0  0  0  0  0  0  0  0  0  0  0
   27.5417  -20.5760  -11.5427 C   0  0  0  0  0  0  0  0  0  0  0  0
   28.9119  -20.7249  -11.7595 C   0  0  0  0  0  0  0  0  0  0  0  0
   29.4807  -20.8507  -10.5746 N   0  0  0  0  0  0  0  0  0  0  0  0
   28.6009  -20.7978   -9.5752 C   0  0  0  0  0  0  0  0  0  0  0  0
   28.7080  -20.8649   -8.1991 C   0  0  0  0  0  0  0  0  0  0  0  0
   27.5875  -20.7574   -7.4153 C   0  0  0  0  0  0  0  0  0  0  0  0
   26.3444  -20.5821   -7.9770 C   0  0  0  0  0  0  0  0  0  0  0  0
   26.2504  -20.5180   -9.3362 C   0  0  0  0  0  0  0  0  0  0  0  0
   27.3527  -20.6215  -10.1845 C   0  0  0  0  0  0  0  0  0  0  0  0
   24.4487  -21.2935  -13.5925 C   0  0  0  0  0  0  0  0  0  0  0  0
   24.5808  -21.0727  -14.8269 O   0  0  0  0  0  0  0  0  0  0  0  0
   23.1425  -21.1846  -13.0498 N   0  0  0  0  0  0  0  0  0  0  0  0
   21.9748  -20.8376  -13.8056 C   0  0  1  0  0  0  0  0  0  0  0  0
   20.7194  -21.3471  -13.1730 C   0  0  0  0  0  0  0  0  0  0  0  0
   20.3544  -20.6441  -11.9256 C   0  0  0  0  0  0  0  0  0  0  0  0
   20.9572  -20.6921  -10.8464 O   0  0  0  0  0  0  0  0  0  0  0  0
   21.8787  -19.3492  -14.0184 C   0  0  0  0  0  0  0  0  0  0  0  0
   22.3871  -18.5287  -13.2402 O   0  0  0  0  0  0  0  0  0  0  0  0
   19.2026  -19.8445  -11.9928 O   0  0  0  0  0  0  0  0  0  0  0  0
   22.6725  -17.8123  -17.3024 O   0  0  0  0  0  0  0  0  0  0  0  0
   22.4606  -17.0049  -16.1682 C   0  0  0  0  0  0  0  0  0  0  0  0
   21.1802  -17.4658  -15.5319 C   0  0  2  0  0  0  0  0  0  0  0  0
   21.1838  -18.8380  -15.1477 N   0  0  0  0  0  0  0  0  0  0  0  0
   20.0028  -17.1862  -16.3629 C   0  0  0  0  0  0  0  0  0  0  0  0
   19.8883  -17.7393  -17.4813 O   0  0  0  0  0  0  0  0  0  0  0  0
   18.9934  -16.3232  -15.9608 O   0  0  0  0  0  0  0  0  0  0  0  0
  2  1  1  6
  3  4  1  0
  3  2  1  0
  4  5  2  0
  5  6  1  0
  7  6  1  0
  8  7  2  0
  9  8  1  0
 10 11  1  0
 10  9  2  0
 11 12  2  0
 12  4  1  0
 12  7  1  0
 13  2  1  0
 13 14  2  0
 15 13  1  0
 16 15  1  0
 16 17  1  1
 18 17  1  0
 18 22  1  0
 19 18  2  0
 20 16  1  0
 21 20  2  0
 24 23  1  0
 25 24  1  6
 25 27  1  0
 25 26  1  0
 26 20  1  0
 27 29  1  0
 28 27  2  0
M  END
$$$$
