WDS.pdb
     RDKit          3D

 29 30  0  0  1  0  0  0  0  0999 V2000
   20.3281  -12.9802  -16.3869 N   0  0  0  0  0  0  0  0  0  0  0  0
   19.6863  -11.6658  -16.6350 C   0  0  1  0  0  0  0  0  0  0  0  0
   18.6139  -11.5525  -15.6058 C   0  0  0  0  0  0  0  0  0  0  0  0
   17.4358  -12.4113  -15.7752 C   0  0  0  0  0  0  0  0  0  0  0  0
   17.2804  -13.7269  -15.3374 C   0  0  0  0  0  0  0  0  0  0  0  0
   16.0845  -14.1272  -15.7285 N   0  0  0  0  0  0  0  0  0  0  0  0
   15.4207  -13.1838  -16.3956 C   0  0  0  0  0  0  0  0  0  0  0  0
   14.1678  -13.1208  -16.9750 C   0  0  0  0  0  0  0  0  0  0  0  0
   13.7514  -11.9685  -17.5917 C   0  0  0  0  0  0  0  0  0  0  0  0
   14.5649  -10.8608  -17.6463 C   0  0  0  0  0  0  0  0  0  0  0  0
   15.7997  -10.9344  -17.0718 C   0  0  0  0  0  0  0  0  0  0  0  0
   16.2782  -12.0775  -16.4317 C   0  0  0  0  0  0  0  0  0  0  0  0
   20.6421  -10.5570  -16.5430 C   0  0  0  0  0  0  0  0  0  0  0  0
   21.3354  -10.4897  -15.4920 O   0  0  0  0  0  0  0  0  0  0  0  0
   20.8551   -9.5567  -17.5262 N   0  0  0  0  0  0  0  0  0  0  0  0
   21.7818   -8.4709  -17.3934 C   0  0  1  0  0  0  0  0  0  0  0  0
   22.2810   -7.9880  -18.7176 C   0  0  0  0  0  0  0  0  0  0  0  0
   23.2521   -6.8787  -18.6183 C   0  0  0  0  0  0  0  0  0  0  0  0
   24.1373   -6.7453  -17.7645 O   0  0  0  0  0  0  0  0  0  0  0  0
   21.1818   -7.3264  -16.6189 C   0  0  0  0  0  0  0  0  0  0  0  0
   20.1787   -6.7097  -17.0074 O   0  0  0  0  0  0  0  0  0  0  0  0
   23.1427   -5.8846  -19.6032 O   0  0  0  0  0  0  0  0  0  0  0  0
   21.9868   -6.9531  -12.5465 O   0  0  0  0  0  0  0  0  0  0  0  0
   20.8042   -6.5096  -13.1694 C   0  0  0  0  0  0  0  0  0  0  0  0
   21.1932   -5.9554  -14.5104 C   0  0  2  0  0  0  0  0  0  0  0  0
   21.7685   -6.9165  -15.3912 N   0  0  0  0  0  0  0  0  0  0  0  0
   22.0761   -4.7873  -14.4054 C   0  0  0  0  0  0  0  0  0  0  0  0
   23.2210   -4.8285  -14.9127 O   0  0  0  0  0  0  0  0  0  0  0  0
   21.6957   -3.6198  -13.7593 O   0  0  0  0  0  0  0  0  0  0  0  0
  2  1  1  1
  3  4  1  0
  3  2  1  0
  4  5  2  0
  5  6  1  0
  7  6  1  0
  8  7  2  0
  9  8  1  0
 10 11  1  0
 10  9  2  0
 11 12  2  0
 12  4  1  0
 12  7  1  0
 13  2  1  0
 13 14  2  0
 15 13  1  0
 16 15  1  0
 16 17  1  6
 18 17  1  0
 18 22  1  0
 19 18  2  0
 20 16  1  0
 21 20  2  0
 24 23  1  0
 25 24  1  1
 25 27  1  0
 25 26  1  0
 26 20  1  0
 27 29  1  0
 28 27  2  0
M  END
$$$$
