WDS.pdb
     RDKit          3D

 29 30  0  0  1  0  0  0  0  0999 V2000
   20.3623  -24.1062  -14.3246 N   0  0  0  0  0  0  0  0  0  0  0  0
   20.0244  -23.2024  -13.1977 C   0  0  1  0  0  0  0  0  0  0  0  0
   19.5906  -21.9265  -13.8348 C   0  0  0  0  0  0  0  0  0  0  0  0
   20.6436  -20.9659  -14.1851 C   0  0  0  0  0  0  0  0  0  0  0  0
   21.1863  -19.9734  -13.3684 C   0  0  0  0  0  0  0  0  0  0  0  0
   22.0777  -19.3206  -14.0914 N   0  0  0  0  0  0  0  0  0  0  0  0
   22.1790  -19.7959  -15.3322 C   0  0  0  0  0  0  0  0  0  0  0  0
   22.9583  -19.4660  -16.4246 C   0  0  0  0  0  0  0  0  0  0  0  0
   22.8415  -20.1749  -17.5930 C   0  0  0  0  0  0  0  0  0  0  0  0
   21.9541  -21.2201  -17.7015 C   0  0  0  0  0  0  0  0  0  0  0  0
   21.1896  -21.5366  -16.6172 C   0  0  0  0  0  0  0  0  0  0  0  0
   21.2631  -20.8526  -15.4040 C   0  0  0  0  0  0  0  0  0  0  0  0
   18.9760  -23.7595  -12.3365 C   0  0  0  0  0  0  0  0  0  0  0  0
   18.0319  -24.3671  -12.9105 O   0  0  0  0  0  0  0  0  0  0  0  0
   18.9284  -23.6758  -10.9211 N   0  0  0  0  0  0  0  0  0  0  0  0
   17.9020  -24.2576  -10.1066 C   0  0  1  0  0  0  0  0  0  0  0  0
   18.2303  -24.1909   -8.6494 C   0  0  0  0  0  0  0  0  0  0  0  0
   19.2111  -25.2067   -8.2138 C   0  0  0  0  0  0  0  0  0  0  0  0
   19.6449  -26.1510   -8.8850 O   0  0  0  0  0  0  0  0  0  0  0  0
   16.5639  -23.6150  -10.3646 C   0  0  0  0  0  0  0  0  0  0  0  0
   16.4020  -22.3857  -10.3652 O   0  0  0  0  0  0  0  0  0  0  0  0
   19.6875  -25.0685   -6.9007 O   0  0  0  0  0  0  0  0  0  0  0  0
   13.2523  -26.0866  -10.9001 O   0  0  0  0  0  0  0  0  0  0  0  0
   13.2384  -24.8872  -11.6380 C   0  0  0  0  0  0  0  0  0  0  0  0
   14.1287  -23.9155  -10.9170 C   0  0  2  0  0  0  0  0  0  0  0  0
   15.4254  -24.4263  -10.6200 N   0  0  0  0  0  0  0  0  0  0  0  0
   13.5132  -23.3833   -9.6952 C   0  0  0  0  0  0  0  0  0  0  0  0
   13.9437  -23.7462   -8.5758 O   0  0  0  0  0  0  0  0  0  0  0  0
   12.4588  -22.4818   -9.7223 O   0  0  0  0  0  0  0  0  0  0  0  0
  2  1  1  6
  3  4  1  0
  3  2  1  0
  4  5  2  0
  5  6  1  0
  7  6  1  0
  8  7  2  0
  9  8  1  0
 10 11  1  0
 10  9  2  0
 11 12  2  0
 12  4  1  0
 12  7  1  0
 13  2  1  0
 13 14  2  0
 15 13  1  0
 16 15  1  0
 16 17  1  1
 18 17  1  0
 18 22  1  0
 19 18  2  0
 20 16  1  0
 21 20  2  0
 24 23  1  0
 25 24  1  1
 25 27  1  0
 25 26  1  0
 26 20  1  0
 27 29  1  0
 28 27  2  0
M  END
$$$$
