WDS.pdb
     RDKit          3D

 29 30  0  0  1  0  0  0  0  0999 V2000
   26.2049  -20.4231  -15.7790 N   0  0  0  0  0  0  0  0  0  0  0  0
   25.2002  -19.4400  -15.3047 C   0  0  1  0  0  0  0  0  0  0  0  0
   24.9304  -18.5588  -16.4763 C   0  0  0  0  0  0  0  0  0  0  0  0
   26.0270  -17.6916  -16.9232 C   0  0  0  0  0  0  0  0  0  0  0  0
   26.8644  -17.8880  -18.0218 C   0  0  0  0  0  0  0  0  0  0  0  0
   27.7273  -16.8887  -18.0354 N   0  0  0  0  0  0  0  0  0  0  0  0
   27.5369  -16.0331  -17.0317 C   0  0  0  0  0  0  0  0  0  0  0  0
   28.1549  -14.8604  -16.6413 C   0  0  0  0  0  0  0  0  0  0  0  0
   27.7037  -14.1777  -15.5405 C   0  0  0  0  0  0  0  0  0  0  0  0
   26.6360  -14.6416  -14.8081 C   0  0  0  0  0  0  0  0  0  0  0  0
   26.0341  -15.8003  -15.2021 C   0  0  0  0  0  0  0  0  0  0  0  0
   26.4479  -16.5381  -16.3110 C   0  0  0  0  0  0  0  0  0  0  0  0
   23.9756  -20.0883  -14.8236 C   0  0  0  0  0  0  0  0  0  0  0  0
   23.7997  -21.2911  -15.1588 O   0  0  0  0  0  0  0  0  0  0  0  0
   22.9747  -19.4858  -14.0188 N   0  0  0  0  0  0  0  0  0  0  0  0
   21.8278  -20.1714  -13.4992 C   0  0  1  0  0  0  0  0  0  0  0  0
   21.3936  -19.6258  -12.1766 C   0  0  0  0  0  0  0  0  0  0  0  0
   20.3206  -20.4115  -11.5326 C   0  0  0  0  0  0  0  0  0  0  0  0
   19.7757  -21.4268  -11.9829 O   0  0  0  0  0  0  0  0  0  0  0  0
   20.6790  -20.1396  -14.4735 C   0  0  0  0  0  0  0  0  0  0  0  0
   20.2160  -19.0822  -14.9263 O   0  0  0  0  0  0  0  0  0  0  0  0
   19.8894  -19.9417  -10.2821 O   0  0  0  0  0  0  0  0  0  0  0  0
   20.1651  -23.0133  -17.1020 O   0  0  0  0  0  0  0  0  0  0  0  0
   18.8983  -22.7462  -16.5478 C   0  0  0  0  0  0  0  0  0  0  0  0
   18.9998  -21.4309  -15.8293 C   0  0  2  0  0  0  0  0  0  0  0  0
   20.0837  -21.3548  -14.9075 N   0  0  0  0  0  0  0  0  0  0  0  0
   17.7498  -21.0552  -15.1575 C   0  0  0  0  0  0  0  0  0  0  0  0
   16.6730  -21.0714  -15.7980 O   0  0  0  0  0  0  0  0  0  0  0  0
   17.7041  -20.6762  -13.8235 O   0  0  0  0  0  0  0  0  0  0  0  0
  2  1  1  6
  3  4  1  0
  3  2  1  0
  4  5  2  0
  5  6  1  0
  7  6  1  0
  8  7  2  0
  9  8  1  0
 10 11  1  0
 10  9  2  0
 11 12  2  0
 12  4  1  0
 12  7  1  0
 13  2  1  0
 13 14  2  0
 15 13  1  0
 16 15  1  0
 16 17  1  1
 18 17  1  0
 18 22  1  0
 19 18  2  0
 20 16  1  0
 21 20  2  0
 24 23  1  0
 25 24  1  1
 25 27  1  0
 25 26  1  0
 26 20  1  0
 27 29  1  0
 28 27  2  0
M  END
$$$$
