WDS.pdb
     RDKit          3D

 29 30  0  0  1  0  0  0  0  0999 V2000
   22.9317  -12.0430  -17.5196 N   0  0  0  0  0  0  0  0  0  0  0  0
   23.4819  -10.7769  -16.9762 C   0  0  1  0  0  0  0  0  0  0  0  0
   24.5634  -10.3811  -17.9227 C   0  0  0  0  0  0  0  0  0  0  0  0
   25.6758  -11.3232  -18.0935 C   0  0  0  0  0  0  0  0  0  0  0  0
   26.0762  -11.9515  -19.2732 C   0  0  0  0  0  0  0  0  0  0  0  0
   27.0926  -12.7373  -18.9685 N   0  0  0  0  0  0  0  0  0  0  0  0
   27.4094  -12.6877  -17.6751 C   0  0  0  0  0  0  0  0  0  0  0  0
   28.3776  -13.2985  -16.9011 C   0  0  0  0  0  0  0  0  0  0  0  0
   28.4636  -13.0211  -15.5605 C   0  0  0  0  0  0  0  0  0  0  0  0
   27.5957  -12.1370  -14.9631 C   0  0  0  0  0  0  0  0  0  0  0  0
   26.6437  -11.5406  -15.7366 C   0  0  0  0  0  0  0  0  0  0  0  0
   26.5067  -11.7830  -17.1032 C   0  0  0  0  0  0  0  0  0  0  0  0
   22.4579   -9.7332  -16.8597 C   0  0  0  0  0  0  0  0  0  0  0  0
   21.6161   -9.6558  -17.7952 O   0  0  0  0  0  0  0  0  0  0  0  0
   22.3306   -8.8061  -15.7935 N   0  0  0  0  0  0  0  0  0  0  0  0
   21.2721   -7.8467  -15.6729 C   0  0  1  0  0  0  0  0  0  0  0  0
   20.9387   -7.5485  -14.2461 C   0  0  0  0  0  0  0  0  0  0  0  0
   20.2741   -8.6664  -13.5447 C   0  0  0  0  0  0  0  0  0  0  0  0
   19.6139   -9.5757  -14.0620 O   0  0  0  0  0  0  0  0  0  0  0  0
   21.5991   -6.5709  -16.4045 C   0  0  0  0  0  0  0  0  0  0  0  0
   22.6786   -5.9776  -16.2634 O   0  0  0  0  0  0  0  0  0  0  0  0
   20.4187   -8.6803  -12.1485 O   0  0  0  0  0  0  0  0  0  0  0  0
   19.1654   -5.4554  -19.5500 O   0  0  0  0  0  0  0  0  0  0  0  0
   20.4970   -4.9973  -19.5331 C   0  0  0  0  0  0  0  0  0  0  0  0
   20.8927   -4.8449  -18.0920 C   0  0  2  0  0  0  0  0  0  0  0  0
   20.6508   -6.0030  -17.2978 N   0  0  0  0  0  0  0  0  0  0  0  0
   20.2794   -3.6715  -17.4579 C   0  0  0  0  0  0  0  0  0  0  0  0
   19.5479   -3.8222  -16.4519 O   0  0  0  0  0  0  0  0  0  0  0  0
   20.4753   -2.3810  -17.9287 O   0  0  0  0  0  0  0  0  0  0  0  0
  2  1  1  6
  3  4  1  0
  3  2  1  0
  4  5  2  0
  5  6  1  0
  7  6  1  0
  8  7  2  0
  9  8  1  0
 10 11  1  0
 10  9  2  0
 11 12  2  0
 12  4  1  0
 12  7  1  0
 13  2  1  0
 13 14  2  0
 15 13  1  0
 16 15  1  0
 16 17  1  1
 18 17  1  0
 18 22  1  0
 19 18  2  0
 20 16  1  0
 21 20  2  0
 24 23  1  0
 25 24  1  6
 25 27  1  0
 25 26  1  0
 26 20  1  0
 27 29  1  0
 28 27  2  0
M  END
$$$$
