QYH.pdb
     RDKit          3D

 32 33  0  0  1  0  0  0  0  0999 V2000
   10.7480  -20.8991   20.5434 N   0  0  0  0  0  0  0  0  0  0  0  0
   10.2448  -20.6380   19.2369 C   0  0  0  0  0  0  0  0  0  0  0  0
   10.1321  -21.5694   18.3994 O   0  0  0  0  0  0  0  0  0  0  0  0
    9.8648  -19.2581   18.8905 C   0  0  0  0  0  0  0  0  0  0  0  0
    9.9770  -18.2796   19.9937 C   0  0  0  0  0  0  0  0  0  0  0  0
    9.5264  -16.8893   19.6988 C   0  0  2  0  0  0  0  0  0  0  0  0
   10.3730  -16.2586   18.7460 N   0  0  0  0  0  0  0  0  0  0  0  0
    9.6131  -16.1079   20.9895 C   0  0  0  0  0  0  0  0  0  0  0  0
   10.7424  -15.7383   21.4149 O   0  0  0  0  0  0  0  0  0  0  0  0
    7.0405  -11.6028   28.0958 O   0  0  0  0  0  0  0  0  0  0  0  0
    7.0660  -12.2940   26.8969 C   0  0  0  0  0  0  0  0  0  0  0  0
    7.8880  -11.8138   25.8771 C   0  0  0  0  0  0  0  0  0  0  0  0
    7.9465  -12.4537   24.6699 C   0  0  0  0  0  0  0  0  0  0  0  0
    7.1873  -13.5862   24.4563 C   0  0  0  0  0  0  0  0  0  0  0  0
    7.2626  -14.2630   23.1544 C   0  0  0  0  0  0  0  0  0  0  0  0
    8.5521  -15.0629   23.0096 C   0  0  2  0  0  0  0  0  0  0  0  0
    8.4738  -15.7680   21.7468 N   0  0  0  0  0  0  0  0  0  0  0  0
    8.7540  -15.9675   24.1539 C   0  0  0  0  0  0  0  0  0  0  0  0
    7.9229  -16.8590   24.4903 O   0  0  0  0  0  0  0  0  0  0  0  0
    6.3637  -14.0832   25.4541 C   0  0  0  0  0  0  0  0  0  0  0  0
    6.3103  -13.4368   26.6622 C   0  0  0  0  0  0  0  0  0  0  0  0
    9.9054  -15.9410   25.0038 N   0  0  0  0  0  0  0  0  0  0  0  0
   10.1517  -16.7505   26.1213 C   0  0  1  0  0  0  0  0  0  0  0  0
   11.5295  -17.2985   26.2942 C   0  0  0  0  0  0  0  0  0  0  0  0
   11.8208  -18.1877   25.1199 C   0  0  0  0  0  0  0  0  0  0  0  0
   10.9336  -18.4422   24.0718 C   0  0  0  0  0  0  0  0  0  0  0  0
   11.4959  -19.2716   23.1842 N   0  0  0  0  0  0  0  0  0  0  0  0
   12.7055  -19.5452   23.6370 C   0  0  0  0  0  0  0  0  0  0  0  0
   12.9164  -18.8931   24.8117 N   0  0  0  0  0  0  0  0  0  0  0  0
    9.7235  -16.0857   27.3584 C   0  0  0  0  0  0  0  0  0  0  0  0
    9.2978  -14.8907   27.3995 O   0  0  0  0  0  0  0  0  0  0  0  0
    9.7724  -16.7759   28.5590 O   0  0  0  0  0  0  0  0  0  0  0  0
  1  2  1  0
  2  4  1  0
  2  3  2  0
  4  5  1  0
  6  7  1  6
  6  5  1  0
  8  6  1  0
  8  9  2  0
 10 11  1  0
 11 21  2  0
 11 12  1  0
 12 13  2  0
 13 14  1  0
 14 15  1  0
 16 15  1  1
 16 17  1  0
 17  8  1  0
 18 16  1  0
 19 18  2  0
 20 14  2  0
 21 20  1  0
 22 18  1  0
 23 22  1  0
 23 30  1  0
 23 24  1  1
 25 29  1  0
 25 24  1  0
 26 25  2  0
 27 26  1  0
 27 28  1  0
 28 29  2  0
 30 32  1  0
 31 30  2  0
M  END
$$$$
