QYH.pdb
     RDKit          3D

 32 33  0  0  1  0  0  0  0  0999 V2000
    6.2920  -21.0010   19.2646 N   0  0  0  0  0  0  0  0  0  0  0  0
    7.5283  -21.6744   19.0490 C   0  0  0  0  0  0  0  0  0  0  0  0
    7.5502  -22.8081   18.5052 O   0  0  0  0  0  0  0  0  0  0  0  0
    8.7737  -21.0166   19.4789 C   0  0  0  0  0  0  0  0  0  0  0  0
    8.5944  -19.7199   20.1670 C   0  0  0  0  0  0  0  0  0  0  0  0
    8.8649  -18.4954   19.3606 C   0  0  2  0  0  0  0  0  0  0  0  0
    9.6750  -18.7859   18.2284 N   0  0  0  0  0  0  0  0  0  0  0  0
    9.6268  -17.5363   20.2457 C   0  0  0  0  0  0  0  0  0  0  0  0
   10.8847  -17.4804   20.1595 O   0  0  0  0  0  0  0  0  0  0  0  0
    6.9815  -12.0718   17.6327 O   0  0  0  0  0  0  0  0  0  0  0  0
    7.4639  -12.6735   18.7821 C   0  0  0  0  0  0  0  0  0  0  0  0
    6.6545  -13.6108   19.4245 C   0  0  0  0  0  0  0  0  0  0  0  0
    7.0785  -14.2305   20.5673 C   0  0  0  0  0  0  0  0  0  0  0  0
    8.3189  -13.9288   21.0917 C   0  0  0  0  0  0  0  0  0  0  0  0
    8.7605  -14.6046   22.3193 C   0  0  0  0  0  0  0  0  0  0  0  0
    9.7079  -15.7596   22.0164 C   0  0  2  0  0  0  0  0  0  0  0  0
    8.9860  -16.6899   21.1730 N   0  0  0  0  0  0  0  0  0  0  0  0
   10.2064  -16.3835   23.2536 C   0  0  0  0  0  0  0  0  0  0  0  0
    9.4673  -17.0215   24.0570 O   0  0  0  0  0  0  0  0  0  0  0  0
    9.1417  -13.0018   20.4714 C   0  0  0  0  0  0  0  0  0  0  0  0
    8.7103  -12.3845   19.3254 C   0  0  0  0  0  0  0  0  0  0  0  0
   11.5722  -16.3407   23.6796 N   0  0  0  0  0  0  0  0  0  0  0  0
   12.3699  -17.4230   24.0761 C   0  0  1  0  0  0  0  0  0  0  0  0
   12.4156  -18.6184   23.1831 C   0  0  0  0  0  0  0  0  0  0  0  0
   13.2487  -19.6671   23.8619 C   0  0  0  0  0  0  0  0  0  0  0  0
   13.8237  -19.5340   25.1276 C   0  0  0  0  0  0  0  0  0  0  0  0
   14.5004  -20.6447   25.4445 N   0  0  0  0  0  0  0  0  0  0  0  0
   14.3689  -21.4711   24.4234 C   0  0  0  0  0  0  0  0  0  0  0  0
   13.6105  -20.8904   23.4552 N   0  0  0  0  0  0  0  0  0  0  0  0
   13.7359  -16.9846   24.3883 C   0  0  0  0  0  0  0  0  0  0  0  0
   14.1672  -15.8149   24.1499 O   0  0  0  0  0  0  0  0  0  0  0  0
   14.6221  -17.8720   24.9777 O   0  0  0  0  0  0  0  0  0  0  0  0
  1  2  1  0
  2  4  1  0
  2  3  2  0
  4  5  1  0
  6  7  1  6
  6  5  1  0
  8  6  1  0
  8  9  2  0
 10 11  1  0
 11 21  2  0
 11 12  1  0
 12 13  2  0
 13 14  1  0
 14 15  1  0
 16 15  1  1
 16 17  1  0
 17  8  1  0
 18 16  1  0
 19 18  2  0
 20 14  2  0
 21 20  1  0
 22 18  1  0
 23 22  1  0
 23 30  1  0
 23 24  1  6
 25 29  1  0
 25 24  1  0
 26 25  2  0
 27 26  1  0
 27 28  1  0
 28 29  2  0
 30 32  1  0
 31 30  2  0
M  END
$$$$
