QYH.pdb
     RDKit          3D

 32 33  0  0  1  0  0  0  0  0999 V2000
    9.6130  -17.1212   16.7444 N   0  0  0  0  0  0  0  0  0  0  0  0
    8.6678  -18.0826   17.2034 C   0  0  0  0  0  0  0  0  0  0  0  0
    7.7532  -18.4907   16.4428 O   0  0  0  0  0  0  0  0  0  0  0  0
    8.7842  -18.5824   18.5837 C   0  0  0  0  0  0  0  0  0  0  0  0
    9.8860  -17.9930   19.3747 C   0  0  0  0  0  0  0  0  0  0  0  0
    9.8605  -18.2466   20.8437 C   0  0  2  0  0  0  0  0  0  0  0  0
    8.5676  -18.6460   21.2808 N   0  0  0  0  0  0  0  0  0  0  0  0
   10.2027  -16.9435   21.5284 C   0  0  0  0  0  0  0  0  0  0  0  0
   11.3199  -16.4008   21.3041 O   0  0  0  0  0  0  0  0  0  0  0  0
    7.6324  -13.0013   17.2659 O   0  0  0  0  0  0  0  0  0  0  0  0
    7.8500  -13.2573   18.6086 C   0  0  0  0  0  0  0  0  0  0  0  0
    6.9439  -14.0807   19.2776 C   0  0  0  0  0  0  0  0  0  0  0  0
    7.1068  -14.3611   20.6060 C   0  0  0  0  0  0  0  0  0  0  0  0
    8.1776  -13.8270   21.2937 C   0  0  0  0  0  0  0  0  0  0  0  0
    8.3394  -14.1392   22.7202 C   0  0  0  0  0  0  0  0  0  0  0  0
    9.5797  -14.9884   22.9734 C   0  0  2  0  0  0  0  0  0  0  0  0
    9.3170  -16.2991   22.4157 N   0  0  0  0  0  0  0  0  0  0  0  0
    9.9132  -15.0374   24.4069 C   0  0  0  0  0  0  0  0  0  0  0  0
   10.2955  -14.0287   25.0665 O   0  0  0  0  0  0  0  0  0  0  0  0
    9.0918  -13.0070   20.6511 C   0  0  0  0  0  0  0  0  0  0  0  0
    8.9224  -12.7304   19.3188 C   0  0  0  0  0  0  0  0  0  0  0  0
    9.8393  -16.2216   25.2075 N   0  0  0  0  0  0  0  0  0  0  0  0
    9.0195  -16.4393   26.3235 C   0  0  1  0  0  0  0  0  0  0  0  0
    7.5546  -16.1965   26.1696 C   0  0  0  0  0  0  0  0  0  0  0  0
    7.2827  -14.7705   26.5531 C   0  0  0  0  0  0  0  0  0  0  0  0
    6.0811  -14.0971   26.3228 C   0  0  0  0  0  0  0  0  0  0  0  0
    6.1605  -12.8433   26.7851 N   0  0  0  0  0  0  0  0  0  0  0  0
    7.3688  -12.7064   27.2991 C   0  0  0  0  0  0  0  0  0  0  0  0
    8.0611  -13.8694   27.1655 N   0  0  0  0  0  0  0  0  0  0  0  0
    9.2441  -17.7752   26.8899 C   0  0  0  0  0  0  0  0  0  0  0  0
    8.7267  -18.1692   27.9798 O   0  0  0  0  0  0  0  0  0  0  0  0
   10.0562  -18.6756   26.2193 O   0  0  0  0  0  0  0  0  0  0  0  0
  1  2  1  0
  2  4  1  0
  2  3  2  0
  4  5  1  0
  6  7  1  1
  6  5  1  0
  8  6  1  0
  8  9  2  0
 10 11  1  0
 11 21  2  0
 11 12  1  0
 12 13  2  0
 13 14  1  0
 14 15  1  0
 16 15  1  1
 16 17  1  0
 17  8  1  0
 18 16  1  0
 19 18  2  0
 20 14  2  0
 21 20  1  0
 22 18  1  0
 23 22  1  0
 23 30  1  0
 23 24  1  6
 25 29  1  0
 25 24  1  0
 26 25  2  0
 27 26  1  0
 27 28  1  0
 28 29  2  0
 30 32  1  0
 31 30  2  0
M  END
$$$$
