QYH.pdb
     RDKit          3D

 32 33  0  0  1  0  0  0  0  0999 V2000
    8.4744  -12.9733   16.8809 N   0  0  0  0  0  0  0  0  0  0  0  0
    8.5208  -14.2854   16.3291 C   0  0  0  0  0  0  0  0  0  0  0  0
    7.5530  -14.7303   15.6605 O   0  0  0  0  0  0  0  0  0  0  0  0
    9.7213  -15.1060   16.5617 C   0  0  0  0  0  0  0  0  0  0  0  0
   10.3399  -14.9505   17.8959 C   0  0  0  0  0  0  0  0  0  0  0  0
   10.2044  -16.1039   18.8310 C   0  0  2  0  0  0  0  0  0  0  0  0
    9.0343  -16.8634   18.5548 N   0  0  0  0  0  0  0  0  0  0  0  0
   10.0738  -15.5361   20.2254 C   0  0  0  0  0  0  0  0  0  0  0  0
   11.0105  -14.8353   20.6989 O   0  0  0  0  0  0  0  0  0  0  0  0
    6.7753  -12.2242   27.5605 O   0  0  0  0  0  0  0  0  0  0  0  0
    6.9756  -12.7529   26.2971 C   0  0  0  0  0  0  0  0  0  0  0  0
    6.3984  -13.9880   26.0008 C   0  0  0  0  0  0  0  0  0  0  0  0
    6.5700  -14.5598   24.7705 C   0  0  0  0  0  0  0  0  0  0  0  0
    7.3195  -13.9106   23.8106 C   0  0  0  0  0  0  0  0  0  0  0  0
    7.4929  -14.5375   22.4932 C   0  0  0  0  0  0  0  0  0  0  0  0
    8.8282  -15.2649   22.3873 C   0  0  2  0  0  0  0  0  0  0  0  0
    8.9367  -15.7560   21.0290 N   0  0  0  0  0  0  0  0  0  0  0  0
    8.9358  -16.3382   23.3898 C   0  0  0  0  0  0  0  0  0  0  0  0
    7.9941  -17.1394   23.6541 O   0  0  0  0  0  0  0  0  0  0  0  0
    7.9023  -12.6824   24.0806 C   0  0  0  0  0  0  0  0  0  0  0  0
    7.7258  -12.1146   25.3163 C   0  0  0  0  0  0  0  0  0  0  0  0
   10.1097  -16.5941   24.1679 N   0  0  0  0  0  0  0  0  0  0  0  0
   10.3118  -16.2892   25.5210 C   0  0  1  0  0  0  0  0  0  0  0  0
    9.9056  -14.9341   25.9977 C   0  0  0  0  0  0  0  0  0  0  0  0
   10.2014  -14.8566   27.4678 C   0  0  0  0  0  0  0  0  0  0  0  0
   11.0351  -15.7363   28.1617 C   0  0  0  0  0  0  0  0  0  0  0  0
   11.0908  -15.3938   29.4546 N   0  0  0  0  0  0  0  0  0  0  0  0
   10.3231  -14.3291   29.5964 C   0  0  0  0  0  0  0  0  0  0  0  0
    9.7771  -13.9915   28.3975 N   0  0  0  0  0  0  0  0  0  0  0  0
    9.7212  -17.3173   26.3870 C   0  0  0  0  0  0  0  0  0  0  0  0
   10.3815  -17.9623   27.2580 O   0  0  0  0  0  0  0  0  0  0  0  0
    8.3734  -17.6178   26.2720 O   0  0  0  0  0  0  0  0  0  0  0  0
  1  2  1  0
  2  4  1  0
  2  3  2  0
  4  5  1  0
  6  7  1  6
  6  5  1  0
  8  6  1  0
  8  9  2  0
 10 11  1  0
 11 21  2  0
 11 12  1  0
 12 13  2  0
 13 14  1  0
 14 15  1  0
 16 15  1  6
 16 17  1  0
 17  8  1  0
 18 16  1  0
 19 18  2  0
 20 14  2  0
 21 20  1  0
 22 18  1  0
 23 22  1  0
 23 30  1  0
 23 24  1  1
 25 29  1  0
 25 24  1  0
 26 25  2  0
 27 26  1  0
 27 28  1  0
 28 29  2  0
 30 32  1  0
 31 30  2  0
M  END
$$$$
