NDV.pdb
     RDKit          3D

 24 23  0  0  1  0  0  0  0  0999 V2000
    9.0800  -13.4155   16.6732 N   0  0  0  0  0  0  0  0  0  0  0  0
    7.8313  -14.0390   16.8678 C   0  0  0  0  0  0  0  0  0  0  0  0
    7.1369  -14.3520   15.8879 O   0  0  0  0  0  0  0  0  0  0  0  0
    7.3587  -14.3153   18.2421 C   0  0  0  0  0  0  0  0  0  0  0  0
    8.3821  -13.8946   19.2774 C   0  0  2  0  0  0  0  0  0  0  0  0
    9.6780  -14.3136   18.7833 N   0  0  0  0  0  0  0  0  0  0  0  0
    8.1502  -14.5017   20.5843 C   0  0  0  0  0  0  0  0  0  0  0  0
    7.0531  -14.3470   21.1712 O   0  0  0  0  0  0  0  0  0  0  0  0
    9.1368  -15.2982   21.2718 N   0  0  0  0  0  0  0  0  0  0  0  0
    8.8652  -15.9338   22.5281 C   0  0  1  0  0  0  0  0  0  0  0  0
    9.6866  -17.1891   22.6493 C   0  0  0  0  0  0  0  0  0  0  0  0
    9.5339  -17.8892   23.9366 C   0  0  0  0  0  0  0  0  0  0  0  0
    8.4039  -17.9714   24.4597 O   0  0  0  0  0  0  0  0  0  0  0  0
    9.0073  -15.0440   23.6888 C   0  0  0  0  0  0  0  0  0  0  0  0
   10.1244  -14.4879   23.8571 O   0  0  0  0  0  0  0  0  0  0  0  0
   10.6157  -18.4542   24.5732 O   0  0  0  0  0  0  0  0  0  0  0  0
    5.7774  -13.3151   26.0877 C   0  0  0  0  0  0  0  0  0  0  0  0
    7.1372  -12.7373   25.7475 C   0  0  1  0  0  0  0  0  0  0  0  0
    7.5041  -11.8092   26.8868 C   0  0  0  0  0  0  0  0  0  0  0  0
    8.1609  -13.8174   25.6862 C   0  0  2  0  0  0  0  0  0  0  0  0
    8.0095  -14.7575   24.6276 N   0  0  0  0  0  0  0  0  0  0  0  0
    8.1579  -14.5545   26.9750 C   0  0  0  0  0  0  0  0  0  0  0  0
    7.6623  -15.7309   27.0510 O   0  0  0  0  0  0  0  0  0  0  0  0
    8.6699  -14.0577   28.1622 O   0  0  0  0  0  0  0  0  0  0  0  0
  2  1  1  0
  2  4  1  0
  3  2  2  0
  5  4  1  0
  5  7  1  0
  5  6  1  6
  7  9  1  0
  7  8  2  0
  9 10  1  0
 10 14  1  0
 10 11  1  1
 12 13  2  0
 12 11  1  0
 14 21  1  0
 14 15  2  0
 16 12  1  0
 18 20  1  0
 18 17  1  1
 19 18  1  0
 20 22  1  0
 20 21  1  6
 22 24  1  0
 23 22  2  0
M  END
$$$$
