NDV.pdb
     RDKit          3D

 24 23  0  0  1  0  0  0  0  0999 V2000
    7.4485  -12.2925   17.3807 N   0  0  0  0  0  0  0  0  0  0  0  0
    7.6234  -13.6493   17.7188 C   0  0  0  0  0  0  0  0  0  0  0  0
    8.0384  -14.4505   16.8666 O   0  0  0  0  0  0  0  0  0  0  0  0
    7.3100  -14.1070   19.0902 C   0  0  0  0  0  0  0  0  0  0  0  0
    8.5088  -13.9764   20.0078 C   0  0  2  0  0  0  0  0  0  0  0  0
    9.6256  -14.6074   19.3343 N   0  0  0  0  0  0  0  0  0  0  0  0
    8.3059  -14.6202   21.3020 C   0  0  0  0  0  0  0  0  0  0  0  0
    7.3480  -14.2819   22.0368 O   0  0  0  0  0  0  0  0  0  0  0  0
    9.1670  -15.6592   21.8112 N   0  0  0  0  0  0  0  0  0  0  0  0
    9.0236  -16.1895   23.1356 C   0  0  1  0  0  0  0  0  0  0  0  0
    9.9237  -17.3840   23.3038 C   0  0  0  0  0  0  0  0  0  0  0  0
    9.6815  -18.1544   24.5361 C   0  0  0  0  0  0  0  0  0  0  0  0
    8.6853  -17.8892   25.2393 O   0  0  0  0  0  0  0  0  0  0  0  0
    9.1961  -15.1903   24.1991 C   0  0  0  0  0  0  0  0  0  0  0  0
   10.3405  -14.6832   24.3354 O   0  0  0  0  0  0  0  0  0  0  0  0
   10.5348  -19.1615   24.9260 O   0  0  0  0  0  0  0  0  0  0  0  0
    7.1643  -11.9516   24.9435 C   0  0  0  0  0  0  0  0  0  0  0  0
    7.3212  -12.7472   26.2245 C   0  0  1  0  0  0  0  0  0  0  0  0
    6.0156  -13.4866   26.4306 C   0  0  0  0  0  0  0  0  0  0  0  0
    8.4048  -13.7587   26.0793 C   0  0  2  0  0  0  0  0  0  0  0  0
    8.1996  -14.7496   25.0776 N   0  0  0  0  0  0  0  0  0  0  0  0
    8.6021  -14.4406   27.3833 C   0  0  0  0  0  0  0  0  0  0  0  0
    8.9895  -13.7833   28.4095 O   0  0  0  0  0  0  0  0  0  0  0  0
    8.3932  -15.7926   27.5992 O   0  0  0  0  0  0  0  0  0  0  0  0
  2  1  1  0
  2  4  1  0
  3  2  2  0
  5  4  1  0
  5  7  1  0
  5  6  1  6
  7  9  1  0
  7  8  2  0
  9 10  1  0
 10 14  1  0
 10 11  1  1
 12 13  2  0
 12 11  1  0
 14 21  1  0
 14 15  2  0
 16 12  1  0
 18 20  1  0
 18 17  1  6
 19 18  1  0
 20 22  1  0
 20 21  1  6
 22 24  1  0
 23 22  2  0
M  END
$$$$
