NDV.pdb
     RDKit          3D

 24 23  0  0  1  0  0  0  0  0999 V2000
    9.2888  -15.0410   18.0926 N   0  0  0  0  0  0  0  0  0  0  0  0
    8.0091  -14.5977   17.7031 C   0  0  0  0  0  0  0  0  0  0  0  0
    7.3933  -15.1966   16.8072 O   0  0  0  0  0  0  0  0  0  0  0  0
    7.4101  -13.4196   18.3677 C   0  0  0  0  0  0  0  0  0  0  0  0
    8.2438  -12.9630   19.5478 C   0  0  2  0  0  0  0  0  0  0  0  0
    9.6202  -12.9163   19.0983 N   0  0  0  0  0  0  0  0  0  0  0  0
    8.1457  -13.8617   20.6937 C   0  0  0  0  0  0  0  0  0  0  0  0
    7.0517  -14.0198   21.2855 O   0  0  0  0  0  0  0  0  0  0  0  0
    9.2663  -14.6084   21.2104 N   0  0  0  0  0  0  0  0  0  0  0  0
    9.1821  -15.3733   22.4202 C   0  0  1  0  0  0  0  0  0  0  0  0
   10.2388  -16.4450   22.4171 C   0  0  0  0  0  0  0  0  0  0  0  0
   10.0917  -17.4355   21.3363 C   0  0  0  0  0  0  0  0  0  0  0  0
    9.0150  -18.0544   21.2141 O   0  0  0  0  0  0  0  0  0  0  0  0
    9.1992  -14.5581   23.6426 C   0  0  0  0  0  0  0  0  0  0  0  0
   10.0421  -13.6246   23.7029 O   0  0  0  0  0  0  0  0  0  0  0  0
   11.1210  -17.6909   20.4589 O   0  0  0  0  0  0  0  0  0  0  0  0
    6.0422  -13.4655   26.2709 C   0  0  0  0  0  0  0  0  0  0  0  0
    7.4202  -12.8650   26.0730 C   0  0  1  0  0  0  0  0  0  0  0  0
    7.7307  -12.0840   27.3330 C   0  0  0  0  0  0  0  0  0  0  0  0
    8.4414  -13.9404   25.9350 C   0  0  2  0  0  0  0  0  0  0  0  0
    8.3602  -14.7260   24.7502 N   0  0  0  0  0  0  0  0  0  0  0  0
    8.3461  -14.8455   27.1081 C   0  0  0  0  0  0  0  0  0  0  0  0
    8.6278  -14.4223   28.2814 O   0  0  0  0  0  0  0  0  0  0  0  0
    7.9596  -16.1739   27.0426 O   0  0  0  0  0  0  0  0  0  0  0  0
  2  1  1  0
  2  4  1  0
  3  2  2  0
  5  4  1  0
  5  7  1  0
  5  6  1  6
  7  9  1  0
  7  8  2  0
  9 10  1  0
 10 14  1  0
 10 11  1  1
 12 13  2  0
 12 11  1  0
 14 21  1  0
 14 15  2  0
 16 12  1  0
 18 20  1  0
 18 17  1  1
 19 18  1  0
 20 22  1  0
 20 21  1  6
 22 24  1  0
 23 22  2  0
M  END
$$$$
