EYQ.pdb
     RDKit          3D

 31 31  0  0  1  0  0  0  0  0999 V2000
   23.9526  -14.2492  -17.8430 N   0  0  0  0  0  0  0  0  0  0  0  0
   23.1055  -13.1382  -18.3357 C   0  0  1  0  0  0  0  0  0  0  0  0
   21.7562  -13.7290  -18.5393 C   0  0  0  0  0  0  0  0  0  0  0  0
   21.6119  -14.7047  -19.6502 C   0  0  0  0  0  0  0  0  0  0  0  0
   20.1725  -15.1461  -19.7097 C   0  0  0  0  0  0  0  0  0  0  0  0
   19.2902  -14.3271  -20.0431 O   0  0  0  0  0  0  0  0  0  0  0  0
   23.2121  -12.0813  -17.3348 C   0  0  0  0  0  0  0  0  0  0  0  0
   23.1149  -12.2578  -16.0919 O   0  0  0  0  0  0  0  0  0  0  0  0
   19.7971  -16.4452  -19.4027 O   0  0  0  0  0  0  0  0  0  0  0  0
   29.0126  -12.3753  -15.9478 O   0  0  0  0  0  0  0  0  0  0  0  0
   27.9747  -11.5193  -16.2601 C   0  0  0  0  0  0  0  0  0  0  0  0
   27.3509  -10.8389  -15.2332 C   0  0  0  0  0  0  0  0  0  0  0  0
   26.3109   -9.9751  -15.5018 C   0  0  0  0  0  0  0  0  0  0  0  0
   25.9179   -9.8138  -16.8095 C   0  0  0  0  0  0  0  0  0  0  0  0
   24.7882   -8.8721  -17.0726 C   0  0  0  0  0  0  0  0  0  0  0  0
   23.5099   -9.6442  -16.8006 C   0  0  2  0  0  0  0  0  0  0  0  0
   23.4440  -10.7351  -17.7294 N   0  0  0  0  0  0  0  0  0  0  0  0
   22.3953   -8.7238  -16.8254 C   0  0  0  0  0  0  0  0  0  0  0  0
   21.9134   -8.2691  -17.8839 O   0  0  0  0  0  0  0  0  0  0  0  0
   26.5140  -10.4725  -17.8525 C   0  0  0  0  0  0  0  0  0  0  0  0
   27.5600  -11.3362  -17.5468 C   0  0  0  0  0  0  0  0  0  0  0  0
   18.6840   -8.9413  -12.0490 N   0  0  0  0  0  0  0  0  0  0  0  0
   18.2015   -9.3799  -13.3180 C   0  0  0  0  0  0  0  0  0  0  0  0
   17.2397  -10.2139  -13.3081 O   0  0  0  0  0  0  0  0  0  0  0  0
   18.7586   -8.9076  -14.5928 C   0  0  0  0  0  0  0  0  0  0  0  0
   19.8385   -7.9325  -14.4073 C   0  0  0  0  0  0  0  0  0  0  0  0
   20.5899   -7.4397  -15.6092 C   0  0  2  0  0  0  0  0  0  0  0  0
   21.8116   -8.3086  -15.6065 N   0  0  0  0  0  0  0  0  0  0  0  0
   21.0189   -6.0394  -15.5456 C   0  0  0  0  0  0  0  0  0  0  0  0
   20.2352   -4.9811  -15.9718 O   0  0  0  0  0  0  0  0  0  0  0  0
   22.1639   -5.7587  -15.0796 O   0  0  0  0  0  0  0  0  0  0  0  0
  2  1  1  1
  2  3  1  0
  3  4  1  0
  5  9  1  0
  5  4  1  0
  6  5  2  0
  7  2  1  0
  8  7  2  0
 10 11  1  0
 11 12  2  0
 12 13  1  0
 14 15  1  0
 14 13  2  0
 16 15  1  6
 16 17  1  0
 17  7  1  0
 18 28  1  0
 18 16  1  0
 19 18  2  0
 20 14  1  0
 21 20  2  0
 21 11  1  0
 22 23  1  0
 23 25  1  0
 24 23  2  0
 25 26  1  0
 27 26  1  1
 27 29  1  0
 27 28  1  0
 29 30  1  0
 31 29  2  0
M  END
$$$$
