EYQ.pdb
     RDKit          3D

 31 31  0  0  1  0  0  0  0  0999 V2000
   15.2788  -14.9024  -18.3175 N   0  0  0  0  0  0  0  0  0  0  0  0
   15.8499  -14.1340  -17.1869 C   0  0  1  0  0  0  0  0  0  0  0  0
   16.3568  -15.1538  -16.2307 C   0  0  0  0  0  0  0  0  0  0  0  0
   15.3473  -16.0431  -15.6008 C   0  0  0  0  0  0  0  0  0  0  0  0
   16.0727  -17.0765  -14.7786 C   0  0  0  0  0  0  0  0  0  0  0  0
   16.1176  -16.9548  -13.5362 O   0  0  0  0  0  0  0  0  0  0  0  0
   16.8415  -13.2384  -17.7740 C   0  0  0  0  0  0  0  0  0  0  0  0
   17.4138  -13.4275  -18.8794 O   0  0  0  0  0  0  0  0  0  0  0  0
   16.6963  -18.1666  -15.3665 O   0  0  0  0  0  0  0  0  0  0  0  0
   13.3840   -7.3364  -18.0489 O   0  0  0  0  0  0  0  0  0  0  0  0
   14.4527   -8.1813  -18.2761 C   0  0  0  0  0  0  0  0  0  0  0  0
   15.7303   -7.6654  -18.1864 C   0  0  0  0  0  0  0  0  0  0  0  0
   16.8244   -8.4746  -18.4058 C   0  0  0  0  0  0  0  0  0  0  0  0
   16.6067   -9.7969  -18.7132 C   0  0  0  0  0  0  0  0  0  0  0  0
   17.8098  -10.6516  -18.9464 C   0  0  0  0  0  0  0  0  0  0  0  0
   18.2464  -11.1637  -17.5857 C   0  0  2  0  0  0  0  0  0  0  0  0
   17.2294  -12.0493  -17.0975 N   0  0  0  0  0  0  0  0  0  0  0  0
   18.5598  -10.0332  -16.7409 C   0  0  0  0  0  0  0  0  0  0  0  0
   17.7293   -9.5124  -15.9673 O   0  0  0  0  0  0  0  0  0  0  0  0
   15.3534  -10.3420  -18.8103 C   0  0  0  0  0  0  0  0  0  0  0  0
   14.2719   -9.4982  -18.5831 C   0  0  0  0  0  0  0  0  0  0  0  0
   20.2094   -8.6850  -12.5406 N   0  0  0  0  0  0  0  0  0  0  0  0
   21.4140   -7.9807  -12.8382 C   0  0  0  0  0  0  0  0  0  0  0  0
   21.8927   -7.2482  -11.9136 O   0  0  0  0  0  0  0  0  0  0  0  0
   22.0989   -8.0787  -14.1343 C   0  0  0  0  0  0  0  0  0  0  0  0
   21.3802   -8.9319  -15.0867 C   0  0  0  0  0  0  0  0  0  0  0  0
   20.2303   -8.3543  -15.8588 C   0  0  2  0  0  0  0  0  0  0  0  0
   19.8599   -9.4787  -16.7785 N   0  0  0  0  0  0  0  0  0  0  0  0
   20.5537   -7.1790  -16.6732 C   0  0  0  0  0  0  0  0  0  0  0  0
   20.4298   -5.8777  -16.2181 O   0  0  0  0  0  0  0  0  0  0  0  0
   20.9704   -7.3382  -17.8597 O   0  0  0  0  0  0  0  0  0  0  0  0
  2  1  1  6
  2  3  1  0
  3  4  1  0
  5  9  1  0
  5  4  1  0
  6  5  2  0
  7  2  1  0
  8  7  2  0
 10 11  1  0
 11 12  2  0
 12 13  1  0
 14 15  1  0
 14 13  2  0
 16 15  1  6
 16 17  1  0
 17  7  1  0
 18 28  1  0
 18 16  1  0
 19 18  2  0
 20 14  1  0
 21 20  2  0
 21 11  1  0
 22 23  1  0
 23 25  1  0
 24 23  2  0
 25 26  1  0
 27 26  1  6
 27 29  1  0
 27 28  1  0
 29 30  1  0
 31 29  2  0
M  END
$$$$
