EYQ.pdb
     RDKit          3D

 31 31  0  0  1  0  0  0  0  0999 V2000
   15.0676   -9.4104  -12.8094 N   0  0  0  0  0  0  0  0  0  0  0  0
   16.1437   -8.6215  -12.1656 C   0  0  1  0  0  0  0  0  0  0  0  0
   16.9842   -8.1128  -13.2819 C   0  0  0  0  0  0  0  0  0  0  0  0
   17.8664   -9.0972  -13.9596 C   0  0  0  0  0  0  0  0  0  0  0  0
   19.0676   -9.3398  -13.0829 C   0  0  0  0  0  0  0  0  0  0  0  0
   19.5990   -8.3795  -12.4864 O   0  0  0  0  0  0  0  0  0  0  0  0
   15.4683   -7.6196  -11.3469 C   0  0  0  0  0  0  0  0  0  0  0  0
   14.4080   -7.0234  -11.6721 O   0  0  0  0  0  0  0  0  0  0  0  0
   19.6035  -10.6081  -12.9185 O   0  0  0  0  0  0  0  0  0  0  0  0
   10.4791   -9.7024   -7.7912 O   0  0  0  0  0  0  0  0  0  0  0  0
   11.6415   -8.9565   -7.7944 C   0  0  0  0  0  0  0  0  0  0  0  0
   12.8168   -9.5709   -8.1787 C   0  0  0  0  0  0  0  0  0  0  0  0
   13.9990   -8.8623   -8.1959 C   0  0  0  0  0  0  0  0  0  0  0  0
   13.9721   -7.5392   -7.8226 C   0  0  0  0  0  0  0  0  0  0  0  0
   15.2671   -6.7947   -7.8499 C   0  0  0  0  0  0  0  0  0  0  0  0
   15.4129   -6.2327   -9.2524 C   0  0  2  0  0  0  0  0  0  0  0  0
   15.9959   -7.2490  -10.0796 N   0  0  0  0  0  0  0  0  0  0  0  0
   16.1363   -4.9830   -9.1808 C   0  0  0  0  0  0  0  0  0  0  0  0
   17.3392   -4.9123   -8.8533 O   0  0  0  0  0  0  0  0  0  0  0  0
   12.8246   -6.8982   -7.4359 C   0  0  0  0  0  0  0  0  0  0  0  0
   11.6498   -7.6419   -7.4298 C   0  0  0  0  0  0  0  0  0  0  0  0
   16.5484   -2.1583  -13.8748 N   0  0  0  0  0  0  0  0  0  0  0  0
   17.0337   -1.0847  -13.0701 C   0  0  0  0  0  0  0  0  0  0  0  0
   17.5221   -0.0829  -13.6855 O   0  0  0  0  0  0  0  0  0  0  0  0
   16.9815   -1.0980  -11.6019 C   0  0  0  0  0  0  0  0  0  0  0  0
   16.4580   -2.3606  -11.0696 C   0  0  0  0  0  0  0  0  0  0  0  0
   16.2338   -2.4912   -9.5915 C   0  0  2  0  0  0  0  0  0  0  0  0
   15.4684   -3.7763   -9.4920 N   0  0  0  0  0  0  0  0  0  0  0  0
   15.4288   -1.4260   -8.9862 C   0  0  0  0  0  0  0  0  0  0  0  0
   14.0543   -1.4976   -8.8402 O   0  0  0  0  0  0  0  0  0  0  0  0
   15.9997   -0.3746   -8.5673 O   0  0  0  0  0  0  0  0  0  0  0  0
  2  1  1  6
  2  3  1  0
  3  4  1  0
  5  9  1  0
  5  4  1  0
  6  5  2  0
  7  2  1  0
  8  7  2  0
 10 11  1  0
 11 12  2  0
 12 13  1  0
 14 15  1  0
 14 13  2  0
 16 15  1  1
 16 17  1  0
 17  7  1  0
 18 28  1  0
 18 16  1  0
 19 18  2  0
 20 14  1  0
 21 20  2  0
 21 11  1  0
 22 23  1  0
 23 25  1  0
 24 23  2  0
 25 26  1  0
 27 26  1  6
 27 29  1  0
 27 28  1  0
 29 30  1  0
 31 29  2  0
M  END
$$$$
