EYQ.pdb
     RDKit          3D

 31 31  0  0  1  0  0  0  0  0999 V2000
   28.2724  -22.3062  -18.3165 N   0  0  0  0  0  0  0  0  0  0  0  0
   28.5522  -21.1675  -17.4112 C   0  0  1  0  0  0  0  0  0  0  0  0
   28.3802  -19.9476  -18.2441 C   0  0  0  0  0  0  0  0  0  0  0  0
   27.0071  -19.6549  -18.7292 C   0  0  0  0  0  0  0  0  0  0  0  0
   27.0681  -18.4434  -19.6231 C   0  0  0  0  0  0  0  0  0  0  0  0
   27.6362  -18.5245  -20.7326 O   0  0  0  0  0  0  0  0  0  0  0  0
   27.6401  -21.3221  -16.2823 C   0  0  0  0  0  0  0  0  0  0  0  0
   26.6704  -22.1244  -16.2481 O   0  0  0  0  0  0  0  0  0  0  0  0
   26.5073  -17.2326  -19.2459 O   0  0  0  0  0  0  0  0  0  0  0  0
   24.4207  -20.8042   -8.3086 O   0  0  0  0  0  0  0  0  0  0  0  0
   25.1657  -20.5197   -9.4362 C   0  0  0  0  0  0  0  0  0  0  0  0
   26.1430  -21.4152   -9.8226 C   0  0  0  0  0  0  0  0  0  0  0  0
   26.9090  -21.1691  -10.9419 C   0  0  0  0  0  0  0  0  0  0  0  0
   26.6724  -20.0168  -11.6539 C   0  0  0  0  0  0  0  0  0  0  0  0
   27.5168  -19.7744  -12.8623 C   0  0  0  0  0  0  0  0  0  0  0  0
   26.9276  -20.6188  -13.9777 C   0  0  2  0  0  0  0  0  0  0  0  0
   27.8083  -20.5397  -15.1069 N   0  0  0  0  0  0  0  0  0  0  0  0
   25.5635  -20.1997  -14.2086 C   0  0  0  0  0  0  0  0  0  0  0  0
   25.2675  -19.1922  -14.8844 O   0  0  0  0  0  0  0  0  0  0  0  0
   25.7115  -19.1068  -11.2993 C   0  0  0  0  0  0  0  0  0  0  0  0
   24.9568  -19.3857  -10.1652 C   0  0  0  0  0  0  0  0  0  0  0  0
   21.9301  -23.5146  -16.8107 N   0  0  0  0  0  0  0  0  0  0  0  0
   20.9321  -22.6285  -16.3062 C   0  0  0  0  0  0  0  0  0  0  0  0
   19.7475  -22.7916  -16.7430 O   0  0  0  0  0  0  0  0  0  0  0  0
   21.2205  -21.5736  -15.3250 C   0  0  0  0  0  0  0  0  0  0  0  0
   22.6270  -21.5627  -14.9087 C   0  0  0  0  0  0  0  0  0  0  0  0
   23.0799  -20.5505  -13.8977 C   0  0  2  0  0  0  0  0  0  0  0  0
   24.5033  -20.9519  -13.6523 N   0  0  0  0  0  0  0  0  0  0  0  0
   22.3639  -20.5828  -12.6189 C   0  0  0  0  0  0  0  0  0  0  0  0
   22.7132  -21.4150  -11.5695 O   0  0  0  0  0  0  0  0  0  0  0  0
   21.3692  -19.8171  -12.4419 O   0  0  0  0  0  0  0  0  0  0  0  0
  2  1  1  6
  2  3  1  0
  3  4  1  0
  5  9  1  0
  5  4  1  0
  6  5  2  0
  7  2  1  0
  8  7  2  0
 10 11  1  0
 11 12  2  0
 12 13  1  0
 14 15  1  0
 14 13  2  0
 16 15  1  1
 16 17  1  0
 17  7  1  0
 18 28  1  0
 18 16  1  0
 19 18  2  0
 20 14  1  0
 21 20  2  0
 21 11  1  0
 22 23  1  0
 23 25  1  0
 24 23  2  0
 25 26  1  0
 27 26  1  6
 27 29  1  0
 27 28  1  0
 29 30  1  0
 31 29  2  0
M  END
$$$$
