EYQ.pdb
     RDKit          3D

 31 31  0  0  1  0  0  0  0  0999 V2000
   28.2271  -22.6789  -18.7542 N   0  0  0  0  0  0  0  0  0  0  0  0
   28.0555  -21.3562  -18.1094 C   0  0  1  0  0  0  0  0  0  0  0  0
   27.3157  -20.5268  -19.0973 C   0  0  0  0  0  0  0  0  0  0  0  0
   28.0510  -20.1321  -20.3262 C   0  0  0  0  0  0  0  0  0  0  0  0
   28.9788  -18.9966  -19.9796 C   0  0  0  0  0  0  0  0  0  0  0  0
   28.8106  -18.3669  -18.9140 O   0  0  0  0  0  0  0  0  0  0  0  0
   27.3835  -21.6157  -16.8400 C   0  0  0  0  0  0  0  0  0  0  0  0
   26.4806  -22.4765  -16.6690 O   0  0  0  0  0  0  0  0  0  0  0  0
   30.0216  -18.6285  -20.8162 O   0  0  0  0  0  0  0  0  0  0  0  0
   24.6433  -20.4723   -8.7334 O   0  0  0  0  0  0  0  0  0  0  0  0
   25.4008  -20.3703   -9.8838 C   0  0  0  0  0  0  0  0  0  0  0  0
   26.0813  -21.4877  -10.3250 C   0  0  0  0  0  0  0  0  0  0  0  0
   26.8486  -21.4286  -11.4686 C   0  0  0  0  0  0  0  0  0  0  0  0
   26.9147  -20.2356  -12.1490 C   0  0  0  0  0  0  0  0  0  0  0  0
   27.7535  -20.1990  -13.3848 C   0  0  0  0  0  0  0  0  0  0  0  0
   26.9571  -20.9029  -14.4686 C   0  0  2  0  0  0  0  0  0  0  0  0
   27.7309  -20.8767  -15.6759 N   0  0  0  0  0  0  0  0  0  0  0  0
   25.6438  -20.3036  -14.5456 C   0  0  0  0  0  0  0  0  0  0  0  0
   25.4420  -19.1694  -15.0275 O   0  0  0  0  0  0  0  0  0  0  0  0
   26.2528  -19.1079  -11.7400 C   0  0  0  0  0  0  0  0  0  0  0  0
   25.4878  -19.2019  -10.5827 C   0  0  0  0  0  0  0  0  0  0  0  0
   22.3018  -18.0005  -16.3716 N   0  0  0  0  0  0  0  0  0  0  0  0
   21.2065  -18.9121  -16.3002 C   0  0  0  0  0  0  0  0  0  0  0  0
   20.0569  -18.4504  -16.5937 O   0  0  0  0  0  0  0  0  0  0  0  0
   21.3624  -20.3221  -15.9179 C   0  0  0  0  0  0  0  0  0  0  0  0
   22.7356  -20.6474  -15.5182 C   0  0  0  0  0  0  0  0  0  0  0  0
   23.1583  -20.4050  -14.0988 C   0  0  2  0  0  0  0  0  0  0  0  0
   24.5256  -21.0186  -14.0584 N   0  0  0  0  0  0  0  0  0  0  0  0
   22.3291  -21.0574  -13.0810 C   0  0  0  0  0  0  0  0  0  0  0  0
   21.3549  -20.3972  -12.3525 O   0  0  0  0  0  0  0  0  0  0  0  0
   22.4951  -22.2904  -12.8382 O   0  0  0  0  0  0  0  0  0  0  0  0
  2  1  1  6
  2  3  1  0
  3  4  1  0
  5  9  1  0
  5  4  1  0
  6  5  2  0
  7  2  1  0
  8  7  2  0
 10 11  1  0
 11 12  2  0
 12 13  1  0
 14 15  1  0
 14 13  2  0
 16 15  1  1
 16 17  1  0
 17  7  1  0
 18 28  1  0
 18 16  1  0
 19 18  2  0
 20 14  1  0
 21 20  2  0
 21 11  1  0
 22 23  1  0
 23 25  1  0
 24 23  2  0
 25 26  1  0
 27 26  1  6
 27 29  1  0
 27 28  1  0
 29 30  1  0
 31 29  2  0
M  END
$$$$
