CLR.pdb
     RDKit          3D

 26 25  0  0  1  0  0  0  0  0999 V2000
    8.8170  -15.5481   20.3284 N   0  0  0  0  0  0  0  0  0  0  0  0
    7.9284  -15.8705   21.4280 C   0  0  1  0  0  0  0  0  0  0  0  0
    7.3897  -17.2655   21.3021 C   0  0  0  0  0  0  0  0  0  0  0  0
    6.3166  -17.3117   19.8290 S   0  0  0  0  0  0  0  0  0  0  0  0
    8.5188  -15.5684   22.7266 C   0  0  0  0  0  0  0  0  0  0  0  0
    9.7908  -15.6594   22.8277 O   0  0  0  0  0  0  0  0  0  0  0  0
    8.3407  -11.8391   25.5407 C   0  0  0  0  0  0  0  0  0  0  0  0
    7.0597  -12.6968   25.4932 C   0  0  2  0  0  0  0  0  0  0  0  0
    6.0505  -11.9741   26.3303 C   0  0  0  0  0  0  0  0  0  0  0  0
    7.4413  -14.0532   25.9775 C   0  0  0  0  0  0  0  0  0  0  0  0
    8.3431  -14.8406   25.0661 C   0  0  2  0  0  0  0  0  0  0  0  0
    7.7105  -15.1921   23.8204 N   0  0  0  0  0  0  0  0  0  0  0  0
    8.6579  -16.1098   25.7929 C   0  0  0  0  0  0  0  0  0  0  0  0
    7.6995  -16.8691   26.0800 O   0  0  0  0  0  0  0  0  0  0  0  0
   11.2137  -21.1221   23.2192 N   0  0  0  0  0  0  0  0  0  0  0  0
   12.0174  -20.2503   22.4458 C   0  0  0  0  0  0  0  0  0  0  0  0
   11.9839  -20.2827   21.1442 N   0  0  0  0  0  0  0  0  0  0  0  0
   12.8830  -19.3158   23.0762 N   0  0  0  0  0  0  0  0  0  0  0  0
   12.9028  -19.1595   24.5159 C   0  0  0  0  0  0  0  0  0  0  0  0
   11.4970  -18.6923   24.9567 C   0  0  0  0  0  0  0  0  0  0  0  0
   11.5112  -18.3192   26.4071 C   0  0  0  0  0  0  0  0  0  0  0  0
   10.2053  -17.7339   26.8267 C   0  0  2  0  0  0  0  0  0  0  0  0
    9.9915  -16.4466   26.1467 N   0  0  0  0  0  0  0  0  0  0  0  0
   10.1583  -17.4611   28.2629 C   0  0  0  0  0  0  0  0  0  0  0  0
   10.0032  -16.1739   28.7518 O   0  0  0  0  0  0  0  0  0  0  0  0
   10.2657  -18.4263   29.0753 O   0  0  0  0  0  0  0  0  0  0  0  0
  2  3  1  0
  2  1  1  6
  4  3  1  0
  5  2  1  0
  6  5  2  0
  8  7  1  1
  8 10  1  0
  9  8  1  0
 11 10  1  1
 11 12  1  0
 12  5  1  0
 13 11  1  0
 13 14  2  0
 16 15  1  0
 17 16  2  0
 18 16  1  0
 19 18  1  0
 20 21  1  0
 20 19  1  0
 22 21  1  1
 22 23  1  0
 23 13  1  0
 24 22  1  0
 25 24  1  0
 26 24  2  0
M  END
$$$$
