CLR.pdb
     RDKit          3D

 26 25  0  0  1  0  0  0  0  0999 V2000
    7.8332  -16.0690   20.7801 N   0  0  0  0  0  0  0  0  0  0  0  0
    7.2361  -16.3791   22.0646 C   0  0  1  0  0  0  0  0  0  0  0  0
    6.9424  -17.8455   22.1890 C   0  0  0  0  0  0  0  0  0  0  0  0
    5.9232  -18.0794   23.6825 S   0  0  0  0  0  0  0  0  0  0  0  0
    7.9929  -15.8204   23.1787 C   0  0  0  0  0  0  0  0  0  0  0  0
    9.2316  -15.5704   22.9792 O   0  0  0  0  0  0  0  0  0  0  0  0
    8.0110  -11.8761   25.6780 C   0  0  0  0  0  0  0  0  0  0  0  0
    6.7599  -12.7656   25.8284 C   0  0  2  0  0  0  0  0  0  0  0  0
    5.8223  -12.0085   26.7167 C   0  0  0  0  0  0  0  0  0  0  0  0
    7.2333  -14.0736   26.3622 C   0  0  0  0  0  0  0  0  0  0  0  0
    8.1155  -14.8723   25.4415 C   0  0  2  0  0  0  0  0  0  0  0  0
    7.3740  -15.5697   24.4219 N   0  0  0  0  0  0  0  0  0  0  0  0
    8.7873  -15.8972   26.2997 C   0  0  0  0  0  0  0  0  0  0  0  0
    9.6132  -15.4900   27.1539 O   0  0  0  0  0  0  0  0  0  0  0  0
   14.7780  -18.6518   22.4930 N   0  0  0  0  0  0  0  0  0  0  0  0
   13.6309  -19.4807   22.4595 C   0  0  0  0  0  0  0  0  0  0  0  0
   13.3762  -20.2345   21.4283 N   0  0  0  0  0  0  0  0  0  0  0  0
   12.7273  -19.5085   23.5562 N   0  0  0  0  0  0  0  0  0  0  0  0
   12.9827  -18.7486   24.7623 C   0  0  0  0  0  0  0  0  0  0  0  0
   11.8158  -19.0142   25.7404 C   0  0  0  0  0  0  0  0  0  0  0  0
   10.6731  -18.0943   25.4384 C   0  0  0  0  0  0  0  0  0  0  0  0
    9.5894  -18.2281   26.4542 C   0  0  2  0  0  0  0  0  0  0  0  0
    8.5033  -17.2813   26.1560 N   0  0  0  0  0  0  0  0  0  0  0  0
   10.0569  -17.9168   27.8047 C   0  0  0  0  0  0  0  0  0  0  0  0
   10.7314  -18.8527   28.5722 O   0  0  0  0  0  0  0  0  0  0  0  0
    9.8349  -16.7650   28.2813 O   0  0  0  0  0  0  0  0  0  0  0  0
  2  3  1  0
  2  1  1  6
  4  3  1  0
  5  2  1  0
  6  5  2  0
  8  7  1  1
  8 10  1  0
  9  8  1  0
 11 10  1  1
 11 12  1  0
 12  5  1  0
 13 11  1  0
 13 14  2  0
 16 15  1  0
 17 16  2  0
 18 16  1  0
 19 18  1  0
 20 21  1  0
 20 19  1  0
 22 21  1  6
 22 23  1  0
 23 13  1  0
 24 22  1  0
 25 24  1  0
 26 24  2  0
M  END
$$$$
