CLR.pdb
     RDKit          3D

 26 25  0  0  1  0  0  0  0  0999 V2000
    6.9889  -15.9312   21.5833 N   0  0  0  0  0  0  0  0  0  0  0  0
    7.9656  -14.8657   21.4676 C   0  0  1  0  0  0  0  0  0  0  0  0
    7.4165  -13.7053   20.6904 C   0  0  0  0  0  0  0  0  0  0  0  0
    6.3072  -14.3753   19.4082 S   0  0  0  0  0  0  0  0  0  0  0  0
    8.5504  -14.5056   22.7539 C   0  0  0  0  0  0  0  0  0  0  0  0
    9.4591  -13.6053   22.7534 O   0  0  0  0  0  0  0  0  0  0  0  0
    7.8933  -11.7279   25.8639 C   0  0  0  0  0  0  0  0  0  0  0  0
    6.9428  -12.9231   25.6470 C   0  0  2  0  0  0  0  0  0  0  0  0
    5.6823  -12.5834   26.3797 C   0  0  0  0  0  0  0  0  0  0  0  0
    7.6642  -14.1308   26.1380 C   0  0  0  0  0  0  0  0  0  0  0  0
    8.6902  -14.7038   25.1984 C   0  0  2  0  0  0  0  0  0  0  0  0
    8.1236  -15.1314   23.9446 N   0  0  0  0  0  0  0  0  0  0  0  0
    9.2481  -15.9113   25.8831 C   0  0  0  0  0  0  0  0  0  0  0  0
    9.5795  -15.7954   27.0890 O   0  0  0  0  0  0  0  0  0  0  0  0
   14.5292  -14.6323   21.0922 N   0  0  0  0  0  0  0  0  0  0  0  0
   13.3263  -15.1585   20.5628 C   0  0  0  0  0  0  0  0  0  0  0  0
   12.9881  -14.9463   19.3231 N   0  0  0  0  0  0  0  0  0  0  0  0
   12.4569  -15.9339   21.3770 N   0  0  0  0  0  0  0  0  0  0  0  0
   12.7437  -16.1658   22.7775 C   0  0  0  0  0  0  0  0  0  0  0  0
   11.5726  -16.9842   23.3672 C   0  0  0  0  0  0  0  0  0  0  0  0
   11.7954  -17.2194   24.8294 C   0  0  0  0  0  0  0  0  0  0  0  0
   10.6291  -17.9126   25.4485 C   0  0  2  0  0  0  0  0  0  0  0  0
    9.3988  -17.1455   25.1968 N   0  0  0  0  0  0  0  0  0  0  0  0
   10.7613  -18.0263   26.9007 C   0  0  0  0  0  0  0  0  0  0  0  0
   11.9137  -18.5246   27.4869 O   0  0  0  0  0  0  0  0  0  0  0  0
    9.7965  -17.6632   27.6358 O   0  0  0  0  0  0  0  0  0  0  0  0
  2  3  1  0
  2  1  1  1
  4  3  1  0
  5  2  1  0
  6  5  2  0
  8  7  1  1
  8 10  1  0
  9  8  1  0
 11 10  1  1
 11 12  1  0
 12  5  1  0
 13 11  1  0
 13 14  2  0
 16 15  1  0
 17 16  2  0
 18 16  1  0
 19 18  1  0
 20 21  1  0
 20 19  1  0
 22 21  1  1
 22 23  1  0
 23 13  1  0
 24 22  1  0
 25 24  1  0
 26 24  2  0
M  END
$$$$
