CLR.pdb
     RDKit          3D

 26 25  0  0  1  0  0  0  0  0999 V2000
    8.1850  -15.0386   20.2463 N   0  0  0  0  0  0  0  0  0  0  0  0
    7.3349  -15.1632   21.4143 C   0  0  1  0  0  0  0  0  0  0  0  0
    6.5284  -16.4279   21.3688 C   0  0  0  0  0  0  0  0  0  0  0  0
    7.3455  -17.5615   20.1979 S   0  0  0  0  0  0  0  0  0  0  0  0
    8.0672  -14.9610   22.6589 C   0  0  0  0  0  0  0  0  0  0  0  0
    9.3445  -14.9976   22.6001 O   0  0  0  0  0  0  0  0  0  0  0  0
    7.7697  -11.5705   25.7316 C   0  0  0  0  0  0  0  0  0  0  0  0
    6.6590  -12.6328   25.8606 C   0  0  2  0  0  0  0  0  0  0  0  0
    5.7184  -12.1184   26.9056 C   0  0  0  0  0  0  0  0  0  0  0  0
    7.3392  -13.9177   26.1867 C   0  0  0  0  0  0  0  0  0  0  0  0
    8.1506  -14.5258   25.0751 C   0  0  2  0  0  0  0  0  0  0  0  0
    7.3843  -14.7349   23.8730 N   0  0  0  0  0  0  0  0  0  0  0  0
    8.5943  -15.8650   25.5729 C   0  0  0  0  0  0  0  0  0  0  0  0
    7.7138  -16.7453   25.7383 O   0  0  0  0  0  0  0  0  0  0  0  0
   11.0946  -20.0366   22.0363 N   0  0  0  0  0  0  0  0  0  0  0  0
   11.9039  -19.0506   21.4224 C   0  0  0  0  0  0  0  0  0  0  0  0
   11.8748  -18.8642   20.1337 N   0  0  0  0  0  0  0  0  0  0  0  0
   12.7704  -18.2384   22.2032 N   0  0  0  0  0  0  0  0  0  0  0  0
   12.8534  -18.3907   23.6410 C   0  0  0  0  0  0  0  0  0  0  0  0
   11.5095  -17.9193   24.2413 C   0  0  0  0  0  0  0  0  0  0  0  0
   11.5813  -17.9359   25.7372 C   0  0  0  0  0  0  0  0  0  0  0  0
   10.2983  -17.4782   26.3442 C   0  0  2  0  0  0  0  0  0  0  0  0
    9.9611  -16.1341   25.8494 N   0  0  0  0  0  0  0  0  0  0  0  0
   10.3810  -17.3790   27.8012 C   0  0  0  0  0  0  0  0  0  0  0  0
   10.5454  -18.5019   28.5961 O   0  0  0  0  0  0  0  0  0  0  0  0
   10.2966  -16.2387   28.3451 O   0  0  0  0  0  0  0  0  0  0  0  0
  2  3  1  0
  2  1  1  6
  4  3  1  0
  5  2  1  0
  6  5  2  0
  8  7  1  1
  8 10  1  0
  9  8  1  0
 11 10  1  1
 11 12  1  0
 12  5  1  0
 13 11  1  0
 13 14  2  0
 16 15  1  0
 17 16  2  0
 18 16  1  0
 19 18  1  0
 20 21  1  0
 20 19  1  0
 22 21  1  6
 22 23  1  0
 23 13  1  0
 24 22  1  0
 25 24  1  0
 26 24  2  0
M  END
$$$$
