CLR.pdb
     RDKit          3D

 26 25  0  0  1  0  0  0  0  0999 V2000
    8.6177  -14.8895   19.4939 N   0  0  0  0  0  0  0  0  0  0  0  0
    7.6466  -15.1689   20.5338 C   0  0  1  0  0  0  0  0  0  0  0  0
    7.1381  -16.5777   20.4400 C   0  0  0  0  0  0  0  0  0  0  0  0
    6.2910  -16.7530   18.8352 S   0  0  0  0  0  0  0  0  0  0  0  0
    8.1250  -14.7888   21.8577 C   0  0  0  0  0  0  0  0  0  0  0  0
    9.3626  -14.9879   22.1134 O   0  0  0  0  0  0  0  0  0  0  0  0
    5.9291  -12.3615   27.0987 C   0  0  0  0  0  0  0  0  0  0  0  0
    7.1892  -12.8471   26.3536 C   0  0  2  0  0  0  0  0  0  0  0  0
    8.2072  -11.7619   26.5181 C   0  0  0  0  0  0  0  0  0  0  0  0
    6.7696  -13.1254   24.9512 C   0  0  0  0  0  0  0  0  0  0  0  0
    7.7643  -13.8792   24.1109 C   0  0  2  0  0  0  0  0  0  0  0  0
    7.2498  -14.2250   22.8104 N   0  0  0  0  0  0  0  0  0  0  0  0
    8.0438  -15.1525   24.8450 C   0  0  0  0  0  0  0  0  0  0  0  0
    7.1360  -16.0201   24.8718 O   0  0  0  0  0  0  0  0  0  0  0  0
   14.5667  -19.9087   22.8958 N   0  0  0  0  0  0  0  0  0  0  0  0
   14.5154  -19.8946   24.3105 C   0  0  0  0  0  0  0  0  0  0  0  0
   15.5486  -20.2405   25.0240 N   0  0  0  0  0  0  0  0  0  0  0  0
   13.3288  -19.5006   24.9864 N   0  0  0  0  0  0  0  0  0  0  0  0
   12.1095  -19.2101   24.2610 C   0  0  0  0  0  0  0  0  0  0  0  0
   11.0732  -18.6801   25.2780 C   0  0  0  0  0  0  0  0  0  0  0  0
   10.7271  -17.2572   24.9641 C   0  0  0  0  0  0  0  0  0  0  0  0
    9.6289  -16.7623   25.8435 C   0  0  2  0  0  0  0  0  0  0  0  0
    9.2898  -15.3750   25.4893 N   0  0  0  0  0  0  0  0  0  0  0  0
   10.0137  -16.7516   27.2546 C   0  0  0  0  0  0  0  0  0  0  0  0
   10.0229  -17.9117   28.0123 O   0  0  0  0  0  0  0  0  0  0  0  0
   10.3420  -15.6540   27.7936 O   0  0  0  0  0  0  0  0  0  0  0  0
  2  3  1  0
  2  1  1  6
  4  3  1  0
  5  2  1  0
  6  5  2  0
  8  7  1  1
  8 10  1  0
  9  8  1  0
 11 10  1  1
 11 12  1  0
 12  5  1  0
 13 11  1  0
 13 14  2  0
 16 15  1  0
 17 16  2  0
 18 16  1  0
 19 18  1  0
 20 21  1  0
 20 19  1  0
 22 21  1  6
 22 23  1  0
 23 13  1  0
 24 22  1  0
 25 24  1  0
 26 24  2  0
M  END
$$$$
