CLR.pdb
     RDKit          3D

 26 25  0  0  1  0  0  0  0  0999 V2000
    7.8005  -19.1737   27.8192 N   0  0  0  0  0  0  0  0  0  0  0  0
    8.1837  -17.7782   27.7277 C   0  0  1  0  0  0  0  0  0  0  0  0
    9.6763  -17.6228   27.7149 C   0  0  0  0  0  0  0  0  0  0  0  0
   10.3033  -18.1826   29.3327 S   0  0  0  0  0  0  0  0  0  0  0  0
    7.4970  -17.0831   26.6454 C   0  0  0  0  0  0  0  0  0  0  0  0
    6.6519  -17.7556   25.9598 O   0  0  0  0  0  0  0  0  0  0  0  0
    5.7076  -12.9664   27.0313 C   0  0  0  0  0  0  0  0  0  0  0  0
    7.1888  -12.9497   26.6015 C   0  0  2  0  0  0  0  0  0  0  0  0
    7.6119  -11.5142   26.6419 C   0  0  0  0  0  0  0  0  0  0  0  0
    7.2470  -13.5979   25.2612 C   0  0  0  0  0  0  0  0  0  0  0  0
    7.1065  -15.0959   25.2552 C   0  0  2  0  0  0  0  0  0  0  0  0
    7.7617  -15.7237   26.3742 N   0  0  0  0  0  0  0  0  0  0  0  0
    7.7813  -15.5687   24.0064 C   0  0  0  0  0  0  0  0  0  0  0  0
    7.0506  -15.9541   23.0603 O   0  0  0  0  0  0  0  0  0  0  0  0
    9.2634  -12.1332   19.0413 N   0  0  0  0  0  0  0  0  0  0  0  0
    8.3992  -13.0207   18.3561 C   0  0  0  0  0  0  0  0  0  0  0  0
    7.5201  -12.5782   17.5031 N   0  0  0  0  0  0  0  0  0  0  0  0
    8.4726  -14.4215   18.5853 N   0  0  0  0  0  0  0  0  0  0  0  0
    9.5004  -14.9939   19.4299 C   0  0  0  0  0  0  0  0  0  0  0  0
    9.2285  -14.5309   20.8793 C   0  0  0  0  0  0  0  0  0  0  0  0
   10.2930  -15.0541   21.7937 C   0  0  0  0  0  0  0  0  0  0  0  0
    9.7696  -16.1488   22.6607 C   0  0  2  0  0  0  0  0  0  0  0  0
    9.1968  -15.5825   23.8921 N   0  0  0  0  0  0  0  0  0  0  0  0
   10.8223  -17.0752   23.0765 C   0  0  0  0  0  0  0  0  0  0  0  0
   11.1317  -17.2683   24.4133 O   0  0  0  0  0  0  0  0  0  0  0  0
   11.4660  -17.7112   22.1909 O   0  0  0  0  0  0  0  0  0  0  0  0
  2  3  1  0
  2  1  1  6
  4  3  1  0
  5  2  1  0
  6  5  2  0
  8  7  1  6
  8 10  1  0
  9  8  1  0
 11 10  1  1
 11 12  1  0
 12  5  1  0
 13 11  1  0
 13 14  2  0
 16 15  1  0
 17 16  2  0
 18 16  1  0
 19 18  1  0
 20 21  1  0
 20 19  1  0
 22 21  1  6
 22 23  1  0
 23 13  1  0
 24 22  1  0
 25 24  1  0
 26 24  2  0
M  END
$$$$
