IES.pdb
     RDKit          3D

 24 23  0  0  1  0  0  0  0  0999 V2000
   23.3835  -15.2222  -16.5668 C   0  0  0  0  0  0  0  0  0  0  0  0
   22.6001  -14.2655  -15.7164 C   0  0  0  0  0  0  0  0  0  0  0  0
   22.5797  -12.8608  -16.2447 C   0  0  2  0  0  0  0  0  0  0  0  0
   24.0104  -12.3833  -16.3446 C   0  0  0  0  0  0  0  0  0  0  0  0
   21.7096  -11.9377  -15.4684 C   0  0  2  0  0  0  0  0  0  0  0  0
   20.3635  -12.5061  -15.3779 N   0  0  0  0  0  0  0  0  0  0  0  0
   21.6620  -10.5474  -15.9680 C   0  0  0  0  0  0  0  0  0  0  0  0
   22.6392   -9.7885  -15.8896 O   0  0  0  0  0  0  0  0  0  0  0  0
   20.4719  -10.0051  -16.5727 N   0  0  0  0  0  0  0  0  0  0  0  0
   20.3434   -8.6364  -16.9952 C   0  0  1  0  0  0  0  0  0  0  0  0
   19.0460   -8.3478  -17.7052 C   0  0  0  0  0  0  0  0  0  0  0  0
   18.9258   -6.9368  -18.1947 C   0  0  0  0  0  0  0  0  0  0  0  0
   17.6151   -6.7982  -18.8628 C   0  0  0  0  0  0  0  0  0  0  0  0
   16.5759   -6.8473  -18.1705 O   0  0  0  0  0  0  0  0  0  0  0  0
   20.4118   -7.7464  -15.8133 C   0  0  0  0  0  0  0  0  0  0  0  0
   19.9073   -8.1234  -14.7468 O   0  0  0  0  0  0  0  0  0  0  0  0
   17.5018   -6.6164  -20.2257 O   0  0  0  0  0  0  0  0  0  0  0  0
   22.5728   -4.3469  -13.2533 O   0  0  0  0  0  0  0  0  0  0  0  0
   22.5371   -5.1536  -14.4030 C   0  0  0  0  0  0  0  0  0  0  0  0
   21.1426   -5.6751  -14.6593 C   0  0  2  0  0  0  0  0  0  0  0  0
   21.0308   -6.4706  -15.8363 N   0  0  0  0  0  0  0  0  0  0  0  0
   20.1940   -4.5597  -14.6721 C   0  0  0  0  0  0  0  0  0  0  0  0
   19.4731   -4.1705  -13.5563 O   0  0  0  0  0  0  0  0  0  0  0  0
   20.0174   -3.9193  -15.7363 O   0  0  0  0  0  0  0  0  0  0  0  0
  2  1  1  0
  3  2  1  0
  3  4  1  1
  5  3  1  0
  5  6  1  6
  7  8  2  0
  7  5  1  0
  9  7  1  0
 10  9  1  0
 11 12  1  0
 10 11  1  1
 12 13  1  0
 13 17  1  0
 13 14  2  0
 15 16  2  0
 15 10  1  0
 18 19  1  0
 20 21  1  0
 20 19  1  6
 21 15  1  0
 22 20  1  0
 23 22  1  0
 24 22  2  0
M  END
$$$$
