IES.pdb
     RDKit          3D

 24 23  0  0  1  0  0  0  0  0999 V2000
   16.3616  -14.3914  -17.6601 C   0  0  0  0  0  0  0  0  0  0  0  0
   17.1441  -13.7211  -16.5689 C   0  0  0  0  0  0  0  0  0  0  0  0
   17.3404  -12.2482  -16.7800 C   0  0  2  0  0  0  0  0  0  0  0  0
   17.9951  -12.0574  -18.1291 C   0  0  0  0  0  0  0  0  0  0  0  0
   18.0732  -11.5736  -15.6756 C   0  0  2  0  0  0  0  0  0  0  0  0
   17.3450  -11.7732  -14.4214 N   0  0  0  0  0  0  0  0  0  0  0  0
   18.3627  -10.1407  -15.8945 C   0  0  0  0  0  0  0  0  0  0  0  0
   19.0209   -9.7459  -16.8680 O   0  0  0  0  0  0  0  0  0  0  0  0
   17.8917   -9.1296  -14.9824 N   0  0  0  0  0  0  0  0  0  0  0  0
   18.1471   -7.7240  -15.1471 C   0  0  1  0  0  0  0  0  0  0  0  0
   17.0559   -6.8473  -14.5892 C   0  0  0  0  0  0  0  0  0  0  0  0
   15.8555   -6.7362  -15.4789 C   0  0  0  0  0  0  0  0  0  0  0  0
   14.8543   -5.8974  -14.7879 C   0  0  0  0  0  0  0  0  0  0  0  0
   15.1287   -5.4349  -13.6599 O   0  0  0  0  0  0  0  0  0  0  0  0
   19.4050   -7.3661  -14.4519 C   0  0  0  0  0  0  0  0  0  0  0  0
   19.6391   -7.8599  -13.3404 O   0  0  0  0  0  0  0  0  0  0  0  0
   13.6269   -5.6087  -15.3478 O   0  0  0  0  0  0  0  0  0  0  0  0
   22.8042   -7.8205  -15.7283 O   0  0  0  0  0  0  0  0  0  0  0  0
   22.8178   -6.5073  -15.2290 C   0  0  0  0  0  0  0  0  0  0  0  0
   21.6169   -6.2464  -14.3503 C   0  0  2  0  0  0  0  0  0  0  0  0
   20.3678   -6.4781  -14.9959 N   0  0  0  0  0  0  0  0  0  0  0  0
   21.6943   -4.8920  -13.7994 C   0  0  0  0  0  0  0  0  0  0  0  0
   20.7509   -3.9147  -14.0661 O   0  0  0  0  0  0  0  0  0  0  0  0
   22.6543   -4.5905  -13.0502 O   0  0  0  0  0  0  0  0  0  0  0  0
  2  1  1  0
  3  2  1  0
  3  4  1  6
  5  3  1  0
  5  6  1  1
  7  8  2  0
  7  5  1  0
  9  7  1  0
 10  9  1  0
 11 12  1  0
 10 11  1  1
 12 13  1  0
 13 17  1  0
 13 14  2  0
 15 16  2  0
 15 10  1  0
 18 19  1  0
 20 21  1  0
 20 19  1  6
 21 15  1  0
 22 20  1  0
 23 22  1  0
 24 22  2  0
M  END
$$$$
