IES.pdb
     RDKit          3D

 24 23  0  0  1  0  0  0  0  0999 V2000
   10.6058  -12.5751   -9.7928 C   0  0  0  0  0  0  0  0  0  0  0  0
   11.6283  -12.2403  -10.8390 C   0  0  0  0  0  0  0  0  0  0  0  0
   12.7892  -11.4433  -10.3196 C   0  0  2  0  0  0  0  0  0  0  0  0
   12.2384  -10.2004   -9.6587 C   0  0  0  0  0  0  0  0  0  0  0  0
   13.8246  -11.1481  -11.3457 C   0  0  2  0  0  0  0  0  0  0  0  0
   14.3617  -12.4073  -11.8645 N   0  0  0  0  0  0  0  0  0  0  0  0
   14.9143  -10.2535  -10.9019 C   0  0  0  0  0  0  0  0  0  0  0  0
   15.8838  -10.6728  -10.2529 O   0  0  0  0  0  0  0  0  0  0  0  0
   14.9018   -8.8447  -11.2037 N   0  0  0  0  0  0  0  0  0  0  0  0
   15.9116   -7.9233  -10.7572 C   0  0  1  0  0  0  0  0  0  0  0  0
   16.8534   -7.4901  -11.8508 C   0  0  0  0  0  0  0  0  0  0  0  0
   17.9287   -6.5554  -11.3873 C   0  0  0  0  0  0  0  0  0  0  0  0
   18.8376   -6.3087  -12.5259 C   0  0  0  0  0  0  0  0  0  0  0  0
   18.7950   -5.2016  -13.1041 O   0  0  0  0  0  0  0  0  0  0  0  0
   15.2645   -6.7048  -10.2183 C   0  0  0  0  0  0  0  0  0  0  0  0
   14.3868   -6.1437  -10.8885 O   0  0  0  0  0  0  0  0  0  0  0  0
   19.7313   -7.2608  -12.9712 O   0  0  0  0  0  0  0  0  0  0  0  0
   14.5047   -3.5509   -6.5809 O   0  0  0  0  0  0  0  0  0  0  0  0
   15.1899   -4.7015   -7.0059 C   0  0  0  0  0  0  0  0  0  0  0  0
   14.9424   -4.9725   -8.4714 C   0  0  2  0  0  0  0  0  0  0  0  0
   15.5989   -6.1384   -8.9619 N   0  0  0  0  0  0  0  0  0  0  0  0
   15.2919   -3.7878   -9.2575 C   0  0  0  0  0  0  0  0  0  0  0  0
   14.3801   -2.7940   -9.5692 O   0  0  0  0  0  0  0  0  0  0  0  0
   16.4680   -3.6551   -9.6736 O   0  0  0  0  0  0  0  0  0  0  0  0
  2  1  1  0
  3  2  1  0
  3  4  1  6
  5  3  1  0
  5  6  1  1
  7  8  2  0
  7  5  1  0
  9  7  1  0
 10  9  1  0
 11 12  1  0
 10 11  1  6
 12 13  1  0
 13 17  1  0
 13 14  2  0
 15 16  2  0
 15 10  1  0
 18 19  1  0
 20 21  1  0
 20 19  1  1
 21 15  1  0
 22 20  1  0
 23 22  1  0
 24 22  2  0
M  END
$$$$
