IES.pdb
     RDKit          3D

 24 23  0  0  1  0  0  0  0  0999 V2000
   19.7013  -13.4213  -18.9881 C   0  0  0  0  0  0  0  0  0  0  0  0
   20.2407  -12.7348  -17.7675 C   0  0  0  0  0  0  0  0  0  0  0  0
   20.0084  -11.2521  -17.7529 C   0  0  2  0  0  0  0  0  0  0  0  0
   20.6480  -10.6714  -18.9934 C   0  0  0  0  0  0  0  0  0  0  0  0
   20.4534  -10.5848  -16.5005 C   0  0  2  0  0  0  0  0  0  0  0  0
   19.9822  -11.3569  -15.3494 N   0  0  0  0  0  0  0  0  0  0  0  0
   20.0701   -9.1629  -16.3737 C   0  0  0  0  0  0  0  0  0  0  0  0
   20.3962   -8.3177  -17.2200 O   0  0  0  0  0  0  0  0  0  0  0  0
   19.2955   -8.6889  -15.2550 N   0  0  0  0  0  0  0  0  0  0  0  0
   18.8374   -7.3326  -15.1183 C   0  0  1  0  0  0  0  0  0  0  0  0
   17.6488   -7.1909  -14.2029 C   0  0  0  0  0  0  0  0  0  0  0  0
   16.3491   -7.5871  -14.8343 C   0  0  0  0  0  0  0  0  0  0  0  0
   15.2884   -7.4486  -13.8150 C   0  0  0  0  0  0  0  0  0  0  0  0
   15.6057   -7.1075  -12.6553 O   0  0  0  0  0  0  0  0  0  0  0  0
   19.9278   -6.4967  -14.5649 C   0  0  0  0  0  0  0  0  0  0  0  0
   20.8741   -7.0485  -13.9869 O   0  0  0  0  0  0  0  0  0  0  0  0
   13.9596   -7.6837  -14.1020 O   0  0  0  0  0  0  0  0  0  0  0  0
   23.4431   -3.9451  -14.8656 O   0  0  0  0  0  0  0  0  0  0  0  0
   22.3457   -4.7821  -15.1281 C   0  0  0  0  0  0  0  0  0  0  0  0
   21.1221   -4.3310  -14.3655 C   0  0  2  0  0  0  0  0  0  0  0  0
   19.9477   -5.0819  -14.6617 N   0  0  0  0  0  0  0  0  0  0  0  0
   20.9110   -2.8975  -14.5761 C   0  0  0  0  0  0  0  0  0  0  0  0
   21.4850   -1.9254  -13.7750 O   0  0  0  0  0  0  0  0  0  0  0  0
   20.1787   -2.5196  -15.5221 O   0  0  0  0  0  0  0  0  0  0  0  0
  2  1  1  0
  3  2  1  0
  3  4  1  6
  5  3  1  0
  5  6  1  1
  7  8  2  0
  7  5  1  0
  9  7  1  0
 10  9  1  0
 11 12  1  0
 10 11  1  1
 12 13  1  0
 13 17  1  0
 13 14  2  0
 15 16  2  0
 15 10  1  0
 18 19  1  0
 20 21  1  0
 20 19  1  6
 21 15  1  0
 22 20  1  0
 23 22  1  0
 24 22  2  0
M  END
$$$$
