WCI.pdb
     RDKit          3D

 29 30  0  0  1  0  0  0  0  0999 V2000
   27.3457  -22.6298  -13.2334 N   0  0  0  0  0  0  0  0  0  0  0  0
   26.4184  -21.7075  -12.6656 C   0  0  1  0  0  0  0  0  0  0  0  0
   27.0307  -20.4595  -12.0861 C   0  0  0  0  0  0  0  0  0  0  0  0
   27.9963  -20.6834  -11.0136 C   0  0  0  0  0  0  0  0  0  0  0  0
   29.3489  -20.9708  -11.1970 C   0  0  0  0  0  0  0  0  0  0  0  0
   29.9383  -21.1331  -10.0105 N   0  0  0  0  0  0  0  0  0  0  0  0
   29.0324  -20.9650   -9.0431 C   0  0  0  0  0  0  0  0  0  0  0  0
   29.1512  -21.0271   -7.6686 C   0  0  0  0  0  0  0  0  0  0  0  0
   28.0242  -20.8007   -6.9090 C   0  0  0  0  0  0  0  0  0  0  0  0
   26.8185  -20.5218   -7.4859 C   0  0  0  0  0  0  0  0  0  0  0  0
   26.7026  -20.4603   -8.8611 C   0  0  0  0  0  0  0  0  0  0  0  0
   27.8053  -20.6812   -9.6514 C   0  0  0  0  0  0  0  0  0  0  0  0
   25.3118  -21.3836  -13.6010 C   0  0  0  0  0  0  0  0  0  0  0  0
   25.5317  -21.4730  -14.8357 O   0  0  0  0  0  0  0  0  0  0  0  0
   24.0178  -20.9781  -13.1807 N   0  0  0  0  0  0  0  0  0  0  0  0
   22.8672  -21.1416  -14.0142 C   0  0  1  0  0  0  0  0  0  0  0  0
   22.5590  -22.6082  -14.3098 C   0  0  0  0  0  0  0  0  0  0  0  0
   21.0437  -22.6405  -15.3065 S   0  0  0  0  0  0  0  0  0  0  0  0
   21.6614  -20.4649  -13.4512 C   0  0  0  0  0  0  0  0  0  0  0  0
   21.3003  -20.6677  -12.2649 O   0  0  0  0  0  0  0  0  0  0  0  0
   20.4856  -15.4232  -15.0845 C   0  0  0  0  0  0  0  0  0  0  0  0
   20.7559  -16.6588  -14.2526 C   0  0  0  0  0  0  0  0  0  0  0  0
   19.5146  -17.5339  -14.2963 C   0  0  2  0  0  0  0  0  0  0  0  0
   18.4087  -16.8157  -13.5506 C   0  0  0  0  0  0  0  0  0  0  0  0
   19.7569  -18.8592  -13.6055 C   0  0  2  0  0  0  0  0  0  0  0  0
   20.8765  -19.5694  -14.2258 N   0  0  0  0  0  0  0  0  0  0  0  0
   18.5125  -19.6530  -13.6897 C   0  0  0  0  0  0  0  0  0  0  0  0
   18.2137  -20.2530  -14.7433 O   0  0  0  0  0  0  0  0  0  0  0  0
   17.6602  -19.7454  -12.6069 O   0  0  0  0  0  0  0  0  0  0  0  0
  2  1  1  6
  2 13  1  0
  3  4  1  0
  3  2  1  0
  4 12  1  0
  5  4  2  0
  5  6  1  0
  6  7  1  0
  7  8  1  0
  8  9  2  0
 10  9  1  0
 11 10  2  0
 12  7  2  0
 12 11  1  0
 13 14  2  0
 15 13  1  0
 15 16  1  0
 16 17  1  1
 17 18  1  0
 19 16  1  0
 19 20  2  0
 21 22  1  0
 23 22  1  0
 23 25  1  0
 23 24  1  1
 25 26  1  6
 26 19  1  0
 27 25  1  0
 28 27  2  0
 29 27  1  0
M  END
$$$$
