WCI.pdb
     RDKit          3D

 29 30  0  0  1  0  0  0  0  0999 V2000
   23.2555  -20.2017  -13.1446 N   0  0  0  0  0  0  0  0  0  0  0  0
   21.9799  -20.3803  -12.5332 C   0  0  1  0  0  0  0  0  0  0  0  0
   20.8552  -20.7021  -13.4816 C   0  0  0  0  0  0  0  0  0  0  0  0
   20.6795  -19.7546  -14.5789 C   0  0  0  0  0  0  0  0  0  0  0  0
   21.1486  -19.9358  -15.8800 C   0  0  0  0  0  0  0  0  0  0  0  0
   20.8313  -18.8739  -16.6236 N   0  0  0  0  0  0  0  0  0  0  0  0
   20.1689  -17.9918  -15.8700 C   0  0  0  0  0  0  0  0  0  0  0  0
   19.6338  -16.7565  -16.1785 C   0  0  0  0  0  0  0  0  0  0  0  0
   18.9888  -16.0610  -15.1792 C   0  0  0  0  0  0  0  0  0  0  0  0
   18.8747  -16.5670  -13.9162 C   0  0  0  0  0  0  0  0  0  0  0  0
   19.4110  -17.8029  -13.6105 C   0  0  0  0  0  0  0  0  0  0  0  0
   20.0622  -18.5255  -14.5816 C   0  0  0  0  0  0  0  0  0  0  0  0
   22.0326  -21.3473  -11.4076 C   0  0  0  0  0  0  0  0  0  0  0  0
   22.8577  -22.2936  -11.4750 O   0  0  0  0  0  0  0  0  0  0  0  0
   21.2035  -21.2646  -10.2582 N   0  0  0  0  0  0  0  0  0  0  0  0
   21.3472  -22.1655   -9.1569 C   0  0  1  0  0  0  0  0  0  0  0  0
   22.4839  -21.7684   -8.2169 C   0  0  0  0  0  0  0  0  0  0  0  0
   22.0660  -20.1383   -7.5395 S   0  0  0  0  0  0  0  0  0  0  0  0
   20.0767  -22.3267   -8.3897 C   0  0  0  0  0  0  0  0  0  0  0  0
   19.2500  -21.3847   -8.3016 O   0  0  0  0  0  0  0  0  0  0  0  0
   17.0060  -25.3691  -10.4893 C   0  0  0  0  0  0  0  0  0  0  0  0
   17.5662  -24.2627   -9.6210 C   0  0  0  0  0  0  0  0  0  0  0  0
   17.7013  -24.8002   -8.2063 C   0  0  2  0  0  0  0  0  0  0  0  0
   16.3089  -25.0554   -7.6672 C   0  0  0  0  0  0  0  0  0  0  0  0
   18.3728  -23.7896   -7.3007 C   0  0  2  0  0  0  0  0  0  0  0  0
   19.7497  -23.5425   -7.7316 N   0  0  0  0  0  0  0  0  0  0  0  0
   18.3351  -24.3168   -5.9199 C   0  0  0  0  0  0  0  0  0  0  0  0
   19.3202  -24.9193   -5.4445 O   0  0  0  0  0  0  0  0  0  0  0  0
   17.2124  -24.1525   -5.1326 O   0  0  0  0  0  0  0  0  0  0  0  0
  2  1  1  6
  2 13  1  0
  3  4  1  0
  3  2  1  0
  4 12  1  0
  5  4  2  0
  5  6  1  0
  6  7  1  0
  7  8  1  0
  8  9  2  0
 10  9  1  0
 11 10  2  0
 12  7  2  0
 12 11  1  0
 13 14  2  0
 15 13  1  0
 15 16  1  0
 16 17  1  1
 17 18  1  0
 19 16  1  0
 19 20  2  0
 21 22  1  0
 23 22  1  0
 23 25  1  0
 23 24  1  1
 25 26  1  6
 26 19  1  0
 27 25  1  0
 28 27  2  0
 29 27  1  0
M  END
$$$$
