WCI.pdb
     RDKit          3D

 29 30  0  0  1  0  0  0  0  0999 V2000
   15.3910  -20.8227   -0.5746 N   0  0  0  0  0  0  0  0  0  0  0  0
   14.2892  -20.9962    0.3134 C   0  0  1  0  0  0  0  0  0  0  0  0
   13.9921  -22.4229    0.6933 C   0  0  0  0  0  0  0  0  0  0  0  0
   13.7290  -23.3210   -0.4279 C   0  0  0  0  0  0  0  0  0  0  0  0
   14.6906  -23.7966   -1.3194 C   0  0  0  0  0  0  0  0  0  0  0  0
   14.1095  -24.5797   -2.2307 N   0  0  0  0  0  0  0  0  0  0  0  0
   12.7986  -24.6454   -1.9821 C   0  0  0  0  0  0  0  0  0  0  0  0
   11.7850  -25.3221   -2.6318 C   0  0  0  0  0  0  0  0  0  0  0  0
   10.5048  -25.2048   -2.1360 C   0  0  0  0  0  0  0  0  0  0  0  0
   10.2324  -24.4449   -1.0349 C   0  0  0  0  0  0  0  0  0  0  0  0
   11.2483  -23.7690   -0.3871 C   0  0  0  0  0  0  0  0  0  0  0  0
   12.5380  -23.8618   -0.8532 C   0  0  0  0  0  0  0  0  0  0  0  0
   14.3987  -20.1280    1.5129 C   0  0  0  0  0  0  0  0  0  0  0  0
   15.5031  -20.0784    2.1120 O   0  0  0  0  0  0  0  0  0  0  0  0
   13.3266  -19.3497    2.0230 N   0  0  0  0  0  0  0  0  0  0  0  0
   13.4578  -18.5743    3.2175 C   0  0  1  0  0  0  0  0  0  0  0  0
   12.3146  -17.5777    3.3999 C   0  0  0  0  0  0  0  0  0  0  0  0
   12.6379  -16.1897    2.2776 S   0  0  0  0  0  0  0  0  0  0  0  0
   13.5948  -19.4295    4.4336 C   0  0  0  0  0  0  0  0  0  0  0  0
   13.1248  -20.5944    4.4618 O   0  0  0  0  0  0  0  0  0  0  0  0
   16.2220  -23.0614    7.4439 C   0  0  0  0  0  0  0  0  0  0  0  0
   15.4215  -21.8292    7.8082 C   0  0  0  0  0  0  0  0  0  0  0  0
   15.2976  -20.9661    6.5640 C   0  0  2  0  0  0  0  0  0  0  0  0
   16.6589  -20.3701    6.2700 C   0  0  0  0  0  0  0  0  0  0  0  0
   14.3282  -19.8246    6.7863 C   0  0  2  0  0  0  0  0  0  0  0  0
   14.2576  -18.9672    5.6020 N   0  0  0  0  0  0  0  0  0  0  0  0
   14.7835  -19.0614    7.9678 C   0  0  0  0  0  0  0  0  0  0  0  0
   14.5501  -19.4798    9.1210 O   0  0  0  0  0  0  0  0  0  0  0  0
   15.4740  -17.8747    7.8179 O   0  0  0  0  0  0  0  0  0  0  0  0
  2  1  1  1
  2 13  1  0
  3  4  1  0
  3  2  1  0
  4 12  1  0
  5  4  2  0
  5  6  1  0
  6  7  1  0
  7  8  1  0
  8  9  2  0
 10  9  1  0
 11 10  2  0
 12  7  2  0
 12 11  1  0
 13 14  2  0
 15 13  1  0
 15 16  1  0
 16 17  1  1
 17 18  1  0
 19 16  1  0
 19 20  2  0
 21 22  1  0
 23 22  1  0
 23 25  1  0
 23 24  1  1
 25 26  1  6
 26 19  1  0
 27 25  1  0
 28 27  2  0
 29 27  1  0
M  END
$$$$
