WCI.pdb
     RDKit          3D

 29 30  0  0  1  0  0  0  0  0999 V2000
   17.3700  -22.8339  -12.7620 N   0  0  0  0  0  0  0  0  0  0  0  0
   16.3532  -23.7081  -12.2773 C   0  0  1  0  0  0  0  0  0  0  0  0
   16.5428  -25.1623  -12.6200 C   0  0  0  0  0  0  0  0  0  0  0  0
   16.4952  -25.4743  -14.0459 C   0  0  0  0  0  0  0  0  0  0  0  0
   17.5702  -25.3670  -14.9284 C   0  0  0  0  0  0  0  0  0  0  0  0
   17.1789  -25.7131  -16.1566 N   0  0  0  0  0  0  0  0  0  0  0  0
   15.8858  -26.0471  -16.1281 C   0  0  0  0  0  0  0  0  0  0  0  0
   15.0367  -26.4727  -17.1308 C   0  0  0  0  0  0  0  0  0  0  0  0
   13.7297  -26.7546  -16.7981 C   0  0  0  0  0  0  0  0  0  0  0  0
   13.2742  -26.6215  -15.5179 C   0  0  0  0  0  0  0  0  0  0  0  0
   14.1258  -26.1957  -14.5169 C   0  0  0  0  0  0  0  0  0  0  0  0
   15.4365  -25.9045  -14.8113 C   0  0  0  0  0  0  0  0  0  0  0  0
   16.1046  -23.5219  -10.8254 C   0  0  0  0  0  0  0  0  0  0  0  0
   16.9896  -22.9503  -10.1392 O   0  0  0  0  0  0  0  0  0  0  0  0
   14.9232  -23.9528  -10.1665 N   0  0  0  0  0  0  0  0  0  0  0  0
   14.6898  -23.6836   -8.7815 C   0  0  1  0  0  0  0  0  0  0  0  0
   13.3953  -22.9086   -8.5432 C   0  0  0  0  0  0  0  0  0  0  0  0
   13.3606  -22.4632   -6.7851 S   0  0  0  0  0  0  0  0  0  0  0  0
   14.7062  -24.9263   -7.9541 C   0  0  0  0  0  0  0  0  0  0  0  0
   14.2243  -26.0012   -8.3914 O   0  0  0  0  0  0  0  0  0  0  0  0
   18.4943  -25.8885   -4.0145 C   0  0  0  0  0  0  0  0  0  0  0  0
   17.5731  -26.0546   -5.2042 C   0  0  0  0  0  0  0  0  0  0  0  0
   16.1462  -26.1210   -4.6865 C   0  0  2  0  0  0  0  0  0  0  0  0
   15.9934  -27.4053   -3.8978 C   0  0  0  0  0  0  0  0  0  0  0  0
   15.1526  -26.1554   -5.8283 C   0  0  2  0  0  0  0  0  0  0  0  0
   15.2631  -24.9473   -6.6474 N   0  0  0  0  0  0  0  0  0  0  0  0
   13.7974  -26.2838   -5.2516 C   0  0  0  0  0  0  0  0  0  0  0  0
   13.1794  -27.3668   -5.3203 O   0  0  0  0  0  0  0  0  0  0  0  0
   13.1918  -25.2108   -4.6276 O   0  0  0  0  0  0  0  0  0  0  0  0
  2  1  1  1
  2 13  1  0
  3  4  1  0
  3  2  1  0
  4 12  1  0
  5  4  2  0
  5  6  1  0
  6  7  1  0
  7  8  1  0
  8  9  2  0
 10  9  1  0
 11 10  2  0
 12  7  2  0
 12 11  1  0
 13 14  2  0
 15 13  1  0
 15 16  1  0
 16 17  1  6
 17 18  1  0
 19 16  1  0
 19 20  2  0
 21 22  1  0
 23 22  1  0
 23 25  1  0
 23 24  1  6
 25 26  1  1
 26 19  1  0
 27 25  1  0
 28 27  2  0
 29 27  1  0
M  END
$$$$
