WCI.pdb
     RDKit          3D

 29 30  0  0  1  0  0  0  0  0999 V2000
   26.3912  -19.2640  -11.8443 N   0  0  0  0  0  0  0  0  0  0  0  0
   26.2454  -20.6800  -11.7630 C   0  0  1  0  0  0  0  0  0  0  0  0
   25.8087  -21.2022  -10.4196 C   0  0  0  0  0  0  0  0  0  0  0  0
   26.5883  -20.7184   -9.2834 C   0  0  0  0  0  0  0  0  0  0  0  0
   26.0837  -19.9595   -8.2274 C   0  0  0  0  0  0  0  0  0  0  0  0
   27.0662  -19.6736   -7.3704 N   0  0  0  0  0  0  0  0  0  0  0  0
   28.2059  -20.2121   -7.8129 C   0  0  0  0  0  0  0  0  0  0  0  0
   29.4813  -20.1982   -7.2831 C   0  0  0  0  0  0  0  0  0  0  0  0
   30.4769  -20.8564   -7.9714 C   0  0  0  0  0  0  0  0  0  0  0  0
   30.2236  -21.5076   -9.1445 C   0  0  0  0  0  0  0  0  0  0  0  0
   28.9468  -21.5198   -9.6720 C   0  0  0  0  0  0  0  0  0  0  0  0
   27.9281  -20.8735   -9.0136 C   0  0  0  0  0  0  0  0  0  0  0  0
   25.3938  -21.2156  -12.8551 C   0  0  0  0  0  0  0  0  0  0  0  0
   24.4800  -20.4818  -13.3106 O   0  0  0  0  0  0  0  0  0  0  0  0
   25.5522  -22.5105  -13.4151 N   0  0  0  0  0  0  0  0  0  0  0  0
   24.6279  -23.0386  -14.3700 C   0  0  1  0  0  0  0  0  0  0  0  0
   25.0459  -24.4102  -14.8965 C   0  0  0  0  0  0  0  0  0  0  0  0
   23.7967  -24.9146  -16.1112 S   0  0  0  0  0  0  0  0  0  0  0  0
   23.2347  -23.0942  -13.8365 C   0  0  0  0  0  0  0  0  0  0  0  0
   22.9814  -23.6663  -12.7469 O   0  0  0  0  0  0  0  0  0  0  0  0
   19.5192  -20.2416  -11.0652 C   0  0  0  0  0  0  0  0  0  0  0  0
   19.4311  -21.2482  -12.1925 C   0  0  0  0  0  0  0  0  0  0  0  0
   20.8059  -21.3600  -12.8295 C   0  0  2  0  0  0  0  0  0  0  0  0
   21.1216  -20.0375  -13.4975 C   0  0  0  0  0  0  0  0  0  0  0  0
   20.8279  -22.4359  -13.8944 C   0  0  2  0  0  0  0  0  0  0  0  0
   22.1437  -22.5070  -14.5316 N   0  0  0  0  0  0  0  0  0  0  0  0
   19.7751  -22.1218  -14.8837 C   0  0  0  0  0  0  0  0  0  0  0  0
   18.5690  -22.1794  -14.5655 O   0  0  0  0  0  0  0  0  0  0  0  0
   20.1059  -21.7596  -16.1748 O   0  0  0  0  0  0  0  0  0  0  0  0
  2  1  1  1
  2 13  1  0
  3  4  1  0
  3  2  1  0
  4 12  1  0
  5  4  2  0
  5  6  1  0
  6  7  1  0
  7  8  1  0
  8  9  2  0
 10  9  1  0
 11 10  2  0
 12  7  2  0
 12 11  1  0
 13 14  2  0
 15 13  1  0
 15 16  1  0
 16 17  1  1
 17 18  1  0
 19 16  1  0
 19 20  2  0
 21 22  1  0
 23 22  1  0
 23 25  1  0
 23 24  1  6
 25 26  1  6
 26 19  1  0
 27 25  1  0
 28 27  2  0
 29 27  1  0
M  END
$$$$
