WCI.pdb
     RDKit          3D

 29 30  0  0  1  0  0  0  0  0999 V2000
   24.2929  -18.1862  -15.5550 N   0  0  0  0  0  0  0  0  0  0  0  0
   25.4226  -18.4587  -14.7290 C   0  0  1  0  0  0  0  0  0  0  0  0
   26.1837  -17.2448  -14.2650 C   0  0  0  0  0  0  0  0  0  0  0  0
   26.7950  -16.4525  -15.3287 C   0  0  0  0  0  0  0  0  0  0  0  0
   26.4819  -15.1256  -15.6237 C   0  0  0  0  0  0  0  0  0  0  0  0
   27.2116  -14.7124  -16.6620 N   0  0  0  0  0  0  0  0  0  0  0  0
   27.9990  -15.7111  -17.0711 C   0  0  0  0  0  0  0  0  0  0  0  0
   28.9253  -15.7752  -18.0935 C   0  0  0  0  0  0  0  0  0  0  0  0
   29.6043  -16.9594  -18.2804 C   0  0  0  0  0  0  0  0  0  0  0  0
   29.3777  -18.0457  -17.4849 C   0  0  0  0  0  0  0  0  0  0  0  0
   28.4506  -17.9786  -16.4629 C   0  0  0  0  0  0  0  0  0  0  0  0
   27.7534  -16.8139  -16.2467 C   0  0  0  0  0  0  0  0  0  0  0  0
   25.0791  -19.3497  -13.5921 C   0  0  0  0  0  0  0  0  0  0  0  0
   24.0893  -19.0476  -12.8781 O   0  0  0  0  0  0  0  0  0  0  0  0
   25.8052  -20.5249  -13.2644 N   0  0  0  0  0  0  0  0  0  0  0  0
   25.6127  -21.2104  -12.0242 C   0  0  1  0  0  0  0  0  0  0  0  0
   25.9643  -22.6943  -12.1120 C   0  0  0  0  0  0  0  0  0  0  0  0
   25.6850  -23.4031  -10.4657 S   0  0  0  0  0  0  0  0  0  0  0  0
   26.3606  -20.5691  -10.9025 C   0  0  0  0  0  0  0  0  0  0  0  0
   27.5996  -20.3748  -10.9784 O   0  0  0  0  0  0  0  0  0  0  0  0
   28.0679  -17.2933   -7.6097 C   0  0  0  0  0  0  0  0  0  0  0  0
   27.8097  -18.5882   -8.3502 C   0  0  0  0  0  0  0  0  0  0  0  0
   26.6979  -19.3285   -7.6261 C   0  0  2  0  0  0  0  0  0  0  0  0
   27.2420  -19.8049   -6.2950 C   0  0  0  0  0  0  0  0  0  0  0  0
   26.2529  -20.5455   -8.4091 C   0  0  2  0  0  0  0  0  0  0  0  0
   25.7091  -20.1537   -9.7104 N   0  0  0  0  0  0  0  0  0  0  0  0
   25.2403  -21.2619   -7.6045 C   0  0  0  0  0  0  0  0  0  0  0  0
   24.0534  -21.3225   -7.9878 O   0  0  0  0  0  0  0  0  0  0  0  0
   25.5882  -21.8759   -6.4173 O   0  0  0  0  0  0  0  0  0  0  0  0
  2  1  1  1
  2 13  1  0
  3  4  1  0
  3  2  1  0
  4 12  1  0
  5  4  2  0
  5  6  1  0
  6  7  1  0
  7  8  1  0
  8  9  2  0
 10  9  1  0
 11 10  2  0
 12  7  2  0
 12 11  1  0
 13 14  2  0
 15 13  1  0
 15 16  1  0
 16 17  1  6
 17 18  1  0
 19 16  1  0
 19 20  2  0
 21 22  1  0
 23 22  1  0
 23 25  1  0
 23 24  1  1
 25 26  1  6
 26 19  1  0
 27 25  1  0
 28 27  2  0
 29 27  1  0
M  END
$$$$
