WCI.pdb
     RDKit          3D

 29 30  0  0  1  0  0  0  0  0999 V2000
   26.3404  -19.6182  -11.7700 N   0  0  0  0  0  0  0  0  0  0  0  0
   25.5773  -20.7998  -11.5367 C   0  0  1  0  0  0  0  0  0  0  0  0
   25.7261  -21.3965  -10.1620 C   0  0  0  0  0  0  0  0  0  0  0  0
   27.0741  -21.3374   -9.6032 C   0  0  0  0  0  0  0  0  0  0  0  0
   28.1787  -22.0339  -10.0937 C   0  0  0  0  0  0  0  0  0  0  0  0
   29.2482  -21.7664   -9.3414 N   0  0  0  0  0  0  0  0  0  0  0  0
   28.9007  -20.9190   -8.3689 C   0  0  0  0  0  0  0  0  0  0  0  0
   29.6439  -20.3501   -7.3532 C   0  0  0  0  0  0  0  0  0  0  0  0
   29.0055  -19.4924   -6.4843 C   0  0  0  0  0  0  0  0  0  0  0  0
   27.6770  -19.2045   -6.6124 C   0  0  0  0  0  0  0  0  0  0  0  0
   26.9361  -19.7750   -7.6293 C   0  0  0  0  0  0  0  0  0  0  0  0
   27.5388  -20.6361   -8.5150 C   0  0  0  0  0  0  0  0  0  0  0  0
   24.1482  -20.6198  -11.8972 C   0  0  0  0  0  0  0  0  0  0  0  0
   23.4251  -19.9299  -11.1343 O   0  0  0  0  0  0  0  0  0  0  0  0
   23.5507  -21.1828  -13.0553 N   0  0  0  0  0  0  0  0  0  0  0  0
   22.1660  -20.9933  -13.3588 C   0  0  1  0  0  0  0  0  0  0  0  0
   21.9230  -20.7022  -14.8385 C   0  0  0  0  0  0  0  0  0  0  0  0
   20.1580  -20.3253  -15.0212 S   0  0  0  0  0  0  0  0  0  0  0  0
   21.3279  -22.1468  -12.9161 C   0  0  0  0  0  0  0  0  0  0  0  0
   21.6822  -23.3301  -13.1462 O   0  0  0  0  0  0  0  0  0  0  0  0
   19.7481  -23.4077   -8.1430 C   0  0  0  0  0  0  0  0  0  0  0  0
   20.1660  -23.3694   -9.5975 C   0  0  0  0  0  0  0  0  0  0  0  0
   18.9193  -23.1499  -10.4377 C   0  0  2  0  0  0  0  0  0  0  0  0
   17.9851  -24.3194  -10.2040 C   0  0  0  0  0  0  0  0  0  0  0  0
   19.2558  -23.1111  -11.9133 C   0  0  2  0  0  0  0  0  0  0  0  0
   20.1035  -21.9581  -12.2209 N   0  0  0  0  0  0  0  0  0  0  0  0
   17.9872  -23.0544  -12.6704 C   0  0  0  0  0  0  0  0  0  0  0  0
   17.3280  -21.9951  -12.7241 O   0  0  0  0  0  0  0  0  0  0  0  0
   17.5093  -24.1694  -13.3306 O   0  0  0  0  0  0  0  0  0  0  0  0
  2  1  1  1
  2 13  1  0
  3  4  1  0
  3  2  1  0
  4 12  1  0
  5  4  2  0
  5  6  1  0
  6  7  1  0
  7  8  1  0
  8  9  2  0
 10  9  1  0
 11 10  2  0
 12  7  2  0
 12 11  1  0
 13 14  2  0
 15 13  1  0
 15 16  1  0
 16 17  1  6
 17 18  1  0
 19 16  1  0
 19 20  2  0
 21 22  1  0
 23 22  1  0
 23 25  1  0
 23 24  1  6
 25 26  1  1
 26 19  1  0
 27 25  1  0
 28 27  2  0
 29 27  1  0
M  END
$$$$
