WCI.pdb
     RDKit          3D

 29 30  0  0  1  0  0  0  0  0999 V2000
   27.8575  -22.4394  -16.7621 N   0  0  0  0  0  0  0  0  0  0  0  0
   27.6953  -23.8362  -16.5263 C   0  0  1  0  0  0  0  0  0  0  0  0
   26.3786  -24.4123  -16.9761 C   0  0  0  0  0  0  0  0  0  0  0  0
   25.2003  -23.8518  -16.3203 C   0  0  0  0  0  0  0  0  0  0  0  0
   24.7568  -22.5358  -16.4523 C   0  0  0  0  0  0  0  0  0  0  0  0
   23.6647  -22.3533  -15.7070 N   0  0  0  0  0  0  0  0  0  0  0  0
   23.3622  -23.4954  -15.0835 C   0  0  0  0  0  0  0  0  0  0  0  0
   22.3344  -23.8107  -14.2164 C   0  0  0  0  0  0  0  0  0  0  0  0
   22.2713  -25.0965  -13.7253 C   0  0  0  0  0  0  0  0  0  0  0  0
   23.1917  -26.0414  -14.0778 C   0  0  0  0  0  0  0  0  0  0  0  0
   24.2187  -25.7231  -14.9453 C   0  0  0  0  0  0  0  0  0  0  0  0
   24.3143  -24.4503  -15.4550 C   0  0  0  0  0  0  0  0  0  0  0  0
   28.8388  -24.6257  -17.0495 C   0  0  0  0  0  0  0  0  0  0  0  0
   29.1366  -24.5066  -18.2652 O   0  0  0  0  0  0  0  0  0  0  0  0
   29.6163  -25.5084  -16.2547 N   0  0  0  0  0  0  0  0  0  0  0  0
   30.7477  -26.2041  -16.7850 C   0  0  1  0  0  0  0  0  0  0  0  0
   32.0466  -25.8500  -16.0635 C   0  0  0  0  0  0  0  0  0  0  0  0
   31.9611  -24.0849  -15.6543 S   0  0  0  0  0  0  0  0  0  0  0  0
   30.5486  -27.6837  -16.7916 C   0  0  0  0  0  0  0  0  0  0  0  0
   29.7358  -28.2308  -16.0050 O   0  0  0  0  0  0  0  0  0  0  0  0
   27.9064  -31.8233  -19.0696 C   0  0  0  0  0  0  0  0  0  0  0  0
   29.3318  -31.6673  -18.5841 C   0  0  0  0  0  0  0  0  0  0  0  0
   29.5934  -30.1865  -18.3669 C   0  0  2  0  0  0  0  0  0  0  0  0
   29.5909  -29.5068  -19.7207 C   0  0  0  0  0  0  0  0  0  0  0  0
   30.9503  -29.9592  -17.7349 C   0  0  2  0  0  0  0  0  0  0  0  0
   31.2635  -28.5304  -17.6806 N   0  0  0  0  0  0  0  0  0  0  0  0
   31.9554  -30.6930  -18.5331 C   0  0  0  0  0  0  0  0  0  0  0  0
   32.1070  -31.9236  -18.3846 O   0  0  0  0  0  0  0  0  0  0  0  0
   32.7427  -30.0323  -19.4556 O   0  0  0  0  0  0  0  0  0  0  0  0
  2  1  1  6
  2 13  1  0
  3  4  1  0
  3  2  1  0
  4 12  1  0
  5  4  2  0
  5  6  1  0
  6  7  1  0
  7  8  1  0
  8  9  2  0
 10  9  1  0
 11 10  2  0
 12  7  2  0
 12 11  1  0
 13 14  2  0
 15 13  1  0
 15 16  1  0
 16 17  1  1
 17 18  1  0
 19 16  1  0
 19 20  2  0
 21 22  1  0
 23 22  1  0
 23 25  1  0
 23 24  1  6
 25 26  1  6
 26 19  1  0
 27 25  1  0
 28 27  2  0
 29 27  1  0
M  END
$$$$
