CSF.pdb
     RDKit          3D

 24 24  0  0  1  0  0  0  0  0999 V2000
    7.1840  -13.3166   18.7361 N   0  0  0  0  0  0  0  0  0  0  0  0
    8.1565  -14.2347   19.3538 C   0  0  1  0  0  0  0  0  0  0  0  0
    9.3963  -13.3785   19.6499 C   0  0  0  0  0  0  0  0  0  0  0  0
    8.9888  -11.9685   20.6727 S   0  0  0  0  0  0  0  0  0  0  0  0
    7.5179  -14.7548   20.5793 C   0  0  0  0  0  0  0  0  0  0  0  0
    6.6803  -14.1098   21.2596 O   0  0  0  0  0  0  0  0  0  0  0  0
    8.1847  -18.7022   21.8154 O   0  0  0  0  0  0  0  0  0  0  0  0
    6.9640  -18.0900   22.1019 C   0  0  0  0  0  0  0  0  0  0  0  0
    7.2062  -16.5916   22.2692 C   0  0  2  0  0  0  0  0  0  0  0  0
    7.8467  -16.0803   21.0619 N   0  0  0  0  0  0  0  0  0  0  0  0
    8.0435  -16.3508   23.4430 C   0  0  0  0  0  0  0  0  0  0  0  0
    9.2819  -16.0925   23.3462 O   0  0  0  0  0  0  0  0  0  0  0  0
    7.5213  -16.3886   24.7535 N   0  0  0  0  0  0  0  0  0  0  0  0
    8.3776  -16.1936   25.9266 C   0  0  1  0  0  0  0  0  0  0  0  0
    7.5477  -15.5083   26.9922 C   0  0  0  0  0  0  0  0  0  0  0  0
    7.3148  -14.0864   26.6885 C   0  0  0  0  0  0  0  0  0  0  0  0
    6.0289  -13.6097   26.3998 C   0  0  0  0  0  0  0  0  0  0  0  0
    5.7748  -12.2879   26.1282 C   0  0  0  0  0  0  0  0  0  0  0  0
    6.7828  -11.3611   26.1267 C   0  0  0  0  0  0  0  0  0  0  0  0
    8.0560  -11.8097   26.4082 C   0  0  0  0  0  0  0  0  0  0  0  0
    8.3142  -13.1359   26.6816 C   0  0  0  0  0  0  0  0  0  0  0  0
    8.9735  -17.4580   26.3799 C   0  0  0  0  0  0  0  0  0  0  0  0
   10.1070  -17.4332   27.1683 O   0  0  0  0  0  0  0  0  0  0  0  0
    8.4904  -18.5750   26.0747 O   0  0  0  0  0  0  0  0  0  0  0  0
  2  5  1  0
  2  3  1  0
  2  1  1  1
  4  3  1  0
  5  6  2  0
  7  8  1  0
  9  8  1  6
  9 11  1  0
 10  9  1  0
 10  5  1  0
 11 12  2  0
 11 13  1  0
 13 14  1  0
 14 22  1  0
 14 15  1  1
 16 15  1  0
 16 17  2  0
 18 17  1  0
 19 18  2  0
 20 21  2  0
 20 19  1  0
 21 16  1  0
 22 24  2  0
 22 23  1  0
M  END
$$$$
