CSF.pdb
     RDKit          3D

 24 24  0  0  1  0  0  0  0  0999 V2000
    7.8792  -13.8824   17.7488 N   0  0  0  0  0  0  0  0  0  0  0  0
    8.9603  -14.0537   18.7347 C   0  0  1  0  0  0  0  0  0  0  0  0
    9.2433  -12.6465   19.2802 C   0  0  0  0  0  0  0  0  0  0  0  0
    7.8302  -11.9886   20.1581 S   0  0  0  0  0  0  0  0  0  0  0  0
    8.4399  -14.9709   19.7682 C   0  0  0  0  0  0  0  0  0  0  0  0
    7.2174  -15.2044   19.9450 O   0  0  0  0  0  0  0  0  0  0  0  0
   10.9354  -17.7110   21.5743 O   0  0  0  0  0  0  0  0  0  0  0  0
    9.5632  -17.9408   21.4680 C   0  0  0  0  0  0  0  0  0  0  0  0
    8.8389  -16.6070   21.6365 C   0  0  2  0  0  0  0  0  0  0  0  0
    9.3559  -15.6626   20.6517 N   0  0  0  0  0  0  0  0  0  0  0  0
    9.0358  -16.1017   22.9940 C   0  0  0  0  0  0  0  0  0  0  0  0
    9.9829  -15.3104   23.2879 O   0  0  0  0  0  0  0  0  0  0  0  0
    8.1806  -16.4628   24.0569 N   0  0  0  0  0  0  0  0  0  0  0  0
    8.4494  -16.0425   25.4347 C   0  0  1  0  0  0  0  0  0  0  0  0
    7.1240  -15.6774   26.0703 C   0  0  0  0  0  0  0  0  0  0  0  0
    7.0246  -14.2379   26.3641 C   0  0  0  0  0  0  0  0  0  0  0  0
    8.1735  -13.4515   26.5240 C   0  0  0  0  0  0  0  0  0  0  0  0
    8.1163  -12.1040   26.7826 C   0  0  0  0  0  0  0  0  0  0  0  0
    6.9145  -11.4579   26.8982 C   0  0  0  0  0  0  0  0  0  0  0  0
    5.7716  -12.2139   26.7445 C   0  0  0  0  0  0  0  0  0  0  0  0
    5.8258  -13.5666   26.4845 C   0  0  0  0  0  0  0  0  0  0  0  0
    9.1869  -17.0706   26.1819 C   0  0  0  0  0  0  0  0  0  0  0  0
    9.3489  -18.3274   25.6331 O   0  0  0  0  0  0  0  0  0  0  0  0
    9.6807  -16.8522   27.3145 O   0  0  0  0  0  0  0  0  0  0  0  0
  2  5  1  0
  2  3  1  0
  2  1  1  6
  4  3  1  0
  5  6  2  0
  7  8  1  0
  9  8  1  1
  9 11  1  0
 10  9  1  0
 10  5  1  0
 11 12  2  0
 11 13  1  0
 13 14  1  0
 14 22  1  0
 14 15  1  1
 16 15  1  0
 16 17  2  0
 18 17  1  0
 19 18  2  0
 20 21  2  0
 20 19  1  0
 21 16  1  0
 22 24  2  0
 22 23  1  0
M  END
$$$$
