CSF.pdb
     RDKit          3D

 24 24  0  0  1  0  0  0  0  0999 V2000
    7.5083  -14.3515   18.3480 N   0  0  0  0  0  0  0  0  0  0  0  0
    8.3730  -14.0629   19.5052 C   0  0  1  0  0  0  0  0  0  0  0  0
    7.9955  -12.6437   19.9541 C   0  0  0  0  0  0  0  0  0  0  0  0
    8.9804  -11.4084   19.1150 S   0  0  0  0  0  0  0  0  0  0  0  0
    8.0598  -15.0845   20.5242 C   0  0  0  0  0  0  0  0  0  0  0  0
    6.8957  -15.4858   20.7778 O   0  0  0  0  0  0  0  0  0  0  0  0
   10.8261  -17.7358   21.7674 O   0  0  0  0  0  0  0  0  0  0  0  0
    9.4758  -17.9776   22.0231 C   0  0  0  0  0  0  0  0  0  0  0  0
    8.8036  -16.6461   22.3504 C   0  0  2  0  0  0  0  0  0  0  0  0
    9.1250  -15.6854   21.3001 N   0  0  0  0  0  0  0  0  0  0  0  0
    9.2610  -16.1643   23.6525 C   0  0  0  0  0  0  0  0  0  0  0  0
   10.3391  -15.5094   23.7882 O   0  0  0  0  0  0  0  0  0  0  0  0
    8.5271  -16.3974   24.8351 N   0  0  0  0  0  0  0  0  0  0  0  0
    9.0294  -15.9757   26.1455 C   0  0  1  0  0  0  0  0  0  0  0  0
    7.8513  -15.4578   26.9441 C   0  0  0  0  0  0  0  0  0  0  0  0
    7.4308  -14.1151   26.5100 C   0  0  0  0  0  0  0  0  0  0  0  0
    6.1834  -13.9081   25.9056 C   0  0  0  0  0  0  0  0  0  0  0  0
    5.7541  -12.6672   25.5038 C   0  0  0  0  0  0  0  0  0  0  0  0
    6.5383  -11.5582   25.6780 C   0  0  0  0  0  0  0  0  0  0  0  0
    7.7700  -11.7404   26.2708 C   0  0  0  0  0  0  0  0  0  0  0  0
    8.2036  -12.9848   26.6755 C   0  0  0  0  0  0  0  0  0  0  0  0
    9.7573  -17.0582   26.8220 C   0  0  0  0  0  0  0  0  0  0  0  0
   10.6123  -16.7575   27.8638 O   0  0  0  0  0  0  0  0  0  0  0  0
    9.6347  -18.2611   26.4865 O   0  0  0  0  0  0  0  0  0  0  0  0
  2  5  1  0
  2  3  1  0
  2  1  1  6
  4  3  1  0
  5  6  2  0
  7  8  1  0
  9  8  1  6
  9 11  1  0
 10  9  1  0
 10  5  1  0
 11 12  2  0
 11 13  1  0
 13 14  1  0
 14 22  1  0
 14 15  1  1
 16 15  1  0
 16 17  2  0
 18 17  1  0
 19 18  2  0
 20 21  2  0
 20 19  1  0
 21 16  1  0
 22 24  2  0
 22 23  1  0
M  END
$$$$
