CSF.pdb
     RDKit          3D

 24 24  0  0  1  0  0  0  0  0999 V2000
    5.1582  -18.5192   23.1721 N   0  0  0  0  0  0  0  0  0  0  0  0
    6.3556  -19.3117   22.8432 C   0  0  1  0  0  0  0  0  0  0  0  0
    5.8650  -20.4241   21.9052 C   0  0  0  0  0  0  0  0  0  0  0  0
    4.3429  -21.1546   22.4965 S   0  0  0  0  0  0  0  0  0  0  0  0
    7.2992  -18.3866   22.1845 C   0  0  0  0  0  0  0  0  0  0  0  0
    8.3512  -18.7564   21.6039 O   0  0  0  0  0  0  0  0  0  0  0  0
    6.6564  -14.2002   21.9612 O   0  0  0  0  0  0  0  0  0  0  0  0
    7.7927  -14.7890   21.4051 C   0  0  0  0  0  0  0  0  0  0  0  0
    8.1501  -16.0201   22.2349 C   0  0  2  0  0  0  0  0  0  0  0  0
    7.0369  -16.9621   22.1835 N   0  0  0  0  0  0  0  0  0  0  0  0
    8.4336  -15.6259   23.6137 C   0  0  0  0  0  0  0  0  0  0  0  0
    8.1926  -14.4568   24.0436 O   0  0  0  0  0  0  0  0  0  0  0  0
    8.9897  -16.5251   24.5484 N   0  0  0  0  0  0  0  0  0  0  0  0
    9.1104  -16.1796   25.9673 C   0  0  1  0  0  0  0  0  0  0  0  0
    7.7293  -15.8140   26.4702 C   0  0  0  0  0  0  0  0  0  0  0  0
    7.4883  -14.3619   26.4311 C   0  0  0  0  0  0  0  0  0  0  0  0
    6.2471  -13.8454   26.0354 C   0  0  0  0  0  0  0  0  0  0  0  0
    5.9840  -12.4980   26.0030 C   0  0  0  0  0  0  0  0  0  0  0  0
    6.9384  -11.5837   26.3614 C   0  0  0  0  0  0  0  0  0  0  0  0
    8.1670  -12.0715   26.7539 C   0  0  0  0  0  0  0  0  0  0  0  0
    8.4339  -13.4235   26.7877 C   0  0  0  0  0  0  0  0  0  0  0  0
    9.7404  -17.2608   26.7376 C   0  0  0  0  0  0  0  0  0  0  0  0
   10.1934  -17.0110   28.0180 O   0  0  0  0  0  0  0  0  0  0  0  0
    9.8884  -18.4172   26.2736 O   0  0  0  0  0  0  0  0  0  0  0  0
  2  5  1  0
  2  3  1  0
  2  1  1  6
  4  3  1  0
  5  6  2  0
  7  8  1  0
  9  8  1  6
  9 11  1  0
 10  9  1  0
 10  5  1  0
 11 12  2  0
 11 13  1  0
 13 14  1  0
 14 22  1  0
 14 15  1  1
 16 15  1  0
 16 17  2  0
 18 17  1  0
 19 18  2  0
 20 21  2  0
 20 19  1  0
 21 16  1  0
 22 24  2  0
 22 23  1  0
M  END
$$$$
