WDA.pdb
     RDKit          3D

 28 29  0  0  1  0  0  0  0  0999 V2000
   28.9028  -21.4915  -10.7831 N   0  0  0  0  0  0  0  0  0  0  0  0
   27.6175  -21.2749  -10.1864 C   0  0  1  0  0  0  0  0  0  0  0  0
   27.5892  -20.1011   -9.2565 C   0  0  0  0  0  0  0  0  0  0  0  0
   28.4852  -20.3694   -8.1124 C   0  0  0  0  0  0  0  0  0  0  0  0
   29.7132  -20.9890   -8.1340 C   0  0  0  0  0  0  0  0  0  0  0  0
   30.2108  -21.0856   -6.8996 N   0  0  0  0  0  0  0  0  0  0  0  0
   29.3064  -20.5255   -6.0556 C   0  0  0  0  0  0  0  0  0  0  0  0
   29.3243  -20.3565   -4.6916 C   0  0  0  0  0  0  0  0  0  0  0  0
   28.2685  -19.7380   -4.0642 C   0  0  0  0  0  0  0  0  0  0  0  0
   27.1833  -19.2804   -4.7848 C   0  0  0  0  0  0  0  0  0  0  0  0
   27.1670  -19.4525   -6.1661 C   0  0  0  0  0  0  0  0  0  0  0  0
   28.2178  -20.0701   -6.7989 C   0  0  0  0  0  0  0  0  0  0  0  0
   26.6127  -20.9812  -11.2723 C   0  0  0  0  0  0  0  0  0  0  0  0
   26.8526  -20.0688  -12.1087 O   0  0  0  0  0  0  0  0  0  0  0  0
   25.4104  -21.7274  -11.3501 N   0  0  0  0  0  0  0  0  0  0  0  0
   24.5528  -21.4718  -12.5408 C   0  0  1  0  0  0  0  0  0  0  0  0
   24.3990  -22.8477  -13.1598 C   0  0  0  0  0  0  0  0  0  0  0  0
   23.6589  -22.9465  -14.4079 C   0  0  0  0  0  0  0  0  0  0  0  0
   23.1896  -21.9885  -15.0494 O   0  0  0  0  0  0  0  0  0  0  0  0
   23.3036  -20.8573  -12.0942 C   0  0  0  0  0  0  0  0  0  0  0  0
   22.8536  -21.2498  -10.9501 O   0  0  0  0  0  0  0  0  0  0  0  0
   23.4070  -24.2086  -15.0123 O   0  0  0  0  0  0  0  0  0  0  0  0
   20.6460  -18.2748  -12.9281 C   0  0  0  0  0  0  0  0  0  0  0  0
   21.2569  -19.3908  -12.1529 C   0  0  2  0  0  0  0  0  0  0  0  0
   22.5059  -19.8920  -12.7148 N   0  0  0  0  0  0  0  0  0  0  0  0
   20.3057  -20.5403  -12.1416 C   0  0  0  0  0  0  0  0  0  0  0  0
   19.2554  -20.6477  -11.2427 O   0  0  0  0  0  0  0  0  0  0  0  0
   20.4118  -21.4905  -12.9661 O   0  0  0  0  0  0  0  0  0  0  0  0
  2  1  1  6
  2  3  1  0
  2 13  1  0
  3  4  1  0
  4  5  2  0
  5  6  1  0
  7  6  1  0
  8  7  2  0
  9  8  1  0
 10 11  1  0
 10  9  2  0
 11 12  2  0
 12  4  1  0
 12  7  1  0
 13 15  1  0
 13 14  2  0
 15 16  1  0
 16 17  1  1
 18 22  1  0
 18 17  1  0
 19 18  2  0
 20 16  1  0
 20 21  2  0
 24 23  1  6
 24 25  1  0
 25 20  1  0
 26 24  1  0
 27 26  1  0
 28 26  2  0
M  END
$$$$
