WDA.pdb
     RDKit          3D

 28 29  0  0  1  0  0  0  0  0999 V2000
   24.4180  -11.1790  -14.1547 N   0  0  0  0  0  0  0  0  0  0  0  0
   23.2200  -10.9428  -14.9054 C   0  0  1  0  0  0  0  0  0  0  0  0
   22.1651  -11.9808  -14.6746 C   0  0  0  0  0  0  0  0  0  0  0  0
   22.5455  -13.2216  -15.3811 C   0  0  0  0  0  0  0  0  0  0  0  0
   23.5027  -13.3730  -16.3574 C   0  0  0  0  0  0  0  0  0  0  0  0
   23.5384  -14.6361  -16.7865 N   0  0  0  0  0  0  0  0  0  0  0  0
   22.5991  -15.3253  -16.0889 C   0  0  0  0  0  0  0  0  0  0  0  0
   22.2289  -16.6483  -16.1318 C   0  0  0  0  0  0  0  0  0  0  0  0
   21.2361  -17.1092  -15.2994 C   0  0  0  0  0  0  0  0  0  0  0  0
   20.6003  -16.2608  -14.4149 C   0  0  0  0  0  0  0  0  0  0  0  0
   20.9767  -14.9212  -14.3728 C   0  0  0  0  0  0  0  0  0  0  0  0
   21.9668  -14.4543  -15.2021 C   0  0  0  0  0  0  0  0  0  0  0  0
   22.6213   -9.6261  -14.4776 C   0  0  0  0  0  0  0  0  0  0  0  0
   22.5227   -9.3597  -13.2493 O   0  0  0  0  0  0  0  0  0  0  0  0
   22.1756   -8.6973  -15.4509 N   0  0  0  0  0  0  0  0  0  0  0  0
   21.5690   -7.4399  -14.9318 C   0  0  1  0  0  0  0  0  0  0  0  0
   22.5451   -6.3710  -15.3840 C   0  0  0  0  0  0  0  0  0  0  0  0
   22.2522   -4.9934  -15.0210 C   0  0  0  0  0  0  0  0  0  0  0  0
   22.9856   -4.0133  -15.2469 O   0  0  0  0  0  0  0  0  0  0  0  0
   20.2201   -7.3102  -15.4806 C   0  0  0  0  0  0  0  0  0  0  0  0
   19.9562   -8.0308  -16.5182 O   0  0  0  0  0  0  0  0  0  0  0  0
   21.0466   -4.6537  -14.3481 O   0  0  0  0  0  0  0  0  0  0  0  0
   17.5082   -7.9568  -16.2222 C   0  0  0  0  0  0  0  0  0  0  0  0
   17.7926   -6.6455  -15.5745 C   0  0  2  0  0  0  0  0  0  0  0  0
   19.1487   -6.5213  -15.0525 N   0  0  0  0  0  0  0  0  0  0  0  0
   16.8736   -6.4791  -14.4109 C   0  0  0  0  0  0  0  0  0  0  0  0
   17.3201   -6.2874  -13.1122 O   0  0  0  0  0  0  0  0  0  0  0  0
   15.6195   -6.5049  -14.5538 O   0  0  0  0  0  0  0  0  0  0  0  0
  2  1  1  1
  2  3  1  0
  2 13  1  0
  3  4  1  0
  4  5  2  0
  5  6  1  0
  7  6  1  0
  8  7  2  0
  9  8  1  0
 10 11  1  0
 10  9  2  0
 11 12  2  0
 12  4  1  0
 12  7  1  0
 13 15  1  0
 13 14  2  0
 15 16  1  0
 16 17  1  6
 18 22  1  0
 18 17  1  0
 19 18  2  0
 20 16  1  0
 20 21  2  0
 24 23  1  1
 24 25  1  0
 25 20  1  0
 26 24  1  0
 27 26  1  0
 28 26  2  0
M  END
$$$$
