WDA.pdb
     RDKit          3D

 28 29  0  0  1  0  0  0  0  0999 V2000
   27.6872  -22.0482  -11.2523 N   0  0  0  0  0  0  0  0  0  0  0  0
   26.6678  -21.2726  -10.6089 C   0  0  1  0  0  0  0  0  0  0  0  0
   27.1875  -20.0099   -9.9934 C   0  0  0  0  0  0  0  0  0  0  0  0
   28.1927  -20.3516   -8.9656 C   0  0  0  0  0  0  0  0  0  0  0  0
   29.4237  -20.9355   -9.1555 C   0  0  0  0  0  0  0  0  0  0  0  0
   30.0380  -21.1241   -7.9859 N   0  0  0  0  0  0  0  0  0  0  0  0
   29.2083  -20.6613   -7.0157 C   0  0  0  0  0  0  0  0  0  0  0  0
   29.3528  -20.6087   -5.6498 C   0  0  0  0  0  0  0  0  0  0  0  0
   28.3508  -20.0732   -4.8752 C   0  0  0  0  0  0  0  0  0  0  0  0
   27.1943  -19.5838   -5.4489 C   0  0  0  0  0  0  0  0  0  0  0  0
   27.0497  -19.6380   -6.8324 C   0  0  0  0  0  0  0  0  0  0  0  0
   28.0462  -20.1723   -7.6118 C   0  0  0  0  0  0  0  0  0  0  0  0
   25.6441  -20.8550  -11.6350 C   0  0  0  0  0  0  0  0  0  0  0  0
   25.9284  -19.9448  -12.4597 O   0  0  0  0  0  0  0  0  0  0  0  0
   24.3745  -21.4839  -11.6704 N   0  0  0  0  0  0  0  0  0  0  0  0
   23.4859  -21.1098  -12.8059 C   0  0  1  0  0  0  0  0  0  0  0  0
   23.4473  -22.3711  -13.6468 C   0  0  0  0  0  0  0  0  0  0  0  0
   24.5889  -22.6440  -14.5056 C   0  0  0  0  0  0  0  0  0  0  0  0
   24.9307  -21.9670  -15.4928 O   0  0  0  0  0  0  0  0  0  0  0  0
   22.1922  -20.6910  -12.2688 C   0  0  0  0  0  0  0  0  0  0  0  0
   21.7105  -21.4152  -11.3154 O   0  0  0  0  0  0  0  0  0  0  0  0
   25.4365  -23.7600  -14.2652 O   0  0  0  0  0  0  0  0  0  0  0  0
   19.4712  -18.0464  -12.4506 C   0  0  0  0  0  0  0  0  0  0  0  0
   20.1053  -19.3105  -11.9819 C   0  0  2  0  0  0  0  0  0  0  0  0
   21.3800  -19.6105  -12.6240 N   0  0  0  0  0  0  0  0  0  0  0  0
   19.1929  -20.4477  -12.2990 C   0  0  0  0  0  0  0  0  0  0  0  0
   19.4325  -21.3501  -13.3242 O   0  0  0  0  0  0  0  0  0  0  0  0
   18.1371  -20.6489  -11.6365 O   0  0  0  0  0  0  0  0  0  0  0  0
  2  1  1  6
  2  3  1  0
  2 13  1  0
  3  4  1  0
  4  5  2  0
  5  6  1  0
  7  6  1  0
  8  7  2  0
  9  8  1  0
 10 11  1  0
 10  9  2  0
 11 12  2  0
 12  4  1  0
 12  7  1  0
 13 15  1  0
 13 14  2  0
 15 16  1  0
 16 17  1  6
 18 22  1  0
 18 17  1  0
 19 18  2  0
 20 16  1  0
 20 21  2  0
 24 23  1  6
 24 25  1  0
 25 20  1  0
 26 24  1  0
 27 26  1  0
 28 26  2  0
M  END
$$$$
