WDA.pdb
     RDKit          3D

 28 29  0  0  1  0  0  0  0  0999 V2000
   16.0969  -17.9108    2.0554 N   0  0  0  0  0  0  0  0  0  0  0  0
   17.3187  -18.3810    2.6394 C   0  0  1  0  0  0  0  0  0  0  0  0
   18.5069  -17.5456    2.2738 C   0  0  0  0  0  0  0  0  0  0  0  0
   19.1933  -18.1611    1.1190 C   0  0  0  0  0  0  0  0  0  0  0  0
   18.6739  -19.0546    0.2112 C   0  0  0  0  0  0  0  0  0  0  0  0
   19.6047  -19.4185   -0.6730 N   0  0  0  0  0  0  0  0  0  0  0  0
   20.7476  -18.7609   -0.3486 C   0  0  0  0  0  0  0  0  0  0  0  0
   21.9927  -18.7677   -0.9308 C   0  0  0  0  0  0  0  0  0  0  0  0
   22.9986  -17.9907   -0.4059 C   0  0  0  0  0  0  0  0  0  0  0  0
   22.7785  -17.1981    0.7030 C   0  0  0  0  0  0  0  0  0  0  0  0
   21.5168  -17.1925    1.2912 C   0  0  0  0  0  0  0  0  0  0  0  0
   20.5081  -17.9669    0.7726 C   0  0  0  0  0  0  0  0  0  0  0  0
   17.2026  -18.3202    4.1420 C   0  0  0  0  0  0  0  0  0  0  0  0
   17.4484  -17.2376    4.7396 O   0  0  0  0  0  0  0  0  0  0  0  0
   16.8186  -19.4719    4.8732 N   0  0  0  0  0  0  0  0  0  0  0  0
   16.6624  -19.2961    6.3441 C   0  0  1  0  0  0  0  0  0  0  0  0
   15.2375  -19.7489    6.5985 C   0  0  0  0  0  0  0  0  0  0  0  0
   14.2081  -18.7243    6.6749 C   0  0  0  0  0  0  0  0  0  0  0  0
   12.9818  -18.9223    6.5934 O   0  0  0  0  0  0  0  0  0  0  0  0
   17.6876  -20.0884    7.0213 C   0  0  0  0  0  0  0  0  0  0  0  0
   18.1267  -21.1186    6.3797 O   0  0  0  0  0  0  0  0  0  0  0  0
   14.5485  -17.3559    6.8567 O   0  0  0  0  0  0  0  0  0  0  0  0
   19.7625  -20.4156   10.1882 C   0  0  0  0  0  0  0  0  0  0  0  0
   19.2806  -20.8085    8.8344 C   0  0  2  0  0  0  0  0  0  0  0  0
   18.2839  -19.9045    8.2718 N   0  0  0  0  0  0  0  0  0  0  0  0
   18.6316  -22.1486    8.9296 C   0  0  0  0  0  0  0  0  0  0  0  0
   17.3334  -22.3331    9.3808 O   0  0  0  0  0  0  0  0  0  0  0  0
   19.2439  -23.2016    8.5975 O   0  0  0  0  0  0  0  0  0  0  0  0
  2  1  1  6
  2  3  1  0
  2 13  1  0
  3  4  1  0
  4  5  2  0
  5  6  1  0
  7  6  1  0
  8  7  2  0
  9  8  1  0
 10 11  1  0
 10  9  2  0
 11 12  2  0
 12  4  1  0
 12  7  1  0
 13 15  1  0
 13 14  2  0
 15 16  1  0
 16 17  1  1
 18 22  1  0
 18 17  1  0
 19 18  2  0
 20 16  1  0
 20 21  2  0
 24 23  1  1
 24 25  1  0
 25 20  1  0
 26 24  1  0
 27 26  1  0
 28 26  2  0
M  END
$$$$
