WDA.pdb
     RDKit          3D

 28 29  0  0  1  0  0  0  0  0999 V2000
   26.7436  -22.9646  -12.5761 N   0  0  0  0  0  0  0  0  0  0  0  0
   25.9798  -21.9463  -11.9169 C   0  0  1  0  0  0  0  0  0  0  0  0
   26.6984  -20.6353  -11.8270 C   0  0  0  0  0  0  0  0  0  0  0  0
   27.7936  -20.7512  -10.8418 C   0  0  0  0  0  0  0  0  0  0  0  0
   29.0972  -21.1239  -11.0743 C   0  0  0  0  0  0  0  0  0  0  0  0
   29.7878  -21.1495   -9.9328 N   0  0  0  0  0  0  0  0  0  0  0  0
   28.9357  -20.7906   -8.9382 C   0  0  0  0  0  0  0  0  0  0  0  0
   29.1313  -20.6501   -7.5850 C   0  0  0  0  0  0  0  0  0  0  0  0
   28.0881  -20.2583   -6.7792 C   0  0  0  0  0  0  0  0  0  0  0  0
   26.8392  -20.0017   -7.3089 C   0  0  0  0  0  0  0  0  0  0  0  0
   26.6430  -20.1447   -8.6797 C   0  0  0  0  0  0  0  0  0  0  0  0
   27.6804  -20.5364   -9.4899 C   0  0  0  0  0  0  0  0  0  0  0  0
   24.7198  -21.6872  -12.7045 C   0  0  0  0  0  0  0  0  0  0  0  0
   24.6565  -22.0503  -13.9102 O   0  0  0  0  0  0  0  0  0  0  0  0
   23.6171  -21.0419  -12.0910 N   0  0  0  0  0  0  0  0  0  0  0  0
   22.3279  -21.0912  -12.8354 C   0  0  1  0  0  0  0  0  0  0  0  0
   21.2904  -21.1381  -11.7304 C   0  0  0  0  0  0  0  0  0  0  0  0
   19.8960  -21.2749  -12.1203 C   0  0  0  0  0  0  0  0  0  0  0  0
   19.4699  -21.2983  -13.2897 O   0  0  0  0  0  0  0  0  0  0  0  0
   22.2450  -19.9187  -13.7049 C   0  0  0  0  0  0  0  0  0  0  0  0
   22.4324  -18.7749  -13.1372 O   0  0  0  0  0  0  0  0  0  0  0  0
   18.8705  -21.3971  -11.1430 O   0  0  0  0  0  0  0  0  0  0  0  0
   22.3495  -18.7062  -17.2504 C   0  0  0  0  0  0  0  0  0  0  0  0
   21.9588  -18.5791  -15.8184 C   0  0  2  0  0  0  0  0  0  0  0  0
   21.9961  -19.8348  -15.0776 N   0  0  0  0  0  0  0  0  0  0  0  0
   20.5515  -18.0881  -15.7498 C   0  0  0  0  0  0  0  0  0  0  0  0
   19.4891  -18.8825  -15.3462 O   0  0  0  0  0  0  0  0  0  0  0  0
   20.2524  -16.9018  -16.0617 O   0  0  0  0  0  0  0  0  0  0  0  0
  2  1  1  6
  2  3  1  0
  2 13  1  0
  3  4  1  0
  4  5  2  0
  5  6  1  0
  7  6  1  0
  8  7  2  0
  9  8  1  0
 10 11  1  0
 10  9  2  0
 11 12  2  0
 12  4  1  0
 12  7  1  0
 13 15  1  0
 13 14  2  0
 15 16  1  0
 16 17  1  1
 18 22  1  0
 18 17  1  0
 19 18  2  0
 20 16  1  0
 20 21  2  0
 24 23  1  6
 24 25  1  0
 25 20  1  0
 26 24  1  0
 27 26  1  0
 28 26  2  0
M  END
$$$$
