WDA.pdb
     RDKit          3D

 28 29  0  0  1  0  0  0  0  0999 V2000
   26.0852  -18.9318   -9.9862 N   0  0  0  0  0  0  0  0  0  0  0  0
   26.1370  -20.1120  -10.7982 C   0  0  1  0  0  0  0  0  0  0  0  0
   26.3737  -21.3619  -10.0076 C   0  0  0  0  0  0  0  0  0  0  0  0
   27.5130  -21.1457   -9.0917 C   0  0  0  0  0  0  0  0  0  0  0  0
   27.4935  -20.5492   -7.8523 C   0  0  0  0  0  0  0  0  0  0  0  0
   28.7233  -20.4998   -7.3368 N   0  0  0  0  0  0  0  0  0  0  0  0
   29.5623  -21.0680   -8.2408 C   0  0  0  0  0  0  0  0  0  0  0  0
   30.9201  -21.2789   -8.2083 C   0  0  0  0  0  0  0  0  0  0  0  0
   31.5430  -21.8960   -9.2676 C   0  0  0  0  0  0  0  0  0  0  0  0
   30.8238  -22.3107  -10.3708 C   0  0  0  0  0  0  0  0  0  0  0  0
   29.4486  -22.0963  -10.4019 C   0  0  0  0  0  0  0  0  0  0  0  0
   28.8205  -21.4797   -9.3476 C   0  0  0  0  0  0  0  0  0  0  0  0
   24.8096  -20.2926  -11.4912 C   0  0  0  0  0  0  0  0  0  0  0  0
   23.7524  -19.9227  -10.9123 O   0  0  0  0  0  0  0  0  0  0  0  0
   24.7544  -20.8722  -12.7834 N   0  0  0  0  0  0  0  0  0  0  0  0
   23.4935  -20.6593  -13.5472 C   0  0  1  0  0  0  0  0  0  0  0  0
   23.9844  -20.3464  -14.9475 C   0  0  0  0  0  0  0  0  0  0  0  0
   24.0382  -18.9488  -15.3464 C   0  0  0  0  0  0  0  0  0  0  0  0
   23.0533  -18.2191  -15.5633 O   0  0  0  0  0  0  0  0  0  0  0  0
   22.6728  -21.8645  -13.4401 C   0  0  0  0  0  0  0  0  0  0  0  0
   23.3076  -22.9880  -13.4513 O   0  0  0  0  0  0  0  0  0  0  0  0
   25.2830  -18.2857  -15.5260 O   0  0  0  0  0  0  0  0  0  0  0  0
   19.1805  -23.2109  -12.8568 C   0  0  0  0  0  0  0  0  0  0  0  0
   20.5954  -23.2832  -13.3179 C   0  0  2  0  0  0  0  0  0  0  0  0
   21.2868  -21.9991  -13.3203 N   0  0  0  0  0  0  0  0  0  0  0  0
   20.6135  -23.7769  -14.7258 C   0  0  0  0  0  0  0  0  0  0  0  0
   20.4892  -25.1164  -15.0621 O   0  0  0  0  0  0  0  0  0  0  0  0
   20.7452  -22.9843  -15.6996 O   0  0  0  0  0  0  0  0  0  0  0  0
  2  1  1  1
  2  3  1  0
  2 13  1  0
  3  4  1  0
  4  5  2  0
  5  6  1  0
  7  6  1  0
  8  7  2  0
  9  8  1  0
 10 11  1  0
 10  9  2  0
 11 12  2  0
 12  4  1  0
 12  7  1  0
 13 15  1  0
 13 14  2  0
 15 16  1  0
 16 17  1  6
 18 22  1  0
 18 17  1  0
 19 18  2  0
 20 16  1  0
 20 21  2  0
 24 23  1  6
 24 25  1  0
 25 20  1  0
 26 24  1  0
 27 26  1  0
 28 26  2  0
M  END
$$$$
