WDA.pdb
     RDKit          3D

 28 29  0  0  1  0  0  0  0  0999 V2000
   15.9389  -16.6274    5.3210 N   0  0  0  0  0  0  0  0  0  0  0  0
   17.1206  -16.6470    6.1321 C   0  0  1  0  0  0  0  0  0  0  0  0
   17.2002  -15.4954    7.0864 C   0  0  0  0  0  0  0  0  0  0  0  0
   17.7271  -14.3129    6.3738 C   0  0  0  0  0  0  0  0  0  0  0  0
   17.1046  -13.5765    5.3928 C   0  0  0  0  0  0  0  0  0  0  0  0
   17.9061  -12.6018    4.9590 N   0  0  0  0  0  0  0  0  0  0  0  0
   19.0666  -12.6934    5.6581 C   0  0  0  0  0  0  0  0  0  0  0  0
   20.2137  -11.9374    5.6120 C   0  0  0  0  0  0  0  0  0  0  0  0
   21.2647  -12.2358    6.4470 C   0  0  0  0  0  0  0  0  0  0  0  0
   21.1877  -13.2882    7.3373 C   0  0  0  0  0  0  0  0  0  0  0  0
   20.0252  -14.0528    7.3826 C   0  0  0  0  0  0  0  0  0  0  0  0
   18.9722  -13.7607    6.5508 C   0  0  0  0  0  0  0  0  0  0  0  0
   17.1198  -17.8980    6.9748 C   0  0  0  0  0  0  0  0  0  0  0  0
   16.1300  -18.1460    7.7153 O   0  0  0  0  0  0  0  0  0  0  0  0
   18.2233  -18.7862    6.9313 N   0  0  0  0  0  0  0  0  0  0  0  0
   18.1780  -19.9392    7.8731 C   0  0  1  0  0  0  0  0  0  0  0  0
   18.4067  -21.1352    6.9691 C   0  0  0  0  0  0  0  0  0  0  0  0
   18.4869  -22.4464    7.5933 C   0  0  0  0  0  0  0  0  0  0  0  0
   19.4164  -23.2617    7.4486 O   0  0  0  0  0  0  0  0  0  0  0  0
   19.1988  -19.7436    8.9013 C   0  0  0  0  0  0  0  0  0  0  0  0
   20.3376  -19.2930    8.4940 O   0  0  0  0  0  0  0  0  0  0  0  0
   17.4564  -22.9117    8.4553 O   0  0  0  0  0  0  0  0  0  0  0  0
   19.9681  -19.7869   12.6037 C   0  0  0  0  0  0  0  0  0  0  0  0
   20.3020  -19.9240   11.1582 C   0  0  2  0  0  0  0  0  0  0  0  0
   19.1384  -19.9649   10.2799 N   0  0  0  0  0  0  0  0  0  0  0  0
   21.0305  -21.2104   10.9569 C   0  0  0  0  0  0  0  0  0  0  0  0
   22.3030  -21.4480   11.4538 O   0  0  0  0  0  0  0  0  0  0  0  0
   20.5144  -22.1651   10.3117 O   0  0  0  0  0  0  0  0  0  0  0  0
  2  1  1  1
  2  3  1  0
  2 13  1  0
  3  4  1  0
  4  5  2  0
  5  6  1  0
  7  6  1  0
  8  7  2  0
  9  8  1  0
 10 11  1  0
 10  9  2  0
 11 12  2  0
 12  4  1  0
 12  7  1  0
 13 15  1  0
 13 14  2  0
 15 16  1  0
 16 17  1  6
 18 22  1  0
 18 17  1  0
 19 18  2  0
 20 16  1  0
 20 21  2  0
 24 23  1  1
 24 25  1  0
 25 20  1  0
 26 24  1  0
 27 26  1  0
 28 26  2  0
M  END
$$$$
