NME.pdb
     RDKit          3D

 26 25  0  0  1  0  0  0  0  0999 V2000
   20.1320  -21.4292  -13.8975 N   0  0  0  0  0  0  0  0  0  0  0  0
   20.3677  -20.5442  -15.0064 C   0  0  0  0  0  0  0  0  0  0  0  0
   20.0787  -20.9337  -16.1547 O   0  0  0  0  0  0  0  0  0  0  0  0
   20.9422  -19.2236  -14.6992 C   0  0  0  0  0  0  0  0  0  0  0  0
   22.0136  -18.7715  -15.6163 C   0  0  2  0  0  0  0  0  0  0  0  0
   23.1500  -19.7021  -15.4122 N   0  0  0  0  0  0  0  0  0  0  0  0
   22.5435  -17.4257  -15.4150 C   0  0  0  0  0  0  0  0  0  0  0  0
   21.8439  -16.5475  -14.8745 O   0  0  0  0  0  0  0  0  0  0  0  0
   28.7434  -12.3894  -15.9301 C   0  0  0  0  0  0  0  0  0  0  0  0
   28.1621  -14.1025  -15.9037 S   0  0  0  0  0  0  0  0  0  0  0  0
   26.3813  -14.2207  -15.7634 C   0  0  0  0  0  0  0  0  0  0  0  0
   25.8638  -15.6344  -15.7447 C   0  0  0  0  0  0  0  0  0  0  0  0
   24.3772  -15.7109  -15.7194 C   0  0  2  0  0  0  0  0  0  0  0  0
   23.8777  -17.0680  -15.8307 N   0  0  0  0  0  0  0  0  0  0  0  0
   23.8570  -14.9658  -16.8983 C   0  0  0  0  0  0  0  0  0  0  0  0
   23.9007  -15.4745  -18.0614 O   0  0  0  0  0  0  0  0  0  0  0  0
   23.3067  -13.6734  -16.7139 N   0  0  0  0  0  0  0  0  0  0  0  0
   22.8416  -12.9409  -17.8670 C   0  0  1  0  0  0  0  0  0  0  0  0
   21.9137  -11.8108  -17.4768 C   0  0  0  0  0  0  0  0  0  0  0  0
   21.3858  -11.0646  -18.6756 C   0  0  0  0  0  0  0  0  0  0  0  0
   20.5917   -9.8937  -18.2589 C   0  0  0  0  0  0  0  0  0  0  0  0
   20.5055   -9.5915  -17.0543 O   0  0  0  0  0  0  0  0  0  0  0  0
   24.0083  -12.4768  -18.6313 C   0  0  0  0  0  0  0  0  0  0  0  0
   24.0201  -12.5821  -20.0085 O   0  0  0  0  0  0  0  0  0  0  0  0
   19.9419   -9.1294  -19.2009 O   0  0  0  0  0  0  0  0  0  0  0  0
   25.0138  -11.9797  -18.0783 O   0  0  0  0  0  0  0  0  0  0  0  0
  2  1  1  0
  3  2  2  0
  4  2  1  0
  5  4  1  0
  5  6  1  1
  7  5  1  0
  7  8  2  0
  9 10  1  0
 11 12  1  0
 11 10  1  0
 13 14  1  0
 13 12  1  6
 14  7  1  0
 15 13  1  0
 16 15  2  0
 17 15  1  0
 18 17  1  0
 19 20  1  0
 18 19  1  1
 20 21  1  0
 21 25  1  0
 21 22  2  0
 23 18  1  0
 23 24  1  0
 26 23  2  0
M  END
$$$$
