NME.pdb
     RDKit          3D

 26 25  0  0  1  0  0  0  0  0999 V2000
   17.7499  -15.0975  -19.8392 N   0  0  0  0  0  0  0  0  0  0  0  0
   19.1529  -15.0288  -19.5306 C   0  0  0  0  0  0  0  0  0  0  0  0
   19.9510  -15.6899  -20.2235 O   0  0  0  0  0  0  0  0  0  0  0  0
   19.5494  -14.1703  -18.4019 C   0  0  0  0  0  0  0  0  0  0  0  0
   20.6206  -14.7171  -17.5376 C   0  0  2  0  0  0  0  0  0  0  0  0
   20.0167  -15.8556  -16.8040 N   0  0  0  0  0  0  0  0  0  0  0  0
   21.1831  -13.8279  -16.5249 C   0  0  0  0  0  0  0  0  0  0  0  0
   20.4552  -13.3448  -15.6364 O   0  0  0  0  0  0  0  0  0  0  0  0
   27.7080  -12.8885  -15.7942 C   0  0  0  0  0  0  0  0  0  0  0  0
   26.8435  -13.9960  -14.6544 S   0  0  0  0  0  0  0  0  0  0  0  0
   25.0635  -13.8356  -14.7595 C   0  0  0  0  0  0  0  0  0  0  0  0
   24.6046  -12.5844  -15.4599 C   0  0  0  0  0  0  0  0  0  0  0  0
   23.1242  -12.5009  -15.5940 C   0  0  2  0  0  0  0  0  0  0  0  0
   22.5829  -13.4795  -16.5176 N   0  0  0  0  0  0  0  0  0  0  0  0
   22.7862  -11.1600  -16.1451 C   0  0  0  0  0  0  0  0  0  0  0  0
   23.1533  -10.8249  -17.3139 O   0  0  0  0  0  0  0  0  0  0  0  0
   22.0446  -10.2510  -15.3508 N   0  0  0  0  0  0  0  0  0  0  0  0
   21.7322   -8.9483  -15.8871 C   0  0  1  0  0  0  0  0  0  0  0  0
   20.3392   -8.9041  -16.4773 C   0  0  0  0  0  0  0  0  0  0  0  0
   19.9631   -7.5236  -16.9521 C   0  0  0  0  0  0  0  0  0  0  0  0
   18.5743   -7.4979  -17.4482 C   0  0  0  0  0  0  0  0  0  0  0  0
   18.1973   -8.3250  -18.2988 O   0  0  0  0  0  0  0  0  0  0  0  0
   21.9315   -7.9450  -14.8315 C   0  0  0  0  0  0  0  0  0  0  0  0
   22.0888   -8.3437  -13.5184 O   0  0  0  0  0  0  0  0  0  0  0  0
   17.6883   -6.5585  -16.9724 O   0  0  0  0  0  0  0  0  0  0  0  0
   21.9659   -6.7187  -15.0740 O   0  0  0  0  0  0  0  0  0  0  0  0
  2  1  1  0
  3  2  2  0
  4  2  1  0
  5  4  1  0
  5  6  1  1
  7  5  1  0
  7  8  2  0
  9 10  1  0
 11 12  1  0
 11 10  1  0
 13 14  1  0
 13 12  1  6
 14  7  1  0
 15 13  1  0
 16 15  2  0
 17 15  1  0
 18 17  1  0
 19 20  1  0
 18 19  1  1
 20 21  1  0
 21 25  1  0
 21 22  2  0
 23 18  1  0
 23 24  1  0
 26 23  2  0
M  END
$$$$
