NME.pdb
     RDKit          3D

 26 25  0  0  1  0  0  0  0  0999 V2000
   27.2476  -23.0801  -20.0897 N   0  0  0  0  0  0  0  0  0  0  0  0
   27.4013  -22.3170  -18.8805 C   0  0  0  0  0  0  0  0  0  0  0  0
   28.3240  -21.4814  -18.8134 O   0  0  0  0  0  0  0  0  0  0  0  0
   26.4435  -22.5829  -17.7940 C   0  0  0  0  0  0  0  0  0  0  0  0
   27.0399  -22.7217  -16.4455 C   0  0  2  0  0  0  0  0  0  0  0  0
   27.6331  -24.0799  -16.3955 N   0  0  0  0  0  0  0  0  0  0  0  0
   26.1376  -22.6253  -15.3013 C   0  0  0  0  0  0  0  0  0  0  0  0
   25.3252  -23.5389  -15.0608 O   0  0  0  0  0  0  0  0  0  0  0  0
   24.8470  -21.1724   -8.0469 C   0  0  0  0  0  0  0  0  0  0  0  0
   25.8784  -21.1676   -9.5333 S   0  0  0  0  0  0  0  0  0  0  0  0
   25.0467  -20.4429  -10.9433 C   0  0  0  0  0  0  0  0  0  0  0  0
   25.8610  -20.4663  -12.2094 C   0  0  0  0  0  0  0  0  0  0  0  0
   25.3438  -21.4323  -13.2175 C   0  0  2  0  0  0  0  0  0  0  0  0
   26.1524  -21.4829  -14.4205 N   0  0  0  0  0  0  0  0  0  0  0  0
   23.9869  -20.9828  -13.6328 C   0  0  0  0  0  0  0  0  0  0  0  0
   23.8414  -20.0377  -14.4688 O   0  0  0  0  0  0  0  0  0  0  0  0
   22.8472  -21.6222  -13.0856 N   0  0  0  0  0  0  0  0  0  0  0  0
   21.5365  -21.2183  -13.5343 C   0  0  1  0  0  0  0  0  0  0  0  0
   20.8218  -20.3808  -12.4960 C   0  0  0  0  0  0  0  0  0  0  0  0
   19.4079  -20.0508  -12.9020 C   0  0  0  0  0  0  0  0  0  0  0  0
   18.4997  -21.1749  -12.6069 C   0  0  0  0  0  0  0  0  0  0  0  0
   17.4361  -21.3041  -13.2407 O   0  0  0  0  0  0  0  0  0  0  0  0
   21.6737  -20.5254  -14.8234 C   0  0  0  0  0  0  0  0  0  0  0  0
   22.3783  -19.3398  -14.9005 O   0  0  0  0  0  0  0  0  0  0  0  0
   18.8245  -22.0865  -11.6286 O   0  0  0  0  0  0  0  0  0  0  0  0
   21.1697  -20.9709  -15.8776 O   0  0  0  0  0  0  0  0  0  0  0  0
  2  1  1  0
  3  2  2  0
  4  2  1  0
  5  4  1  0
  5  6  1  6
  7  5  1  0
  7  8  2  0
  9 10  1  0
 11 12  1  0
 11 10  1  0
 13 14  1  0
 13 12  1  1
 14  7  1  0
 15 13  1  0
 16 15  2  0
 17 15  1  0
 18 17  1  0
 19 20  1  0
 18 19  1  1
 20 21  1  0
 21 25  1  0
 21 22  2  0
 23 18  1  0
 23 24  1  0
 26 23  2  0
M  END
$$$$
