NME.pdb
     RDKit          3D

 26 25  0  0  1  0  0  0  0  0999 V2000
   27.9379  -18.8368  -16.0414 N   0  0  0  0  0  0  0  0  0  0  0  0
   28.3249  -20.2217  -16.0209 C   0  0  0  0  0  0  0  0  0  0  0  0
   29.0167  -20.6637  -16.9590 O   0  0  0  0  0  0  0  0  0  0  0  0
   27.8683  -21.0281  -14.8764 C   0  0  0  0  0  0  0  0  0  0  0  0
   26.9733  -20.3277  -13.9268 C   0  0  2  0  0  0  0  0  0  0  0  0
   27.5719  -18.9887  -13.7080 N   0  0  0  0  0  0  0  0  0  0  0  0
   26.8034  -20.9228  -12.6040 C   0  0  0  0  0  0  0  0  0  0  0  0
   26.4082  -22.0988  -12.4883 O   0  0  0  0  0  0  0  0  0  0  0  0
   26.8897  -20.3498   -4.6611 C   0  0  0  0  0  0  0  0  0  0  0  0
   27.4841  -19.6653   -6.2268 S   0  0  0  0  0  0  0  0  0  0  0  0
   26.5890  -20.3049   -7.6391 C   0  0  0  0  0  0  0  0  0  0  0  0
   27.1739  -19.8998   -8.9659 C   0  0  0  0  0  0  0  0  0  0  0  0
   26.4907  -20.5390  -10.1240 C   0  0  2  0  0  0  0  0  0  0  0  0
   27.0813  -20.1799  -11.3991 N   0  0  0  0  0  0  0  0  0  0  0  0
   25.0832  -20.0553  -10.1533 C   0  0  0  0  0  0  0  0  0  0  0  0
   24.8098  -18.8686  -10.5145 O   0  0  0  0  0  0  0  0  0  0  0  0
   24.0398  -20.9350   -9.7730 N   0  0  0  0  0  0  0  0  0  0  0  0
   22.6862  -20.6242  -10.1648 C   0  0  1  0  0  0  0  0  0  0  0  0
   22.3440  -21.2138  -11.5160 C   0  0  0  0  0  0  0  0  0  0  0  0
   20.9130  -20.9493  -11.9094 C   0  0  0  0  0  0  0  0  0  0  0  0
   20.6091  -21.5472  -13.2230 C   0  0  0  0  0  0  0  0  0  0  0  0
   21.0370  -21.0190  -14.2659 O   0  0  0  0  0  0  0  0  0  0  0  0
   21.7743  -21.0745   -9.1036 C   0  0  0  0  0  0  0  0  0  0  0  0
   20.4363  -20.7344   -9.1503 O   0  0  0  0  0  0  0  0  0  0  0  0
   19.8506  -22.6928  -13.3015 O   0  0  0  0  0  0  0  0  0  0  0  0
   22.1639  -21.7674   -8.1382 O   0  0  0  0  0  0  0  0  0  0  0  0
  2  1  1  0
  3  2  2  0
  4  2  1  0
  5  4  1  0
  5  6  1  1
  7  5  1  0
  7  8  2  0
  9 10  1  0
 11 12  1  0
 11 10  1  0
 13 14  1  0
 13 12  1  1
 14  7  1  0
 15 13  1  0
 16 15  2  0
 17 15  1  0
 18 17  1  0
 19 20  1  0
 18 19  1  6
 20 21  1  0
 21 25  1  0
 21 22  2  0
 23 18  1  0
 23 24  1  0
 26 23  2  0
M  END
$$$$
