NME.pdb
     RDKit          3D

 26 25  0  0  1  0  0  0  0  0999 V2000
   29.0291  -18.4068  -15.8060 N   0  0  0  0  0  0  0  0  0  0  0  0
   28.3510  -19.5342  -16.3871 C   0  0  0  0  0  0  0  0  0  0  0  0
   28.4379  -19.7156  -17.6174 O   0  0  0  0  0  0  0  0  0  0  0  0
   27.5924  -20.4040  -15.4726 C   0  0  0  0  0  0  0  0  0  0  0  0
   27.5587  -19.9598  -14.0602 C   0  0  2  0  0  0  0  0  0  0  0  0
   28.9245  -20.1809  -13.5264 N   0  0  0  0  0  0  0  0  0  0  0  0
   26.6473  -20.6604  -13.1596 C   0  0  0  0  0  0  0  0  0  0  0  0
   25.8968  -21.5553  -13.5937 O   0  0  0  0  0  0  0  0  0  0  0  0
   28.6713  -20.3754   -6.4079 C   0  0  0  0  0  0  0  0  0  0  0  0
   27.0460  -20.0754   -7.1438 S   0  0  0  0  0  0  0  0  0  0  0  0
   26.9175  -20.7194   -8.8093 C   0  0  0  0  0  0  0  0  0  0  0  0
   25.6237  -20.3749   -9.4978 C   0  0  0  0  0  0  0  0  0  0  0  0
   25.5502  -20.8904  -10.8926 C   0  0  2  0  0  0  0  0  0  0  0  0
   26.5821  -20.3447  -11.7535 N   0  0  0  0  0  0  0  0  0  0  0  0
   24.2445  -20.4705  -11.4711 C   0  0  0  0  0  0  0  0  0  0  0  0
   24.1049  -19.3240  -11.9995 O   0  0  0  0  0  0  0  0  0  0  0  0
   23.1476  -21.3663  -11.4292 N   0  0  0  0  0  0  0  0  0  0  0  0
   21.9641  -21.0580  -12.1951 C   0  0  1  0  0  0  0  0  0  0  0  0
   21.8996  -21.8621  -13.4757 C   0  0  0  0  0  0  0  0  0  0  0  0
   20.6180  -21.6274  -14.2340 C   0  0  0  0  0  0  0  0  0  0  0  0
   20.5997  -22.4022  -15.4890 C   0  0  0  0  0  0  0  0  0  0  0  0
   19.5213  -22.8123  -15.9565 O   0  0  0  0  0  0  0  0  0  0  0  0
   20.7852  -21.2595  -11.3405 C   0  0  0  0  0  0  0  0  0  0  0  0
   19.5972  -20.6208  -11.6383 O   0  0  0  0  0  0  0  0  0  0  0  0
   21.7759  -22.6754  -16.1491 O   0  0  0  0  0  0  0  0  0  0  0  0
   20.8098  -21.9997  -10.3329 O   0  0  0  0  0  0  0  0  0  0  0  0
  2  1  1  0
  3  2  2  0
  4  2  1  0
  5  4  1  0
  5  6  1  1
  7  5  1  0
  7  8  2  0
  9 10  1  0
 11 12  1  0
 11 10  1  0
 13 14  1  0
 13 12  1  1
 14  7  1  0
 15 13  1  0
 16 15  2  0
 17 15  1  0
 18 17  1  0
 19 20  1  0
 18 19  1  6
 20 21  1  0
 21 25  1  0
 21 22  2  0
 23 18  1  0
 23 24  1  0
 26 23  2  0
M  END
$$$$
