NME.pdb
     RDKit          3D

 26 25  0  0  1  0  0  0  0  0999 V2000
   19.1270  -21.0553  -10.5241 N   0  0  0  0  0  0  0  0  0  0  0  0
   19.0266  -21.5951  -11.8534 C   0  0  0  0  0  0  0  0  0  0  0  0
   18.9442  -22.8312  -11.9925 O   0  0  0  0  0  0  0  0  0  0  0  0
   19.0290  -20.6339  -12.9689 C   0  0  0  0  0  0  0  0  0  0  0  0
   20.2072  -20.7064  -13.8632 C   0  0  2  0  0  0  0  0  0  0  0  0
   20.4831  -22.1495  -14.0645 N   0  0  0  0  0  0  0  0  0  0  0  0
   21.4515  -20.1137  -13.3806 C   0  0  0  0  0  0  0  0  0  0  0  0
   21.4983  -18.9058  -13.0783 O   0  0  0  0  0  0  0  0  0  0  0  0
   26.5037  -22.4017   -9.3197 C   0  0  0  0  0  0  0  0  0  0  0  0
   26.0927  -20.6399   -9.3288 S   0  0  0  0  0  0  0  0  0  0  0  0
   25.5522  -20.0697  -10.9375 C   0  0  0  0  0  0  0  0  0  0  0  0
   24.3543  -20.8069  -11.4744 C   0  0  0  0  0  0  0  0  0  0  0  0
   23.9061  -20.3025  -12.8016 C   0  0  2  0  0  0  0  0  0  0  0  0
   22.6565  -20.8942  -13.2400 N   0  0  0  0  0  0  0  0  0  0  0  0
   24.9346  -20.6798  -13.8094 C   0  0  0  0  0  0  0  0  0  0  0  0
   25.0550  -21.8830  -14.1980 O   0  0  0  0  0  0  0  0  0  0  0  0
   25.7863  -19.6789  -14.3387 N   0  0  0  0  0  0  0  0  0  0  0  0
   26.7161  -20.0337  -15.3836 C   0  0  1  0  0  0  0  0  0  0  0  0
   27.4294  -18.8185  -15.9359 C   0  0  0  0  0  0  0  0  0  0  0  0
   28.3952  -19.1740  -17.0375 C   0  0  0  0  0  0  0  0  0  0  0  0
   28.3141  -18.2008  -18.1429 C   0  0  0  0  0  0  0  0  0  0  0  0
   27.6116  -17.1796  -18.0283 O   0  0  0  0  0  0  0  0  0  0  0  0
   27.6450  -21.0468  -14.8625 C   0  0  0  0  0  0  0  0  0  0  0  0
   28.0268  -22.1098  -15.6576 O   0  0  0  0  0  0  0  0  0  0  0  0
   29.0155  -18.4179  -19.3068 O   0  0  0  0  0  0  0  0  0  0  0  0
   28.1158  -20.9885  -13.7055 O   0  0  0  0  0  0  0  0  0  0  0  0
  2  1  1  0
  3  2  2  0
  4  2  1  0
  5  4  1  0
  5  6  1  1
  7  5  1  0
  7  8  2  0
  9 10  1  0
 11 12  1  0
 11 10  1  0
 13 14  1  0
 13 12  1  1
 14  7  1  0
 15 13  1  0
 16 15  2  0
 17 15  1  0
 18 17  1  0
 19 20  1  0
 18 19  1  1
 20 21  1  0
 21 25  1  0
 21 22  2  0
 23 18  1  0
 23 24  1  0
 26 23  2  0
M  END
$$$$
