NME.pdb
     RDKit          3D

 26 25  0  0  1  0  0  0  0  0999 V2000
   29.2664  -19.6907  -16.6042 N   0  0  0  0  0  0  0  0  0  0  0  0
   28.0822  -18.9127  -16.3580 C   0  0  0  0  0  0  0  0  0  0  0  0
   27.9182  -17.8543  -16.9959 O   0  0  0  0  0  0  0  0  0  0  0  0
   27.1365  -19.4310  -15.3552 C   0  0  0  0  0  0  0  0  0  0  0  0
   27.5230  -20.7148  -14.7261 C   0  0  2  0  0  0  0  0  0  0  0  0
   27.3354  -21.7556  -15.7656 N   0  0  0  0  0  0  0  0  0  0  0  0
   26.7517  -21.1503  -13.5650 C   0  0  0  0  0  0  0  0  0  0  0  0
   25.8987  -22.0517  -13.6772 O   0  0  0  0  0  0  0  0  0  0  0  0
   28.0016  -20.2422   -6.8628 C   0  0  0  0  0  0  0  0  0  0  0  0
   26.2329  -19.9720   -7.1305 S   0  0  0  0  0  0  0  0  0  0  0  0
   25.6659  -20.6373   -8.6929 C   0  0  0  0  0  0  0  0  0  0  0  0
   26.5352  -20.2661   -9.8648 C   0  0  0  0  0  0  0  0  0  0  0  0
   26.0652  -20.8547  -11.1490 C   0  0  2  0  0  0  0  0  0  0  0  0
   26.9452  -20.5592  -12.2634 N   0  0  0  0  0  0  0  0  0  0  0  0
   24.7439  -20.2522  -11.4761 C   0  0  0  0  0  0  0  0  0  0  0  0
   24.6417  -19.0160  -11.7496 O   0  0  0  0  0  0  0  0  0  0  0  0
   23.5896  -21.0736  -11.4814 N   0  0  0  0  0  0  0  0  0  0  0  0
   22.3543  -20.5394  -12.0019 C   0  0  1  0  0  0  0  0  0  0  0  0
   22.0018  -21.1461  -13.3429 C   0  0  0  0  0  0  0  0  0  0  0  0
   20.6923  -20.6262  -13.8791 C   0  0  0  0  0  0  0  0  0  0  0  0
   20.3588  -21.2668  -15.1651 C   0  0  0  0  0  0  0  0  0  0  0  0
   21.1480  -22.0772  -15.6848 O   0  0  0  0  0  0  0  0  0  0  0  0
   21.2982  -20.7333  -10.9980 C   0  0  0  0  0  0  0  0  0  0  0  0
   20.0647  -20.1350  -11.1666 O   0  0  0  0  0  0  0  0  0  0  0  0
   19.1724  -20.9711  -15.7967 O   0  0  0  0  0  0  0  0  0  0  0  0
   21.4699  -21.4314   -9.9747 O   0  0  0  0  0  0  0  0  0  0  0  0
  2  1  1  0
  3  2  2  0
  4  2  1  0
  5  4  1  0
  5  6  1  6
  7  5  1  0
  7  8  2  0
  9 10  1  0
 11 12  1  0
 11 10  1  0
 13 14  1  0
 13 12  1  1
 14  7  1  0
 15 13  1  0
 16 15  2  0
 17 15  1  0
 18 17  1  0
 19 20  1  0
 18 19  1  6
 20 21  1  0
 21 25  1  0
 21 22  2  0
 23 18  1  0
 23 24  1  0
 26 23  2  0
M  END
$$$$
