NME.pdb
     RDKit          3D

 26 25  0  0  1  0  0  0  0  0999 V2000
   18.7061  -12.9605  -17.3958 N   0  0  0  0  0  0  0  0  0  0  0  0
   17.7330  -12.1367  -16.7303 C   0  0  0  0  0  0  0  0  0  0  0  0
   16.6429  -12.6448  -16.4022 O   0  0  0  0  0  0  0  0  0  0  0  0
   18.1012  -10.7327  -16.4821 C   0  0  0  0  0  0  0  0  0  0  0  0
   19.4611  -10.3481  -16.9248 C   0  0  2  0  0  0  0  0  0  0  0  0
   20.2239  -11.6128  -17.0578 N   0  0  0  0  0  0  0  0  0  0  0  0
   20.2383   -9.4915  -16.0332 C   0  0  0  0  0  0  0  0  0  0  0  0
   19.7963   -9.1871  -14.9087 O   0  0  0  0  0  0  0  0  0  0  0  0
   26.5983  -11.1818  -14.2932 C   0  0  0  0  0  0  0  0  0  0  0  0
   26.0172   -9.7178  -15.1832 S   0  0  0  0  0  0  0  0  0  0  0  0
   24.2459   -9.4932  -15.0521 C   0  0  0  0  0  0  0  0  0  0  0  0
   23.7441   -8.2231  -15.6859 C   0  0  0  0  0  0  0  0  0  0  0  0
   22.2690   -8.0572  -15.5704 C   0  0  2  0  0  0  0  0  0  0  0  0
   21.5280   -8.9720  -16.4175 N   0  0  0  0  0  0  0  0  0  0  0  0
   21.9232   -6.6814  -16.0214 C   0  0  0  0  0  0  0  0  0  0  0  0
   21.8259   -6.4065  -17.2577 O   0  0  0  0  0  0  0  0  0  0  0  0
   21.7000   -5.6704  -15.0543 N   0  0  0  0  0  0  0  0  0  0  0  0
   21.2505   -4.3711  -15.4926 C   0  0  1  0  0  0  0  0  0  0  0  0
   19.8996   -4.0185  -14.9084 C   0  0  0  0  0  0  0  0  0  0  0  0
   19.4500   -2.6346  -15.3023 C   0  0  0  0  0  0  0  0  0  0  0  0
   18.0702   -2.3802  -14.8476 C   0  0  0  0  0  0  0  0  0  0  0  0
   17.4658   -3.2332  -14.1718 O   0  0  0  0  0  0  0  0  0  0  0  0
   22.2852   -3.3800  -15.1641 C   0  0  0  0  0  0  0  0  0  0  0  0
   22.5039   -2.3040  -16.0022 O   0  0  0  0  0  0  0  0  0  0  0  0
   17.4443   -1.1974  -15.1689 O   0  0  0  0  0  0  0  0  0  0  0  0
   22.9926   -3.4691  -14.1368 O   0  0  0  0  0  0  0  0  0  0  0  0
  2  1  1  0
  3  2  2  0
  4  2  1  0
  5  4  1  0
  5  6  1  1
  7  5  1  0
  7  8  2  0
  9 10  1  0
 11 12  1  0
 11 10  1  0
 13 14  1  0
 13 12  1  6
 14  7  1  0
 15 13  1  0
 16 15  2  0
 17 15  1  0
 18 17  1  0
 19 20  1  0
 18 19  1  1
 20 21  1  0
 21 25  1  0
 21 22  2  0
 23 18  1  0
 23 24  1  0
 26 23  2  0
M  END
$$$$
