TDS.pdb
     RDKit          3D

 22 21  0  0  1  0  0  0  0  0999 V2000
   12.9215  -10.5234  -13.1374 C   0  0  0  0  0  0  0  0  0  0  0  0
   13.2197  -11.9569  -12.8506 C   0  0  1  0  0  0  0  0  0  0  0  0
   12.3121  -12.7234  -13.5874 O   0  0  0  0  0  0  0  0  0  0  0  0
   14.6396  -12.3069  -13.2042 C   0  0  2  0  0  0  0  0  0  0  0  0
   14.8909  -13.6929  -13.0143 N   0  0  0  0  0  0  0  0  0  0  0  0
   15.5809  -11.4911  -12.3577 C   0  0  0  0  0  0  0  0  0  0  0  0
   15.8494  -11.8035  -11.1665 O   0  0  0  0  0  0  0  0  0  0  0  0
   16.1819  -10.3370  -12.9223 N   0  0  0  0  0  0  0  0  0  0  0  0
   17.0540   -9.5141  -12.0789 C   0  0  1  0  0  0  0  0  0  0  0  0
   18.2259   -9.0163  -12.8792 C   0  0  0  0  0  0  0  0  0  0  0  0
   19.1767   -8.1893  -12.1255 C   0  0  0  0  0  0  0  0  0  0  0  0
   19.0516   -8.0606  -10.8750 O   0  0  0  0  0  0  0  0  0  0  0  0
   16.2353   -8.4036  -11.5079 C   0  0  0  0  0  0  0  0  0  0  0  0
   15.6222   -7.6271  -12.2525 O   0  0  0  0  0  0  0  0  0  0  0  0
   20.2239   -7.5280  -12.7293 O   0  0  0  0  0  0  0  0  0  0  0  0
   13.5470   -8.5896   -8.9237 O   0  0  0  0  0  0  0  0  0  0  0  0
   14.5256   -7.7520   -8.3901 C   0  0  0  0  0  0  0  0  0  0  0  0
   15.3498   -7.1699   -9.5054 C   0  0  2  0  0  0  0  0  0  0  0  0
   16.1481   -8.2215  -10.1110 N   0  0  0  0  0  0  0  0  0  0  0  0
   16.2518   -6.1034   -9.0138 C   0  0  0  0  0  0  0  0  0  0  0  0
   17.5080   -6.2011   -9.0845 O   0  0  0  0  0  0  0  0  0  0  0  0
   15.6833   -4.9703   -8.4624 O   0  0  0  0  0  0  0  0  0  0  0  0
  2  1  1  6
  2  4  1  0
  3  2  1  0
  4  5  1  1
  4  6  1  0
  6  8  1  0
  7  6  2  0
  8  9  1  0
  9 13  1  0
 10 11  1  0
  9 10  1  6
 11 15  1  0
 12 11  2  0
 13 14  2  0
 13 19  1  0
 16 17  1  0
 18 17  1  1
 18 20  1  0
 19 18  1  0
 20 22  1  0
 21 20  2  0
M  END
$$$$
