TDS.pdb
     RDKit          3D

 22 21  0  0  1  0  0  0  0  0999 V2000
   24.7074  -11.2807  -14.7625 C   0  0  0  0  0  0  0  0  0  0  0  0
   23.7556  -10.2763  -15.3206 C   0  0  1  0  0  0  0  0  0  0  0  0
   24.3468   -9.7396  -16.4681 O   0  0  0  0  0  0  0  0  0  0  0  0
   22.4212  -10.8958  -15.6356 C   0  0  2  0  0  0  0  0  0  0  0  0
   22.5637  -12.0120  -16.5038 N   0  0  0  0  0  0  0  0  0  0  0  0
   21.5269   -9.8616  -16.2673 C   0  0  0  0  0  0  0  0  0  0  0  0
   20.9306  -10.0705  -17.3580 O   0  0  0  0  0  0  0  0  0  0  0  0
   21.3527   -8.6162  -15.6113 N   0  0  0  0  0  0  0  0  0  0  0  0
   20.3873   -7.6602  -16.1619 C   0  0  1  0  0  0  0  0  0  0  0  0
   18.9953   -8.2224  -16.0720 C   0  0  0  0  0  0  0  0  0  0  0  0
   17.9421   -7.3384  -16.5869 C   0  0  0  0  0  0  0  0  0  0  0  0
   16.7387   -7.5242  -16.2503 O   0  0  0  0  0  0  0  0  0  0  0  0
   20.5351   -6.3718  -15.4218 C   0  0  0  0  0  0  0  0  0  0  0  0
   20.2511   -6.3016  -14.2186 O   0  0  0  0  0  0  0  0  0  0  0  0
   18.2068   -6.2912  -17.4424 O   0  0  0  0  0  0  0  0  0  0  0  0
   22.1312   -1.7900  -15.6338 O   0  0  0  0  0  0  0  0  0  0  0  0
   21.9560   -3.0100  -16.2857 C   0  0  0  0  0  0  0  0  0  0  0  0
   21.1635   -3.9385  -15.4073 C   0  0  2  0  0  0  0  0  0  0  0  0
   21.0003   -5.2145  -16.0821 N   0  0  0  0  0  0  0  0  0  0  0  0
   19.8260   -3.3831  -15.0980 C   0  0  0  0  0  0  0  0  0  0  0  0
   18.8598   -3.4704  -15.9051 O   0  0  0  0  0  0  0  0  0  0  0  0
   19.6468   -2.7517  -13.8813 O   0  0  0  0  0  0  0  0  0  0  0  0
  2  1  1  6
  2  4  1  0
  3  2  1  0
  4  5  1  6
  4  6  1  0
  6  8  1  0
  7  6  2  0
  8  9  1  0
  9 13  1  0
 10 11  1  0
  9 10  1  1
 11 15  1  0
 12 11  2  0
 13 14  2  0
 13 19  1  0
 16 17  1  0
 18 17  1  6
 18 20  1  0
 19 18  1  0
 20 22  1  0
 21 20  2  0
M  END
$$$$
