TDS.pdb
     RDKit          3D

 22 21  0  0  1  0  0  0  0  0999 V2000
   16.9120  -10.9186  -16.7094 C   0  0  0  0  0  0  0  0  0  0  0  0
   17.3699  -10.1985  -17.9333 C   0  0  1  0  0  0  0  0  0  0  0  0
   16.8082   -8.9190  -17.8945 O   0  0  0  0  0  0  0  0  0  0  0  0
   18.8711  -10.1312  -18.0052 C   0  0  2  0  0  0  0  0  0  0  0  0
   19.4403  -11.4291  -18.1127 N   0  0  0  0  0  0  0  0  0  0  0  0
   19.3994   -9.4361  -16.7780 C   0  0  0  0  0  0  0  0  0  0  0  0
   19.6253  -10.0562  -15.7041 O   0  0  0  0  0  0  0  0  0  0  0  0
   19.6495   -8.0412  -16.8369 N   0  0  0  0  0  0  0  0  0  0  0  0
   20.3139   -7.3971  -15.7000 C   0  0  1  0  0  0  0  0  0  0  0  0
   21.6639   -8.0193  -15.4709 C   0  0  0  0  0  0  0  0  0  0  0  0
   21.6930   -9.0572  -14.4328 C   0  0  0  0  0  0  0  0  0  0  0  0
   21.3588   -8.7768  -13.2472 O   0  0  0  0  0  0  0  0  0  0  0  0
   20.3965   -5.9325  -15.9786 C   0  0  0  0  0  0  0  0  0  0  0  0
   20.6205   -5.5221  -17.1251 O   0  0  0  0  0  0  0  0  0  0  0  0
   22.0785  -10.3542  -14.6929 O   0  0  0  0  0  0  0  0  0  0  0  0
   19.2567   -1.5222  -14.4660 O   0  0  0  0  0  0  0  0  0  0  0  0
   19.2730   -2.8952  -14.2239 C   0  0  0  0  0  0  0  0  0  0  0  0
   20.2378   -3.5591  -15.1675 C   0  0  2  0  0  0  0  0  0  0  0  0
   20.2212   -4.9936  -14.9395 N   0  0  0  0  0  0  0  0  0  0  0  0
   21.6175   -3.0571  -14.9747 C   0  0  0  0  0  0  0  0  0  0  0  0
   21.9918   -1.9358  -15.4165 O   0  0  0  0  0  0  0  0  0  0  0  0
   22.5122   -3.8548  -14.2859 O   0  0  0  0  0  0  0  0  0  0  0  0
  2  1  1  1
  2  4  1  0
  3  2  1  0
  4  5  1  1
  4  6  1  0
  6  8  1  0
  7  6  2  0
  8  9  1  0
  9 13  1  0
 10 11  1  0
  9 10  1  6
 11 15  1  0
 12 11  2  0
 13 14  2  0
 13 19  1  0
 16 17  1  0
 18 17  1  1
 18 20  1  0
 19 18  1  0
 20 22  1  0
 21 20  2  0
M  END
$$$$
