TDS.pdb
     RDKit          3D

 22 21  0  0  1  0  0  0  0  0999 V2000
   24.1991  -11.2897  -14.2826 C   0  0  0  0  0  0  0  0  0  0  0  0
   23.4343  -10.2178  -14.9843 C   0  0  1  0  0  0  0  0  0  0  0  0
   23.8382  -10.2305  -16.3226 O   0  0  0  0  0  0  0  0  0  0  0  0
   21.9497  -10.4287  -14.8625 C   0  0  2  0  0  0  0  0  0  0  0  0
   21.5627  -11.6873  -15.3977 N   0  0  0  0  0  0  0  0  0  0  0  0
   21.2269   -9.3189  -15.5795 C   0  0  0  0  0  0  0  0  0  0  0  0
   20.3766   -9.5486  -16.4812 O   0  0  0  0  0  0  0  0  0  0  0  0
   21.5144   -7.9757  -15.2261 N   0  0  0  0  0  0  0  0  0  0  0  0
   20.6636   -6.9095  -15.7631 C   0  0  1  0  0  0  0  0  0  0  0  0
   19.2342   -7.1338  -15.3529 C   0  0  0  0  0  0  0  0  0  0  0  0
   18.3117   -6.0549  -15.7281 C   0  0  0  0  0  0  0  0  0  0  0  0
   18.4085   -5.5041  -16.8609 O   0  0  0  0  0  0  0  0  0  0  0  0
   21.2000   -5.6010  -15.2839 C   0  0  0  0  0  0  0  0  0  0  0  0
   21.4011   -5.4076  -14.0775 O   0  0  0  0  0  0  0  0  0  0  0  0
   17.3220   -5.5998  -14.8843 O   0  0  0  0  0  0  0  0  0  0  0  0
   23.7810   -3.4110  -17.3857 O   0  0  0  0  0  0  0  0  0  0  0  0
   22.7042   -2.6308  -16.9663 C   0  0  0  0  0  0  0  0  0  0  0  0
   22.0396   -3.2863  -15.7871 C   0  0  2  0  0  0  0  0  0  0  0  0
   21.4853   -4.5645  -16.1983 N   0  0  0  0  0  0  0  0  0  0  0  0
   20.9517   -2.4436  -15.2400 C   0  0  0  0  0  0  0  0  0  0  0  0
   19.7337   -2.7058  -15.4408 O   0  0  0  0  0  0  0  0  0  0  0  0
   21.2987   -1.3375  -14.4867 O   0  0  0  0  0  0  0  0  0  0  0  0
  2  1  1  1
  2  4  1  0
  3  2  1  0
  4  5  1  6
  4  6  1  0
  6  8  1  0
  7  6  2  0
  8  9  1  0
  9 13  1  0
 10 11  1  0
  9 10  1  1
 11 15  1  0
 12 11  2  0
 13 14  2  0
 13 19  1  0
 16 17  1  0
 18 17  1  6
 18 20  1  0
 19 18  1  0
 20 22  1  0
 21 20  2  0
M  END
$$$$
