TDS.pdb
     RDKit          3D

 22 21  0  0  1  0  0  0  0  0999 V2000
   15.7652  -11.4388  -13.1019 C   0  0  0  0  0  0  0  0  0  0  0  0
   16.4046  -10.0908  -13.1137 C   0  0  1  0  0  0  0  0  0  0  0  0
   15.3754   -9.1455  -13.1510 O   0  0  0  0  0  0  0  0  0  0  0  0
   17.2863   -9.8874  -11.9117 C   0  0  2  0  0  0  0  0  0  0  0  0
   16.5443   -9.9965  -10.7044 N   0  0  0  0  0  0  0  0  0  0  0  0
   17.9399   -8.5331  -11.9950 C   0  0  0  0  0  0  0  0  0  0  0  0
   17.6329   -7.5938  -11.2124 O   0  0  0  0  0  0  0  0  0  0  0  0
   18.9310   -8.3121  -12.9853 N   0  0  0  0  0  0  0  0  0  0  0  0
   19.5249   -6.9768  -13.1004 C   0  0  1  0  0  0  0  0  0  0  0  0
   21.0243   -7.0815  -13.1519 C   0  0  0  0  0  0  0  0  0  0  0  0
   21.7278   -5.7938  -13.2052 C   0  0  0  0  0  0  0  0  0  0  0  0
   21.2055   -4.7650  -12.6906 O   0  0  0  0  0  0  0  0  0  0  0  0
   18.9535   -6.3168  -14.3118 C   0  0  0  0  0  0  0  0  0  0  0  0
   18.9447   -6.9032  -15.4023 O   0  0  0  0  0  0  0  0  0  0  0  0
   22.9592   -5.6469  -13.8056 O   0  0  0  0  0  0  0  0  0  0  0  0
   15.6390   -4.8589  -14.7921 O   0  0  0  0  0  0  0  0  0  0  0  0
   16.5011   -3.7921  -15.0428 C   0  0  0  0  0  0  0  0  0  0  0  0
   17.8668   -4.3210  -15.3851 C   0  0  2  0  0  0  0  0  0  0  0  0
   18.4152   -5.0145  -14.2325 N   0  0  0  0  0  0  0  0  0  0  0  0
   18.7893   -3.2299  -15.7741 C   0  0  0  0  0  0  0  0  0  0  0  0
   19.0494   -2.2643  -15.0044 O   0  0  0  0  0  0  0  0  0  0  0  0
   19.3765   -3.2862  -17.0244 O   0  0  0  0  0  0  0  0  0  0  0  0
  2  1  1  1
  2  4  1  0
  3  2  1  0
  4  5  1  1
  4  6  1  0
  6  8  1  0
  7  6  2  0
  8  9  1  0
  9 13  1  0
 10 11  1  0
  9 10  1  6
 11 15  1  0
 12 11  2  0
 13 14  2  0
 13 19  1  0
 16 17  1  0
 18 17  1  1
 18 20  1  0
 19 18  1  0
 20 22  1  0
 21 20  2  0
M  END
$$$$
