AGM.pdb
     RDKit          3D

 18 17  0  0  1  0  0  0  0  0999 V2000
   23.5684  -21.2467  -15.8281 C   0  0  0  0  0  0  0  0  0  0  0  0
   24.7324  -21.9056  -15.1254 C   0  0  2  0  0  0  0  0  0  0  0  0
   24.3298  -23.2019  -14.6762 N   0  0  0  0  0  0  0  0  0  0  0  0
   25.1457  -21.0246  -14.0061 C   0  0  0  0  0  0  0  0  0  0  0  0
   24.3059  -20.1993  -13.5641 O   0  0  0  0  0  0  0  0  0  0  0  0
   26.4222  -21.0587  -13.4103 N   0  0  0  0  0  0  0  0  0  0  0  0
   26.8396  -20.2365  -12.3190 C   0  0  0  0  0  0  0  0  0  0  0  0
   26.5327  -20.8674  -10.9905 C   0  0  0  0  0  0  0  0  0  0  0  0
   26.2455  -22.0800  -10.9250 O   0  0  0  0  0  0  0  0  0  0  0  0
   29.7767  -19.5766   -5.5873 C   0  0  0  0  0  0  0  0  0  0  0  0
   28.0610  -19.2114   -5.0936 S   0  0  0  0  0  0  0  0  0  0  0  0
   26.9294  -20.2367   -6.0881 C   0  0  0  0  0  0  0  0  0  0  0  0
   27.0790  -19.8186   -7.5136 C   0  0  0  0  0  0  0  0  0  0  0  0
   26.2831  -20.6234   -8.4931 C   0  0  2  0  0  0  0  0  0  0  0  0
   26.5666  -20.1014   -9.8192 N   0  0  0  0  0  0  0  0  0  0  0  0
   24.8195  -20.5658   -8.2553 C   0  0  0  0  0  0  0  0  0  0  0  0
   24.1900  -21.2741   -7.2414 O   0  0  0  0  0  0  0  0  0  0  0  0
   24.0785  -19.8532   -8.9850 O   0  0  0  0  0  0  0  0  0  0  0  0
  2  1  1  1
  3  2  1  0
  4  6  1  0
  4  2  1  0
  5  4  2  0
  7  6  1  0
  8  9  2  0
  8  7  1  0
 10 11  1  0
 12 13  1  0
 12 11  1  0
 14 13  1  1
 14 16  1  0
 14 15  1  0
 15  8  1  0
 16 17  1  0
 18 16  2  0
M  END
$$$$
