AGM.pdb
     RDKit          3D

 18 17  0  0  1  0  0  0  0  0999 V2000
   20.7288  -23.2229  -13.8610 C   0  0  0  0  0  0  0  0  0  0  0  0
   22.0985  -23.1536  -14.4949 C   0  0  2  0  0  0  0  0  0  0  0  0
   23.0319  -23.8431  -13.6596 N   0  0  0  0  0  0  0  0  0  0  0  0
   22.4476  -21.7224  -14.6680 C   0  0  0  0  0  0  0  0  0  0  0  0
   22.2242  -21.1921  -15.7862 O   0  0  0  0  0  0  0  0  0  0  0  0
   23.0137  -20.9242  -13.6541 N   0  0  0  0  0  0  0  0  0  0  0  0
   23.3580  -19.5446  -13.7934 C   0  0  0  0  0  0  0  0  0  0  0  0
   24.8415  -19.3241  -13.7067 C   0  0  0  0  0  0  0  0  0  0  0  0
   25.3097  -18.1716  -13.8052 O   0  0  0  0  0  0  0  0  0  0  0  0
   31.2182  -21.9410  -10.1736 C   0  0  0  0  0  0  0  0  0  0  0  0
   29.4274  -21.9772  -10.5089 S   0  0  0  0  0  0  0  0  0  0  0  0
   29.0954  -21.0547  -12.0450 C   0  0  0  0  0  0  0  0  0  0  0  0
   27.6137  -20.9772  -12.2118 C   0  0  0  0  0  0  0  0  0  0  0  0
   27.1553  -20.2967  -13.4637 C   0  0  2  0  0  0  0  0  0  0  0  0
   25.7074  -20.4073  -13.5155 N   0  0  0  0  0  0  0  0  0  0  0  0
   27.7281  -20.8842  -14.7002 C   0  0  0  0  0  0  0  0  0  0  0  0
   28.9110  -20.4372  -15.2718 O   0  0  0  0  0  0  0  0  0  0  0  0
   27.1446  -21.8340  -15.2891 O   0  0  0  0  0  0  0  0  0  0  0  0
  2  1  1  1
  3  2  1  0
  4  6  1  0
  4  2  1  0
  5  4  2  0
  7  6  1  0
  8  9  2  0
  8  7  1  0
 10 11  1  0
 12 13  1  0
 12 11  1  0
 14 13  1  1
 14 16  1  0
 14 15  1  0
 15  8  1  0
 16 17  1  0
 18 16  2  0
M  END
$$$$
