AGM.pdb
     RDKit          3D

 18 17  0  0  1  0  0  0  0  0999 V2000
   26.4963  -21.7269  -18.5728 C   0  0  0  0  0  0  0  0  0  0  0  0
   27.2302  -22.5134  -17.5119 C   0  0  2  0  0  0  0  0  0  0  0  0
   26.4980  -23.7088  -17.2306 N   0  0  0  0  0  0  0  0  0  0  0  0
   27.3711  -21.6448  -16.3178 C   0  0  0  0  0  0  0  0  0  0  0  0
   27.8181  -20.4811  -16.4845 O   0  0  0  0  0  0  0  0  0  0  0  0
   27.0338  -22.0471  -15.0102 N   0  0  0  0  0  0  0  0  0  0  0  0
   26.9249  -21.1723  -13.8859 C   0  0  0  0  0  0  0  0  0  0  0  0
   25.6008  -21.3135  -13.1901 C   0  0  0  0  0  0  0  0  0  0  0  0
   24.6917  -21.9943  -13.7070 O   0  0  0  0  0  0  0  0  0  0  0  0
   22.2413  -22.7191   -7.8548 C   0  0  0  0  0  0  0  0  0  0  0  0
   23.4630  -21.3799   -7.6685 S   0  0  0  0  0  0  0  0  0  0  0  0
   23.1792  -20.1365   -8.9702 C   0  0  0  0  0  0  0  0  0  0  0  0
   24.3684  -20.1509   -9.8729 C   0  0  0  0  0  0  0  0  0  0  0  0
   24.1267  -20.7485  -11.2238 C   0  0  2  0  0  0  0  0  0  0  0  0
   25.3779  -20.6839  -11.9598 N   0  0  0  0  0  0  0  0  0  0  0  0
   23.0738  -20.0484  -12.0007 C   0  0  0  0  0  0  0  0  0  0  0  0
   21.7251  -20.3580  -11.8956 O   0  0  0  0  0  0  0  0  0  0  0  0
   23.3762  -19.1246  -12.8035 O   0  0  0  0  0  0  0  0  0  0  0  0
  2  1  1  6
  3  2  1  0
  4  6  1  0
  4  2  1  0
  5  4  2  0
  7  6  1  0
  8  9  2  0
  8  7  1  0
 10 11  1  0
 12 13  1  0
 12 11  1  0
 14 13  1  1
 14 16  1  0
 14 15  1  0
 15  8  1  0
 16 17  1  0
 18 16  2  0
M  END
$$$$
