AGM.pdb
     RDKit          3D

 18 17  0  0  1  0  0  0  0  0999 V2000
   14.8877   -9.9344  -17.4730 C   0  0  0  0  0  0  0  0  0  0  0  0
   16.1865   -9.8909  -18.2436 C   0  0  2  0  0  0  0  0  0  0  0  0
   17.0753  -10.8763  -17.7113 N   0  0  0  0  0  0  0  0  0  0  0  0
   16.7358   -8.5176  -18.1319 C   0  0  0  0  0  0  0  0  0  0  0  0
   16.0558   -7.5704  -18.6032 O   0  0  0  0  0  0  0  0  0  0  0  0
   17.9728   -8.2134  -17.5296 N   0  0  0  0  0  0  0  0  0  0  0  0
   18.5733   -6.9174  -17.4998 C   0  0  0  0  0  0  0  0  0  0  0  0
   19.1117   -6.5786  -16.1388 C   0  0  0  0  0  0  0  0  0  0  0  0
   18.5323   -6.9950  -15.1151 O   0  0  0  0  0  0  0  0  0  0  0  0
   22.7516   -9.8936  -13.6578 C   0  0  0  0  0  0  0  0  0  0  0  0
   22.5736   -8.0973  -13.4088 S   0  0  0  0  0  0  0  0  0  0  0  0
   22.5658   -7.2737  -15.0344 C   0  0  0  0  0  0  0  0  0  0  0  0
   22.3135   -5.8206  -14.8013 C   0  0  0  0  0  0  0  0  0  0  0  0
   20.8688   -5.4342  -14.7382 C   0  0  2  0  0  0  0  0  0  0  0  0
   20.2647   -5.7951  -16.0095 N   0  0  0  0  0  0  0  0  0  0  0  0
   20.6538   -3.9859  -14.4964 C   0  0  0  0  0  0  0  0  0  0  0  0
   20.6613   -3.4220  -13.2284 O   0  0  0  0  0  0  0  0  0  0  0  0
   20.4516   -3.1977  -15.4594 O   0  0  0  0  0  0  0  0  0  0  0  0
  2  1  1  1
  3  2  1  0
  4  6  1  0
  4  2  1  0
  5  4  2  0
  7  6  1  0
  8  9  2  0
  8  7  1  0
 10 11  1  0
 12 13  1  0
 12 11  1  0
 14 13  1  6
 14 16  1  0
 14 15  1  0
 15  8  1  0
 16 17  1  0
 18 16  2  0
M  END
$$$$
