AGM.pdb
     RDKit          3D

 18 17  0  0  1  0  0  0  0  0999 V2000
   14.8688  -10.2267  -16.7788 C   0  0  0  0  0  0  0  0  0  0  0  0
   16.2512  -10.7124  -16.4102 C   0  0  2  0  0  0  0  0  0  0  0  0
   16.2007  -11.3179  -15.1160 N   0  0  0  0  0  0  0  0  0  0  0  0
   17.1686   -9.5476  -16.4519 C   0  0  0  0  0  0  0  0  0  0  0  0
   18.1323   -9.5846  -17.2591 O   0  0  0  0  0  0  0  0  0  0  0  0
   17.0232   -8.4044  -15.6411 N   0  0  0  0  0  0  0  0  0  0  0  0
   17.8930   -7.2711  -15.6586 C   0  0  0  0  0  0  0  0  0  0  0  0
   19.0851   -7.4637  -14.7648 C   0  0  0  0  0  0  0  0  0  0  0  0
   18.9371   -7.9250  -13.6148 O   0  0  0  0  0  0  0  0  0  0  0  0
   26.3067  -10.0210  -14.6848 C   0  0  0  0  0  0  0  0  0  0  0  0
   24.7444   -9.6018  -15.5239 S   0  0  0  0  0  0  0  0  0  0  0  0
   23.7861   -8.4753  -14.4592 C   0  0  0  0  0  0  0  0  0  0  0  0
   22.4868   -8.2059  -15.1439 C   0  0  0  0  0  0  0  0  0  0  0  0
   21.5750   -7.2666  -14.4181 C   0  0  2  0  0  0  0  0  0  0  0  0
   20.3676   -7.1279  -15.2145 N   0  0  0  0  0  0  0  0  0  0  0  0
   22.1640   -5.9225  -14.1974 C   0  0  0  0  0  0  0  0  0  0  0  0
   22.8920   -5.5932  -13.0628 O   0  0  0  0  0  0  0  0  0  0  0  0
   22.0193   -5.0100  -15.0553 O   0  0  0  0  0  0  0  0  0  0  0  0
  2  1  1  1
  3  2  1  0
  4  6  1  0
  4  2  1  0
  5  4  2  0
  7  6  1  0
  8  9  2  0
  8  7  1  0
 10 11  1  0
 12 13  1  0
 12 11  1  0
 14 13  1  6
 14 16  1  0
 14 15  1  0
 15  8  1  0
 16 17  1  0
 18 16  2  0
M  END
$$$$
