AGM.pdb
     RDKit          3D

 18 17  0  0  1  0  0  0  0  0999 V2000
   22.5311  -19.0731  -14.3825 C   0  0  0  0  0  0  0  0  0  0  0  0
   22.0347  -20.3591  -13.7638 C   0  0  2  0  0  0  0  0  0  0  0  0
   20.9008  -20.0712  -12.9418 N   0  0  0  0  0  0  0  0  0  0  0  0
   23.1533  -20.9540  -12.9925 C   0  0  0  0  0  0  0  0  0  0  0  0
   24.2155  -21.2257  -13.6085 O   0  0  0  0  0  0  0  0  0  0  0  0
   23.0948  -21.2318  -11.6123 N   0  0  0  0  0  0  0  0  0  0  0  0
   24.1489  -21.8221  -10.8496 C   0  0  0  0  0  0  0  0  0  0  0  0
   25.1304  -20.7959  -10.3590 C   0  0  0  0  0  0  0  0  0  0  0  0
   25.0035  -19.5997  -10.6909 O   0  0  0  0  0  0  0  0  0  0  0  0
   26.8342  -20.3392   -4.7277 C   0  0  0  0  0  0  0  0  0  0  0  0
   28.5253  -19.9036   -5.2482 S   0  0  0  0  0  0  0  0  0  0  0  0
   28.5330  -19.6129   -7.0472 C   0  0  0  0  0  0  0  0  0  0  0  0
   27.4329  -20.4303   -7.6396 C   0  0  0  0  0  0  0  0  0  0  0  0
   27.2661  -20.2839   -9.1199 C   0  0  2  0  0  0  0  0  0  0  0  0
   26.1920  -21.1733   -9.5281 N   0  0  0  0  0  0  0  0  0  0  0  0
   28.4895  -20.6208   -9.8893 C   0  0  0  0  0  0  0  0  0  0  0  0
   29.5935  -19.7828   -9.9587 O   0  0  0  0  0  0  0  0  0  0  0  0
   28.5699  -21.7078  -10.5228 O   0  0  0  0  0  0  0  0  0  0  0  0
  2  1  1  1
  3  2  1  0
  4  6  1  0
  4  2  1  0
  5  4  2  0
  7  6  1  0
  8  9  2  0
  8  7  1  0
 10 11  1  0
 12 13  1  0
 12 11  1  0
 14 13  1  1
 14 16  1  0
 14 15  1  0
 15  8  1  0
 16 17  1  0
 18 16  2  0
M  END
$$$$
