AGM.pdb
     RDKit          3D

 18 17  0  0  1  0  0  0  0  0999 V2000
   25.6579  -17.5374  -16.4321 C   0  0  0  0  0  0  0  0  0  0  0  0
   26.3359  -17.7588  -15.1002 C   0  0  2  0  0  0  0  0  0  0  0  0
   27.7135  -18.0676  -15.3263 N   0  0  0  0  0  0  0  0  0  0  0  0
   25.6201  -18.8543  -14.4021 C   0  0  0  0  0  0  0  0  0  0  0  0
   24.4198  -18.6628  -14.0793 O   0  0  0  0  0  0  0  0  0  0  0  0
   26.2059  -20.0948  -14.0802 N   0  0  0  0  0  0  0  0  0  0  0  0
   25.5793  -21.1218  -13.3095 C   0  0  0  0  0  0  0  0  0  0  0  0
   26.3375  -21.4186  -12.0469 C   0  0  0  0  0  0  0  0  0  0  0  0
   26.9882  -22.4783  -11.9421 O   0  0  0  0  0  0  0  0  0  0  0  0
   29.5646  -19.4814   -6.8845 C   0  0  0  0  0  0  0  0  0  0  0  0
   27.8733  -18.9657   -6.4441 S   0  0  0  0  0  0  0  0  0  0  0  0
   26.6842  -20.0657   -7.2790 C   0  0  0  0  0  0  0  0  0  0  0  0
   26.9144  -19.9437   -8.7492 C   0  0  0  0  0  0  0  0  0  0  0  0
   26.1126  -20.8851   -9.5927 C   0  0  2  0  0  0  0  0  0  0  0  0
   26.3195  -20.5108  -10.9814 N   0  0  0  0  0  0  0  0  0  0  0  0
   24.6589  -20.8531   -9.2963 C   0  0  0  0  0  0  0  0  0  0  0  0
   24.1056  -21.4321   -8.1630 O   0  0  0  0  0  0  0  0  0  0  0  0
   23.8558  -20.2843  -10.0844 O   0  0  0  0  0  0  0  0  0  0  0  0
  2  1  1  6
  3  2  1  0
  4  6  1  0
  4  2  1  0
  5  4  2  0
  7  6  1  0
  8  9  2  0
  8  7  1  0
 10 11  1  0
 12 13  1  0
 12 11  1  0
 14 13  1  1
 14 16  1  0
 14 15  1  0
 15  8  1  0
 16 17  1  0
 18 16  2  0
M  END
$$$$
