AGM.pdb
     RDKit          3D

 18 17  0  0  1  0  0  0  0  0999 V2000
   27.1692  -16.5682  -15.1178 C   0  0  0  0  0  0  0  0  0  0  0  0
   26.3734  -17.8493  -15.0260 C   0  0  2  0  0  0  0  0  0  0  0  0
   25.2927  -17.6597  -14.1093 N   0  0  0  0  0  0  0  0  0  0  0  0
   27.2958  -18.9276  -14.5944 C   0  0  0  0  0  0  0  0  0  0  0  0
   28.2528  -19.2245  -15.3545 O   0  0  0  0  0  0  0  0  0  0  0  0
   27.1623  -19.6373  -13.3844 N   0  0  0  0  0  0  0  0  0  0  0  0
   28.0420  -20.6714  -12.9393 C   0  0  0  0  0  0  0  0  0  0  0  0
   27.7209  -21.1196  -11.5418 C   0  0  0  0  0  0  0  0  0  0  0  0
   28.3130  -22.1005  -11.0475 O   0  0  0  0  0  0  0  0  0  0  0  0
   28.6950  -20.0768   -5.0172 C   0  0  0  0  0  0  0  0  0  0  0  0
   27.6281  -19.0057   -6.0346 S   0  0  0  0  0  0  0  0  0  0  0  0
   26.5505  -20.0534   -7.0652 C   0  0  0  0  0  0  0  0  0  0  0  0
   27.0088  -19.9156   -8.4796 C   0  0  0  0  0  0  0  0  0  0  0  0
   26.3394  -20.8366   -9.4513 C   0  0  2  0  0  0  0  0  0  0  0  0
   26.7572  -20.4416  -10.7857 N   0  0  0  0  0  0  0  0  0  0  0  0
   24.8577  -20.7976   -9.3789 C   0  0  0  0  0  0  0  0  0  0  0  0
   24.1413  -21.2739   -8.2899 O   0  0  0  0  0  0  0  0  0  0  0  0
   24.1813  -20.3182  -10.3287 O   0  0  0  0  0  0  0  0  0  0  0  0
  2  1  1  1
  3  2  1  0
  4  6  1  0
  4  2  1  0
  5  4  2  0
  7  6  1  0
  8  9  2  0
  8  7  1  0
 10 11  1  0
 12 13  1  0
 12 11  1  0
 14 13  1  1
 14 16  1  0
 14 15  1  0
 15  8  1  0
 16 17  1  0
 18 16  2  0
M  END
$$$$
