GNL.pdb
     RDKit          3D

 21 20  0  0  1  0  0  0  0  0999 V2000
    5.3337  -20.0480   22.8316 N   0  0  0  0  0  0  0  0  0  0  0  0
    5.3647  -18.6501   23.2098 C   0  0  0  0  0  0  0  0  0  0  0  0
    6.7864  -18.1880   23.1896 C   0  0  0  0  0  0  0  0  0  0  0  0
    7.6137  -18.9207   23.7355 O   0  0  0  0  0  0  0  0  0  0  0  0
    9.5959  -16.9941   19.3320 N   0  0  0  0  0  0  0  0  0  0  0  0
    8.5688  -16.3745   20.0781 C   0  0  0  0  0  0  0  0  0  0  0  0
    7.3834  -16.5752   19.6254 O   0  0  0  0  0  0  0  0  0  0  0  0
    8.7806  -15.5645   21.2700 C   0  0  0  0  0  0  0  0  0  0  0  0
    8.4049  -16.3053   22.5326 C   0  0  2  0  0  0  0  0  0  0  0  0
    7.1905  -16.9938   22.5922 N   0  0  0  0  0  0  0  0  0  0  0  0
    8.8454  -15.5946   23.7448 C   0  0  0  0  0  0  0  0  0  0  0  0
   10.0450  -15.1405   23.8268 O   0  0  0  0  0  0  0  0  0  0  0  0
    5.6911  -12.1227   26.4700 C   0  0  0  0  0  0  0  0  0  0  0  0
    6.9005  -12.7574   25.8629 C   0  0  1  0  0  0  0  0  0  0  0  0
    7.8025  -11.6139   25.3985 C   0  0  0  0  0  0  0  0  0  0  0  0
    7.6057  -13.7727   26.6377 C   0  0  0  0  0  0  0  0  0  0  0  0
    8.5927  -14.6880   26.0793 C   0  0  2  0  0  0  0  0  0  0  0  0
    8.0149  -15.3642   24.8696 N   0  0  0  0  0  0  0  0  0  0  0  0
    9.2616  -15.6904   26.9090 C   0  0  0  0  0  0  0  0  0  0  0  0
   10.1518  -15.4599   27.9407 O   0  0  0  0  0  0  0  0  0  0  0  0
    9.0593  -16.9575   26.7197 O   0  0  0  0  0  0  0  0  0  0  0  0
  1  2  1  0
  3  4  2  0
  3  2  1  0
  5  6  1  0
  6  7  2  0
  6  8  1  0
  9  8  1  6
  9 10  1  0
 10  3  1  0
 11  9  1  0
 11 12  2  0
 14 13  1  1
 14 15  1  0
 16 14  1  0
 17 18  1  0
 17 16  1  1
 18 11  1  0
 19 17  1  0
 20 19  1  0
 21 19  2  0
M  END
$$$$
