GNL.pdb
     RDKit          3D

 21 20  0  0  1  0  0  0  0  0999 V2000
    8.5224  -19.2890   19.7786 N   0  0  0  0  0  0  0  0  0  0  0  0
    7.7866  -18.5133   20.7558 C   0  0  0  0  0  0  0  0  0  0  0  0
    8.5229  -17.2338   20.9928 C   0  0  0  0  0  0  0  0  0  0  0  0
    9.6780  -17.3302   21.4119 O   0  0  0  0  0  0  0  0  0  0  0  0
    8.8214  -12.6756   18.1553 N   0  0  0  0  0  0  0  0  0  0  0  0
    8.0476  -13.6062   18.8838 C   0  0  0  0  0  0  0  0  0  0  0  0
    7.5905  -14.5836   18.1866 O   0  0  0  0  0  0  0  0  0  0  0  0
    7.7609  -13.5134   20.3088 C   0  0  0  0  0  0  0  0  0  0  0  0
    8.3458  -14.6733   21.0813 C   0  0  2  0  0  0  0  0  0  0  0  0
    7.9611  -15.9780   20.7617 N   0  0  0  0  0  0  0  0  0  0  0  0
    8.5416  -14.3498   22.5044 C   0  0  0  0  0  0  0  0  0  0  0  0
    9.3705  -13.4299   22.8492 O   0  0  0  0  0  0  0  0  0  0  0  0
    8.0324  -11.9288   26.9130 C   0  0  0  0  0  0  0  0  0  0  0  0
    6.9801  -12.9609   26.6650 C   0  0  1  0  0  0  0  0  0  0  0  0
    5.6377  -12.2875   26.9497 C   0  0  0  0  0  0  0  0  0  0  0  0
    7.0091  -13.6805   25.3962 C   0  0  0  0  0  0  0  0  0  0  0  0
    8.0998  -14.5502   24.9743 C   0  0  2  0  0  0  0  0  0  0  0  0
    7.8587  -15.0000   23.5622 N   0  0  0  0  0  0  0  0  0  0  0  0
    8.5126  -15.7027   25.7755 C   0  0  0  0  0  0  0  0  0  0  0  0
    9.3761  -15.7022   26.8545 O   0  0  0  0  0  0  0  0  0  0  0  0
    8.0730  -16.8936   25.5092 O   0  0  0  0  0  0  0  0  0  0  0  0
  1  2  1  0
  3  4  2  0
  3  2  1  0
  5  6  1  0
  6  7  2  0
  6  8  1  0
  9  8  1  1
  9 10  1  0
 10  3  1  0
 11  9  1  0
 11 12  2  0
 14 13  1  6
 14 15  1  0
 16 14  1  0
 17 18  1  0
 17 16  1  1
 18 11  1  0
 19 17  1  0
 20 19  1  0
 21 19  2  0
M  END
$$$$
