GNL.pdb
     RDKit          3D

 21 20  0  0  1  0  0  0  0  0999 V2000
    7.8025  -14.1397   14.2900 N   0  0  0  0  0  0  0  0  0  0  0  0
    9.1664  -14.5756   14.5085 C   0  0  0  0  0  0  0  0  0  0  0  0
    9.2021  -15.4066   15.7508 C   0  0  0  0  0  0  0  0  0  0  0  0
    8.1766  -15.4232   16.4344 O   0  0  0  0  0  0  0  0  0  0  0  0
   12.2205  -19.2710   15.0449 N   0  0  0  0  0  0  0  0  0  0  0  0
   11.3388  -18.9336   16.0957 C   0  0  0  0  0  0  0  0  0  0  0  0
   10.1951  -19.5162   16.0421 O   0  0  0  0  0  0  0  0  0  0  0  0
   11.6498  -18.0077   17.1762 C   0  0  0  0  0  0  0  0  0  0  0  0
   10.6329  -16.8944   17.2788 C   0  0  2  0  0  0  0  0  0  0  0  0
   10.3224  -16.1382   16.1456 N   0  0  0  0  0  0  0  0  0  0  0  0
   10.7113  -16.1883   18.5687 C   0  0  0  0  0  0  0  0  0  0  0  0
   11.7750  -15.5405   18.8863 O   0  0  0  0  0  0  0  0  0  0  0  0
    6.6418  -13.2451   20.6154 C   0  0  0  0  0  0  0  0  0  0  0  0
    7.9856  -13.7718   20.2272 C   0  0  1  0  0  0  0  0  0  0  0  0
    8.8368  -12.5568   19.8584 C   0  0  0  0  0  0  0  0  0  0  0  0
    8.6541  -14.6905   21.1424 C   0  0  0  0  0  0  0  0  0  0  0  0
    9.8643  -15.4336   20.8157 C   0  0  2  0  0  0  0  0  0  0  0  0
    9.6626  -16.1677   19.5215 N   0  0  0  0  0  0  0  0  0  0  0  0
   10.4910  -16.3370   21.7809 C   0  0  0  0  0  0  0  0  0  0  0  0
   11.2400  -15.9856   22.8879 O   0  0  0  0  0  0  0  0  0  0  0  0
   10.3882  -17.6239   21.6561 O   0  0  0  0  0  0  0  0  0  0  0  0
  1  2  1  0
  3  4  2  0
  3  2  1  0
  5  6  1  0
  6  7  2  0
  6  8  1  0
  9  8  1  6
  9 10  1  0
 10  3  1  0
 11  9  1  0
 11 12  2  0
 14 13  1  1
 14 15  1  0
 16 14  1  0
 17 18  1  0
 17 16  1  1
 18 11  1  0
 19 17  1  0
 20 19  1  0
 21 19  2  0
M  END
$$$$
