GNL.pdb
     RDKit          3D

 21 20  0  0  1  0  0  0  0  0999 V2000
    4.9092  -19.6362   22.4790 N   0  0  0  0  0  0  0  0  0  0  0  0
    5.0254  -18.2761   22.9635 C   0  0  0  0  0  0  0  0  0  0  0  0
    6.4774  -17.9341   23.0635 C   0  0  0  0  0  0  0  0  0  0  0  0
    7.1671  -18.6570   23.7852 O   0  0  0  0  0  0  0  0  0  0  0  0
    9.7346  -16.9914   19.2481 N   0  0  0  0  0  0  0  0  0  0  0  0
    8.6702  -16.3741   19.9420 C   0  0  0  0  0  0  0  0  0  0  0  0
    7.5100  -16.5721   19.4271 O   0  0  0  0  0  0  0  0  0  0  0  0
    8.8198  -15.5691   21.1466 C   0  0  0  0  0  0  0  0  0  0  0  0
    8.3342  -16.2973   22.3787 C   0  0  2  0  0  0  0  0  0  0  0  0
    7.0546  -16.8587   22.3879 N   0  0  0  0  0  0  0  0  0  0  0  0
    8.8097  -15.6649   23.6206 C   0  0  0  0  0  0  0  0  0  0  0  0
   10.0491  -15.3502   23.7512 O   0  0  0  0  0  0  0  0  0  0  0  0
    5.5754  -12.3611   26.6035 C   0  0  0  0  0  0  0  0  0  0  0  0
    6.7364  -12.9560   25.8740 C   0  0  1  0  0  0  0  0  0  0  0  0
    7.4979  -11.7883   25.2469 C   0  0  0  0  0  0  0  0  0  0  0  0
    7.5968  -13.8875   26.5952 C   0  0  0  0  0  0  0  0  0  0  0  0
    8.5763  -14.7575   25.9568 C   0  0  2  0  0  0  0  0  0  0  0  0
    7.9723  -15.3649   24.7237 N   0  0  0  0  0  0  0  0  0  0  0  0
    9.2753  -15.8015   26.7064 C   0  0  0  0  0  0  0  0  0  0  0  0
    9.2824  -17.1574   26.4395 O   0  0  0  0  0  0  0  0  0  0  0  0
    9.9837  -15.5117   27.7536 O   0  0  0  0  0  0  0  0  0  0  0  0
  1  2  1  0
  3  4  2  0
  3  2  1  0
  5  6  1  0
  6  7  2  0
  6  8  1  0
  9  8  1  6
  9 10  1  0
 10  3  1  0
 11  9  1  0
 11 12  2  0
 14 13  1  1
 14 15  1  0
 16 14  1  0
 17 18  1  0
 17 16  1  1
 18 11  1  0
 19 17  1  0
 20 19  1  0
 21 19  2  0
M  END
$$$$
