GNL.pdb
     RDKit          3D

 21 20  0  0  1  0  0  0  0  0999 V2000
    5.8056  -19.0438   21.2425 N   0  0  0  0  0  0  0  0  0  0  0  0
    5.6562  -17.6033   21.2133 C   0  0  0  0  0  0  0  0  0  0  0  0
    6.9839  -16.9858   21.5146 C   0  0  0  0  0  0  0  0  0  0  0  0
    7.8838  -17.7524   21.8636 O   0  0  0  0  0  0  0  0  0  0  0  0
    7.0917  -12.7018   19.0854 N   0  0  0  0  0  0  0  0  0  0  0  0
    8.0896  -13.5078   19.6770 C   0  0  0  0  0  0  0  0  0  0  0  0
    8.6661  -14.3239   18.8694 O   0  0  0  0  0  0  0  0  0  0  0  0
    8.4731  -13.4585   21.0812 C   0  0  0  0  0  0  0  0  0  0  0  0
    8.3048  -14.7972   21.7620 C   0  0  2  0  0  0  0  0  0  0  0  0
    7.2263  -15.6154   21.4160 N   0  0  0  0  0  0  0  0  0  0  0  0
    8.6982  -14.7519   23.1803 C   0  0  0  0  0  0  0  0  0  0  0  0
    9.8508  -14.2927   23.5161 O   0  0  0  0  0  0  0  0  0  0  0  0
    5.8882  -12.2511   26.8129 C   0  0  0  0  0  0  0  0  0  0  0  0
    7.0733  -12.8560   26.1320 C   0  0  1  0  0  0  0  0  0  0  0  0
    8.2459  -11.9073   26.3800 C   0  0  0  0  0  0  0  0  0  0  0  0
    7.3889  -14.2522   26.4134 C   0  0  0  0  0  0  0  0  0  0  0  0
    8.3526  -15.0412   25.6567 C   0  0  2  0  0  0  0  0  0  0  0  0
    7.8703  -15.1920   24.2428 N   0  0  0  0  0  0  0  0  0  0  0  0
    8.8240  -16.3398   26.1383 C   0  0  0  0  0  0  0  0  0  0  0  0
    8.8629  -17.5273   25.4324 O   0  0  0  0  0  0  0  0  0  0  0  0
    9.2645  -16.4835   27.3498 O   0  0  0  0  0  0  0  0  0  0  0  0
  1  2  1  0
  3  4  2  0
  3  2  1  0
  5  6  1  0
  6  7  2  0
  6  8  1  0
  9  8  1  1
  9 10  1  0
 10  3  1  0
 11  9  1  0
 11 12  2  0
 14 13  1  1
 14 15  1  0
 16 14  1  0
 17 18  1  0
 17 16  1  1
 18 11  1  0
 19 17  1  0
 20 19  1  0
 21 19  2  0
M  END
$$$$
