GNL.pdb
     RDKit          3D

 21 20  0  0  1  0  0  0  0  0999 V2000
    8.0847  -12.8470   18.0480 N   0  0  0  0  0  0  0  0  0  0  0  0
    8.9711  -13.0523   19.1751 C   0  0  0  0  0  0  0  0  0  0  0  0
    8.3132  -14.0006   20.1253 C   0  0  0  0  0  0  0  0  0  0  0  0
    7.0894  -14.1148   20.0338 O   0  0  0  0  0  0  0  0  0  0  0  0
   11.1112  -16.4770   20.9198 N   0  0  0  0  0  0  0  0  0  0  0  0
   10.1189  -17.4371   21.2183 C   0  0  0  0  0  0  0  0  0  0  0  0
   10.4433  -18.6474   20.9349 O   0  0  0  0  0  0  0  0  0  0  0  0
    8.8184  -17.1344   21.8000 C   0  0  0  0  0  0  0  0  0  0  0  0
    8.6444  -15.6559   22.0607 C   0  0  2  0  0  0  0  0  0  0  0  0
    9.0186  -14.7345   21.0793 N   0  0  0  0  0  0  0  0  0  0  0  0
    8.9161  -15.3042   23.4646 C   0  0  0  0  0  0  0  0  0  0  0  0
   10.1037  -14.9744   23.8292 O   0  0  0  0  0  0  0  0  0  0  0  0
    5.6117  -12.2328   26.4177 C   0  0  0  0  0  0  0  0  0  0  0  0
    6.9034  -12.8177   25.9450 C   0  0  1  0  0  0  0  0  0  0  0  0
    7.9604  -11.7263   26.1138 C   0  0  0  0  0  0  0  0  0  0  0  0
    7.3126  -14.1085   26.4879 C   0  0  0  0  0  0  0  0  0  0  0  0
    8.3306  -14.9619   25.8886 C   0  0  2  0  0  0  0  0  0  0  0  0
    7.9296  -15.3009   24.4819 N   0  0  0  0  0  0  0  0  0  0  0  0
    8.7983  -16.1776   26.5548 C   0  0  0  0  0  0  0  0  0  0  0  0
    9.5455  -16.2586   27.7145 O   0  0  0  0  0  0  0  0  0  0  0  0
    8.5334  -17.3504   26.0682 O   0  0  0  0  0  0  0  0  0  0  0  0
  1  2  1  0
  3  4  2  0
  3  2  1  0
  5  6  1  0
  6  7  2  0
  6  8  1  0
  9  8  1  6
  9 10  1  0
 10  3  1  0
 11  9  1  0
 11 12  2  0
 14 13  1  1
 14 15  1  0
 16 14  1  0
 17 18  1  0
 17 16  1  1
 18 11  1  0
 19 17  1  0
 20 19  1  0
 21 19  2  0
M  END
$$$$
