GNL.pdb
     RDKit          3D

 21 20  0  0  1  0  0  0  0  0999 V2000
    5.3379  -18.6074   20.9956 N   0  0  0  0  0  0  0  0  0  0  0  0
    5.2923  -17.2545   21.5111 C   0  0  0  0  0  0  0  0  0  0  0  0
    6.6947  -16.7912   21.7429 C   0  0  0  0  0  0  0  0  0  0  0  0
    7.5087  -17.6473   22.0946 O   0  0  0  0  0  0  0  0  0  0  0  0
    7.2450  -12.6690   19.0686 N   0  0  0  0  0  0  0  0  0  0  0  0
    8.1191  -13.6008   19.6713 C   0  0  0  0  0  0  0  0  0  0  0  0
    8.4839  -14.5651   18.9049 O   0  0  0  0  0  0  0  0  0  0  0  0
    8.5987  -13.5223   21.0444 C   0  0  0  0  0  0  0  0  0  0  0  0
    8.2864  -14.7774   21.8263 C   0  0  2  0  0  0  0  0  0  0  0  0
    7.0955  -15.4651   21.5787 N   0  0  0  0  0  0  0  0  0  0  0  0
    8.7450  -14.6897   23.2229 C   0  0  0  0  0  0  0  0  0  0  0  0
    9.9596  -14.3603   23.4839 O   0  0  0  0  0  0  0  0  0  0  0  0
    5.9276  -12.1986   26.8384 C   0  0  0  0  0  0  0  0  0  0  0  0
    7.1266  -12.7320   26.1229 C   0  0  1  0  0  0  0  0  0  0  0  0
    8.1618  -11.6073   26.1149 C   0  0  0  0  0  0  0  0  0  0  0  0
    7.6697  -14.0154   26.5545 C   0  0  0  0  0  0  0  0  0  0  0  0
    8.5051  -14.8713   25.7219 C   0  0  2  0  0  0  0  0  0  0  0  0
    7.9167  -14.9500   24.3428 N   0  0  0  0  0  0  0  0  0  0  0  0
    8.8893  -16.2161   26.1513 C   0  0  0  0  0  0  0  0  0  0  0  0
    9.6667  -16.5529   27.2431 O   0  0  0  0  0  0  0  0  0  0  0  0
    8.5075  -17.2638   25.4887 O   0  0  0  0  0  0  0  0  0  0  0  0
  1  2  1  0
  3  4  2  0
  3  2  1  0
  5  6  1  0
  6  7  2  0
  6  8  1  0
  9  8  1  1
  9 10  1  0
 10  3  1  0
 11  9  1  0
 11 12  2  0
 14 13  1  1
 14 15  1  0
 16 14  1  0
 17 18  1  0
 17 16  1  1
 18 11  1  0
 19 17  1  0
 20 19  1  0
 21 19  2  0
M  END
$$$$
