MWD.pdb
     RDKit          3D

 31 32  0  0  1  0  0  0  0  0999 V2000
   12.9677  -20.2942   16.4957 C   0  0  0  0  0  0  0  0  0  0  0  0
   12.6246  -19.6978   18.1611 S   0  0  0  0  0  0  0  0  0  0  0  0
   11.2344  -18.5684   18.2225 C   0  0  0  0  0  0  0  0  0  0  0  0
   10.9409  -18.1239   19.6542 C   0  0  0  0  0  0  0  0  0  0  0  0
    9.7310  -17.2219   19.5763 C   0  0  2  0  0  0  0  0  0  0  0  0
    9.8340  -16.4092   18.3965 N   0  0  0  0  0  0  0  0  0  0  0  0
    9.5656  -16.3570   20.7523 C   0  0  0  0  0  0  0  0  0  0  0  0
   10.2492  -15.3118   20.8401 O   0  0  0  0  0  0  0  0  0  0  0  0
    8.6601  -16.6346   21.8217 N   0  0  0  0  0  0  0  0  0  0  0  0
    8.4995  -15.7884   22.9725 C   0  0  1  0  0  0  0  0  0  0  0  0
    7.1202  -15.7933   23.5765 C   0  0  0  0  0  0  0  0  0  0  0  0
    6.9958  -15.0851   24.8562 C   0  0  0  0  0  0  0  0  0  0  0  0
    6.8283  -15.6566   26.0999 C   0  0  0  0  0  0  0  0  0  0  0  0
    6.7367  -14.6901   27.0261 N   0  0  0  0  0  0  0  0  0  0  0  0
    6.8390  -13.4855   26.4369 C   0  0  0  0  0  0  0  0  0  0  0  0
    6.8144  -12.1817   26.9384 C   0  0  0  0  0  0  0  0  0  0  0  0
    6.9508  -11.0959   26.1028 C   0  0  0  0  0  0  0  0  0  0  0  0
    7.1124  -11.3292   24.7579 C   0  0  0  0  0  0  0  0  0  0  0  0
    7.1365  -12.6132   24.2640 C   0  0  0  0  0  0  0  0  0  0  0  0
    7.0016  -13.7310   25.0779 C   0  0  0  0  0  0  0  0  0  0  0  0
    9.5460  -16.0612   24.0039 C   0  0  0  0  0  0  0  0  0  0  0  0
    9.5985  -15.4192   25.0841 O   0  0  0  0  0  0  0  0  0  0  0  0
   10.5407  -17.0784   23.7949 N   0  0  0  0  0  0  0  0  0  0  0  0
   11.5760  -17.2713   24.7925 C   0  0  1  0  0  0  0  0  0  0  0  0
   11.3722  -18.5252   25.5803 C   0  0  0  0  0  0  0  0  0  0  0  0
   11.1924  -19.7252   24.7766 C   0  0  0  0  0  0  0  0  0  0  0  0
   11.1463  -19.6589   23.5310 O   0  0  0  0  0  0  0  0  0  0  0  0
   12.9315  -17.2116   24.1674 C   0  0  0  0  0  0  0  0  0  0  0  0
   13.9783  -17.1513   24.8563 O   0  0  0  0  0  0  0  0  0  0  0  0
   11.0702  -20.9579   25.3801 O   0  0  0  0  0  0  0  0  0  0  0  0
   13.0760  -17.2210   22.7898 O   0  0  0  0  0  0  0  0  0  0  0  0
  2  1  1  0
  3  2  1  0
  4  3  1  0
  5  4  1  0
  5  6  1  6
  7  5  1  0
  8  7  2  0
  9  7  1  0
 10  9  1  0
 11 12  1  0
 10 11  1  1
 12 20  1  0
 12 13  2  0
 13 14  1  0
 15 14  1  0
 15 16  2  0
 17 16  1  0
 18 17  2  0
 19 20  2  0
 19 18  1  0
 20 15  1  0
 21 22  2  0
 21 10  1  0
 23 21  1  0
 24 23  1  0
 24 25  1  6
 26 25  1  0
 27 26  2  0
 28 24  1  0
 29 28  2  0
 30 26  1  0
 31 28  1  0
M  END
$$$$
