MWD.pdb
     RDKit          3D

 31 32  0  0  1  0  0  0  0  0999 V2000
    6.7475  -11.5017   20.6620 C   0  0  0  0  0  0  0  0  0  0  0  0
    7.6451  -12.7733   19.7544 S   0  0  0  0  0  0  0  0  0  0  0  0
    7.7193  -14.3335   20.6334 C   0  0  0  0  0  0  0  0  0  0  0  0
    8.5571  -15.3609   19.8745 C   0  0  0  0  0  0  0  0  0  0  0  0
    8.6884  -16.5567   20.7890 C   0  0  2  0  0  0  0  0  0  0  0  0
    7.3748  -17.0412   21.1099 N   0  0  0  0  0  0  0  0  0  0  0  0
    9.4200  -16.2701   22.0304 C   0  0  0  0  0  0  0  0  0  0  0  0
   10.4961  -15.6330   21.9694 O   0  0  0  0  0  0  0  0  0  0  0  0
    8.9770  -16.6775   23.3259 N   0  0  0  0  0  0  0  0  0  0  0  0
    9.7113  -16.4282   24.5363 C   0  0  1  0  0  0  0  0  0  0  0  0
    8.8707  -16.3440   25.7827 C   0  0  0  0  0  0  0  0  0  0  0  0
    7.6936  -15.4723   25.6850 C   0  0  0  0  0  0  0  0  0  0  0  0
    6.4055  -15.8603   25.3825 C   0  0  0  0  0  0  0  0  0  0  0  0
    5.6067  -14.7823   25.3683 N   0  0  0  0  0  0  0  0  0  0  0  0
    6.3248  -13.6815   25.6538 C   0  0  0  0  0  0  0  0  0  0  0  0
    5.9820  -12.3321   25.7708 C   0  0  0  0  0  0  0  0  0  0  0  0
    6.9279  -11.3832   26.0875 C   0  0  0  0  0  0  0  0  0  0  0  0
    8.2227  -11.7997   26.2862 C   0  0  0  0  0  0  0  0  0  0  0  0
    8.5603  -13.1285   26.1710 C   0  0  0  0  0  0  0  0  0  0  0  0
    7.6319  -14.1119   25.8527 C   0  0  0  0  0  0  0  0  0  0  0  0
   10.8371  -17.3967   24.7038 C   0  0  0  0  0  0  0  0  0  0  0  0
   10.6669  -18.6385   24.6005 O   0  0  0  0  0  0  0  0  0  0  0  0
   12.1689  -16.9375   24.9923 N   0  0  0  0  0  0  0  0  0  0  0  0
   13.2199  -17.9116   25.2176 C   0  0  1  0  0  0  0  0  0  0  0  0
   14.5815  -17.3257   25.0244 C   0  0  0  0  0  0  0  0  0  0  0  0
   14.7409  -16.5481   23.8045 C   0  0  0  0  0  0  0  0  0  0  0  0
   14.2114  -16.9190   22.7367 O   0  0  0  0  0  0  0  0  0  0  0  0
   13.0673  -18.5550   26.5572 C   0  0  0  0  0  0  0  0  0  0  0  0
   12.1875  -18.1890   27.3733 O   0  0  0  0  0  0  0  0  0  0  0  0
   15.4812  -15.3860   23.8090 O   0  0  0  0  0  0  0  0  0  0  0  0
   13.9037  -19.5892   26.9444 O   0  0  0  0  0  0  0  0  0  0  0  0
  2  1  1  0
  3  2  1  0
  4  3  1  0
  5  4  1  0
  5  6  1  1
  7  5  1  0
  8  7  2  0
  9  7  1  0
 10  9  1  0
 11 12  1  0
 10 11  1  1
 12 20  1  0
 12 13  2  0
 13 14  1  0
 15 14  1  0
 15 16  2  0
 17 16  1  0
 18 17  2  0
 19 20  2  0
 19 18  1  0
 20 15  1  0
 21 22  2  0
 21 10  1  0
 23 21  1  0
 24 23  1  0
 24 25  1  1
 26 25  1  0
 27 26  2  0
 28 24  1  0
 29 28  2  0
 30 26  1  0
 31 28  1  0
M  END
$$$$
