MWD.pdb
     RDKit          3D

 31 32  0  0  1  0  0  0  0  0999 V2000
    7.6400  -11.4067   19.9406 C   0  0  0  0  0  0  0  0  0  0  0  0
    6.9980  -12.7300   18.8998 S   0  0  0  0  0  0  0  0  0  0  0  0
    7.4652  -14.3600   19.4804 C   0  0  0  0  0  0  0  0  0  0  0  0
    8.2599  -14.2806   20.7826 C   0  0  0  0  0  0  0  0  0  0  0  0
    8.6648  -15.6976   21.1168 C   0  0  2  0  0  0  0  0  0  0  0  0
    7.4875  -16.5196   21.1536 N   0  0  0  0  0  0  0  0  0  0  0  0
    9.3849  -15.8182   22.3917 C   0  0  0  0  0  0  0  0  0  0  0  0
   10.5020  -15.2665   22.5143 O   0  0  0  0  0  0  0  0  0  0  0  0
    8.8858  -16.5363   23.5211 N   0  0  0  0  0  0  0  0  0  0  0  0
    9.5760  -16.6271   24.7788 C   0  0  1  0  0  0  0  0  0  0  0  0
    8.6865  -16.6104   25.9937 C   0  0  0  0  0  0  0  0  0  0  0  0
    7.6023  -15.6214   25.9609 C   0  0  0  0  0  0  0  0  0  0  0  0
    6.2842  -15.8564   25.6311 C   0  0  0  0  0  0  0  0  0  0  0  0
    5.5962  -14.7062   25.6968 N   0  0  0  0  0  0  0  0  0  0  0  0
    6.4177  -13.7061   26.0624 C   0  0  0  0  0  0  0  0  0  0  0  0
    6.2094  -12.3417   26.2787 C   0  0  0  0  0  0  0  0  0  0  0  0
    7.2424  -11.5171   26.6642 C   0  0  0  0  0  0  0  0  0  0  0  0
    8.4882  -12.0735   26.8312 C   0  0  0  0  0  0  0  0  0  0  0  0
    8.6933  -13.4173   26.6181 C   0  0  0  0  0  0  0  0  0  0  0  0
    7.6744  -14.2776   26.2286 C   0  0  0  0  0  0  0  0  0  0  0  0
   10.5135  -17.7906   24.8068 C   0  0  0  0  0  0  0  0  0  0  0  0
   10.1319  -18.9587   24.5391 O   0  0  0  0  0  0  0  0  0  0  0  0
   11.8999  -17.6132   25.1450 N   0  0  0  0  0  0  0  0  0  0  0  0
   12.7994  -18.7482   25.0611 C   0  0  1  0  0  0  0  0  0  0  0  0
   14.0307  -18.4339   24.2741 C   0  0  0  0  0  0  0  0  0  0  0  0
   15.0340  -19.4882   24.2686 C   0  0  0  0  0  0  0  0  0  0  0  0
   14.7181  -20.6719   24.5078 O   0  0  0  0  0  0  0  0  0  0  0  0
   13.1187  -19.2726   26.4230 C   0  0  0  0  0  0  0  0  0  0  0  0
   13.7829  -20.3236   26.5910 O   0  0  0  0  0  0  0  0  0  0  0  0
   16.3529  -19.1956   23.9980 O   0  0  0  0  0  0  0  0  0  0  0  0
   12.6855  -18.6055   27.5571 O   0  0  0  0  0  0  0  0  0  0  0  0
  2  1  1  0
  3  2  1  0
  4  3  1  0
  5  4  1  0
  5  6  1  1
  7  5  1  0
  8  7  2  0
  9  7  1  0
 10  9  1  0
 11 12  1  0
 10 11  1  1
 12 20  1  0
 12 13  2  0
 13 14  1  0
 15 14  1  0
 15 16  2  0
 17 16  1  0
 18 17  2  0
 19 20  2  0
 19 18  1  0
 20 15  1  0
 21 22  2  0
 21 10  1  0
 23 21  1  0
 24 23  1  0
 24 25  1  1
 26 25  1  0
 27 26  2  0
 28 24  1  0
 29 28  2  0
 30 26  1  0
 31 28  1  0
M  END
$$$$
