MWD.pdb
     RDKit          3D

 31 32  0  0  1  0  0  0  0  0999 V2000
    8.3559  -11.6264   18.2575 C   0  0  0  0  0  0  0  0  0  0  0  0
    7.0756  -12.8869   18.1215 S   0  0  0  0  0  0  0  0  0  0  0  0
    7.5449  -14.4397   18.8836 C   0  0  0  0  0  0  0  0  0  0  0  0
    9.0547  -14.5187   19.1022 C   0  0  0  0  0  0  0  0  0  0  0  0
    9.3101  -15.8273   19.8134 C   0  0  2  0  0  0  0  0  0  0  0  0
    8.2389  -16.7355   19.5119 N   0  0  0  0  0  0  0  0  0  0  0  0
    9.4380  -15.6895   21.2705 C   0  0  0  0  0  0  0  0  0  0  0  0
   10.3991  -15.0374   21.7381 O   0  0  0  0  0  0  0  0  0  0  0  0
    8.5219  -16.2604   22.2060 N   0  0  0  0  0  0  0  0  0  0  0  0
    8.6067  -16.0657   23.6277 C   0  0  1  0  0  0  0  0  0  0  0  0
    7.2815  -16.0015   24.3398 C   0  0  0  0  0  0  0  0  0  0  0  0
    7.3122  -15.3626   25.6610 C   0  0  0  0  0  0  0  0  0  0  0  0
    7.5563  -15.9816   26.8687 C   0  0  0  0  0  0  0  0  0  0  0  0
    7.4841  -15.0764   27.8565 N   0  0  0  0  0  0  0  0  0  0  0  0
    7.1985  -13.8665   27.3434 C   0  0  0  0  0  0  0  0  0  0  0  0
    7.0229  -12.6090   27.9263 C   0  0  0  0  0  0  0  0  0  0  0  0
    6.7377  -11.5028   27.1579 C   0  0  0  0  0  0  0  0  0  0  0  0
    6.6298  -11.6687   25.7977 C   0  0  0  0  0  0  0  0  0  0  0  0
    6.8026  -12.9071   25.2236 C   0  0  0  0  0  0  0  0  0  0  0  0
    7.0909  -14.0438   25.9685 C   0  0  0  0  0  0  0  0  0  0  0  0
    9.5186  -17.0641   24.2643 C   0  0  0  0  0  0  0  0  0  0  0  0
    9.3175  -18.3022   24.1717 O   0  0  0  0  0  0  0  0  0  0  0  0
   10.6702  -16.6393   25.0134 N   0  0  0  0  0  0  0  0  0  0  0  0
   11.5736  -17.6395   25.5498 C   0  0  1  0  0  0  0  0  0  0  0  0
   13.0071  -17.2481   25.3881 C   0  0  0  0  0  0  0  0  0  0  0  0
   13.4021  -16.9382   24.0220 C   0  0  0  0  0  0  0  0  0  0  0  0
   14.0923  -15.9292   23.7699 O   0  0  0  0  0  0  0  0  0  0  0  0
   11.2315  -17.9553   26.9693 C   0  0  0  0  0  0  0  0  0  0  0  0
   11.7558  -18.9174   27.5804 O   0  0  0  0  0  0  0  0  0  0  0  0
   13.0195  -17.7568   22.9819 O   0  0  0  0  0  0  0  0  0  0  0  0
   10.3129  -17.1852   27.6634 O   0  0  0  0  0  0  0  0  0  0  0  0
  2  1  1  0
  3  2  1  0
  4  3  1  0
  5  4  1  0
  5  6  1  1
  7  5  1  0
  8  7  2  0
  9  7  1  0
 10  9  1  0
 11 12  1  0
 10 11  1  1
 12 20  1  0
 12 13  2  0
 13 14  1  0
 15 14  1  0
 15 16  2  0
 17 16  1  0
 18 17  2  0
 19 20  2  0
 19 18  1  0
 20 15  1  0
 21 22  2  0
 21 10  1  0
 23 21  1  0
 24 23  1  0
 24 25  1  1
 26 25  1  0
 27 26  2  0
 28 24  1  0
 29 28  2  0
 30 26  1  0
 31 28  1  0
M  END
$$$$
