MWD.pdb
     RDKit          3D

 31 32  0  0  1  0  0  0  0  0999 V2000
    7.9844  -11.7242   17.6784 C   0  0  0  0  0  0  0  0  0  0  0  0
    7.6885  -13.2897   16.8369 S   0  0  0  0  0  0  0  0  0  0  0  0
    8.3603  -14.6942   17.7249 C   0  0  0  0  0  0  0  0  0  0  0  0
    8.5566  -14.3745   19.2058 C   0  0  0  0  0  0  0  0  0  0  0  0
    9.1572  -15.6133   19.8287 C   0  0  2  0  0  0  0  0  0  0  0  0
    8.3211  -16.7396   19.5194 N   0  0  0  0  0  0  0  0  0  0  0  0
    9.3268  -15.5162   21.2849 C   0  0  0  0  0  0  0  0  0  0  0  0
   10.1926  -14.7384   21.7462 O   0  0  0  0  0  0  0  0  0  0  0  0
    8.5553  -16.2639   22.2262 N   0  0  0  0  0  0  0  0  0  0  0  0
    8.5842  -16.0339   23.6449 C   0  0  1  0  0  0  0  0  0  0  0  0
    7.2325  -15.9697   24.3052 C   0  0  0  0  0  0  0  0  0  0  0  0
    7.2309  -15.4439   25.6757 C   0  0  0  0  0  0  0  0  0  0  0  0
    7.2800  -16.1814   26.8398 C   0  0  0  0  0  0  0  0  0  0  0  0
    7.2425  -15.3528   27.8946 N   0  0  0  0  0  0  0  0  0  0  0  0
    7.1701  -14.0792   27.4689 C   0  0  0  0  0  0  0  0  0  0  0  0
    7.1145  -12.8575   28.1445 C   0  0  0  0  0  0  0  0  0  0  0  0
    7.0511  -11.6667   27.4562 C   0  0  0  0  0  0  0  0  0  0  0  0
    7.0440  -11.7117   26.0824 C   0  0  0  0  0  0  0  0  0  0  0  0
    7.0987  -12.9148   25.4171 C   0  0  0  0  0  0  0  0  0  0  0  0
    7.1630  -14.1343   26.0795 C   0  0  0  0  0  0  0  0  0  0  0  0
    9.4833  -17.0049   24.3393 C   0  0  0  0  0  0  0  0  0  0  0  0
    9.0757  -18.1309   24.7239 O   0  0  0  0  0  0  0  0  0  0  0  0
   10.8610  -16.6821   24.5951 N   0  0  0  0  0  0  0  0  0  0  0  0
   11.6792  -17.6164   25.3449 C   0  0  1  0  0  0  0  0  0  0  0  0
   13.1337  -17.2812   25.2647 C   0  0  0  0  0  0  0  0  0  0  0  0
   13.6699  -17.2210   23.9130 C   0  0  0  0  0  0  0  0  0  0  0  0
   13.1344  -17.8606   22.9843 O   0  0  0  0  0  0  0  0  0  0  0  0
   11.2018  -17.7239   26.7564 C   0  0  0  0  0  0  0  0  0  0  0  0
   11.4690  -18.7178   27.4738 O   0  0  0  0  0  0  0  0  0  0  0  0
   14.7806  -16.4543   23.6360 O   0  0  0  0  0  0  0  0  0  0  0  0
   10.4395  -16.7161   27.3238 O   0  0  0  0  0  0  0  0  0  0  0  0
  2  1  1  0
  3  2  1  0
  4  3  1  0
  5  4  1  0
  5  6  1  1
  7  5  1  0
  8  7  2  0
  9  7  1  0
 10  9  1  0
 11 12  1  0
 10 11  1  1
 12 20  1  0
 12 13  2  0
 13 14  1  0
 15 14  1  0
 15 16  2  0
 17 16  1  0
 18 17  2  0
 19 20  2  0
 19 18  1  0
 20 15  1  0
 21 22  2  0
 21 10  1  0
 23 21  1  0
 24 23  1  0
 24 25  1  1
 26 25  1  0
 27 26  2  0
 28 24  1  0
 29 28  2  0
 30 26  1  0
 31 28  1  0
M  END
$$$$
