MWD.pdb
     RDKit          3D

 31 32  0  0  1  0  0  0  0  0999 V2000
    7.6711  -11.4600   19.4222 C   0  0  0  0  0  0  0  0  0  0  0  0
    6.6711  -12.8678   18.9077 S   0  0  0  0  0  0  0  0  0  0  0  0
    7.3025  -14.4297   19.5192 C   0  0  0  0  0  0  0  0  0  0  0  0
    8.2527  -14.2232   20.6973 C   0  0  0  0  0  0  0  0  0  0  0  0
    8.7052  -15.6013   21.1209 C   0  0  2  0  0  0  0  0  0  0  0  0
    7.5521  -16.4475   21.2535 N   0  0  0  0  0  0  0  0  0  0  0  0
    9.4647  -15.6102   22.3785 C   0  0  0  0  0  0  0  0  0  0  0  0
   10.5193  -14.9400   22.4574 O   0  0  0  0  0  0  0  0  0  0  0  0
    9.0726  -16.3460   23.5383 N   0  0  0  0  0  0  0  0  0  0  0  0
    9.7609  -16.2776   24.7984 C   0  0  1  0  0  0  0  0  0  0  0  0
    8.8716  -16.3413   26.0118 C   0  0  0  0  0  0  0  0  0  0  0  0
    7.6931  -15.4672   25.9695 C   0  0  0  0  0  0  0  0  0  0  0  0
    6.3910  -15.8529   25.7303 C   0  0  0  0  0  0  0  0  0  0  0  0
    5.5948  -14.7731   25.7528 N   0  0  0  0  0  0  0  0  0  0  0  0
    6.3282  -13.6734   26.0013 C   0  0  0  0  0  0  0  0  0  0  0  0
    5.9943  -12.3231   26.1322 C   0  0  0  0  0  0  0  0  0  0  0  0
    6.9564  -11.3757   26.4012 C   0  0  0  0  0  0  0  0  0  0  0  0
    8.2584  -11.7948   26.5378 C   0  0  0  0  0  0  0  0  0  0  0  0
    8.5872  -13.1246   26.4088 C   0  0  0  0  0  0  0  0  0  0  0  0
    7.6425  -14.1064   26.1376 C   0  0  0  0  0  0  0  0  0  0  0  0
   10.8617  -17.2854   24.8771 C   0  0  0  0  0  0  0  0  0  0  0  0
   10.6608  -18.5078   24.6600 O   0  0  0  0  0  0  0  0  0  0  0  0
   12.2036  -16.8883   25.2078 N   0  0  0  0  0  0  0  0  0  0  0  0
   13.2275  -17.9058   25.3513 C   0  0  1  0  0  0  0  0  0  0  0  0
   14.5985  -17.3637   25.1049 C   0  0  0  0  0  0  0  0  0  0  0  0
   14.7545  -16.6563   23.8426 C   0  0  0  0  0  0  0  0  0  0  0  0
   14.1100  -17.0038   22.8316 O   0  0  0  0  0  0  0  0  0  0  0  0
   13.1186  -18.5831   26.6784 C   0  0  0  0  0  0  0  0  0  0  0  0
   12.2958  -18.2099   27.5489 O   0  0  0  0  0  0  0  0  0  0  0  0
   15.6187  -15.5878   23.7431 O   0  0  0  0  0  0  0  0  0  0  0  0
   13.9336  -19.6582   26.9926 O   0  0  0  0  0  0  0  0  0  0  0  0
  2  1  1  0
  3  2  1  0
  4  3  1  0
  5  4  1  0
  5  6  1  1
  7  5  1  0
  8  7  2  0
  9  7  1  0
 10  9  1  0
 11 12  1  0
 10 11  1  1
 12 20  1  0
 12 13  2  0
 13 14  1  0
 15 14  1  0
 15 16  2  0
 17 16  1  0
 18 17  2  0
 19 20  2  0
 19 18  1  0
 20 15  1  0
 21 22  2  0
 21 10  1  0
 23 21  1  0
 24 23  1  0
 24 25  1  1
 26 25  1  0
 27 26  2  0
 28 24  1  0
 29 28  2  0
 30 26  1  0
 31 28  1  0
M  END
$$$$
