MWD.pdb
     RDKit          3D

 31 32  0  0  1  0  0  0  0  0999 V2000
    7.5175  -11.4993   19.6353 C   0  0  0  0  0  0  0  0  0  0  0  0
    6.6101  -12.9540   19.0813 S   0  0  0  0  0  0  0  0  0  0  0  0
    7.3160  -14.4861   19.6869 C   0  0  0  0  0  0  0  0  0  0  0  0
    8.4573  -14.2238   20.6679 C   0  0  0  0  0  0  0  0  0  0  0  0
    8.9461  -15.5807   21.1190 C   0  0  2  0  0  0  0  0  0  0  0  0
    7.8480  -16.5059   21.0786 N   0  0  0  0  0  0  0  0  0  0  0  0
    9.5321  -15.5767   22.4662 C   0  0  0  0  0  0  0  0  0  0  0  0
   10.4803  -14.7979   22.7151 O   0  0  0  0  0  0  0  0  0  0  0  0
    9.0835  -16.4175   23.5302 N   0  0  0  0  0  0  0  0  0  0  0  0
    9.6677  -16.4242   24.8437 C   0  0  1  0  0  0  0  0  0  0  0  0
    8.6805  -16.5158   25.9770 C   0  0  0  0  0  0  0  0  0  0  0  0
    7.5758  -15.5506   25.9230 C   0  0  0  0  0  0  0  0  0  0  0  0
    6.2642  -15.8192   25.5932 C   0  0  0  0  0  0  0  0  0  0  0  0
    5.5519  -14.6828   25.6361 N   0  0  0  0  0  0  0  0  0  0  0  0
    6.3508  -13.6593   25.9864 C   0  0  0  0  0  0  0  0  0  0  0  0
    6.1131  -12.2958   26.1776 C   0  0  0  0  0  0  0  0  0  0  0  0
    7.1271  -11.4429   26.5515 C   0  0  0  0  0  0  0  0  0  0  0  0
    8.3837  -11.9699   26.7325 C   0  0  0  0  0  0  0  0  0  0  0  0
    8.6179  -13.3126   26.5442 C   0  0  0  0  0  0  0  0  0  0  0  0
    7.6187  -14.2010   26.1668 C   0  0  0  0  0  0  0  0  0  0  0  0
   10.7329  -17.4655   24.9645 C   0  0  0  0  0  0  0  0  0  0  0  0
   10.4691  -18.6946   24.9226 O   0  0  0  0  0  0  0  0  0  0  0  0
   12.1116  -17.0946   25.1352 N   0  0  0  0  0  0  0  0  0  0  0  0
   13.0931  -18.1266   25.4105 C   0  0  1  0  0  0  0  0  0  0  0  0
   14.4748  -17.7072   25.0241 C   0  0  0  0  0  0  0  0  0  0  0  0
   14.5673  -17.0302   23.7390 C   0  0  0  0  0  0  0  0  0  0  0  0
   14.1267  -17.5662   22.7014 O   0  0  0  0  0  0  0  0  0  0  0  0
   13.0146  -18.5651   26.8365 C   0  0  0  0  0  0  0  0  0  0  0  0
   13.6705  -19.5441   27.2672 O   0  0  0  0  0  0  0  0  0  0  0  0
   15.1443  -15.7824   23.6472 O   0  0  0  0  0  0  0  0  0  0  0  0
   12.2046  -17.8954   27.7387 O   0  0  0  0  0  0  0  0  0  0  0  0
  2  1  1  0
  3  2  1  0
  4  3  1  0
  5  4  1  0
  5  6  1  1
  7  5  1  0
  8  7  2  0
  9  7  1  0
 10  9  1  0
 11 12  1  0
 10 11  1  1
 12 20  1  0
 12 13  2  0
 13 14  1  0
 15 14  1  0
 15 16  2  0
 17 16  1  0
 18 17  2  0
 19 20  2  0
 19 18  1  0
 20 15  1  0
 21 22  2  0
 21 10  1  0
 23 21  1  0
 24 23  1  0
 24 25  1  1
 26 25  1  0
 27 26  2  0
 28 24  1  0
 29 28  2  0
 30 26  1  0
 31 28  1  0
M  END
$$$$
