MWD.pdb
     RDKit          3D

 31 32  0  0  1  0  0  0  0  0999 V2000
    8.0218  -11.4860   19.1289 C   0  0  0  0  0  0  0  0  0  0  0  0
    6.9619  -12.8739   18.6854 S   0  0  0  0  0  0  0  0  0  0  0  0
    7.5820  -14.4432   19.2899 C   0  0  0  0  0  0  0  0  0  0  0  0
    8.2058  -14.2984   20.6767 C   0  0  0  0  0  0  0  0  0  0  0  0
    8.7208  -15.6684   21.0527 C   0  0  2  0  0  0  0  0  0  0  0  0
    7.6167  -16.5867   21.0822 N   0  0  0  0  0  0  0  0  0  0  0  0
    9.4172  -15.7003   22.3460 C   0  0  0  0  0  0  0  0  0  0  0  0
   10.5332  -15.1423   22.4502 O   0  0  0  0  0  0  0  0  0  0  0  0
    8.8960  -16.3373   23.5135 N   0  0  0  0  0  0  0  0  0  0  0  0
    9.5228  -16.2734   24.8055 C   0  0  1  0  0  0  0  0  0  0  0  0
    8.5714  -16.2579   25.9726 C   0  0  0  0  0  0  0  0  0  0  0  0
    7.4617  -15.3034   25.8615 C   0  0  0  0  0  0  0  0  0  0  0  0
    6.1529  -15.5971   25.5421 C   0  0  0  0  0  0  0  0  0  0  0  0
    5.4343  -14.4641   25.5198 N   0  0  0  0  0  0  0  0  0  0  0  0
    6.2263  -13.4184   25.8164 C   0  0  0  0  0  0  0  0  0  0  0  0
    5.9803  -12.0479   25.9315 C   0  0  0  0  0  0  0  0  0  0  0  0
    6.9882  -11.1700   26.2619 C   0  0  0  0  0  0  0  0  0  0  0  0
    8.2468  -11.6792   26.4762 C   0  0  0  0  0  0  0  0  0  0  0  0
    8.4891  -13.0288   26.3628 C   0  0  0  0  0  0  0  0  0  0  0  0
    7.4963  -13.9422   26.0310 C   0  0  0  0  0  0  0  0  0  0  0  0
   10.5611  -17.3366   24.9642 C   0  0  0  0  0  0  0  0  0  0  0  0
   10.3032  -18.5522   24.7704 O   0  0  0  0  0  0  0  0  0  0  0  0
   11.9061  -17.0031   25.3484 N   0  0  0  0  0  0  0  0  0  0  0  0
   12.8416  -18.0706   25.6478 C   0  0  1  0  0  0  0  0  0  0  0  0
   14.2460  -17.7058   25.2884 C   0  0  0  0  0  0  0  0  0  0  0  0
   14.3907  -17.0402   24.0022 C   0  0  0  0  0  0  0  0  0  0  0  0
   14.1087  -17.6332   22.9407 O   0  0  0  0  0  0  0  0  0  0  0  0
   12.7173  -18.4994   27.0734 C   0  0  0  0  0  0  0  0  0  0  0  0
   11.9213  -17.9426   27.8673 O   0  0  0  0  0  0  0  0  0  0  0  0
   14.8426  -15.7402   23.9358 O   0  0  0  0  0  0  0  0  0  0  0  0
   13.4872  -19.5389   27.5689 O   0  0  0  0  0  0  0  0  0  0  0  0
  2  1  1  0
  3  2  1  0
  4  3  1  0
  5  4  1  0
  5  6  1  1
  7  5  1  0
  8  7  2  0
  9  7  1  0
 10  9  1  0
 11 12  1  0
 10 11  1  1
 12 20  1  0
 12 13  2  0
 13 14  1  0
 15 14  1  0
 15 16  2  0
 17 16  1  0
 18 17  2  0
 19 20  2  0
 19 18  1  0
 20 15  1  0
 21 22  2  0
 21 10  1  0
 23 21  1  0
 24 23  1  0
 24 25  1  1
 26 25  1  0
 27 26  2  0
 28 24  1  0
 29 28  2  0
 30 26  1  0
 31 28  1  0
M  END
$$$$
