MWD.pdb
     RDKit          3D

 31 32  0  0  1  0  0  0  0  0999 V2000
    8.2238  -11.5060   19.7752 C   0  0  0  0  0  0  0  0  0  0  0  0
    7.0823  -12.7607   19.1674 S   0  0  0  0  0  0  0  0  0  0  0  0
    7.4793  -14.4060   19.7571 C   0  0  0  0  0  0  0  0  0  0  0  0
    8.7170  -14.3930   20.6524 C   0  0  0  0  0  0  0  0  0  0  0  0
    8.9467  -15.8254   21.0754 C   0  0  2  0  0  0  0  0  0  0  0  0
    7.7030  -16.5389   20.9906 N   0  0  0  0  0  0  0  0  0  0  0  0
    9.4939  -15.9572   22.4325 C   0  0  0  0  0  0  0  0  0  0  0  0
   10.5650  -15.3742   22.7162 O   0  0  0  0  0  0  0  0  0  0  0  0
    8.8735  -16.7202   23.4686 N   0  0  0  0  0  0  0  0  0  0  0  0
    9.3532  -16.7668   24.8229 C   0  0  1  0  0  0  0  0  0  0  0  0
    8.2795  -16.7328   25.8781 C   0  0  0  0  0  0  0  0  0  0  0  0
    7.3470  -15.6030   25.7846 C   0  0  0  0  0  0  0  0  0  0  0  0
    6.0138  -15.6634   25.4377 C   0  0  0  0  0  0  0  0  0  0  0  0
    5.4949  -14.4260   25.4443 N   0  0  0  0  0  0  0  0  0  0  0  0
    6.4444  -13.5374   25.7869 C   0  0  0  0  0  0  0  0  0  0  0  0
    6.4285  -12.1493   25.9452 C   0  0  0  0  0  0  0  0  0  0  0  0
    7.5622  -11.4633   26.3188 C   0  0  0  0  0  0  0  0  0  0  0  0
    8.7140  -12.1823   26.5327 C   0  0  0  0  0  0  0  0  0  0  0  0
    8.7297  -13.5493   26.3767 C   0  0  0  0  0  0  0  0  0  0  0  0
    7.6049  -14.2728   26.0007 C   0  0  0  0  0  0  0  0  0  0  0  0
   10.2876  -17.9138   25.0343 C   0  0  0  0  0  0  0  0  0  0  0  0
    9.9610  -19.0969   24.7597 O   0  0  0  0  0  0  0  0  0  0  0  0
   11.6072  -17.7025   25.5651 N   0  0  0  0  0  0  0  0  0  0  0  0
   12.4591  -18.8486   25.8201 C   0  0  1  0  0  0  0  0  0  0  0  0
   13.9054  -18.5321   25.6143 C   0  0  0  0  0  0  0  0  0  0  0  0
   14.8166  -19.6237   25.9251 C   0  0  0  0  0  0  0  0  0  0  0  0
   14.3803  -20.7522   26.2321 O   0  0  0  0  0  0  0  0  0  0  0  0
   12.1929  -19.4148   27.1767 C   0  0  0  0  0  0  0  0  0  0  0  0
   11.9255  -18.6837   28.1606 O   0  0  0  0  0  0  0  0  0  0  0  0
   16.1799  -19.4281   25.8850 O   0  0  0  0  0  0  0  0  0  0  0  0
   12.2338  -20.7824   27.3927 O   0  0  0  0  0  0  0  0  0  0  0  0
  2  1  1  0
  3  2  1  0
  4  3  1  0
  5  4  1  0
  5  6  1  1
  7  5  1  0
  8  7  2  0
  9  7  1  0
 10  9  1  0
 11 12  1  0
 10 11  1  1
 12 20  1  0
 12 13  2  0
 13 14  1  0
 15 14  1  0
 15 16  2  0
 17 16  1  0
 18 17  2  0
 19 20  2  0
 19 18  1  0
 20 15  1  0
 21 22  2  0
 21 10  1  0
 23 21  1  0
 24 23  1  0
 24 25  1  1
 26 25  1  0
 27 26  2  0
 28 24  1  0
 29 28  2  0
 30 26  1  0
 31 28  1  0
M  END
$$$$
