KDQ.pdb
     RDKit          3D

 27 26  0  0  1  0  0  0  0  0999 V2000
   16.7737  -13.8930  -14.4168 N   0  0  0  0  0  0  0  0  0  0  0  0
   16.2772  -13.4634  -15.6921 C   0  0  1  0  0  0  0  0  0  0  0  0
   14.9475  -14.0330  -15.9909 C   0  0  0  0  0  0  0  0  0  0  0  0
   14.6237  -15.2356  -15.1813 C   0  0  0  0  0  0  0  0  0  0  0  0
   15.2341  -16.5327  -15.5820 C   0  0  0  0  0  0  0  0  0  0  0  0
   14.6259  -17.6948  -14.7897 C   0  0  0  0  0  0  0  0  0  0  0  0
   15.1063  -18.9658  -15.2239 N   0  0  0  0  0  0  0  0  0  0  0  0
   16.2940  -11.9629  -15.8008 C   0  0  0  0  0  0  0  0  0  0  0  0
   15.7711  -11.3917  -16.8105 O   0  0  0  0  0  0  0  0  0  0  0  0
   16.8728  -11.1161  -14.8217 N   0  0  0  0  0  0  0  0  0  0  0  0
   16.9962   -9.6845  -15.0474 C   0  0  1  0  0  0  0  0  0  0  0  0
   16.2841   -8.8906  -13.9889 C   0  0  0  0  0  0  0  0  0  0  0  0
   16.3898   -7.4257  -14.2104 C   0  0  0  0  0  0  0  0  0  0  0  0
   16.1188   -6.9637  -15.3473 O   0  0  0  0  0  0  0  0  0  0  0  0
   18.4208   -9.2790  -15.1583 C   0  0  0  0  0  0  0  0  0  0  0  0
   19.2385   -9.8626  -14.4177 O   0  0  0  0  0  0  0  0  0  0  0  0
   16.7768   -6.5117  -13.2298 O   0  0  0  0  0  0  0  0  0  0  0  0
   21.4656   -5.9238  -19.7406 N   0  0  0  0  0  0  0  0  0  0  0  0
   22.4183   -6.2065  -18.7419 C   0  0  0  0  0  0  0  0  0  0  0  0
   23.6115   -5.7983  -18.9747 O   0  0  0  0  0  0  0  0  0  0  0  0
   22.1111   -6.9330  -17.4726 C   0  0  0  0  0  0  0  0  0  0  0  0
   20.6565   -7.2955  -17.4096 C   0  0  0  0  0  0  0  0  0  0  0  0
   20.2982   -7.9910  -16.1078 C   0  0  2  0  0  0  0  0  0  0  0  0
   18.8823   -8.2857  -16.0432 N   0  0  0  0  0  0  0  0  0  0  0  0
   20.6479   -7.1078  -14.9614 C   0  0  0  0  0  0  0  0  0  0  0  0
   21.8316   -7.2715  -14.2598 O   0  0  0  0  0  0  0  0  0  0  0  0
   19.8740   -6.1890  -14.6013 O   0  0  0  0  0  0  0  0  0  0  0  0
  2  1  1  1
  2  3  1  0
  3  4  1  0
  4  5  1  0
  5  6  1  0
  7  6  1  0
  8  2  1  0
  9  8  2  0
 10  8  1  0
 11 12  1  1
 11 10  1  0
 12 13  1  0
 13 14  2  0
 13 17  1  0
 15 24  1  0
 15 11  1  0
 16 15  2  0
 19 18  1  0
 20 19  2  0
 21 19  1  0
 22 21  1  0
 23 22  1  6
 23 24  1  0
 25 23  1  0
 25 26  1  0
 27 25  2  0
M  END
$$$$
