KDQ.pdb
     RDKit          3D

 27 26  0  0  1  0  0  0  0  0999 V2000
   15.7748  -13.9990  -17.6265 N   0  0  0  0  0  0  0  0  0  0  0  0
   16.6702  -13.5596  -16.5957 C   0  0  1  0  0  0  0  0  0  0  0  0
   17.8879  -14.3927  -16.5255 C   0  0  0  0  0  0  0  0  0  0  0  0
   17.6288  -15.8387  -16.7453 C   0  0  0  0  0  0  0  0  0  0  0  0
   17.5928  -16.7309  -15.5544 C   0  0  0  0  0  0  0  0  0  0  0  0
   17.4415  -18.1979  -15.9707 C   0  0  0  0  0  0  0  0  0  0  0  0
   17.2332  -19.0654  -14.8577 N   0  0  0  0  0  0  0  0  0  0  0  0
   16.9863  -12.0960  -16.7427 C   0  0  0  0  0  0  0  0  0  0  0  0
   16.6647  -11.4789  -17.8081 O   0  0  0  0  0  0  0  0  0  0  0  0
   17.6402  -11.3345  -15.7410 N   0  0  0  0  0  0  0  0  0  0  0  0
   17.8490   -9.9042  -15.9036 C   0  0  1  0  0  0  0  0  0  0  0  0
   16.5536   -9.1440  -15.8605 C   0  0  0  0  0  0  0  0  0  0  0  0
   16.7411   -7.6891  -16.0937 C   0  0  0  0  0  0  0  0  0  0  0  0
   17.7594   -7.3022  -16.7204 O   0  0  0  0  0  0  0  0  0  0  0  0
   18.8127   -9.3847  -14.8999 C   0  0  0  0  0  0  0  0  0  0  0  0
   18.8607   -9.9712  -13.7993 O   0  0  0  0  0  0  0  0  0  0  0  0
   15.8527   -6.7057  -15.6574 O   0  0  0  0  0  0  0  0  0  0  0  0
   23.3577  -11.5744  -16.3250 N   0  0  0  0  0  0  0  0  0  0  0  0
   23.9351  -10.6793  -15.4029 C   0  0  0  0  0  0  0  0  0  0  0  0
   25.1476  -10.9266  -15.0664 O   0  0  0  0  0  0  0  0  0  0  0  0
   23.2240   -9.5001  -14.8223 C   0  0  0  0  0  0  0  0  0  0  0  0
   21.7823   -9.4947  -15.2380 C   0  0  0  0  0  0  0  0  0  0  0  0
   21.0232   -8.3191  -14.6478 C   0  0  2  0  0  0  0  0  0  0  0  0
   19.6581   -8.2819  -15.1283 N   0  0  0  0  0  0  0  0  0  0  0  0
   21.6945   -7.0490  -15.0388 C   0  0  0  0  0  0  0  0  0  0  0  0
   21.5214   -6.5001  -16.2993 O   0  0  0  0  0  0  0  0  0  0  0  0
   22.4376   -6.4423  -14.2311 O   0  0  0  0  0  0  0  0  0  0  0  0
  2  1  1  6
  2  3  1  0
  3  4  1  0
  4  5  1  0
  5  6  1  0
  7  6  1  0
  8  2  1  0
  9  8  2  0
 10  8  1  0
 11 12  1  1
 11 10  1  0
 12 13  1  0
 13 14  2  0
 13 17  1  0
 15 24  1  0
 15 11  1  0
 16 15  2  0
 19 18  1  0
 20 19  2  0
 21 19  1  0
 22 21  1  0
 23 22  1  6
 23 24  1  0
 25 23  1  0
 25 26  1  0
 27 25  2  0
M  END
$$$$
