KDQ.pdb
     RDKit          3D

 27 26  0  0  1  0  0  0  0  0999 V2000
   26.2098  -13.4849  -18.1506 N   0  0  0  0  0  0  0  0  0  0  0  0
   27.3126  -13.3748  -19.0610 C   0  0  1  0  0  0  0  0  0  0  0  0
   26.9904  -13.9259  -20.3931 C   0  0  0  0  0  0  0  0  0  0  0  0
   26.1359  -15.1398  -20.3400 C   0  0  0  0  0  0  0  0  0  0  0  0
   26.7662  -16.4199  -19.9162 C   0  0  0  0  0  0  0  0  0  0  0  0
   25.7801  -17.5862  -20.0410 C   0  0  0  0  0  0  0  0  0  0  0  0
   26.3209  -18.8158  -19.5610 N   0  0  0  0  0  0  0  0  0  0  0  0
   27.8132  -11.9578  -19.1343 C   0  0  0  0  0  0  0  0  0  0  0  0
   28.8622  -11.6868  -19.8017 O   0  0  0  0  0  0  0  0  0  0  0  0
   27.1733  -10.8699  -18.4881 N   0  0  0  0  0  0  0  0  0  0  0  0
   27.7334   -9.5287  -18.5468 C   0  0  1  0  0  0  0  0  0  0  0  0
   26.7282   -8.4874  -18.1429 C   0  0  0  0  0  0  0  0  0  0  0  0
   25.5857   -8.4043  -19.0885 C   0  0  0  0  0  0  0  0  0  0  0  0
   25.8207   -8.3915  -20.3230 O   0  0  0  0  0  0  0  0  0  0  0  0
   28.9714   -9.4276  -17.7322 C   0  0  0  0  0  0  0  0  0  0  0  0
   29.0091  -10.0811  -16.6697 O   0  0  0  0  0  0  0  0  0  0  0  0
   24.2485   -8.3366  -18.6962 O   0  0  0  0  0  0  0  0  0  0  0  0
   33.3826  -12.5213  -18.0106 N   0  0  0  0  0  0  0  0  0  0  0  0
   33.9577  -11.5232  -17.1994 C   0  0  0  0  0  0  0  0  0  0  0  0
   35.0965  -11.8083  -16.6834 O   0  0  0  0  0  0  0  0  0  0  0  0
   33.3233  -10.1984  -16.9247 C   0  0  0  0  0  0  0  0  0  0  0  0
   31.9977  -10.0926  -17.6198 C   0  0  0  0  0  0  0  0  0  0  0  0
   31.3156   -8.7632  -17.3475 C   0  0  2  0  0  0  0  0  0  0  0  0
   30.0827   -8.6433  -18.0965 N   0  0  0  0  0  0  0  0  0  0  0  0
   32.2202   -7.6507  -17.7486 C   0  0  0  0  0  0  0  0  0  0  0  0
   33.3208   -7.3038  -16.9815 O   0  0  0  0  0  0  0  0  0  0  0  0
   32.0056   -6.9971  -18.7972 O   0  0  0  0  0  0  0  0  0  0  0  0
  2  1  1  1
  2  3  1  0
  3  4  1  0
  4  5  1  0
  5  6  1  0
  7  6  1  0
  8  2  1  0
  9  8  2  0
 10  8  1  0
 11 12  1  1
 11 10  1  0
 12 13  1  0
 13 14  2  0
 13 17  1  0
 15 24  1  0
 15 11  1  0
 16 15  2  0
 19 18  1  0
 20 19  2  0
 21 19  1  0
 22 21  1  0
 23 22  1  6
 23 24  1  0
 25 23  1  0
 25 26  1  0
 27 25  2  0
M  END
$$$$
