KDQ.pdb
     RDKit          3D

 27 26  0  0  1  0  0  0  0  0999 V2000
   21.1133  -11.7543  -16.1399 N   0  0  0  0  0  0  0  0  0  0  0  0
   20.0154  -10.9388  -16.5723 C   0  0  1  0  0  0  0  0  0  0  0  0
   18.7406  -11.6848  -16.5847 C   0  0  0  0  0  0  0  0  0  0  0  0
   18.8592  -13.0492  -17.1596 C   0  0  0  0  0  0  0  0  0  0  0  0
   17.6250  -13.8753  -17.2590 C   0  0  0  0  0  0  0  0  0  0  0  0
   17.9062  -15.2000  -17.9762 C   0  0  0  0  0  0  0  0  0  0  0  0
   19.3011  -15.4577  -18.1259 N   0  0  0  0  0  0  0  0  0  0  0  0
   19.9300   -9.6741  -15.7618 C   0  0  0  0  0  0  0  0  0  0  0  0
   18.8477   -9.3727  -15.1641 O   0  0  0  0  0  0  0  0  0  0  0  0
   21.0097   -8.7666  -15.6156 N   0  0  0  0  0  0  0  0  0  0  0  0
   20.8775   -7.5697  -14.7997 C   0  0  1  0  0  0  0  0  0  0  0  0
   22.2042   -7.1132  -14.2618 C   0  0  0  0  0  0  0  0  0  0  0  0
   22.0870   -5.8943  -13.4211 C   0  0  0  0  0  0  0  0  0  0  0  0
   21.3947   -5.9451  -12.3734 O   0  0  0  0  0  0  0  0  0  0  0  0
   20.1960   -6.4823  -15.5478 C   0  0  0  0  0  0  0  0  0  0  0  0
   20.5714   -6.2753  -16.7198 O   0  0  0  0  0  0  0  0  0  0  0  0
   22.6999   -4.6766  -13.7183 O   0  0  0  0  0  0  0  0  0  0  0  0
   14.6808   -6.0464  -17.0523 N   0  0  0  0  0  0  0  0  0  0  0  0
   14.9340   -5.7544  -15.6975 C   0  0  0  0  0  0  0  0  0  0  0  0
   13.9699   -5.9881  -14.8847 O   0  0  0  0  0  0  0  0  0  0  0  0
   16.2263   -5.2056  -15.1860 C   0  0  0  0  0  0  0  0  0  0  0  0
   17.2040   -5.0214  -16.3092 C   0  0  0  0  0  0  0  0  0  0  0  0
   18.5837   -4.6334  -15.8063 C   0  0  2  0  0  0  0  0  0  0  0  0
   19.1661   -5.6896  -15.0058 N   0  0  0  0  0  0  0  0  0  0  0  0
   18.4786   -3.4091  -14.9657 C   0  0  0  0  0  0  0  0  0  0  0  0
   18.8317   -3.4217  -13.6259 O   0  0  0  0  0  0  0  0  0  0  0  0
   18.0650   -2.3305  -15.4540 O   0  0  0  0  0  0  0  0  0  0  0  0
  2  1  1  1
  2  3  1  0
  3  4  1  0
  4  5  1  0
  5  6  1  0
  7  6  1  0
  8  2  1  0
  9  8  2  0
 10  8  1  0
 11 12  1  6
 11 10  1  0
 12 13  1  0
 13 14  2  0
 13 17  1  0
 15 24  1  0
 15 11  1  0
 16 15  2  0
 19 18  1  0
 20 19  2  0
 21 19  1  0
 22 21  1  0
 23 22  1  1
 23 24  1  0
 25 23  1  0
 25 26  1  0
 27 25  2  0
M  END
$$$$
