KDQ.pdb
     RDKit          3D

 27 26  0  0  1  0  0  0  0  0999 V2000
   22.5810   -9.7638  -18.3664 N   0  0  0  0  0  0  0  0  0  0  0  0
   21.1526   -9.7103  -18.2481 C   0  0  1  0  0  0  0  0  0  0  0  0
   20.5878  -10.9843  -17.7580 C   0  0  0  0  0  0  0  0  0  0  0  0
   20.7765  -12.1165  -18.7009 C   0  0  0  0  0  0  0  0  0  0  0  0
   20.2920  -13.4607  -18.2843 C   0  0  0  0  0  0  0  0  0  0  0  0
   20.5144  -14.4938  -19.3941 C   0  0  0  0  0  0  0  0  0  0  0  0
   20.0282  -15.7883  -19.0443 N   0  0  0  0  0  0  0  0  0  0  0  0
   20.7234   -8.5354  -17.4119 C   0  0  0  0  0  0  0  0  0  0  0  0
   19.4858   -8.3011  -17.2306 O   0  0  0  0  0  0  0  0  0  0  0  0
   21.6355   -7.6433  -16.7932 N   0  0  0  0  0  0  0  0  0  0  0  0
   21.1637   -6.5364  -15.9760 C   0  0  1  0  0  0  0  0  0  0  0  0
   22.2633   -5.9622  -15.1280 C   0  0  0  0  0  0  0  0  0  0  0  0
   21.8385   -5.7388  -13.7223 C   0  0  0  0  0  0  0  0  0  0  0  0
   20.6516   -5.9970  -13.3997 O   0  0  0  0  0  0  0  0  0  0  0  0
   20.5228   -5.4879  -16.8103 C   0  0  0  0  0  0  0  0  0  0  0  0
   21.0915   -5.1834  -17.8786 O   0  0  0  0  0  0  0  0  0  0  0  0
   22.6775   -5.2530  -12.7190 O   0  0  0  0  0  0  0  0  0  0  0  0
   14.4283   -3.5970  -17.1031 N   0  0  0  0  0  0  0  0  0  0  0  0
   15.1360   -2.8223  -18.0433 C   0  0  0  0  0  0  0  0  0  0  0  0
   14.4267   -2.0441  -18.7752 O   0  0  0  0  0  0  0  0  0  0  0  0
   16.6195   -2.8662  -18.2182 C   0  0  0  0  0  0  0  0  0  0  0  0
   17.2380   -3.8293  -17.2480 C   0  0  0  0  0  0  0  0  0  0  0  0
   18.7520   -3.8623  -17.3642 C   0  0  2  0  0  0  0  0  0  0  0  0
   19.3264   -4.8341  -16.4580 N   0  0  0  0  0  0  0  0  0  0  0  0
   19.3043   -2.5212  -17.0281 C   0  0  0  0  0  0  0  0  0  0  0  0
   19.7200   -2.2140  -15.7424 O   0  0  0  0  0  0  0  0  0  0  0  0
   19.4065   -1.6320  -17.9066 O   0  0  0  0  0  0  0  0  0  0  0  0
  2  1  1  1
  2  3  1  0
  3  4  1  0
  4  5  1  0
  5  6  1  0
  7  6  1  0
  8  2  1  0
  9  8  2  0
 10  8  1  0
 11 12  1  6
 11 10  1  0
 12 13  1  0
 13 14  2  0
 13 17  1  0
 15 24  1  0
 15 11  1  0
 16 15  2  0
 19 18  1  0
 20 19  2  0
 21 19  1  0
 22 21  1  0
 23 22  1  1
 23 24  1  0
 25 23  1  0
 25 26  1  0
 27 25  2  0
M  END
$$$$
