KDQ.pdb
     RDKit          3D

 27 26  0  0  1  0  0  0  0  0999 V2000
   19.6623  -12.8740  -15.3270 N   0  0  0  0  0  0  0  0  0  0  0  0
   19.7182  -12.2464  -16.6155 C   0  0  1  0  0  0  0  0  0  0  0  0
   18.7757  -12.8597  -17.5734 C   0  0  0  0  0  0  0  0  0  0  0  0
   19.0118  -14.3103  -17.7891 C   0  0  0  0  0  0  0  0  0  0  0  0
   18.0488  -15.2720  -17.1865 C   0  0  0  0  0  0  0  0  0  0  0  0
   18.3723  -16.7100  -17.6061 C   0  0  0  0  0  0  0  0  0  0  0  0
   17.4288  -17.6539  -17.1027 N   0  0  0  0  0  0  0  0  0  0  0  0
   19.5288  -10.7582  -16.5002 C   0  0  0  0  0  0  0  0  0  0  0  0
   19.8230  -10.0011  -17.4798 O   0  0  0  0  0  0  0  0  0  0  0  0
   19.0287  -10.1233  -15.3352 N   0  0  0  0  0  0  0  0  0  0  0  0
   18.8335   -8.6825  -15.2920 C   0  0  1  0  0  0  0  0  0  0  0  0
   17.9043   -8.2796  -14.1821 C   0  0  0  0  0  0  0  0  0  0  0  0
   16.5532   -8.8797  -14.3268 C   0  0  0  0  0  0  0  0  0  0  0  0
   15.9191   -8.6941  -15.3958 O   0  0  0  0  0  0  0  0  0  0  0  0
   20.1318   -7.9673  -15.1946 C   0  0  0  0  0  0  0  0  0  0  0  0
   21.0992   -8.6038  -14.7293 O   0  0  0  0  0  0  0  0  0  0  0  0
   15.9278   -9.6459  -13.3428 O   0  0  0  0  0  0  0  0  0  0  0  0
   26.1125   -6.9140  -17.9035 N   0  0  0  0  0  0  0  0  0  0  0  0
   24.7804   -7.2166  -17.5586 C   0  0  0  0  0  0  0  0  0  0  0  0
   24.2934   -8.2798  -18.0849 O   0  0  0  0  0  0  0  0  0  0  0  0
   23.9427   -6.3850  -16.6421 C   0  0  0  0  0  0  0  0  0  0  0  0
   22.5373   -6.9079  -16.5900 C   0  0  0  0  0  0  0  0  0  0  0  0
   21.6574   -6.0866  -15.6638 C   0  0  2  0  0  0  0  0  0  0  0  0
   20.3175   -6.6302  -15.5949 N   0  0  0  0  0  0  0  0  0  0  0  0
   21.5730   -4.6891  -16.1705 C   0  0  0  0  0  0  0  0  0  0  0  0
   20.4300   -4.2163  -16.7950 O   0  0  0  0  0  0  0  0  0  0  0  0
   22.5411   -3.9021  -16.0432 O   0  0  0  0  0  0  0  0  0  0  0  0
  2  1  1  1
  2  3  1  0
  3  4  1  0
  4  5  1  0
  5  6  1  0
  7  6  1  0
  8  2  1  0
  9  8  2  0
 10  8  1  0
 11 12  1  1
 11 10  1  0
 12 13  1  0
 13 14  2  0
 13 17  1  0
 15 24  1  0
 15 11  1  0
 16 15  2  0
 19 18  1  0
 20 19  2  0
 21 19  1  0
 22 21  1  0
 23 22  1  6
 23 24  1  0
 25 23  1  0
 25 26  1  0
 27 25  2  0
M  END
$$$$
