KDQ.pdb
     RDKit          3D

 27 26  0  0  1  0  0  0  0  0999 V2000
   26.3480  -19.0836  -17.0202 N   0  0  0  0  0  0  0  0  0  0  0  0
   25.1850  -18.2553  -16.8841 C   0  0  1  0  0  0  0  0  0  0  0  0
   24.9032  -17.4872  -18.1140 C   0  0  0  0  0  0  0  0  0  0  0  0
   25.6964  -17.9365  -19.2867 C   0  0  0  0  0  0  0  0  0  0  0  0
   27.0787  -17.4060  -19.4400 C   0  0  0  0  0  0  0  0  0  0  0  0
   27.0969  -16.1733  -20.3501 C   0  0  0  0  0  0  0  0  0  0  0  0
   28.3927  -15.5857  -20.4523 N   0  0  0  0  0  0  0  0  0  0  0  0
   23.9986  -19.0606  -16.4285 C   0  0  0  0  0  0  0  0  0  0  0  0
   23.2316  -19.6052  -17.2856 O   0  0  0  0  0  0  0  0  0  0  0  0
   23.6676  -19.2589  -15.0641 N   0  0  0  0  0  0  0  0  0  0  0  0
   22.5587  -20.1179  -14.6790 C   0  0  1  0  0  0  0  0  0  0  0  0
   22.7201  -20.6419  -13.2800 C   0  0  0  0  0  0  0  0  0  0  0  0
   21.6661  -21.6231  -12.9161 C   0  0  0  0  0  0  0  0  0  0  0  0
   20.7560  -21.2694  -12.1249 O   0  0  0  0  0  0  0  0  0  0  0  0
   21.2570  -19.4225  -14.8475 C   0  0  0  0  0  0  0  0  0  0  0  0
   21.2058  -18.2210  -14.5139 O   0  0  0  0  0  0  0  0  0  0  0  0
   21.6154  -22.9318  -13.3974 O   0  0  0  0  0  0  0  0  0  0  0  0
   15.2776  -18.1709  -18.8528 N   0  0  0  0  0  0  0  0  0  0  0  0
   16.4264  -18.8364  -18.3813 C   0  0  0  0  0  0  0  0  0  0  0  0
   16.9504  -19.6870  -19.1854 O   0  0  0  0  0  0  0  0  0  0  0  0
   17.0372  -18.6037  -17.0375 C   0  0  0  0  0  0  0  0  0  0  0  0
   18.2444  -19.4741  -16.8474 C   0  0  0  0  0  0  0  0  0  0  0  0
   18.8770  -19.2810  -15.4802 C   0  0  2  0  0  0  0  0  0  0  0  0
   20.1006  -20.0445  -15.3560 N   0  0  0  0  0  0  0  0  0  0  0  0
   17.9289  -19.7366  -14.4265 C   0  0  0  0  0  0  0  0  0  0  0  0
   16.8492  -18.9576  -14.0423 O   0  0  0  0  0  0  0  0  0  0  0  0
   18.0865  -20.8433  -13.8582 O   0  0  0  0  0  0  0  0  0  0  0  0
  2  1  1  6
  2  3  1  0
  3  4  1  0
  4  5  1  0
  5  6  1  0
  7  6  1  0
  8  2  1  0
  9  8  2  0
 10  8  1  0
 11 12  1  1
 11 10  1  0
 12 13  1  0
 13 14  2  0
 13 17  1  0
 15 24  1  0
 15 11  1  0
 16 15  2  0
 19 18  1  0
 20 19  2  0
 21 19  1  0
 22 21  1  0
 23 22  1  6
 23 24  1  0
 25 23  1  0
 25 26  1  0
 27 25  2  0
M  END
$$$$
