KDQ.pdb
     RDKit          3D

 27 26  0  0  1  0  0  0  0  0999 V2000
   16.5171  -12.0315  -14.5600 N   0  0  0  0  0  0  0  0  0  0  0  0
   15.4733  -11.2609  -15.1713 C   0  0  1  0  0  0  0  0  0  0  0  0
   14.1535  -11.9114  -15.0408 C   0  0  0  0  0  0  0  0  0  0  0  0
   14.0776  -13.2348  -15.7110 C   0  0  0  0  0  0  0  0  0  0  0  0
   14.6306  -14.4148  -14.9918 C   0  0  0  0  0  0  0  0  0  0  0  0
   14.3665  -15.7074  -15.7714 C   0  0  0  0  0  0  0  0  0  0  0  0
   14.9163  -16.8569  -15.1303 N   0  0  0  0  0  0  0  0  0  0  0  0
   15.4688   -9.8490  -14.6512 C   0  0  0  0  0  0  0  0  0  0  0  0
   14.5549   -9.0404  -15.0120 O   0  0  0  0  0  0  0  0  0  0  0  0
   16.4468   -9.3436  -13.7575 N   0  0  0  0  0  0  0  0  0  0  0  0
   16.4146   -7.9578  -13.3168 C   0  0  1  0  0  0  0  0  0  0  0  0
   16.9616   -7.8030  -11.9259 C   0  0  0  0  0  0  0  0  0  0  0  0
   15.9805   -8.1976  -10.8828 C   0  0  0  0  0  0  0  0  0  0  0  0
   14.8005   -8.4578  -11.2283 O   0  0  0  0  0  0  0  0  0  0  0  0
   17.1230   -7.0724  -14.2763 C   0  0  0  0  0  0  0  0  0  0  0  0
   18.2865   -7.3926  -14.5945 O   0  0  0  0  0  0  0  0  0  0  0  0
   16.2811   -8.2996   -9.5242 O   0  0  0  0  0  0  0  0  0  0  0  0
   14.1428   -3.0645  -18.5349 N   0  0  0  0  0  0  0  0  0  0  0  0
   14.2405   -4.1814  -17.6817 C   0  0  0  0  0  0  0  0  0  0  0  0
   13.1600   -4.5241  -17.0820 O   0  0  0  0  0  0  0  0  0  0  0  0
   15.4991   -4.9541  -17.4539 C   0  0  0  0  0  0  0  0  0  0  0  0
   16.4370   -4.1879  -16.5681 C   0  0  0  0  0  0  0  0  0  0  0  0
   17.3296   -5.1069  -15.7525 C   0  0  2  0  0  0  0  0  0  0  0  0
   16.5533   -5.9109  -14.8324 N   0  0  0  0  0  0  0  0  0  0  0  0
   18.2944   -4.2905  -14.9655 C   0  0  0  0  0  0  0  0  0  0  0  0
   19.1868   -3.4313  -15.5865 O   0  0  0  0  0  0  0  0  0  0  0  0
   18.3223   -4.3619  -13.7137 O   0  0  0  0  0  0  0  0  0  0  0  0
  2  1  1  1
  2  3  1  0
  3  4  1  0
  4  5  1  0
  5  6  1  0
  7  6  1  0
  8  2  1  0
  9  8  2  0
 10  8  1  0
 11 12  1  1
 11 10  1  0
 12 13  1  0
 13 14  2  0
 13 17  1  0
 15 24  1  0
 15 11  1  0
 16 15  2  0
 19 18  1  0
 20 19  2  0
 21 19  1  0
 22 21  1  0
 23 22  1  1
 23 24  1  0
 25 23  1  0
 25 26  1  0
 27 25  2  0
M  END
$$$$
