NFD.pdb
     RDKit          3D

 28 28  0  0  1  0  0  0  0  0999 V2000
    7.1002  -14.1160   16.3535 N   0  0  0  0  0  0  0  0  0  0  0  0
    8.3160  -14.3981   17.0057 C   0  0  0  0  0  0  0  0  0  0  0  0
    9.1537  -15.1301   16.4468 O   0  0  0  0  0  0  0  0  0  0  0  0
    8.6041  -13.8389   18.3342 C   0  0  0  0  0  0  0  0  0  0  0  0
    8.7863  -15.0256   19.2646 C   0  0  2  0  0  0  0  0  0  0  0  0
    7.5498  -15.7727   19.2194 N   0  0  0  0  0  0  0  0  0  0  0  0
    9.0607  -14.6428   20.6597 C   0  0  0  0  0  0  0  0  0  0  0  0
   10.1726  -14.0776   20.9380 O   0  0  0  0  0  0  0  0  0  0  0  0
    8.1155  -14.8938   21.6761 N   0  0  0  0  0  0  0  0  0  0  0  0
    8.3534  -14.5530   23.0563 C   0  0  1  0  0  0  0  0  0  0  0  0
    6.9771  -14.1730   23.6327 C   0  0  0  0  0  0  0  0  0  0  0  0
    7.1080  -13.5624   24.9720 C   0  0  0  0  0  0  0  0  0  0  0  0
    7.8432  -12.3866   25.1131 C   0  0  0  0  0  0  0  0  0  0  0  0
    8.0113  -11.7595   26.3289 C   0  0  0  0  0  0  0  0  0  0  0  0
    7.4153  -12.3451   27.4275 C   0  0  0  0  0  0  0  0  0  0  0  0
    6.6844  -13.5147   27.2843 C   0  0  0  0  0  0  0  0  0  0  0  0
    6.5210  -14.1338   26.0705 C   0  0  0  0  0  0  0  0  0  0  0  0
    8.7368  -15.8269   23.7627 C   0  0  0  0  0  0  0  0  0  0  0  0
    8.2053  -16.9394   23.4196 O   0  0  0  0  0  0  0  0  0  0  0  0
    9.6851  -15.8287   24.8168 N   0  0  0  0  0  0  0  0  0  0  0  0
   10.2697  -17.1253   25.2331 C   0  0  1  0  0  0  0  0  0  0  0  0
   11.5909  -17.3340   24.5806 C   0  0  0  0  0  0  0  0  0  0  0  0
   12.2208  -18.5717   25.0492 C   0  0  0  0  0  0  0  0  0  0  0  0
   11.5243  -19.5587   25.3627 O   0  0  0  0  0  0  0  0  0  0  0  0
   10.4195  -17.0196   26.7330 C   0  0  0  0  0  0  0  0  0  0  0  0
   10.6909  -18.0821   27.5557 O   0  0  0  0  0  0  0  0  0  0  0  0
   13.5968  -18.6624   25.1511 O   0  0  0  0  0  0  0  0  0  0  0  0
   10.2929  -15.8912   27.3102 O   0  0  0  0  0  0  0  0  0  0  0  0
  1  2  1  0
  2  3  2  0
  4  5  1  0
  4  2  1  0
  5  7  1  0
  5  6  1  1
  7  8  2  0
  9 10  1  0
  9  7  1  0
 10 11  1  1
 11 12  1  0
 12 17  2  0
 13 14  2  0
 13 12  1  0
 14 15  1  0
 15 16  2  0
 17 16  1  0
 18 19  2  0
 18 10  1  0
 20 18  1  0
 21 20  1  0
 21 22  1  6
 22 23  1  0
 23 27  1  0
 23 24  2  0
 25 21  1  0
 26 25  1  0
 28 25  2  0
M  END
$$$$
