NFD.pdb
     RDKit          3D

 28 28  0  0  1  0  0  0  0  0999 V2000
    9.2864  -18.2480   17.7956 N   0  0  0  0  0  0  0  0  0  0  0  0
    9.3927  -16.8826   17.4679 C   0  0  0  0  0  0  0  0  0  0  0  0
    9.5997  -16.5523   16.2855 O   0  0  0  0  0  0  0  0  0  0  0  0
    9.2619  -15.8480   18.5039 C   0  0  0  0  0  0  0  0  0  0  0  0
    9.1249  -16.5844   19.8252 C   0  0  2  0  0  0  0  0  0  0  0  0
    7.7948  -17.1498   19.8410 N   0  0  0  0  0  0  0  0  0  0  0  0
    9.2870  -15.7155   21.0028 C   0  0  0  0  0  0  0  0  0  0  0  0
   10.3542  -15.0217   21.1165 O   0  0  0  0  0  0  0  0  0  0  0  0
    8.2840  -15.6463   21.9921 N   0  0  0  0  0  0  0  0  0  0  0  0
    8.4617  -14.9225   23.2259 C   0  0  1  0  0  0  0  0  0  0  0  0
    7.0440  -14.5422   23.6912 C   0  0  0  0  0  0  0  0  0  0  0  0
    7.0755  -13.8666   25.0052 C   0  0  0  0  0  0  0  0  0  0  0  0
    6.5667  -14.5288   26.1213 C   0  0  0  0  0  0  0  0  0  0  0  0
    6.5598  -13.9636   27.3784 C   0  0  0  0  0  0  0  0  0  0  0  0
    7.0844  -12.6928   27.5007 C   0  0  0  0  0  0  0  0  0  0  0  0
    7.5899  -12.0366   26.3889 C   0  0  0  0  0  0  0  0  0  0  0  0
    7.5938  -12.6052   25.1400 C   0  0  0  0  0  0  0  0  0  0  0  0
    8.9580  -15.9120   24.2472 C   0  0  0  0  0  0  0  0  0  0  0  0
    8.3692  -17.0390   24.3923 O   0  0  0  0  0  0  0  0  0  0  0  0
   10.0776  -15.6249   25.0685 N   0  0  0  0  0  0  0  0  0  0  0  0
   10.6317  -16.7146   25.9061 C   0  0  1  0  0  0  0  0  0  0  0  0
   12.1194  -16.6858   25.8804 C   0  0  0  0  0  0  0  0  0  0  0  0
   12.6305  -17.0248   24.5492 C   0  0  0  0  0  0  0  0  0  0  0  0
   11.9667  -17.7501   23.7806 O   0  0  0  0  0  0  0  0  0  0  0  0
   10.1108  -16.4377   27.2973 C   0  0  0  0  0  0  0  0  0  0  0  0
    9.9783  -17.3914   28.2731 O   0  0  0  0  0  0  0  0  0  0  0  0
   13.8569  -16.5456   24.1267 O   0  0  0  0  0  0  0  0  0  0  0  0
    9.7612  -15.2577   27.6259 O   0  0  0  0  0  0  0  0  0  0  0  0
  1  2  1  0
  2  3  2  0
  4  5  1  0
  4  2  1  0
  5  7  1  0
  5  6  1  1
  7  8  2  0
  9 10  1  0
  9  7  1  0
 10 11  1  1
 11 12  1  0
 12 17  2  0
 13 14  2  0
 13 12  1  0
 14 15  1  0
 15 16  2  0
 17 16  1  0
 18 19  2  0
 18 10  1  0
 20 18  1  0
 21 20  1  0
 21 22  1  1
 22 23  1  0
 23 27  1  0
 23 24  2  0
 25 21  1  0
 26 25  1  0
 28 25  2  0
M  END
$$$$
