NFD.pdb
     RDKit          3D

 28 28  0  0  1  0  0  0  0  0999 V2000
    8.2139  -15.6877   17.9171 N   0  0  0  0  0  0  0  0  0  0  0  0
    8.0483  -14.3475   18.3164 C   0  0  0  0  0  0  0  0  0  0  0  0
    7.8322  -13.4754   17.4547 O   0  0  0  0  0  0  0  0  0  0  0  0
    8.1276  -13.9701   19.7349 C   0  0  0  0  0  0  0  0  0  0  0  0
    8.4247  -15.2487   20.4991 C   0  0  2  0  0  0  0  0  0  0  0  0
    7.1749  -15.9688   20.5906 N   0  0  0  0  0  0  0  0  0  0  0  0
    8.9406  -15.0155   21.8583 C   0  0  0  0  0  0  0  0  0  0  0  0
   10.0624  -14.4198   21.9996 O   0  0  0  0  0  0  0  0  0  0  0  0
    8.2127  -15.4406   22.9891 N   0  0  0  0  0  0  0  0  0  0  0  0
    8.6847  -15.2364   24.3357 C   0  0  1  0  0  0  0  0  0  0  0  0
    7.4194  -15.0876   25.2004 C   0  0  0  0  0  0  0  0  0  0  0  0
    7.3202  -13.7294   25.7742 C   0  0  0  0  0  0  0  0  0  0  0  0
    6.0628  -13.1481   25.9293 C   0  0  0  0  0  0  0  0  0  0  0  0
    5.8901  -11.8857   26.4549 C   0  0  0  0  0  0  0  0  0  0  0  0
    7.0268  -11.1993   26.8317 C   0  0  0  0  0  0  0  0  0  0  0  0
    8.2763  -11.7799   26.6764 C   0  0  0  0  0  0  0  0  0  0  0  0
    8.4410  -13.0375   26.1525 C   0  0  0  0  0  0  0  0  0  0  0  0
    9.3145  -16.5303   24.7807 C   0  0  0  0  0  0  0  0  0  0  0  0
    8.7693  -17.6489   24.4817 O   0  0  0  0  0  0  0  0  0  0  0  0
   10.5142  -16.5448   25.5362 N   0  0  0  0  0  0  0  0  0  0  0  0
   11.0814  -17.8567   25.9277 C   0  0  1  0  0  0  0  0  0  0  0  0
   12.5684  -17.8149   25.8833 C   0  0  0  0  0  0  0  0  0  0  0  0
   13.0480  -17.5421   24.5254 C   0  0  0  0  0  0  0  0  0  0  0  0
   12.6125  -18.1957   23.5555 O   0  0  0  0  0  0  0  0  0  0  0  0
   10.5902  -18.0865   27.3381 C   0  0  0  0  0  0  0  0  0  0  0  0
   10.8046  -19.2387   28.0492 O   0  0  0  0  0  0  0  0  0  0  0  0
   13.9912  -16.5561   24.3005 O   0  0  0  0  0  0  0  0  0  0  0  0
    9.9309  -17.1787   27.9413 O   0  0  0  0  0  0  0  0  0  0  0  0
  1  2  1  0
  2  3  2  0
  4  5  1  0
  4  2  1  0
  5  7  1  0
  5  6  1  1
  7  8  2  0
  9 10  1  0
  9  7  1  0
 10 11  1  1
 11 12  1  0
 12 17  2  0
 13 14  2  0
 13 12  1  0
 14 15  1  0
 15 16  2  0
 17 16  1  0
 18 19  2  0
 18 10  1  0
 20 18  1  0
 21 20  1  0
 21 22  1  1
 22 23  1  0
 23 27  1  0
 23 24  2  0
 25 21  1  0
 26 25  1  0
 28 25  2  0
M  END
$$$$
