NFD.pdb
     RDKit          3D

 28 28  0  0  1  0  0  0  0  0999 V2000
    8.2903  -15.5001   17.2935 N   0  0  0  0  0  0  0  0  0  0  0  0
    9.2556  -15.6270   18.3109 C   0  0  0  0  0  0  0  0  0  0  0  0
   10.3267  -16.2129   18.0671 O   0  0  0  0  0  0  0  0  0  0  0  0
    9.0118  -15.0766   19.6519 C   0  0  0  0  0  0  0  0  0  0  0  0
    9.1573  -16.2372   20.6208 C   0  0  2  0  0  0  0  0  0  0  0  0
    7.9062  -16.9598   20.5822 N   0  0  0  0  0  0  0  0  0  0  0  0
    9.4220  -15.8170   22.0070 C   0  0  0  0  0  0  0  0  0  0  0  0
   10.5180  -15.2153   22.2715 O   0  0  0  0  0  0  0  0  0  0  0  0
    8.4848  -16.0719   23.0297 N   0  0  0  0  0  0  0  0  0  0  0  0
    8.7020  -15.6704   24.3969 C   0  0  1  0  0  0  0  0  0  0  0  0
    7.2993  -15.5387   25.0182 C   0  0  0  0  0  0  0  0  0  0  0  0
    7.0783  -14.1807   25.5573 C   0  0  0  0  0  0  0  0  0  0  0  0
    8.1349  -13.2715   25.5609 C   0  0  0  0  0  0  0  0  0  0  0  0
    8.0064  -11.9886   26.0481 C   0  0  0  0  0  0  0  0  0  0  0  0
    6.7709  -11.6236   26.5435 C   0  0  0  0  0  0  0  0  0  0  0  0
    5.7216  -12.5300   26.5386 C   0  0  0  0  0  0  0  0  0  0  0  0
    5.8564  -13.8059   26.0518 C   0  0  0  0  0  0  0  0  0  0  0  0
    9.3356  -16.8408   25.1023 C   0  0  0  0  0  0  0  0  0  0  0  0
    8.7721  -17.9897   25.0790 O   0  0  0  0  0  0  0  0  0  0  0  0
   10.5591  -16.7035   25.8055 N   0  0  0  0  0  0  0  0  0  0  0  0
   11.1119  -17.8949   26.4919 C   0  0  1  0  0  0  0  0  0  0  0  0
   12.5944  -17.9274   26.3653 C   0  0  0  0  0  0  0  0  0  0  0  0
   13.0052  -17.8613   24.9599 C   0  0  0  0  0  0  0  0  0  0  0  0
   12.4861  -18.6147   24.1111 O   0  0  0  0  0  0  0  0  0  0  0  0
   10.6972  -17.7377   27.9364 C   0  0  0  0  0  0  0  0  0  0  0  0
   10.0246  -16.6497   28.4296 O   0  0  0  0  0  0  0  0  0  0  0  0
   13.9752  -16.9628   24.5550 O   0  0  0  0  0  0  0  0  0  0  0  0
   10.9704  -18.6496   28.7829 O   0  0  0  0  0  0  0  0  0  0  0  0
  1  2  1  0
  2  3  2  0
  4  5  1  0
  4  2  1  0
  5  7  1  0
  5  6  1  1
  7  8  2  0
  9 10  1  0
  9  7  1  0
 10 11  1  1
 11 12  1  0
 12 17  2  0
 13 14  2  0
 13 12  1  0
 14 15  1  0
 15 16  2  0
 17 16  1  0
 18 19  2  0
 18 10  1  0
 20 18  1  0
 21 20  1  0
 21 22  1  1
 22 23  1  0
 23 27  1  0
 23 24  2  0
 25 21  1  0
 26 25  1  0
 28 25  2  0
M  END
$$$$
