NFD.pdb
     RDKit          3D

 28 28  0  0  1  0  0  0  0  0999 V2000
    7.2299  -13.5724   16.3531 N   0  0  0  0  0  0  0  0  0  0  0  0
    8.2682  -14.2366   17.0341 C   0  0  0  0  0  0  0  0  0  0  0  0
    8.7602  -15.2684   16.5410 O   0  0  0  0  0  0  0  0  0  0  0  0
    8.7746  -13.7254   18.3159 C   0  0  0  0  0  0  0  0  0  0  0  0
    8.7999  -14.9101   19.2660 C   0  0  2  0  0  0  0  0  0  0  0  0
    7.5041  -15.5422   19.1643 N   0  0  0  0  0  0  0  0  0  0  0  0
    9.0374  -14.5339   20.6696 C   0  0  0  0  0  0  0  0  0  0  0  0
   10.2025  -14.1378   21.0144 O   0  0  0  0  0  0  0  0  0  0  0  0
    7.9997  -14.6077   21.6219 N   0  0  0  0  0  0  0  0  0  0  0  0
    8.1961  -14.2695   23.0093 C   0  0  1  0  0  0  0  0  0  0  0  0
    6.8086  -13.8603   23.5368 C   0  0  0  0  0  0  0  0  0  0  0  0
    6.8756  -13.4462   24.9537 C   0  0  0  0  0  0  0  0  0  0  0  0
    7.4719  -12.2287   25.2777 C   0  0  0  0  0  0  0  0  0  0  0  0
    7.5733  -11.7757   26.5755 C   0  0  0  0  0  0  0  0  0  0  0  0
    7.0541  -12.5834   27.5671 C   0  0  0  0  0  0  0  0  0  0  0  0
    6.4615  -13.7940   27.2419 C   0  0  0  0  0  0  0  0  0  0  0  0
    6.3638  -14.2389   25.9475 C   0  0  0  0  0  0  0  0  0  0  0  0
    8.5282  -15.5498   23.7300 C   0  0  0  0  0  0  0  0  0  0  0  0
    7.9402  -16.6407   23.4104 O   0  0  0  0  0  0  0  0  0  0  0  0
    9.4892  -15.5813   24.7720 N   0  0  0  0  0  0  0  0  0  0  0  0
   10.1682  -16.8662   25.0622 C   0  0  1  0  0  0  0  0  0  0  0  0
   11.5042  -16.9083   24.4079 C   0  0  0  0  0  0  0  0  0  0  0  0
   12.1777  -18.1843   24.6657 C   0  0  0  0  0  0  0  0  0  0  0  0
   11.5178  -19.2364   24.7888 O   0  0  0  0  0  0  0  0  0  0  0  0
   10.3031  -16.9026   26.5668 C   0  0  0  0  0  0  0  0  0  0  0  0
    9.8522  -15.9147   27.4036 O   0  0  0  0  0  0  0  0  0  0  0  0
   13.5549  -18.2397   24.7769 O   0  0  0  0  0  0  0  0  0  0  0  0
   10.8650  -17.8948   27.1345 O   0  0  0  0  0  0  0  0  0  0  0  0
  1  2  1  0
  2  3  2  0
  4  5  1  0
  4  2  1  0
  5  7  1  0
  5  6  1  1
  7  8  2  0
  9 10  1  0
  9  7  1  0
 10 11  1  1
 11 12  1  0
 12 17  2  0
 13 14  2  0
 13 12  1  0
 14 15  1  0
 15 16  2  0
 17 16  1  0
 18 19  2  0
 18 10  1  0
 20 18  1  0
 21 20  1  0
 21 22  1  6
 22 23  1  0
 23 27  1  0
 23 24  2  0
 25 21  1  0
 26 25  1  0
 28 25  2  0
M  END
$$$$
