NFD.pdb
     RDKit          3D

 28 28  0  0  1  0  0  0  0  0999 V2000
   12.4235  -17.5551   17.9131 N   0  0  0  0  0  0  0  0  0  0  0  0
   11.2331  -16.9164   18.3106 C   0  0  0  0  0  0  0  0  0  0  0  0
   10.1862  -17.1209   17.6686 O   0  0  0  0  0  0  0  0  0  0  0  0
   11.2148  -16.0146   19.4713 C   0  0  0  0  0  0  0  0  0  0  0  0
   10.5462  -16.7841   20.5972 C   0  0  2  0  0  0  0  0  0  0  0  0
    9.2256  -17.1330   20.1245 N   0  0  0  0  0  0  0  0  0  0  0  0
   10.4170  -16.0103   21.8432 C   0  0  0  0  0  0  0  0  0  0  0  0
   11.4727  -15.5484   22.3959 O   0  0  0  0  0  0  0  0  0  0  0  0
    9.1514  -15.7799   22.4215 N   0  0  0  0  0  0  0  0  0  0  0  0
    8.9910  -15.1535   23.7098 C   0  0  1  0  0  0  0  0  0  0  0  0
    7.5362  -14.6506   23.7481 C   0  0  0  0  0  0  0  0  0  0  0  0
    7.3116  -13.7496   24.8976 C   0  0  0  0  0  0  0  0  0  0  0  0
    6.3951  -14.1191   25.8808 C   0  0  0  0  0  0  0  0  0  0  0  0
    6.1309  -13.3314   26.9806 C   0  0  0  0  0  0  0  0  0  0  0  0
    6.8176  -12.1383   27.0806 C   0  0  0  0  0  0  0  0  0  0  0  0
    7.7287  -11.7733   26.1012 C   0  0  0  0  0  0  0  0  0  0  0  0
    7.9871  -12.5625   25.0088 C   0  0  0  0  0  0  0  0  0  0  0  0
    9.0550  -16.2493   24.7412 C   0  0  0  0  0  0  0  0  0  0  0  0
    8.3377  -17.3011   24.6098 O   0  0  0  0  0  0  0  0  0  0  0  0
    9.9006  -16.1465   25.8747 N   0  0  0  0  0  0  0  0  0  0  0  0
   10.0809  -17.3453   26.7271 C   0  0  1  0  0  0  0  0  0  0  0  0
   11.3421  -18.0512   26.3724 C   0  0  0  0  0  0  0  0  0  0  0  0
   11.6098  -19.1521   27.3023 C   0  0  0  0  0  0  0  0  0  0  0  0
   12.6390  -19.1502   28.0081 O   0  0  0  0  0  0  0  0  0  0  0  0
   10.1403  -16.8117   28.1396 C   0  0  0  0  0  0  0  0  0  0  0  0
    9.9877  -17.5851   29.2611 O   0  0  0  0  0  0  0  0  0  0  0  0
   10.7249  -20.2092   27.4097 O   0  0  0  0  0  0  0  0  0  0  0  0
   10.3427  -15.5711   28.3463 O   0  0  0  0  0  0  0  0  0  0  0  0
  1  2  1  0
  2  3  2  0
  4  5  1  0
  4  2  1  0
  5  7  1  0
  5  6  1  6
  7  8  2  0
  9 10  1  0
  9  7  1  0
 10 11  1  6
 11 12  1  0
 12 17  2  0
 13 14  2  0
 13 12  1  0
 14 15  1  0
 15 16  2  0
 17 16  1  0
 18 19  2  0
 18 10  1  0
 20 18  1  0
 21 20  1  0
 21 22  1  6
 22 23  1  0
 23 27  1  0
 23 24  2  0
 25 21  1  0
 26 25  1  0
 28 25  2  0
M  END
$$$$
