NFD.pdb
     RDKit          3D

 28 28  0  0  1  0  0  0  0  0999 V2000
   10.0965  -17.1549   17.1102 N   0  0  0  0  0  0  0  0  0  0  0  0
   10.9032  -17.1357   18.2642 C   0  0  0  0  0  0  0  0  0  0  0  0
   11.7467  -18.0352   18.4352 O   0  0  0  0  0  0  0  0  0  0  0  0
   10.7597  -16.0681   19.2645 C   0  0  0  0  0  0  0  0  0  0  0  0
   10.4134  -16.7558   20.5737 C   0  0  2  0  0  0  0  0  0  0  0  0
    9.1283  -17.3870   20.3753 N   0  0  0  0  0  0  0  0  0  0  0  0
   10.3190  -15.8324   21.7166 C   0  0  0  0  0  0  0  0  0  0  0  0
   11.3687  -15.2102   22.0965 O   0  0  0  0  0  0  0  0  0  0  0  0
    9.0928  -15.6341   22.3847 N   0  0  0  0  0  0  0  0  0  0  0  0
    8.9732  -14.7966   23.5518 C   0  0  1  0  0  0  0  0  0  0  0  0
    7.4966  -14.3630   23.6013 C   0  0  0  0  0  0  0  0  0  0  0  0
    7.2369  -13.4796   24.7572 C   0  0  0  0  0  0  0  0  0  0  0  0
    6.3782  -13.9153   25.7651 C   0  0  0  0  0  0  0  0  0  0  0  0
    6.0861  -13.1480   26.8722 C   0  0  0  0  0  0  0  0  0  0  0  0
    6.6839  -11.9066   26.9539 C   0  0  0  0  0  0  0  0  0  0  0  0
    7.5377  -11.4758   25.9499 C   0  0  0  0  0  0  0  0  0  0  0  0
    7.8243  -12.2450   24.8503 C   0  0  0  0  0  0  0  0  0  0  0  0
    9.1615  -15.6871   24.7518 C   0  0  0  0  0  0  0  0  0  0  0  0
    9.0068  -15.2188   25.9328 O   0  0  0  0  0  0  0  0  0  0  0  0
    9.5133  -17.0531   24.6083 N   0  0  0  0  0  0  0  0  0  0  0  0
    9.7038  -17.8617   25.8355 C   0  0  1  0  0  0  0  0  0  0  0  0
    9.6418  -19.3141   25.5167 C   0  0  0  0  0  0  0  0  0  0  0  0
   10.0606  -20.1242   26.6641 C   0  0  0  0  0  0  0  0  0  0  0  0
    9.2330  -20.4717   27.5312 O   0  0  0  0  0  0  0  0  0  0  0  0
   11.0746  -17.4790   26.3434 C   0  0  0  0  0  0  0  0  0  0  0  0
   12.0767  -16.9808   25.5517 O   0  0  0  0  0  0  0  0  0  0  0  0
   11.3801  -20.5142   26.8020 O   0  0  0  0  0  0  0  0  0  0  0  0
   11.3591  -17.6120   27.5779 O   0  0  0  0  0  0  0  0  0  0  0  0
  1  2  1  0
  2  3  2  0
  4  5  1  0
  4  2  1  0
  5  7  1  0
  5  6  1  6
  7  8  2  0
  9 10  1  0
  9  7  1  0
 10 11  1  1
 11 12  1  0
 12 17  2  0
 13 14  2  0
 13 12  1  0
 14 15  1  0
 15 16  2  0
 17 16  1  0
 18 19  2  0
 18 10  1  0
 20 18  1  0
 21 20  1  0
 21 22  1  6
 22 23  1  0
 23 27  1  0
 23 24  2  0
 25 21  1  0
 26 25  1  0
 28 25  2  0
M  END
$$$$
