NFD.pdb
     RDKit          3D

 28 28  0  0  1  0  0  0  0  0999 V2000
    8.4511  -19.4047   18.8032 N   0  0  0  0  0  0  0  0  0  0  0  0
    9.6549  -18.6772   18.8725 C   0  0  0  0  0  0  0  0  0  0  0  0
   10.4165  -18.6608   17.8879 O   0  0  0  0  0  0  0  0  0  0  0  0
   10.0190  -17.9400   20.0911 C   0  0  0  0  0  0  0  0  0  0  0  0
    9.1227  -16.7144   20.1304 C   0  0  2  0  0  0  0  0  0  0  0  0
    9.4285  -15.9474   18.9441 N   0  0  0  0  0  0  0  0  0  0  0  0
    9.3374  -15.8660   21.3145 C   0  0  0  0  0  0  0  0  0  0  0  0
   10.4904  -15.3479   21.5024 O   0  0  0  0  0  0  0  0  0  0  0  0
    8.2913  -15.6260   22.2295 N   0  0  0  0  0  0  0  0  0  0  0  0
    8.4732  -14.8430   23.4260 C   0  0  1  0  0  0  0  0  0  0  0  0
    7.0562  -14.4554   23.8873 C   0  0  0  0  0  0  0  0  0  0  0  0
    7.0988  -13.6397   25.1188 C   0  0  0  0  0  0  0  0  0  0  0  0
    6.5364  -14.1472   26.2889 C   0  0  0  0  0  0  0  0  0  0  0  0
    6.5361  -13.4456   27.4753 C   0  0  0  0  0  0  0  0  0  0  0  0
    7.1234  -12.1965   27.4687 C   0  0  0  0  0  0  0  0  0  0  0  0
    7.6821  -11.6943   26.3034 C   0  0  0  0  0  0  0  0  0  0  0  0
    7.6791  -12.3983   25.1255 C   0  0  0  0  0  0  0  0  0  0  0  0
    8.9897  -15.7783   24.4877 C   0  0  0  0  0  0  0  0  0  0  0  0
    8.4171  -16.9052   24.6881 O   0  0  0  0  0  0  0  0  0  0  0  0
   10.1106  -15.4392   25.2870 N   0  0  0  0  0  0  0  0  0  0  0  0
   10.7025  -16.4902   26.1480 C   0  0  1  0  0  0  0  0  0  0  0  0
   12.1883  -16.4481   26.0738 C   0  0  0  0  0  0  0  0  0  0  0  0
   12.6583  -16.7712   24.7236 C   0  0  0  0  0  0  0  0  0  0  0  0
   12.1932  -17.7520   24.1078 O   0  0  0  0  0  0  0  0  0  0  0  0
   10.2227  -16.1643   27.5433 C   0  0  0  0  0  0  0  0  0  0  0  0
   10.2225  -17.0561   28.5845 O   0  0  0  0  0  0  0  0  0  0  0  0
   13.6250  -15.9932   24.1134 O   0  0  0  0  0  0  0  0  0  0  0  0
    9.7824  -14.9997   27.8123 O   0  0  0  0  0  0  0  0  0  0  0  0
  1  2  1  0
  2  3  2  0
  4  5  1  0
  4  2  1  0
  5  7  1  0
  5  6  1  6
  7  8  2  0
  9 10  1  0
  9  7  1  0
 10 11  1  1
 11 12  1  0
 12 17  2  0
 13 14  2  0
 13 12  1  0
 14 15  1  0
 15 16  2  0
 17 16  1  0
 18 19  2  0
 18 10  1  0
 20 18  1  0
 21 20  1  0
 21 22  1  1
 22 23  1  0
 23 27  1  0
 23 24  2  0
 25 21  1  0
 26 25  1  0
 28 25  2  0
M  END
$$$$
