NFD.pdb
     RDKit          3D

 28 28  0  0  1  0  0  0  0  0999 V2000
   10.7319  -18.2999   17.1391 N   0  0  0  0  0  0  0  0  0  0  0  0
   10.1133  -18.3634   18.4025 C   0  0  0  0  0  0  0  0  0  0  0  0
    9.2470  -19.2318   18.6157 O   0  0  0  0  0  0  0  0  0  0  0  0
   10.4791  -17.4185   19.4675 C   0  0  0  0  0  0  0  0  0  0  0  0
    9.1897  -17.0764   20.1937 C   0  0  2  0  0  0  0  0  0  0  0  0
    8.3477  -16.4002   19.2332 N   0  0  0  0  0  0  0  0  0  0  0  0
    9.3857  -16.1965   21.3580 C   0  0  0  0  0  0  0  0  0  0  0  0
   10.5107  -15.6085   21.5055 O   0  0  0  0  0  0  0  0  0  0  0  0
    8.3522  -16.0026   22.2979 N   0  0  0  0  0  0  0  0  0  0  0  0
    8.5066  -15.1576   23.4555 C   0  0  1  0  0  0  0  0  0  0  0  0
    7.0870  -14.6795   23.8121 C   0  0  0  0  0  0  0  0  0  0  0  0
    7.1014  -13.7992   24.9990 C   0  0  0  0  0  0  0  0  0  0  0  0
    7.6322  -12.5153   24.8855 C   0  0  0  0  0  0  0  0  0  0  0  0
    7.6818  -11.6379   25.9473 C   0  0  0  0  0  0  0  0  0  0  0  0
    7.1779  -12.0798   27.1539 C   0  0  0  0  0  0  0  0  0  0  0  0
    6.6504  -13.3574   27.2639 C   0  0  0  0  0  0  0  0  0  0  0  0
    6.6040  -14.2259   26.2024 C   0  0  0  0  0  0  0  0  0  0  0  0
    8.9191  -16.0492   24.5973 C   0  0  0  0  0  0  0  0  0  0  0  0
    8.2367  -17.0950   24.8777 O   0  0  0  0  0  0  0  0  0  0  0  0
   10.0607  -15.7570   25.3856 N   0  0  0  0  0  0  0  0  0  0  0  0
   10.4837  -16.7480   26.4031 C   0  0  1  0  0  0  0  0  0  0  0  0
   11.9635  -16.9058   26.3922 C   0  0  0  0  0  0  0  0  0  0  0  0
   12.4574  -17.1540   25.0347 C   0  0  0  0  0  0  0  0  0  0  0  0
   12.0515  -18.1369   24.3817 O   0  0  0  0  0  0  0  0  0  0  0  0
   10.0118  -16.1773   27.7203 C   0  0  0  0  0  0  0  0  0  0  0  0
   10.0133  -16.8699   28.9033 O   0  0  0  0  0  0  0  0  0  0  0  0
   13.3816  -16.3016   24.4588 O   0  0  0  0  0  0  0  0  0  0  0  0
    9.5771  -14.9814   27.7798 O   0  0  0  0  0  0  0  0  0  0  0  0
  1  2  1  0
  2  3  2  0
  4  5  1  0
  4  2  1  0
  5  7  1  0
  5  6  1  6
  7  8  2  0
  9 10  1  0
  9  7  1  0
 10 11  1  1
 11 12  1  0
 12 17  2  0
 13 14  2  0
 13 12  1  0
 14 15  1  0
 15 16  2  0
 17 16  1  0
 18 19  2  0
 18 10  1  0
 20 18  1  0
 21 20  1  0
 21 22  1  1
 22 23  1  0
 23 27  1  0
 23 24  2  0
 25 21  1  0
 26 25  1  0
 28 25  2  0
M  END
$$$$
