NFD.pdb
     RDKit          3D

 28 28  0  0  1  0  0  0  0  0999 V2000
    9.2533  -18.3495   17.8352 N   0  0  0  0  0  0  0  0  0  0  0  0
    9.4633  -17.0030   17.4803 C   0  0  0  0  0  0  0  0  0  0  0  0
    9.6429  -16.7073   16.2844 O   0  0  0  0  0  0  0  0  0  0  0  0
    9.4723  -15.9480   18.5038 C   0  0  0  0  0  0  0  0  0  0  0  0
    9.3165  -16.6514   19.8409 C   0  0  2  0  0  0  0  0  0  0  0  0
    7.9998  -17.2476   19.8370 N   0  0  0  0  0  0  0  0  0  0  0  0
    9.4265  -15.7473   20.9978 C   0  0  0  0  0  0  0  0  0  0  0  0
   10.4681  -15.0160   21.1135 O   0  0  0  0  0  0  0  0  0  0  0  0
    8.4021  -15.6856   21.9654 N   0  0  0  0  0  0  0  0  0  0  0  0
    8.5400  -14.9429   23.1930 C   0  0  1  0  0  0  0  0  0  0  0  0
    7.1157  -14.4934   23.5677 C   0  0  0  0  0  0  0  0  0  0  0  0
    7.1125  -13.7215   24.8279 C   0  0  0  0  0  0  0  0  0  0  0  0
    6.5667  -14.2962   25.9746 C   0  0  0  0  0  0  0  0  0  0  0  0
    6.5261  -13.6385   27.1852 C   0  0  0  0  0  0  0  0  0  0  0  0
    7.0548  -12.3642   27.2279 C   0  0  0  0  0  0  0  0  0  0  0  0
    7.5972  -11.7951   26.0858 C   0  0  0  0  0  0  0  0  0  0  0  0
    7.6344  -12.4557   24.8836 C   0  0  0  0  0  0  0  0  0  0  0  0
    8.9341  -15.9295   24.2606 C   0  0  0  0  0  0  0  0  0  0  0  0
    8.2613  -17.0060   24.4237 O   0  0  0  0  0  0  0  0  0  0  0  0
   10.0476  -15.6950   25.1064 N   0  0  0  0  0  0  0  0  0  0  0  0
   10.5117  -16.7997   25.9786 C   0  0  1  0  0  0  0  0  0  0  0  0
   11.9930  -16.9274   25.9129 C   0  0  0  0  0  0  0  0  0  0  0  0
   12.4429  -17.1445   24.5350 C   0  0  0  0  0  0  0  0  0  0  0  0
   13.4071  -16.5003   24.0735 O   0  0  0  0  0  0  0  0  0  0  0  0
   10.0650  -16.4103   27.3686 C   0  0  0  0  0  0  0  0  0  0  0  0
   10.1389  -17.2365   28.4600 O   0  0  0  0  0  0  0  0  0  0  0  0
   11.8040  -18.0665   23.7264 O   0  0  0  0  0  0  0  0  0  0  0  0
    9.5831  -15.2510   27.5840 O   0  0  0  0  0  0  0  0  0  0  0  0
  1  2  1  0
  2  3  2  0
  4  5  1  0
  4  2  1  0
  5  7  1  0
  5  6  1  6
  7  8  2  0
  9 10  1  0
  9  7  1  0
 10 11  1  1
 11 12  1  0
 12 17  2  0
 13 14  2  0
 13 12  1  0
 14 15  1  0
 15 16  2  0
 17 16  1  0
 18 19  2  0
 18 10  1  0
 20 18  1  0
 21 20  1  0
 21 22  1  1
 22 23  1  0
 23 27  1  0
 23 24  2  0
 25 21  1  0
 26 25  1  0
 28 25  2  0
M  END
$$$$
