NFD.pdb
     RDKit          3D

 28 28  0  0  1  0  0  0  0  0999 V2000
   11.3059  -17.3031   16.9833 N   0  0  0  0  0  0  0  0  0  0  0  0
   10.0649  -16.9716   17.5602 C   0  0  0  0  0  0  0  0  0  0  0  0
    9.0304  -17.5253   17.1442 O   0  0  0  0  0  0  0  0  0  0  0  0
    9.9796  -15.9824   18.6441 C   0  0  0  0  0  0  0  0  0  0  0  0
    9.5811  -16.7518   19.8916 C   0  0  2  0  0  0  0  0  0  0  0  0
    8.1878  -17.0998   19.7283 N   0  0  0  0  0  0  0  0  0  0  0  0
    9.7362  -15.9782   21.1348 C   0  0  0  0  0  0  0  0  0  0  0  0
   10.9138  -15.7106   21.5531 O   0  0  0  0  0  0  0  0  0  0  0  0
    8.6071  -15.5375   21.8560 N   0  0  0  0  0  0  0  0  0  0  0  0
    8.7145  -14.8471   23.1168 C   0  0  1  0  0  0  0  0  0  0  0  0
    7.3477  -14.1733   23.3381 C   0  0  0  0  0  0  0  0  0  0  0  0
    7.3039  -13.4654   24.6346 C   0  0  0  0  0  0  0  0  0  0  0  0
    6.4682  -13.9450   25.6419 C   0  0  0  0  0  0  0  0  0  0  0  0
    6.3721  -13.3383   26.8758 C   0  0  0  0  0  0  0  0  0  0  0  0
    7.1468  -12.2158   27.0881 C   0  0  0  0  0  0  0  0  0  0  0  0
    7.9772  -11.7411   26.0843 C   0  0  0  0  0  0  0  0  0  0  0  0
    8.0681  -12.3501   24.8580 C   0  0  0  0  0  0  0  0  0  0  0  0
    8.8103  -15.9020   24.1876 C   0  0  0  0  0  0  0  0  0  0  0  0
    8.0629  -16.9398   24.1390 O   0  0  0  0  0  0  0  0  0  0  0  0
    9.7195  -15.7751   25.2682 N   0  0  0  0  0  0  0  0  0  0  0  0
   10.2795  -17.0115   25.8632 C   0  0  1  0  0  0  0  0  0  0  0  0
   11.6845  -17.2140   25.4162 C   0  0  0  0  0  0  0  0  0  0  0  0
   12.2798  -18.3869   26.0630 C   0  0  0  0  0  0  0  0  0  0  0  0
   13.0635  -18.2515   27.0247 O   0  0  0  0  0  0  0  0  0  0  0  0
   10.2156  -16.7869   27.3562 C   0  0  0  0  0  0  0  0  0  0  0  0
   10.0158  -15.5638   27.9422 O   0  0  0  0  0  0  0  0  0  0  0  0
   11.9812  -19.6607   25.6154 O   0  0  0  0  0  0  0  0  0  0  0  0
   10.3513  -17.7684   28.1567 O   0  0  0  0  0  0  0  0  0  0  0  0
  1  2  1  0
  2  3  2  0
  4  5  1  0
  4  2  1  0
  5  7  1  0
  5  6  1  6
  7  8  2  0
  9 10  1  0
  9  7  1  0
 10 11  1  1
 11 12  1  0
 12 17  2  0
 13 14  2  0
 13 12  1  0
 14 15  1  0
 15 16  2  0
 17 16  1  0
 18 19  2  0
 18 10  1  0
 20 18  1  0
 21 20  1  0
 21 22  1  6
 22 23  1  0
 23 27  1  0
 23 24  2  0
 25 21  1  0
 26 25  1  0
 28 25  2  0
M  END
$$$$
