NFD.pdb
     RDKit          3D

 28 28  0  0  1  0  0  0  0  0999 V2000
    9.3774  -19.9795   18.2847 N   0  0  0  0  0  0  0  0  0  0  0  0
    8.6048  -19.4890   19.3551 C   0  0  0  0  0  0  0  0  0  0  0  0
    7.4199  -19.8530   19.4704 O   0  0  0  0  0  0  0  0  0  0  0  0
    9.1816  -18.5554   20.3331 C   0  0  0  0  0  0  0  0  0  0  0  0
    8.3834  -17.2687   20.2148 C   0  0  2  0  0  0  0  0  0  0  0  0
    8.6705  -16.7297   18.9048 N   0  0  0  0  0  0  0  0  0  0  0  0
    8.7344  -16.2628   21.2311 C   0  0  0  0  0  0  0  0  0  0  0  0
    9.7892  -15.5602   21.0665 O   0  0  0  0  0  0  0  0  0  0  0  0
    7.9236  -16.0738   22.3696 N   0  0  0  0  0  0  0  0  0  0  0  0
    8.1773  -15.0363   23.3376 C   0  0  1  0  0  0  0  0  0  0  0  0
    6.8610  -14.8671   24.1185 C   0  0  0  0  0  0  0  0  0  0  0  0
    6.9991  -13.8556   25.1869 C   0  0  0  0  0  0  0  0  0  0  0  0
    7.6231  -12.6432   24.8974 C   0  0  0  0  0  0  0  0  0  0  0  0
    7.7903  -11.6524   25.8409 C   0  0  0  0  0  0  0  0  0  0  0  0
    7.3096  -11.9035   27.1102 C   0  0  0  0  0  0  0  0  0  0  0  0
    6.6893  -13.1103   27.3953 C   0  0  0  0  0  0  0  0  0  0  0  0
    6.5260  -14.0925   26.4510 C   0  0  0  0  0  0  0  0  0  0  0  0
    9.1563  -15.5974   24.3352 C   0  0  0  0  0  0  0  0  0  0  0  0
    9.6158  -14.8581   25.2735 O   0  0  0  0  0  0  0  0  0  0  0  0
    9.5928  -16.9445   24.2624 N   0  0  0  0  0  0  0  0  0  0  0  0
   10.6982  -17.3733   25.1515 C   0  0  1  0  0  0  0  0  0  0  0  0
   11.8303  -16.4102   25.0759 C   0  0  0  0  0  0  0  0  0  0  0  0
   12.9930  -16.9038   25.8192 C   0  0  0  0  0  0  0  0  0  0  0  0
   13.1378  -16.6273   27.0276 O   0  0  0  0  0  0  0  0  0  0  0  0
   10.0967  -17.3911   26.5376 C   0  0  0  0  0  0  0  0  0  0  0  0
    8.7978  -17.0532   26.8168 O   0  0  0  0  0  0  0  0  0  0  0  0
   13.9470  -17.6830   25.1907 O   0  0  0  0  0  0  0  0  0  0  0  0
   10.8062  -17.7350   27.5380 O   0  0  0  0  0  0  0  0  0  0  0  0
  1  2  1  0
  2  3  2  0
  4  5  1  0
  4  2  1  0
  5  7  1  0
  5  6  1  6
  7  8  2  0
  9 10  1  0
  9  7  1  0
 10 11  1  1
 11 12  1  0
 12 17  2  0
 13 14  2  0
 13 12  1  0
 14 15  1  0
 15 16  2  0
 17 16  1  0
 18 19  2  0
 18 10  1  0
 20 18  1  0
 21 20  1  0
 21 22  1  1
 22 23  1  0
 23 27  1  0
 23 24  2  0
 25 21  1  0
 26 25  1  0
 28 25  2  0
M  END
$$$$
