IFF.pdb
     RDKit          3D

 31 32  0  0  1  0  0  0  0  0999 V2000
   11.0532  -21.1005   21.0581 C   0  0  0  0  0  0  0  0  0  0  0  0
   11.0002  -19.6302   20.6510 C   0  0  0  0  0  0  0  0  0  0  0  0
    9.5894  -19.3262   20.2448 C   0  0  2  0  0  0  0  0  0  0  0  0
    9.0496  -20.3312   19.2505 C   0  0  0  0  0  0  0  0  0  0  0  0
    9.3689  -17.9153   19.8278 C   0  0  2  0  0  0  0  0  0  0  0  0
   10.3072  -17.6347   18.7244 N   0  0  0  0  0  0  0  0  0  0  0  0
    9.5336  -16.9073   20.9022 C   0  0  0  0  0  0  0  0  0  0  0  0
   10.6543  -16.3970   21.1417 O   0  0  0  0  0  0  0  0  0  0  0  0
    8.4116  -16.5092   21.6749 N   0  0  0  0  0  0  0  0  0  0  0  0
    8.5306  -15.5824   22.8275 C   0  0  1  0  0  0  0  0  0  0  0  0
    7.1955  -15.0037   23.1413 C   0  0  0  0  0  0  0  0  0  0  0  0
    7.0929  -14.1061   24.2820 C   0  0  0  0  0  0  0  0  0  0  0  0
    7.6171  -12.8257   24.2631 C   0  0  0  0  0  0  0  0  0  0  0  0
    7.4840  -11.9647   25.3328 C   0  0  0  0  0  0  0  0  0  0  0  0
    6.8176  -12.3532   26.4697 C   0  0  0  0  0  0  0  0  0  0  0  0
    6.2933  -13.6143   26.5065 C   0  0  0  0  0  0  0  0  0  0  0  0
    6.4279  -14.4802   25.4293 C   0  0  0  0  0  0  0  0  0  0  0  0
    9.2553  -16.2254   23.9219 C   0  0  0  0  0  0  0  0  0  0  0  0
    8.6864  -17.2153   24.5184 O   0  0  0  0  0  0  0  0  0  0  0  0
   10.5343  -15.8897   24.4137 N   0  0  0  0  0  0  0  0  0  0  0  0
   11.1660  -16.6673   25.4986 C   0  0  1  0  0  0  0  0  0  0  0  0
   10.1642  -16.7300   26.6270 C   0  0  0  0  0  0  0  0  0  0  0  0
   10.1460  -15.5771   27.5156 C   0  0  0  0  0  0  0  0  0  0  0  0
    9.7153  -15.6979   28.8186 C   0  0  0  0  0  0  0  0  0  0  0  0
    9.7204  -14.5932   29.6441 C   0  0  0  0  0  0  0  0  0  0  0  0
   10.1480  -13.3608   29.1981 C   0  0  0  0  0  0  0  0  0  0  0  0
   10.5732  -13.2541   27.9020 C   0  0  0  0  0  0  0  0  0  0  0  0
   10.5732  -14.3451   27.0707 C   0  0  0  0  0  0  0  0  0  0  0  0
   11.5330  -18.0167   25.0930 C   0  0  0  0  0  0  0  0  0  0  0  0
   12.2011  -18.7787   25.8255 O   0  0  0  0  0  0  0  0  0  0  0  0
   11.1451  -18.5045   23.8645 O   0  0  0  0  0  0  0  0  0  0  0  0
  1  2  1  0
  3  5  1  0
  3  2  1  0
  3  4  1  6
  5  6  1  6
  7  9  1  0
  7  5  1  0
  8  7  2  0
 10  9  1  0
 11 12  1  0
 10 11  1  1
 12 17  1  0
 13 12  2  0
 13 14  1  0
 14 15  2  0
 15 16  1  0
 17 16  2  0
 18 10  1  0
 18 20  1  0
 19 18  2  0
 21 20  1  0
 21 29  1  0
 21 22  1  1
 23 22  1  0
 23 24  2  0
 25 24  1  0
 26 25  2  0
 27 28  2  0
 27 26  1  0
 28 23  1  0
 29 30  2  0
 29 31  1  0
M  END
$$$$
