IFF.pdb
     RDKit          3D

 31 32  0  0  1  0  0  0  0  0999 V2000
   11.0617  -21.0291   18.3173 C   0  0  0  0  0  0  0  0  0  0  0  0
   10.1498  -19.8097   18.2065 C   0  0  0  0  0  0  0  0  0  0  0  0
   10.3448  -18.9879   19.4452 C   0  0  2  0  0  0  0  0  0  0  0  0
   10.2866  -19.8255   20.7042 C   0  0  0  0  0  0  0  0  0  0  0  0
    9.4856  -17.7752   19.5099 C   0  0  2  0  0  0  0  0  0  0  0  0
    9.7768  -16.9694   18.3087 N   0  0  0  0  0  0  0  0  0  0  0  0
    9.6535  -16.9479   20.7284 C   0  0  0  0  0  0  0  0  0  0  0  0
   10.7468  -16.3873   20.9819 O   0  0  0  0  0  0  0  0  0  0  0  0
    8.5661  -16.7834   21.6255 N   0  0  0  0  0  0  0  0  0  0  0  0
    8.6634  -15.9431   22.8446 C   0  0  1  0  0  0  0  0  0  0  0  0
    7.3438  -15.3125   23.1217 C   0  0  0  0  0  0  0  0  0  0  0  0
    7.1859  -14.5831   24.3708 C   0  0  0  0  0  0  0  0  0  0  0  0
    7.6824  -13.3035   24.5459 C   0  0  0  0  0  0  0  0  0  0  0  0
    7.4971  -12.6008   25.7187 C   0  0  0  0  0  0  0  0  0  0  0  0
    6.8041  -13.1541   26.7680 C   0  0  0  0  0  0  0  0  0  0  0  0
    6.3065  -14.4171   26.6133 C   0  0  0  0  0  0  0  0  0  0  0  0
    6.4937  -15.1235   25.4325 C   0  0  0  0  0  0  0  0  0  0  0  0
    9.2862  -16.6970   23.9310 C   0  0  0  0  0  0  0  0  0  0  0  0
    8.8445  -17.8836   24.1681 O   0  0  0  0  0  0  0  0  0  0  0  0
   10.3403  -16.2759   24.7688 N   0  0  0  0  0  0  0  0  0  0  0  0
   10.8981  -17.1679   25.8052 C   0  0  1  0  0  0  0  0  0  0  0  0
   11.8458  -16.3320   26.6322 C   0  0  0  0  0  0  0  0  0  0  0  0
   11.2240  -15.2969   27.4454 C   0  0  0  0  0  0  0  0  0  0  0  0
   10.8502  -14.0931   26.8896 C   0  0  0  0  0  0  0  0  0  0  0  0
   10.2508  -13.1340   27.6788 C   0  0  0  0  0  0  0  0  0  0  0  0
   10.0132  -13.3480   29.0198 C   0  0  0  0  0  0  0  0  0  0  0  0
   10.3893  -14.5477   29.5597 C   0  0  0  0  0  0  0  0  0  0  0  0
   10.9862  -15.5099   28.7857 C   0  0  0  0  0  0  0  0  0  0  0  0
    9.8774  -17.7486   26.6661 C   0  0  0  0  0  0  0  0  0  0  0  0
   10.1416  -18.6131   27.5301 O   0  0  0  0  0  0  0  0  0  0  0  0
    8.5628  -17.3529   26.5526 O   0  0  0  0  0  0  0  0  0  0  0  0
  1  2  1  0
  3  5  1  0
  3  2  1  0
  3  4  1  1
  5  6  1  6
  7  9  1  0
  7  5  1  0
  8  7  2  0
 10  9  1  0
 11 12  1  0
 10 11  1  1
 12 17  1  0
 13 12  2  0
 13 14  1  0
 14 15  2  0
 15 16  1  0
 17 16  2  0
 18 10  1  0
 18 20  1  0
 19 18  2  0
 21 20  1  0
 21 29  1  0
 21 22  1  1
 23 22  1  0
 23 24  2  0
 25 24  1  0
 26 25  2  0
 27 28  2  0
 27 26  1  0
 28 23  1  0
 29 30  2  0
 29 31  1  0
M  END
$$$$
