IFF.pdb
     RDKit          3D

 31 32  0  0  1  0  0  0  0  0999 V2000
   11.5420  -20.2041   17.6242 C   0  0  0  0  0  0  0  0  0  0  0  0
   10.5844  -19.0189   17.5298 C   0  0  0  0  0  0  0  0  0  0  0  0
   10.5925  -18.3268   18.8598 C   0  0  2  0  0  0  0  0  0  0  0  0
   10.4572  -19.2978   20.0125 C   0  0  0  0  0  0  0  0  0  0  0  0
    9.6529  -17.1770   18.9508 C   0  0  2  0  0  0  0  0  0  0  0  0
    9.9796  -16.2577   17.8442 N   0  0  0  0  0  0  0  0  0  0  0  0
    9.6742  -16.4461   20.2403 C   0  0  0  0  0  0  0  0  0  0  0  0
   10.6664  -15.7546   20.5735 O   0  0  0  0  0  0  0  0  0  0  0  0
    8.5595  -16.5253   21.1153 N   0  0  0  0  0  0  0  0  0  0  0  0
    8.5457  -15.8659   22.4445 C   0  0  1  0  0  0  0  0  0  0  0  0
    7.2298  -15.2039   22.6586 C   0  0  0  0  0  0  0  0  0  0  0  0
    7.0341  -14.4601   23.8938 C   0  0  0  0  0  0  0  0  0  0  0  0
    7.5380  -13.1843   24.0748 C   0  0  0  0  0  0  0  0  0  0  0  0
    7.3174  -12.4679   25.2331 C   0  0  0  0  0  0  0  0  0  0  0  0
    6.5800  -13.0030   26.2613 C   0  0  0  0  0  0  0  0  0  0  0  0
    6.0743  -14.2620   26.1005 C   0  0  0  0  0  0  0  0  0  0  0  0
    6.2970  -14.9822   24.9343 C   0  0  0  0  0  0  0  0  0  0  0  0
    9.0031  -16.7952   23.4757 C   0  0  0  0  0  0  0  0  0  0  0  0
    8.1216  -17.5452   24.0413 O   0  0  0  0  0  0  0  0  0  0  0  0
   10.3241  -16.9793   23.9354 N   0  0  0  0  0  0  0  0  0  0  0  0
   10.7072  -16.6408   25.3208 C   0  0  1  0  0  0  0  0  0  0  0  0
   10.3922  -15.1762   25.5121 C   0  0  0  0  0  0  0  0  0  0  0  0
   10.5921  -14.6614   26.8590 C   0  0  0  0  0  0  0  0  0  0  0  0
   10.9003  -15.5099   27.8996 C   0  0  0  0  0  0  0  0  0  0  0  0
   11.0979  -14.9955   29.1639 C   0  0  0  0  0  0  0  0  0  0  0  0
   10.9948  -13.6444   29.4177 C   0  0  0  0  0  0  0  0  0  0  0  0
   10.6883  -12.8124   28.3756 C   0  0  0  0  0  0  0  0  0  0  0  0
   10.4893  -13.3112   27.1136 C   0  0  0  0  0  0  0  0  0  0  0  0
    9.9962  -17.4294   26.3171 C   0  0  0  0  0  0  0  0  0  0  0  0
   10.5366  -17.8163   27.3763 O   0  0  0  0  0  0  0  0  0  0  0  0
    8.6786  -17.7788   26.1183 O   0  0  0  0  0  0  0  0  0  0  0  0
  1  2  1  0
  3  5  1  0
  3  2  1  0
  3  4  1  1
  5  6  1  6
  7  9  1  0
  7  5  1  0
  8  7  2  0
 10  9  1  0
 11 12  1  0
 10 11  1  1
 12 17  1  0
 13 12  2  0
 13 14  1  0
 14 15  2  0
 15 16  1  0
 17 16  2  0
 18 10  1  0
 18 20  1  0
 19 18  2  0
 21 20  1  0
 21 29  1  0
 21 22  1  1
 23 22  1  0
 23 24  2  0
 25 24  1  0
 26 25  2  0
 27 28  2  0
 27 26  1  0
 28 23  1  0
 29 30  2  0
 29 31  1  0
M  END
$$$$
