IFF.pdb
     RDKit          3D

 31 32  0  0  1  0  0  0  0  0999 V2000
    8.8577  -20.4613   18.2406 C   0  0  0  0  0  0  0  0  0  0  0  0
   10.3428  -20.1521   18.4125 C   0  0  0  0  0  0  0  0  0  0  0  0
   10.4804  -19.2546   19.6055 C   0  0  2  0  0  0  0  0  0  0  0  0
   10.1480  -19.9656   20.8994 C   0  0  0  0  0  0  0  0  0  0  0  0
    9.7874  -17.9459   19.4631 C   0  0  2  0  0  0  0  0  0  0  0  0
   10.3475  -17.2831   18.2699 N   0  0  0  0  0  0  0  0  0  0  0  0
    9.8902  -17.0471   20.6375 C   0  0  0  0  0  0  0  0  0  0  0  0
   10.9795  -16.5040   20.9408 O   0  0  0  0  0  0  0  0  0  0  0  0
    8.7437  -16.7931   21.4345 N   0  0  0  0  0  0  0  0  0  0  0  0
    8.7828  -15.9004   22.6192 C   0  0  1  0  0  0  0  0  0  0  0  0
    7.4500  -15.2653   22.8087 C   0  0  0  0  0  0  0  0  0  0  0  0
    7.2684  -14.3924   23.9587 C   0  0  0  0  0  0  0  0  0  0  0  0
    6.7745  -14.8549   25.1656 C   0  0  0  0  0  0  0  0  0  0  0  0
    6.6400  -14.0321   26.2648 C   0  0  0  0  0  0  0  0  0  0  0  0
    6.9963  -12.7069   26.1991 C   0  0  0  0  0  0  0  0  0  0  0  0
    7.4860  -12.2323   25.0152 C   0  0  0  0  0  0  0  0  0  0  0  0
    7.6209  -13.0614   23.9094 C   0  0  0  0  0  0  0  0  0  0  0  0
    9.3583  -16.6033   23.7643 C   0  0  0  0  0  0  0  0  0  0  0  0
    8.9309  -17.7923   24.0151 O   0  0  0  0  0  0  0  0  0  0  0  0
   10.3516  -16.1295   24.6469 N   0  0  0  0  0  0  0  0  0  0  0  0
   10.9842  -17.0224   25.6386 C   0  0  1  0  0  0  0  0  0  0  0  0
   11.8484  -16.1502   26.5181 C   0  0  0  0  0  0  0  0  0  0  0  0
   11.1308  -15.2710   27.4299 C   0  0  0  0  0  0  0  0  0  0  0  0
   10.9869  -15.6003   28.7598 C   0  0  0  0  0  0  0  0  0  0  0  0
   10.3141  -14.7439   29.6059 C   0  0  0  0  0  0  0  0  0  0  0  0
    9.7770  -13.5572   29.1542 C   0  0  0  0  0  0  0  0  0  0  0  0
    9.9269  -13.2419   27.8312 C   0  0  0  0  0  0  0  0  0  0  0  0
   10.5937  -14.0849   26.9793 C   0  0  0  0  0  0  0  0  0  0  0  0
   10.0173  -17.7395   26.4577 C   0  0  0  0  0  0  0  0  0  0  0  0
   10.3580  -18.6015   27.2971 O   0  0  0  0  0  0  0  0  0  0  0  0
    8.6699  -17.4826   26.3304 O   0  0  0  0  0  0  0  0  0  0  0  0
  1  2  1  0
  3  5  1  0
  3  2  1  0
  3  4  1  1
  5  6  1  6
  7  9  1  0
  7  5  1  0
  8  7  2  0
 10  9  1  0
 11 12  1  0
 10 11  1  1
 12 17  1  0
 13 12  2  0
 13 14  1  0
 14 15  2  0
 15 16  1  0
 17 16  2  0
 18 10  1  0
 18 20  1  0
 19 18  2  0
 21 20  1  0
 21 29  1  0
 21 22  1  1
 23 22  1  0
 23 24  2  0
 25 24  1  0
 26 25  2  0
 27 28  2  0
 27 26  1  0
 28 23  1  0
 29 30  2  0
 29 31  1  0
M  END
$$$$
