IFF.pdb
     RDKit          3D

 31 32  0  0  1  0  0  0  0  0999 V2000
   11.4091  -20.9748   18.3571 C   0  0  0  0  0  0  0  0  0  0  0  0
   10.4142  -19.8380   18.1366 C   0  0  0  0  0  0  0  0  0  0  0  0
   10.5130  -18.9184   19.3167 C   0  0  2  0  0  0  0  0  0  0  0  0
   10.4319  -19.6624   20.6319 C   0  0  0  0  0  0  0  0  0  0  0  0
    9.5986  -17.7468   19.2507 C   0  0  2  0  0  0  0  0  0  0  0  0
    9.9224  -17.0095   18.0143 N   0  0  0  0  0  0  0  0  0  0  0  0
    9.6595  -16.8331   20.4165 C   0  0  0  0  0  0  0  0  0  0  0  0
   10.6858  -16.1498   20.6476 O   0  0  0  0  0  0  0  0  0  0  0  0
    8.5443  -16.7250   21.2877 N   0  0  0  0  0  0  0  0  0  0  0  0
    8.5652  -15.8709   22.5009 C   0  0  1  0  0  0  0  0  0  0  0  0
    7.2252  -15.2539   22.6989 C   0  0  0  0  0  0  0  0  0  0  0  0
    7.0031  -14.4815   23.9120 C   0  0  0  0  0  0  0  0  0  0  0  0
    7.4337  -13.1731   24.0430 C   0  0  0  0  0  0  0  0  0  0  0  0
    7.1874  -12.4321   25.1804 C   0  0  0  0  0  0  0  0  0  0  0  0
    6.4967  -12.9742   26.2371 C   0  0  0  0  0  0  0  0  0  0  0  0
    6.0637  -14.2652   26.1257 C   0  0  0  0  0  0  0  0  0  0  0  0
    6.3123  -15.0102   24.9805 C   0  0  0  0  0  0  0  0  0  0  0  0
    9.1369  -16.6056   23.6278 C   0  0  0  0  0  0  0  0  0  0  0  0
    8.6995  -17.7964   23.8517 O   0  0  0  0  0  0  0  0  0  0  0  0
   10.1364  -16.1615   24.5189 N   0  0  0  0  0  0  0  0  0  0  0  0
   10.6800  -17.0508   25.5651 C   0  0  1  0  0  0  0  0  0  0  0  0
   11.6183  -16.2134   26.4012 C   0  0  0  0  0  0  0  0  0  0  0  0
   10.9798  -15.3044   27.3420 C   0  0  0  0  0  0  0  0  0  0  0  0
   10.7514  -15.6854   28.6461 C   0  0  0  0  0  0  0  0  0  0  0  0
   10.1568  -14.8007   29.5212 C   0  0  0  0  0  0  0  0  0  0  0  0
    9.7814  -13.5350   29.1242 C   0  0  0  0  0  0  0  0  0  0  0  0
   10.0137  -13.1689   27.8264 C   0  0  0  0  0  0  0  0  0  0  0  0
   10.6042  -14.0393   26.9461 C   0  0  0  0  0  0  0  0  0  0  0  0
    9.6479  -17.6274   26.4151 C   0  0  0  0  0  0  0  0  0  0  0  0
    8.4645  -17.2235   26.4007 O   0  0  0  0  0  0  0  0  0  0  0  0
    9.9511  -18.6579   27.2775 O   0  0  0  0  0  0  0  0  0  0  0  0
  1  2  1  0
  3  5  1  0
  3  2  1  0
  3  4  1  1
  5  6  1  6
  7  9  1  0
  7  5  1  0
  8  7  2  0
 10  9  1  0
 11 12  1  0
 10 11  1  1
 12 17  1  0
 13 12  2  0
 13 14  1  0
 14 15  2  0
 15 16  1  0
 17 16  2  0
 18 10  1  0
 18 20  1  0
 19 18  2  0
 21 20  1  0
 21 29  1  0
 21 22  1  1
 23 22  1  0
 23 24  2  0
 25 24  1  0
 26 25  2  0
 27 28  2  0
 27 26  1  0
 28 23  1  0
 29 30  2  0
 29 31  1  0
M  END
$$$$
