IFF.pdb
     RDKit          3D

 31 32  0  0  1  0  0  0  0  0999 V2000
    8.3104  -14.2127   15.8798 C   0  0  0  0  0  0  0  0  0  0  0  0
    8.3290  -15.3735   16.8711 C   0  0  0  0  0  0  0  0  0  0  0  0
    9.1282  -14.9357   18.0617 C   0  0  2  0  0  0  0  0  0  0  0  0
   10.4347  -14.2823   17.6668 C   0  0  0  0  0  0  0  0  0  0  0  0
    9.2914  -15.9865   19.1022 C   0  0  2  0  0  0  0  0  0  0  0  0
    8.1693  -16.9319   18.9474 N   0  0  0  0  0  0  0  0  0  0  0  0
    9.3463  -15.4889   20.4975 C   0  0  0  0  0  0  0  0  0  0  0  0
   10.2942  -14.7658   20.8876 O   0  0  0  0  0  0  0  0  0  0  0  0
    8.3150  -15.8315   21.4104 N   0  0  0  0  0  0  0  0  0  0  0  0
    8.3444  -15.4139   22.8339 C   0  0  1  0  0  0  0  0  0  0  0  0
    6.9722  -15.0373   23.2711 C   0  0  0  0  0  0  0  0  0  0  0  0
    6.8114  -14.4782   24.6048 C   0  0  0  0  0  0  0  0  0  0  0  0
    6.2555  -15.2007   25.6458 C   0  0  0  0  0  0  0  0  0  0  0  0
    6.1400  -14.6800   26.9182 C   0  0  0  0  0  0  0  0  0  0  0  0
    6.5786  -13.4090   27.2004 C   0  0  0  0  0  0  0  0  0  0  0  0
    7.1303  -12.6804   26.1847 C   0  0  0  0  0  0  0  0  0  0  0  0
    7.2459  -13.2055   24.9044 C   0  0  0  0  0  0  0  0  0  0  0  0
    9.0544  -16.4064   23.6384 C   0  0  0  0  0  0  0  0  0  0  0  0
    8.8144  -17.6504   23.4056 O   0  0  0  0  0  0  0  0  0  0  0  0
    9.9964  -16.1632   24.6600 N   0  0  0  0  0  0  0  0  0  0  0  0
   10.5774  -17.2704   25.4457 C   0  0  1  0  0  0  0  0  0  0  0  0
   11.8229  -16.7272   26.1049 C   0  0  0  0  0  0  0  0  0  0  0  0
   11.6294  -15.5503   26.9397 C   0  0  0  0  0  0  0  0  0  0  0  0
   11.4735  -14.3034   26.3752 C   0  0  0  0  0  0  0  0  0  0  0  0
   11.2783  -13.2062   27.1876 C   0  0  0  0  0  0  0  0  0  0  0  0
   11.2344  -13.3233   28.5606 C   0  0  0  0  0  0  0  0  0  0  0  0
   11.3906  -14.5673   29.1087 C   0  0  0  0  0  0  0  0  0  0  0  0
   11.5854  -15.6665   28.3118 C   0  0  0  0  0  0  0  0  0  0  0  0
    9.6699  -17.7855   26.4611 C   0  0  0  0  0  0  0  0  0  0  0  0
    8.5728  -17.2429   26.7172 O   0  0  0  0  0  0  0  0  0  0  0  0
    9.9999  -18.9107   27.1841 O   0  0  0  0  0  0  0  0  0  0  0  0
  1  2  1  0
  3  5  1  0
  3  2  1  0
  3  4  1  6
  5  6  1  1
  7  9  1  0
  7  5  1  0
  8  7  2  0
 10  9  1  0
 11 12  1  0
 10 11  1  1
 12 17  1  0
 13 12  2  0
 13 14  1  0
 14 15  2  0
 15 16  1  0
 17 16  2  0
 18 10  1  0
 18 20  1  0
 19 18  2  0
 21 20  1  0
 21 29  1  0
 21 22  1  1
 23 22  1  0
 23 24  2  0
 25 24  1  0
 26 25  2  0
 27 28  2  0
 27 26  1  0
 28 23  1  0
 29 30  2  0
 29 31  1  0
M  END
$$$$
