IFF.pdb
     RDKit          3D

 31 32  0  0  1  0  0  0  0  0999 V2000
    6.4892  -22.2803   20.9268 C   0  0  0  0  0  0  0  0  0  0  0  0
    5.4919  -21.6465   21.8934 C   0  0  0  0  0  0  0  0  0  0  0  0
    5.9040  -20.2189   22.0932 C   0  0  2  0  0  0  0  0  0  0  0  0
    7.3854  -20.0830   22.3703 C   0  0  0  0  0  0  0  0  0  0  0  0
    5.0573  -19.4733   23.0629 C   0  0  2  0  0  0  0  0  0  0  0  0
    3.6732  -19.5114   22.5532 N   0  0  0  0  0  0  0  0  0  0  0  0
    5.4681  -18.0706   23.3102 C   0  0  0  0  0  0  0  0  0  0  0  0
    5.2858  -17.1826   22.4431 O   0  0  0  0  0  0  0  0  0  0  0  0
    6.0769  -17.7202   24.5435 N   0  0  0  0  0  0  0  0  0  0  0  0
    6.6518  -16.3748   24.7906 C   0  0  1  0  0  0  0  0  0  0  0  0
    6.3650  -15.9600   26.1911 C   0  0  0  0  0  0  0  0  0  0  0  0
    6.7863  -14.6311   26.6081 C   0  0  0  0  0  0  0  0  0  0  0  0
    8.0379  -14.3887   27.1460 C   0  0  0  0  0  0  0  0  0  0  0  0
    8.4472  -13.1209   27.5045 C   0  0  0  0  0  0  0  0  0  0  0  0
    7.6157  -12.0400   27.3379 C   0  0  0  0  0  0  0  0  0  0  0  0
    6.3757  -12.2602   26.8081 C   0  0  0  0  0  0  0  0  0  0  0  0
    5.9647  -13.5368   26.4478 C   0  0  0  0  0  0  0  0  0  0  0  0
    8.0452  -16.3309   24.3515 C   0  0  0  0  0  0  0  0  0  0  0  0
    8.7805  -17.3627   24.5844 O   0  0  0  0  0  0  0  0  0  0  0  0
    8.6980  -15.2734   23.6838 N   0  0  0  0  0  0  0  0  0  0  0  0
   10.0537  -15.4426   23.1230 C   0  0  1  0  0  0  0  0  0  0  0  0
   10.1795  -14.4545   21.9878 C   0  0  0  0  0  0  0  0  0  0  0  0
    9.0226  -14.3563   21.1095 C   0  0  0  0  0  0  0  0  0  0  0  0
    8.1489  -13.2960   21.2103 C   0  0  0  0  0  0  0  0  0  0  0  0
    7.0678  -13.2193   20.3575 C   0  0  0  0  0  0  0  0  0  0  0  0
    6.8349  -14.1822   19.3987 C   0  0  0  0  0  0  0  0  0  0  0  0
    7.7102  -15.2302   19.3090 C   0  0  0  0  0  0  0  0  0  0  0  0
    8.7892  -15.3182   20.1511 C   0  0  0  0  0  0  0  0  0  0  0  0
   11.1075  -15.2047   24.0992 C   0  0  0  0  0  0  0  0  0  0  0  0
   10.8696  -14.7931   25.2558 O   0  0  0  0  0  0  0  0  0  0  0  0
   12.4258  -15.4324   23.7707 O   0  0  0  0  0  0  0  0  0  0  0  0
  1  2  1  0
  3  5  1  0
  3  2  1  0
  3  4  1  1
  5  6  1  6
  7  9  1  0
  7  5  1  0
  8  7  2  0
 10  9  1  0
 11 12  1  0
 10 11  1  1
 12 17  1  0
 13 12  2  0
 13 14  1  0
 14 15  2  0
 15 16  1  0
 17 16  2  0
 18 10  1  0
 18 20  1  0
 19 18  2  0
 21 20  1  0
 21 29  1  0
 21 22  1  6
 23 22  1  0
 23 24  2  0
 25 24  1  0
 26 25  2  0
 27 28  2  0
 27 26  1  0
 28 23  1  0
 29 30  2  0
 29 31  1  0
M  END
$$$$
