IFF.pdb
     RDKit          3D

 31 32  0  0  1  0  0  0  0  0999 V2000
   10.9644  -21.2378   18.5027 C   0  0  0  0  0  0  0  0  0  0  0  0
   10.1042  -19.9911   18.3126 C   0  0  0  0  0  0  0  0  0  0  0  0
   10.2660  -19.1417   19.5374 C   0  0  2  0  0  0  0  0  0  0  0  0
    9.9317  -19.8954   20.8063 C   0  0  0  0  0  0  0  0  0  0  0  0
    9.5940  -17.8173   19.4501 C   0  0  2  0  0  0  0  0  0  0  0  0
   10.1859  -17.1024   18.3033 N   0  0  0  0  0  0  0  0  0  0  0  0
    9.6865  -16.9817   20.6711 C   0  0  0  0  0  0  0  0  0  0  0  0
   10.7865  -16.5122   21.0496 O   0  0  0  0  0  0  0  0  0  0  0  0
    8.5178  -16.7050   21.4274 N   0  0  0  0  0  0  0  0  0  0  0  0
    8.5434  -15.8592   22.6463 C   0  0  1  0  0  0  0  0  0  0  0  0
    7.2072  -15.2349   22.8476 C   0  0  0  0  0  0  0  0  0  0  0  0
    7.0129  -14.4068   24.0282 C   0  0  0  0  0  0  0  0  0  0  0  0
    7.4806  -13.1068   24.1029 C   0  0  0  0  0  0  0  0  0  0  0  0
    7.2607  -12.3124   25.2093 C   0  0  0  0  0  0  0  0  0  0  0  0
    6.5604  -12.7904   26.2903 C   0  0  0  0  0  0  0  0  0  0  0  0
    6.0909  -14.0723   26.2345 C   0  0  0  0  0  0  0  0  0  0  0  0
    6.3128  -14.8710   25.1204 C   0  0  0  0  0  0  0  0  0  0  0  0
    9.1096  -16.6051   23.7686 C   0  0  0  0  0  0  0  0  0  0  0  0
    8.6097  -17.7625   24.0331 O   0  0  0  0  0  0  0  0  0  0  0  0
   10.1649  -16.2052   24.6151 N   0  0  0  0  0  0  0  0  0  0  0  0
   10.6875  -17.1034   25.6645 C   0  0  1  0  0  0  0  0  0  0  0  0
   11.6913  -16.3028   26.4598 C   0  0  0  0  0  0  0  0  0  0  0  0
   11.1277  -15.3318   27.3865 C   0  0  0  0  0  0  0  0  0  0  0  0
   10.8170  -14.0564   26.9688 C   0  0  0  0  0  0  0  0  0  0  0  0
   10.2717  -13.1593   27.8631 C   0  0  0  0  0  0  0  0  0  0  0  0
   10.0267  -13.5062   29.1747 C   0  0  0  0  0  0  0  0  0  0  0  0
   10.3397  -14.7760   29.5770 C   0  0  0  0  0  0  0  0  0  0  0  0
   10.8825  -15.6776   28.6974 C   0  0  0  0  0  0  0  0  0  0  0  0
    9.6488  -17.6074   26.5517 C   0  0  0  0  0  0  0  0  0  0  0  0
    8.4859  -17.1477   26.5517 O   0  0  0  0  0  0  0  0  0  0  0  0
    9.9222  -18.6286   27.4349 O   0  0  0  0  0  0  0  0  0  0  0  0
  1  2  1  0
  3  5  1  0
  3  2  1  0
  3  4  1  1
  5  6  1  6
  7  9  1  0
  7  5  1  0
  8  7  2  0
 10  9  1  0
 11 12  1  0
 10 11  1  1
 12 17  1  0
 13 12  2  0
 13 14  1  0
 14 15  2  0
 15 16  1  0
 17 16  2  0
 18 10  1  0
 18 20  1  0
 19 18  2  0
 21 20  1  0
 21 29  1  0
 21 22  1  1
 23 22  1  0
 23 24  2  0
 25 24  1  0
 26 25  2  0
 27 28  2  0
 27 26  1  0
 28 23  1  0
 29 30  2  0
 29 31  1  0
M  END
$$$$
