ACK.pdb
     RDKit          3D

 21 20  0  0  1  0  0  0  0  0999 V2000
   20.2790  -14.0710  -17.0547 C   0  0  0  0  0  0  0  0  0  0  0  0
   20.2335  -12.6973  -17.7098 C   0  0  2  0  0  0  0  0  0  0  0  0
   21.5006  -12.4491  -18.3729 N   0  0  0  0  0  0  0  0  0  0  0  0
   20.0001  -11.6259  -16.7250 C   0  0  0  0  0  0  0  0  0  0  0  0
   18.9155  -11.5736  -16.0509 O   0  0  0  0  0  0  0  0  0  0  0  0
   20.9354  -10.5912  -16.4508 N   0  0  0  0  0  0  0  0  0  0  0  0
   20.6810   -9.5219  -15.5045 C   0  0  1  0  0  0  0  0  0  0  0  0
   22.0539   -9.0829  -14.9851 C   0  0  0  0  0  0  0  0  0  0  0  0
   21.9270   -7.6441  -13.9206 S   0  0  0  0  0  0  0  0  0  0  0  0
   19.9714   -8.3847  -16.1401 C   0  0  0  0  0  0  0  0  0  0  0  0
   20.4132   -7.9449  -17.2136 O   0  0  0  0  0  0  0  0  0  0  0  0
   18.8309   -7.7704  -15.6084 N   0  0  0  0  0  0  0  0  0  0  0  0
   18.0809   -6.7151  -16.1546 C   0  0  1  0  0  0  0  0  0  0  0  0
   16.5981   -6.8649  -16.1984 C   0  0  0  0  0  0  0  0  0  0  0  0
   15.9162   -5.7284  -16.9206 C   0  0  0  0  0  0  0  0  0  0  0  0
   14.4393   -5.9942  -16.9895 C   0  0  0  0  0  0  0  0  0  0  0  0
   13.6375   -4.9909  -17.7394 C   0  0  0  0  0  0  0  0  0  0  0  0
   12.2823   -5.5127  -17.8460 N   0  0  0  0  0  0  0  0  0  0  0  0
   18.3953   -5.4576  -15.4415 C   0  0  0  0  0  0  0  0  0  0  0  0
   18.2095   -4.3041  -15.9062 O   0  0  0  0  0  0  0  0  0  0  0  0
   18.9334   -5.5383  -14.1701 O   0  0  0  0  0  0  0  0  0  0  0  0
  2  1  1  1
  2  3  1  0
  4  2  1  0
  5  4  2  0
  6  4  1  0
  7  6  1  0
  7 10  1  0
  7  8  1  6
  9  8  1  0
 10 11  2  0
 12 10  1  0
 12 13  1  0
 13 14  1  1
 14 15  1  0
 15 16  1  0
 16 17  1  0
 18 17  1  0
 19 13  1  0
 19 21  1  0
 20 19  2  0
M  END
$$$$
