ACK.pdb
     RDKit          3D

 21 20  0  0  1  0  0  0  0  0999 V2000
   22.6664  -13.9675  -16.9091 C   0  0  0  0  0  0  0  0  0  0  0  0
   23.2719  -12.6062  -16.5951 C   0  0  2  0  0  0  0  0  0  0  0  0
   24.4317  -12.7916  -15.7423 N   0  0  0  0  0  0  0  0  0  0  0  0
   22.3146  -11.7253  -15.9024 C   0  0  0  0  0  0  0  0  0  0  0  0
   21.2129  -12.1804  -15.4414 O   0  0  0  0  0  0  0  0  0  0  0  0
   22.5311  -10.3357  -15.6954 N   0  0  0  0  0  0  0  0  0  0  0  0
   21.7278   -9.5333  -14.7930 C   0  0  1  0  0  0  0  0  0  0  0  0
   21.9002  -10.1592  -13.4053 C   0  0  0  0  0  0  0  0  0  0  0  0
   21.2013   -9.1189  -12.1212 S   0  0  0  0  0  0  0  0  0  0  0  0
   22.1615   -8.1146  -14.7872 C   0  0  0  0  0  0  0  0  0  0  0  0
   23.3590   -7.8692  -14.5706 O   0  0  0  0  0  0  0  0  0  0  0  0
   21.3073   -7.0279  -15.0107 N   0  0  0  0  0  0  0  0  0  0  0  0
   21.6497   -5.6735  -15.1619 C   0  0  1  0  0  0  0  0  0  0  0  0
   20.6869   -4.7880  -15.8775 C   0  0  0  0  0  0  0  0  0  0  0  0
   20.5803   -5.1077  -17.3487 C   0  0  0  0  0  0  0  0  0  0  0  0
   19.6181   -4.1547  -17.9990 C   0  0  0  0  0  0  0  0  0  0  0  0
   19.3714   -4.3762  -19.4488 C   0  0  0  0  0  0  0  0  0  0  0  0
   18.4285   -3.3570  -19.8875 N   0  0  0  0  0  0  0  0  0  0  0  0
   21.9254   -5.0771  -13.8364 C   0  0  0  0  0  0  0  0  0  0  0  0
   21.4106   -5.4621  -12.7558 O   0  0  0  0  0  0  0  0  0  0  0  0
   22.8115   -4.0180  -13.7622 O   0  0  0  0  0  0  0  0  0  0  0  0
  2  1  1  1
  2  3  1  0
  4  2  1  0
  5  4  2  0
  6  4  1  0
  7  6  1  0
  7 10  1  0
  7  8  1  1
  9  8  1  0
 10 11  2  0
 12 10  1  0
 12 13  1  0
 13 14  1  1
 14 15  1  0
 15 16  1  0
 16 17  1  0
 18 17  1  0
 19 13  1  0
 19 21  1  0
 20 19  2  0
M  END
$$$$
