ACK.pdb
     RDKit          3D

 21 20  0  0  1  0  0  0  0  0999 V2000
   18.0194  -12.0653  -18.6909 C   0  0  0  0  0  0  0  0  0  0  0  0
   18.9649  -10.9081  -18.9829 C   0  0  2  0  0  0  0  0  0  0  0  0
   20.0437  -11.3831  -19.8298 N   0  0  0  0  0  0  0  0  0  0  0  0
   19.5464  -10.3486  -17.7496 C   0  0  0  0  0  0  0  0  0  0  0  0
   18.8094   -9.7954  -16.8640 O   0  0  0  0  0  0  0  0  0  0  0  0
   20.9360  -10.3769  -17.4512 N   0  0  0  0  0  0  0  0  0  0  0  0
   21.4929   -9.8597  -16.2159 C   0  0  1  0  0  0  0  0  0  0  0  0
   22.7764  -10.6581  -15.9652 C   0  0  0  0  0  0  0  0  0  0  0  0
   23.7007  -10.0010  -14.5748 S   0  0  0  0  0  0  0  0  0  0  0  0
   21.7869   -8.4088  -16.3122 C   0  0  0  0  0  0  0  0  0  0  0  0
   22.4001   -8.0005  -17.3114 O   0  0  0  0  0  0  0  0  0  0  0  0
   21.4176   -7.4637  -15.3474 N   0  0  0  0  0  0  0  0  0  0  0  0
   21.5981   -6.0706  -15.3856 C   0  0  1  0  0  0  0  0  0  0  0  0
   20.4432   -5.2307  -15.8144 C   0  0  0  0  0  0  0  0  0  0  0  0
   20.7673   -3.7567  -15.8345 C   0  0  0  0  0  0  0  0  0  0  0  0
   19.5423   -2.9808  -16.2273 C   0  0  0  0  0  0  0  0  0  0  0  0
   19.7168   -1.5073  -16.3280 C   0  0  0  0  0  0  0  0  0  0  0  0
   18.4300   -0.9449  -16.7128 N   0  0  0  0  0  0  0  0  0  0  0  0
   22.0506   -5.5892  -14.0619 C   0  0  0  0  0  0  0  0  0  0  0  0
   21.8554   -6.1907  -12.9751 O   0  0  0  0  0  0  0  0  0  0  0  0
   22.7399   -4.3921  -13.9969 O   0  0  0  0  0  0  0  0  0  0  0  0
  2  1  1  1
  2  3  1  0
  4  2  1  0
  5  4  2  0
  6  4  1  0
  7  6  1  0
  7 10  1  0
  7  8  1  6
  9  8  1  0
 10 11  2  0
 12 10  1  0
 12 13  1  0
 13 14  1  1
 14 15  1  0
 15 16  1  0
 16 17  1  0
 18 17  1  0
 19 13  1  0
 19 21  1  0
 20 19  2  0
M  END
$$$$
