ACK.pdb
     RDKit          3D

 21 20  0  0  1  0  0  0  0  0999 V2000
   25.2664  -20.3414   13.9077 C   0  0  0  0  0  0  0  0  0  0  0  0
   25.3522  -19.3273   12.7752 C   0  0  2  0  0  0  0  0  0  0  0  0
   24.0248  -19.1211   12.2256 N   0  0  0  0  0  0  0  0  0  0  0  0
   26.2432  -19.7846   11.6940 C   0  0  0  0  0  0  0  0  0  0  0  0
   25.8235  -20.5773   10.7835 O   0  0  0  0  0  0  0  0  0  0  0  0
   27.6047  -19.3931   11.5773 N   0  0  0  0  0  0  0  0  0  0  0  0
   28.4879  -19.8924   10.5407 C   0  0  1  0  0  0  0  0  0  0  0  0
   29.2989  -18.6847   10.0600 C   0  0  0  0  0  0  0  0  0  0  0  0
   28.8762  -18.2350    8.3752 S   0  0  0  0  0  0  0  0  0  0  0  0
   29.3848  -20.9582   11.0511 C   0  0  0  0  0  0  0  0  0  0  0  0
   29.8880  -20.8111   12.1764 O   0  0  0  0  0  0  0  0  0  0  0  0
   29.7039  -22.1250   10.3459 N   0  0  0  0  0  0  0  0  0  0  0  0
   30.5697  -23.1619   10.7330 C   0  0  1  0  0  0  0  0  0  0  0  0
   30.8036  -24.2712    9.7646 C   0  0  0  0  0  0  0  0  0  0  0  0
   31.5585  -25.4286   10.3719 C   0  0  0  0  0  0  0  0  0  0  0  0
   31.8310  -26.4586    9.3129 C   0  0  0  0  0  0  0  0  0  0  0  0
   32.6612  -27.6170    9.7381 C   0  0  0  0  0  0  0  0  0  0  0  0
   32.9113  -28.4272    8.5543 N   0  0  0  0  0  0  0  0  0  0  0  0
   31.8837  -22.5992   11.1141 C   0  0  0  0  0  0  0  0  0  0  0  0
   32.5366  -21.7733   10.4266 O   0  0  0  0  0  0  0  0  0  0  0  0
   32.4499  -23.0000   12.3104 O   0  0  0  0  0  0  0  0  0  0  0  0
  2  1  1  1
  2  3  1  0
  4  2  1  0
  5  4  2  0
  6  4  1  0
  7  6  1  0
  7 10  1  0
  7  8  1  1
  9  8  1  0
 10 11  2  0
 12 10  1  0
 12 13  1  0
 13 14  1  6
 14 15  1  0
 15 16  1  0
 16 17  1  0
 18 17  1  0
 19 13  1  0
 19 21  1  0
 20 19  2  0
M  END
$$$$
