ACK.pdb
     RDKit          3D

 21 20  0  0  1  0  0  0  0  0999 V2000
   28.6804  -22.5284  -15.9992 C   0  0  0  0  0  0  0  0  0  0  0  0
   27.6426  -21.4321  -15.8008 C   0  0  2  0  0  0  0  0  0  0  0  0
   28.3205  -20.2017  -15.4358 N   0  0  0  0  0  0  0  0  0  0  0  0
   26.6800  -21.7721  -14.7377 C   0  0  0  0  0  0  0  0  0  0  0  0
   25.9151  -22.7908  -14.8408 O   0  0  0  0  0  0  0  0  0  0  0  0
   26.5269  -21.0166  -13.5434 N   0  0  0  0  0  0  0  0  0  0  0  0
   25.5574  -21.3448  -12.5158 C   0  0  1  0  0  0  0  0  0  0  0  0
   26.1729  -20.8806  -11.1917 C   0  0  0  0  0  0  0  0  0  0  0  0
   24.9491  -20.8203   -9.8810 S   0  0  0  0  0  0  0  0  0  0  0  0
   24.2565  -20.6728  -12.7547 C   0  0  0  0  0  0  0  0  0  0  0  0
   24.2497  -19.4379  -12.8808 O   0  0  0  0  0  0  0  0  0  0  0  0
   23.0294  -21.3407  -12.8482 N   0  0  0  0  0  0  0  0  0  0  0  0
   21.7602  -20.7905  -13.0948 C   0  0  1  0  0  0  0  0  0  0  0  0
   20.7934  -21.6001  -13.8904 C   0  0  0  0  0  0  0  0  0  0  0  0
   19.4990  -20.8707  -14.1564 C   0  0  0  0  0  0  0  0  0  0  0  0
   18.4555  -21.8525  -14.6080 C   0  0  0  0  0  0  0  0  0  0  0  0
   17.1163  -21.2786  -14.9067 C   0  0  0  0  0  0  0  0  0  0  0  0
   16.2374  -22.3879  -15.2492 N   0  0  0  0  0  0  0  0  0  0  0  0
   21.1141  -20.4312  -11.8134 C   0  0  0  0  0  0  0  0  0  0  0  0
   21.2723  -21.0522  -10.7316 O   0  0  0  0  0  0  0  0  0  0  0  0
   20.2714  -19.3350  -11.7853 O   0  0  0  0  0  0  0  0  0  0  0  0
  2  1  1  1
  2  3  1  0
  4  2  1  0
  5  4  2  0
  6  4  1  0
  7  6  1  0
  7 10  1  0
  7  8  1  1
  9  8  1  0
 10 11  2  0
 12 10  1  0
 12 13  1  0
 13 14  1  1
 14 15  1  0
 15 16  1  0
 16 17  1  0
 18 17  1  0
 19 13  1  0
 19 21  1  0
 20 19  2  0
M  END
$$$$
