ACK.pdb
     RDKit          3D

 21 20  0  0  1  0  0  0  0  0999 V2000
   19.2530  -11.6422  -16.1209 C   0  0  0  0  0  0  0  0  0  0  0  0
   18.4518  -10.3935  -15.7787 C   0  0  2  0  0  0  0  0  0  0  0  0
   18.8051   -9.3371  -16.7093 N   0  0  0  0  0  0  0  0  0  0  0  0
   18.7242   -9.9239  -14.4085 C   0  0  0  0  0  0  0  0  0  0  0  0
   18.4492  -10.6514  -13.3943 O   0  0  0  0  0  0  0  0  0  0  0  0
   19.2990   -8.6586  -14.1096 N   0  0  0  0  0  0  0  0  0  0  0  0
   19.5133   -8.1843  -12.7558 C   0  0  1  0  0  0  0  0  0  0  0  0
   20.6923   -7.2088  -12.8325 C   0  0  0  0  0  0  0  0  0  0  0  0
   20.9392   -6.3492  -11.2770 S   0  0  0  0  0  0  0  0  0  0  0  0
   18.3081   -7.5104  -12.2136 C   0  0  0  0  0  0  0  0  0  0  0  0
   17.7453   -6.6591  -12.9204 O   0  0  0  0  0  0  0  0  0  0  0  0
   17.7594   -7.7709  -10.9520 N   0  0  0  0  0  0  0  0  0  0  0  0
   16.6145   -7.2002  -10.3705 C   0  0  1  0  0  0  0  0  0  0  0  0
   15.5943   -8.1215   -9.7930 C   0  0  0  0  0  0  0  0  0  0  0  0
   14.3825   -7.3943   -9.2630 C   0  0  0  0  0  0  0  0  0  0  0  0
   13.4035   -8.3907   -8.7104 C   0  0  0  0  0  0  0  0  0  0  0  0
   12.2199   -7.8159   -8.0172 C   0  0  0  0  0  0  0  0  0  0  0  0
   11.4559   -8.9288   -7.4714 N   0  0  0  0  0  0  0  0  0  0  0  0
   17.0146   -6.2396   -9.3190 C   0  0  0  0  0  0  0  0  0  0  0  0
   18.1424   -6.2128   -8.7638 O   0  0  0  0  0  0  0  0  0  0  0  0
   16.0932   -5.2953   -8.9045 O   0  0  0  0  0  0  0  0  0  0  0  0
  2  1  1  6
  2  3  1  0
  4  2  1  0
  5  4  2  0
  6  4  1  0
  7  6  1  0
  7 10  1  0
  7  8  1  6
  9  8  1  0
 10 11  2  0
 12 10  1  0
 12 13  1  0
 13 14  1  1
 14 15  1  0
 15 16  1  0
 16 17  1  0
 18 17  1  0
 19 13  1  0
 19 21  1  0
 20 19  2  0
M  END
$$$$
