ACK.pdb
     RDKit          3D

 21 20  0  0  1  0  0  0  0  0999 V2000
   19.3605  -13.4156  -16.5777 C   0  0  0  0  0  0  0  0  0  0  0  0
   18.0121  -12.7170  -16.4681 C   0  0  2  0  0  0  0  0  0  0  0  0
   17.6897  -12.1112  -17.7471 N   0  0  0  0  0  0  0  0  0  0  0  0
   18.0209  -11.6634  -15.4375 C   0  0  0  0  0  0  0  0  0  0  0  0
   18.0741  -11.9562  -14.1945 O   0  0  0  0  0  0  0  0  0  0  0  0
   17.9722  -10.2736  -15.7319 N   0  0  0  0  0  0  0  0  0  0  0  0
   18.0400   -9.2438  -14.7129 C   0  0  1  0  0  0  0  0  0  0  0  0
   19.4050   -8.5695  -14.8849 C   0  0  0  0  0  0  0  0  0  0  0  0
   19.6292   -7.9512  -16.5543 S   0  0  0  0  0  0  0  0  0  0  0  0
   16.9435   -8.2553  -14.8586 C   0  0  0  0  0  0  0  0  0  0  0  0
   16.6790   -7.8376  -15.9973 O   0  0  0  0  0  0  0  0  0  0  0  0
   16.1826   -7.7588  -13.7931 N   0  0  0  0  0  0  0  0  0  0  0  0
   15.0809   -6.8882  -13.8470 C   0  0  1  0  0  0  0  0  0  0  0  0
   14.0444   -7.0108  -12.7823 C   0  0  0  0  0  0  0  0  0  0  0  0
   12.8643   -6.0967  -13.0065 C   0  0  0  0  0  0  0  0  0  0  0  0
   11.8920   -6.2479  -11.8713 C   0  0  0  0  0  0  0  0  0  0  0  0
   10.5893   -5.5506  -12.0406 C   0  0  0  0  0  0  0  0  0  0  0  0
    9.7339   -5.9584  -10.9351 N   0  0  0  0  0  0  0  0  0  0  0  0
   15.5529   -5.4863  -13.8702 C   0  0  0  0  0  0  0  0  0  0  0  0
   14.9064   -4.5199  -14.3486 O   0  0  0  0  0  0  0  0  0  0  0  0
   16.7936   -5.2001  -13.3305 O   0  0  0  0  0  0  0  0  0  0  0  0
  2  1  1  6
  2  3  1  0
  4  2  1  0
  5  4  2  0
  6  4  1  0
  7  6  1  0
  7 10  1  0
  7  8  1  6
  9  8  1  0
 10 11  2  0
 12 10  1  0
 12 13  1  0
 13 14  1  1
 14 15  1  0
 15 16  1  0
 16 17  1  0
 18 17  1  0
 19 13  1  0
 19 21  1  0
 20 19  2  0
M  END
$$$$
