ACK.pdb
     RDKit          3D

 21 20  0  0  1  0  0  0  0  0999 V2000
   13.4575  -12.0755  -12.1418 C   0  0  0  0  0  0  0  0  0  0  0  0
   14.7921  -11.4020  -12.4308 C   0  0  2  0  0  0  0  0  0  0  0  0
   15.8424  -12.1166  -11.7287 N   0  0  0  0  0  0  0  0  0  0  0  0
   14.8049   -9.9954  -11.9910 C   0  0  0  0  0  0  0  0  0  0  0  0
   14.1127   -9.1080  -12.5966 O   0  0  0  0  0  0  0  0  0  0  0  0
   15.5666   -9.5223  -10.8880 N   0  0  0  0  0  0  0  0  0  0  0  0
   15.6073   -8.1278  -10.4916 C   0  0  1  0  0  0  0  0  0  0  0  0
   16.0236   -8.1204   -9.0171 C   0  0  0  0  0  0  0  0  0  0  0  0
   16.5194   -6.4818   -8.4801 S   0  0  0  0  0  0  0  0  0  0  0  0
   16.5689   -7.3522  -11.3130 C   0  0  0  0  0  0  0  0  0  0  0  0
   17.7133   -7.8094  -11.4628 O   0  0  0  0  0  0  0  0  0  0  0  0
   16.2716   -6.1330  -11.9341 N   0  0  0  0  0  0  0  0  0  0  0  0
   17.0722   -5.3955  -12.8228 C   0  0  1  0  0  0  0  0  0  0  0  0
   16.9138   -5.6562  -14.2823 C   0  0  0  0  0  0  0  0  0  0  0  0
   17.8674   -4.8478  -15.1280 C   0  0  0  0  0  0  0  0  0  0  0  0
   17.6414   -5.1653  -16.5788 C   0  0  0  0  0  0  0  0  0  0  0  0
   18.5855   -4.5261  -17.5337 C   0  0  0  0  0  0  0  0  0  0  0  0
   18.2074   -4.9600  -18.8712 N   0  0  0  0  0  0  0  0  0  0  0  0
   16.8739   -3.9481  -12.5899 C   0  0  0  0  0  0  0  0  0  0  0  0
   15.9292   -3.4516  -11.9252 O   0  0  0  0  0  0  0  0  0  0  0  0
   17.7848   -3.0623  -13.1360 O   0  0  0  0  0  0  0  0  0  0  0  0
  2  1  1  1
  2  3  1  0
  4  2  1  0
  5  4  2  0
  6  4  1  0
  7  6  1  0
  7 10  1  0
  7  8  1  1
  9  8  1  0
 10 11  2  0
 12 10  1  0
 12 13  1  0
 13 14  1  6
 14 15  1  0
 15 16  1  0
 16 17  1  0
 18 17  1  0
 19 13  1  0
 19 21  1  0
 20 19  2  0
M  END
$$$$
