ACK.pdb
     RDKit          3D

 21 20  0  0  1  0  0  0  0  0999 V2000
   19.7609   -2.7957  -19.9777 C   0  0  0  0  0  0  0  0  0  0  0  0
   21.1933   -2.5898  -19.5042 C   0  0  2  0  0  0  0  0  0  0  0  0
   22.0870   -2.7048  -20.6420 N   0  0  0  0  0  0  0  0  0  0  0  0
   21.5872   -3.5878  -18.4938 C   0  0  0  0  0  0  0  0  0  0  0  0
   21.9110   -4.7771  -18.8318 O   0  0  0  0  0  0  0  0  0  0  0  0
   21.6382   -3.3183  -17.0990 N   0  0  0  0  0  0  0  0  0  0  0  0
   22.0278   -4.3083  -16.1132 C   0  0  1  0  0  0  0  0  0  0  0  0
   22.5524   -3.5201  -14.9086 C   0  0  0  0  0  0  0  0  0  0  0  0
   22.8293   -4.5868  -13.4927 S   0  0  0  0  0  0  0  0  0  0  0  0
   20.8858   -5.1699  -15.7206 C   0  0  0  0  0  0  0  0  0  0  0  0
   19.8679   -4.6226  -15.2671 O   0  0  0  0  0  0  0  0  0  0  0  0
   20.8780   -6.5660  -15.8273 N   0  0  0  0  0  0  0  0  0  0  0  0
   19.8786   -7.4613  -15.4099 C   0  0  1  0  0  0  0  0  0  0  0  0
   20.0981   -8.9148  -15.6593 C   0  0  0  0  0  0  0  0  0  0  0  0
   18.9303   -9.7661  -15.2237 C   0  0  0  0  0  0  0  0  0  0  0  0
   18.6515  -10.8062  -16.2712 C   0  0  0  0  0  0  0  0  0  0  0  0
   17.5046  -11.7111  -15.9926 C   0  0  0  0  0  0  0  0  0  0  0  0
   17.4451  -12.6803  -17.0777 N   0  0  0  0  0  0  0  0  0  0  0  0
   19.6144   -7.2771  -13.9660 C   0  0  0  0  0  0  0  0  0  0  0  0
   20.4999   -7.2390  -13.0742 O   0  0  0  0  0  0  0  0  0  0  0  0
   18.3034   -7.1348  -13.5493 O   0  0  0  0  0  0  0  0  0  0  0  0
  2  1  1  6
  2  3  1  0
  4  2  1  0
  5  4  2  0
  6  4  1  0
  7  6  1  0
  7 10  1  0
  7  8  1  1
  9  8  1  0
 10 11  2  0
 12 10  1  0
 12 13  1  0
 13 14  1  1
 14 15  1  0
 15 16  1  0
 16 17  1  0
 18 17  1  0
 19 13  1  0
 19 21  1  0
 20 19  2  0
M  END
$$$$
