ACK.pdb
     RDKit          3D

 21 20  0  0  1  0  0  0  0  0999 V2000
   12.1898  -10.9182  -10.5904 C   0  0  0  0  0  0  0  0  0  0  0  0
   12.7092  -10.2856   -9.3065 C   0  0  2  0  0  0  0  0  0  0  0  0
   11.5889  -10.0325   -8.4191 N   0  0  0  0  0  0  0  0  0  0  0  0
   13.4032   -9.0110   -9.5633 C   0  0  0  0  0  0  0  0  0  0  0  0
   12.8159   -8.0492  -10.1661 O   0  0  0  0  0  0  0  0  0  0  0  0
   14.7455   -8.7530   -9.1728 N   0  0  0  0  0  0  0  0  0  0  0  0
   15.4284   -7.5052   -9.4564 C   0  0  1  0  0  0  0  0  0  0  0  0
   15.9498   -6.9943   -8.1093 C   0  0  0  0  0  0  0  0  0  0  0  0
   14.6910   -6.0748   -7.2209 S   0  0  0  0  0  0  0  0  0  0  0  0
   16.5453   -7.6968  -10.4137 C   0  0  0  0  0  0  0  0  0  0  0  0
   17.3284   -8.6402  -10.2189 O   0  0  0  0  0  0  0  0  0  0  0  0
   16.7774   -6.8814  -11.5281 N   0  0  0  0  0  0  0  0  0  0  0  0
   17.7420   -7.0464  -12.5365 C   0  0  1  0  0  0  0  0  0  0  0  0
   17.3535   -7.8180  -13.7517 C   0  0  0  0  0  0  0  0  0  0  0  0
   18.4898   -7.9764  -14.7324 C   0  0  0  0  0  0  0  0  0  0  0  0
   17.9977   -8.6958  -15.9560 C   0  0  0  0  0  0  0  0  0  0  0  0
   19.0347   -9.0311  -16.9679 C   0  0  0  0  0  0  0  0  0  0  0  0
   18.3526   -9.6428  -18.0996 N   0  0  0  0  0  0  0  0  0  0  0  0
   18.2408   -5.7233  -12.9718 C   0  0  0  0  0  0  0  0  0  0  0  0
   19.3880   -5.5078  -13.4390 O   0  0  0  0  0  0  0  0  0  0  0  0
   17.3967   -4.6332  -12.8638 O   0  0  0  0  0  0  0  0  0  0  0  0
  2  1  1  6
  2  3  1  0
  4  2  1  0
  5  4  2  0
  6  4  1  0
  7  6  1  0
  7 10  1  0
  7  8  1  1
  9  8  1  0
 10 11  2  0
 12 10  1  0
 12 13  1  0
 13 14  1  6
 14 15  1  0
 15 16  1  0
 16 17  1  0
 18 17  1  0
 19 13  1  0
 19 21  1  0
 20 19  2  0
M  END
$$$$
