YDK.pdb
     RDKit          3D

 30 30  0  0  1  0  0  0  0  0999 V2000
    5.3593  -10.7557   26.4372 O   0  0  0  0  0  0  0  0  0  0  0  0
    6.2318  -11.7439   25.9666 C   0  0  0  0  0  0  0  0  0  0  0  0
    6.8504  -12.6094   26.8466 C   0  0  0  0  0  0  0  0  0  0  0  0
    7.7133  -13.5886   26.3973 C   0  0  0  0  0  0  0  0  0  0  0  0
    7.9959  -13.7471   25.0566 C   0  0  0  0  0  0  0  0  0  0  0  0
    8.9055  -14.7713   24.5277 C   0  0  0  0  0  0  0  0  0  0  0  0
    8.2921  -15.6029   23.4311 C   0  0  2  0  0  0  0  0  0  0  0  0
    7.1470  -16.3424   23.8512 N   0  0  0  0  0  0  0  0  0  0  0  0
    9.3125  -16.5617   22.9341 C   0  0  0  0  0  0  0  0  0  0  0  0
    9.3111  -17.7199   23.4693 O   0  0  0  0  0  0  0  0  0  0  0  0
    7.3631  -12.8654   24.1834 C   0  0  0  0  0  0  0  0  0  0  0  0
    6.5044  -11.8898   24.6227 C   0  0  0  0  0  0  0  0  0  0  0  0
   10.2561  -16.2426   21.9189 N   0  0  0  0  0  0  0  0  0  0  0  0
   11.4687  -17.0092   21.7626 C   0  0  1  0  0  0  0  0  0  0  0  0
   12.3339  -16.5523   20.6219 C   0  0  0  0  0  0  0  0  0  0  0  0
   11.7119  -16.6820   19.3041 C   0  0  0  0  0  0  0  0  0  0  0  0
   11.0667  -17.7069   18.9808 O   0  0  0  0  0  0  0  0  0  0  0  0
   12.2876  -16.9014   23.0131 C   0  0  0  0  0  0  0  0  0  0  0  0
   12.7346  -15.7890   23.4219 O   0  0  0  0  0  0  0  0  0  0  0  0
   11.8259  -15.6626   18.3769 O   0  0  0  0  0  0  0  0  0  0  0  0
   12.6033  -18.0400   23.8019 N   0  0  0  0  0  0  0  0  0  0  0  0
   13.1503  -17.9233   25.1494 C   0  0  1  0  0  0  0  0  0  0  0  0
   12.0850  -18.1907   26.1914 C   0  0  0  0  0  0  0  0  0  0  0  0
   12.6703  -18.2319   27.5870 C   0  0  0  0  0  0  0  0  0  0  0  0
   11.5150  -18.4878   28.5464 C   0  0  0  0  0  0  0  0  0  0  0  0
   12.0736  -18.4505   29.9535 C   0  0  0  0  0  0  0  0  0  0  0  0
   10.9387  -18.5875   30.8520 N   0  0  0  0  0  0  0  0  0  0  0  0
   14.1712  -18.9944   25.2768 C   0  0  0  0  0  0  0  0  0  0  0  0
   13.9399  -20.0950   24.7190 O   0  0  0  0  0  0  0  0  0  0  0  0
   15.3604  -18.8504   25.9733 O   0  0  0  0  0  0  0  0  0  0  0  0
  1  2  1  0
  2 12  2  0
  3  2  1  0
  3  4  2  0
  4  5  1  0
  5 11  2  0
  5  6  1  0
  6  7  1  0
  7  8  1  1
  9 10  2  0
  9  7  1  0
 12 11  1  0
 13  9  1  0
 14 13  1  0
 14 15  1  6
 16 15  1  0
 16 20  1  0
 17 16  2  0
 18 14  1  0
 19 18  2  0
 21 18  1  0
 22 21  1  0
 23 24  1  0
 22 23  1  1
 25 24  1  0
 26 25  1  0
 27 26  1  0
 28 30  1  0
 28 22  1  0
 29 28  2  0
M  END
$$$$
