YDK.pdb
     RDKit          3D

 30 30  0  0  1  0  0  0  0  0999 V2000
    4.6678  -10.5341   26.9111 O   0  0  0  0  0  0  0  0  0  0  0  0
    5.5797  -11.4733   26.4159 C   0  0  0  0  0  0  0  0  0  0  0  0
    6.4859  -12.0831   27.2604 C   0  0  0  0  0  0  0  0  0  0  0  0
    7.3912  -13.0111   26.7866 C   0  0  0  0  0  0  0  0  0  0  0  0
    7.4324  -13.3702   25.4554 C   0  0  0  0  0  0  0  0  0  0  0  0
    8.3748  -14.3505   24.9013 C   0  0  0  0  0  0  0  0  0  0  0  0
    7.7028  -15.5972   24.3872 C   0  0  2  0  0  0  0  0  0  0  0  0
    7.0306  -16.3406   25.4021 N   0  0  0  0  0  0  0  0  0  0  0  0
    8.7328  -16.4725   23.7701 C   0  0  0  0  0  0  0  0  0  0  0  0
    8.9116  -17.6111   24.3173 O   0  0  0  0  0  0  0  0  0  0  0  0
    6.5112  -12.7452   24.6181 C   0  0  0  0  0  0  0  0  0  0  0  0
    5.6086  -11.8221   25.0819 C   0  0  0  0  0  0  0  0  0  0  0  0
    9.4977  -16.0966   22.6315 N   0  0  0  0  0  0  0  0  0  0  0  0
   10.5637  -16.9365   22.1409 C   0  0  1  0  0  0  0  0  0  0  0  0
   11.1186  -16.5014   20.8137 C   0  0  0  0  0  0  0  0  0  0  0  0
   12.1071  -17.4172   20.2442 C   0  0  0  0  0  0  0  0  0  0  0  0
   12.9083  -17.0473   19.3540 O   0  0  0  0  0  0  0  0  0  0  0  0
   11.6960  -16.9237   23.1224 C   0  0  0  0  0  0  0  0  0  0  0  0
   12.4184  -15.8971   23.2916 O   0  0  0  0  0  0  0  0  0  0  0  0
   12.1771  -18.7266   20.6828 O   0  0  0  0  0  0  0  0  0  0  0  0
   12.0158  -18.0610   23.9115 N   0  0  0  0  0  0  0  0  0  0  0  0
   13.0890  -18.0432   24.8998 C   0  0  1  0  0  0  0  0  0  0  0  0
   12.8369  -19.0612   25.9916 C   0  0  0  0  0  0  0  0  0  0  0  0
   11.4510  -18.9114   26.5821 C   0  0  0  0  0  0  0  0  0  0  0  0
   11.3157  -19.9668   27.6723 C   0  0  0  0  0  0  0  0  0  0  0  0
   10.0259  -19.6911   28.4166 C   0  0  0  0  0  0  0  0  0  0  0  0
    9.9306  -20.6955   29.4636 N   0  0  0  0  0  0  0  0  0  0  0  0
   14.3204  -18.4611   24.1823 C   0  0  0  0  0  0  0  0  0  0  0  0
   15.4154  -18.3601   24.7879 O   0  0  0  0  0  0  0  0  0  0  0  0
   14.3313  -18.9544   22.8875 O   0  0  0  0  0  0  0  0  0  0  0  0
  1  2  1  0
  2 12  2  0
  3  2  1  0
  3  4  2  0
  4  5  1  0
  5 11  2  0
  5  6  1  0
  6  7  1  0
  7  8  1  1
  9 10  2  0
  9  7  1  0
 12 11  1  0
 13  9  1  0
 14 13  1  0
 14 15  1  6
 16 15  1  0
 16 20  1  0
 17 16  2  0
 18 14  1  0
 19 18  2  0
 21 18  1  0
 22 21  1  0
 23 24  1  0
 22 23  1  1
 25 24  1  0
 26 25  1  0
 27 26  1  0
 28 30  1  0
 28 22  1  0
 29 28  2  0
M  END
$$$$
