YDK.pdb
     RDKit          3D

 30 30  0  0  1  0  0  0  0  0999 V2000
    7.3517  -13.4353   25.6298 O   0  0  0  0  0  0  0  0  0  0  0  0
    7.6219  -13.6806   24.2786 C   0  0  0  0  0  0  0  0  0  0  0  0
    7.4666  -14.9471   23.7515 C   0  0  0  0  0  0  0  0  0  0  0  0
    7.7293  -15.2042   22.4211 C   0  0  0  0  0  0  0  0  0  0  0  0
    8.1566  -14.2137   21.5614 C   0  0  0  0  0  0  0  0  0  0  0  0
    8.4496  -14.4348   20.1397 C   0  0  0  0  0  0  0  0  0  0  0  0
    8.2764  -15.8693   19.7125 C   0  0  2  0  0  0  0  0  0  0  0  0
    6.9738  -16.3875   19.9758 N   0  0  0  0  0  0  0  0  0  0  0  0
    9.2683  -16.7045   20.4379 C   0  0  0  0  0  0  0  0  0  0  0  0
    8.8058  -17.4810   21.3385 O   0  0  0  0  0  0  0  0  0  0  0  0
    8.3078  -12.9424   22.1101 C   0  0  0  0  0  0  0  0  0  0  0  0
    8.0486  -12.6795   23.4314 C   0  0  0  0  0  0  0  0  0  0  0  0
   10.6648  -16.6682   20.1713 N   0  0  0  0  0  0  0  0  0  0  0  0
   11.5812  -17.5244   20.8851 C   0  0  1  0  0  0  0  0  0  0  0  0
   12.9859  -17.4898   20.3522 C   0  0  0  0  0  0  0  0  0  0  0  0
   13.1153  -17.9340   18.9643 C   0  0  0  0  0  0  0  0  0  0  0  0
   12.5235  -18.9561   18.5444 O   0  0  0  0  0  0  0  0  0  0  0  0
   11.6394  -17.0998   22.3211 C   0  0  0  0  0  0  0  0  0  0  0  0
   12.1563  -15.9968   22.6684 O   0  0  0  0  0  0  0  0  0  0  0  0
   13.9041  -17.2253   18.0770 O   0  0  0  0  0  0  0  0  0  0  0  0
   11.1184  -17.9120   23.3639 N   0  0  0  0  0  0  0  0  0  0  0  0
   11.1434  -17.4921   24.7609 C   0  0  1  0  0  0  0  0  0  0  0  0
    9.9321  -18.0131   25.5047 C   0  0  0  0  0  0  0  0  0  0  0  0
    8.8132  -16.9935   25.5283 C   0  0  0  0  0  0  0  0  0  0  0  0
    7.6656  -17.6109   26.3172 C   0  0  0  0  0  0  0  0  0  0  0  0
    6.5341  -16.6045   26.3396 C   0  0  0  0  0  0  0  0  0  0  0  0
    5.4093  -17.2622   26.9850 N   0  0  0  0  0  0  0  0  0  0  0  0
   12.3406  -18.1308   25.3646 C   0  0  0  0  0  0  0  0  0  0  0  0
   12.6990  -19.2474   24.9164 O   0  0  0  0  0  0  0  0  0  0  0  0
   13.0829  -17.5681   26.3904 O   0  0  0  0  0  0  0  0  0  0  0  0
  1  2  1  0
  2 12  2  0
  3  2  1  0
  3  4  2  0
  4  5  1  0
  5 11  2  0
  5  6  1  0
  6  7  1  0
  7  8  1  1
  9 10  2  0
  9  7  1  0
 12 11  1  0
 13  9  1  0
 14 13  1  0
 14 15  1  6
 16 15  1  0
 16 20  1  0
 17 16  2  0
 18 14  1  0
 19 18  2  0
 21 18  1  0
 22 21  1  0
 23 24  1  0
 22 23  1  1
 25 24  1  0
 26 25  1  0
 27 26  1  0
 28 30  1  0
 28 22  1  0
 29 28  2  0
M  END
$$$$
