YDK.pdb
     RDKit          3D

 30 30  0  0  1  0  0  0  0  0999 V2000
    7.8488  -11.5836   24.5714 O   0  0  0  0  0  0  0  0  0  0  0  0
    7.4928  -12.9271   24.4058 C   0  0  0  0  0  0  0  0  0  0  0  0
    7.2821  -13.7368   25.5040 C   0  0  0  0  0  0  0  0  0  0  0  0
    6.9307  -15.0634   25.3563 C   0  0  0  0  0  0  0  0  0  0  0  0
    6.7748  -15.6385   24.1122 C   0  0  0  0  0  0  0  0  0  0  0  0
    6.4030  -17.0431   23.9010 C   0  0  0  0  0  0  0  0  0  0  0  0
    7.3502  -17.7787   22.9887 C   0  0  2  0  0  0  0  0  0  0  0  0
    6.9248  -19.1040   22.6767 N   0  0  0  0  0  0  0  0  0  0  0  0
    8.6800  -17.8562   23.6467 C   0  0  0  0  0  0  0  0  0  0  0  0
    8.8766  -18.8574   24.4128 O   0  0  0  0  0  0  0  0  0  0  0  0
    6.9913  -14.8070   23.0158 C   0  0  0  0  0  0  0  0  0  0  0  0
    7.3407  -13.4877   23.1550 C   0  0  0  0  0  0  0  0  0  0  0  0
    9.7034  -16.8868   23.4578 N   0  0  0  0  0  0  0  0  0  0  0  0
   11.0640  -17.1535   23.8579 C   0  0  1  0  0  0  0  0  0  0  0  0
   12.0928  -16.6638   22.8779 C   0  0  0  0  0  0  0  0  0  0  0  0
   13.4757  -16.9402   23.2672 C   0  0  0  0  0  0  0  0  0  0  0  0
   13.8021  -18.0248   23.8041 O   0  0  0  0  0  0  0  0  0  0  0  0
   11.3376  -16.4758   25.1661 C   0  0  0  0  0  0  0  0  0  0  0  0
   12.4960  -16.4608   25.6784 O   0  0  0  0  0  0  0  0  0  0  0  0
   14.4627  -15.9971   23.0475 O   0  0  0  0  0  0  0  0  0  0  0  0
   10.3127  -15.8168   25.8968 N   0  0  0  0  0  0  0  0  0  0  0  0
   10.5393  -15.2693   27.2301 C   0  0  1  0  0  0  0  0  0  0  0  0
    9.3240  -14.5092   27.7172 C   0  0  0  0  0  0  0  0  0  0  0  0
    8.8992  -13.4462   26.7265 C   0  0  0  0  0  0  0  0  0  0  0  0
    7.6848  -12.7443   27.3208 C   0  0  0  0  0  0  0  0  0  0  0  0
    7.3075  -11.6147   26.3852 C   0  0  0  0  0  0  0  0  0  0  0  0
    6.5314  -12.2110   25.3100 N   0  0  0  0  0  0  0  0  0  0  0  0
   10.7214  -16.4353   28.1317 C   0  0  0  0  0  0  0  0  0  0  0  0
   10.4567  -17.5754   27.6776 O   0  0  0  0  0  0  0  0  0  0  0  0
   11.1651  -16.3387   29.4409 O   0  0  0  0  0  0  0  0  0  0  0  0
  1  2  1  0
  2 12  2  0
  3  2  1  0
  3  4  2  0
  4  5  1  0
  5 11  2  0
  5  6  1  0
  6  7  1  0
  7  8  1  1
  9 10  2  0
  9  7  1  0
 12 11  1  0
 13  9  1  0
 14 13  1  0
 14 15  1  6
 16 15  1  0
 16 20  1  0
 17 16  2  0
 18 14  1  0
 19 18  2  0
 21 18  1  0
 22 21  1  0
 23 24  1  0
 22 23  1  1
 25 24  1  0
 26 25  1  0
 27 26  1  0
 28 30  1  0
 28 22  1  0
 29 28  2  0
M  END
$$$$
