CLL.pdb
     RDKit          3D

 23 22  0  0  1  0  0  0  0  0999 V2000
    9.1847  -18.8331   16.6964 N   0  0  0  0  0  0  0  0  0  0  0  0
    8.2602  -18.1374   17.5341 C   0  0  1  0  0  0  0  0  0  0  0  0
    7.2626  -19.0903   18.1314 C   0  0  0  0  0  0  0  0  0  0  0  0
    8.2017  -20.3173   19.0961 S   0  0  0  0  0  0  0  0  0  0  0  0
    8.9754  -17.3413   18.5735 C   0  0  0  0  0  0  0  0  0  0  0  0
   10.2034  -17.4909   18.6842 O   0  0  0  0  0  0  0  0  0  0  0  0
    9.1238  -12.8634   19.3404 C   0  0  0  0  0  0  0  0  0  0  0  0
    7.8068  -13.5637   19.6214 C   0  0  2  0  0  0  0  0  0  0  0  0
    6.8115  -12.5031   20.0359 C   0  0  0  0  0  0  0  0  0  0  0  0
    8.0397  -14.4822   20.8027 C   0  0  0  0  0  0  0  0  0  0  0  0
    8.9180  -15.6344   20.4483 C   0  0  2  0  0  0  0  0  0  0  0  0
    8.2918  -16.4314   19.4244 N   0  0  0  0  0  0  0  0  0  0  0  0
    9.2434  -16.4977   21.6111 C   0  0  0  0  0  0  0  0  0  0  0  0
    8.3590  -17.2359   22.1015 O   0  0  0  0  0  0  0  0  0  0  0  0
   14.0649  -19.6608   23.6561 C   0  0  0  0  0  0  0  0  0  0  0  0
   12.7076  -19.0907   23.9219 C   0  0  2  0  0  0  0  0  0  0  0  0
   11.7082  -20.2248   24.1949 C   0  0  0  0  0  0  0  0  0  0  0  0
   12.1765  -18.1003   22.9779 C   0  0  0  0  0  0  0  0  0  0  0  0
   10.8904  -17.4716   23.2874 C   0  0  2  0  0  0  0  0  0  0  0  0
   10.5238  -16.5271   22.2007 N   0  0  0  0  0  0  0  0  0  0  0  0
   10.8167  -16.7027   24.5087 C   0  0  0  0  0  0  0  0  0  0  0  0
   10.6756  -17.1057   25.6865 O   0  0  0  0  0  0  0  0  0  0  0  0
   10.9144  -15.2853   24.4083 O   0  0  0  0  0  0  0  0  0  0  0  0
  2  1  1  1
  2  5  1  0
  3  2  1  0
  4  3  1  0
  5 12  1  0
  5  6  2  0
  8  7  1  1
  8 10  1  0
  8  9  1  0
 11 10  1  1
 11 13  1  0
 12 11  1  0
 13 14  2  0
 16 18  1  0
 16 15  1  6
 17 16  1  0
 19 18  1  6
 19 21  1  0
 20 13  1  0
 20 19  1  0
 21 23  1  0
 22 21  2  0
M  END
$$$$
