CLL.pdb
     RDKit          3D

 23 22  0  0  1  0  0  0  0  0999 V2000
    8.5334  -20.4857   21.6792 N   0  0  0  0  0  0  0  0  0  0  0  0
    7.8145  -19.3622   22.1904 C   0  0  1  0  0  0  0  0  0  0  0  0
    7.5554  -19.5217   23.6627 C   0  0  0  0  0  0  0  0  0  0  0  0
    7.0293  -21.2446   23.9327 S   0  0  0  0  0  0  0  0  0  0  0  0
    8.5212  -18.0870   21.8747 C   0  0  0  0  0  0  0  0  0  0  0  0
    9.7632  -18.0885   21.8795 O   0  0  0  0  0  0  0  0  0  0  0  0
    6.9172  -12.3848   20.0967 C   0  0  0  0  0  0  0  0  0  0  0  0
    8.0616  -13.3141   20.4581 C   0  0  2  0  0  0  0  0  0  0  0  0
    8.9589  -13.4174   19.2451 C   0  0  0  0  0  0  0  0  0  0  0  0
    7.4564  -14.6779   20.7171 C   0  0  0  0  0  0  0  0  0  0  0  0
    8.4264  -15.6033   21.3708 C   0  0  2  0  0  0  0  0  0  0  0  0
    7.8142  -16.8915   21.5740 N   0  0  0  0  0  0  0  0  0  0  0  0
    8.9351  -15.0921   22.6682 C   0  0  0  0  0  0  0  0  0  0  0  0
    9.8197  -14.2060   22.6811 O   0  0  0  0  0  0  0  0  0  0  0  0
    5.8607  -12.5950   26.8892 C   0  0  0  0  0  0  0  0  0  0  0  0
    7.1825  -13.2315   26.5968 C   0  0  2  0  0  0  0  0  0  0  0  0
    8.3001  -12.1817   26.6876 C   0  0  0  0  0  0  0  0  0  0  0  0
    7.2992  -14.0613   25.3919 C   0  0  0  0  0  0  0  0  0  0  0  0
    8.5577  -14.7746   25.1637 C   0  0  2  0  0  0  0  0  0  0  0  0
    8.4617  -15.5648   23.9093 N   0  0  0  0  0  0  0  0  0  0  0  0
    8.9695  -15.7142   26.1816 C   0  0  0  0  0  0  0  0  0  0  0  0
    9.2858  -15.4961   27.3740 O   0  0  0  0  0  0  0  0  0  0  0  0
    9.0389  -17.0914   25.8254 O   0  0  0  0  0  0  0  0  0  0  0  0
  2  1  1  1
  2  5  1  0
  3  2  1  0
  4  3  1  0
  5 12  1  0
  5  6  2  0
  8  7  1  6
  8 10  1  0
  8  9  1  0
 11 10  1  1
 11 13  1  0
 12 11  1  0
 13 14  2  0
 16 18  1  0
 16 15  1  6
 17 16  1  0
 19 18  1  1
 19 21  1  0
 20 13  1  0
 20 19  1  0
 21 23  1  0
 22 21  2  0
M  END
$$$$
