CLL.pdb
     RDKit          3D

 23 22  0  0  1  0  0  0  0  0999 V2000
    7.3245  -17.8790   21.0624 N   0  0  0  0  0  0  0  0  0  0  0  0
    7.2236  -17.7444   22.4809 C   0  0  1  0  0  0  0  0  0  0  0  0
    7.7731  -18.9618   23.1711 C   0  0  0  0  0  0  0  0  0  0  0  0
    6.8003  -20.3907   22.5967 S   0  0  0  0  0  0  0  0  0  0  0  0
    7.8769  -16.4865   22.9462 C   0  0  0  0  0  0  0  0  0  0  0  0
    8.8828  -16.0884   22.3363 O   0  0  0  0  0  0  0  0  0  0  0  0
    7.4284  -11.7622   24.5554 C   0  0  0  0  0  0  0  0  0  0  0  0
    6.3631  -12.7180   25.0610 C   0  0  2  0  0  0  0  0  0  0  0  0
    5.6570  -12.0380   26.2126 C   0  0  0  0  0  0  0  0  0  0  0  0
    7.0841  -13.9357   25.6001 C   0  0  0  0  0  0  0  0  0  0  0  0
    7.9821  -14.5493   24.5794 C   0  0  2  0  0  0  0  0  0  0  0  0
    7.3799  -15.7478   24.0537 N   0  0  0  0  0  0  0  0  0  0  0  0
    9.3314  -14.8699   25.1083 C   0  0  0  0  0  0  0  0  0  0  0  0
   10.3063  -14.1484   24.7973 O   0  0  0  0  0  0  0  0  0  0  0  0
   11.2669  -13.7316   28.2669 C   0  0  0  0  0  0  0  0  0  0  0  0
   10.4797  -14.9304   28.6924 C   0  0  2  0  0  0  0  0  0  0  0  0
   10.4886  -15.0454   30.2241 C   0  0  0  0  0  0  0  0  0  0  0  0
   10.7660  -16.2133   28.0393 C   0  0  0  0  0  0  0  0  0  0  0  0
   10.8962  -16.2318   26.5807 C   0  0  2  0  0  0  0  0  0  0  0  0
    9.5726  -15.9677   25.9594 N   0  0  0  0  0  0  0  0  0  0  0  0
   11.3654  -17.4608   25.9826 C   0  0  0  0  0  0  0  0  0  0  0  0
   12.4953  -17.9958   26.0639 O   0  0  0  0  0  0  0  0  0  0  0  0
   10.4500  -18.2015   25.1814 O   0  0  0  0  0  0  0  0  0  0  0  0
  2  1  1  6
  2  5  1  0
  3  2  1  0
  4  3  1  0
  5 12  1  0
  5  6  2  0
  8  7  1  1
  8 10  1  0
  8  9  1  0
 11 10  1  1
 11 13  1  0
 12 11  1  0
 13 14  2  0
 16 18  1  0
 16 15  1  1
 17 16  1  0
 19 18  1  1
 19 21  1  0
 20 13  1  0
 20 19  1  0
 21 23  1  0
 22 21  2  0
M  END
$$$$
