CLL.pdb
     RDKit          3D

 23 22  0  0  1  0  0  0  0  0999 V2000
    6.3964  -19.5140   21.5225 N   0  0  0  0  0  0  0  0  0  0  0  0
    6.3329  -18.4141   22.4317 C   0  0  1  0  0  0  0  0  0  0  0  0
    6.2337  -18.9019   23.8503 C   0  0  0  0  0  0  0  0  0  0  0  0
    5.8841  -17.4510   24.8948 S   0  0  0  0  0  0  0  0  0  0  0  0
    7.4847  -17.4875   22.2308 C   0  0  0  0  0  0  0  0  0  0  0  0
    8.6255  -17.9748   22.1722 O   0  0  0  0  0  0  0  0  0  0  0  0
    9.2495  -13.8748   19.5957 C   0  0  0  0  0  0  0  0  0  0  0  0
    7.8191  -13.7996   20.0981 C   0  0  2  0  0  0  0  0  0  0  0  0
    7.2547  -12.4685   19.6546 C   0  0  0  0  0  0  0  0  0  0  0  0
    7.8829  -13.8066   21.6111 C   0  0  0  0  0  0  0  0  0  0  0  0
    8.3695  -15.1124   22.1426 C   0  0  2  0  0  0  0  0  0  0  0  0
    7.3056  -16.0832   22.1073 N   0  0  0  0  0  0  0  0  0  0  0  0
    8.9003  -15.0169   23.5255 C   0  0  0  0  0  0  0  0  0  0  0  0
   10.0719  -14.6172   23.7132 O   0  0  0  0  0  0  0  0  0  0  0  0
    7.5503  -12.0204   26.6237 C   0  0  0  0  0  0  0  0  0  0  0  0
    6.7761  -13.2811   26.4019 C   0  0  2  0  0  0  0  0  0  0  0  0
    5.3530  -13.1259   26.9587 C   0  0  0  0  0  0  0  0  0  0  0  0
    7.3924  -14.5510   26.8040 C   0  0  0  0  0  0  0  0  0  0  0  0
    8.5509  -15.0273   26.0452 C   0  0  2  0  0  0  0  0  0  0  0  0
    8.1348  -15.3608   24.6585 N   0  0  0  0  0  0  0  0  0  0  0  0
    9.2169  -16.2090   26.5435 C   0  0  0  0  0  0  0  0  0  0  0  0
    9.3137  -17.3410   26.0156 O   0  0  0  0  0  0  0  0  0  0  0  0
    9.8688  -16.1212   27.8068 O   0  0  0  0  0  0  0  0  0  0  0  0
  2  1  1  6
  2  5  1  0
  3  2  1  0
  4  3  1  0
  5 12  1  0
  5  6  2  0
  8  7  1  6
  8 10  1  0
  8  9  1  0
 11 10  1  1
 11 13  1  0
 12 11  1  0
 13 14  2  0
 16 18  1  0
 16 15  1  1
 17 16  1  0
 19 18  1  1
 19 21  1  0
 20 13  1  0
 20 19  1  0
 21 23  1  0
 22 21  2  0
M  END
$$$$
