CLL.pdb
     RDKit          3D

 23 22  0  0  1  0  0  0  0  0999 V2000
    6.6616  -19.4384   22.6356 N   0  0  0  0  0  0  0  0  0  0  0  0
    6.2948  -18.2427   23.3257 C   0  0  1  0  0  0  0  0  0  0  0  0
    5.8084  -18.5574   24.7130 C   0  0  0  0  0  0  0  0  0  0  0  0
    7.2125  -19.2738   25.6257 S   0  0  0  0  0  0  0  0  0  0  0  0
    7.4183  -17.2613   23.3286 C   0  0  0  0  0  0  0  0  0  0  0  0
    8.4894  -17.5952   22.7960 O   0  0  0  0  0  0  0  0  0  0  0  0
    6.2895  -12.8901   23.0043 C   0  0  0  0  0  0  0  0  0  0  0  0
    6.3781  -13.4931   24.3944 C   0  0  2  0  0  0  0  0  0  0  0  0
    5.9010  -12.4431   25.3728 C   0  0  0  0  0  0  0  0  0  0  0  0
    7.8436  -13.7618   24.6653 C   0  0  0  0  0  0  0  0  0  0  0  0
    8.3289  -14.9776   23.9506 C   0  0  2  0  0  0  0  0  0  0  0  0
    7.2896  -15.9748   23.9181 N   0  0  0  0  0  0  0  0  0  0  0  0
    9.5502  -15.5621   24.5589 C   0  0  0  0  0  0  0  0  0  0  0  0
   10.6765  -15.2488   24.1104 O   0  0  0  0  0  0  0  0  0  0  0  0
    9.6972  -15.1124   30.3730 C   0  0  0  0  0  0  0  0  0  0  0  0
   10.4747  -15.3625   29.1197 C   0  0  2  0  0  0  0  0  0  0  0  0
   11.5343  -14.2662   28.9338 C   0  0  0  0  0  0  0  0  0  0  0  0
    9.7283  -15.6261   27.8837 C   0  0  0  0  0  0  0  0  0  0  0  0
   10.4007  -16.3698   26.8162 C   0  0  2  0  0  0  0  0  0  0  0  0
    9.5024  -16.4694   25.6369 N   0  0  0  0  0  0  0  0  0  0  0  0
   10.7972  -17.7268   27.1155 C   0  0  0  0  0  0  0  0  0  0  0  0
   10.3412  -18.5083   27.9820 O   0  0  0  0  0  0  0  0  0  0  0  0
   11.8484  -18.2976   26.3424 O   0  0  0  0  0  0  0  0  0  0  0  0
  2  1  1  1
  2  5  1  0
  3  2  1  0
  4  3  1  0
  5 12  1  0
  5  6  2  0
  8  7  1  6
  8 10  1  0
  8  9  1  0
 11 10  1  1
 11 13  1  0
 12 11  1  0
 13 14  2  0
 16 18  1  0
 16 15  1  1
 17 16  1  0
 19 18  1  1
 19 21  1  0
 20 13  1  0
 20 19  1  0
 21 23  1  0
 22 21  2  0
M  END
$$$$
