CLL.pdb
     RDKit          3D

 23 22  0  0  1  0  0  0  0  0999 V2000
    5.9792  -19.6520   23.4389 N   0  0  0  0  0  0  0  0  0  0  0  0
    6.3617  -18.9496   24.6225 C   0  0  1  0  0  0  0  0  0  0  0  0
    7.3503  -19.7526   25.4213 C   0  0  0  0  0  0  0  0  0  0  0  0
    7.5623  -18.9074   27.0209 S   0  0  0  0  0  0  0  0  0  0  0  0
    6.8729  -17.5872   24.2938 C   0  0  0  0  0  0  0  0  0  0  0  0
    7.6102  -17.4614   23.3023 O   0  0  0  0  0  0  0  0  0  0  0  0
    7.6909  -12.3156   24.8735 C   0  0  0  0  0  0  0  0  0  0  0  0
    6.2840  -12.7892   25.1902 C   0  0  2  0  0  0  0  0  0  0  0  0
    5.7179  -11.8540   26.2353 C   0  0  0  0  0  0  0  0  0  0  0  0
    6.4113  -14.1667   25.8064 C   0  0  0  0  0  0  0  0  0  0  0  0
    7.0807  -15.1298   24.8851 C   0  0  2  0  0  0  0  0  0  0  0  0
    6.5389  -16.4506   25.0786 N   0  0  0  0  0  0  0  0  0  0  0  0
    8.5541  -15.1740   25.0590 C   0  0  0  0  0  0  0  0  0  0  0  0
    9.2885  -14.5076   24.2946 O   0  0  0  0  0  0  0  0  0  0  0  0
   10.5473  -13.4944   28.2517 C   0  0  0  0  0  0  0  0  0  0  0  0
   10.2803  -14.9329   28.5636 C   0  0  2  0  0  0  0  0  0  0  0  0
   10.4986  -15.1928   30.0616 C   0  0  0  0  0  0  0  0  0  0  0  0
   10.9219  -15.9529   27.7256 C   0  0  0  0  0  0  0  0  0  0  0  0
   10.6465  -15.9384   26.2873 C   0  0  2  0  0  0  0  0  0  0  0  0
    9.1780  -15.9442   26.0617 N   0  0  0  0  0  0  0  0  0  0  0  0
   11.1607  -17.0447   25.5128 C   0  0  0  0  0  0  0  0  0  0  0  0
   10.5318  -17.9124   24.8639 O   0  0  0  0  0  0  0  0  0  0  0  0
   12.5739  -17.2107   25.4488 O   0  0  0  0  0  0  0  0  0  0  0  0
  2  1  1  6
  2  5  1  0
  3  2  1  0
  4  3  1  0
  5 12  1  0
  5  6  2  0
  8  7  1  1
  8 10  1  0
  8  9  1  0
 11 10  1  1
 11 13  1  0
 12 11  1  0
 13 14  2  0
 16 18  1  0
 16 15  1  6
 17 16  1  0
 19 18  1  1
 19 21  1  0
 20 13  1  0
 20 19  1  0
 21 23  1  0
 22 21  2  0
M  END
$$$$
