CLL.pdb
     RDKit          3D

 23 22  0  0  1  0  0  0  0  0999 V2000
    5.7280  -18.0876   24.5508 N   0  0  0  0  0  0  0  0  0  0  0  0
    6.5289  -18.7730   23.5867 C   0  0  1  0  0  0  0  0  0  0  0  0
    5.7331  -19.0646   22.3450 C   0  0  0  0  0  0  0  0  0  0  0  0
    4.6381  -20.4697   22.7254 S   0  0  0  0  0  0  0  0  0  0  0  0
    7.7786  -18.0132   23.2930 C   0  0  0  0  0  0  0  0  0  0  0  0
    8.6522  -18.5657   22.6045 O   0  0  0  0  0  0  0  0  0  0  0  0
    7.0771  -14.2177   21.5995 C   0  0  0  0  0  0  0  0  0  0  0  0
    7.3318  -14.3197   23.0924 C   0  0  2  0  0  0  0  0  0  0  0  0
    6.9380  -12.9958   23.7085 C   0  0  0  0  0  0  0  0  0  0  0  0
    8.8243  -14.5009   23.2731 C   0  0  0  0  0  0  0  0  0  0  0  0
    9.1823  -15.9188   23.5663 C   0  0  2  0  0  0  0  0  0  0  0  0
    7.9858  -16.6931   23.7766 N   0  0  0  0  0  0  0  0  0  0  0  0
   10.0729  -16.0628   24.7450 C   0  0  0  0  0  0  0  0  0  0  0  0
   11.2106  -15.5400   24.7295 O   0  0  0  0  0  0  0  0  0  0  0  0
   10.1601  -13.7192   27.9787 C   0  0  0  0  0  0  0  0  0  0  0  0
    9.2215  -14.8813   28.0586 C   0  0  2  0  0  0  0  0  0  0  0  0
    8.1030  -14.5819   29.0680 C   0  0  0  0  0  0  0  0  0  0  0  0
    9.7927  -16.2202   28.2464 C   0  0  0  0  0  0  0  0  0  0  0  0
   10.5273  -16.8203   27.1305 C   0  0  2  0  0  0  0  0  0  0  0  0
    9.6927  -16.7727   25.9023 N   0  0  0  0  0  0  0  0  0  0  0  0
   10.9213  -18.2030   27.2766 C   0  0  0  0  0  0  0  0  0  0  0  0
   10.6027  -19.1916   26.5762 O   0  0  0  0  0  0  0  0  0  0  0  0
   11.7936  -18.5350   28.3524 O   0  0  0  0  0  0  0  0  0  0  0  0
  2  1  1  1
  2  5  1  0
  3  2  1  0
  4  3  1  0
  5 12  1  0
  5  6  2  0
  8  7  1  6
  8 10  1  0
  8  9  1  0
 11 10  1  1
 11 13  1  0
 12 11  1  0
 13 14  2  0
 16 18  1  0
 16 15  1  1
 17 16  1  0
 19 18  1  1
 19 21  1  0
 20 13  1  0
 20 19  1  0
 21 23  1  0
 22 21  2  0
M  END
$$$$
