CLL.pdb
     RDKit          3D

 23 22  0  0  1  0  0  0  0  0999 V2000
    6.8058  -18.5764   22.0045 N   0  0  0  0  0  0  0  0  0  0  0  0
    6.8803  -18.1589   23.3685 C   0  0  1  0  0  0  0  0  0  0  0  0
    7.3484  -19.2870   24.2451 C   0  0  0  0  0  0  0  0  0  0  0  0
    5.8641  -20.1711   24.8224 S   0  0  0  0  0  0  0  0  0  0  0  0
    7.7314  -16.9418   23.5092 C   0  0  0  0  0  0  0  0  0  0  0  0
    8.7370  -16.8433   22.7869 O   0  0  0  0  0  0  0  0  0  0  0  0
    6.4075  -12.5025   23.6940 C   0  0  0  0  0  0  0  0  0  0  0  0
    6.1328  -13.4198   24.8717 C   0  0  2  0  0  0  0  0  0  0  0  0
    5.3301  -12.6298   25.8811 C   0  0  0  0  0  0  0  0  0  0  0  0
    7.4736  -13.7551   25.4907 C   0  0  0  0  0  0  0  0  0  0  0  0
    8.2328  -14.7455   24.6738 C   0  0  2  0  0  0  0  0  0  0  0  0
    7.4201  -15.9112   24.4367 N   0  0  0  0  0  0  0  0  0  0  0  0
    9.5125  -15.1594   25.3017 C   0  0  0  0  0  0  0  0  0  0  0  0
   10.5673  -14.5462   25.0207 O   0  0  0  0  0  0  0  0  0  0  0  0
   11.2701  -13.8613   28.2156 C   0  0  0  0  0  0  0  0  0  0  0  0
   10.4539  -15.0183   28.6984 C   0  0  2  0  0  0  0  0  0  0  0  0
   10.2602  -14.9234   30.2192 C   0  0  0  0  0  0  0  0  0  0  0  0
   10.8470  -16.3671   28.2735 C   0  0  0  0  0  0  0  0  0  0  0  0
   10.8783  -16.6574   26.8384 C   0  0  2  0  0  0  0  0  0  0  0  0
    9.5990  -16.2293   26.2159 N   0  0  0  0  0  0  0  0  0  0  0  0
   11.0504  -18.0403   26.4556 C   0  0  0  0  0  0  0  0  0  0  0  0
   10.2735  -18.7824   25.8114 O   0  0  0  0  0  0  0  0  0  0  0  0
   12.2569  -18.6913   26.8420 O   0  0  0  0  0  0  0  0  0  0  0  0
  2  1  1  6
  2  5  1  0
  3  2  1  0
  4  3  1  0
  5 12  1  0
  5  6  2  0
  8  7  1  6
  8 10  1  0
  8  9  1  0
 11 10  1  1
 11 13  1  0
 12 11  1  0
 13 14  2  0
 16 18  1  0
 16 15  1  1
 17 16  1  0
 19 18  1  1
 19 21  1  0
 20 13  1  0
 20 19  1  0
 21 23  1  0
 22 21  2  0
M  END
$$$$
