CLL.pdb
     RDKit          3D

 23 22  0  0  1  0  0  0  0  0999 V2000
    6.2406  -19.1742   21.0256 N   0  0  0  0  0  0  0  0  0  0  0  0
    6.1971  -17.9847   21.8154 C   0  0  1  0  0  0  0  0  0  0  0  0
    5.8057  -18.3010   23.2321 C   0  0  0  0  0  0  0  0  0  0  0  0
    4.0483  -18.7798   23.2104 S   0  0  0  0  0  0  0  0  0  0  0  0
    7.4894  -17.2437   21.7370 C   0  0  0  0  0  0  0  0  0  0  0  0
    8.5440  -17.8952   21.8121 O   0  0  0  0  0  0  0  0  0  0  0  0
    8.6649  -14.3008   18.6423 C   0  0  0  0  0  0  0  0  0  0  0  0
    7.7005  -13.8213   19.7119 C   0  0  2  0  0  0  0  0  0  0  0  0
    7.2400  -12.4363   19.3158 C   0  0  0  0  0  0  0  0  0  0  0  0
    8.4910  -13.7076   20.9985 C   0  0  0  0  0  0  0  0  0  0  0  0
    8.7402  -15.0407   21.6194 C   0  0  2  0  0  0  0  0  0  0  0  0
    7.5369  -15.8320   21.5809 N   0  0  0  0  0  0  0  0  0  0  0  0
    9.2225  -14.9496   23.0202 C   0  0  0  0  0  0  0  0  0  0  0  0
   10.3344  -14.4261   23.2599 O   0  0  0  0  0  0  0  0  0  0  0  0
    5.8161  -12.7873   27.3263 C   0  0  0  0  0  0  0  0  0  0  0  0
    7.1471  -13.3903   27.0056 C   0  0  2  0  0  0  0  0  0  0  0  0
    8.2655  -12.3834   27.3132 C   0  0  0  0  0  0  0  0  0  0  0  0
    7.3202  -14.0264   25.6943 C   0  0  0  0  0  0  0  0  0  0  0  0
    8.5314  -14.8171   25.4648 C   0  0  2  0  0  0  0  0  0  0  0  0
    8.4754  -15.4329   24.1139 N   0  0  0  0  0  0  0  0  0  0  0  0
    8.7806  -15.9096   26.3774 C   0  0  0  0  0  0  0  0  0  0  0  0
    9.3495  -15.8904   27.4934 O   0  0  0  0  0  0  0  0  0  0  0  0
    8.3338  -17.2075   25.9974 O   0  0  0  0  0  0  0  0  0  0  0  0
  2  1  1  6
  2  5  1  0
  3  2  1  0
  4  3  1  0
  5 12  1  0
  5  6  2  0
  8  7  1  6
  8 10  1  0
  8  9  1  0
 11 10  1  1
 11 13  1  0
 12 11  1  0
 13 14  2  0
 16 18  1  0
 16 15  1  6
 17 16  1  0
 19 18  1  1
 19 21  1  0
 20 13  1  0
 20 19  1  0
 21 23  1  0
 22 21  2  0
M  END
$$$$
