CLL.pdb
     RDKit          3D

 23 22  0  0  1  0  0  0  0  0999 V2000
    5.9684  -18.2323   24.7694 N   0  0  0  0  0  0  0  0  0  0  0  0
    6.6586  -18.1836   23.5198 C   0  0  1  0  0  0  0  0  0  0  0  0
    5.6885  -18.2539   22.3734 C   0  0  0  0  0  0  0  0  0  0  0  0
    4.5524  -19.6363   22.7141 S   0  0  0  0  0  0  0  0  0  0  0  0
    7.5402  -16.9826   23.4427 C   0  0  0  0  0  0  0  0  0  0  0  0
    8.3006  -16.8755   22.4666 O   0  0  0  0  0  0  0  0  0  0  0  0
    6.9590  -12.3857   23.4024 C   0  0  0  0  0  0  0  0  0  0  0  0
    6.5548  -13.2772   24.5625 C   0  0  2  0  0  0  0  0  0  0  0  0
    5.7824  -12.4212   25.5413 C   0  0  0  0  0  0  0  0  0  0  0  0
    7.8333  -13.7303   25.2358 C   0  0  0  0  0  0  0  0  0  0  0  0
    8.4604  -14.8814   24.5244 C   0  0  2  0  0  0  0  0  0  0  0  0
    7.5275  -15.9765   24.4462 N   0  0  0  0  0  0  0  0  0  0  0  0
    9.7138  -15.3501   25.1666 C   0  0  0  0  0  0  0  0  0  0  0  0
   10.8071  -14.8334   24.8419 O   0  0  0  0  0  0  0  0  0  0  0  0
   10.4793  -13.9394   28.4870 C   0  0  0  0  0  0  0  0  0  0  0  0
    9.8441  -15.2581   28.7958 C   0  0  2  0  0  0  0  0  0  0  0  0
    9.3998  -15.2934   30.2658 C   0  0  0  0  0  0  0  0  0  0  0  0
   10.5590  -16.4787   28.4042 C   0  0  0  0  0  0  0  0  0  0  0  0
   10.9178  -16.6467   26.9943 C   0  0  2  0  0  0  0  0  0  0  0  0
    9.7330  -16.3676   26.1425 N   0  0  0  0  0  0  0  0  0  0  0  0
   11.3848  -17.9533   26.5906 C   0  0  0  0  0  0  0  0  0  0  0  0
   12.3552  -18.6136   27.0285 O   0  0  0  0  0  0  0  0  0  0  0  0
   10.6726  -18.6223   25.5543 O   0  0  0  0  0  0  0  0  0  0  0  0
  2  1  1  1
  2  5  1  0
  3  2  1  0
  4  3  1  0
  5 12  1  0
  5  6  2  0
  8  7  1  6
  8 10  1  0
  8  9  1  0
 11 10  1  1
 11 13  1  0
 12 11  1  0
 13 14  2  0
 16 18  1  0
 16 15  1  1
 17 16  1  0
 19 18  1  1
 19 21  1  0
 20 13  1  0
 20 19  1  0
 21 23  1  0
 22 21  2  0
M  END
$$$$
