CLL.pdb
     RDKit          3D

 23 22  0  0  1  0  0  0  0  0999 V2000
    6.1914  -19.4064   21.4230 N   0  0  0  0  0  0  0  0  0  0  0  0
    6.2156  -18.3217   22.3520 C   0  0  1  0  0  0  0  0  0  0  0  0
    6.0378  -18.8220   23.7585 C   0  0  0  0  0  0  0  0  0  0  0  0
    5.7443  -17.3667   24.8140 S   0  0  0  0  0  0  0  0  0  0  0  0
    7.4566  -17.5093   22.1927 C   0  0  0  0  0  0  0  0  0  0  0  0
    8.5285  -18.1075   22.0039 O   0  0  0  0  0  0  0  0  0  0  0  0
    8.1947  -14.7352   19.1768 C   0  0  0  0  0  0  0  0  0  0  0  0
    7.3222  -14.1570   20.2760 C   0  0  2  0  0  0  0  0  0  0  0  0
    6.8433  -12.8017   19.8058 C   0  0  0  0  0  0  0  0  0  0  0  0
    8.2131  -13.9518   21.4833 C   0  0  0  0  0  0  0  0  0  0  0  0
    8.5969  -15.2452   22.1192 C   0  0  2  0  0  0  0  0  0  0  0  0
    7.4371  -16.0896   22.2516 N   0  0  0  0  0  0  0  0  0  0  0  0
    9.2331  -15.0740   23.4493 C   0  0  0  0  0  0  0  0  0  0  0  0
   10.3936  -14.6102   23.5259 O   0  0  0  0  0  0  0  0  0  0  0  0
    8.0278  -12.0621   27.8604 C   0  0  0  0  0  0  0  0  0  0  0  0
    8.0964  -12.8989   26.6223 C   0  0  2  0  0  0  0  0  0  0  0  0
    7.0055  -12.4609   25.6336 C   0  0  0  0  0  0  0  0  0  0  0  0
    8.1513  -14.3576   26.7755 C   0  0  0  0  0  0  0  0  0  0  0  0
    9.1424  -15.0976   25.9914 C   0  0  2  0  0  0  0  0  0  0  0  0
    8.5819  -15.4146   24.6525 N   0  0  0  0  0  0  0  0  0  0  0  0
    9.5913  -16.3607   26.5312 C   0  0  0  0  0  0  0  0  0  0  0  0
    9.1088  -17.5049   26.3654 O   0  0  0  0  0  0  0  0  0  0  0  0
   10.7394  -16.3524   27.3740 O   0  0  0  0  0  0  0  0  0  0  0  0
  2  1  1  6
  2  5  1  0
  3  2  1  0
  4  3  1  0
  5 12  1  0
  5  6  2  0
  8  7  1  6
  8 10  1  0
  8  9  1  0
 11 10  1  1
 11 13  1  0
 12 11  1  0
 13 14  2  0
 16 18  1  0
 16 15  1  1
 17 16  1  0
 19 18  1  1
 19 21  1  0
 20 13  1  0
 20 19  1  0
 21 23  1  0
 22 21  2  0
M  END
$$$$
