CLL.pdb
     RDKit          3D

 23 22  0  0  1  0  0  0  0  0999 V2000
   12.0411  -17.5111   18.7452 N   0  0  0  0  0  0  0  0  0  0  0  0
   11.4108  -18.0088   19.9265 C   0  0  1  0  0  0  0  0  0  0  0  0
   12.2542  -19.0735   20.5710 C   0  0  0  0  0  0  0  0  0  0  0  0
   11.2707  -19.7924   21.9252 S   0  0  0  0  0  0  0  0  0  0  0  0
   11.0854  -16.8977   20.8672 C   0  0  0  0  0  0  0  0  0  0  0  0
   11.9869  -16.0955   21.1609 O   0  0  0  0  0  0  0  0  0  0  0  0
    8.4069  -13.2634   20.8803 C   0  0  0  0  0  0  0  0  0  0  0  0
    7.7061  -14.6039   20.7546 C   0  0  2  0  0  0  0  0  0  0  0  0
    6.2247  -14.3281   20.6259 C   0  0  0  0  0  0  0  0  0  0  0  0
    7.9386  -15.3459   22.0541 C   0  0  0  0  0  0  0  0  0  0  0  0
    9.3825  -15.6495   22.2721 C   0  0  2  0  0  0  0  0  0  0  0  0
    9.7874  -16.7415   21.4241 N   0  0  0  0  0  0  0  0  0  0  0  0
    9.7012  -15.9806   23.6835 C   0  0  0  0  0  0  0  0  0  0  0  0
    9.8121  -17.1790   24.0289 O   0  0  0  0  0  0  0  0  0  0  0  0
    9.3244  -13.2492   29.2636 C   0  0  0  0  0  0  0  0  0  0  0  0
    9.8297  -14.3602   28.3986 C   0  0  2  0  0  0  0  0  0  0  0  0
   11.2362  -14.7783   28.8526 C   0  0  0  0  0  0  0  0  0  0  0  0
    9.7438  -14.1968   26.9425 C   0  0  0  0  0  0  0  0  0  0  0  0
   10.1597  -15.3173   26.0962 C   0  0  2  0  0  0  0  0  0  0  0  0
    9.8886  -14.9928   24.6719 N   0  0  0  0  0  0  0  0  0  0  0  0
    9.5144  -16.5886   26.3323 C   0  0  0  0  0  0  0  0  0  0  0  0
    9.9505  -17.5929   26.9412 O   0  0  0  0  0  0  0  0  0  0  0  0
    8.1977  -16.7704   25.8208 O   0  0  0  0  0  0  0  0  0  0  0  0
  2  1  1  6
  2  5  1  0
  3  2  1  0
  4  3  1  0
  5 12  1  0
  5  6  2  0
  8  7  1  1
  8 10  1  0
  8  9  1  0
 11 10  1  1
 11 13  1  0
 12 11  1  0
 13 14  2  0
 16 18  1  0
 16 15  1  1
 17 16  1  0
 19 18  1  1
 19 21  1  0
 20 13  1  0
 20 19  1  0
 21 23  1  0
 22 21  2  0
M  END
$$$$
