CLL.pdb
     RDKit          3D

 23 22  0  0  1  0  0  0  0  0999 V2000
    7.8645  -15.1603   20.3888 N   0  0  0  0  0  0  0  0  0  0  0  0
    7.3122  -15.7126   21.5847 C   0  0  1  0  0  0  0  0  0  0  0  0
    7.2018  -17.2082   21.4781 C   0  0  0  0  0  0  0  0  0  0  0  0
    6.0591  -17.5667   20.1056 S   0  0  0  0  0  0  0  0  0  0  0  0
    8.0946  -15.2865   22.7812 C   0  0  0  0  0  0  0  0  0  0  0  0
    9.3165  -15.1077   22.6491 O   0  0  0  0  0  0  0  0  0  0  0  0
    7.8824  -11.8335   25.4166 C   0  0  0  0  0  0  0  0  0  0  0  0
    6.7176  -12.7892   25.6009 C   0  0  2  0  0  0  0  0  0  0  0  0
    5.7750  -12.1631   26.6044 C   0  0  0  0  0  0  0  0  0  0  0  0
    7.2805  -14.0576   26.2072 C   0  0  0  0  0  0  0  0  0  0  0  0
    8.1871  -14.7723   25.2629 C   0  0  2  0  0  0  0  0  0  0  0  0
    7.4806  -15.0846   24.0467 N   0  0  0  0  0  0  0  0  0  0  0  0
    8.7563  -16.0190   25.8330 C   0  0  0  0  0  0  0  0  0  0  0  0
    7.9904  -16.9425   26.1911 O   0  0  0  0  0  0  0  0  0  0  0  0
   13.6058  -18.5127   24.4006 C   0  0  0  0  0  0  0  0  0  0  0  0
   12.2216  -18.3087   24.9301 C   0  0  2  0  0  0  0  0  0  0  0  0
   11.3363  -17.6717   23.8485 C   0  0  0  0  0  0  0  0  0  0  0  0
   12.0694  -17.6461   26.2309 C   0  0  0  0  0  0  0  0  0  0  0  0
   10.7133  -17.3826   26.7172 C   0  0  2  0  0  0  0  0  0  0  0  0
   10.1429  -16.2169   25.9938 N   0  0  0  0  0  0  0  0  0  0  0  0
   10.5720  -17.0726   28.1216 C   0  0  0  0  0  0  0  0  0  0  0  0
   10.1531  -16.0211   28.6585 O   0  0  0  0  0  0  0  0  0  0  0  0
   10.9481  -18.0725   29.0636 O   0  0  0  0  0  0  0  0  0  0  0  0
  2  1  1  6
  2  5  1  0
  3  2  1  0
  4  3  1  0
  5 12  1  0
  5  6  2  0
  8  7  1  1
  8 10  1  0
  8  9  1  0
 11 10  1  1
 11 13  1  0
 12 11  1  0
 13 14  2  0
 16 18  1  0
 16 15  1  6
 17 16  1  0
 19 18  1  6
 19 21  1  0
 20 13  1  0
 20 19  1  0
 21 23  1  0
 22 21  2  0
M  END
$$$$
