CLL.pdb
     RDKit          3D

 23 22  0  0  1  0  0  0  0  0999 V2000
    8.5056  -20.5179   21.6299 N   0  0  0  0  0  0  0  0  0  0  0  0
    7.7817  -19.4283   22.2037 C   0  0  1  0  0  0  0  0  0  0  0  0
    7.4629  -19.7030   23.6470 C   0  0  0  0  0  0  0  0  0  0  0  0
    6.6567  -21.3349   23.7186 S   0  0  0  0  0  0  0  0  0  0  0  0
    8.5168  -18.1431   22.0209 C   0  0  0  0  0  0  0  0  0  0  0  0
    9.7566  -18.1619   22.0918 O   0  0  0  0  0  0  0  0  0  0  0  0
    7.0816  -12.2919   20.5935 C   0  0  0  0  0  0  0  0  0  0  0  0
    8.1712  -13.2595   21.0183 C   0  0  2  0  0  0  0  0  0  0  0  0
    9.1390  -13.3844   19.8629 C   0  0  0  0  0  0  0  0  0  0  0  0
    7.5081  -14.6047   21.2282 C   0  0  0  0  0  0  0  0  0  0  0  0
    8.4642  -15.6217   21.7536 C   0  0  2  0  0  0  0  0  0  0  0  0
    7.8387  -16.9194   21.7717 N   0  0  0  0  0  0  0  0  0  0  0  0
    8.9670  -15.3008   23.1128 C   0  0  0  0  0  0  0  0  0  0  0  0
   10.1316  -14.8635   23.2553 O   0  0  0  0  0  0  0  0  0  0  0  0
    7.4449  -11.9783   26.0591 C   0  0  0  0  0  0  0  0  0  0  0  0
    6.6921  -13.2635   25.9205 C   0  0  2  0  0  0  0  0  0  0  0  0
    5.2995  -13.1251   26.5537 C   0  0  0  0  0  0  0  0  0  0  0  0
    7.3629  -14.5050   26.3244 C   0  0  0  0  0  0  0  0  0  0  0  0
    8.5663  -14.9088   25.5941 C   0  0  2  0  0  0  0  0  0  0  0  0
    8.1823  -15.4678   24.2721 N   0  0  0  0  0  0  0  0  0  0  0  0
    9.3982  -15.9158   26.2124 C   0  0  0  0  0  0  0  0  0  0  0  0
   10.1160  -15.8260   27.2352 O   0  0  0  0  0  0  0  0  0  0  0  0
    9.4380  -17.2060   25.6103 O   0  0  0  0  0  0  0  0  0  0  0  0
  2  1  1  1
  2  5  1  0
  3  2  1  0
  4  3  1  0
  5 12  1  0
  5  6  2  0
  8  7  1  6
  8 10  1  0
  8  9  1  0
 11 10  1  1
 11 13  1  0
 12 11  1  0
 13 14  2  0
 16 18  1  0
 16 15  1  1
 17 16  1  0
 19 18  1  1
 19 21  1  0
 20 13  1  0
 20 19  1  0
 21 23  1  0
 22 21  2  0
M  END
$$$$
