SKK.pdb
     RDKit          3D

 25 24  0  0  1  0  0  0  0  0999 V2000
   15.5967  -15.8169   20.4016 O   0  0  0  0  0  0  0  0  0  0  0  0
   14.8846  -16.3622   19.3351 C   0  0  0  0  0  0  0  0  0  0  0  0
   13.8989  -15.3422   18.8132 C   0  0  2  0  0  0  0  0  0  0  0  0
   14.5625  -14.0652   18.6611 N   0  0  0  0  0  0  0  0  0  0  0  0
   12.6989  -15.2393   19.6849 C   0  0  0  0  0  0  0  0  0  0  0  0
   12.4390  -14.1910   20.3411 O   0  0  0  0  0  0  0  0  0  0  0  0
   11.7699  -16.3037   19.8388 N   0  0  0  0  0  0  0  0  0  0  0  0
   10.5833  -16.2102   20.6583 C   0  0  1  0  0  0  0  0  0  0  0  0
    9.5522  -17.2593   20.3135 C   0  0  0  0  0  0  0  0  0  0  0  0
    9.0568  -16.9929   18.9280 C   0  0  0  0  0  0  0  0  0  0  0  0
    8.0598  -17.9860   18.4358 C   0  0  0  0  0  0  0  0  0  0  0  0
    7.6475  -17.5599   17.0262 C   0  0  0  0  0  0  0  0  0  0  0  0
    6.6690  -18.4487   16.4710 N   0  0  0  0  0  0  0  0  0  0  0  0
   11.0390  -16.3957   22.0849 C   0  0  0  0  0  0  0  0  0  0  0  0
   12.0919  -17.0537   22.3465 O   0  0  0  0  0  0  0  0  0  0  0  0
   10.3021  -15.8404   23.1562 N   0  0  0  0  0  0  0  0  0  0  0  0
   10.7745  -16.1166   24.5255 C   0  0  1  0  0  0  0  0  0  0  0  0
   10.2036  -15.0829   25.4533 C   0  0  0  0  0  0  0  0  0  0  0  0
   10.5848  -15.3890   26.8693 C   0  0  0  0  0  0  0  0  0  0  0  0
    9.9830  -14.4057   27.8394 C   0  0  0  0  0  0  0  0  0  0  0  0
   10.3190  -14.7029   29.2617 C   0  0  0  0  0  0  0  0  0  0  0  0
    9.8670  -13.6852   30.1750 N   0  0  0  0  0  0  0  0  0  0  0  0
   10.3623  -17.4935   24.8326 C   0  0  0  0  0  0  0  0  0  0  0  0
   11.0406  -18.3458   25.7090 O   0  0  0  0  0  0  0  0  0  0  0  0
    9.3175  -18.0016   24.2865 O   0  0  0  0  0  0  0  0  0  0  0  0
  2  1  1  0
  3  2  1  0
  3  4  1  1
  5  3  1  0
  6  5  2  0
  7  5  1  0
  8  7  1  0
  8  9  1  6
 10  9  1  0
 11 10  1  0
 12 11  1  0
 13 12  1  0
 14 15  2  0
 14  8  1  0
 16 14  1  0
 17 16  1  0
 17 18  1  1
 19 20  1  0
 19 18  1  0
 20 21  1  0
 22 21  1  0
 23 17  1  0
 24 23  1  0
 25 23  2  0
M  END
$$$$
