SKK.pdb
     RDKit          3D

 25 24  0  0  1  0  0  0  0  0999 V2000
    7.4533  -16.6052   27.2252 O   0  0  0  0  0  0  0  0  0  0  0  0
    7.9933  -16.7252   25.9462 C   0  0  0  0  0  0  0  0  0  0  0  0
    6.8795  -16.7034   24.9247 C   0  0  2  0  0  0  0  0  0  0  0  0
    6.1196  -17.9318   25.0148 N   0  0  0  0  0  0  0  0  0  0  0  0
    7.3971  -16.4752   23.5499 C   0  0  0  0  0  0  0  0  0  0  0  0
    7.6242  -17.4314   22.7553 O   0  0  0  0  0  0  0  0  0  0  0  0
    7.6698  -15.1773   23.0392 N   0  0  0  0  0  0  0  0  0  0  0  0
    8.2987  -14.9431   21.7594 C   0  0  1  0  0  0  0  0  0  0  0  0
    8.2151  -13.4987   21.3241 C   0  0  0  0  0  0  0  0  0  0  0  0
    7.5296  -13.4478   19.9961 C   0  0  0  0  0  0  0  0  0  0  0  0
    8.4375  -13.6611   18.8330 C   0  0  0  0  0  0  0  0  0  0  0  0
    7.5747  -13.6459   17.5705 C   0  0  0  0  0  0  0  0  0  0  0  0
    8.3505  -13.9253   16.3976 N   0  0  0  0  0  0  0  0  0  0  0  0
    9.7452  -15.3421   21.9198 C   0  0  0  0  0  0  0  0  0  0  0  0
   10.3990  -15.0006   22.9522 O   0  0  0  0  0  0  0  0  0  0  0  0
   10.3988  -16.1034   20.9237 N   0  0  0  0  0  0  0  0  0  0  0  0
   11.7174  -16.6739   21.2557 C   0  0  1  0  0  0  0  0  0  0  0  0
   11.6222  -18.1720   21.2137 C   0  0  0  0  0  0  0  0  0  0  0  0
   12.9697  -18.7846   21.4445 C   0  0  0  0  0  0  0  0  0  0  0  0
   12.9235  -20.2889   21.3746 C   0  0  0  0  0  0  0  0  0  0  0  0
   14.2517  -20.9286   21.6002 C   0  0  0  0  0  0  0  0  0  0  0  0
   14.1702  -22.3554   21.7785 N   0  0  0  0  0  0  0  0  0  0  0  0
   12.6669  -16.1043   20.2892 C   0  0  0  0  0  0  0  0  0  0  0  0
   12.2983  -15.4227   19.1255 O   0  0  0  0  0  0  0  0  0  0  0  0
   13.9327  -16.2116   20.4737 O   0  0  0  0  0  0  0  0  0  0  0  0
  2  1  1  0
  3  2  1  0
  3  4  1  6
  5  3  1  0
  6  5  2  0
  7  5  1  0
  8  7  1  0
  8  9  1  1
 10  9  1  0
 11 10  1  0
 12 11  1  0
 13 12  1  0
 14 15  2  0
 14  8  1  0
 16 14  1  0
 17 16  1  0
 17 18  1  6
 19 20  1  0
 19 18  1  0
 20 21  1  0
 22 21  1  0
 23 17  1  0
 24 23  1  0
 25 23  2  0
M  END
$$$$
