SKK.pdb
     RDKit          3D

 25 24  0  0  1  0  0  0  0  0999 V2000
    9.2732  -18.7535   20.8686 O   0  0  0  0  0  0  0  0  0  0  0  0
    8.4207  -17.9150   20.1530 C   0  0  0  0  0  0  0  0  0  0  0  0
    9.0170  -16.5278   20.0866 C   0  0  2  0  0  0  0  0  0  0  0  0
   10.2553  -16.5712   19.3390 N   0  0  0  0  0  0  0  0  0  0  0  0
    9.2110  -15.9460   21.4410 C   0  0  0  0  0  0  0  0  0  0  0  0
   10.3370  -15.9529   22.0148 O   0  0  0  0  0  0  0  0  0  0  0  0
    8.1528  -15.3474   22.1768 N   0  0  0  0  0  0  0  0  0  0  0  0
    8.3328  -14.7392   23.4752 C   0  0  1  0  0  0  0  0  0  0  0  0
    7.1047  -13.9961   23.9466 C   0  0  0  0  0  0  0  0  0  0  0  0
    7.4228  -13.3463   25.2552 C   0  0  0  0  0  0  0  0  0  0  0  0
    6.2840  -12.5939   25.8549 C   0  0  0  0  0  0  0  0  0  0  0  0
    6.7953  -11.9359   27.1372 C   0  0  0  0  0  0  0  0  0  0  0  0
    5.7636  -11.1881   27.7943 N   0  0  0  0  0  0  0  0  0  0  0  0
    8.6426  -15.8655   24.4305 C   0  0  0  0  0  0  0  0  0  0  0  0
    7.8748  -16.8724   24.5130 O   0  0  0  0  0  0  0  0  0  0  0  0
    9.7932  -15.8205   25.2510 N   0  0  0  0  0  0  0  0  0  0  0  0
   10.0480  -16.9740   26.1336 C   0  0  1  0  0  0  0  0  0  0  0  0
   11.2258  -17.7398   25.6032 C   0  0  0  0  0  0  0  0  0  0  0  0
   11.5797  -18.8588   26.5342 C   0  0  0  0  0  0  0  0  0  0  0  0
   12.7118  -19.6979   26.0012 C   0  0  0  0  0  0  0  0  0  0  0  0
   13.0213  -20.8792   26.8572 C   0  0  0  0  0  0  0  0  0  0  0  0
   14.0861  -21.6951   26.3332 N   0  0  0  0  0  0  0  0  0  0  0  0
   10.2462  -16.4239   27.4820 C   0  0  0  0  0  0  0  0  0  0  0  0
   10.2371  -15.0601   27.7895 O   0  0  0  0  0  0  0  0  0  0  0  0
   10.4476  -17.2014   28.4834 O   0  0  0  0  0  0  0  0  0  0  0  0
  2  1  1  0
  3  2  1  0
  3  4  1  1
  5  3  1  0
  6  5  2  0
  7  5  1  0
  8  7  1  0
  8  9  1  1
 10  9  1  0
 11 10  1  0
 12 11  1  0
 13 12  1  0
 14 15  2  0
 14  8  1  0
 16 14  1  0
 17 16  1  0
 17 18  1  6
 19 20  1  0
 19 18  1  0
 20 21  1  0
 22 21  1  0
 23 17  1  0
 24 23  1  0
 25 23  2  0
M  END
$$$$
