SKK.pdb
     RDKit          3D

 25 24  0  0  1  0  0  0  0  0999 V2000
   10.8767  -13.1670   17.8107 O   0  0  0  0  0  0  0  0  0  0  0  0
   10.1739  -13.3279   19.0033 C   0  0  0  0  0  0  0  0  0  0  0  0
    8.8117  -13.9136   18.7106 C   0  0  2  0  0  0  0  0  0  0  0  0
    7.9360  -12.8727   18.2166 N   0  0  0  0  0  0  0  0  0  0  0  0
    8.2388  -14.5974   19.8999 C   0  0  0  0  0  0  0  0  0  0  0  0
    7.6409  -13.9595   20.8124 O   0  0  0  0  0  0  0  0  0  0  0  0
    8.3234  -16.0031   20.0906 N   0  0  0  0  0  0  0  0  0  0  0  0
    7.8236  -16.6767   21.2673 C   0  0  1  0  0  0  0  0  0  0  0  0
    7.6628  -18.1651   21.0633 C   0  0  0  0  0  0  0  0  0  0  0  0
    7.2053  -18.7687   22.3526 C   0  0  0  0  0  0  0  0  0  0  0  0
    6.2100  -19.8670   22.1921 C   0  0  0  0  0  0  0  0  0  0  0  0
    5.8229  -20.3418   23.5933 C   0  0  0  0  0  0  0  0  0  0  0  0
    4.8118  -21.3572   23.5460 N   0  0  0  0  0  0  0  0  0  0  0  0
    8.8309  -16.4201   22.3613 C   0  0  0  0  0  0  0  0  0  0  0  0
   10.0742  -16.5342   22.1346 O   0  0  0  0  0  0  0  0  0  0  0  0
    8.4089  -16.0482   23.6584 N   0  0  0  0  0  0  0  0  0  0  0  0
    9.4476  -15.8737   24.6905 C   0  0  1  0  0  0  0  0  0  0  0  0
    8.8176  -15.2783   25.9169 C   0  0  0  0  0  0  0  0  0  0  0  0
    9.8183  -15.2003   27.0289 C   0  0  0  0  0  0  0  0  0  0  0  0
    9.2068  -14.6716   28.3004 C   0  0  0  0  0  0  0  0  0  0  0  0
   10.1760  -14.5958   29.4313 C   0  0  0  0  0  0  0  0  0  0  0  0
    9.5733  -14.1638   30.6659 N   0  0  0  0  0  0  0  0  0  0  0  0
   10.0421  -17.2008   24.9038 C   0  0  0  0  0  0  0  0  0  0  0  0
   11.4084  -17.4361   25.0842 O   0  0  0  0  0  0  0  0  0  0  0  0
    9.3051  -18.2514   24.9339 O   0  0  0  0  0  0  0  0  0  0  0  0
  2  1  1  0
  3  2  1  0
  3  4  1  1
  5  3  1  0
  6  5  2  0
  7  5  1  0
  8  7  1  0
  8  9  1  6
 10  9  1  0
 11 10  1  0
 12 11  1  0
 13 12  1  0
 14 15  2  0
 14  8  1  0
 16 14  1  0
 17 16  1  0
 17 18  1  1
 19 20  1  0
 19 18  1  0
 20 21  1  0
 22 21  1  0
 23 17  1  0
 24 23  1  0
 25 23  2  0
M  END
$$$$
