SKK.pdb
     RDKit          3D

 25 24  0  0  1  0  0  0  0  0999 V2000
    7.6914  -20.6607   20.9802 O   0  0  0  0  0  0  0  0  0  0  0  0
    6.6550  -19.8668   20.4929 C   0  0  0  0  0  0  0  0  0  0  0  0
    7.2246  -18.7808   19.6094 C   0  0  2  0  0  0  0  0  0  0  0  0
    7.9942  -19.3829   18.5419 N   0  0  0  0  0  0  0  0  0  0  0  0
    8.0314  -17.8042   20.3875 C   0  0  0  0  0  0  0  0  0  0  0  0
    9.2778  -17.9430   20.5438 O   0  0  0  0  0  0  0  0  0  0  0  0
    7.4615  -16.6573   21.0035 N   0  0  0  0  0  0  0  0  0  0  0  0
    8.2318  -15.6952   21.7579 C   0  0  1  0  0  0  0  0  0  0  0  0
    7.4668  -14.4215   22.0320 C   0  0  0  0  0  0  0  0  0  0  0  0
    7.9980  -13.3521   21.1319 C   0  0  0  0  0  0  0  0  0  0  0  0
    7.6424  -13.5323   19.6953 C   0  0  0  0  0  0  0  0  0  0  0  0
    8.3189  -12.4066   18.9120 C   0  0  0  0  0  0  0  0  0  0  0  0
    8.1065  -12.5439   17.5007 N   0  0  0  0  0  0  0  0  0  0  0  0
    8.5850  -16.3661   23.0627 C   0  0  0  0  0  0  0  0  0  0  0  0
    7.7060  -17.0015   23.7212 O   0  0  0  0  0  0  0  0  0  0  0  0
    9.9008  -16.2995   23.5757 N   0  0  0  0  0  0  0  0  0  0  0  0
   10.2248  -17.1490   24.7367 C   0  0  1  0  0  0  0  0  0  0  0  0
   11.2803  -18.1385   24.3342 C   0  0  0  0  0  0  0  0  0  0  0  0
   11.6681  -18.9890   25.5048 C   0  0  0  0  0  0  0  0  0  0  0  0
   12.7402  -19.9851   25.1462 C   0  0  0  0  0  0  0  0  0  0  0  0
   13.1248  -20.8695   26.2839 C   0  0  0  0  0  0  0  0  0  0  0  0
   14.1485  -21.8222   25.9397 N   0  0  0  0  0  0  0  0  0  0  0  0
   10.6357  -16.2356   25.8124 C   0  0  0  0  0  0  0  0  0  0  0  0
   10.6470  -16.5669   27.1706 O   0  0  0  0  0  0  0  0  0  0  0  0
   11.0178  -15.0395   25.5456 O   0  0  0  0  0  0  0  0  0  0  0  0
  2  1  1  0
  3  2  1  0
  3  4  1  6
  5  3  1  0
  6  5  2  0
  7  5  1  0
  8  7  1  0
  8  9  1  1
 10  9  1  0
 11 10  1  0
 12 11  1  0
 13 12  1  0
 14 15  2  0
 14  8  1  0
 16 14  1  0
 17 16  1  0
 17 18  1  6
 19 20  1  0
 19 18  1  0
 20 21  1  0
 22 21  1  0
 23 17  1  0
 24 23  1  0
 25 23  2  0
M  END
$$$$
