SKK.pdb
     RDKit          3D

 25 24  0  0  1  0  0  0  0  0999 V2000
    8.6131  -18.6441   20.7342 O   0  0  0  0  0  0  0  0  0  0  0  0
    7.8369  -17.7963   19.9465 C   0  0  0  0  0  0  0  0  0  0  0  0
    8.5224  -16.4550   19.8231 C   0  0  2  0  0  0  0  0  0  0  0  0
    9.7001  -16.5907   18.9929 N   0  0  0  0  0  0  0  0  0  0  0  0
    8.8499  -15.8789   21.1539 C   0  0  0  0  0  0  0  0  0  0  0  0
   10.0186  -15.9268   21.6323 O   0  0  0  0  0  0  0  0  0  0  0  0
    7.8793  -15.2403   21.9725 N   0  0  0  0  0  0  0  0  0  0  0  0
    8.1865  -14.6494   23.2549 C   0  0  1  0  0  0  0  0  0  0  0  0
    7.0304  -13.8622   23.8263 C   0  0  0  0  0  0  0  0  0  0  0  0
    7.4720  -13.2498   25.1170 C   0  0  0  0  0  0  0  0  0  0  0  0
    6.4211  -12.4421   25.7995 C   0  0  0  0  0  0  0  0  0  0  0  0
    7.0395  -11.8729   27.0770 C   0  0  0  0  0  0  0  0  0  0  0  0
    6.0708  -11.1658   27.8627 N   0  0  0  0  0  0  0  0  0  0  0  0
    8.5265  -15.7941   24.1775 C   0  0  0  0  0  0  0  0  0  0  0  0
    7.7556  -16.7974   24.2736 O   0  0  0  0  0  0  0  0  0  0  0  0
    9.7094  -15.7706   24.9516 N   0  0  0  0  0  0  0  0  0  0  0  0
   10.0313  -16.9722   25.7434 C   0  0  1  0  0  0  0  0  0  0  0  0
   11.2838  -17.5932   25.1949 C   0  0  0  0  0  0  0  0  0  0  0  0
   11.6821  -18.7766   26.0227 C   0  0  0  0  0  0  0  0  0  0  0  0
   12.9161  -19.4516   25.4825 C   0  0  0  0  0  0  0  0  0  0  0  0
   13.3867  -20.5830   26.3327 C   0  0  0  0  0  0  0  0  0  0  0  0
   14.6232  -21.1608   25.8729 N   0  0  0  0  0  0  0  0  0  0  0  0
   10.1424  -16.5270   27.1396 C   0  0  0  0  0  0  0  0  0  0  0  0
   10.0221  -17.3676   28.2502 O   0  0  0  0  0  0  0  0  0  0  0  0
   10.3622  -15.2932   27.4180 O   0  0  0  0  0  0  0  0  0  0  0  0
  2  1  1  0
  3  2  1  0
  3  4  1  6
  5  3  1  0
  6  5  2  0
  7  5  1  0
  8  7  1  0
  8  9  1  1
 10  9  1  0
 11 10  1  0
 12 11  1  0
 13 12  1  0
 14 15  2  0
 14  8  1  0
 16 14  1  0
 17 16  1  0
 17 18  1  6
 19 20  1  0
 19 18  1  0
 20 21  1  0
 22 21  1  0
 23 17  1  0
 24 23  1  0
 25 23  2  0
M  END
$$$$
