SKK.pdb
     RDKit          3D

 25 24  0  0  1  0  0  0  0  0999 V2000
    7.1096  -20.9206   22.7338 O   0  0  0  0  0  0  0  0  0  0  0  0
    5.8204  -21.2795   23.1223 C   0  0  0  0  0  0  0  0  0  0  0  0
    5.0262  -21.6994   21.9069 C   0  0  2  0  0  0  0  0  0  0  0  0
    4.9684  -20.6010   20.9664 N   0  0  0  0  0  0  0  0  0  0  0  0
    3.6689  -22.1816   22.2752 C   0  0  0  0  0  0  0  0  0  0  0  0
    2.7307  -21.3828   22.5560 O   0  0  0  0  0  0  0  0  0  0  0  0
    3.3362  -23.5619   22.3361 N   0  0  0  0  0  0  0  0  0  0  0  0
    1.9993  -24.0462   22.5932 C   0  0  1  0  0  0  0  0  0  0  0  0
    1.5867  -25.1498   21.6473 C   0  0  0  0  0  0  0  0  0  0  0  0
    0.1487  -25.4720   21.9010 C   0  0  0  0  0  0  0  0  0  0  0  0
   -0.4131  -26.5101   20.9902 C   0  0  0  0  0  0  0  0  0  0  0  0
   -1.9123  -26.6060   21.2758 C   0  0  0  0  0  0  0  0  0  0  0  0
   -2.5728  -27.4727   20.3439 N   0  0  0  0  0  0  0  0  0  0  0  0
    2.0032  -24.5667   24.0097 C   0  0  0  0  0  0  0  0  0  0  0  0
    3.0893  -24.9097   24.5690 O   0  0  0  0  0  0  0  0  0  0  0  0
    0.7980  -24.6820   24.7398 N   0  0  0  0  0  0  0  0  0  0  0  0
    0.8830  -25.1877   26.1224 C   0  0  1  0  0  0  0  0  0  0  0  0
   -0.4083  -24.8886   26.8285 C   0  0  0  0  0  0  0  0  0  0  0  0
   -0.3683  -25.4167   28.2298 C   0  0  0  0  0  0  0  0  0  0  0  0
   -1.6609  -25.1670   28.9625 C   0  0  0  0  0  0  0  0  0  0  0  0
   -1.6466  -25.6689   30.3668 C   0  0  0  0  0  0  0  0  0  0  0  0
   -2.8335  -25.3210   31.1047 N   0  0  0  0  0  0  0  0  0  0  0  0
    1.1933  -26.6204   26.0178 C   0  0  0  0  0  0  0  0  0  0  0  0
    1.9977  -27.3238   26.9193 O   0  0  0  0  0  0  0  0  0  0  0  0
    0.7229  -27.3236   25.0522 O   0  0  0  0  0  0  0  0  0  0  0  0
  2  1  1  0
  3  2  1  0
  3  4  1  6
  5  3  1  0
  6  5  2  0
  7  5  1  0
  8  7  1  0
  8  9  1  6
 10  9  1  0
 11 10  1  0
 12 11  1  0
 13 12  1  0
 14 15  2  0
 14  8  1  0
 16 14  1  0
 17 16  1  0
 17 18  1  6
 19 20  1  0
 19 18  1  0
 20 21  1  0
 22 21  1  0
 23 17  1  0
 24 23  1  0
 25 23  2  0
M  END
$$$$
