SKK.pdb
     RDKit          3D

 25 24  0  0  1  0  0  0  0  0999 V2000
    6.8940  -20.3550   22.4067 O   0  0  0  0  0  0  0  0  0  0  0  0
    5.9201  -19.5278   21.8508 C   0  0  0  0  0  0  0  0  0  0  0  0
    6.3869  -19.0369   20.4998 C   0  0  2  0  0  0  0  0  0  0  0  0
    6.6187  -20.1697   19.6296 N   0  0  0  0  0  0  0  0  0  0  0  0
    7.5921  -18.1737   20.6134 C   0  0  0  0  0  0  0  0  0  0  0  0
    8.7485  -18.6033   20.3393 O   0  0  0  0  0  0  0  0  0  0  0  0
    7.5269  -16.8180   21.0345 N   0  0  0  0  0  0  0  0  0  0  0  0
    8.6770  -15.9443   21.0811 C   0  0  1  0  0  0  0  0  0  0  0  0
    8.3596  -14.5378   20.6300 C   0  0  0  0  0  0  0  0  0  0  0  0
    8.1897  -14.5484   19.1444 C   0  0  0  0  0  0  0  0  0  0  0  0
    7.8646  -13.2167   18.5585 C   0  0  0  0  0  0  0  0  0  0  0  0
    7.7362  -13.4015   17.0459 C   0  0  0  0  0  0  0  0  0  0  0  0
    7.4497  -12.1619   16.3851 N   0  0  0  0  0  0  0  0  0  0  0  0
    9.1356  -15.9252   22.5186 C   0  0  0  0  0  0  0  0  0  0  0  0
    8.2957  -16.0100   23.4660 O   0  0  0  0  0  0  0  0  0  0  0  0
   10.5085  -15.8126   22.8370 N   0  0  0  0  0  0  0  0  0  0  0  0
   10.9940  -16.5308   24.0299 C   0  0  1  0  0  0  0  0  0  0  0  0
   10.7770  -18.0034   23.8312 C   0  0  0  0  0  0  0  0  0  0  0  0
   11.4032  -18.7764   24.9512 C   0  0  0  0  0  0  0  0  0  0  0  0
   11.3409  -20.2628   24.7131 C   0  0  0  0  0  0  0  0  0  0  0  0
   11.8459  -21.0641   25.8651 C   0  0  0  0  0  0  0  0  0  0  0  0
   11.7894  -22.4846   25.6350 N   0  0  0  0  0  0  0  0  0  0  0  0
   12.4031  -16.1475   24.1953 C   0  0  0  0  0  0  0  0  0  0  0  0
   13.2155  -15.6569   23.1686 O   0  0  0  0  0  0  0  0  0  0  0  0
   12.9803  -16.2510   25.3373 O   0  0  0  0  0  0  0  0  0  0  0  0
  2  1  1  0
  3  2  1  0
  3  4  1  6
  5  3  1  0
  6  5  2  0
  7  5  1  0
  8  7  1  0
  8  9  1  1
 10  9  1  0
 11 10  1  0
 12 11  1  0
 13 12  1  0
 14 15  2  0
 14  8  1  0
 16 14  1  0
 17 16  1  0
 17 18  1  6
 19 20  1  0
 19 18  1  0
 20 21  1  0
 22 21  1  0
 23 17  1  0
 24 23  1  0
 25 23  2  0
M  END
$$$$
