SKK.pdb
     RDKit          3D

 25 24  0  0  1  0  0  0  0  0999 V2000
   10.5577  -19.7672   18.1405 O   0  0  0  0  0  0  0  0  0  0  0  0
    9.9391  -19.0513   17.1174 C   0  0  0  0  0  0  0  0  0  0  0  0
   10.6470  -17.7295   16.9276 C   0  0  2  0  0  0  0  0  0  0  0  0
   11.8157  -17.9242   16.0966 N   0  0  0  0  0  0  0  0  0  0  0  0
   10.9945  -17.0989   18.2283 C   0  0  0  0  0  0  0  0  0  0  0  0
   12.1747  -17.1089   18.6803 O   0  0  0  0  0  0  0  0  0  0  0  0
   10.0318  -16.4471   19.0456 N   0  0  0  0  0  0  0  0  0  0  0  0
   10.3710  -15.7238   20.2498 C   0  0  1  0  0  0  0  0  0  0  0  0
    9.2318  -14.8719   20.7589 C   0  0  0  0  0  0  0  0  0  0  0  0
    8.8831  -13.8740   19.7014 C   0  0  0  0  0  0  0  0  0  0  0  0
    7.4199  -13.6304   19.5519 C   0  0  0  0  0  0  0  0  0  0  0  0
    7.2398  -12.5944   18.4416 C   0  0  0  0  0  0  0  0  0  0  0  0
    5.8636  -12.4614   18.0619 N   0  0  0  0  0  0  0  0  0  0  0  0
   10.7272  -16.7650   21.2823 C   0  0  0  0  0  0  0  0  0  0  0  0
   10.0700  -17.8476   21.3617 O   0  0  0  0  0  0  0  0  0  0  0  0
   11.7990  -16.5544   22.1801 N   0  0  0  0  0  0  0  0  0  0  0  0
   12.1363  -17.6485   23.1094 C   0  0  1  0  0  0  0  0  0  0  0  0
   13.5313  -18.1211   22.8163 C   0  0  0  0  0  0  0  0  0  0  0  0
   13.8992  -19.2509   23.7286 C   0  0  0  0  0  0  0  0  0  0  0  0
   15.2635  -19.8073   23.4136 C   0  0  0  0  0  0  0  0  0  0  0  0
   15.6200  -20.9940   24.2436 C   0  0  0  0  0  0  0  0  0  0  0  0
   16.9150  -21.5385   23.9264 N   0  0  0  0  0  0  0  0  0  0  0  0
   11.9570  -17.1072   24.4640 C   0  0  0  0  0  0  0  0  0  0  0  0
   11.7938  -17.8872   25.6127 O   0  0  0  0  0  0  0  0  0  0  0  0
   11.9387  -15.8395   24.6656 O   0  0  0  0  0  0  0  0  0  0  0  0
  2  1  1  0
  3  2  1  0
  3  4  1  6
  5  3  1  0
  6  5  2  0
  7  5  1  0
  8  7  1  0
  8  9  1  1
 10  9  1  0
 11 10  1  0
 12 11  1  0
 13 12  1  0
 14 15  2  0
 14  8  1  0
 16 14  1  0
 17 16  1  0
 17 18  1  1
 19 20  1  0
 19 18  1  0
 20 21  1  0
 22 21  1  0
 23 17  1  0
 24 23  1  0
 25 23  2  0
M  END
$$$$
