HHY.pdb
     RDKit          3D

 33 35  0  0  1  0  0  0  0  0999 V2000
   12.4507  -16.5472   17.5735 N   0  0  0  0  0  0  0  0  0  0  0  0
   12.5839  -16.3739   18.9985 C   0  0  1  0  0  0  0  0  0  0  0  0
   13.0639  -14.9365   19.2395 C   0  0  0  0  0  0  0  0  0  0  0  0
   14.4965  -14.7831   18.9413 C   0  0  0  0  0  0  0  0  0  0  0  0
   15.5442  -15.3950   19.5721 C   0  0  0  0  0  0  0  0  0  0  0  0
   16.7022  -14.9856   18.9964 N   0  0  0  0  0  0  0  0  0  0  0  0
   16.3738  -14.1287   18.0190 C   0  0  0  0  0  0  0  0  0  0  0  0
   15.0173  -14.0041   17.9850 N   0  0  0  0  0  0  0  0  0  0  0  0
   11.2881  -16.5278   19.6705 C   0  0  0  0  0  0  0  0  0  0  0  0
   10.2115  -16.1443   19.1083 O   0  0  0  0  0  0  0  0  0  0  0  0
   11.2416  -17.1100   20.9585 N   0  0  0  0  0  0  0  0  0  0  0  0
    9.9668  -17.3882   21.5651 C   0  0  1  0  0  0  0  0  0  0  0  0
    9.9569  -18.8042   22.1349 C   0  0  0  0  0  0  0  0  0  0  0  0
    8.7051  -19.0776   22.8677 C   0  0  0  0  0  0  0  0  0  0  0  0
    8.5461  -19.3076   24.2405 C   0  0  0  0  0  0  0  0  0  0  0  0
    7.2454  -19.5142   24.4951 N   0  0  0  0  0  0  0  0  0  0  0  0
    6.5710  -19.4251   23.3410 C   0  0  0  0  0  0  0  0  0  0  0  0
    7.4586  -19.1620   22.3665 N   0  0  0  0  0  0  0  0  0  0  0  0
    9.8119  -16.4351   22.7209 C   0  0  0  0  0  0  0  0  0  0  0  0
   10.7899  -16.0912   23.4282 O   0  0  0  0  0  0  0  0  0  0  0  0
    5.7372  -11.0293   28.3814 O   0  0  0  0  0  0  0  0  0  0  0  0
    6.0839  -11.8248   27.3093 C   0  0  0  0  0  0  0  0  0  0  0  0
    7.1088  -11.4648   26.4505 C   0  0  0  0  0  0  0  0  0  0  0  0
    7.4558  -12.2617   25.3768 C   0  0  0  0  0  0  0  0  0  0  0  0
    6.7514  -13.4309   25.1818 C   0  0  0  0  0  0  0  0  0  0  0  0
    7.1115  -14.2847   24.0320 C   0  0  0  0  0  0  0  0  0  0  0  0
    8.4364  -15.0172   24.2243 C   0  0  2  0  0  0  0  0  0  0  0  0
    8.5504  -15.8839   23.0601 N   0  0  0  0  0  0  0  0  0  0  0  0
    8.4874  -15.7633   25.4826 C   0  0  0  0  0  0  0  0  0  0  0  0
    9.1252  -15.3839   26.5144 O   0  0  0  0  0  0  0  0  0  0  0  0
    5.7354  -13.7789   26.0408 C   0  0  0  0  0  0  0  0  0  0  0  0
    5.3782  -12.9914   27.1179 C   0  0  0  0  0  0  0  0  0  0  0  0
    7.8082  -16.9646   25.5938 O   0  0  0  0  0  0  0  0  0  0  0  0
  2  1  1  6
  2  3  1  0
  3  4  1  0
  4  8  1  0
  5  6  1  0
  5  4  2  0
  6  7  1  0
  7  8  2  0
  9  2  1  0
  9 10  2  0
 11  9  1  0
 12 11  1  0
 12 13  1  1
 13 14  1  0
 14 15  2  0
 14 18  1  0
 15 16  1  0
 16 17  1  0
 18 17  2  0
 19 12  1  0
 20 19  2  0
 22 23  2  0
 22 21  1  0
 24 23  1  0
 25 24  2  0
 27 26  1  6
 26 25  1  0
 27 28  1  0
 28 19  1  0
 29 27  1  0
 29 33  1  0
 30 29  2  0
 31 25  1  0
 31 32  2  0
 32 22  1  0
M  END
$$$$
