HHY.pdb
     RDKit          3D

 33 35  0  0  1  0  0  0  0  0999 V2000
   10.4066  -16.6561   15.9712 N   0  0  0  0  0  0  0  0  0  0  0  0
   10.6360  -15.6560   16.9840 C   0  0  1  0  0  0  0  0  0  0  0  0
    9.4417  -15.7002   17.9464 C   0  0  0  0  0  0  0  0  0  0  0  0
    8.6011  -14.4986   17.8274 C   0  0  0  0  0  0  0  0  0  0  0  0
    8.7630  -13.4572   16.9560 C   0  0  0  0  0  0  0  0  0  0  0  0
    7.7772  -12.5500   17.1689 N   0  0  0  0  0  0  0  0  0  0  0  0
    7.0130  -13.0258   18.1625 C   0  0  0  0  0  0  0  0  0  0  0  0
    7.5196  -14.2241   18.5675 N   0  0  0  0  0  0  0  0  0  0  0  0
   11.8435  -15.9612   17.7606 C   0  0  0  0  0  0  0  0  0  0  0  0
   12.2030  -17.1664   17.9619 O   0  0  0  0  0  0  0  0  0  0  0  0
   12.6130  -14.8988   18.2892 N   0  0  0  0  0  0  0  0  0  0  0  0
   13.8191  -15.1912   19.0176 C   0  0  1  0  0  0  0  0  0  0  0  0
   14.8178  -14.0483   18.8553 C   0  0  0  0  0  0  0  0  0  0  0  0
   15.6717  -14.2481   17.6681 C   0  0  0  0  0  0  0  0  0  0  0  0
   15.8034  -15.4054   16.8896 C   0  0  0  0  0  0  0  0  0  0  0  0
   16.6814  -15.1647   15.9045 N   0  0  0  0  0  0  0  0  0  0  0  0
   17.1133  -13.9022   16.0244 C   0  0  0  0  0  0  0  0  0  0  0  0
   16.4996  -13.3582   17.0894 N   0  0  0  0  0  0  0  0  0  0  0  0
   13.4467  -15.2621   20.4751 C   0  0  0  0  0  0  0  0  0  0  0  0
   12.5312  -14.5519   20.9576 O   0  0  0  0  0  0  0  0  0  0  0  0
    7.8983  -13.7913   23.9820 O   0  0  0  0  0  0  0  0  0  0  0  0
    8.9378  -14.5939   23.5606 C   0  0  0  0  0  0  0  0  0  0  0  0
    9.8237  -15.1546   24.4654 C   0  0  0  0  0  0  0  0  0  0  0  0
   10.8648  -15.9583   24.0431 C   0  0  0  0  0  0  0  0  0  0  0  0
   10.9994  -16.1889   22.6904 C   0  0  0  0  0  0  0  0  0  0  0  0
   12.1142  -17.0412   22.2303 C   0  0  0  0  0  0  0  0  0  0  0  0
   13.4840  -16.4982   22.6277 C   0  0  2  0  0  0  0  0  0  0  0  0
   14.1167  -16.1370   21.3672 N   0  0  0  0  0  0  0  0  0  0  0  0
   14.2721  -17.4678   23.3901 C   0  0  0  0  0  0  0  0  0  0  0  0
   14.8844  -18.4554   22.8754 O   0  0  0  0  0  0  0  0  0  0  0  0
   10.1140  -15.6271   21.8005 C   0  0  0  0  0  0  0  0  0  0  0  0
    9.0690  -14.8217   22.2092 C   0  0  0  0  0  0  0  0  0  0  0  0
   14.3813  -17.3320   24.7636 O   0  0  0  0  0  0  0  0  0  0  0  0
  2  1  1  6
  2  3  1  0
  3  4  1  0
  4  8  1  0
  5  6  1  0
  5  4  2  0
  6  7  1  0
  7  8  2  0
  9  2  1  0
  9 10  2  0
 11  9  1  0
 12 11  1  0
 12 13  1  1
 13 14  1  0
 14 15  2  0
 14 18  1  0
 15 16  1  0
 16 17  1  0
 18 17  2  0
 19 12  1  0
 20 19  2  0
 22 23  2  0
 22 21  1  0
 24 23  1  0
 25 24  2  0
 27 26  1  6
 26 25  1  0
 27 28  1  0
 28 19  1  0
 29 27  1  0
 29 33  1  0
 30 29  2  0
 31 25  1  0
 31 32  2  0
 32 22  1  0
M  END
$$$$
