HHY.pdb
     RDKit          3D

 33 35  0  0  1  0  0  0  0  0999 V2000
    6.8846  -19.0616   19.7253 N   0  0  0  0  0  0  0  0  0  0  0  0
    6.5867  -18.0845   20.7428 C   0  0  1  0  0  0  0  0  0  0  0  0
    6.2230  -18.8536   22.0198 C   0  0  0  0  0  0  0  0  0  0  0  0
    5.0261  -19.6881   21.8313 C   0  0  0  0  0  0  0  0  0  0  0  0
    3.8066  -19.2922   21.3558 C   0  0  0  0  0  0  0  0  0  0  0  0
    2.9747  -20.3636   21.3364 N   0  0  0  0  0  0  0  0  0  0  0  0
    3.6731  -21.4119   21.7956 C   0  0  0  0  0  0  0  0  0  0  0  0
    4.9347  -20.9965   22.0999 N   0  0  0  0  0  0  0  0  0  0  0  0
    7.7638  -17.2601   21.0410 C   0  0  0  0  0  0  0  0  0  0  0  0
    8.9402  -17.7313   20.9139 O   0  0  0  0  0  0  0  0  0  0  0  0
    7.5823  -15.9262   21.4747 N   0  0  0  0  0  0  0  0  0  0  0  0
    8.7300  -15.0774   21.6562 C   0  0  1  0  0  0  0  0  0  0  0  0
    8.4793  -13.7152   21.0149 C   0  0  0  0  0  0  0  0  0  0  0  0
    8.4329  -13.8168   19.5431 C   0  0  0  0  0  0  0  0  0  0  0  0
    7.6647  -13.0547   18.6532 C   0  0  0  0  0  0  0  0  0  0  0  0
    7.9185  -13.4670   17.4023 N   0  0  0  0  0  0  0  0  0  0  0  0
    8.8162  -14.4597   17.4600 C   0  0  0  0  0  0  0  0  0  0  0  0
    9.1201  -14.6633   18.7535 N   0  0  0  0  0  0  0  0  0  0  0  0
    8.8847  -14.8574   23.1381 C   0  0  0  0  0  0  0  0  0  0  0  0
    8.6096  -13.7564   23.6739 O   0  0  0  0  0  0  0  0  0  0  0  0
    5.9762  -10.5585   27.2176 O   0  0  0  0  0  0  0  0  0  0  0  0
    6.3723  -11.8175   26.8172 C   0  0  0  0  0  0  0  0  0  0  0  0
    5.4900  -12.8849   26.8288 C   0  0  0  0  0  0  0  0  0  0  0  0
    5.8870  -14.1457   26.4278 C   0  0  0  0  0  0  0  0  0  0  0  0
    7.1912  -14.3145   26.0135 C   0  0  0  0  0  0  0  0  0  0  0  0
    7.6253  -15.6610   25.5902 C   0  0  0  0  0  0  0  0  0  0  0  0
    9.1385  -15.7773   25.4298 C   0  0  2  0  0  0  0  0  0  0  0  0
    9.3492  -15.8883   23.9936 N   0  0  0  0  0  0  0  0  0  0  0  0
    9.6948  -16.9144   26.1649 C   0  0  0  0  0  0  0  0  0  0  0  0
    9.9110  -18.0589   25.6564 O   0  0  0  0  0  0  0  0  0  0  0  0
    8.0591  -13.2477   26.0059 C   0  0  0  0  0  0  0  0  0  0  0  0
    7.6753  -11.9821   26.4043 C   0  0  0  0  0  0  0  0  0  0  0  0
   10.0195  -16.7712   27.5031 O   0  0  0  0  0  0  0  0  0  0  0  0
  2  1  1  6
  2  3  1  0
  3  4  1  0
  4  8  1  0
  5  6  1  0
  5  4  2  0
  6  7  1  0
  7  8  2  0
  9  2  1  0
  9 10  2  0
 11  9  1  0
 12 11  1  0
 12 13  1  6
 13 14  1  0
 14 15  2  0
 14 18  1  0
 15 16  1  0
 16 17  1  0
 18 17  2  0
 19 12  1  0
 20 19  2  0
 22 23  2  0
 22 21  1  0
 24 23  1  0
 25 24  2  0
 27 26  1  6
 26 25  1  0
 27 28  1  0
 28 19  1  0
 29 27  1  0
 29 33  1  0
 30 29  2  0
 31 25  1  0
 31 32  2  0
 32 22  1  0
M  END
$$$$
