HHY.pdb
     RDKit          3D

 33 35  0  0  1  0  0  0  0  0999 V2000
    8.0476  -18.8602   20.4720 N   0  0  0  0  0  0  0  0  0  0  0  0
    9.1891  -18.6719   19.6117 C   0  0  1  0  0  0  0  0  0  0  0  0
    8.6996  -18.8258   18.1655 C   0  0  0  0  0  0  0  0  0  0  0  0
    7.8915  -20.0428   17.9903 C   0  0  0  0  0  0  0  0  0  0  0  0
    7.6358  -21.0090   18.9236 C   0  0  0  0  0  0  0  0  0  0  0  0
    6.8504  -21.9627   18.3634 N   0  0  0  0  0  0  0  0  0  0  0  0
    6.6227  -21.5898   17.0959 C   0  0  0  0  0  0  0  0  0  0  0  0
    7.2629  -20.4092   16.8664 N   0  0  0  0  0  0  0  0  0  0  0  0
    9.7366  -17.3175   19.7532 C   0  0  0  0  0  0  0  0  0  0  0  0
   10.7384  -16.9427   19.0618 O   0  0  0  0  0  0  0  0  0  0  0  0
    9.1395  -16.4223   20.6709 N   0  0  0  0  0  0  0  0  0  0  0  0
    9.6691  -15.0916   20.8099 C   0  0  1  0  0  0  0  0  0  0  0  0
    8.6192  -14.0649   20.3934 C   0  0  0  0  0  0  0  0  0  0  0  0
    8.4062  -14.0794   18.9329 C   0  0  0  0  0  0  0  0  0  0  0  0
    9.0658  -14.8621   17.9763 C   0  0  0  0  0  0  0  0  0  0  0  0
    8.5724  -14.5680   16.7642 N   0  0  0  0  0  0  0  0  0  0  0  0
    7.6264  -13.6308   16.9105 C   0  0  0  0  0  0  0  0  0  0  0  0
    7.5334  -13.3429   18.2202 N   0  0  0  0  0  0  0  0  0  0  0  0
    9.9509  -14.8808   22.2743 C   0  0  0  0  0  0  0  0  0  0  0  0
    9.3650  -13.9910   22.9376 O   0  0  0  0  0  0  0  0  0  0  0  0
    9.7894  -15.3890   30.6167 O   0  0  0  0  0  0  0  0  0  0  0  0
    9.7728  -15.4398   29.2385 C   0  0  0  0  0  0  0  0  0  0  0  0
    9.4800  -14.3170   28.4825 C   0  0  0  0  0  0  0  0  0  0  0  0
    9.4635  -14.3682   27.1022 C   0  0  0  0  0  0  0  0  0  0  0  0
    9.7475  -15.5724   26.4937 C   0  0  0  0  0  0  0  0  0  0  0  0
    9.7246  -15.6371   25.0187 C   0  0  0  0  0  0  0  0  0  0  0  0
   11.1058  -15.4666   24.3923 C   0  0  2  0  0  0  0  0  0  0  0  0
   10.8933  -15.6814   22.9681 N   0  0  0  0  0  0  0  0  0  0  0  0
   12.0943  -16.3885   24.9542 C   0  0  0  0  0  0  0  0  0  0  0  0
   12.3289  -17.5514   24.4984 O   0  0  0  0  0  0  0  0  0  0  0  0
   10.0369  -16.6813   27.2540 C   0  0  0  0  0  0  0  0  0  0  0  0
   10.0568  -16.6440   28.6346 C   0  0  0  0  0  0  0  0  0  0  0  0
   12.8420  -16.0029   26.0538 O   0  0  0  0  0  0  0  0  0  0  0  0
  2  1  1  1
  2  3  1  0
  3  4  1  0
  4  8  1  0
  5  6  1  0
  5  4  2  0
  6  7  1  0
  7  8  2  0
  9  2  1  0
  9 10  2  0
 11  9  1  0
 12 11  1  0
 12 13  1  1
 13 14  1  0
 14 15  2  0
 14 18  1  0
 15 16  1  0
 16 17  1  0
 18 17  2  0
 19 12  1  0
 20 19  2  0
 22 23  2  0
 22 21  1  0
 24 23  1  0
 25 24  2  0
 27 26  1  1
 26 25  1  0
 27 28  1  0
 28 19  1  0
 29 27  1  0
 29 33  1  0
 30 29  2  0
 31 25  1  0
 31 32  2  0
 32 22  1  0
M  END
$$$$
