HHY.pdb
     RDKit          3D

 33 35  0  0  1  0  0  0  0  0999 V2000
    7.8597  -17.0682   18.7381 N   0  0  0  0  0  0  0  0  0  0  0  0
    8.1522  -16.1215   19.7853 C   0  0  1  0  0  0  0  0  0  0  0  0
    7.4200  -14.8183   19.4386 C   0  0  0  0  0  0  0  0  0  0  0  0
    7.9619  -14.1962   18.2204 C   0  0  0  0  0  0  0  0  0  0  0  0
    8.7769  -13.1010   18.1417 C   0  0  0  0  0  0  0  0  0  0  0  0
    9.0500  -12.8505   16.8368 N   0  0  0  0  0  0  0  0  0  0  0  0
    8.4100  -13.7819   16.1155 C   0  0  0  0  0  0  0  0  0  0  0  0
    7.7408  -14.6096   16.9663 N   0  0  0  0  0  0  0  0  0  0  0  0
    7.6366  -16.5902   21.0772 C   0  0  0  0  0  0  0  0  0  0  0  0
    6.4431  -16.3294   21.4373 O   0  0  0  0  0  0  0  0  0  0  0  0
    8.4812  -17.3404   21.9280 N   0  0  0  0  0  0  0  0  0  0  0  0
    8.0461  -17.6515   23.2639 C   0  0  1  0  0  0  0  0  0  0  0  0
    8.1132  -19.1584   23.4980 C   0  0  0  0  0  0  0  0  0  0  0  0
    7.8906  -19.4898   24.9190 C   0  0  0  0  0  0  0  0  0  0  0  0
    6.8419  -19.0663   25.7457 C   0  0  0  0  0  0  0  0  0  0  0  0
    7.0147  -19.5953   26.9662 N   0  0  0  0  0  0  0  0  0  0  0  0
    8.1298  -20.3376   26.9496 C   0  0  0  0  0  0  0  0  0  0  0  0
    8.6505  -20.2679   25.7123 N   0  0  0  0  0  0  0  0  0  0  0  0
    9.0249  -17.0038   24.2076 C   0  0  0  0  0  0  0  0  0  0  0  0
   10.2484  -16.9269   23.9388 O   0  0  0  0  0  0  0  0  0  0  0  0
    5.0912  -11.4091   26.6733 O   0  0  0  0  0  0  0  0  0  0  0  0
    6.2400  -12.1514   26.4956 C   0  0  0  0  0  0  0  0  0  0  0  0
    7.3327  -11.9936   27.3316 C   0  0  0  0  0  0  0  0  0  0  0  0
    8.4831  -12.7372   27.1534 C   0  0  0  0  0  0  0  0  0  0  0  0
    8.5152  -13.6451   26.1162 C   0  0  0  0  0  0  0  0  0  0  0  0
    9.7442  -14.4386   25.9146 C   0  0  0  0  0  0  0  0  0  0  0  0
    9.5945  -15.8926   26.3532 C   0  0  2  0  0  0  0  0  0  0  0  0
    8.6044  -16.4515   25.4439 N   0  0  0  0  0  0  0  0  0  0  0  0
    9.1967  -16.0172   27.7564 C   0  0  0  0  0  0  0  0  0  0  0  0
    8.0566  -16.4239   28.1438 O   0  0  0  0  0  0  0  0  0  0  0  0
    7.4244  -13.7938   25.2919 C   0  0  0  0  0  0  0  0  0  0  0  0
    6.2681  -13.0568   25.4589 C   0  0  0  0  0  0  0  0  0  0  0  0
   10.0946  -15.6799   28.7547 O   0  0  0  0  0  0  0  0  0  0  0  0
  2  1  1  6
  2  3  1  0
  3  4  1  0
  4  8  1  0
  5  6  1  0
  5  4  2  0
  6  7  1  0
  7  8  2  0
  9  2  1  0
  9 10  2  0
 11  9  1  0
 12 11  1  0
 12 13  1  6
 13 14  1  0
 14 15  2  0
 14 18  1  0
 15 16  1  0
 16 17  1  0
 18 17  2  0
 19 12  1  0
 20 19  2  0
 22 23  2  0
 22 21  1  0
 24 23  1  0
 25 24  2  0
 27 26  1  6
 26 25  1  0
 27 28  1  0
 28 19  1  0
 29 27  1  0
 29 33  1  0
 30 29  2  0
 31 25  1  0
 31 32  2  0
 32 22  1  0
M  END
$$$$
