HHY.pdb
     RDKit          3D

 33 35  0  0  1  0  0  0  0  0999 V2000
    7.4787  -17.9638   20.4098 N   0  0  0  0  0  0  0  0  0  0  0  0
    8.6506  -17.1273   20.3361 C   0  0  1  0  0  0  0  0  0  0  0  0
    8.3551  -15.8574   21.1452 C   0  0  0  0  0  0  0  0  0  0  0  0
    7.9272  -14.7470   20.2800 C   0  0  0  0  0  0  0  0  0  0  0  0
    7.7549  -14.7726   18.9237 C   0  0  0  0  0  0  0  0  0  0  0  0
    7.3535  -13.5447   18.5095 N   0  0  0  0  0  0  0  0  0  0  0  0
    7.2783  -12.7674   19.5993 C   0  0  0  0  0  0  0  0  0  0  0  0
    7.6311  -13.5068   20.6881 N   0  0  0  0  0  0  0  0  0  0  0  0
    9.8076  -17.7873   20.9525 C   0  0  0  0  0  0  0  0  0  0  0  0
    9.6782  -18.8999   21.5586 O   0  0  0  0  0  0  0  0  0  0  0  0
   11.0794  -17.1745   20.8685 N   0  0  0  0  0  0  0  0  0  0  0  0
   12.2289  -17.8499   21.4099 C   0  0  1  0  0  0  0  0  0  0  0  0
   13.4900  -17.4097   20.6712 C   0  0  0  0  0  0  0  0  0  0  0  0
   13.5687  -18.0259   19.3323 C   0  0  0  0  0  0  0  0  0  0  0  0
   13.1196  -19.2945   18.9428 C   0  0  0  0  0  0  0  0  0  0  0  0
   13.3831  -19.4632   17.6384 N   0  0  0  0  0  0  0  0  0  0  0  0
   13.9810  -18.3545   17.1826 C   0  0  0  0  0  0  0  0  0  0  0  0
   14.0885  -17.4945   18.2100 N   0  0  0  0  0  0  0  0  0  0  0  0
   12.3661  -17.4055   22.8424 C   0  0  0  0  0  0  0  0  0  0  0  0
   13.4151  -17.6121   23.4997 O   0  0  0  0  0  0  0  0  0  0  0  0
    9.7689  -14.5038   30.7490 O   0  0  0  0  0  0  0  0  0  0  0  0
    9.8596  -14.8049   29.4061 C   0  0  0  0  0  0  0  0  0  0  0  0
    9.5736  -16.0752   28.9346 C   0  0  0  0  0  0  0  0  0  0  0  0
    9.6646  -16.3765   27.5896 C   0  0  0  0  0  0  0  0  0  0  0  0
   10.0495  -15.3743   26.7244 C   0  0  0  0  0  0  0  0  0  0  0  0
   10.1561  -15.6903   25.2859 C   0  0  0  0  0  0  0  0  0  0  0  0
   11.4313  -16.4517   24.9350 C   0  0  2  0  0  0  0  0  0  0  0  0
   11.3126  -16.7327   23.5115 N   0  0  0  0  0  0  0  0  0  0  0  0
   11.5955  -17.6684   25.7322 C   0  0  0  0  0  0  0  0  0  0  0  0
   12.4003  -17.7809   26.7093 O   0  0  0  0  0  0  0  0  0  0  0  0
   10.3312  -14.1162   27.2033 C   0  0  0  0  0  0  0  0  0  0  0  0
   10.2443  -13.8016   28.5455 C   0  0  0  0  0  0  0  0  0  0  0  0
   10.8411  -18.7899   25.4322 O   0  0  0  0  0  0  0  0  0  0  0  0
  2  1  1  1
  2  3  1  0
  3  4  1  0
  4  8  1  0
  5  6  1  0
  5  4  2  0
  6  7  1  0
  7  8  2  0
  9  2  1  0
  9 10  2  0
 11  9  1  0
 12 11  1  0
 12 13  1  6
 13 14  1  0
 14 15  2  0
 14 18  1  0
 15 16  1  0
 16 17  1  0
 18 17  2  0
 19 12  1  0
 20 19  2  0
 22 23  2  0
 22 21  1  0
 24 23  1  0
 25 24  2  0
 27 26  1  1
 26 25  1  0
 27 28  1  0
 28 19  1  0
 29 27  1  0
 29 33  1  0
 30 29  2  0
 31 25  1  0
 31 32  2  0
 32 22  1  0
M  END
$$$$
