HHY.pdb
     RDKit          3D

 33 35  0  0  1  0  0  0  0  0999 V2000
    8.3266  -17.7268   17.0672 N   0  0  0  0  0  0  0  0  0  0  0  0
    9.0465  -16.7927   17.8965 C   0  0  1  0  0  0  0  0  0  0  0  0
    8.2697  -15.4696   17.8720 C   0  0  0  0  0  0  0  0  0  0  0  0
    8.3264  -14.8286   16.5489 C   0  0  0  0  0  0  0  0  0  0  0  0
    8.9288  -15.3108   15.4199 C   0  0  0  0  0  0  0  0  0  0  0  0
    8.7534  -14.4178   14.4139 N   0  0  0  0  0  0  0  0  0  0  0  0
    8.0493  -13.3933   14.9160 C   0  0  0  0  0  0  0  0  0  0  0  0
    7.7867  -13.6459   16.2290 N   0  0  0  0  0  0  0  0  0  0  0  0
    9.0941  -17.2539   19.2891 C   0  0  0  0  0  0  0  0  0  0  0  0
    8.0990  -17.8512   19.8134 O   0  0  0  0  0  0  0  0  0  0  0  0
   10.2630  -17.0289   20.0527 N   0  0  0  0  0  0  0  0  0  0  0  0
   10.3723  -17.6033   21.3675 C   0  0  1  0  0  0  0  0  0  0  0  0
   11.7784  -18.1577   21.5806 C   0  0  0  0  0  0  0  0  0  0  0  0
   11.8747  -19.5602   21.1305 C   0  0  0  0  0  0  0  0  0  0  0  0
   10.8551  -20.3668   20.6088 C   0  0  0  0  0  0  0  0  0  0  0  0
   11.3640  -21.5751   20.3250 N   0  0  0  0  0  0  0  0  0  0  0  0
   12.6649  -21.5699   20.6447 C   0  0  0  0  0  0  0  0  0  0  0  0
   12.9633  -20.3521   21.1292 N   0  0  0  0  0  0  0  0  0  0  0  0
   10.1739  -16.4835   22.3549 C   0  0  0  0  0  0  0  0  0  0  0  0
   10.9561  -15.5034   22.4070 O   0  0  0  0  0  0  0  0  0  0  0  0
    6.3761  -11.1816   28.1921 O   0  0  0  0  0  0  0  0  0  0  0  0
    6.6925  -12.0791   27.1937 C   0  0  0  0  0  0  0  0  0  0  0  0
    7.5144  -11.7188   26.1389 C   0  0  0  0  0  0  0  0  0  0  0  0
    7.8310  -12.6180   25.1392 C   0  0  0  0  0  0  0  0  0  0  0  0
    7.3049  -13.8899   25.2195 C   0  0  0  0  0  0  0  0  0  0  0  0
    7.6329  -14.8547   24.1507 C   0  0  0  0  0  0  0  0  0  0  0  0
    9.0223  -15.4668   24.3050 C   0  0  2  0  0  0  0  0  0  0  0  0
    9.0914  -16.4889   23.2706 N   0  0  0  0  0  0  0  0  0  0  0  0
    9.2496  -16.0120   25.6443 C   0  0  0  0  0  0  0  0  0  0  0  0
    9.7346  -15.3493   26.6142 O   0  0  0  0  0  0  0  0  0  0  0  0
    6.4898  -14.2372   26.2713 C   0  0  0  0  0  0  0  0  0  0  0  0
    6.1652  -13.3481   27.2774 C   0  0  0  0  0  0  0  0  0  0  0  0
    8.9264  -17.3319   25.9096 O   0  0  0  0  0  0  0  0  0  0  0  0
  2  1  1  6
  2  3  1  0
  3  4  1  0
  4  8  1  0
  5  6  1  0
  5  4  2  0
  6  7  1  0
  7  8  2  0
  9  2  1  0
  9 10  2  0
 11  9  1  0
 12 11  1  0
 12 13  1  6
 13 14  1  0
 14 15  2  0
 14 18  1  0
 15 16  1  0
 16 17  1  0
 18 17  2  0
 19 12  1  0
 20 19  2  0
 22 23  2  0
 22 21  1  0
 24 23  1  0
 25 24  2  0
 27 26  1  1
 26 25  1  0
 27 28  1  0
 28 19  1  0
 29 27  1  0
 29 33  1  0
 30 29  2  0
 31 25  1  0
 31 32  2  0
 32 22  1  0
M  END
$$$$
