HHY.pdb
     RDKit          3D

 33 35  0  0  1  0  0  0  0  0999 V2000
   12.3141  -14.8498   17.7999 N   0  0  0  0  0  0  0  0  0  0  0  0
   12.5341  -15.2403   19.1702 C   0  0  1  0  0  0  0  0  0  0  0  0
   13.9288  -14.7391   19.5681 C   0  0  0  0  0  0  0  0  0  0  0  0
   14.9904  -15.4310   18.8206 C   0  0  0  0  0  0  0  0  0  0  0  0
   15.2539  -16.7729   18.8062 C   0  0  0  0  0  0  0  0  0  0  0  0
   16.3143  -17.0028   17.9920 N   0  0  0  0  0  0  0  0  0  0  0  0
   16.7028  -15.8146   17.5076 C   0  0  0  0  0  0  0  0  0  0  0  0
   15.8887  -14.8480   18.0171 N   0  0  0  0  0  0  0  0  0  0  0  0
   11.5608  -14.5995   20.0626 C   0  0  0  0  0  0  0  0  0  0  0  0
   11.4520  -13.3313   20.1071 O   0  0  0  0  0  0  0  0  0  0  0  0
   10.7364  -15.4064   20.8806 N   0  0  0  0  0  0  0  0  0  0  0  0
    9.6574  -14.8013   21.6156 C   0  0  1  0  0  0  0  0  0  0  0  0
    8.3288  -15.0795   20.9176 C   0  0  0  0  0  0  0  0  0  0  0  0
    8.2361  -14.3554   19.6348 C   0  0  0  0  0  0  0  0  0  0  0  0
    8.1779  -12.9703   19.4325 C   0  0  0  0  0  0  0  0  0  0  0  0
    8.1001  -12.7300   18.1151 N   0  0  0  0  0  0  0  0  0  0  0  0
    8.1065  -13.9049   17.4715 C   0  0  0  0  0  0  0  0  0  0  0  0
    8.1886  -14.8781   18.3952 N   0  0  0  0  0  0  0  0  0  0  0  0
    9.6100  -15.4747   22.9620 C   0  0  0  0  0  0  0  0  0  0  0  0
    9.4661  -16.7164   23.0740 O   0  0  0  0  0  0  0  0  0  0  0  0
    5.2340  -10.8005   26.5037 O   0  0  0  0  0  0  0  0  0  0  0  0
    5.9199  -11.9723   26.2614 C   0  0  0  0  0  0  0  0  0  0  0  0
    7.2981  -11.9821   26.1253 C   0  0  0  0  0  0  0  0  0  0  0  0
    7.9847  -13.1558   25.8826 C   0  0  0  0  0  0  0  0  0  0  0  0
    7.2585  -14.3233   25.7789 C   0  0  0  0  0  0  0  0  0  0  0  0
    7.9846  -15.5812   25.5123 C   0  0  0  0  0  0  0  0  0  0  0  0
    9.4974  -15.3935   25.4405 C   0  0  2  0  0  0  0  0  0  0  0  0
    9.7263  -14.7319   24.1641 N   0  0  0  0  0  0  0  0  0  0  0  0
   10.2255  -16.6585   25.5519 C   0  0  0  0  0  0  0  0  0  0  0  0
   10.8350  -17.2208   24.5888 O   0  0  0  0  0  0  0  0  0  0  0  0
    5.8902  -14.3023   25.9157 C   0  0  0  0  0  0  0  0  0  0  0  0
    5.1913  -13.1359   26.1585 C   0  0  0  0  0  0  0  0  0  0  0  0
   10.2762  -17.3139   26.7704 O   0  0  0  0  0  0  0  0  0  0  0  0
  2  1  1  6
  2  3  1  0
  3  4  1  0
  4  8  1  0
  5  6  1  0
  5  4  2  0
  6  7  1  0
  7  8  2  0
  9  2  1  0
  9 10  2  0
 11  9  1  0
 12 11  1  0
 12 13  1  6
 13 14  1  0
 14 15  2  0
 14 18  1  0
 15 16  1  0
 16 17  1  0
 18 17  2  0
 19 12  1  0
 20 19  2  0
 22 23  2  0
 22 21  1  0
 24 23  1  0
 25 24  2  0
 27 26  1  6
 26 25  1  0
 27 28  1  0
 28 19  1  0
 29 27  1  0
 29 33  1  0
 30 29  2  0
 31 25  1  0
 31 32  2  0
 32 22  1  0
M  END
$$$$
