HHY.pdb
     RDKit          3D

 33 35  0  0  1  0  0  0  0  0999 V2000
    8.6451  -17.5010   17.0725 N   0  0  0  0  0  0  0  0  0  0  0  0
    9.0276  -16.5368   18.0737 C   0  0  1  0  0  0  0  0  0  0  0  0
    7.9660  -15.4288   18.0679 C   0  0  0  0  0  0  0  0  0  0  0  0
    7.9996  -14.6483   16.8212 C   0  0  0  0  0  0  0  0  0  0  0  0
    8.6547  -13.4685   16.5997 C   0  0  0  0  0  0  0  0  0  0  0  0
    8.4334  -13.0778   15.3196 N   0  0  0  0  0  0  0  0  0  0  0  0
    7.6489  -14.0069   14.7551 C   0  0  0  0  0  0  0  0  0  0  0  0
    7.3821  -14.9728   15.6784 N   0  0  0  0  0  0  0  0  0  0  0  0
    9.0315  -17.1409   19.4114 C   0  0  0  0  0  0  0  0  0  0  0  0
    7.9860  -17.6976   19.8794 O   0  0  0  0  0  0  0  0  0  0  0  0
   10.2147  -17.1007   20.1851 N   0  0  0  0  0  0  0  0  0  0  0  0
   10.2198  -17.6784   21.5030 C   0  0  1  0  0  0  0  0  0  0  0  0
   11.5689  -18.3363   21.7802 C   0  0  0  0  0  0  0  0  0  0  0  0
   11.6011  -18.9463   23.1239 C   0  0  0  0  0  0  0  0  0  0  0  0
   10.5575  -19.0290   24.0549 C   0  0  0  0  0  0  0  0  0  0  0  0
   11.0058  -19.6610   25.1499 N   0  0  0  0  0  0  0  0  0  0  0  0
   12.2911  -19.9835   24.9535 C   0  0  0  0  0  0  0  0  0  0  0  0
   12.6408  -19.5490   23.7305 N   0  0  0  0  0  0  0  0  0  0  0  0
   10.0607  -16.5444   22.4813 C   0  0  0  0  0  0  0  0  0  0  0  0
   10.8726  -15.5883   22.5208 O   0  0  0  0  0  0  0  0  0  0  0  0
    6.3723  -10.7175   27.8154 O   0  0  0  0  0  0  0  0  0  0  0  0
    6.6588  -11.7333   26.9274 C   0  0  0  0  0  0  0  0  0  0  0  0
    7.7201  -11.6353   26.0432 C   0  0  0  0  0  0  0  0  0  0  0  0
    8.0068  -12.6528   25.1540 C   0  0  0  0  0  0  0  0  0  0  0  0
    7.2046  -13.7740   25.1698 C   0  0  0  0  0  0  0  0  0  0  0  0
    7.5001  -14.8630   24.2173 C   0  0  0  0  0  0  0  0  0  0  0  0
    8.9082  -15.4294   24.3763 C   0  0  2  0  0  0  0  0  0  0  0  0
    8.9832  -16.5088   23.4022 N   0  0  0  0  0  0  0  0  0  0  0  0
    9.1774  -15.8886   25.7399 C   0  0  0  0  0  0  0  0  0  0  0  0
    9.8784  -15.2491   26.5853 O   0  0  0  0  0  0  0  0  0  0  0  0
    6.1531  -13.8609   26.0520 C   0  0  0  0  0  0  0  0  0  0  0  0
    5.8554  -12.8511   26.9463 C   0  0  0  0  0  0  0  0  0  0  0  0
    8.6499  -17.0933   26.1728 O   0  0  0  0  0  0  0  0  0  0  0  0
  2  1  1  6
  2  3  1  0
  3  4  1  0
  4  8  1  0
  5  6  1  0
  5  4  2  0
  6  7  1  0
  7  8  2  0
  9  2  1  0
  9 10  2  0
 11  9  1  0
 12 11  1  0
 12 13  1  1
 13 14  1  0
 14 15  2  0
 14 18  1  0
 15 16  1  0
 16 17  1  0
 18 17  2  0
 19 12  1  0
 20 19  2  0
 22 23  2  0
 22 21  1  0
 24 23  1  0
 25 24  2  0
 27 26  1  1
 26 25  1  0
 27 28  1  0
 28 19  1  0
 29 27  1  0
 29 33  1  0
 30 29  2  0
 31 25  1  0
 31 32  2  0
 32 22  1  0
M  END
$$$$
