HHY.pdb
     RDKit          3D

 33 35  0  0  1  0  0  0  0  0999 V2000
    7.0975  -19.3236   17.7679 N   0  0  0  0  0  0  0  0  0  0  0  0
    7.8797  -18.2969   18.4103 C   0  0  1  0  0  0  0  0  0  0  0  0
    7.6935  -17.0080   17.5987 C   0  0  0  0  0  0  0  0  0  0  0  0
    8.5059  -17.0141   16.3721 C   0  0  0  0  0  0  0  0  0  0  0  0
    9.3144  -18.0196   15.9189 C   0  0  0  0  0  0  0  0  0  0  0  0
    9.8866  -17.6300   14.7522 N   0  0  0  0  0  0  0  0  0  0  0  0
    9.4363  -16.3954   14.4867 C   0  0  0  0  0  0  0  0  0  0  0  0
    8.5873  -16.0166   15.4828 N   0  0  0  0  0  0  0  0  0  0  0  0
    7.3933  -18.0390   19.7709 C   0  0  0  0  0  0  0  0  0  0  0  0
    6.1486  -17.9041   20.0047 O   0  0  0  0  0  0  0  0  0  0  0  0
    8.3240  -17.9401   20.8311 N   0  0  0  0  0  0  0  0  0  0  0  0
    7.8477  -17.8149   22.1832 C   0  0  1  0  0  0  0  0  0  0  0  0
    7.6598  -19.1977   22.8015 C   0  0  0  0  0  0  0  0  0  0  0  0
    7.2098  -19.1005   24.2039 C   0  0  0  0  0  0  0  0  0  0  0  0
    6.9388  -17.9400   24.9405 C   0  0  0  0  0  0  0  0  0  0  0  0
    6.5558  -18.2937   26.1764 N   0  0  0  0  0  0  0  0  0  0  0  0
    6.5721  -19.6309   26.2560 C   0  0  0  0  0  0  0  0  0  0  0  0
    6.9673  -20.1080   25.0631 N   0  0  0  0  0  0  0  0  0  0  0  0
    8.9256  -17.1126   22.9663 C   0  0  0  0  0  0  0  0  0  0  0  0
   10.1327  -17.4418   22.8689 O   0  0  0  0  0  0  0  0  0  0  0  0
    5.0900  -12.4416   27.8031 O   0  0  0  0  0  0  0  0  0  0  0  0
    6.1367  -12.7896   26.9750 C   0  0  0  0  0  0  0  0  0  0  0  0
    7.4524  -12.6449   27.3821 C   0  0  0  0  0  0  0  0  0  0  0  0
    8.5005  -12.9935   26.5526 C   0  0  0  0  0  0  0  0  0  0  0  0
    8.2009  -13.4918   25.3024 C   0  0  0  0  0  0  0  0  0  0  0  0
    9.3158  -13.8600   24.4069 C   0  0  0  0  0  0  0  0  0  0  0  0
    9.7040  -15.3322   24.5111 C   0  0  2  0  0  0  0  0  0  0  0  0
    8.6213  -16.0462   23.8497 N   0  0  0  0  0  0  0  0  0  0  0  0
    9.8939  -15.7655   25.8964 C   0  0  0  0  0  0  0  0  0  0  0  0
    9.0681  -16.4850   26.5409 O   0  0  0  0  0  0  0  0  0  0  0  0
    6.8907  -13.6314   24.9082 C   0  0  0  0  0  0  0  0  0  0  0  0
    5.8334  -13.2867   25.7275 C   0  0  0  0  0  0  0  0  0  0  0  0
   11.0360  -15.3869   26.5812 O   0  0  0  0  0  0  0  0  0  0  0  0
  2  1  1  6
  2  3  1  0
  3  4  1  0
  4  8  1  0
  5  6  1  0
  5  4  2  0
  6  7  1  0
  7  8  2  0
  9  2  1  0
  9 10  2  0
 11  9  1  0
 12 11  1  0
 12 13  1  1
 13 14  1  0
 14 15  2  0
 14 18  1  0
 15 16  1  0
 16 17  1  0
 18 17  2  0
 19 12  1  0
 20 19  2  0
 22 23  2  0
 22 21  1  0
 24 23  1  0
 25 24  2  0
 27 26  1  1
 26 25  1  0
 27 28  1  0
 28 19  1  0
 29 27  1  0
 29 33  1  0
 30 29  2  0
 31 25  1  0
 31 32  2  0
 32 22  1  0
M  END
$$$$
