QWR.pdb
     RDKit          3D

 35 36  0  0  1  0  0  0  0  0999 V2000
    9.0021  -14.1495   17.6720 N   0  0  0  0  0  0  0  0  0  0  0  0
    7.5926  -14.0755   17.6593 C   0  0  0  0  0  0  0  0  0  0  0  0
    6.9099  -14.2122   16.6295 O   0  0  0  0  0  0  0  0  0  0  0  0
    6.8915  -13.8208   18.9482 C   0  0  0  0  0  0  0  0  0  0  0  0
    7.8986  -13.7574   20.0726 C   0  0  0  0  0  0  0  0  0  0  0  0
    8.1989  -15.1779   20.5136 C   0  0  2  0  0  0  0  0  0  0  0  0
    6.9454  -15.8111   20.8540 N   0  0  0  0  0  0  0  0  0  0  0  0
    9.1281  -15.1605   21.6947 C   0  0  0  0  0  0  0  0  0  0  0  0
   10.2015  -14.4886   21.6491 O   0  0  0  0  0  0  0  0  0  0  0  0
    8.8273  -15.8888   22.8741 N   0  0  0  0  0  0  0  0  0  0  0  0
    9.7416  -15.8247   24.0448 C   0  0  1  0  0  0  0  0  0  0  0  0
    8.9725  -15.9352   25.2825 C   0  0  0  0  0  0  0  0  0  0  0  0
    7.7786  -15.1550   25.4952 C   0  0  0  0  0  0  0  0  0  0  0  0
    6.4688  -15.5536   25.3909 C   0  0  0  0  0  0  0  0  0  0  0  0
    5.6629  -14.5180   25.6458 N   0  0  0  0  0  0  0  0  0  0  0  0
    6.4075  -13.4339   25.9194 C   0  0  0  0  0  0  0  0  0  0  0  0
    6.0223  -12.1373   26.2651 C   0  0  0  0  0  0  0  0  0  0  0  0
    6.9753  -11.1791   26.5332 C   0  0  0  0  0  0  0  0  0  0  0  0
    8.2992  -11.5423   26.4484 C   0  0  0  0  0  0  0  0  0  0  0  0
    8.6751  -12.8349   26.1025 C   0  0  0  0  0  0  0  0  0  0  0  0
    7.7205  -13.7970   25.8337 C   0  0  0  0  0  0  0  0  0  0  0  0
   10.9144  -16.5953   23.7732 C   0  0  0  0  0  0  0  0  0  0  0  0
   10.8923  -17.8529   23.6437 O   0  0  0  0  0  0  0  0  0  0  0  0
   15.3427  -13.8112   18.0983 N   0  0  0  0  0  0  0  0  0  0  0  0
   16.2796  -13.9630   19.1505 C   0  0  0  0  0  0  0  0  0  0  0  0
   17.4580  -13.4053   19.0257 N   0  0  0  0  0  0  0  0  0  0  0  0
   15.9311  -14.7079   20.3064 N   0  0  0  0  0  0  0  0  0  0  0  0
   15.6062  -16.0985   20.2195 C   0  0  0  0  0  0  0  0  0  0  0  0
   15.1971  -16.7088   21.5348 C   0  0  0  0  0  0  0  0  0  0  0  0
   13.9627  -16.0335   22.0338 C   0  0  0  0  0  0  0  0  0  0  0  0
   13.3443  -16.7818   23.2173 C   0  0  2  0  0  0  0  0  0  0  0  0
   12.1931  -15.9848   23.6184 N   0  0  0  0  0  0  0  0  0  0  0  0
   14.3152  -17.0588   24.2582 C   0  0  0  0  0  0  0  0  0  0  0  0
   15.2842  -18.0445   24.2451 O   0  0  0  0  0  0  0  0  0  0  0  0
   14.3276  -16.3532   25.3279 O   0  0  0  0  0  0  0  0  0  0  0  0
  2  1  1  0
  2  3  2  0
  4  5  1  0
  4  2  1  0
  5  6  1  0
  6  8  1  0
  6  7  1  1
  8 10  1  0
  8  9  2  0
 10 11  1  0
 11 22  1  0
 11 12  1  1
 13 14  2  0
 13 12  1  0
 15 14  1  0
 16 21  2  0
 16 15  1  0
 17 16  1  0
 18 19  1  0
 18 17  2  0
 19 20  2  0
 20 21  1  0
 21 13  1  0
 22 23  2  0
 22 32  1  0
 24 25  1  0
 25 27  1  0
 26 25  2  0
 27 28  1  0
 28 29  1  0
 31 30  1  6
 30 29  1  0
 31 33  1  0
 32 31  1  0
 33 34  1  0
 35 33  2  0
M  END
$$$$
