QWR.pdb
     RDKit          3D

 35 36  0  0  1  0  0  0  0  0999 V2000
    8.7066  -12.0148   18.0755 N   0  0  0  0  0  0  0  0  0  0  0  0
    8.1836  -13.1219   17.3736 C   0  0  0  0  0  0  0  0  0  0  0  0
    7.7904  -13.0613   16.1958 O   0  0  0  0  0  0  0  0  0  0  0  0
    8.1006  -14.4280   18.0842 C   0  0  0  0  0  0  0  0  0  0  0  0
    8.6054  -14.2714   19.4995 C   0  0  0  0  0  0  0  0  0  0  0  0
    9.0594  -15.6341   19.9887 C   0  0  2  0  0  0  0  0  0  0  0  0
    7.9470  -16.5467   19.8551 N   0  0  0  0  0  0  0  0  0  0  0  0
    9.5059  -15.5401   21.4206 C   0  0  0  0  0  0  0  0  0  0  0  0
   10.4272  -14.7338   21.7476 O   0  0  0  0  0  0  0  0  0  0  0  0
    8.9122  -16.3440   22.4273 N   0  0  0  0  0  0  0  0  0  0  0  0
    9.3416  -16.2046   23.8439 C   0  0  1  0  0  0  0  0  0  0  0  0
    8.1759  -15.9840   24.6970 C   0  0  0  0  0  0  0  0  0  0  0  0
    7.3273  -14.8311   24.5233 C   0  0  0  0  0  0  0  0  0  0  0  0
    6.5881  -14.4736   23.4228 C   0  0  0  0  0  0  0  0  0  0  0  0
    5.9580  -13.3190   23.6612 N   0  0  0  0  0  0  0  0  0  0  0  0
    6.2602  -12.8968   24.9002 C   0  0  0  0  0  0  0  0  0  0  0  0
    5.8302  -11.7678   25.5997 C   0  0  0  0  0  0  0  0  0  0  0  0
    6.2562  -11.5485   26.8914 C   0  0  0  0  0  0  0  0  0  0  0  0
    7.1078  -12.4691   27.4565 C   0  0  0  0  0  0  0  0  0  0  0  0
    7.5326  -13.5902   26.7534 C   0  0  0  0  0  0  0  0  0  0  0  0
    7.1059  -13.8116   25.4580 C   0  0  0  0  0  0  0  0  0  0  0  0
   10.3566  -17.1699   24.1289 C   0  0  0  0  0  0  0  0  0  0  0  0
   10.1771  -18.4136   23.9885 O   0  0  0  0  0  0  0  0  0  0  0  0
   16.1897  -14.9798   21.0682 N   0  0  0  0  0  0  0  0  0  0  0  0
   14.9966  -15.2526   20.3539 C   0  0  0  0  0  0  0  0  0  0  0  0
   14.9239  -14.8959   19.0958 N   0  0  0  0  0  0  0  0  0  0  0  0
   13.9140  -15.8982   21.0048 N   0  0  0  0  0  0  0  0  0  0  0  0
   13.8487  -15.9739   22.4319 C   0  0  0  0  0  0  0  0  0  0  0  0
   13.9864  -17.3738   22.9717 C   0  0  0  0  0  0  0  0  0  0  0  0
   13.9593  -17.3363   24.4639 C   0  0  0  0  0  0  0  0  0  0  0  0
   12.6078  -17.7922   25.0194 C   0  0  2  0  0  0  0  0  0  0  0  0
   11.6515  -16.7841   24.5827 N   0  0  0  0  0  0  0  0  0  0  0  0
   12.6576  -18.0399   26.4473 C   0  0  0  0  0  0  0  0  0  0  0  0
   13.3088  -19.0793   27.0848 O   0  0  0  0  0  0  0  0  0  0  0  0
   12.0539  -17.2507   27.2566 O   0  0  0  0  0  0  0  0  0  0  0  0
  2  1  1  0
  2  3  2  0
  4  5  1  0
  4  2  1  0
  5  6  1  0
  6  8  1  0
  6  7  1  1
  8 10  1  0
  8  9  2  0
 10 11  1  0
 11 22  1  0
 11 12  1  1
 13 14  2  0
 13 12  1  0
 15 14  1  0
 16 21  2  0
 16 15  1  0
 17 16  1  0
 18 19  1  0
 18 17  2  0
 19 20  2  0
 20 21  1  0
 21 13  1  0
 22 23  2  0
 22 32  1  0
 24 25  1  0
 25 27  1  0
 26 25  2  0
 27 28  1  0
 28 29  1  0
 31 30  1  1
 30 29  1  0
 31 33  1  0
 32 31  1  0
 33 34  1  0
 35 33  2  0
M  END
$$$$
