QWR.pdb
     RDKit          3D

 35 36  0  0  1  0  0  0  0  0999 V2000
    8.5493  -12.2482   18.2983 N   0  0  0  0  0  0  0  0  0  0  0  0
    7.5504  -13.2182   18.0672 C   0  0  0  0  0  0  0  0  0  0  0  0
    6.5075  -12.9878   17.4310 O   0  0  0  0  0  0  0  0  0  0  0  0
    7.7609  -14.5868   18.6152 C   0  0  0  0  0  0  0  0  0  0  0  0
    8.1032  -14.5008   20.0841 C   0  0  0  0  0  0  0  0  0  0  0  0
    8.4119  -15.9025   20.5763 C   0  0  2  0  0  0  0  0  0  0  0  0
    7.1643  -16.6259   20.6665 N   0  0  0  0  0  0  0  0  0  0  0  0
    9.0902  -15.8358   21.9158 C   0  0  0  0  0  0  0  0  0  0  0  0
   10.1851  -15.2106   22.0434 O   0  0  0  0  0  0  0  0  0  0  0  0
    8.5259  -16.4652   23.0548 N   0  0  0  0  0  0  0  0  0  0  0  0
    9.2705  -16.4870   24.3415 C   0  0  1  0  0  0  0  0  0  0  0  0
    8.3476  -16.2690   25.4534 C   0  0  0  0  0  0  0  0  0  0  0  0
    7.3996  -15.1825   25.4386 C   0  0  0  0  0  0  0  0  0  0  0  0
    6.0562  -15.2259   25.1582 C   0  0  0  0  0  0  0  0  0  0  0  0
    5.5428  -13.9936   25.2299 N   0  0  0  0  0  0  0  0  0  0  0  0
    6.5161  -13.1262   25.5536 C   0  0  0  0  0  0  0  0  0  0  0  0
    6.4635  -11.7472   25.7645 C   0  0  0  0  0  0  0  0  0  0  0  0
    7.6009  -11.0564   26.1213 C   0  0  0  0  0  0  0  0  0  0  0  0
    8.7715  -11.7655   26.2592 C   0  0  0  0  0  0  0  0  0  0  0  0
    8.8164  -13.1383   26.0464 C   0  0  0  0  0  0  0  0  0  0  0  0
    7.6763  -13.8323   25.6888 C   0  0  0  0  0  0  0  0  0  0  0  0
   10.2363  -17.5404   24.3126 C   0  0  0  0  0  0  0  0  0  0  0  0
    9.9190  -18.7560   24.1698 O   0  0  0  0  0  0  0  0  0  0  0  0
   17.7096  -18.2153   20.2318 N   0  0  0  0  0  0  0  0  0  0  0  0
   17.6311  -19.4635   20.8982 C   0  0  0  0  0  0  0  0  0  0  0  0
   18.4825  -20.4032   20.5710 N   0  0  0  0  0  0  0  0  0  0  0  0
   16.6435  -19.6726   21.8950 N   0  0  0  0  0  0  0  0  0  0  0  0
   15.6822  -18.6600   22.2070 C   0  0  0  0  0  0  0  0  0  0  0  0
   14.6636  -19.0864   23.2320 C   0  0  0  0  0  0  0  0  0  0  0  0
   13.6253  -18.0230   23.3734 C   0  0  0  0  0  0  0  0  0  0  0  0
   12.5870  -18.3807   24.4396 C   0  0  2  0  0  0  0  0  0  0  0  0
   11.6325  -17.2805   24.4328 N   0  0  0  0  0  0  0  0  0  0  0  0
   13.1974  -18.6802   25.7204 C   0  0  0  0  0  0  0  0  0  0  0  0
   13.8747  -19.8350   26.0646 O   0  0  0  0  0  0  0  0  0  0  0  0
   13.1362  -17.8275   26.6751 O   0  0  0  0  0  0  0  0  0  0  0  0
  2  1  1  0
  2  3  2  0
  4  5  1  0
  4  2  1  0
  5  6  1  0
  6  8  1  0
  6  7  1  1
  8 10  1  0
  8  9  2  0
 10 11  1  0
 11 22  1  0
 11 12  1  1
 13 14  2  0
 13 12  1  0
 15 14  1  0
 16 21  2  0
 16 15  1  0
 17 16  1  0
 18 19  1  0
 18 17  2  0
 19 20  2  0
 20 21  1  0
 21 13  1  0
 22 23  2  0
 22 32  1  0
 24 25  1  0
 25 27  1  0
 26 25  2  0
 27 28  1  0
 28 29  1  0
 31 30  1  6
 30 29  1  0
 31 33  1  0
 32 31  1  0
 33 34  1  0
 35 33  2  0
M  END
$$$$
