QWR.pdb
     RDKit          3D

 35 36  0  0  1  0  0  0  0  0999 V2000
   12.3446  -14.9954   18.5349 N   0  0  0  0  0  0  0  0  0  0  0  0
   11.2995  -15.7794   18.0008 C   0  0  0  0  0  0  0  0  0  0  0  0
   11.1410  -15.9692   16.7824 O   0  0  0  0  0  0  0  0  0  0  0  0
   10.3401  -16.4102   18.9491 C   0  0  0  0  0  0  0  0  0  0  0  0
   10.7940  -16.1684   20.3697 C   0  0  0  0  0  0  0  0  0  0  0  0
   10.4592  -17.4034   21.1853 C   0  0  2  0  0  0  0  0  0  0  0  0
    9.2326  -17.9609   20.6630 N   0  0  0  0  0  0  0  0  0  0  0  0
   10.3048  -17.0327   22.6335 C   0  0  0  0  0  0  0  0  0  0  0  0
   11.2110  -16.3686   23.2197 O   0  0  0  0  0  0  0  0  0  0  0  0
    9.1534  -17.4146   23.3688 N   0  0  0  0  0  0  0  0  0  0  0  0
    8.9937  -16.9840   24.7827 C   0  0  1  0  0  0  0  0  0  0  0  0
    7.6502  -16.4477   24.9900 C   0  0  0  0  0  0  0  0  0  0  0  0
    7.2455  -15.1932   24.4054 C   0  0  0  0  0  0  0  0  0  0  0  0
    6.9355  -14.9227   23.0953 C   0  0  0  0  0  0  0  0  0  0  0  0
    6.6326  -13.6273   22.9641 N   0  0  0  0  0  0  0  0  0  0  0  0
    6.7329  -13.0253   24.1608 C   0  0  0  0  0  0  0  0  0  0  0  0
    6.4948  -11.6995   24.5277 C   0  0  0  0  0  0  0  0  0  0  0  0
    6.6372  -11.3072   25.8407 C   0  0  0  0  0  0  0  0  0  0  0  0
    7.0171  -12.2558   26.7614 C   0  0  0  0  0  0  0  0  0  0  0  0
    7.2536  -13.5737   26.3885 C   0  0  0  0  0  0  0  0  0  0  0  0
    7.1108  -13.9687   25.0721 C   0  0  0  0  0  0  0  0  0  0  0  0
    9.5989  -17.9509   25.6442 C   0  0  0  0  0  0  0  0  0  0  0  0
    8.9626  -18.9316   26.1260 O   0  0  0  0  0  0  0  0  0  0  0  0
   18.1280  -19.7461   27.0203 N   0  0  0  0  0  0  0  0  0  0  0  0
   17.4434  -20.8441   27.5981 C   0  0  0  0  0  0  0  0  0  0  0  0
   18.1395  -21.8853   27.9811 N   0  0  0  0  0  0  0  0  0  0  0  0
   16.0336  -20.7991   27.7490 N   0  0  0  0  0  0  0  0  0  0  0  0
   15.2627  -19.7376   27.1782 C   0  0  0  0  0  0  0  0  0  0  0  0
   13.7836  -19.8540   27.4400 C   0  0  0  0  0  0  0  0  0  0  0  0
   13.0605  -18.7828   26.6927 C   0  0  0  0  0  0  0  0  0  0  0  0
   11.5489  -18.8497   26.9239 C   0  0  2  0  0  0  0  0  0  0  0  0
   10.9750  -17.8740   26.0073 N   0  0  0  0  0  0  0  0  0  0  0  0
   11.2004  -18.6852   28.3219 C   0  0  0  0  0  0  0  0  0  0  0  0
   11.0173  -17.4913   28.9942 O   0  0  0  0  0  0  0  0  0  0  0  0
   11.0324  -19.7145   29.0665 O   0  0  0  0  0  0  0  0  0  0  0  0
  2  1  1  0
  2  3  2  0
  4  5  1  0
  4  2  1  0
  5  6  1  0
  6  8  1  0
  6  7  1  6
  8 10  1  0
  8  9  2  0
 10 11  1  0
 11 22  1  0
 11 12  1  1
 13 14  2  0
 13 12  1  0
 15 14  1  0
 16 21  2  0
 16 15  1  0
 17 16  1  0
 18 19  1  0
 18 17  2  0
 19 20  2  0
 20 21  1  0
 21 13  1  0
 22 23  2  0
 22 32  1  0
 24 25  1  0
 25 27  1  0
 26 25  2  0
 27 28  1  0
 28 29  1  0
 31 30  1  1
 30 29  1  0
 31 33  1  0
 32 31  1  0
 33 34  1  0
 35 33  2  0
M  END
$$$$
