QWR.pdb
     RDKit          3D

 35 36  0  0  1  0  0  0  0  0999 V2000
    8.1379  -13.3024   16.1190 N   0  0  0  0  0  0  0  0  0  0  0  0
    8.1404  -14.5938   15.5492 C   0  0  0  0  0  0  0  0  0  0  0  0
    7.8594  -14.8166   14.3589 O   0  0  0  0  0  0  0  0  0  0  0  0
    8.4993  -15.7455   16.4224 C   0  0  0  0  0  0  0  0  0  0  0  0
    8.7656  -15.2568   17.8269 C   0  0  0  0  0  0  0  0  0  0  0  0
    9.0916  -16.4624   18.6887 C   0  0  2  0  0  0  0  0  0  0  0  0
    8.0320  -17.4299   18.5174 N   0  0  0  0  0  0  0  0  0  0  0  0
    9.2081  -16.0452   20.1278 C   0  0  0  0  0  0  0  0  0  0  0  0
   10.2714  -15.4977   20.5468 O   0  0  0  0  0  0  0  0  0  0  0  0
    8.1415  -16.2534   21.0396 N   0  0  0  0  0  0  0  0  0  0  0  0
    8.2491  -15.7630   22.4389 C   0  0  1  0  0  0  0  0  0  0  0  0
    7.0309  -15.0456   22.8090 C   0  0  0  0  0  0  0  0  0  0  0  0
    7.0856  -13.7979   23.5299 C   0  0  0  0  0  0  0  0  0  0  0  0
    7.3258  -12.5383   23.0387 C   0  0  0  0  0  0  0  0  0  0  0  0
    7.3149  -11.6556   24.0426 N   0  0  0  0  0  0  0  0  0  0  0  0
    7.0712  -12.2994   25.1962 C   0  0  0  0  0  0  0  0  0  0  0  0
    6.9429  -11.8065   26.4960 C   0  0  0  0  0  0  0  0  0  0  0  0
    6.6599  -12.6628   27.5375 C   0  0  0  0  0  0  0  0  0  0  0  0
    6.5114  -14.0003   27.2528 C   0  0  0  0  0  0  0  0  0  0  0  0
    6.6418  -14.4839   25.9563 C   0  0  0  0  0  0  0  0  0  0  0  0
    6.9253  -13.6262   24.9108 C   0  0  0  0  0  0  0  0  0  0  0  0
    8.8460  -16.7760   23.2519 C   0  0  0  0  0  0  0  0  0  0  0  0
    8.5433  -17.9996   23.1527 O   0  0  0  0  0  0  0  0  0  0  0  0
   16.4005  -19.1959   21.9416 N   0  0  0  0  0  0  0  0  0  0  0  0
   15.8790  -20.2491   22.7333 C   0  0  0  0  0  0  0  0  0  0  0  0
   16.5240  -21.3885   22.7642 N   0  0  0  0  0  0  0  0  0  0  0  0
   14.6815  -20.0553   23.4688 N   0  0  0  0  0  0  0  0  0  0  0  0
   13.9510  -18.8283   23.3818 C   0  0  0  0  0  0  0  0  0  0  0  0
   12.7742  -18.7556   24.3199 C   0  0  0  0  0  0  0  0  0  0  0  0
   11.9037  -17.6047   23.9373 C   0  0  0  0  0  0  0  0  0  0  0  0
   10.6498  -17.5251   24.8117 C   0  0  2  0  0  0  0  0  0  0  0  0
    9.8385  -16.4663   24.2268 N   0  0  0  0  0  0  0  0  0  0  0  0
   10.9709  -17.3723   26.2175 C   0  0  0  0  0  0  0  0  0  0  0  0
   10.6227  -16.3139   27.0357 O   0  0  0  0  0  0  0  0  0  0  0  0
   11.6470  -18.2770   26.8230 O   0  0  0  0  0  0  0  0  0  0  0  0
  2  1  1  0
  2  3  2  0
  4  5  1  0
  4  2  1  0
  5  6  1  0
  6  8  1  0
  6  7  1  1
  8 10  1  0
  8  9  2  0
 10 11  1  0
 11 22  1  0
 11 12  1  1
 13 14  2  0
 13 12  1  0
 15 14  1  0
 16 21  2  0
 16 15  1  0
 17 16  1  0
 18 19  1  0
 18 17  2  0
 19 20  2  0
 20 21  1  0
 21 13  1  0
 22 23  2  0
 22 32  1  0
 24 25  1  0
 25 27  1  0
 26 25  2  0
 27 28  1  0
 28 29  1  0
 31 30  1  6
 30 29  1  0
 31 33  1  0
 32 31  1  0
 33 34  1  0
 35 33  2  0
M  END
$$$$
