DGC.pdb
     RDKit          3D

 19 18  0  0  1  0  0  0  0  0999 V2000
    8.3545  -16.0598   18.6541 N   0  0  0  0  0  0  0  0  0  0  0  0
    8.8135  -16.5333   19.9733 C   0  0  1  0  0  0  0  0  0  0  0  0
   10.3204  -16.4430   19.8930 C   0  0  0  0  0  0  0  0  0  0  0  0
   11.0291  -17.7006   20.1476 C   0  0  0  0  0  0  0  0  0  0  0  0
   11.5877  -17.9256   21.2506 O   0  0  0  0  0  0  0  0  0  0  0  0
    8.2400  -15.6024   20.9766 C   0  0  0  0  0  0  0  0  0  0  0  0
    8.2771  -14.3395   20.8118 O   0  0  0  0  0  0  0  0  0  0  0  0
   11.1109  -18.6915   19.1809 O   0  0  0  0  0  0  0  0  0  0  0  0
    7.6106  -16.0424   22.1845 N   0  0  0  0  0  0  0  0  0  0  0  0
    6.9406  -15.1190   23.0692 C   0  0  0  0  0  0  0  0  0  0  0  0
    7.7345  -14.6084   24.1731 C   0  0  0  0  0  0  0  0  0  0  0  0
    8.9436  -14.9282   24.2303 O   0  0  0  0  0  0  0  0  0  0  0  0
    7.2024  -13.7859   25.1629 N   0  0  0  0  0  0  0  0  0  0  0  0
    7.9749  -13.2859   26.2919 C   0  0  1  0  0  0  0  0  0  0  0  0
    7.1007  -12.3866   27.1712 C   0  0  0  0  0  0  0  0  0  0  0  0
    6.3448  -11.0920   26.1287 S   0  0  0  0  0  0  0  0  0  0  0  0
    8.4342  -14.4309   27.1030 C   0  0  0  0  0  0  0  0  0  0  0  0
    7.9929  -15.5870   26.9034 O   0  0  0  0  0  0  0  0  0  0  0  0
    9.3695  -14.2230   28.1022 O   0  0  0  0  0  0  0  0  0  0  0  0
  2  3  1  0
  2  1  1  6
  3  4  1  0
  4  8  1  0
  4  5  2  0
  6  2  1  0
  7  6  2  0
  9  6  1  0
 10 11  1  0
 10  9  1  0
 11 12  2  0
 13 14  1  0
 13 11  1  0
 14 15  1  1
 16 15  1  0
 17 19  1  0
 17 14  1  0
 18 17  2  0
M  END
$$$$
