DGC.pdb
     RDKit          3D

 19 18  0  0  1  0  0  0  0  0999 V2000
   10.9168  -17.1183   20.8031 N   0  0  0  0  0  0  0  0  0  0  0  0
    9.7129  -17.2975   19.9703 C   0  0  1  0  0  0  0  0  0  0  0  0
    9.4814  -18.7914   19.9745 C   0  0  0  0  0  0  0  0  0  0  0  0
   10.2939  -19.5453   19.0153 C   0  0  0  0  0  0  0  0  0  0  0  0
   11.5448  -19.6043   19.1209 O   0  0  0  0  0  0  0  0  0  0  0  0
    8.6216  -16.5502   20.6431 C   0  0  0  0  0  0  0  0  0  0  0  0
    7.4439  -16.5104   20.1584 O   0  0  0  0  0  0  0  0  0  0  0  0
    9.7137  -20.2230   17.9536 O   0  0  0  0  0  0  0  0  0  0  0  0
    8.8029  -15.8308   21.8671 N   0  0  0  0  0  0  0  0  0  0  0  0
    7.7317  -15.0679   22.4629 C   0  0  0  0  0  0  0  0  0  0  0  0
    8.0338  -14.4372   23.7359 C   0  0  0  0  0  0  0  0  0  0  0  0
    9.1135  -14.7276   24.2990 O   0  0  0  0  0  0  0  0  0  0  0  0
    7.1710  -13.5315   24.3482 N   0  0  0  0  0  0  0  0  0  0  0  0
    7.4441  -12.9077   25.6357 C   0  0  1  0  0  0  0  0  0  0  0  0
    6.2666  -12.0208   26.0515 C   0  0  0  0  0  0  0  0  0  0  0  0
    6.6879  -11.1679   27.6101 S   0  0  0  0  0  0  0  0  0  0  0  0
    7.6176  -13.9638   26.6527 C   0  0  0  0  0  0  0  0  0  0  0  0
    6.8828  -14.9792   26.6668 O   0  0  0  0  0  0  0  0  0  0  0  0
    8.6104  -13.8294   27.6081 O   0  0  0  0  0  0  0  0  0  0  0  0
  2  3  1  0
  2  1  1  1
  3  4  1  0
  4  8  1  0
  4  5  2  0
  6  2  1  0
  7  6  2  0
  9  6  1  0
 10 11  1  0
 10  9  1  0
 11 12  2  0
 13 14  1  0
 13 11  1  0
 14 15  1  1
 16 15  1  0
 17 19  1  0
 17 14  1  0
 18 17  2  0
M  END
$$$$
