DGC.pdb
     RDKit          3D

 19 18  0  0  1  0  0  0  0  0999 V2000
    9.1719  -18.5138   21.3993 N   0  0  0  0  0  0  0  0  0  0  0  0
    9.1353  -17.1587   20.8186 C   0  0  1  0  0  0  0  0  0  0  0  0
    8.3710  -17.3327   19.5259 C   0  0  0  0  0  0  0  0  0  0  0  0
    9.1115  -18.0084   18.4564 C   0  0  0  0  0  0  0  0  0  0  0  0
   10.3497  -17.8467   18.3144 O   0  0  0  0  0  0  0  0  0  0  0  0
    8.4162  -16.3027   21.7944 C   0  0  0  0  0  0  0  0  0  0  0  0
    8.3180  -15.0430   21.6303 O   0  0  0  0  0  0  0  0  0  0  0  0
    8.4745  -18.8526   17.5595 O   0  0  0  0  0  0  0  0  0  0  0  0
    7.7871  -16.8159   22.9731 N   0  0  0  0  0  0  0  0  0  0  0  0
    6.9828  -15.9764   23.8290 C   0  0  0  0  0  0  0  0  0  0  0  0
    7.7138  -15.0710   24.6982 C   0  0  0  0  0  0  0  0  0  0  0  0
    8.9648  -15.0868   24.6518 O   0  0  0  0  0  0  0  0  0  0  0  0
    7.0781  -14.1963   25.5758 N   0  0  0  0  0  0  0  0  0  0  0  0
    7.7925  -13.2687   26.4422 C   0  0  1  0  0  0  0  0  0  0  0  0
    6.7984  -12.3770   27.1925 C   0  0  0  0  0  0  0  0  0  0  0  0
    5.2837  -12.2016   26.1880 S   0  0  0  0  0  0  0  0  0  0  0  0
    8.5703  -14.0398   27.4321 C   0  0  0  0  0  0  0  0  0  0  0  0
    9.4113  -13.4813   28.1752 O   0  0  0  0  0  0  0  0  0  0  0  0
    8.3666  -15.4047   27.5412 O   0  0  0  0  0  0  0  0  0  0  0  0
  2  3  1  0
  2  1  1  1
  3  4  1  0
  4  8  1  0
  4  5  2  0
  6  2  1  0
  7  6  2  0
  9  6  1  0
 10 11  1  0
 10  9  1  0
 11 12  2  0
 13 14  1  0
 13 11  1  0
 14 15  1  1
 16 15  1  0
 17 19  1  0
 17 14  1  0
 18 17  2  0
M  END
$$$$
