DGC.pdb
     RDKit          3D

 19 18  0  0  1  0  0  0  0  0999 V2000
    9.4680  -18.0088   21.0462 N   0  0  0  0  0  0  0  0  0  0  0  0
    9.6011  -16.6338   20.5297 C   0  0  1  0  0  0  0  0  0  0  0  0
    9.0618  -16.7163   19.1199 C   0  0  0  0  0  0  0  0  0  0  0  0
    9.9203  -17.4310   18.1708 C   0  0  0  0  0  0  0  0  0  0  0  0
   11.1527  -17.1958   18.0974 O   0  0  0  0  0  0  0  0  0  0  0  0
    8.7702  -15.7730   21.4077 C   0  0  0  0  0  0  0  0  0  0  0  0
    8.6961  -14.5136   21.2292 O   0  0  0  0  0  0  0  0  0  0  0  0
    9.4060  -18.3947   17.3166 O   0  0  0  0  0  0  0  0  0  0  0  0
    8.0002  -16.2811   22.5021 N   0  0  0  0  0  0  0  0  0  0  0  0
    7.1090  -15.4340   23.2587 C   0  0  0  0  0  0  0  0  0  0  0  0
    7.7152  -14.6861   24.3463 C   0  0  0  0  0  0  0  0  0  0  0  0
    8.9632  -14.6922   24.4455 O   0  0  0  0  0  0  0  0  0  0  0  0
    6.9639  -13.9717   25.2761 N   0  0  0  0  0  0  0  0  0  0  0  0
    7.5512  -13.2368   26.3880 C   0  0  1  0  0  0  0  0  0  0  0  0
    6.4622  -12.4750   27.1496 C   0  0  0  0  0  0  0  0  0  0  0  0
    5.6333  -11.3210   26.0027 S   0  0  0  0  0  0  0  0  0  0  0  0
    8.1872  -14.1954   27.3134 C   0  0  0  0  0  0  0  0  0  0  0  0
    8.0036  -15.4299   27.1972 O   0  0  0  0  0  0  0  0  0  0  0  0
    9.0012  -13.7214   28.3278 O   0  0  0  0  0  0  0  0  0  0  0  0
  2  3  1  0
  2  1  1  1
  3  4  1  0
  4  8  1  0
  4  5  2  0
  6  2  1  0
  7  6  2  0
  9  6  1  0
 10 11  1  0
 10  9  1  0
 11 12  2  0
 13 14  1  0
 13 11  1  0
 14 15  1  1
 16 15  1  0
 17 19  1  0
 17 14  1  0
 18 17  2  0
M  END
$$$$
