DGC.pdb
     RDKit          3D

 19 18  0  0  1  0  0  0  0  0999 V2000
    9.1415  -17.3689   20.1642 N   0  0  0  0  0  0  0  0  0  0  0  0
    7.9283  -16.5800   19.8802 C   0  0  1  0  0  0  0  0  0  0  0  0
    6.7939  -17.4795   20.3156 C   0  0  0  0  0  0  0  0  0  0  0  0
    6.6410  -18.7063   19.5281 C   0  0  0  0  0  0  0  0  0  0  0  0
    7.0306  -19.8180   19.9659 O   0  0  0  0  0  0  0  0  0  0  0  0
    8.0260  -15.3484   20.7022 C   0  0  0  0  0  0  0  0  0  0  0  0
    7.1209  -14.4522   20.6700 O   0  0  0  0  0  0  0  0  0  0  0  0
    6.0603  -18.6880   18.2690 O   0  0  0  0  0  0  0  0  0  0  0  0
    9.1232  -15.0771   21.5803 N   0  0  0  0  0  0  0  0  0  0  0  0
    9.1465  -13.9055   22.4237 C   0  0  0  0  0  0  0  0  0  0  0  0
    9.1301  -14.1534   23.8547 C   0  0  0  0  0  0  0  0  0  0  0  0
   10.1491  -14.6564   24.3800 O   0  0  0  0  0  0  0  0  0  0  0  0
    8.0298  -13.8570   24.6552 N   0  0  0  0  0  0  0  0  0  0  0  0
    8.0018  -14.0774   26.0946 C   0  0  1  0  0  0  0  0  0  0  0  0
    6.8543  -13.2839   26.7268 C   0  0  0  0  0  0  0  0  0  0  0  0
    7.0403  -11.5211   26.2886 S   0  0  0  0  0  0  0  0  0  0  0  0
    7.7783  -15.5133   26.3553 C   0  0  0  0  0  0  0  0  0  0  0  0
    7.3187  -16.2707   25.4685 O   0  0  0  0  0  0  0  0  0  0  0  0
    8.0821  -16.0321   27.6023 O   0  0  0  0  0  0  0  0  0  0  0  0
  2  3  1  0
  2  1  1  1
  3  4  1  0
  4  8  1  0
  4  5  2  0
  6  2  1  0
  7  6  2  0
  9  6  1  0
 10 11  1  0
 10  9  1  0
 11 12  2  0
 13 14  1  0
 13 11  1  0
 14 15  1  1
 16 15  1  0
 17 19  1  0
 17 14  1  0
 18 17  2  0
M  END
$$$$
