DGC.pdb
     RDKit          3D

 19 18  0  0  1  0  0  0  0  0999 V2000
    9.1955  -18.0237   20.8610 N   0  0  0  0  0  0  0  0  0  0  0  0
    9.0125  -16.6572   20.3374 C   0  0  1  0  0  0  0  0  0  0  0  0
    8.2306  -16.8545   19.0587 C   0  0  0  0  0  0  0  0  0  0  0  0
    9.0095  -17.3780   17.9328 C   0  0  0  0  0  0  0  0  0  0  0  0
   10.2360  -17.1309   17.8141 O   0  0  0  0  0  0  0  0  0  0  0  0
    8.2440  -15.9127   21.3656 C   0  0  0  0  0  0  0  0  0  0  0  0
    7.9587  -14.6793   21.2211 O   0  0  0  0  0  0  0  0  0  0  0  0
    8.4233  -18.1666   16.9543 O   0  0  0  0  0  0  0  0  0  0  0  0
    7.7705  -16.5112   22.5765 N   0  0  0  0  0  0  0  0  0  0  0  0
    7.0120  -15.7584   23.5472 C   0  0  0  0  0  0  0  0  0  0  0  0
    7.7885  -14.9507   24.4714 C   0  0  0  0  0  0  0  0  0  0  0  0
    9.0365  -14.9770   24.3760 O   0  0  0  0  0  0  0  0  0  0  0  0
    7.1993  -14.1578   25.4530 N   0  0  0  0  0  0  0  0  0  0  0  0
    7.9578  -13.3072   26.3599 C   0  0  1  0  0  0  0  0  0  0  0  0
    7.0093  -12.3947   27.1433 C   0  0  0  0  0  0  0  0  0  0  0  0
    5.3728  -12.4050   26.3333 S   0  0  0  0  0  0  0  0  0  0  0  0
    8.6871  -14.1599   27.3194 C   0  0  0  0  0  0  0  0  0  0  0  0
    8.4787  -15.3945   27.3803 O   0  0  0  0  0  0  0  0  0  0  0  0
    9.6180  -13.5848   28.1674 O   0  0  0  0  0  0  0  0  0  0  0  0
  2  3  1  0
  2  1  1  1
  3  4  1  0
  4  8  1  0
  4  5  2  0
  6  2  1  0
  7  6  2  0
  9  6  1  0
 10 11  1  0
 10  9  1  0
 11 12  2  0
 13 14  1  0
 13 11  1  0
 14 15  1  1
 16 15  1  0
 17 19  1  0
 17 14  1  0
 18 17  2  0
M  END
$$$$
