DGC.pdb
     RDKit          3D

 19 18  0  0  1  0  0  0  0  0999 V2000
   11.1650  -19.8576   21.9059 N   0  0  0  0  0  0  0  0  0  0  0  0
   11.9949  -18.7097   21.4952 C   0  0  1  0  0  0  0  0  0  0  0  0
   11.8147  -18.6429   19.9957 C   0  0  0  0  0  0  0  0  0  0  0  0
   13.0581  -18.6948   19.2211 C   0  0  0  0  0  0  0  0  0  0  0  0
   13.8289  -19.6853   19.2859 O   0  0  0  0  0  0  0  0  0  0  0  0
   11.4403  -17.5208   22.1888 C   0  0  0  0  0  0  0  0  0  0  0  0
   12.0353  -16.3945   22.1598 O   0  0  0  0  0  0  0  0  0  0  0  0
   13.4324  -17.6527   18.3863 O   0  0  0  0  0  0  0  0  0  0  0  0
   10.2156  -17.5456   22.9292 N   0  0  0  0  0  0  0  0  0  0  0  0
    9.7190  -16.3739   23.6110 C   0  0  0  0  0  0  0  0  0  0  0  0
   10.3224  -16.0867   24.9005 C   0  0  0  0  0  0  0  0  0  0  0  0
   11.4161  -16.6297   25.1766 O   0  0  0  0  0  0  0  0  0  0  0  0
    9.7310  -15.2387   25.8336 N   0  0  0  0  0  0  0  0  0  0  0  0
   10.3501  -14.8869   27.1042 C   0  0  1  0  0  0  0  0  0  0  0  0
    9.4956  -13.8481   27.8367 C   0  0  0  0  0  0  0  0  0  0  0  0
   10.3891  -13.2904   29.3283 S   0  0  0  0  0  0  0  0  0  0  0  0
   10.4397  -16.0972   27.9449 C   0  0  0  0  0  0  0  0  0  0  0  0
    9.5440  -16.9738   27.9194 O   0  0  0  0  0  0  0  0  0  0  0  0
   11.5335  -16.2665   28.7765 O   0  0  0  0  0  0  0  0  0  0  0  0
  2  3  1  0
  2  1  1  1
  3  4  1  0
  4  8  1  0
  4  5  2  0
  6  2  1  0
  7  6  2  0
  9  6  1  0
 10 11  1  0
 10  9  1  0
 11 12  2  0
 13 14  1  0
 13 11  1  0
 14 15  1  1
 16 15  1  0
 17 19  1  0
 17 14  1  0
 18 17  2  0
M  END
$$$$
