TCL.pdb
     RDKit          3D

 22 21  0  0  1  0  0  0  0  0999 V2000
   29.2373  -17.5961  -15.9919 C   0  0  0  0  0  0  0  0  0  0  0  0
   28.1800  -17.9747  -15.0079 C   0  0  1  0  0  0  0  0  0  0  0  0
   27.6799  -16.8519  -14.3164 O   0  0  0  0  0  0  0  0  0  0  0  0
   27.0050  -18.6852  -15.5953 C   0  0  2  0  0  0  0  0  0  0  0  0
   26.3303  -17.9393  -16.6109 N   0  0  0  0  0  0  0  0  0  0  0  0
   26.0745  -19.0905  -14.4883 C   0  0  0  0  0  0  0  0  0  0  0  0
   25.1949  -18.3073  -14.0508 O   0  0  0  0  0  0  0  0  0  0  0  0
   26.1421  -20.3833  -13.8780 N   0  0  0  0  0  0  0  0  0  0  0  0
   25.2298  -20.8085  -12.8543 C   0  0  1  0  0  0  0  0  0  0  0  0
   24.4617  -22.0512  -13.2190 C   0  0  0  0  0  0  0  0  0  0  0  0
   23.3182  -22.5046  -11.8868 S   0  0  0  0  0  0  0  0  0  0  0  0
   25.8819  -20.9229  -11.5237 C   0  0  0  0  0  0  0  0  0  0  0  0
   27.0409  -21.4255  -11.4418 O   0  0  0  0  0  0  0  0  0  0  0  0
   28.1280  -18.4504   -6.8773 C   0  0  0  0  0  0  0  0  0  0  0  0
   27.7104  -19.5837   -7.7388 C   0  0  1  0  0  0  0  0  0  0  0  0
   27.8770  -20.8742   -6.9156 C   0  0  0  0  0  0  0  0  0  0  0  0
   26.4461  -19.5449   -8.4601 C   0  0  0  0  0  0  0  0  0  0  0  0
   25.8309  -20.7718   -8.9862 C   0  0  2  0  0  0  0  0  0  0  0  0
   25.2717  -20.4972  -10.3394 N   0  0  0  0  0  0  0  0  0  0  0  0
   24.7029  -21.2579   -8.2302 C   0  0  0  0  0  0  0  0  0  0  0  0
   24.8466  -21.9533   -7.0580 O   0  0  0  0  0  0  0  0  0  0  0  0
   23.5299  -21.0681   -8.6245 O   0  0  0  0  0  0  0  0  0  0  0  0
  2  1  1  6
  2  3  1  0
  2  4  1  0
  4  5  1  6
  6  4  1  0
  7  6  2  0
  8  6  1  0
  9  8  1  0
  9 12  1  0
  9 10  1  6
 11 10  1  0
 12 19  1  0
 13 12  2  0
 15 14  1  1
 16 15  1  0
 17 15  1  0
 18 17  1  1
 18 20  1  0
 19 18  1  0
 20 21  1  0
 22 20  2  0
M  END
$$$$
