TCL.pdb
     RDKit          3D

 22 21  0  0  1  0  0  0  0  0999 V2000
   27.6866  -22.4082  -19.1931 C   0  0  0  0  0  0  0  0  0  0  0  0
   28.1968  -23.5592  -18.3904 C   0  0  1  0  0  0  0  0  0  0  0  0
   29.1802  -24.2909  -19.0881 O   0  0  0  0  0  0  0  0  0  0  0  0
   28.7843  -23.1879  -17.0684 C   0  0  2  0  0  0  0  0  0  0  0  0
   29.2282  -24.3089  -16.3008 N   0  0  0  0  0  0  0  0  0  0  0  0
   27.7950  -22.3488  -16.3116 C   0  0  0  0  0  0  0  0  0  0  0  0
   26.9524  -22.8667  -15.5368 O   0  0  0  0  0  0  0  0  0  0  0  0
   27.7618  -20.9232  -16.4337 N   0  0  0  0  0  0  0  0  0  0  0  0
   26.8402  -20.1014  -15.7013 C   0  0  1  0  0  0  0  0  0  0  0  0
   27.3085  -18.6794  -15.5392 C   0  0  0  0  0  0  0  0  0  0  0  0
   27.7319  -17.9631  -17.1502 S   0  0  0  0  0  0  0  0  0  0  0  0
   25.4576  -20.1781  -16.2410 C   0  0  0  0  0  0  0  0  0  0  0  0
   25.2815  -20.2096  -17.4942 O   0  0  0  0  0  0  0  0  0  0  0  0
   20.8745  -21.2615  -18.1970 C   0  0  0  0  0  0  0  0  0  0  0  0
   21.2783  -21.9099  -16.9253 C   0  0  1  0  0  0  0  0  0  0  0  0
   21.0464  -23.4236  -17.0857 C   0  0  0  0  0  0  0  0  0  0  0  0
   22.5628  -21.6076  -16.3097 C   0  0  0  0  0  0  0  0  0  0  0  0
   22.9319  -20.2300  -15.9538 C   0  0  2  0  0  0  0  0  0  0  0  0
   24.3238  -20.2181  -15.4230 N   0  0  0  0  0  0  0  0  0  0  0  0
   22.1457  -19.6449  -14.8956 C   0  0  0  0  0  0  0  0  0  0  0  0
   20.8732  -19.1768  -15.0960 O   0  0  0  0  0  0  0  0  0  0  0  0
   22.6040  -19.5320  -13.7359 O   0  0  0  0  0  0  0  0  0  0  0  0
  2  1  1  6
  2  3  1  0
  2  4  1  0
  4  5  1  1
  6  4  1  0
  7  6  2  0
  8  6  1  0
  9  8  1  0
  9 12  1  0
  9 10  1  6
 11 10  1  0
 12 19  1  0
 13 12  2  0
 15 14  1  6
 16 15  1  0
 17 15  1  0
 18 17  1  1
 18 20  1  0
 19 18  1  0
 20 21  1  0
 22 20  2  0
M  END
$$$$
