TCL.pdb
     RDKit          3D

 22 21  0  0  1  0  0  0  0  0999 V2000
   33.5033  -31.0247  -21.0184 C   0  0  0  0  0  0  0  0  0  0  0  0
   34.8035  -30.4012  -20.6310 C   0  0  1  0  0  0  0  0  0  0  0  0
   35.8475  -30.7810  -21.4998 O   0  0  0  0  0  0  0  0  0  0  0  0
   34.7925  -28.9084  -20.5874 C   0  0  2  0  0  0  0  0  0  0  0  0
   36.0403  -28.3351  -20.1908 N   0  0  0  0  0  0  0  0  0  0  0  0
   33.6635  -28.4526  -19.7081 C   0  0  0  0  0  0  0  0  0  0  0  0
   33.7788  -28.4179  -18.4575 O   0  0  0  0  0  0  0  0  0  0  0  0
   32.4047  -28.0367  -20.2473 N   0  0  0  0  0  0  0  0  0  0  0  0
   31.3107  -27.6049  -19.4239 C   0  0  1  0  0  0  0  0  0  0  0  0
   30.7759  -26.2501  -19.8057 C   0  0  0  0  0  0  0  0  0  0  0  0
   31.9222  -24.9453  -19.2849 S   0  0  0  0  0  0  0  0  0  0  0  0
   30.2347  -28.6255  -19.3274 C   0  0  0  0  0  0  0  0  0  0  0  0
   29.7103  -29.0765  -20.3877 O   0  0  0  0  0  0  0  0  0  0  0  0
   28.1689  -32.6216  -14.9839 C   0  0  0  0  0  0  0  0  0  0  0  0
   28.0731  -32.0121  -16.3330 C   0  0  1  0  0  0  0  0  0  0  0  0
   26.5774  -31.8738  -16.6712 C   0  0  0  0  0  0  0  0  0  0  0  0
   28.8301  -30.8132  -16.6644 C   0  0  0  0  0  0  0  0  0  0  0  0
   28.7495  -30.2061  -18.0006 C   0  0  2  0  0  0  0  0  0  0  0  0
   29.7646  -29.1209  -18.1069 N   0  0  0  0  0  0  0  0  0  0  0  0
   27.4993  -29.5500  -18.2951 C   0  0  0  0  0  0  0  0  0  0  0  0
   26.5875  -30.0652  -19.1791 O   0  0  0  0  0  0  0  0  0  0  0  0
   27.1959  -28.4630  -17.7528 O   0  0  0  0  0  0  0  0  0  0  0  0
  2  1  1  6
  2  3  1  0
  2  4  1  0
  4  5  1  1
  6  4  1  0
  7  6  2  0
  8  6  1  0
  9  8  1  0
  9 12  1  0
  9 10  1  6
 11 10  1  0
 12 19  1  0
 13 12  2  0
 15 14  1  1
 16 15  1  0
 17 15  1  0
 18 17  1  1
 18 20  1  0
 19 18  1  0
 20 21  1  0
 22 20  2  0
M  END
$$$$
