TCL.pdb
     RDKit          3D

 22 21  0  0  1  0  0  0  0  0999 V2000
   16.5194  -28.1341   -5.1284 C   0  0  0  0  0  0  0  0  0  0  0  0
   16.2575  -26.9033   -4.3247 C   0  0  1  0  0  0  0  0  0  0  0  0
   17.0355  -26.8686   -3.1488 O   0  0  0  0  0  0  0  0  0  0  0  0
   16.5022  -25.6201   -5.0487 C   0  0  2  0  0  0  0  0  0  0  0  0
   17.8631  -25.4327   -5.4435 N   0  0  0  0  0  0  0  0  0  0  0  0
   16.0023  -24.4806   -4.2078 C   0  0  0  0  0  0  0  0  0  0  0  0
   16.7929  -23.6636   -3.6731 O   0  0  0  0  0  0  0  0  0  0  0  0
   14.6064  -24.2684   -3.9736 N   0  0  0  0  0  0  0  0  0  0  0  0
   14.1053  -23.1555   -3.2175 C   0  0  1  0  0  0  0  0  0  0  0  0
   12.6994  -22.7661   -3.5906 C   0  0  0  0  0  0  0  0  0  0  0  0
   12.1199  -21.4023   -2.5457 S   0  0  0  0  0  0  0  0  0  0  0  0
   14.2639  -23.3465   -1.7522 C   0  0  0  0  0  0  0  0  0  0  0  0
   13.9641  -24.4626   -1.2358 O   0  0  0  0  0  0  0  0  0  0  0  0
   16.9675  -22.8839    3.0692 C   0  0  0  0  0  0  0  0  0  0  0  0
   16.4730  -21.6550    2.4011 C   0  0  1  0  0  0  0  0  0  0  0  0
   17.4890  -20.5340    2.6874 C   0  0  0  0  0  0  0  0  0  0  0  0
   16.0546  -21.6819    1.0067 C   0  0  0  0  0  0  0  0  0  0  0  0
   14.9468  -22.5384    0.5597 C   0  0  2  0  0  0  0  0  0  0  0  0
   14.7348  -22.3410   -0.9015 N   0  0  0  0  0  0  0  0  0  0  0  0
   13.6661  -22.2303    1.1470 C   0  0  0  0  0  0  0  0  0  0  0  0
   13.1199  -22.9785    2.1571 O   0  0  0  0  0  0  0  0  0  0  0  0
   12.9880  -21.2572    0.7461 O   0  0  0  0  0  0  0  0  0  0  0  0
  2  1  1  6
  2  3  1  0
  2  4  1  0
  4  5  1  1
  6  4  1  0
  7  6  2  0
  8  6  1  0
  9  8  1  0
  9 12  1  0
  9 10  1  1
 11 10  1  0
 12 19  1  0
 13 12  2  0
 15 14  1  6
 16 15  1  0
 17 15  1  0
 18 17  1  1
 18 20  1  0
 19 18  1  0
 20 21  1  0
 22 20  2  0
M  END
$$$$
