TCL.pdb
     RDKit          3D

 22 21  0  0  1  0  0  0  0  0999 V2000
   29.8264  -20.1124  -17.7033 C   0  0  0  0  0  0  0  0  0  0  0  0
   28.8344  -19.4450  -16.8088 C   0  0  1  0  0  0  0  0  0  0  0  0
   28.8867  -18.0402  -16.9227 O   0  0  0  0  0  0  0  0  0  0  0  0
   27.4151  -19.8495  -17.0374 C   0  0  2  0  0  0  0  0  0  0  0  0
   26.9117  -19.4810  -18.3234 N   0  0  0  0  0  0  0  0  0  0  0  0
   26.5652  -19.3022  -15.9268 C   0  0  0  0  0  0  0  0  0  0  0  0
   25.9223  -18.2309  -16.0594 O   0  0  0  0  0  0  0  0  0  0  0  0
   26.4448  -19.9698  -14.6665 N   0  0  0  0  0  0  0  0  0  0  0  0
   25.4447  -19.6244  -13.6961 C   0  0  1  0  0  0  0  0  0  0  0  0
   24.0667  -19.4803  -14.2859 C   0  0  0  0  0  0  0  0  0  0  0  0
   22.8372  -19.2403  -12.9750 S   0  0  0  0  0  0  0  0  0  0  0  0
   25.4585  -20.5310  -12.5186 C   0  0  0  0  0  0  0  0  0  0  0  0
   25.3019  -21.7752  -12.6914 O   0  0  0  0  0  0  0  0  0  0  0  0
   27.8192  -18.8323   -7.5989 C   0  0  0  0  0  0  0  0  0  0  0  0
   27.4266  -19.7216   -8.7195 C   0  0  1  0  0  0  0  0  0  0  0  0
   28.4654  -20.8557   -8.7937 C   0  0  0  0  0  0  0  0  0  0  0  0
   26.0606  -20.2117   -8.8386 C   0  0  0  0  0  0  0  0  0  0  0  0
   25.6231  -20.9696  -10.0196 C   0  0  2  0  0  0  0  0  0  0  0  0
   25.6384  -20.0732  -11.2093 N   0  0  0  0  0  0  0  0  0  0  0  0
   24.2663  -21.4552   -9.9609 C   0  0  0  0  0  0  0  0  0  0  0  0
   23.1845  -20.6493  -10.2028 O   0  0  0  0  0  0  0  0  0  0  0  0
   24.0183  -22.6486   -9.6745 O   0  0  0  0  0  0  0  0  0  0  0  0
  2  1  1  6
  2  3  1  0
  2  4  1  0
  4  5  1  6
  6  4  1  0
  7  6  2  0
  8  6  1  0
  9  8  1  0
  9 12  1  0
  9 10  1  6
 11 10  1  0
 12 19  1  0
 13 12  2  0
 15 14  1  1
 16 15  1  0
 17 15  1  0
 18 17  1  1
 18 20  1  0
 19 18  1  0
 20 21  1  0
 22 20  2  0
M  END
$$$$
