TCL.pdb
     RDKit          3D

 22 21  0  0  1  0  0  0  0  0999 V2000
   20.2813  -12.3154  -18.5794 C   0  0  0  0  0  0  0  0  0  0  0  0
   21.6898  -12.8097  -18.5422 C   0  0  1  0  0  0  0  0  0  0  0  0
   21.8070  -14.1031  -19.0922 O   0  0  0  0  0  0  0  0  0  0  0  0
   22.6759  -11.9418  -19.2525 C   0  0  2  0  0  0  0  0  0  0  0  0
   23.9887  -12.5024  -19.3248 N   0  0  0  0  0  0  0  0  0  0  0  0
   22.6828  -10.5833  -18.6121 C   0  0  0  0  0  0  0  0  0  0  0  0
   23.3408  -10.3541  -17.5666 O   0  0  0  0  0  0  0  0  0  0  0  0
   21.9436   -9.4858  -19.1575 N   0  0  0  0  0  0  0  0  0  0  0  0
   21.9008   -8.1921  -18.5363 C   0  0  1  0  0  0  0  0  0  0  0  0
   21.4853   -7.0925  -19.4774 C   0  0  0  0  0  0  0  0  0  0  0  0
   21.3746   -5.5114  -18.5967 S   0  0  0  0  0  0  0  0  0  0  0  0
   21.1014   -8.1895  -17.2835 C   0  0  0  0  0  0  0  0  0  0  0  0
   19.9224   -8.6502  -17.2987 O   0  0  0  0  0  0  0  0  0  0  0  0
   22.7152  -10.0367  -12.3015 C   0  0  0  0  0  0  0  0  0  0  0  0
   21.8367   -9.5879  -13.4095 C   0  0  1  0  0  0  0  0  0  0  0  0
   20.4862  -10.3098  -13.2483 C   0  0  0  0  0  0  0  0  0  0  0  0
   21.6767   -8.1715  -13.7066 C   0  0  0  0  0  0  0  0  0  0  0  0
   20.8096   -7.7159  -14.8025 C   0  0  2  0  0  0  0  0  0  0  0  0
   21.5922   -7.6969  -16.0700 N   0  0  0  0  0  0  0  0  0  0  0  0
   20.3213   -6.3654  -14.6691 C   0  0  0  0  0  0  0  0  0  0  0  0
   20.9394   -5.2965  -15.2639 O   0  0  0  0  0  0  0  0  0  0  0  0
   19.3023   -6.1105  -13.9876 O   0  0  0  0  0  0  0  0  0  0  0  0
  2  1  1  6
  2  3  1  0
  2  4  1  0
  4  5  1  1
  6  4  1  0
  7  6  2  0
  8  6  1  0
  9  8  1  0
  9 12  1  0
  9 10  1  6
 11 10  1  0
 12 19  1  0
 13 12  2  0
 15 14  1  1
 16 15  1  0
 17 15  1  0
 18 17  1  1
 18 20  1  0
 19 18  1  0
 20 21  1  0
 22 20  2  0
M  END
$$$$
