TCL.pdb
     RDKit          3D

 22 21  0  0  1  0  0  0  0  0999 V2000
   22.5789  -17.5029  -15.3236 C   0  0  0  0  0  0  0  0  0  0  0  0
   21.1838  -17.9885  -15.5414 C   0  0  1  0  0  0  0  0  0  0  0  0
   20.4781  -17.1693  -16.4469 O   0  0  0  0  0  0  0  0  0  0  0  0
   21.0815  -19.3895  -16.0486 C   0  0  2  0  0  0  0  0  0  0  0  0
   19.7420  -19.8058  -16.3228 N   0  0  0  0  0  0  0  0  0  0  0  0
   21.7663  -20.3116  -15.0809 C   0  0  0  0  0  0  0  0  0  0  0  0
   21.2150  -20.6641  -14.0083 O   0  0  0  0  0  0  0  0  0  0  0  0
   23.0756  -20.8333  -15.3299 N   0  0  0  0  0  0  0  0  0  0  0  0
   23.7769  -21.6566  -14.3857 C   0  0  1  0  0  0  0  0  0  0  0  0
   24.4485  -22.8475  -15.0168 C   0  0  0  0  0  0  0  0  0  0  0  0
   25.3086  -23.8312  -13.7597 S   0  0  0  0  0  0  0  0  0  0  0  0
   24.7089  -20.8747  -13.5321 C   0  0  0  0  0  0  0  0  0  0  0  0
   25.4440  -19.9914  -14.0632 O   0  0  0  0  0  0  0  0  0  0  0  0
   26.6327  -18.6757   -8.6593 C   0  0  0  0  0  0  0  0  0  0  0  0
   26.3993  -20.1305   -8.8324 C   0  0  1  0  0  0  0  0  0  0  0  0
   26.0329  -20.7060   -7.4521 C   0  0  0  0  0  0  0  0  0  0  0  0
   25.5277  -20.6248   -9.8889 C   0  0  0  0  0  0  0  0  0  0  0  0
   25.8319  -20.3781  -11.3057 C   0  0  2  0  0  0  0  0  0  0  0  0
   24.8172  -21.0674  -12.1510 N   0  0  0  0  0  0  0  0  0  0  0  0
   27.0917  -20.9146  -11.7585 C   0  0  0  0  0  0  0  0  0  0  0  0
   27.9957  -20.1704  -12.4708 O   0  0  0  0  0  0  0  0  0  0  0  0
   27.4114  -22.1019  -11.5225 O   0  0  0  0  0  0  0  0  0  0  0  0
  2  1  1  6
  2  3  1  0
  2  4  1  0
  4  5  1  1
  6  4  1  0
  7  6  2  0
  8  6  1  0
  9  8  1  0
  9 12  1  0
  9 10  1  6
 11 10  1  0
 12 19  1  0
 13 12  2  0
 15 14  1  1
 16 15  1  0
 17 15  1  0
 18 17  1  1
 18 20  1  0
 19 18  1  0
 20 21  1  0
 22 20  2  0
M  END
$$$$
