TCL.pdb
     RDKit          3D

 22 21  0  0  1  0  0  0  0  0999 V2000
   21.3084  -10.1322  -20.0501 C   0  0  0  0  0  0  0  0  0  0  0  0
   20.8470  -11.4799  -19.6026 C   0  0  1  0  0  0  0  0  0  0  0  0
   21.1971  -12.4878  -20.5249 O   0  0  0  0  0  0  0  0  0  0  0  0
   21.3666  -11.9077  -18.2694 C   0  0  2  0  0  0  0  0  0  0  0  0
   21.0387  -13.2569  -17.9300 N   0  0  0  0  0  0  0  0  0  0  0  0
   20.8929  -10.9378  -17.2252 C   0  0  0  0  0  0  0  0  0  0  0  0
   19.7020  -10.9346  -16.8248 O   0  0  0  0  0  0  0  0  0  0  0  0
   21.7697   -9.9724  -16.6357 N   0  0  0  0  0  0  0  0  0  0  0  0
   21.3463   -9.0620  -15.6095 C   0  0  1  0  0  0  0  0  0  0  0  0
   22.3739   -8.8647  -14.5267 C   0  0  0  0  0  0  0  0  0  0  0  0
   22.7901  -10.4496  -13.7503 S   0  0  0  0  0  0  0  0  0  0  0  0
   20.8585   -7.7710  -16.1611 C   0  0  0  0  0  0  0  0  0  0  0  0
   21.5872   -7.1276  -16.9720 O   0  0  0  0  0  0  0  0  0  0  0  0
   16.8525   -4.2492  -17.9917 C   0  0  0  0  0  0  0  0  0  0  0  0
   16.8994   -4.6820  -16.5735 C   0  0  1  0  0  0  0  0  0  0  0  0
   15.4506   -4.7138  -16.0530 C   0  0  0  0  0  0  0  0  0  0  0  0
   17.6567   -5.8615  -16.1790 C   0  0  0  0  0  0  0  0  0  0  0  0
   19.1094   -5.9398  -16.3888 C   0  0  2  0  0  0  0  0  0  0  0  0
   19.6166   -7.2222  -15.8253 N   0  0  0  0  0  0  0  0  0  0  0  0
   19.8768   -4.9267  -15.7070 C   0  0  0  0  0  0  0  0  0  0  0  0
   20.1952   -5.0146  -14.3769 O   0  0  0  0  0  0  0  0  0  0  0  0
   20.2821   -3.9070  -16.3101 O   0  0  0  0  0  0  0  0  0  0  0  0
  2  1  1  6
  2  3  1  0
  2  4  1  0
  4  5  1  1
  6  4  1  0
  7  6  2  0
  8  6  1  0
  9  8  1  0
  9 12  1  0
  9 10  1  1
 11 10  1  0
 12 19  1  0
 13 12  2  0
 15 14  1  6
 16 15  1  0
 17 15  1  0
 18 17  1  1
 18 20  1  0
 19 18  1  0
 20 21  1  0
 22 20  2  0
M  END
$$$$
