TCL.pdb
     RDKit          3D

 22 21  0  0  1  0  0  0  0  0999 V2000
   19.5800  -12.6539  -19.5747 C   0  0  0  0  0  0  0  0  0  0  0  0
   19.5523  -11.5258  -18.5970 C   0  0  1  0  0  0  0  0  0  0  0  0
   18.3247  -10.8322  -18.6302 O   0  0  0  0  0  0  0  0  0  0  0  0
   19.7917  -11.9228  -17.1773 C   0  0  2  0  0  0  0  0  0  0  0  0
   18.8409  -12.8644  -16.6750 N   0  0  0  0  0  0  0  0  0  0  0  0
   19.8562  -10.6862  -16.3274 C   0  0  0  0  0  0  0  0  0  0  0  0
   18.8414  -10.2457  -15.7320 O   0  0  0  0  0  0  0  0  0  0  0  0
   21.0712   -9.9500  -16.1534 N   0  0  0  0  0  0  0  0  0  0  0  0
   21.1390   -8.7280  -15.4029 C   0  0  1  0  0  0  0  0  0  0  0  0
   22.4984   -8.4674  -14.8100 C   0  0  0  0  0  0  0  0  0  0  0  0
   22.8195   -9.6042  -13.4344 S   0  0  0  0  0  0  0  0  0  0  0  0
   20.6288   -7.5614  -16.1693 C   0  0  0  0  0  0  0  0  0  0  0  0
   20.9273   -7.4448  -17.3940 O   0  0  0  0  0  0  0  0  0  0  0  0
   17.0638   -4.0447  -18.2607 C   0  0  0  0  0  0  0  0  0  0  0  0
   17.1645   -4.1364  -16.7834 C   0  0  1  0  0  0  0  0  0  0  0  0
   15.7419   -3.9851  -16.2141 C   0  0  0  0  0  0  0  0  0  0  0  0
   17.9020   -5.2220  -16.1528 C   0  0  0  0  0  0  0  0  0  0  0  0
   19.3521   -5.3695  -16.3429 C   0  0  2  0  0  0  0  0  0  0  0  0
   19.8233   -6.5708  -15.5984 N   0  0  0  0  0  0  0  0  0  0  0  0
   20.1471   -4.2902  -15.8109 C   0  0  0  0  0  0  0  0  0  0  0  0
   20.4976   -3.1960  -16.5580 O   0  0  0  0  0  0  0  0  0  0  0  0
   20.5620   -4.3138  -14.6298 O   0  0  0  0  0  0  0  0  0  0  0  0
  2  1  1  6
  2  3  1  0
  2  4  1  0
  4  5  1  1
  6  4  1  0
  7  6  2  0
  8  6  1  0
  9  8  1  0
  9 12  1  0
  9 10  1  6
 11 10  1  0
 12 19  1  0
 13 12  2  0
 15 14  1  6
 16 15  1  0
 17 15  1  0
 18 17  1  1
 18 20  1  0
 19 18  1  0
 20 21  1  0
 22 20  2  0
M  END
$$$$
