TCL.pdb
     RDKit          3D

 22 21  0  0  1  0  0  0  0  0999 V2000
   16.0953   -7.5981  -14.6537 C   0  0  0  0  0  0  0  0  0  0  0  0
   17.1781   -8.6257  -14.6867 C   0  0  1  0  0  0  0  0  0  0  0  0
   17.7810   -8.7125  -15.9588 O   0  0  0  0  0  0  0  0  0  0  0  0
   18.2753   -8.4098  -13.6968 C   0  0  2  0  0  0  0  0  0  0  0  0
   19.3703   -9.3165  -13.8446 N   0  0  0  0  0  0  0  0  0  0  0  0
   17.6990   -8.4508  -12.3106 C   0  0  0  0  0  0  0  0  0  0  0  0
   17.5151   -9.5380  -11.7084 O   0  0  0  0  0  0  0  0  0  0  0  0
   17.3315   -7.2591  -11.6082 N   0  0  0  0  0  0  0  0  0  0  0  0
   16.7144   -7.2797  -10.3120 C   0  0  1  0  0  0  0  0  0  0  0  0
   17.0711   -6.0882   -9.4632 C   0  0  0  0  0  0  0  0  0  0  0  0
   16.3310   -6.2388   -7.8147 S   0  0  0  0  0  0  0  0  0  0  0  0
   15.2460   -7.4964  -10.3851 C   0  0  0  0  0  0  0  0  0  0  0  0
   14.5518   -6.7845  -11.1686 O   0  0  0  0  0  0  0  0  0  0  0  0
   12.8313  -12.6164   -9.6595 C   0  0  0  0  0  0  0  0  0  0  0  0
   13.1016  -11.2360  -10.1308 C   0  0  1  0  0  0  0  0  0  0  0  0
   12.4560  -11.0888  -11.5209 C   0  0  0  0  0  0  0  0  0  0  0  0
   12.8371  -10.0902   -9.2720 C   0  0  0  0  0  0  0  0  0  0  0  0
   13.1177   -8.7194   -9.7224 C   0  0  2  0  0  0  0  0  0  0  0  0
   14.5814   -8.4612   -9.6212 N   0  0  0  0  0  0  0  0  0  0  0  0
   12.5199   -7.6819   -8.9185 C   0  0  0  0  0  0  0  0  0  0  0  0
   13.2659   -6.7959   -8.1858 O   0  0  0  0  0  0  0  0  0  0  0  0
   11.2764   -7.5521   -8.8504 O   0  0  0  0  0  0  0  0  0  0  0  0
  2  1  1  6
  2  3  1  0
  2  4  1  0
  4  5  1  1
  6  4  1  0
  7  6  2  0
  8  6  1  0
  9  8  1  0
  9 12  1  0
  9 10  1  6
 11 10  1  0
 12 19  1  0
 13 12  2  0
 15 14  1  1
 16 15  1  0
 17 15  1  0
 18 17  1  1
 18 20  1  0
 19 18  1  0
 20 21  1  0
 22 20  2  0
M  END
$$$$
