PSK.pdb
     RDKit          3D

 23 23  0  0  1  0  0  0  0  0999 V2000
   23.1967  -13.5713  -16.3881 N   0  0  0  0  0  0  0  0  0  0  0  0
   24.4518  -13.0747  -16.8923 C   0  0  0  0  0  0  0  0  0  0  0  0
   25.0835  -12.2427  -15.8175 C   0  0  0  0  0  0  0  0  0  0  0  0
   24.2777  -12.6519  -14.5826 C   0  0  0  0  0  0  0  0  0  0  0  0
   22.8989  -12.8188  -15.1927 C   0  0  1  0  0  0  0  0  0  0  0  0
   22.3938  -11.4852  -15.5707 C   0  0  0  0  0  0  0  0  0  0  0  0
   22.6319  -11.0647  -16.7355 O   0  0  0  0  0  0  0  0  0  0  0  0
   18.7267  -10.5022  -14.9145 O   0  0  0  0  0  0  0  0  0  0  0  0
   19.5815   -9.5308  -14.4034 C   0  0  0  0  0  0  0  0  0  0  0  0
   20.9238   -9.5406  -15.0985 C   0  0  2  0  0  0  0  0  0  0  0  0
   21.6481  -10.6819  -14.6365 N   0  0  0  0  0  0  0  0  0  0  0  0
   21.6613   -8.2726  -14.9078 C   0  0  0  0  0  0  0  0  0  0  0  0
   22.4489   -8.1645  -13.9096 O   0  0  0  0  0  0  0  0  0  0  0  0
   21.5723   -7.1586  -15.7392 N   0  0  0  0  0  0  0  0  0  0  0  0
   22.3931   -5.9663  -15.5606 C   0  0  1  0  0  0  0  0  0  0  0  0
   22.3927   -5.0907  -16.7398 C   0  0  0  0  0  0  0  0  0  0  0  0
   23.1815   -3.8381  -16.5324 C   0  0  0  0  0  0  0  0  0  0  0  0
   23.1104   -2.8817  -17.6939 C   0  0  0  0  0  0  0  0  0  0  0  0
   23.8600   -1.6209  -17.2592 C   0  0  0  0  0  0  0  0  0  0  0  0
   23.7011   -0.5612  -18.2317 N   0  0  0  0  0  0  0  0  0  0  0  0
   21.8791   -5.2999  -14.3577 C   0  0  0  0  0  0  0  0  0  0  0  0
   22.7253   -4.7037  -13.4332 O   0  0  0  0  0  0  0  0  0  0  0  0
   20.6595   -5.2439  -14.1193 O   0  0  0  0  0  0  0  0  0  0  0  0
  1  5  1  0
  1  2  1  0
  2  3  1  0
  3  4  1  0
  5  6  1  6
  5  4  1  0
  6 11  1  0
  7  6  2  0
  8  9  1  0
 10  9  1  1
 10 12  1  0
 11 10  1  0
 12 13  2  0
 12 14  1  0
 14 15  1  0
 15 16  1  6
 15 21  1  0
 17 16  1  0
 17 18  1  0
 18 19  1  0
 19 20  1  0
 21 22  1  0
 23 21  2  0
M  END
$$$$
