PSK.pdb
     RDKit          3D

 23 23  0  0  1  0  0  0  0  0999 V2000
   31.4638  -21.0479   -8.4813 N   0  0  0  0  0  0  0  0  0  0  0  0
   31.6615  -22.3187   -7.8315 C   0  0  0  0  0  0  0  0  0  0  0  0
   31.3835  -23.3973   -8.8343 C   0  0  0  0  0  0  0  0  0  0  0  0
   31.4116  -22.6215  -10.1531 C   0  0  0  0  0  0  0  0  0  0  0  0
   30.7738  -21.3148   -9.7209 C   0  0  1  0  0  0  0  0  0  0  0  0
   29.3474  -21.5651   -9.4394 C   0  0  0  0  0  0  0  0  0  0  0  0
   28.7740  -22.5059  -10.0529 O   0  0  0  0  0  0  0  0  0  0  0  0
   27.0767  -18.7697   -7.2359 O   0  0  0  0  0  0  0  0  0  0  0  0
   26.7645  -20.1229   -7.1546 C   0  0  0  0  0  0  0  0  0  0  0  0
   27.2058  -20.8772   -8.3880 C   0  0  2  0  0  0  0  0  0  0  0  0
   28.6257  -20.7582   -8.4897 N   0  0  0  0  0  0  0  0  0  0  0  0
   26.4994  -20.4208   -9.6049 C   0  0  0  0  0  0  0  0  0  0  0  0
   26.8376  -19.3083  -10.1304 O   0  0  0  0  0  0  0  0  0  0  0  0
   25.4735  -21.1122  -10.2451 N   0  0  0  0  0  0  0  0  0  0  0  0
   24.8284  -20.6296  -11.4610 C   0  0  1  0  0  0  0  0  0  0  0  0
   25.0352  -21.5210  -12.6097 C   0  0  0  0  0  0  0  0  0  0  0  0
   24.3240  -21.0567  -13.8397 C   0  0  0  0  0  0  0  0  0  0  0  0
   24.4858  -21.9837  -15.0157 C   0  0  0  0  0  0  0  0  0  0  0  0
   23.7929  -21.3034  -16.1980 C   0  0  0  0  0  0  0  0  0  0  0  0
   23.8457  -22.1364  -17.3800 N   0  0  0  0  0  0  0  0  0  0  0  0
   23.4101  -20.4575  -11.1231 C   0  0  0  0  0  0  0  0  0  0  0  0
   22.8882  -20.8919   -9.9128 O   0  0  0  0  0  0  0  0  0  0  0  0
   22.6176  -19.9132  -11.9125 O   0  0  0  0  0  0  0  0  0  0  0  0
  1  5  1  0
  1  2  1  0
  2  3  1  0
  3  4  1  0
  5  6  1  1
  5  4  1  0
  6 11  1  0
  7  6  2  0
  8  9  1  0
 10  9  1  1
 10 12  1  0
 11 10  1  0
 12 13  2  0
 12 14  1  0
 14 15  1  0
 15 16  1  6
 15 21  1  0
 17 16  1  0
 17 18  1  0
 18 19  1  0
 19 20  1  0
 21 22  1  0
 23 21  2  0
M  END
$$$$
