PSK.pdb
     RDKit          3D

 23 23  0  0  1  0  0  0  0  0999 V2000
   25.0441  -12.0133  -16.7545 N   0  0  0  0  0  0  0  0  0  0  0  0
   24.9517  -12.6845  -15.4829 C   0  0  0  0  0  0  0  0  0  0  0  0
   23.7826  -13.6205  -15.5395 C   0  0  0  0  0  0  0  0  0  0  0  0
   23.5047  -13.6928  -17.0427 C   0  0  0  0  0  0  0  0  0  0  0  0
   23.8040  -12.2627  -17.4501 C   0  0  1  0  0  0  0  0  0  0  0  0
   22.7509  -11.3914  -16.8945 C   0  0  0  0  0  0  0  0  0  0  0  0
   21.5556  -11.6107  -17.2312 O   0  0  0  0  0  0  0  0  0  0  0  0
   21.3752   -8.2458  -13.5581 O   0  0  0  0  0  0  0  0  0  0  0  0
   22.3743   -9.0373  -14.1157 C   0  0  0  0  0  0  0  0  0  0  0  0
   22.0498   -9.4336  -15.5379 C   0  0  2  0  0  0  0  0  0  0  0  0
   23.0760  -10.3179  -15.9912 N   0  0  0  0  0  0  0  0  0  0  0  0
   21.8695   -8.2587  -16.4183 C   0  0  0  0  0  0  0  0  0  0  0  0
   22.9024   -7.7080  -16.9265 O   0  0  0  0  0  0  0  0  0  0  0  0
   20.6448   -7.6849  -16.7514 N   0  0  0  0  0  0  0  0  0  0  0  0
   20.5263   -6.4884  -17.5771 C   0  0  1  0  0  0  0  0  0  0  0  0
   19.1732   -6.2976  -18.1154 C   0  0  0  0  0  0  0  0  0  0  0  0
   19.0930   -5.1742  -19.0982 C   0  0  0  0  0  0  0  0  0  0  0  0
   17.7108   -4.9599  -19.6572 C   0  0  0  0  0  0  0  0  0  0  0  0
   17.8418   -3.8680  -20.7208 C   0  0  0  0  0  0  0  0  0  0  0  0
   16.5966   -3.6876  -21.4356 N   0  0  0  0  0  0  0  0  0  0  0  0
   20.9648   -5.3709  -16.7321 C   0  0  0  0  0  0  0  0  0  0  0  0
   21.6399   -4.2777  -17.2567 O   0  0  0  0  0  0  0  0  0  0  0  0
   20.7471   -5.3606  -15.5074 O   0  0  0  0  0  0  0  0  0  0  0  0
  1  5  1  0
  1  2  1  0
  2  3  1  0
  3  4  1  0
  5  6  1  1
  5  4  1  0
  6 11  1  0
  7  6  2  0
  8  9  1  0
 10  9  1  1
 10 12  1  0
 11 10  1  0
 12 13  2  0
 12 14  1  0
 14 15  1  0
 15 16  1  1
 15 21  1  0
 17 16  1  0
 17 18  1  0
 18 19  1  0
 19 20  1  0
 21 22  1  0
 23 21  2  0
M  END
$$$$
