PSK.pdb
     RDKit          3D

 23 23  0  0  1  0  0  0  0  0999 V2000
   20.9969  -10.3147  -15.4980 N   0  0  0  0  0  0  0  0  0  0  0  0
   19.7658  -11.0228  -15.2550 C   0  0  0  0  0  0  0  0  0  0  0  0
   18.6314  -10.1140  -15.6201 C   0  0  0  0  0  0  0  0  0  0  0  0
   19.3401   -9.0326  -16.4388 C   0  0  0  0  0  0  0  0  0  0  0  0
   20.6508   -8.9254  -15.6828 C   0  0  1  0  0  0  0  0  0  0  0  0
   20.3799   -8.3127  -14.3683 C   0  0  0  0  0  0  0  0  0  0  0  0
   19.8719   -9.0335  -13.4669 O   0  0  0  0  0  0  0  0  0  0  0  0
   21.1973   -4.5204  -11.4630 O   0  0  0  0  0  0  0  0  0  0  0  0
   21.2539   -5.0792  -12.7358 C   0  0  0  0  0  0  0  0  0  0  0  0
   20.4866   -6.3793  -12.8141 C   0  0  2  0  0  0  0  0  0  0  0  0
   20.6864   -6.9280  -14.1178 N   0  0  0  0  0  0  0  0  0  0  0  0
   19.0577   -6.2064  -12.4730 C   0  0  0  0  0  0  0  0  0  0  0  0
   18.2416   -5.8753  -13.3965 O   0  0  0  0  0  0  0  0  0  0  0  0
   18.5083   -6.3767  -11.2044 N   0  0  0  0  0  0  0  0  0  0  0  0
   17.0740   -6.3206  -10.9457 C   0  0  1  0  0  0  0  0  0  0  0  0
   16.6261   -7.3399   -9.9877 C   0  0  0  0  0  0  0  0  0  0  0  0
   15.1503   -7.3066   -9.7529 C   0  0  0  0  0  0  0  0  0  0  0  0
   14.6753   -8.3310   -8.7562 C   0  0  0  0  0  0  0  0  0  0  0  0
   13.1579   -8.1625   -8.6564 C   0  0  0  0  0  0  0  0  0  0  0  0
   12.5991   -9.0639   -7.6721 N   0  0  0  0  0  0  0  0  0  0  0  0
   16.8003   -4.9524  -10.4893 C   0  0  0  0  0  0  0  0  0  0  0  0
   15.5816   -4.3320  -10.7259 O   0  0  0  0  0  0  0  0  0  0  0  0
   17.6543   -4.2931   -9.8702 O   0  0  0  0  0  0  0  0  0  0  0  0
  1  5  1  0
  1  2  1  0
  2  3  1  0
  3  4  1  0
  5  6  1  1
  5  4  1  0
  6 11  1  0
  7  6  2  0
  8  9  1  0
 10  9  1  6
 10 12  1  0
 11 10  1  0
 12 13  2  0
 12 14  1  0
 14 15  1  0
 15 16  1  1
 15 21  1  0
 17 16  1  0
 17 18  1  0
 18 19  1  0
 19 20  1  0
 21 22  1  0
 23 21  2  0
M  END
$$$$
