PSK.pdb
     RDKit          3D

 23 23  0  0  1  0  0  0  0  0999 V2000
   22.1995  -20.5836  -12.6514 N   0  0  0  0  0  0  0  0  0  0  0  0
   20.9744  -20.6824  -13.4035 C   0  0  0  0  0  0  0  0  0  0  0  0
   19.9345  -19.8637  -12.7004 C   0  0  0  0  0  0  0  0  0  0  0  0
   20.7845  -19.0131  -11.7540 C   0  0  0  0  0  0  0  0  0  0  0  0
   21.8585  -20.0131  -11.3699 C   0  0  1  0  0  0  0  0  0  0  0  0
   21.2434  -21.0527  -10.5228 C   0  0  0  0  0  0  0  0  0  0  0  0
   20.6567  -22.0144  -11.0894 O   0  0  0  0  0  0  0  0  0  0  0  0
   21.9428  -20.7059   -6.5607 O   0  0  0  0  0  0  0  0  0  0  0  0
   21.9599  -22.0090   -7.0475 C   0  0  0  0  0  0  0  0  0  0  0  0
   21.1257  -22.1527   -8.2999 C   0  0  2  0  0  0  0  0  0  0  0  0
   21.3095  -20.9744   -9.0863 N   0  0  0  0  0  0  0  0  0  0  0  0
   19.7045  -22.4285   -7.9963 C   0  0  0  0  0  0  0  0  0  0  0  0
   18.8704  -21.4634   -8.0324 O   0  0  0  0  0  0  0  0  0  0  0  0
   19.1809  -23.6765   -7.6668 N   0  0  0  0  0  0  0  0  0  0  0  0
   17.7834  -23.8808   -7.3027 C   0  0  1  0  0  0  0  0  0  0  0  0
   17.0861  -24.8027   -8.2088 C   0  0  0  0  0  0  0  0  0  0  0  0
   16.8360  -24.2111   -9.5585 C   0  0  0  0  0  0  0  0  0  0  0  0
   16.0357  -25.1047  -10.4694 C   0  0  0  0  0  0  0  0  0  0  0  0
   17.0414  -25.7715  -11.4099 C   0  0  0  0  0  0  0  0  0  0  0  0
   16.3763  -26.6707  -12.3280 N   0  0  0  0  0  0  0  0  0  0  0  0
   17.7941  -24.3504   -5.9118 C   0  0  0  0  0  0  0  0  0  0  0  0
   18.9772  -24.6373   -5.2454 O   0  0  0  0  0  0  0  0  0  0  0  0
   16.7383  -24.5100   -5.2739 O   0  0  0  0  0  0  0  0  0  0  0  0
  1  5  1  0
  1  2  1  0
  2  3  1  0
  3  4  1  0
  5  6  1  1
  5  4  1  0
  6 11  1  0
  7  6  2  0
  8  9  1  0
 10  9  1  1
 10 12  1  0
 11 10  1  0
 12 13  2  0
 12 14  1  0
 14 15  1  0
 15 16  1  6
 15 21  1  0
 17 16  1  0
 17 18  1  0
 18 19  1  0
 19 20  1  0
 21 22  1  0
 23 21  2  0
M  END
$$$$
