PSK.pdb
     RDKit          3D

 23 23  0  0  1  0  0  0  0  0999 V2000
   17.1953  -14.8689  -16.4258 N   0  0  0  0  0  0  0  0  0  0  0  0
   17.9623  -15.2979  -17.5677 C   0  0  0  0  0  0  0  0  0  0  0  0
   19.4021  -14.9766  -17.3030 C   0  0  0  0  0  0  0  0  0  0  0  0
   19.3981  -14.7138  -15.7954 C   0  0  0  0  0  0  0  0  0  0  0  0
   18.0577  -14.0215  -15.6372 C   0  0  1  0  0  0  0  0  0  0  0  0
   18.1442  -12.6917  -16.2703 C   0  0  0  0  0  0  0  0  0  0  0  0
   18.5480  -12.6236  -17.4630 O   0  0  0  0  0  0  0  0  0  0  0  0
   16.3772   -9.3879  -14.4858 O   0  0  0  0  0  0  0  0  0  0  0  0
   16.5873   -9.4671  -15.8588 C   0  0  0  0  0  0  0  0  0  0  0  0
   17.8507  -10.2275  -16.1916 C   0  0  2  0  0  0  0  0  0  0  0  0
   17.7780  -11.5008  -15.5482 N   0  0  0  0  0  0  0  0  0  0  0  0
   19.0698   -9.4692  -15.8353 C   0  0  0  0  0  0  0  0  0  0  0  0
   19.6175   -9.6840  -14.7030 O   0  0  0  0  0  0  0  0  0  0  0  0
   19.6895   -8.5188  -16.6433 N   0  0  0  0  0  0  0  0  0  0  0  0
   20.8678   -7.7675  -16.2256 C   0  0  1  0  0  0  0  0  0  0  0  0
   21.5523   -7.1092  -17.3459 C   0  0  0  0  0  0  0  0  0  0  0  0
   22.7860   -6.3786  -16.9234 C   0  0  0  0  0  0  0  0  0  0  0  0
   23.5334   -5.7456  -18.0677 C   0  0  0  0  0  0  0  0  0  0  0  0
   24.7763   -5.0922  -17.4604 C   0  0  0  0  0  0  0  0  0  0  0  0
   25.5298   -4.3750  -18.4662 N   0  0  0  0  0  0  0  0  0  0  0  0
   20.4003   -6.8181  -15.2081 C   0  0  0  0  0  0  0  0  0  0  0  0
   21.1684   -6.4988  -14.0972 O   0  0  0  0  0  0  0  0  0  0  0  0
   19.2924   -6.2606  -15.3029 O   0  0  0  0  0  0  0  0  0  0  0  0
  1  5  1  0
  1  2  1  0
  2  3  1  0
  3  4  1  0
  5  6  1  6
  5  4  1  0
  6 11  1  0
  7  6  2  0
  8  9  1  0
 10  9  1  1
 10 12  1  0
 11 10  1  0
 12 13  2  0
 12 14  1  0
 14 15  1  0
 15 16  1  6
 15 21  1  0
 17 16  1  0
 17 18  1  0
 18 19  1  0
 19 20  1  0
 21 22  1  0
 23 21  2  0
M  END
$$$$
