PSK.pdb
     RDKit          3D

 23 23  0  0  1  0  0  0  0  0999 V2000
   26.1887  -20.8815  -17.3613 N   0  0  0  0  0  0  0  0  0  0  0  0
   27.1437  -20.0375  -16.6890 C   0  0  0  0  0  0  0  0  0  0  0  0
   28.0779  -20.9209  -15.9190 C   0  0  0  0  0  0  0  0  0  0  0  0
   27.8027  -22.2929  -16.5386 C   0  0  0  0  0  0  0  0  0  0  0  0
   26.3077  -22.1959  -16.7765 C   0  0  1  0  0  0  0  0  0  0  0  0
   25.6274  -22.2094  -15.4674 C   0  0  0  0  0  0  0  0  0  0  0  0
   25.8771  -23.1576  -14.6746 O   0  0  0  0  0  0  0  0  0  0  0  0
   22.9402  -19.1215  -14.2323 O   0  0  0  0  0  0  0  0  0  0  0  0
   23.7114  -19.8858  -13.3626 C   0  0  0  0  0  0  0  0  0  0  0  0
   23.9444  -21.2810  -13.8955 C   0  0  2  0  0  0  0  0  0  0  0  0
   24.7018  -21.1685  -15.1015 N   0  0  0  0  0  0  0  0  0  0  0  0
   22.6810  -22.0292  -14.0747 C   0  0  0  0  0  0  0  0  0  0  0  0
   22.1155  -22.0144  -15.2186 O   0  0  0  0  0  0  0  0  0  0  0  0
   22.0367  -22.7668  -13.0842 N   0  0  0  0  0  0  0  0  0  0  0  0
   20.7612  -23.4408  -13.2985 C   0  0  1  0  0  0  0  0  0  0  0  0
   20.4536  -24.4267  -12.2542 C   0  0  0  0  0  0  0  0  0  0  0  0
   19.2189  -25.2164  -12.5476 C   0  0  0  0  0  0  0  0  0  0  0  0
   18.8051  -26.1283  -11.4224 C   0  0  0  0  0  0  0  0  0  0  0  0
   17.5389  -26.8459  -11.8941 C   0  0  0  0  0  0  0  0  0  0  0  0
   17.0966  -27.8155  -10.9154 N   0  0  0  0  0  0  0  0  0  0  0  0
   19.7538  -22.3768  -13.3902 C   0  0  0  0  0  0  0  0  0  0  0  0
   19.8269  -21.2307  -12.6109 O   0  0  0  0  0  0  0  0  0  0  0  0
   18.7913  -22.4618  -14.1735 O   0  0  0  0  0  0  0  0  0  0  0  0
  1  5  1  0
  1  2  1  0
  2  3  1  0
  3  4  1  0
  5  6  1  1
  5  4  1  0
  6 11  1  0
  7  6  2  0
  8  9  1  0
 10  9  1  6
 10 12  1  0
 11 10  1  0
 12 13  2  0
 12 14  1  0
 14 15  1  0
 15 16  1  1
 15 21  1  0
 17 16  1  0
 17 18  1  0
 18 19  1  0
 19 20  1  0
 21 22  1  0
 23 21  2  0
M  END
$$$$
