PSK.pdb
     RDKit          3D

 23 23  0  0  1  0  0  0  0  0999 V2000
   25.7617  -12.6044  -16.6581 N   0  0  0  0  0  0  0  0  0  0  0  0
   26.3788  -11.7466  -17.6376 C   0  0  0  0  0  0  0  0  0  0  0  0
   26.9916  -10.5862  -16.9135 C   0  0  0  0  0  0  0  0  0  0  0  0
   27.0028  -11.0835  -15.4663 C   0  0  0  0  0  0  0  0  0  0  0  0
   25.6967  -11.8539  -15.4267 C   0  0  1  0  0  0  0  0  0  0  0  0
   24.5849  -10.8873  -15.5042 C   0  0  0  0  0  0  0  0  0  0  0  0
   24.0787  -10.6491  -16.6343 O   0  0  0  0  0  0  0  0  0  0  0  0
   21.5197  -10.8599  -12.9207 O   0  0  0  0  0  0  0  0  0  0  0  0
   22.1778   -9.6397  -13.0376 C   0  0  0  0  0  0  0  0  0  0  0  0
   22.8642   -9.4968  -14.3768 C   0  0  2  0  0  0  0  0  0  0  0  0
   24.0883  -10.2311  -14.3223 N   0  0  0  0  0  0  0  0  0  0  0  0
   23.0568   -8.0806  -14.7579 C   0  0  0  0  0  0  0  0  0  0  0  0
   24.1825   -7.5285  -14.5206 O   0  0  0  0  0  0  0  0  0  0  0  0
   22.0977   -7.2751  -15.3674 N   0  0  0  0  0  0  0  0  0  0  0  0
   22.3684   -5.9106  -15.8060 C   0  0  1  0  0  0  0  0  0  0  0  0
   21.4140   -5.4354  -16.8161 C   0  0  0  0  0  0  0  0  0  0  0  0
   21.6784   -4.0290  -17.2476 C   0  0  0  0  0  0  0  0  0  0  0  0
   20.6874   -3.5118  -18.2572 C   0  0  0  0  0  0  0  0  0  0  0  0
   21.1262   -2.0866  -18.5993 C   0  0  0  0  0  0  0  0  0  0  0  0
   20.1933   -1.4610  -19.5115 N   0  0  0  0  0  0  0  0  0  0  0  0
   22.3652   -5.0886  -14.5897 C   0  0  0  0  0  0  0  0  0  0  0  0
   23.2319   -4.0166  -14.4286 O   0  0  0  0  0  0  0  0  0  0  0  0
   21.5819   -5.3222  -13.6520 O   0  0  0  0  0  0  0  0  0  0  0  0
  1  5  1  0
  1  2  1  0
  2  3  1  0
  3  4  1  0
  5  6  1  6
  5  4  1  0
  6 11  1  0
  7  6  2  0
  8  9  1  0
 10  9  1  1
 10 12  1  0
 11 10  1  0
 12 13  2  0
 12 14  1  0
 14 15  1  0
 15 16  1  6
 15 21  1  0
 17 16  1  0
 17 18  1  0
 18 19  1  0
 19 20  1  0
 21 22  1  0
 23 21  2  0
M  END
$$$$
