KEW.pdb
     RDKit          3D

 33 34  0  0  1  0  0  0  0  0999 V2000
   21.5753  -17.4137  -16.3797 N   0  0  0  0  0  0  0  0  0  0  0  0
   22.9142  -17.7644  -16.0260 C   0  0  1  0  0  0  0  0  0  0  0  0
   23.7907  -16.5561  -16.0569 C   0  0  0  0  0  0  0  0  0  0  0  0
   24.0329  -15.9810  -17.4091 C   0  0  0  0  0  0  0  0  0  0  0  0
   25.0849  -16.6993  -18.2054 C   0  0  0  0  0  0  0  0  0  0  0  0
   25.2735  -16.0724  -19.5737 C   0  0  0  0  0  0  0  0  0  0  0  0
   26.2953  -16.8244  -20.2714 N   0  0  0  0  0  0  0  0  0  0  0  0
   23.0300  -18.3433  -14.6623 C   0  0  0  0  0  0  0  0  0  0  0  0
   22.5306  -17.6624  -13.7140 O   0  0  0  0  0  0  0  0  0  0  0  0
   23.6372  -19.5624  -14.3451 N   0  0  0  0  0  0  0  0  0  0  0  0
   23.8059  -20.0388  -12.9684 C   0  0  1  0  0  0  0  0  0  0  0  0
   23.1608  -21.3789  -12.9035 C   0  0  0  0  0  0  0  0  0  0  0  0
   21.6605  -21.3634  -12.8660 C   0  0  0  0  0  0  0  0  0  0  0  0
   21.1715  -20.9869  -11.5377 C   0  0  0  0  0  0  0  0  0  0  0  0
   21.6297  -21.4226  -10.4843 O   0  0  0  0  0  0  0  0  0  0  0  0
   25.2512  -20.0854  -12.6070 C   0  0  0  0  0  0  0  0  0  0  0  0
   26.1104  -19.8779  -13.4939 O   0  0  0  0  0  0  0  0  0  0  0  0
   20.1177  -20.0756  -11.4533 O   0  0  0  0  0  0  0  0  0  0  0  0
   25.6974  -20.3573  -11.2877 N   0  0  0  0  0  0  0  0  0  0  0  0
   27.0303  -20.3298  -10.8036 C   0  0  1  0  0  0  0  0  0  0  0  0
   27.3274  -19.4671   -9.6432 C   0  0  0  0  0  0  0  0  0  0  0  0
   26.8470  -19.9163   -8.3367 C   0  0  0  0  0  0  0  0  0  0  0  0
   25.7123  -20.5845   -7.9608 C   0  0  0  0  0  0  0  0  0  0  0  0
   25.7263  -20.7660   -6.6200 N   0  0  0  0  0  0  0  0  0  0  0  0
   26.8598  -20.2189   -6.1386 C   0  0  0  0  0  0  0  0  0  0  0  0
   27.3607  -20.1280   -4.8470 C   0  0  0  0  0  0  0  0  0  0  0  0
   28.5618  -19.5080   -4.6147 C   0  0  0  0  0  0  0  0  0  0  0  0
   29.2948  -18.9649   -5.6462 C   0  0  0  0  0  0  0  0  0  0  0  0
   28.7999  -19.0547   -6.9230 C   0  0  0  0  0  0  0  0  0  0  0  0
   27.5889  -19.6777   -7.1718 C   0  0  0  0  0  0  0  0  0  0  0  0
   27.5747  -21.7083  -10.4609 C   0  0  0  0  0  0  0  0  0  0  0  0
   26.8127  -22.6711  -10.3542 O   0  0  0  0  0  0  0  0  0  0  0  0
   28.9426  -21.8444  -10.2735 O   0  0  0  0  0  0  0  0  0  0  0  0
  2  1  1  1
  3  2  1  0
  4  3  1  0
  5  4  1  0
  6  5  1  0
  7  6  1  0
  8  2  1  0
  8  9  2  0
 10  8  1  0
 11 10  1  0
 11 12  1  6
 13 12  1  0
 13 14  1  0
 14 18  1  0
 14 15  2  0
 16 11  1  0
 17 16  2  0
 19 16  1  0
 20 21  1  1
 20 19  1  0
 21 22  1  0
 22 23  2  0
 23 24  1  0
 25 24  1  0
 26 25  2  0
 27 26  1  0
 28 29  1  0
 28 27  2  0
 29 30  2  0
 30 22  1  0
 30 25  1  0
 31 33  1  0
 31 20  1  0
 32 31  2  0
M  END
$$$$
