KEW.pdb
     RDKit          3D

 33 34  0  0  1  0  0  0  0  0999 V2000
   28.9203  -22.9429  -18.4687 N   0  0  0  0  0  0  0  0  0  0  0  0
   29.5754  -23.2855  -17.2462 C   0  0  1  0  0  0  0  0  0  0  0  0
   31.0551  -23.1594  -17.3993 C   0  0  0  0  0  0  0  0  0  0  0  0
   31.6988  -24.2073  -18.2392 C   0  0  0  0  0  0  0  0  0  0  0  0
   31.0867  -25.5720  -18.0993 C   0  0  0  0  0  0  0  0  0  0  0  0
   31.8562  -26.6122  -18.8909 C   0  0  0  0  0  0  0  0  0  0  0  0
   33.2232  -26.6136  -18.4141 N   0  0  0  0  0  0  0  0  0  0  0  0
   29.1864  -22.4149  -16.1064 C   0  0  0  0  0  0  0  0  0  0  0  0
   29.9068  -22.4922  -15.0636 O   0  0  0  0  0  0  0  0  0  0  0  0
   28.1044  -21.5293  -16.0918 N   0  0  0  0  0  0  0  0  0  0  0  0
   27.7758  -20.6854  -14.9382 C   0  0  1  0  0  0  0  0  0  0  0  0
   27.0894  -19.4801  -15.4790 C   0  0  0  0  0  0  0  0  0  0  0  0
   27.9444  -18.5871  -16.3300 C   0  0  0  0  0  0  0  0  0  0  0  0
   27.1781  -17.4411  -16.8247 C   0  0  0  0  0  0  0  0  0  0  0  0
   25.9623  -17.3172  -16.6986 O   0  0  0  0  0  0  0  0  0  0  0  0
   26.9278  -21.4358  -13.9689 C   0  0  0  0  0  0  0  0  0  0  0  0
   26.4896  -22.5651  -14.2861 O   0  0  0  0  0  0  0  0  0  0  0  0
   27.8645  -16.4195  -17.4830 O   0  0  0  0  0  0  0  0  0  0  0  0
   26.5940  -20.9187  -12.6904 N   0  0  0  0  0  0  0  0  0  0  0  0
   25.9345  -21.5928  -11.6311 C   0  0  1  0  0  0  0  0  0  0  0  0
   26.7061  -21.8776  -10.4052 C   0  0  0  0  0  0  0  0  0  0  0  0
   26.6595  -20.8771   -9.3392 C   0  0  0  0  0  0  0  0  0  0  0  0
   25.7300  -19.9228   -9.0220 C   0  0  0  0  0  0  0  0  0  0  0  0
   26.1522  -19.2339   -7.9366 N   0  0  0  0  0  0  0  0  0  0  0  0
   27.3426  -19.7407   -7.5601 C   0  0  0  0  0  0  0  0  0  0  0  0
   28.1990  -19.4026   -6.5211 C   0  0  0  0  0  0  0  0  0  0  0  0
   29.3765  -20.0841   -6.3477 C   0  0  0  0  0  0  0  0  0  0  0  0
   29.7364  -21.1112   -7.1914 C   0  0  0  0  0  0  0  0  0  0  0  0
   28.8900  -21.4458   -8.2185 C   0  0  0  0  0  0  0  0  0  0  0  0
   27.6984  -20.7662   -8.4050 C   0  0  0  0  0  0  0  0  0  0  0  0
   24.6573  -20.9006  -11.1799 C   0  0  0  0  0  0  0  0  0  0  0  0
   24.4858  -19.7007  -11.4030 O   0  0  0  0  0  0  0  0  0  0  0  0
   23.7021  -21.6563  -10.5155 O   0  0  0  0  0  0  0  0  0  0  0  0
  2  1  1  6
  3  2  1  0
  4  3  1  0
  5  4  1  0
  6  5  1  0
  7  6  1  0
  8  2  1  0
  8  9  2  0
 10  8  1  0
 11 10  1  0
 11 12  1  6
 13 12  1  0
 13 14  1  0
 14 18  1  0
 14 15  2  0
 16 11  1  0
 17 16  2  0
 19 16  1  0
 20 21  1  1
 20 19  1  0
 21 22  1  0
 22 23  2  0
 23 24  1  0
 25 24  1  0
 26 25  2  0
 27 26  1  0
 28 29  1  0
 28 27  2  0
 29 30  2  0
 30 22  1  0
 30 25  1  0
 31 33  1  0
 31 20  1  0
 32 31  2  0
M  END
$$$$
