KEW.pdb
     RDKit          3D

 33 34  0  0  1  0  0  0  0  0999 V2000
   22.7629  -20.0194  -20.9031 N   0  0  0  0  0  0  0  0  0  0  0  0
   22.0504  -19.7914  -19.6861 C   0  0  1  0  0  0  0  0  0  0  0  0
   20.6036  -20.1134  -19.8656 C   0  0  0  0  0  0  0  0  0  0  0  0
   20.0943  -19.9946  -21.2600 C   0  0  0  0  0  0  0  0  0  0  0  0
   20.8058  -20.8688  -22.2531 C   0  0  0  0  0  0  0  0  0  0  0  0
   20.2062  -20.7390  -23.6404 C   0  0  0  0  0  0  0  0  0  0  0  0
   21.0009  -21.5417  -24.5461 N   0  0  0  0  0  0  0  0  0  0  0  0
   22.5376  -20.6226  -18.5547 C   0  0  0  0  0  0  0  0  0  0  0  0
   21.9771  -20.4336  -17.4311 O   0  0  0  0  0  0  0  0  0  0  0  0
   23.5508  -21.5835  -18.6287 N   0  0  0  0  0  0  0  0  0  0  0  0
   24.0973  -22.2634  -17.4497 C   0  0  1  0  0  0  0  0  0  0  0  0
   24.8460  -23.4471  -17.9545 C   0  0  0  0  0  0  0  0  0  0  0  0
   25.5963  -24.2203  -16.9098 C   0  0  0  0  0  0  0  0  0  0  0  0
   24.7579  -25.2729  -16.3314 C   0  0  0  0  0  0  0  0  0  0  0  0
   23.6217  -25.5396  -16.7153 O   0  0  0  0  0  0  0  0  0  0  0  0
   24.9619  -21.3350  -16.6673 C   0  0  0  0  0  0  0  0  0  0  0  0
   25.6050  -20.4450  -17.2691 O   0  0  0  0  0  0  0  0  0  0  0  0
   25.2743  -26.0262  -15.2760 O   0  0  0  0  0  0  0  0  0  0  0  0
   25.0870  -21.4187  -15.2564 N   0  0  0  0  0  0  0  0  0  0  0  0
   25.8426  -20.5734  -14.4043 C   0  0  1  0  0  0  0  0  0  0  0  0
   25.1122  -19.7546  -13.4168 C   0  0  0  0  0  0  0  0  0  0  0  0
   25.9073  -19.0724  -12.3960 C   0  0  0  0  0  0  0  0  0  0  0  0
   26.7510  -17.9959  -12.4635 C   0  0  0  0  0  0  0  0  0  0  0  0
   27.2560  -17.7485  -11.2328 N   0  0  0  0  0  0  0  0  0  0  0  0
   26.7417  -18.6583  -10.3822 C   0  0  0  0  0  0  0  0  0  0  0  0
   26.9280  -18.8526   -9.0203 C   0  0  0  0  0  0  0  0  0  0  0  0
   26.2770  -19.8715   -8.3730 C   0  0  0  0  0  0  0  0  0  0  0  0
   25.4299  -20.7199   -9.0504 C   0  0  0  0  0  0  0  0  0  0  0  0
   25.2454  -20.5281  -10.3967 C   0  0  0  0  0  0  0  0  0  0  0  0
   25.8962  -19.5036  -11.0625 C   0  0  0  0  0  0  0  0  0  0  0  0
   26.9244  -21.3111  -13.6300 C   0  0  0  0  0  0  0  0  0  0  0  0
   26.6218  -22.1753  -12.8050 O   0  0  0  0  0  0  0  0  0  0  0  0
   28.2489  -20.9823  -13.8800 O   0  0  0  0  0  0  0  0  0  0  0  0
  2  1  1  6
  3  2  1  0
  4  3  1  0
  5  4  1  0
  6  5  1  0
  7  6  1  0
  8  2  1  0
  8  9  2  0
 10  8  1  0
 11 10  1  0
 11 12  1  6
 13 12  1  0
 13 14  1  0
 14 18  1  0
 14 15  2  0
 16 11  1  0
 17 16  2  0
 19 16  1  0
 20 21  1  1
 20 19  1  0
 21 22  1  0
 22 23  2  0
 23 24  1  0
 25 24  1  0
 26 25  2  0
 27 26  1  0
 28 29  1  0
 28 27  2  0
 29 30  2  0
 30 22  1  0
 30 25  1  0
 31 33  1  0
 31 20  1  0
 32 31  2  0
M  END
$$$$
