KEW.pdb
     RDKit          3D

 33 34  0  0  1  0  0  0  0  0999 V2000
   28.4617  -22.6896  -16.8960 N   0  0  0  0  0  0  0  0  0  0  0  0
   28.1647  -21.3773  -16.4159 C   0  0  1  0  0  0  0  0  0  0  0  0
   27.6089  -20.5369  -17.5177 C   0  0  0  0  0  0  0  0  0  0  0  0
   28.6088  -20.0344  -18.5002 C   0  0  0  0  0  0  0  0  0  0  0  0
   29.0615  -21.0608  -19.4993 C   0  0  0  0  0  0  0  0  0  0  0  0
   29.9950  -20.4595  -20.5326 C   0  0  0  0  0  0  0  0  0  0  0  0
   30.3047  -21.4867  -21.5048 N   0  0  0  0  0  0  0  0  0  0  0  0
   27.1618  -21.3650  -15.3195 C   0  0  0  0  0  0  0  0  0  0  0  0
   26.1538  -22.1232  -15.4659 O   0  0  0  0  0  0  0  0  0  0  0  0
   27.2393  -20.5949  -14.1549 N   0  0  0  0  0  0  0  0  0  0  0  0
   26.2639  -20.6922  -13.0640 C   0  0  1  0  0  0  0  0  0  0  0  0
   26.9520  -20.2028  -11.8378 C   0  0  0  0  0  0  0  0  0  0  0  0
   26.0840  -20.0985  -10.6179 C   0  0  0  0  0  0  0  0  0  0  0  0
   25.4079  -21.3685  -10.3434 C   0  0  0  0  0  0  0  0  0  0  0  0
   25.7942  -22.4594  -10.7558 O   0  0  0  0  0  0  0  0  0  0  0  0
   25.0428  -19.9001  -13.3853 C   0  0  0  0  0  0  0  0  0  0  0  0
   25.1683  -18.7452  -13.8524 O   0  0  0  0  0  0  0  0  0  0  0  0
   24.2499  -21.3479   -9.5646 O   0  0  0  0  0  0  0  0  0  0  0  0
   23.7326  -20.4056  -13.1820 N   0  0  0  0  0  0  0  0  0  0  0  0
   22.5341  -19.9753  -13.8066 C   0  0  1  0  0  0  0  0  0  0  0  0
   22.4885  -19.9626  -15.2820 C   0  0  0  0  0  0  0  0  0  0  0  0
   21.3128  -19.3587  -15.9086 C   0  0  0  0  0  0  0  0  0  0  0  0
   20.6033  -18.2243  -15.6169 C   0  0  0  0  0  0  0  0  0  0  0  0
   19.5842  -18.0979  -16.4980 N   0  0  0  0  0  0  0  0  0  0  0  0
   19.6381  -19.1421  -17.3480 C   0  0  0  0  0  0  0  0  0  0  0  0
   18.8375  -19.4922  -18.4268 C   0  0  0  0  0  0  0  0  0  0  0  0
   19.1066  -20.6285  -19.1459 C   0  0  0  0  0  0  0  0  0  0  0  0
   20.1674  -21.4438  -18.8199 C   0  0  0  0  0  0  0  0  0  0  0  0
   20.9591  -21.0980  -17.7537 C   0  0  0  0  0  0  0  0  0  0  0  0
   20.6989  -19.9538  -17.0191 C   0  0  0  0  0  0  0  0  0  0  0  0
   21.3060  -20.7475  -13.3486 C   0  0  0  0  0  0  0  0  0  0  0  0
   20.1777  -20.3778  -13.6789 O   0  0  0  0  0  0  0  0  0  0  0  0
   21.4959  -21.8693  -12.5546 O   0  0  0  0  0  0  0  0  0  0  0  0
  2  1  1  6
  3  2  1  0
  4  3  1  0
  5  4  1  0
  6  5  1  0
  7  6  1  0
  8  2  1  0
  8  9  2  0
 10  8  1  0
 11 10  1  0
 11 12  1  1
 13 12  1  0
 13 14  1  0
 14 18  1  0
 14 15  2  0
 16 11  1  0
 17 16  2  0
 19 16  1  0
 20 21  1  6
 20 19  1  0
 21 22  1  0
 22 23  2  0
 23 24  1  0
 25 24  1  0
 26 25  2  0
 27 26  1  0
 28 29  1  0
 28 27  2  0
 29 30  2  0
 30 22  1  0
 30 25  1  0
 31 33  1  0
 31 20  1  0
 32 31  2  0
M  END
$$$$
