KEW.pdb
     RDKit          3D

 33 34  0  0  1  0  0  0  0  0999 V2000
   13.4059  -17.8843    3.2392 N   0  0  0  0  0  0  0  0  0  0  0  0
   14.2253  -19.0025    3.5840 C   0  0  1  0  0  0  0  0  0  0  0  0
   15.2019  -19.2849    2.4905 C   0  0  0  0  0  0  0  0  0  0  0  0
   14.7316  -20.2404    1.4495 C   0  0  0  0  0  0  0  0  0  0  0  0
   14.5769  -21.6538    1.9343 C   0  0  0  0  0  0  0  0  0  0  0  0
   14.1968  -22.5923    0.8049 C   0  0  0  0  0  0  0  0  0  0  0  0
   14.0736  -23.9255    1.3558 N   0  0  0  0  0  0  0  0  0  0  0  0
   15.0181  -18.7911    4.8229 C   0  0  0  0  0  0  0  0  0  0  0  0
   15.1530  -17.5894    5.2104 O   0  0  0  0  0  0  0  0  0  0  0  0
   15.6192  -19.7974    5.5855 N   0  0  0  0  0  0  0  0  0  0  0  0
   16.2518  -19.5476    6.8848 C   0  0  1  0  0  0  0  0  0  0  0  0
   16.4425  -20.8786    7.5241 C   0  0  0  0  0  0  0  0  0  0  0  0
   17.0600  -20.8469    8.8916 C   0  0  0  0  0  0  0  0  0  0  0  0
   17.1484  -22.1939    9.4601 C   0  0  0  0  0  0  0  0  0  0  0  0
   16.8396  -23.2191    8.8576 O   0  0  0  0  0  0  0  0  0  0  0  0
   17.5366  -18.8135    6.7059 C   0  0  0  0  0  0  0  0  0  0  0  0
   18.2660  -19.0872    5.7256 O   0  0  0  0  0  0  0  0  0  0  0  0
   17.6117  -22.3313   10.7694 O   0  0  0  0  0  0  0  0  0  0  0  0
   17.9708  -17.8084    7.6085 N   0  0  0  0  0  0  0  0  0  0  0  0
   19.1849  -17.0763    7.5673 C   0  0  1  0  0  0  0  0  0  0  0  0
   19.1419  -15.6442    7.9228 C   0  0  0  0  0  0  0  0  0  0  0  0
   18.7981  -14.7019    6.8582 C   0  0  0  0  0  0  0  0  0  0  0  0
   17.7354  -14.6450    5.9965 C   0  0  0  0  0  0  0  0  0  0  0  0
   17.8774  -13.5715    5.1850 N   0  0  0  0  0  0  0  0  0  0  0  0
   19.0215  -12.9445    5.5221 C   0  0  0  0  0  0  0  0  0  0  0  0
   19.6316  -11.8067    5.0116 C   0  0  0  0  0  0  0  0  0  0  0  0
   20.8182  -11.3646    5.5383 C   0  0  0  0  0  0  0  0  0  0  0  0
   21.4294  -12.0311    6.5767 C   0  0  0  0  0  0  0  0  0  0  0  0
   20.8266  -13.1558    7.0816 C   0  0  0  0  0  0  0  0  0  0  0  0
   19.6287  -13.6132    6.5595 C   0  0  0  0  0  0  0  0  0  0  0  0
   20.2884  -17.6928    8.4136 C   0  0  0  0  0  0  0  0  0  0  0  0
   20.0313  -18.5947    9.2132 O   0  0  0  0  0  0  0  0  0  0  0  0
   21.5801  -17.2110    8.2578 O   0  0  0  0  0  0  0  0  0  0  0  0
  2  1  1  6
  3  2  1  0
  4  3  1  0
  5  4  1  0
  6  5  1  0
  7  6  1  0
  8  2  1  0
  8  9  2  0
 10  8  1  0
 11 10  1  0
 11 12  1  6
 13 12  1  0
 13 14  1  0
 14 18  1  0
 14 15  2  0
 16 11  1  0
 17 16  2  0
 19 16  1  0
 20 21  1  1
 20 19  1  0
 21 22  1  0
 22 23  2  0
 23 24  1  0
 25 24  1  0
 26 25  2  0
 27 26  1  0
 28 29  1  0
 28 27  2  0
 29 30  2  0
 30 22  1  0
 30 25  1  0
 31 33  1  0
 31 20  1  0
 32 31  2  0
M  END
$$$$
