KEW.pdb
     RDKit          3D

 33 34  0  0  1  0  0  0  0  0999 V2000
   26.9546  -18.7721  -16.8951 N   0  0  0  0  0  0  0  0  0  0  0  0
   27.0138  -19.9198  -16.0465 C   0  0  1  0  0  0  0  0  0  0  0  0
   28.4276  -20.2065  -15.6620 C   0  0  0  0  0  0  0  0  0  0  0  0
   29.3325  -20.5657  -16.7890 C   0  0  0  0  0  0  0  0  0  0  0  0
   28.8783  -21.7524  -17.5903 C   0  0  0  0  0  0  0  0  0  0  0  0
   29.8963  -22.8762  -17.5484 C   0  0  0  0  0  0  0  0  0  0  0  0
   29.8340  -23.4850  -16.2363 N   0  0  0  0  0  0  0  0  0  0  0  0
   26.2503  -19.7564  -14.7821 C   0  0  0  0  0  0  0  0  0  0  0  0
   26.2416  -18.5934  -14.2723 O   0  0  0  0  0  0  0  0  0  0  0  0
   25.5500  -20.7685  -14.1183 N   0  0  0  0  0  0  0  0  0  0  0  0
   24.7429  -20.5289  -12.9174 C   0  0  1  0  0  0  0  0  0  0  0  0
   23.4089  -21.1366  -13.1775 C   0  0  0  0  0  0  0  0  0  0  0  0
   22.4274  -21.0286  -12.0472 C   0  0  0  0  0  0  0  0  0  0  0  0
   21.6467  -19.7932  -12.1450 C   0  0  0  0  0  0  0  0  0  0  0  0
   21.3618  -19.2384  -13.2035 O   0  0  0  0  0  0  0  0  0  0  0  0
   25.4088  -21.1112  -11.7178 C   0  0  0  0  0  0  0  0  0  0  0  0
   25.9775  -22.2226  -11.8131 O   0  0  0  0  0  0  0  0  0  0  0  0
   21.1932  -19.2008  -10.9654 O   0  0  0  0  0  0  0  0  0  0  0  0
   25.4252  -20.4518  -10.4614 N   0  0  0  0  0  0  0  0  0  0  0  0
   25.9936  -20.9181   -9.2485 C   0  0  1  0  0  0  0  0  0  0  0  0
   26.8911  -20.0081   -8.5100 C   0  0  0  0  0  0  0  0  0  0  0  0
   27.5652  -20.5476   -7.3293 C   0  0  0  0  0  0  0  0  0  0  0  0
   27.8861  -21.8284   -6.9660 C   0  0  0  0  0  0  0  0  0  0  0  0
   28.5086  -21.8075   -5.7648 N   0  0  0  0  0  0  0  0  0  0  0  0
   28.5865  -20.5247   -5.3596 C   0  0  0  0  0  0  0  0  0  0  0  0
   29.1221  -19.9531   -4.2134 C   0  0  0  0  0  0  0  0  0  0  0  0
   29.0744  -18.5944   -4.0327 C   0  0  0  0  0  0  0  0  0  0  0  0
   28.4996  -17.7700   -4.9740 C   0  0  0  0  0  0  0  0  0  0  0  0
   27.9701  -18.3347   -6.1072 C   0  0  0  0  0  0  0  0  0  0  0  0
   28.0115  -19.7046   -6.3025 C   0  0  0  0  0  0  0  0  0  0  0  0
   24.9574  -21.4021   -8.2453 C   0  0  0  0  0  0  0  0  0  0  0  0
   23.7911  -21.0100   -8.3149 O   0  0  0  0  0  0  0  0  0  0  0  0
   25.3645  -22.2894   -7.2595 O   0  0  0  0  0  0  0  0  0  0  0  0
  2  1  1  6
  3  2  1  0
  4  3  1  0
  5  4  1  0
  6  5  1  0
  7  6  1  0
  8  2  1  0
  8  9  2  0
 10  8  1  0
 11 10  1  0
 11 12  1  6
 13 12  1  0
 13 14  1  0
 14 18  1  0
 14 15  2  0
 16 11  1  0
 17 16  2  0
 19 16  1  0
 20 21  1  1
 20 19  1  0
 21 22  1  0
 22 23  2  0
 23 24  1  0
 25 24  1  0
 26 25  2  0
 27 26  1  0
 28 29  1  0
 28 27  2  0
 29 30  2  0
 30 22  1  0
 30 25  1  0
 31 33  1  0
 31 20  1  0
 32 31  2  0
M  END
$$$$
