KEW.pdb
     RDKit          3D

 33 34  0  0  1  0  0  0  0  0999 V2000
   18.1455  -10.8643  -19.0165 N   0  0  0  0  0  0  0  0  0  0  0  0
   18.5177  -10.5485  -17.6739 C   0  0  1  0  0  0  0  0  0  0  0  0
   19.9065  -11.0216  -17.3972 C   0  0  0  0  0  0  0  0  0  0  0  0
   20.1578  -12.4602  -17.6892 C   0  0  0  0  0  0  0  0  0  0  0  0
   19.5746  -13.4058  -16.6782 C   0  0  0  0  0  0  0  0  0  0  0  0
   19.8514  -14.8520  -17.0425 C   0  0  0  0  0  0  0  0  0  0  0  0
   19.3376  -15.6863  -15.9766 N   0  0  0  0  0  0  0  0  0  0  0  0
   18.4957   -9.0910  -17.3847 C   0  0  0  0  0  0  0  0  0  0  0  0
   19.1120   -8.3420  -18.2040 O   0  0  0  0  0  0  0  0  0  0  0  0
   17.8583   -8.4875  -16.2961 N   0  0  0  0  0  0  0  0  0  0  0  0
   17.7826   -7.0337  -16.1178 C   0  0  1  0  0  0  0  0  0  0  0  0
   16.4152   -6.7420  -15.6063 C   0  0  0  0  0  0  0  0  0  0  0  0
   16.1407   -5.2971  -15.3075 C   0  0  0  0  0  0  0  0  0  0  0  0
   14.7833   -5.1161  -14.7880 C   0  0  0  0  0  0  0  0  0  0  0  0
   14.4705   -5.2606  -13.6087 O   0  0  0  0  0  0  0  0  0  0  0  0
   18.8494   -6.5671  -15.1873 C   0  0  0  0  0  0  0  0  0  0  0  0
   19.3273   -7.3694  -14.3532 O   0  0  0  0  0  0  0  0  0  0  0  0
   13.7739   -4.7570  -15.6824 O   0  0  0  0  0  0  0  0  0  0  0  0
   19.3501   -5.2395  -15.2081 N   0  0  0  0  0  0  0  0  0  0  0  0
   20.7035   -4.8252  -15.1188 C   0  0  1  0  0  0  0  0  0  0  0  0
   21.7011   -5.5373  -15.9416 C   0  0  0  0  0  0  0  0  0  0  0  0
   23.0972   -5.1223  -15.8064 C   0  0  0  0  0  0  0  0  0  0  0  0
   23.8293   -4.7187  -14.7218 C   0  0  0  0  0  0  0  0  0  0  0  0
   25.0914   -4.4339  -15.1179 N   0  0  0  0  0  0  0  0  0  0  0  0
   25.1693   -4.6521  -16.4454 C   0  0  0  0  0  0  0  0  0  0  0  0
   26.2223   -4.5154  -17.3397 C   0  0  0  0  0  0  0  0  0  0  0  0
   26.0419   -4.8057  -18.6679 C   0  0  0  0  0  0  0  0  0  0  0  0
   24.8238   -5.2361  -19.1442 C   0  0  0  0  0  0  0  0  0  0  0  0
   23.7826   -5.3715  -18.2605 C   0  0  0  0  0  0  0  0  0  0  0  0
   23.9508   -5.0819  -16.9172 C   0  0  0  0  0  0  0  0  0  0  0  0
   20.8990   -3.3429  -15.3995 C   0  0  0  0  0  0  0  0  0  0  0  0
   21.3477   -2.5967  -14.5273 O   0  0  0  0  0  0  0  0  0  0  0  0
   20.5584   -2.8636  -16.6562 O   0  0  0  0  0  0  0  0  0  0  0  0
  2  1  1  6
  3  2  1  0
  4  3  1  0
  5  4  1  0
  6  5  1  0
  7  6  1  0
  8  2  1  0
  8  9  2  0
 10  8  1  0
 11 10  1  0
 11 12  1  1
 13 12  1  0
 13 14  1  0
 14 18  1  0
 14 15  2  0
 16 11  1  0
 17 16  2  0
 19 16  1  0
 20 21  1  6
 20 19  1  0
 21 22  1  0
 22 23  2  0
 23 24  1  0
 25 24  1  0
 26 25  2  0
 27 26  1  0
 28 29  1  0
 28 27  2  0
 29 30  2  0
 30 22  1  0
 30 25  1  0
 31 33  1  0
 31 20  1  0
 32 31  2  0
M  END
$$$$
