KEW.pdb
     RDKit          3D

 33 34  0  0  1  0  0  0  0  0999 V2000
   15.4285  -13.5346  -13.9122 N   0  0  0  0  0  0  0  0  0  0  0  0
   16.1115  -12.9677  -15.0315 C   0  0  1  0  0  0  0  0  0  0  0  0
   15.8350  -13.7640  -16.2638 C   0  0  0  0  0  0  0  0  0  0  0  0
   16.0891  -15.2267  -16.1455 C   0  0  0  0  0  0  0  0  0  0  0  0
   15.7338  -16.0156  -17.3736 C   0  0  0  0  0  0  0  0  0  0  0  0
   15.9783  -17.4992  -17.1734 C   0  0  0  0  0  0  0  0  0  0  0  0
   15.5715  -18.1849  -18.3819 N   0  0  0  0  0  0  0  0  0  0  0  0
   15.7021  -11.5693  -15.3239 C   0  0  0  0  0  0  0  0  0  0  0  0
   15.9461  -11.1410  -16.4940 O   0  0  0  0  0  0  0  0  0  0  0  0
   15.0777  -10.6998  -14.4242 N   0  0  0  0  0  0  0  0  0  0  0  0
   14.8005   -9.2928  -14.7318 C   0  0  1  0  0  0  0  0  0  0  0  0
   13.8532   -8.8116  -13.6889 C   0  0  0  0  0  0  0  0  0  0  0  0
   13.4391   -7.3748  -13.8175 C   0  0  0  0  0  0  0  0  0  0  0  0
   12.6154   -6.9611  -12.6792 C   0  0  0  0  0  0  0  0  0  0  0  0
   12.7042   -5.8689  -12.1236 O   0  0  0  0  0  0  0  0  0  0  0  0
   16.0662   -8.5062  -14.7569 C   0  0  0  0  0  0  0  0  0  0  0  0
   17.0579   -8.9226  -14.1158 O   0  0  0  0  0  0  0  0  0  0  0  0
   11.6664   -7.8584  -12.1871 O   0  0  0  0  0  0  0  0  0  0  0  0
   16.1948   -7.2944  -15.4839 N   0  0  0  0  0  0  0  0  0  0  0  0
   17.3612   -6.5038  -15.6461 C   0  0  1  0  0  0  0  0  0  0  0  0
   18.5108   -7.1030  -16.3521 C   0  0  0  0  0  0  0  0  0  0  0  0
   18.3116   -7.4827  -17.7506 C   0  0  0  0  0  0  0  0  0  0  0  0
   17.4773   -6.9935  -18.7201 C   0  0  0  0  0  0  0  0  0  0  0  0
   17.6665   -7.6915  -19.8637 N   0  0  0  0  0  0  0  0  0  0  0  0
   18.6137   -8.6213  -19.6309 C   0  0  0  0  0  0  0  0  0  0  0  0
   19.1755   -9.5880  -20.4538 C   0  0  0  0  0  0  0  0  0  0  0  0
   20.1418  -10.4311  -19.9679 C   0  0  0  0  0  0  0  0  0  0  0  0
   20.5758  -10.3417  -18.6641 C   0  0  0  0  0  0  0  0  0  0  0  0
   20.0208   -9.3861  -17.8504 C   0  0  0  0  0  0  0  0  0  0  0  0
   19.0445   -8.5285  -18.3279 C   0  0  0  0  0  0  0  0  0  0  0  0
   17.0936   -5.1683  -16.3235 C   0  0  0  0  0  0  0  0  0  0  0  0
   15.9974   -4.9383  -16.8378 O   0  0  0  0  0  0  0  0  0  0  0  0
   18.1134   -4.2279  -16.3436 O   0  0  0  0  0  0  0  0  0  0  0  0
  2  1  1  1
  3  2  1  0
  4  3  1  0
  5  4  1  0
  6  5  1  0
  7  6  1  0
  8  2  1  0
  8  9  2  0
 10  8  1  0
 11 10  1  0
 11 12  1  1
 13 12  1  0
 13 14  1  0
 14 18  1  0
 14 15  2  0
 16 11  1  0
 17 16  2  0
 19 16  1  0
 20 21  1  6
 20 19  1  0
 21 22  1  0
 22 23  2  0
 23 24  1  0
 25 24  1  0
 26 25  2  0
 27 26  1  0
 28 29  1  0
 28 27  2  0
 29 30  2  0
 30 22  1  0
 30 25  1  0
 31 33  1  0
 31 20  1  0
 32 31  2  0
M  END
$$$$
