KEW.pdb
     RDKit          3D

 33 34  0  0  1  0  0  0  0  0999 V2000
   28.4878  -19.4138  -16.6869 N   0  0  0  0  0  0  0  0  0  0  0  0
   27.7519  -20.4963  -16.1147 C   0  0  1  0  0  0  0  0  0  0  0  0
   28.6533  -21.6601  -15.8656 C   0  0  0  0  0  0  0  0  0  0  0  0
   28.9196  -22.5228  -17.0500 C   0  0  0  0  0  0  0  0  0  0  0  0
   30.3732  -22.6470  -17.4082 C   0  0  0  0  0  0  0  0  0  0  0  0
   30.5692  -23.4726  -18.6655 C   0  0  0  0  0  0  0  0  0  0  0  0
   31.9768  -23.4433  -19.0030 N   0  0  0  0  0  0  0  0  0  0  0  0
   27.1215  -20.1558  -14.8128 C   0  0  0  0  0  0  0  0  0  0  0  0
   27.7666  -19.3601  -14.0625 O   0  0  0  0  0  0  0  0  0  0  0  0
   25.8906  -20.6361  -14.3549 N   0  0  0  0  0  0  0  0  0  0  0  0
   25.2864  -20.2111  -13.0879 C   0  0  1  0  0  0  0  0  0  0  0  0
   23.8267  -20.0677  -13.3437 C   0  0  0  0  0  0  0  0  0  0  0  0
   22.9970  -19.7387  -12.1371 C   0  0  0  0  0  0  0  0  0  0  0  0
   21.5807  -19.6167  -12.4902 C   0  0  0  0  0  0  0  0  0  0  0  0
   21.1688  -19.4025  -13.6277 O   0  0  0  0  0  0  0  0  0  0  0  0
   25.5807  -21.2007  -12.0130 C   0  0  0  0  0  0  0  0  0  0  0  0
   25.4695  -22.4232  -12.2599 O   0  0  0  0  0  0  0  0  0  0  0  0
   20.6312  -19.7504  -11.4761 O   0  0  0  0  0  0  0  0  0  0  0  0
   25.9856  -20.8111  -10.7100 N   0  0  0  0  0  0  0  0  0  0  0  0
   26.0644  -21.6241   -9.5505 C   0  0  1  0  0  0  0  0  0  0  0  0
   27.2727  -21.5149   -8.7094 C   0  0  0  0  0  0  0  0  0  0  0  0
   27.4433  -20.2810   -7.9426 C   0  0  0  0  0  0  0  0  0  0  0  0
   26.9118  -19.0285   -8.0971 C   0  0  0  0  0  0  0  0  0  0  0  0
   27.3869  -18.2200   -7.1216 N   0  0  0  0  0  0  0  0  0  0  0  0
   28.2166  -18.9466   -6.3474 C   0  0  0  0  0  0  0  0  0  0  0  0
   28.9601  -18.6075   -5.2251 C   0  0  0  0  0  0  0  0  0  0  0  0
   29.7436  -19.5478   -4.6063 C   0  0  0  0  0  0  0  0  0  0  0  0
   29.8124  -20.8399   -5.0773 C   0  0  0  0  0  0  0  0  0  0  0  0
   29.0775  -21.1755   -6.1866 C   0  0  0  0  0  0  0  0  0  0  0  0
   28.2826  -20.2364   -6.8211 C   0  0  0  0  0  0  0  0  0  0  0  0
   24.8768  -21.4551   -8.6150 C   0  0  0  0  0  0  0  0  0  0  0  0
   24.6955  -22.2466   -7.6879 O   0  0  0  0  0  0  0  0  0  0  0  0
   24.0133  -20.3923   -8.8379 O   0  0  0  0  0  0  0  0  0  0  0  0
  2  1  1  1
  3  2  1  0
  4  3  1  0
  5  4  1  0
  6  5  1  0
  7  6  1  0
  8  2  1  0
  8  9  2  0
 10  8  1  0
 11 10  1  0
 11 12  1  6
 13 12  1  0
 13 14  1  0
 14 18  1  0
 14 15  2  0
 16 11  1  0
 17 16  2  0
 19 16  1  0
 20 21  1  1
 20 19  1  0
 21 22  1  0
 22 23  2  0
 23 24  1  0
 25 24  1  0
 26 25  2  0
 27 26  1  0
 28 29  1  0
 28 27  2  0
 29 30  2  0
 30 22  1  0
 30 25  1  0
 31 33  1  0
 31 20  1  0
 32 31  2  0
M  END
$$$$
