KEW.pdb
     RDKit          3D

 33 34  0  0  1  0  0  0  0  0999 V2000
   21.0248  -27.5108  -14.9045 N   0  0  0  0  0  0  0  0  0  0  0  0
   20.5721  -26.5223  -13.9778 C   0  0  1  0  0  0  0  0  0  0  0  0
   20.7497  -27.0068  -12.5768 C   0  0  0  0  0  0  0  0  0  0  0  0
   20.9434  -28.4763  -12.4322 C   0  0  0  0  0  0  0  0  0  0  0  0
   20.9731  -28.9573  -11.0094 C   0  0  0  0  0  0  0  0  0  0  0  0
   19.7527  -29.7951  -10.6784 C   0  0  0  0  0  0  0  0  0  0  0  0
   19.8903  -30.2639   -9.3155 N   0  0  0  0  0  0  0  0  0  0  0  0
   21.3086  -25.2359  -14.0833 C   0  0  0  0  0  0  0  0  0  0  0  0
   20.9389  -24.3062  -13.3015 O   0  0  0  0  0  0  0  0  0  0  0  0
   22.3625  -24.9720  -14.9637 N   0  0  0  0  0  0  0  0  0  0  0  0
   23.0972  -23.7028  -14.9757 C   0  0  1  0  0  0  0  0  0  0  0  0
   24.3984  -23.9747  -15.6461 C   0  0  0  0  0  0  0  0  0  0  0  0
   25.3480  -22.8134  -15.6907 C   0  0  0  0  0  0  0  0  0  0  0  0
   26.6102  -23.1905  -16.3310 C   0  0  0  0  0  0  0  0  0  0  0  0
   27.0643  -22.6471  -17.3350 O   0  0  0  0  0  0  0  0  0  0  0  0
   22.3066  -22.6501  -15.6745 C   0  0  0  0  0  0  0  0  0  0  0  0
   21.6817  -22.9463  -16.7184 O   0  0  0  0  0  0  0  0  0  0  0  0
   27.3512  -24.2328  -15.7721 O   0  0  0  0  0  0  0  0  0  0  0  0
   22.2320  -21.3144  -15.2012 N   0  0  0  0  0  0  0  0  0  0  0  0
   21.4512  -20.2538  -15.7274 C   0  0  1  0  0  0  0  0  0  0  0  0
   20.3560  -19.7208  -14.8934 C   0  0  0  0  0  0  0  0  0  0  0  0
   20.7288  -19.0693  -13.6379 C   0  0  0  0  0  0  0  0  0  0  0  0
   21.4535  -17.9372  -13.3762 C   0  0  0  0  0  0  0  0  0  0  0  0
   21.5245  -17.7539  -12.0375 N   0  0  0  0  0  0  0  0  0  0  0  0
   20.8518  -18.7596  -11.4443 C   0  0  0  0  0  0  0  0  0  0  0  0
   20.6191  -19.0470  -10.1061 C   0  0  0  0  0  0  0  0  0  0  0  0
   19.8903  -20.1543   -9.7547 C   0  0  0  0  0  0  0  0  0  0  0  0
   19.3754  -21.0015  -10.7104 C   0  0  0  0  0  0  0  0  0  0  0  0
   19.6051  -20.7176  -12.0333 C   0  0  0  0  0  0  0  0  0  0  0  0
   20.3391  -19.6033  -12.4021 C   0  0  0  0  0  0  0  0  0  0  0  0
   22.2799  -19.0540  -16.1608 C   0  0  0  0  0  0  0  0  0  0  0  0
   23.4770  -18.9869  -15.8756 O   0  0  0  0  0  0  0  0  0  0  0  0
   21.6503  -18.0481  -16.8795 O   0  0  0  0  0  0  0  0  0  0  0  0
  2  1  1  6
  3  2  1  0
  4  3  1  0
  5  4  1  0
  6  5  1  0
  7  6  1  0
  8  2  1  0
  8  9  2  0
 10  8  1  0
 11 10  1  0
 11 12  1  6
 13 12  1  0
 13 14  1  0
 14 18  1  0
 14 15  2  0
 16 11  1  0
 17 16  2  0
 19 16  1  0
 20 21  1  1
 20 19  1  0
 21 22  1  0
 22 23  2  0
 23 24  1  0
 25 24  1  0
 26 25  2  0
 27 26  1  0
 28 29  1  0
 28 27  2  0
 29 30  2  0
 30 22  1  0
 30 25  1  0
 31 33  1  0
 31 20  1  0
 32 31  2  0
M  END
$$$$
