GFI.pdb
     RDKit          3D

 24 24  0  0  1  0  0  0  0  0999 V2000
   29.0537  -22.1908  -13.9334 N   0  0  0  0  0  0  0  0  0  0  0  0
   29.3482  -21.0630  -13.0657 C   0  0  0  0  0  0  0  0  0  0  0  0
   28.7364  -21.3505  -11.7274 C   0  0  0  0  0  0  0  0  0  0  0  0
   27.8406  -22.2307  -11.5847 O   0  0  0  0  0  0  0  0  0  0  0  0
   29.1314  -20.6515  -10.5593 N   0  0  0  0  0  0  0  0  0  0  0  0
   28.4054  -20.7553   -9.3066 C   0  0  1  0  0  0  0  0  0  0  0  0
   29.1586  -20.1363   -8.2027 C   0  0  0  0  0  0  0  0  0  0  0  0
   28.5476  -20.0522   -6.8931 C   0  0  0  0  0  0  0  0  0  0  0  0
   28.7278  -21.0873   -5.9991 C   0  0  0  0  0  0  0  0  0  0  0  0
   28.1802  -21.0821   -4.7193 C   0  0  0  0  0  0  0  0  0  0  0  0
   27.4271  -20.0056   -4.3208 C   0  0  0  0  0  0  0  0  0  0  0  0
   27.2343  -18.9589   -5.2005 C   0  0  0  0  0  0  0  0  0  0  0  0
   27.7803  -18.9891   -6.4445 C   0  0  0  0  0  0  0  0  0  0  0  0
   27.0588  -20.0840   -9.4741 C   0  0  0  0  0  0  0  0  0  0  0  0
   27.0552  -18.8840   -9.7980 O   0  0  0  0  0  0  0  0  0  0  0  0
   23.1603  -19.6904  -13.1565 C   0  0  0  0  0  0  0  0  0  0  0  0
   23.0757  -20.1483  -11.7181 C   0  0  0  0  0  0  0  0  0  0  0  0
   24.3951  -20.6946  -11.2307 C   0  0  2  0  0  0  0  0  0  0  0  0
   24.3012  -22.2118  -11.3831 C   0  0  0  0  0  0  0  0  0  0  0  0
   24.5677  -20.3656   -9.7489 C   0  0  2  0  0  0  0  0  0  0  0  0
   25.8645  -20.7840   -9.2729 N   0  0  0  0  0  0  0  0  0  0  0  0
   23.4754  -20.8875   -8.9332 C   0  0  0  0  0  0  0  0  0  0  0  0
   23.6298  -21.8595   -8.1384 O   0  0  0  0  0  0  0  0  0  0  0  0
   22.2089  -20.3292   -8.9998 O   0  0  0  0  0  0  0  0  0  0  0  0
  1  2  1  0
  3  2  1  0
  4  3  2  0
  5  3  1  0
  6 14  1  0
  6  5  1  0
  6  7  1  1
  8  7  1  0
  9  8  2  0
 10 11  2  0
 10  9  1  0
 11 12  1  0
 12 13  2  0
 13  8  1  0
 14 21  1  0
 15 14  2  0
 17 16  1  0
 18 17  1  0
 18 19  1  1
 20 18  1  0
 20 22  1  0
 20 21  1  1
 22 23  2  0
 22 24  1  0
M  END
$$$$
