GFI.pdb
     RDKit          3D

 24 24  0  0  1  0  0  0  0  0999 V2000
   28.1612  -23.5506  -17.2754 N   0  0  0  0  0  0  0  0  0  0  0  0
   27.8270  -22.1955  -16.8706 C   0  0  0  0  0  0  0  0  0  0  0  0
   26.9854  -22.2879  -15.6333 C   0  0  0  0  0  0  0  0  0  0  0  0
   26.3111  -23.3234  -15.3674 O   0  0  0  0  0  0  0  0  0  0  0  0
   26.9044  -21.2215  -14.7031 N   0  0  0  0  0  0  0  0  0  0  0  0
   26.0324  -21.2641  -13.5433 C   0  0  1  0  0  0  0  0  0  0  0  0
   26.5767  -20.4558  -12.4390 C   0  0  0  0  0  0  0  0  0  0  0  0
   25.9165  -20.4873  -11.1511 C   0  0  0  0  0  0  0  0  0  0  0  0
   26.3210  -21.4117  -10.2104 C   0  0  0  0  0  0  0  0  0  0  0  0
   25.7433  -21.5042   -8.9473 C   0  0  0  0  0  0  0  0  0  0  0  0
   24.7269  -20.6434   -8.6143 C   0  0  0  0  0  0  0  0  0  0  0  0
   24.3067  -19.7106   -9.5417 C   0  0  0  0  0  0  0  0  0  0  0  0
   24.8880  -19.6414  -10.7680 C   0  0  0  0  0  0  0  0  0  0  0  0
   24.6654  -20.7568  -13.9506 C   0  0  0  0  0  0  0  0  0  0  0  0
   24.6145  -19.6658  -14.5441 O   0  0  0  0  0  0  0  0  0  0  0  0
   22.0517  -22.3407  -17.6132 C   0  0  0  0  0  0  0  0  0  0  0  0
   22.5081  -21.5609  -16.4010 C   0  0  0  0  0  0  0  0  0  0  0  0
   21.6255  -21.8253  -15.2060 C   0  0  2  0  0  0  0  0  0  0  0  0
   20.2531  -21.2589  -15.5664 C   0  0  0  0  0  0  0  0  0  0  0  0
   22.1625  -21.0628  -13.9961 C   0  0  2  0  0  0  0  0  0  0  0  0
   23.5040  -21.4848  -13.6713 N   0  0  0  0  0  0  0  0  0  0  0  0
   21.2599  -21.1315  -12.8509 C   0  0  0  0  0  0  0  0  0  0  0  0
   21.0849  -22.1966  -12.1910 O   0  0  0  0  0  0  0  0  0  0  0  0
   20.5500  -20.0157  -12.4373 O   0  0  0  0  0  0  0  0  0  0  0  0
  1  2  1  0
  3  2  1  0
  4  3  2  0
  5  3  1  0
  6 14  1  0
  6  5  1  0
  6  7  1  1
  8  7  1  0
  9  8  2  0
 10 11  2  0
 10  9  1  0
 11 12  1  0
 12 13  2  0
 13  8  1  0
 14 21  1  0
 15 14  2  0
 17 16  1  0
 18 17  1  0
 18 19  1  6
 20 18  1  0
 20 22  1  0
 20 21  1  1
 22 23  2  0
 22 24  1  0
M  END
$$$$
