GFI.pdb
     RDKit          3D

 24 24  0  0  1  0  0  0  0  0999 V2000
   25.2589  -20.8056   -7.6499 N   0  0  0  0  0  0  0  0  0  0  0  0
   25.2501  -21.7243   -8.7758 C   0  0  0  0  0  0  0  0  0  0  0  0
   25.1410  -20.9051  -10.0268 C   0  0  0  0  0  0  0  0  0  0  0  0
   24.9000  -19.6650   -9.9867 O   0  0  0  0  0  0  0  0  0  0  0  0
   25.3024  -21.4792  -11.3126 N   0  0  0  0  0  0  0  0  0  0  0  0
   25.3333  -20.6801  -12.5241 C   0  0  1  0  0  0  0  0  0  0  0  0
   26.5081  -21.0101  -13.3487 C   0  0  0  0  0  0  0  0  0  0  0  0
   27.8326  -20.8151  -12.7980 C   0  0  0  0  0  0  0  0  0  0  0  0
   28.4738  -19.6103  -12.9988 C   0  0  0  0  0  0  0  0  0  0  0  0
   29.7444  -19.3399  -12.4984 C   0  0  0  0  0  0  0  0  0  0  0  0
   30.3951  -20.3071  -11.7732 C   0  0  0  0  0  0  0  0  0  0  0  0
   29.7709  -21.5204  -11.5608 C   0  0  0  0  0  0  0  0  0  0  0  0
   28.5298  -21.7585  -12.0604 C   0  0  0  0  0  0  0  0  0  0  0  0
   24.0548  -20.9275  -13.2962 C   0  0  0  0  0  0  0  0  0  0  0  0
   23.7705  -22.1068  -13.5674 O   0  0  0  0  0  0  0  0  0  0  0  0
   21.0536  -17.6029  -11.9227 C   0  0  0  0  0  0  0  0  0  0  0  0
   20.6612  -18.8866  -12.6184 C   0  0  0  0  0  0  0  0  0  0  0  0
   21.0288  -18.8601  -14.0816 C   0  0  2  0  0  0  0  0  0  0  0  0
   19.7233  -19.0785  -14.8446 C   0  0  0  0  0  0  0  0  0  0  0  0
   21.9721  -20.0209  -14.3920 C   0  0  2  0  0  0  0  0  0  0  0  0
   23.2245  -19.8728  -13.6899 N   0  0  0  0  0  0  0  0  0  0  0  0
   22.1533  -20.2209  -15.8266 C   0  0  0  0  0  0  0  0  0  0  0  0
   22.9874  -19.5516  -16.5025 O   0  0  0  0  0  0  0  0  0  0  0  0
   21.4072  -21.1659  -16.5125 O   0  0  0  0  0  0  0  0  0  0  0  0
  1  2  1  0
  3  2  1  0
  4  3  2  0
  5  3  1  0
  6 14  1  0
  6  5  1  0
  6  7  1  6
  8  7  1  0
  9  8  2  0
 10 11  2  0
 10  9  1  0
 11 12  1  0
 12 13  2  0
 13  8  1  0
 14 21  1  0
 15 14  2  0
 17 16  1  0
 18 17  1  0
 18 19  1  6
 20 18  1  0
 20 22  1  0
 20 21  1  1
 22 23  2  0
 22 24  1  0
M  END
$$$$
