GFI.pdb
     RDKit          3D

 24 24  0  0  1  0  0  0  0  0999 V2000
   21.2363  -20.3926   -8.9451 N   0  0  0  0  0  0  0  0  0  0  0  0
   22.3397  -21.1858   -8.4301 C   0  0  0  0  0  0  0  0  0  0  0  0
   23.6128  -20.5016   -8.8286 C   0  0  0  0  0  0  0  0  0  0  0  0
   23.6061  -19.4156   -9.4754 O   0  0  0  0  0  0  0  0  0  0  0  0
   24.8835  -21.0372   -8.5008 N   0  0  0  0  0  0  0  0  0  0  0  0
   26.1240  -20.4229   -8.9376 C   0  0  1  0  0  0  0  0  0  0  0  0
   27.2604  -20.8797   -8.1196 C   0  0  0  0  0  0  0  0  0  0  0  0
   27.6115  -20.1399   -6.9258 C   0  0  0  0  0  0  0  0  0  0  0  0
   27.9993  -20.8305   -5.7964 C   0  0  0  0  0  0  0  0  0  0  0  0
   28.3585  -20.1956   -4.6107 C   0  0  0  0  0  0  0  0  0  0  0  0
   28.3284  -18.8242   -4.5532 C   0  0  0  0  0  0  0  0  0  0  0  0
   27.9429  -18.1138   -5.6728 C   0  0  0  0  0  0  0  0  0  0  0  0
   27.5972  -18.7585   -6.8180 C   0  0  0  0  0  0  0  0  0  0  0  0
   26.3447  -20.7682  -10.3950 C   0  0  0  0  0  0  0  0  0  0  0  0
   26.1268  -21.9414  -10.7433 O   0  0  0  0  0  0  0  0  0  0  0  0
   25.5365  -18.3421  -15.3459 C   0  0  0  0  0  0  0  0  0  0  0  0
   26.9251  -18.7731  -14.9311 C   0  0  0  0  0  0  0  0  0  0  0  0
   27.1254  -18.6419  -13.4413 C   0  0  2  0  0  0  0  0  0  0  0  0
   28.6314  -18.4904  -13.2337 C   0  0  0  0  0  0  0  0  0  0  0  0
   26.6669  -19.9244  -12.7497 C   0  0  2  0  0  0  0  0  0  0  0  0
   26.7765  -19.8072  -11.3153 N   0  0  0  0  0  0  0  0  0  0  0  0
   27.3445  -21.1084  -13.2693 C   0  0  0  0  0  0  0  0  0  0  0  0
   26.9223  -21.7395  -14.2811 O   0  0  0  0  0  0  0  0  0  0  0  0
   28.4933  -21.5928  -12.6645 O   0  0  0  0  0  0  0  0  0  0  0  0
  1  2  1  0
  3  2  1  0
  4  3  2  0
  5  3  1  0
  6 14  1  0
  6  5  1  0
  6  7  1  1
  8  7  1  0
  9  8  2  0
 10 11  2  0
 10  9  1  0
 11 12  1  0
 12 13  2  0
 13  8  1  0
 14 21  1  0
 15 14  2  0
 17 16  1  0
 18 17  1  0
 18 19  1  6
 20 18  1  0
 20 22  1  0
 20 21  1  1
 22 23  2  0
 22 24  1  0
M  END
$$$$
