GFI.pdb
     RDKit          3D

 24 24  0  0  1  0  0  0  0  0999 V2000
   28.9044  -22.3904  -13.9368 N   0  0  0  0  0  0  0  0  0  0  0  0
   28.9111  -21.1411  -13.1946 C   0  0  0  0  0  0  0  0  0  0  0  0
   28.4103  -21.4339  -11.8121 C   0  0  0  0  0  0  0  0  0  0  0  0
   27.5956  -22.3742  -11.5888 O   0  0  0  0  0  0  0  0  0  0  0  0
   28.8244  -20.6729  -10.6904 N   0  0  0  0  0  0  0  0  0  0  0  0
   28.1740  -20.7753   -9.3967 C   0  0  1  0  0  0  0  0  0  0  0  0
   28.9455  -20.0735   -8.3568 C   0  0  0  0  0  0  0  0  0  0  0  0
   28.4334  -20.0380   -7.0032 C   0  0  0  0  0  0  0  0  0  0  0  0
   28.7086  -21.0883   -6.1522 C   0  0  0  0  0  0  0  0  0  0  0  0
   28.2596  -21.1291   -4.8352 C   0  0  0  0  0  0  0  0  0  0  0  0
   27.5103  -20.0844   -4.3536 C   0  0  0  0  0  0  0  0  0  0  0  0
   27.2233  -19.0232   -5.1892 C   0  0  0  0  0  0  0  0  0  0  0  0
   27.6741  -19.0082   -6.4710 C   0  0  0  0  0  0  0  0  0  0  0  0
   26.7816  -20.1921   -9.5109 C   0  0  0  0  0  0  0  0  0  0  0  0
   26.6885  -18.9935   -9.8267 O   0  0  0  0  0  0  0  0  0  0  0  0
   24.3334  -20.9716  -13.3868 C   0  0  0  0  0  0  0  0  0  0  0  0
   24.6963  -20.4529  -12.0138 C   0  0  0  0  0  0  0  0  0  0  0  0
   23.8527  -21.0917  -10.9381 C   0  0  2  0  0  0  0  0  0  0  0  0
   22.4205  -20.6287  -11.1999 C   0  0  0  0  0  0  0  0  0  0  0  0
   24.2888  -20.5697   -9.5702 C   0  0  2  0  0  0  0  0  0  0  0  0
   25.6432  -20.9688   -9.2710 N   0  0  0  0  0  0  0  0  0  0  0  0
   23.3504  -20.9323   -8.5125 C   0  0  0  0  0  0  0  0  0  0  0  0
   23.5739  -21.8814   -7.7064 O   0  0  0  0  0  0  0  0  0  0  0  0
   22.1612  -20.2399   -8.3490 O   0  0  0  0  0  0  0  0  0  0  0  0
  1  2  1  0
  3  2  1  0
  4  3  2  0
  5  3  1  0
  6 14  1  0
  6  5  1  0
  6  7  1  1
  8  7  1  0
  9  8  2  0
 10 11  2  0
 10  9  1  0
 11 12  1  0
 12 13  2  0
 13  8  1  0
 14 21  1  0
 15 14  2  0
 17 16  1  0
 18 17  1  0
 18 19  1  6
 20 18  1  0
 20 22  1  0
 20 21  1  1
 22 23  2  0
 22 24  1  0
M  END
$$$$
