GFI.pdb
     RDKit          3D

 24 24  0  0  1  0  0  0  0  0999 V2000
   26.6793  -23.4881  -14.3516 N   0  0  0  0  0  0  0  0  0  0  0  0
   26.8296  -22.1003  -13.9478 C   0  0  0  0  0  0  0  0  0  0  0  0
   26.5414  -22.0232  -12.4785 C   0  0  0  0  0  0  0  0  0  0  0  0
   25.9139  -22.9416  -11.8782 O   0  0  0  0  0  0  0  0  0  0  0  0
   26.9572  -20.9197  -11.6922 N   0  0  0  0  0  0  0  0  0  0  0  0
   26.7200  -20.8492  -10.2618 C   0  0  1  0  0  0  0  0  0  0  0  0
   27.6433  -19.9006   -9.6160 C   0  0  0  0  0  0  0  0  0  0  0  0
   27.6026  -19.7468   -8.1771 C   0  0  0  0  0  0  0  0  0  0  0  0
   28.3305  -20.6127   -7.3874 C   0  0  0  0  0  0  0  0  0  0  0  0
   28.3506  -20.5296   -5.9980 C   0  0  0  0  0  0  0  0  0  0  0  0
   27.6179  -19.5478   -5.3781 C   0  0  0  0  0  0  0  0  0  0  0  0
   26.8821  -18.6709   -6.1503 C   0  0  0  0  0  0  0  0  0  0  0  0
   26.8799  -18.7740   -7.5053 C   0  0  0  0  0  0  0  0  0  0  0  0
   25.2828  -20.4325  -10.0325 C   0  0  0  0  0  0  0  0  0  0  0  0
   24.8099  -19.5700  -10.7925 O   0  0  0  0  0  0  0  0  0  0  0  0
   20.5084  -22.6477   -6.6272 C   0  0  0  0  0  0  0  0  0  0  0  0
   21.0587  -21.8304   -7.7740 C   0  0  0  0  0  0  0  0  0  0  0  0
   22.5667  -21.7864   -7.7513 C   0  0  2  0  0  0  0  0  0  0  0  0
   22.9437  -21.0287   -6.4793 C   0  0  0  0  0  0  0  0  0  0  0  0
   23.0726  -20.9944   -8.9556 C   0  0  2  0  0  0  0  0  0  0  0  0
   24.5150  -20.9942   -9.0069 N   0  0  0  0  0  0  0  0  0  0  0  0
   22.5089  -19.6491   -9.0121 C   0  0  0  0  0  0  0  0  0  0  0  0
   21.3024  -19.4342   -9.3262 O   0  0  0  0  0  0  0  0  0  0  0  0
   23.2860  -18.5398   -8.7193 O   0  0  0  0  0  0  0  0  0  0  0  0
  1  2  1  0
  3  2  1  0
  4  3  2  0
  5  3  1  0
  6 14  1  0
  6  5  1  0
  6  7  1  6
  8  7  1  0
  9  8  2  0
 10 11  2  0
 10  9  1  0
 11 12  1  0
 12 13  2  0
 13  8  1  0
 14 21  1  0
 15 14  2  0
 17 16  1  0
 18 17  1  0
 18 19  1  1
 20 18  1  0
 20 22  1  0
 20 21  1  1
 22 23  2  0
 22 24  1  0
M  END
$$$$
