LTV.pdb
     RDKit          3D

 23 22  0  0  1  0  0  0  0  0999 V2000
   21.9565  -14.1957  -21.0568 C   0  0  0  0  0  0  0  0  0  0  0  0
   20.8117  -14.8244  -20.2909 C   0  0  2  0  0  0  0  0  0  0  0  0
   19.6428  -14.9018  -21.2307 C   0  0  0  0  0  0  0  0  0  0  0  0
   20.5170  -14.0691  -19.0159 C   0  0  0  0  0  0  0  0  0  0  0  0
   21.7118  -13.9923  -18.1162 C   0  0  2  0  0  0  0  0  0  0  0  0
   22.0225  -15.2936  -17.6154 N   0  0  0  0  0  0  0  0  0  0  0  0
   21.5229  -13.0209  -17.0068 C   0  0  0  0  0  0  0  0  0  0  0  0
   20.7719  -13.3214  -16.0424 O   0  0  0  0  0  0  0  0  0  0  0  0
   23.7478  -12.0030  -14.3885 C   0  0  0  0  0  0  0  0  0  0  0  0
   23.2776  -10.7245  -15.0211 C   0  0  1  0  0  0  0  0  0  0  0  0
   24.2877  -10.2693  -15.8626 O   0  0  0  0  0  0  0  0  0  0  0  0
   22.0075  -10.8557  -15.7920 C   0  0  2  0  0  0  0  0  0  0  0  0
   22.1200  -11.7577  -16.9259 N   0  0  0  0  0  0  0  0  0  0  0  0
   21.4448   -9.5960  -16.3089 C   0  0  0  0  0  0  0  0  0  0  0  0
   21.7635   -9.1514  -17.4713 O   0  0  0  0  0  0  0  0  0  0  0  0
   18.2392   -8.4963  -17.4548 C   0  0  0  0  0  0  0  0  0  0  0  0
   18.5546   -7.4905  -16.3686 C   0  0  1  0  0  0  0  0  0  0  0  0
   17.7780   -7.8744  -15.1429 C   0  0  0  0  0  0  0  0  0  0  0  0
   20.0363   -7.4869  -16.1645 C   0  0  2  0  0  0  0  0  0  0  0  0
   20.5238   -8.7558  -15.6212 N   0  0  0  0  0  0  0  0  0  0  0  0
   20.4200   -6.3790  -15.2913 C   0  0  0  0  0  0  0  0  0  0  0  0
   20.3602   -5.0591  -15.7024 O   0  0  0  0  0  0  0  0  0  0  0  0
   20.8192   -6.6184  -14.1261 O   0  0  0  0  0  0  0  0  0  0  0  0
  2  3  1  6
  2  1  1  0
  4  2  1  0
  5  7  1  0
  5  4  1  0
  5  6  1  1
  7 13  1  0
  7  8  2  0
 10  9  1  6
 11 10  1  0
 12 10  1  0
 12 13  1  6
 14 20  1  0
 14 12  1  0
 15 14  2  0
 17 16  1  6
 17 19  1  0
 18 17  1  0
 19 21  1  0
 19 20  1  1
 21 22  1  0
 23 21  2  0
M  END
$$$$
