LTV.pdb
     RDKit          3D

 23 22  0  0  1  0  0  0  0  0999 V2000
   22.8775  -12.1296  -21.4789 C   0  0  0  0  0  0  0  0  0  0  0  0
   22.8946  -13.2325  -20.4418 C   0  0  2  0  0  0  0  0  0  0  0  0
   21.9922  -14.3231  -20.9434 C   0  0  0  0  0  0  0  0  0  0  0  0
   22.5173  -12.7130  -19.0740 C   0  0  0  0  0  0  0  0  0  0  0  0
   23.4362  -11.6250  -18.6102 C   0  0  2  0  0  0  0  0  0  0  0  0
   24.7355  -12.1645  -18.3625 N   0  0  0  0  0  0  0  0  0  0  0  0
   22.9127  -10.9145  -17.4138 C   0  0  0  0  0  0  0  0  0  0  0  0
   23.0160  -11.4521  -16.2804 O   0  0  0  0  0  0  0  0  0  0  0  0
   22.1090   -6.8618  -14.8680 C   0  0  0  0  0  0  0  0  0  0  0  0
   22.7106   -7.7956  -15.8789 C   0  0  1  0  0  0  0  0  0  0  0  0
   23.9119   -8.2682  -15.3601 O   0  0  0  0  0  0  0  0  0  0  0  0
   21.8363   -8.9483  -16.2418 C   0  0  2  0  0  0  0  0  0  0  0  0
   22.2929   -9.6597  -17.4238 N   0  0  0  0  0  0  0  0  0  0  0  0
   20.4169   -8.6232  -16.4668 C   0  0  0  0  0  0  0  0  0  0  0  0
   20.0351   -8.0038  -17.5254 O   0  0  0  0  0  0  0  0  0  0  0  0
   17.3948  -10.7664  -16.7535 C   0  0  0  0  0  0  0  0  0  0  0  0
   17.0251   -9.7408  -15.7036 C   0  0  1  0  0  0  0  0  0  0  0  0
   17.1048  -10.4048  -14.3598 C   0  0  0  0  0  0  0  0  0  0  0  0
   17.9520   -8.5767  -15.8546 C   0  0  2  0  0  0  0  0  0  0  0  0
   19.3445   -8.9388  -15.5850 N   0  0  0  0  0  0  0  0  0  0  0  0
   17.5321   -7.4839  -14.9791 C   0  0  0  0  0  0  0  0  0  0  0  0
   16.4185   -6.7078  -15.2479 O   0  0  0  0  0  0  0  0  0  0  0  0
   18.1950   -7.2294  -13.9446 O   0  0  0  0  0  0  0  0  0  0  0  0
  2  3  1  6
  2  1  1  0
  4  2  1  0
  5  7  1  0
  5  4  1  0
  5  6  1  1
  7 13  1  0
  7  8  2  0
 10  9  1  1
 11 10  1  0
 12 10  1  0
 12 13  1  6
 14 20  1  0
 14 12  1  0
 15 14  2  0
 17 16  1  6
 17 19  1  0
 18 17  1  0
 19 21  1  0
 19 20  1  1
 21 22  1  0
 23 21  2  0
M  END
$$$$
