LTV.pdb
     RDKit          3D

 23 22  0  0  1  0  0  0  0  0999 V2000
   17.7057  -13.5881  -19.0276 C   0  0  0  0  0  0  0  0  0  0  0  0
   17.4256  -14.0176  -17.6030 C   0  0  2  0  0  0  0  0  0  0  0  0
   15.9868  -14.4442  -17.5463 C   0  0  0  0  0  0  0  0  0  0  0  0
   17.7753  -12.9277  -16.6166 C   0  0  0  0  0  0  0  0  0  0  0  0
   19.2249  -12.5560  -16.6765 C   0  0  2  0  0  0  0  0  0  0  0  0
   20.0255  -13.6743  -16.2903 N   0  0  0  0  0  0  0  0  0  0  0  0
   19.5369  -11.3609  -15.8492 C   0  0  0  0  0  0  0  0  0  0  0  0
   19.3372  -11.3989  -14.6070 O   0  0  0  0  0  0  0  0  0  0  0  0
   22.3819  -10.0682  -14.3729 C   0  0  0  0  0  0  0  0  0  0  0  0
   21.8659   -8.9348  -15.2124 C   0  0  1  0  0  0  0  0  0  0  0  0
   22.5828   -8.9275  -16.4047 O   0  0  0  0  0  0  0  0  0  0  0  0
   20.4060   -9.0099  -15.5087 C   0  0  2  0  0  0  0  0  0  0  0  0
   20.0501  -10.1522  -16.3335 N   0  0  0  0  0  0  0  0  0  0  0  0
   19.8280   -7.8219  -16.1610 C   0  0  0  0  0  0  0  0  0  0  0  0
   19.8133   -7.7052  -17.4402 O   0  0  0  0  0  0  0  0  0  0  0  0
   16.4462   -6.3609  -16.4497 C   0  0  0  0  0  0  0  0  0  0  0  0
   17.2908   -5.2605  -15.8440 C   0  0  1  0  0  0  0  0  0  0  0  0
   17.0234   -5.2318  -14.3673 C   0  0  0  0  0  0  0  0  0  0  0  0
   18.7193   -5.5366  -16.1908 C   0  0  2  0  0  0  0  0  0  0  0  0
   19.2425   -6.7107  -15.4904 N   0  0  0  0  0  0  0  0  0  0  0  0
   19.5418   -4.3633  -15.9011 C   0  0  0  0  0  0  0  0  0  0  0  0
   19.4793   -3.2103  -16.6637 O   0  0  0  0  0  0  0  0  0  0  0  0
   20.3367   -4.3885  -14.9306 O   0  0  0  0  0  0  0  0  0  0  0  0
  2  3  1  6
  2  1  1  0
  4  2  1  0
  5  7  1  0
  5  4  1  0
  5  6  1  1
  7 13  1  0
  7  8  2  0
 10  9  1  1
 11 10  1  0
 12 10  1  0
 12 13  1  6
 14 20  1  0
 14 12  1  0
 15 14  2  0
 17 16  1  6
 17 19  1  0
 18 17  1  0
 19 21  1  0
 19 20  1  1
 21 22  1  0
 23 21  2  0
M  END
$$$$
