LTV.pdb
     RDKit          3D

 23 22  0  0  1  0  0  0  0  0999 V2000
   14.4485  -13.8545  -17.1897 C   0  0  0  0  0  0  0  0  0  0  0  0
   15.3942  -14.6497  -16.3147 C   0  0  2  0  0  0  0  0  0  0  0  0
   14.7321  -14.8021  -14.9754 C   0  0  0  0  0  0  0  0  0  0  0  0
   16.7599  -14.0068  -16.2475 C   0  0  0  0  0  0  0  0  0  0  0  0
   17.3973  -13.8929  -17.5980 C   0  0  2  0  0  0  0  0  0  0  0  0
   17.7009  -15.1958  -18.0991 N   0  0  0  0  0  0  0  0  0  0  0  0
   18.6069  -13.0287  -17.5814 C   0  0  0  0  0  0  0  0  0  0  0  0
   19.7467  -13.5603  -17.5312 O   0  0  0  0  0  0  0  0  0  0  0  0
   19.6471  -10.5868  -20.2312 C   0  0  0  0  0  0  0  0  0  0  0  0
   19.7504   -9.8826  -18.9086 C   0  0  1  0  0  0  0  0  0  0  0  0
   18.6602   -9.0256  -18.7963 O   0  0  0  0  0  0  0  0  0  0  0  0
   19.7890  -10.7974  -17.7311 C   0  0  2  0  0  0  0  0  0  0  0  0
   18.6031  -11.6295  -17.6172 N   0  0  0  0  0  0  0  0  0  0  0  0
   19.9727  -10.1431  -16.4238 C   0  0  0  0  0  0  0  0  0  0  0  0
   18.9755   -9.9156  -15.6467 O   0  0  0  0  0  0  0  0  0  0  0  0
   22.0510  -10.9993  -13.4093 C   0  0  0  0  0  0  0  0  0  0  0  0
   22.4201   -9.5708  -13.7473 C   0  0  1  0  0  0  0  0  0  0  0  0
   23.7641   -9.5859  -14.4155 C   0  0  0  0  0  0  0  0  0  0  0  0
   21.3302   -9.0066  -14.6022 C   0  0  2  0  0  0  0  0  0  0  0  0
   21.2148   -9.7036  -15.8843 N   0  0  0  0  0  0  0  0  0  0  0  0
   21.5507   -7.5777  -14.8182 C   0  0  0  0  0  0  0  0  0  0  0  0
   21.8581   -7.0572  -16.0629 O   0  0  0  0  0  0  0  0  0  0  0  0
   21.4615   -6.7840  -13.8505 O   0  0  0  0  0  0  0  0  0  0  0  0
  2  3  1  1
  2  1  1  0
  4  2  1  0
  5  7  1  0
  5  4  1  0
  5  6  1  1
  7 13  1  0
  7  8  2  0
 10  9  1  6
 11 10  1  0
 12 10  1  0
 12 13  1  1
 14 20  1  0
 14 12  1  0
 15 14  2  0
 17 16  1  6
 17 19  1  0
 18 17  1  0
 19 21  1  0
 19 20  1  6
 21 22  1  0
 23 21  2  0
M  END
$$$$
