LTV.pdb
     RDKit          3D

 23 22  0  0  1  0  0  0  0  0999 V2000
   22.7668  -14.3430  -14.5895 C   0  0  0  0  0  0  0  0  0  0  0  0
   23.5600  -13.8574  -15.7843 C   0  0  2  0  0  0  0  0  0  0  0  0
   25.0126  -13.9420  -15.4127 C   0  0  0  0  0  0  0  0  0  0  0  0
   23.1227  -12.4770  -16.2158 C   0  0  0  0  0  0  0  0  0  0  0  0
   21.6631  -12.4250  -16.5472 C   0  0  2  0  0  0  0  0  0  0  0  0
   21.3936  -13.2659  -17.6702 N   0  0  0  0  0  0  0  0  0  0  0  0
   21.1871  -11.0375  -16.7889 C   0  0  0  0  0  0  0  0  0  0  0  0
   21.2842  -10.5420  -17.9419 O   0  0  0  0  0  0  0  0  0  0  0  0
   18.2231   -7.2459  -15.9739 C   0  0  0  0  0  0  0  0  0  0  0  0
   18.6996   -8.6648  -15.8503 C   0  0  1  0  0  0  0  0  0  0  0  0
   17.9965   -9.4320  -16.7737 O   0  0  0  0  0  0  0  0  0  0  0  0
   20.1646   -8.8383  -16.0700 C   0  0  2  0  0  0  0  0  0  0  0  0
   20.6205  -10.1961  -15.8245 N   0  0  0  0  0  0  0  0  0  0  0  0
   21.0354   -7.9512  -15.2791 C   0  0  0  0  0  0  0  0  0  0  0  0
   21.3374   -8.2269  -14.0614 O   0  0  0  0  0  0  0  0  0  0  0  0
   24.4203   -6.3598  -16.2955 C   0  0  0  0  0  0  0  0  0  0  0  0
   23.5800   -5.2550  -15.6919 C   0  0  1  0  0  0  0  0  0  0  0  0
   23.0938   -4.3800  -16.8103 C   0  0  0  0  0  0  0  0  0  0  0  0
   22.4790   -5.8944  -14.9070 C   0  0  2  0  0  0  0  0  0  0  0  0
   21.6224   -6.7391  -15.7411 N   0  0  0  0  0  0  0  0  0  0  0  0
   21.6824   -4.8701  -14.2337 C   0  0  0  0  0  0  0  0  0  0  0  0
   22.1038   -4.2532  -13.0690 O   0  0  0  0  0  0  0  0  0  0  0  0
   20.5761   -4.5287  -14.7173 O   0  0  0  0  0  0  0  0  0  0  0  0
  2  3  1  1
  2  1  1  0
  4  2  1  0
  5  7  1  0
  5  4  1  0
  5  6  1  6
  7 13  1  0
  7  8  2  0
 10  9  1  6
 11 10  1  0
 12 10  1  0
 12 13  1  1
 14 20  1  0
 14 12  1  0
 15 14  2  0
 17 16  1  6
 17 19  1  0
 18 17  1  0
 19 21  1  0
 19 20  1  6
 21 22  1  0
 23 21  2  0
M  END
$$$$
