LTV.pdb
     RDKit          3D

 23 22  0  0  1  0  0  0  0  0999 V2000
   20.6728  -20.7671  -11.7295 C   0  0  0  0  0  0  0  0  0  0  0  0
   19.2599  -20.6695  -12.2649 C   0  0  2  0  0  0  0  0  0  0  0  0
   18.8592  -19.2241  -12.1901 C   0  0  0  0  0  0  0  0  0  0  0  0
   18.3230  -21.5985  -11.5285 C   0  0  0  0  0  0  0  0  0  0  0  0
   18.8127  -23.0139  -11.5326 C   0  0  2  0  0  0  0  0  0  0  0  0
   18.8074  -23.5219  -12.8678 N   0  0  0  0  0  0  0  0  0  0  0  0
   18.0257  -23.8872  -10.6226 C   0  0  0  0  0  0  0  0  0  0  0  0
   16.7936  -24.0436  -10.8273 O   0  0  0  0  0  0  0  0  0  0  0  0
   17.7614  -27.3127  -10.5644 C   0  0  0  0  0  0  0  0  0  0  0  0
   18.1374  -26.9742   -9.1503 C   0  0  1  0  0  0  0  0  0  0  0  0
   19.5043  -27.1923   -9.0093 O   0  0  0  0  0  0  0  0  0  0  0  0
   17.8118  -25.5746   -8.7503 C   0  0  2  0  0  0  0  0  0  0  0  0
   18.5389  -24.5786   -9.5192 N   0  0  0  0  0  0  0  0  0  0  0  0
   18.0301  -25.2527   -7.3292 C   0  0  0  0  0  0  0  0  0  0  0  0
   19.0607  -24.5877   -6.9475 O   0  0  0  0  0  0  0  0  0  0  0  0
   15.6285  -23.8498   -4.5453 C   0  0  0  0  0  0  0  0  0  0  0  0
   16.2784  -25.1127   -4.0221 C   0  0  1  0  0  0  0  0  0  0  0  0
   15.2607  -26.2146   -4.0791 C   0  0  0  0  0  0  0  0  0  0  0  0
   17.4967  -25.3765   -4.8487 C   0  0  2  0  0  0  0  0  0  0  0  0
   17.1703  -25.6187   -6.2550 N   0  0  0  0  0  0  0  0  0  0  0  0
   18.2419  -26.5071   -4.2976 C   0  0  0  0  0  0  0  0  0  0  0  0
   19.0398  -26.3889   -3.1733 O   0  0  0  0  0  0  0  0  0  0  0  0
   18.1647  -27.6295   -4.8531 O   0  0  0  0  0  0  0  0  0  0  0  0
  2  3  1  1
  2  1  1  0
  4  2  1  0
  5  7  1  0
  5  4  1  0
  5  6  1  6
  7 13  1  0
  7  8  2  0
 10  9  1  6
 11 10  1  0
 12 10  1  0
 12 13  1  6
 14 20  1  0
 14 12  1  0
 15 14  2  0
 17 16  1  6
 17 19  1  0
 18 17  1  0
 19 21  1  0
 19 20  1  6
 21 22  1  0
 23 21  2  0
M  END
$$$$
