LTV.pdb
     RDKit          3D

 23 22  0  0  1  0  0  0  0  0999 V2000
   26.0424  -20.7443   -7.0400 C   0  0  0  0  0  0  0  0  0  0  0  0
   27.2458  -20.0284   -7.6161 C   0  0  2  0  0  0  0  0  0  0  0  0
   27.4542  -18.7873   -6.7965 C   0  0  0  0  0  0  0  0  0  0  0  0
   27.0758  -19.7594   -9.0932 C   0  0  0  0  0  0  0  0  0  0  0  0
   26.9673  -21.0239   -9.8884 C   0  0  2  0  0  0  0  0  0  0  0  0
   28.2548  -21.6317  -10.0054 N   0  0  0  0  0  0  0  0  0  0  0  0
   26.3554  -20.8007  -11.2248 C   0  0  0  0  0  0  0  0  0  0  0  0
   27.0090  -20.1903  -12.1105 O   0  0  0  0  0  0  0  0  0  0  0  0
   24.2901  -22.6116  -15.0634 C   0  0  0  0  0  0  0  0  0  0  0  0
   24.7498  -22.5710  -13.6341 C   0  0  1  0  0  0  0  0  0  0  0  0
   26.0909  -22.9404  -13.6076 O   0  0  0  0  0  0  0  0  0  0  0  0
   24.5855  -21.2420  -12.9774 C   0  0  2  0  0  0  0  0  0  0  0  0
   25.0760  -21.2179  -11.6097 N   0  0  0  0  0  0  0  0  0  0  0  0
   23.2095  -20.7165  -12.9416 C   0  0  0  0  0  0  0  0  0  0  0  0
   22.5004  -20.7784  -11.8722 O   0  0  0  0  0  0  0  0  0  0  0  0
   21.8071  -17.3799  -14.6378 C   0  0  0  0  0  0  0  0  0  0  0  0
   20.8699  -18.5311  -14.9333 C   0  0  1  0  0  0  0  0  0  0  0  0
   21.0838  -18.9474  -16.3595 C   0  0  0  0  0  0  0  0  0  0  0  0
   21.1505  -19.6156  -13.9422 C   0  0  2  0  0  0  0  0  0  0  0  0
   22.5273  -20.1049  -14.0314 N   0  0  0  0  0  0  0  0  0  0  0  0
   20.2066  -20.7172  -14.1230 C   0  0  0  0  0  0  0  0  0  0  0  0
   18.9568  -20.7245  -13.5292 O   0  0  0  0  0  0  0  0  0  0  0  0
   20.5275  -21.6966  -14.8387 O   0  0  0  0  0  0  0  0  0  0  0  0
  2  3  1  1
  2  1  1  0
  4  2  1  0
  5  7  1  0
  5  4  1  0
  5  6  1  6
  7 13  1  0
  7  8  2  0
 10  9  1  6
 11 10  1  0
 12 10  1  0
 12 13  1  1
 14 20  1  0
 14 12  1  0
 15 14  2  0
 17 16  1  1
 17 19  1  0
 18 17  1  0
 19 21  1  0
 19 20  1  6
 21 22  1  0
 23 21  2  0
M  END
$$$$
