LTV.pdb
     RDKit          3D

 23 22  0  0  1  0  0  0  0  0999 V2000
   16.4229  -15.7324  -15.1744 C   0  0  0  0  0  0  0  0  0  0  0  0
   17.6293  -16.0543  -16.0308 C   0  0  2  0  0  0  0  0  0  0  0  0
   18.4790  -17.0164  -15.2512 C   0  0  0  0  0  0  0  0  0  0  0  0
   18.3608  -14.8008  -16.4513 C   0  0  0  0  0  0  0  0  0  0  0  0
   17.5084  -13.9072  -17.2985 C   0  0  2  0  0  0  0  0  0  0  0  0
   17.1597  -14.5801  -18.5095 N   0  0  0  0  0  0  0  0  0  0  0  0
   18.1621  -12.6017  -17.5787 C   0  0  0  0  0  0  0  0  0  0  0  0
   18.8781  -12.4760  -18.6063 O   0  0  0  0  0  0  0  0  0  0  0  0
   17.0041   -9.5974  -18.9385 C   0  0  0  0  0  0  0  0  0  0  0  0
   17.6269   -9.1911  -17.6336 C   0  0  1  0  0  0  0  0  0  0  0  0
   16.6034   -9.0315  -16.7049 O   0  0  0  0  0  0  0  0  0  0  0  0
   18.6307  -10.1609  -17.1078 C   0  0  2  0  0  0  0  0  0  0  0  0
   18.0560  -11.4554  -16.7826 N   0  0  0  0  0  0  0  0  0  0  0  0
   19.3777   -9.7195  -15.9171 C   0  0  0  0  0  0  0  0  0  0  0  0
   18.8881   -9.8513  -14.7368 O   0  0  0  0  0  0  0  0  0  0  0  0
   22.7998  -10.6622  -14.5388 C   0  0  0  0  0  0  0  0  0  0  0  0
   22.7926   -9.1558  -14.6861 C   0  0  1  0  0  0  0  0  0  0  0  0
   23.5521   -8.8092  -15.9335 C   0  0  0  0  0  0  0  0  0  0  0  0
   21.3666   -8.7047  -14.7058 C   0  0  2  0  0  0  0  0  0  0  0  0
   20.6703   -9.1226  -15.9238 N   0  0  0  0  0  0  0  0  0  0  0  0
   21.2975   -7.2525  -14.5533 C   0  0  0  0  0  0  0  0  0  0  0  0
   20.8540   -6.4231  -15.5682 O   0  0  0  0  0  0  0  0  0  0  0  0
   21.6494   -6.7261  -13.4700 O   0  0  0  0  0  0  0  0  0  0  0  0
  2  3  1  1
  2  1  1  0
  4  2  1  0
  5  7  1  0
  5  4  1  0
  5  6  1  6
  7 13  1  0
  7  8  2  0
 10  9  1  6
 11 10  1  0
 12 10  1  0
 12 13  1  1
 14 20  1  0
 14 12  1  0
 15 14  2  0
 17 16  1  6
 17 19  1  0
 18 17  1  0
 19 21  1  0
 19 20  1  6
 21 22  1  0
 23 21  2  0
M  END
$$$$
