LTV.pdb
     RDKit          3D

 23 22  0  0  1  0  0  0  0  0999 V2000
   27.8256  -21.5686  -17.4230 C   0  0  0  0  0  0  0  0  0  0  0  0
   26.4387  -21.2717  -16.8930 C   0  0  2  0  0  0  0  0  0  0  0  0
   25.5752  -20.9446  -18.0774 C   0  0  0  0  0  0  0  0  0  0  0  0
   26.4674  -20.1851  -15.8435 C   0  0  0  0  0  0  0  0  0  0  0  0
   27.3222  -20.5553  -14.6708 C   0  0  2  0  0  0  0  0  0  0  0  0
   27.2656  -21.9670  -14.4596 N   0  0  0  0  0  0  0  0  0  0  0  0
   26.9453  -19.8125  -13.4394 C   0  0  0  0  0  0  0  0  0  0  0  0
   26.6717  -18.5863  -13.5157 O   0  0  0  0  0  0  0  0  0  0  0  0
   24.1939  -21.6649  -11.9960 C   0  0  0  0  0  0  0  0  0  0  0  0
   24.4713  -20.2427  -11.6007 C   0  0  1  0  0  0  0  0  0  0  0  0
   23.5917  -19.9062  -10.5766 O   0  0  0  0  0  0  0  0  0  0  0  0
   25.8732  -19.9950  -11.1556 C   0  0  2  0  0  0  0  0  0  0  0  0
   26.8617  -20.3629  -12.1552 N   0  0  0  0  0  0  0  0  0  0  0  0
   26.2699  -20.6632   -9.9038 C   0  0  0  0  0  0  0  0  0  0  0  0
   26.5525  -21.9160   -9.8780 O   0  0  0  0  0  0  0  0  0  0  0  0
   28.9093  -19.9230   -7.2511 C   0  0  0  0  0  0  0  0  0  0  0  0
   27.6048  -20.0703   -6.4978 C   0  0  1  0  0  0  0  0  0  0  0  0
   27.1530  -18.7005   -6.0826 C   0  0  0  0  0  0  0  0  0  0  0  0
   26.6368  -20.7768   -7.3928 C   0  0  2  0  0  0  0  0  0  0  0  0
   26.3850  -20.0367   -8.6304 N   0  0  0  0  0  0  0  0  0  0  0  0
   25.3828  -21.0212   -6.6822 C   0  0  0  0  0  0  0  0  0  0  0  0
   25.3209  -21.7961   -5.5375 O   0  0  0  0  0  0  0  0  0  0  0  0
   24.3179  -20.5174   -7.1141 O   0  0  0  0  0  0  0  0  0  0  0  0
  2  3  1  6
  2  1  1  0
  4  2  1  0
  5  7  1  0
  5  4  1  0
  5  6  1  1
  7 13  1  0
  7  8  2  0
 10  9  1  1
 11 10  1  0
 12 10  1  0
 12 13  1  6
 14 20  1  0
 14 12  1  0
 15 14  2  0
 17 16  1  6
 17 19  1  0
 18 17  1  0
 19 21  1  0
 19 20  1  6
 21 22  1  0
 23 21  2  0
M  END
$$$$
