PWT.pdb
     RDKit          3D

 29 31  0  0  1  0  0  0  0  0999 V2000
    7.2092  -15.3174   20.8355 N   0  0  0  0  0  0  0  0  0  0  0  0
    6.4734  -14.5761   19.7994 C   0  0  0  0  0  0  0  0  0  0  0  0
    6.9821  -13.1656   19.8474 C   0  0  0  0  0  0  0  0  0  0  0  0
    8.1357  -13.2157   20.8149 C   0  0  0  0  0  0  0  0  0  0  0  0
    8.4958  -14.6943   20.7926 C   0  0  1  0  0  0  0  0  0  0  0  0
    9.3021  -14.9812   22.0193 C   0  0  0  0  0  0  0  0  0  0  0  0
   10.4266  -14.4444   22.1035 O   0  0  0  0  0  0  0  0  0  0  0  0
    8.8394  -15.8149   23.0485 N   0  0  0  0  0  0  0  0  0  0  0  0
    9.4693  -16.0908   24.2868 C   0  0  1  0  0  0  0  0  0  0  0  0
    8.5848  -16.1555   25.5088 C   0  0  0  0  0  0  0  0  0  0  0  0
    7.4060  -15.2823   25.4454 C   0  0  0  0  0  0  0  0  0  0  0  0
    6.1135  -15.4674   25.0355 C   0  0  0  0  0  0  0  0  0  0  0  0
    5.4196  -14.3295   25.1917 N   0  0  0  0  0  0  0  0  0  0  0  0
    6.2126  -13.3897   25.6952 C   0  0  0  0  0  0  0  0  0  0  0  0
    5.9739  -12.0595   26.0381 C   0  0  0  0  0  0  0  0  0  0  0  0
    6.9816  -11.2900   26.5525 C   0  0  0  0  0  0  0  0  0  0  0  0
    8.2379  -11.8139   26.7382 C   0  0  0  0  0  0  0  0  0  0  0  0
    8.4453  -13.1516   26.3842 C   0  0  0  0  0  0  0  0  0  0  0  0
    7.4637  -13.9415   25.8701 C   0  0  0  0  0  0  0  0  0  0  0  0
   10.4496  -17.1784   24.1830 C   0  0  0  0  0  0  0  0  0  0  0  0
   10.0095  -18.3495   24.0546 O   0  0  0  0  0  0  0  0  0  0  0  0
   13.3175  -17.7606   21.7081 C   0  0  0  0  0  0  0  0  0  0  0  0
   13.8561  -17.9292   23.1049 C   0  0  1  0  0  0  0  0  0  0  0  0
   14.7507  -16.9581   23.4838 O   0  0  0  0  0  0  0  0  0  0  0  0
   12.7286  -18.1377   24.0945 C   0  0  2  0  0  0  0  0  0  0  0  0
   11.8568  -17.0187   24.2154 N   0  0  0  0  0  0  0  0  0  0  0  0
   13.2830  -18.6065   25.3770 C   0  0  0  0  0  0  0  0  0  0  0  0
   13.1381  -17.9197   26.4188 O   0  0  0  0  0  0  0  0  0  0  0  0
   13.9776  -19.7997   25.5056 O   0  0  0  0  0  0  0  0  0  0  0  0
  2  1  1  0
  3  4  1  0
  3  2  1  0
  4  5  1  0
  5  1  1  0
  5  6  1  1
  6  7  2  0
  6  8  1  0
  8  9  1  0
  9 20  1  0
  9 10  1  1
 10 11  1  0
 11 19  1  0
 12 11  2  0
 12 13  1  0
 13 14  1  0
 14 15  1  0
 15 16  2  0
 17 16  1  0
 18 17  2  0
 19 14  2  0
 19 18  1  0
 20 21  2  0
 23 22  1  6
 24 23  1  0
 25 23  1  0
 26 20  1  0
 25 26  1  1
 27 25  1  0
 27 29  1  0
 28 27  2  0
M  END
$$$$
