PWT.pdb
     RDKit          3D

 29 31  0  0  1  0  0  0  0  0999 V2000
    7.2613  -15.9906   21.3518 N   0  0  0  0  0  0  0  0  0  0  0  0
    6.4457  -15.3431   20.3126 C   0  0  0  0  0  0  0  0  0  0  0  0
    6.8737  -13.9058   20.2740 C   0  0  0  0  0  0  0  0  0  0  0  0
    8.0637  -13.8441   21.1956 C   0  0  0  0  0  0  0  0  0  0  0  0
    8.5073  -15.2996   21.2280 C   0  0  1  0  0  0  0  0  0  0  0  0
    9.3743  -15.4806   22.4334 C   0  0  0  0  0  0  0  0  0  0  0  0
   10.4940  -14.9276   22.4212 O   0  0  0  0  0  0  0  0  0  0  0  0
    8.9720  -16.2350   23.5458 N   0  0  0  0  0  0  0  0  0  0  0  0
    9.6827  -16.4409   24.7536 C   0  0  1  0  0  0  0  0  0  0  0  0
    8.9503  -16.1469   26.0410 C   0  0  0  0  0  0  0  0  0  0  0  0
    7.7298  -15.3487   25.8702 C   0  0  0  0  0  0  0  0  0  0  0  0
    6.4453  -15.6514   25.5077 C   0  0  0  0  0  0  0  0  0  0  0  0
    5.6974  -14.5373   25.5104 N   0  0  0  0  0  0  0  0  0  0  0  0
    6.4466  -13.4988   25.8653 C   0  0  0  0  0  0  0  0  0  0  0  0
    6.1452  -12.1463   26.0196 C   0  0  0  0  0  0  0  0  0  0  0  0
    7.1171  -11.2644   26.4065 C   0  0  0  0  0  0  0  0  0  0  0  0
    8.3988  -11.6962   26.6478 C   0  0  0  0  0  0  0  0  0  0  0  0
    8.6693  -13.0592   26.4841 C   0  0  0  0  0  0  0  0  0  0  0  0
    7.7243  -13.9600   26.1000 C   0  0  0  0  0  0  0  0  0  0  0  0
   10.4320  -17.7030   24.7508 C   0  0  0  0  0  0  0  0  0  0  0  0
    9.7779  -18.7691   24.6203 O   0  0  0  0  0  0  0  0  0  0  0  0
   13.0549  -19.0815   22.4275 C   0  0  0  0  0  0  0  0  0  0  0  0
   13.5960  -19.1841   23.8297 C   0  0  1  0  0  0  0  0  0  0  0  0
   14.6480  -18.3399   24.0898 O   0  0  0  0  0  0  0  0  0  0  0  0
   12.4768  -19.0930   24.8461 C   0  0  2  0  0  0  0  0  0  0  0  0
   11.8375  -17.8214   24.8834 N   0  0  0  0  0  0  0  0  0  0  0  0
   12.9665  -19.5560   26.1567 C   0  0  0  0  0  0  0  0  0  0  0  0
   13.0035  -18.7675   27.1340 O   0  0  0  0  0  0  0  0  0  0  0  0
   13.4030  -20.8527   26.3820 O   0  0  0  0  0  0  0  0  0  0  0  0
  2  1  1  0
  3  4  1  0
  3  2  1  0
  4  5  1  0
  5  1  1  0
  5  6  1  1
  6  7  2  0
  6  8  1  0
  8  9  1  0
  9 20  1  0
  9 10  1  1
 10 11  1  0
 11 19  1  0
 12 11  2  0
 12 13  1  0
 13 14  1  0
 14 15  1  0
 15 16  2  0
 17 16  1  0
 18 17  2  0
 19 14  2  0
 19 18  1  0
 20 21  2  0
 23 22  1  6
 24 23  1  0
 25 23  1  0
 26 20  1  0
 25 26  1  1
 27 25  1  0
 27 29  1  0
 28 27  2  0
M  END
$$$$
