PWT.pdb
     RDKit          3D

 29 31  0  0  1  0  0  0  0  0999 V2000
    7.3724  -15.1294   20.4315 N   0  0  0  0  0  0  0  0  0  0  0  0
    6.7293  -14.3135   19.3899 C   0  0  0  0  0  0  0  0  0  0  0  0
    7.1893  -12.9032   19.6136 C   0  0  0  0  0  0  0  0  0  0  0  0
    8.2352  -13.0167   20.6920 C   0  0  0  0  0  0  0  0  0  0  0  0
    8.6379  -14.4802   20.5814 C   0  0  1  0  0  0  0  0  0  0  0  0
    9.3180  -14.8591   21.8586 C   0  0  0  0  0  0  0  0  0  0  0  0
   10.4058  -14.3017   22.1149 O   0  0  0  0  0  0  0  0  0  0  0  0
    8.7792  -15.7988   22.7503 N   0  0  0  0  0  0  0  0  0  0  0  0
    9.2433  -16.1237   24.0485 C   0  0  1  0  0  0  0  0  0  0  0  0
    8.2188  -16.1549   25.1573 C   0  0  0  0  0  0  0  0  0  0  0  0
    7.2360  -15.0656   25.0993 C   0  0  0  0  0  0  0  0  0  0  0  0
    6.0238  -14.9178   24.4814 C   0  0  0  0  0  0  0  0  0  0  0  0
    5.5174  -13.7062   24.7574 N   0  0  0  0  0  0  0  0  0  0  0  0
    6.3573  -13.0408   25.5430 C   0  0  0  0  0  0  0  0  0  0  0  0
    6.2919  -11.7655   26.1027 C   0  0  0  0  0  0  0  0  0  0  0  0
    7.3091  -11.3091   26.8961 C   0  0  0  0  0  0  0  0  0  0  0  0
    8.4049  -12.0970   27.1522 C   0  0  0  0  0  0  0  0  0  0  0  0
    8.4406  -13.3715   26.5759 C   0  0  0  0  0  0  0  0  0  0  0  0
    7.4453  -13.8528   25.7825 C   0  0  0  0  0  0  0  0  0  0  0  0
   10.1701  -17.2620   24.0400 C   0  0  0  0  0  0  0  0  0  0  0  0
    9.6744  -18.4170   24.0000 O   0  0  0  0  0  0  0  0  0  0  0  0
   14.6372  -19.3560   23.7441 C   0  0  0  0  0  0  0  0  0  0  0  0
   13.8577  -18.0679   23.7971 C   0  0  1  0  0  0  0  0  0  0  0  0
   14.0517  -17.2481   22.7121 O   0  0  0  0  0  0  0  0  0  0  0  0
   12.3990  -18.3342   24.1057 C   0  0  2  0  0  0  0  0  0  0  0  0
   11.5833  -17.1679   24.0731 N   0  0  0  0  0  0  0  0  0  0  0  0
   12.2959  -19.1026   25.3591 C   0  0  0  0  0  0  0  0  0  0  0  0
   12.0275  -18.5200   26.4392 O   0  0  0  0  0  0  0  0  0  0  0  0
   12.4839  -20.4752   25.4183 O   0  0  0  0  0  0  0  0  0  0  0  0
  2  1  1  0
  3  4  1  0
  3  2  1  0
  4  5  1  0
  5  1  1  0
  5  6  1  1
  6  7  2  0
  6  8  1  0
  8  9  1  0
  9 20  1  0
  9 10  1  1
 10 11  1  0
 11 19  1  0
 12 11  2  0
 12 13  1  0
 13 14  1  0
 14 15  1  0
 15 16  2  0
 17 16  1  0
 18 17  2  0
 19 14  2  0
 19 18  1  0
 20 21  2  0
 23 22  1  6
 24 23  1  0
 25 23  1  0
 26 20  1  0
 25 26  1  1
 27 25  1  0
 27 29  1  0
 28 27  2  0
M  END
$$$$
