PWT.pdb
     RDKit          3D

 29 31  0  0  1  0  0  0  0  0999 V2000
    7.4269  -15.5815   20.8852 N   0  0  0  0  0  0  0  0  0  0  0  0
    6.7285  -14.9003   19.7840 C   0  0  0  0  0  0  0  0  0  0  0  0
    7.0800  -13.4462   19.8960 C   0  0  0  0  0  0  0  0  0  0  0  0
    8.1268  -13.3958   20.9782 C   0  0  0  0  0  0  0  0  0  0  0  0
    8.6392  -14.8288   20.9817 C   0  0  1  0  0  0  0  0  0  0  0  0
    9.3405  -15.0544   22.2835 C   0  0  0  0  0  0  0  0  0  0  0  0
   10.3806  -14.3962   22.4948 O   0  0  0  0  0  0  0  0  0  0  0  0
    8.8718  -15.9616   23.2457 N   0  0  0  0  0  0  0  0  0  0  0  0
    9.4702  -16.2919   24.4864 C   0  0  1  0  0  0  0  0  0  0  0  0
    8.5846  -16.2535   25.7088 C   0  0  0  0  0  0  0  0  0  0  0  0
    7.4951  -15.2721   25.6320 C   0  0  0  0  0  0  0  0  0  0  0  0
    6.1954  -15.3338   25.2079 C   0  0  0  0  0  0  0  0  0  0  0  0
    5.6113  -14.1348   25.3560 N   0  0  0  0  0  0  0  0  0  0  0  0
    6.4847  -13.2741   25.8677 C   0  0  0  0  0  0  0  0  0  0  0  0
    6.3700  -11.9267   26.2075 C   0  0  0  0  0  0  0  0  0  0  0  0
    7.4407  -11.2558   26.7326 C   0  0  0  0  0  0  0  0  0  0  0  0
    8.6393  -11.8967   26.9323 C   0  0  0  0  0  0  0  0  0  0  0  0
    8.7222  -13.2486   26.5812 C   0  0  0  0  0  0  0  0  0  0  0  0
    7.6756  -13.9423   26.0567 C   0  0  0  0  0  0  0  0  0  0  0  0
   10.3308  -17.4772   24.3916 C   0  0  0  0  0  0  0  0  0  0  0  0
    9.7989  -18.6006   24.5834 O   0  0  0  0  0  0  0  0  0  0  0  0
   12.7294  -18.5535   21.5032 C   0  0  0  0  0  0  0  0  0  0  0  0
   13.4449  -18.6638   22.8243 C   0  0  1  0  0  0  0  0  0  0  0  0
   14.4710  -17.7648   22.9851 O   0  0  0  0  0  0  0  0  0  0  0  0
   12.4568  -18.6714   23.9722 C   0  0  2  0  0  0  0  0  0  0  0  0
   11.7171  -17.4618   24.1007 N   0  0  0  0  0  0  0  0  0  0  0  0
   13.1443  -19.0874   25.2076 C   0  0  0  0  0  0  0  0  0  0  0  0
   13.7120  -20.2062   25.2707 O   0  0  0  0  0  0  0  0  0  0  0  0
   13.2031  -18.2909   26.3411 O   0  0  0  0  0  0  0  0  0  0  0  0
  2  1  1  0
  3  4  1  0
  3  2  1  0
  4  5  1  0
  5  1  1  0
  5  6  1  1
  6  7  2  0
  6  8  1  0
  8  9  1  0
  9 20  1  0
  9 10  1  1
 10 11  1  0
 11 19  1  0
 12 11  2  0
 12 13  1  0
 13 14  1  0
 14 15  1  0
 15 16  2  0
 17 16  1  0
 18 17  2  0
 19 14  2  0
 19 18  1  0
 20 21  2  0
 23 22  1  6
 24 23  1  0
 25 23  1  0
 26 20  1  0
 25 26  1  1
 27 25  1  0
 27 29  1  0
 28 27  2  0
M  END
$$$$
