PWT.pdb
     RDKit          3D

 29 31  0  0  1  0  0  0  0  0999 V2000
    7.8831  -15.1558   18.3484 N   0  0  0  0  0  0  0  0  0  0  0  0
    7.5536  -14.6096   17.0227 C   0  0  0  0  0  0  0  0  0  0  0  0
    7.6770  -13.1189   17.1373 C   0  0  0  0  0  0  0  0  0  0  0  0
    8.2547  -12.8950   18.5104 C   0  0  0  0  0  0  0  0  0  0  0  0
    8.8884  -14.2469   18.8051 C   0  0  1  0  0  0  0  0  0  0  0  0
    9.0980  -14.3348   20.2835 C   0  0  0  0  0  0  0  0  0  0  0  0
    9.9819  -13.6059   20.7805 O   0  0  0  0  0  0  0  0  0  0  0  0
    8.3471  -15.1916   21.1024 N   0  0  0  0  0  0  0  0  0  0  0  0
    8.2861  -15.2014   22.5175 C   0  0  1  0  0  0  0  0  0  0  0  0
    6.9568  -14.8669   23.1507 C   0  0  0  0  0  0  0  0  0  0  0  0
    6.9607  -14.9132   24.6183 C   0  0  0  0  0  0  0  0  0  0  0  0
    6.9065  -15.9305   25.5322 C   0  0  0  0  0  0  0  0  0  0  0  0
    6.9480  -15.4275   26.7755 N   0  0  0  0  0  0  0  0  0  0  0  0
    7.0290  -14.1025   26.7175 C   0  0  0  0  0  0  0  0  0  0  0  0
    7.1004  -13.1322   27.7162 C   0  0  0  0  0  0  0  0  0  0  0  0
    7.1827  -11.8074   27.3841 C   0  0  0  0  0  0  0  0  0  0  0  0
    7.1964  -11.4150   26.0676 C   0  0  0  0  0  0  0  0  0  0  0  0
    7.1234  -12.4125   25.0891 C   0  0  0  0  0  0  0  0  0  0  0  0
    7.0402  -13.7375   25.3882 C   0  0  0  0  0  0  0  0  0  0  0  0
    8.9629  -16.3683   23.0961 C   0  0  0  0  0  0  0  0  0  0  0  0
    8.4350  -17.4958   22.9186 O   0  0  0  0  0  0  0  0  0  0  0  0
   12.8946  -18.7436   24.8258 C   0  0  0  0  0  0  0  0  0  0  0  0
   12.3052  -17.4659   24.2876 C   0  0  1  0  0  0  0  0  0  0  0  0
   12.8366  -17.0634   23.0866 O   0  0  0  0  0  0  0  0  0  0  0  0
   10.7918  -17.5274   24.2935 C   0  0  2  0  0  0  0  0  0  0  0  0
   10.1670  -16.3306   23.8415 N   0  0  0  0  0  0  0  0  0  0  0  0
   10.3253  -17.9848   25.6145 C   0  0  0  0  0  0  0  0  0  0  0  0
    9.6565  -17.2175   26.3508 O   0  0  0  0  0  0  0  0  0  0  0  0
   10.5896  -19.2532   26.1086 O   0  0  0  0  0  0  0  0  0  0  0  0
  2  1  1  0
  3  4  1  0
  3  2  1  0
  4  5  1  0
  5  1  1  0
  5  6  1  1
  6  7  2  0
  6  8  1  0
  8  9  1  0
  9 20  1  0
  9 10  1  6
 10 11  1  0
 11 19  1  0
 12 11  2  0
 12 13  1  0
 13 14  1  0
 14 15  1  0
 15 16  2  0
 17 16  1  0
 18 17  2  0
 19 14  2  0
 19 18  1  0
 20 21  2  0
 23 22  1  6
 24 23  1  0
 25 23  1  0
 26 20  1  0
 25 26  1  1
 27 25  1  0
 27 29  1  0
 28 27  2  0
M  END
$$$$
