PWT.pdb
     RDKit          3D

 29 31  0  0  1  0  0  0  0  0999 V2000
    7.3377  -15.9828   21.1336 N   0  0  0  0  0  0  0  0  0  0  0  0
    6.5384  -15.4506   20.0190 C   0  0  0  0  0  0  0  0  0  0  0  0
    6.7461  -13.9648   20.0216 C   0  0  0  0  0  0  0  0  0  0  0  0
    7.8181  -13.7380   21.0555 C   0  0  0  0  0  0  0  0  0  0  0  0
    8.4711  -15.1106   21.1322 C   0  0  1  0  0  0  0  0  0  0  0  0
    9.2344  -15.1763   22.4169 C   0  0  0  0  0  0  0  0  0  0  0  0
   10.2191  -14.4176   22.5370 O   0  0  0  0  0  0  0  0  0  0  0  0
    8.8812  -16.0447   23.4608 N   0  0  0  0  0  0  0  0  0  0  0  0
    9.5664  -16.2505   24.6833 C   0  0  1  0  0  0  0  0  0  0  0  0
    8.7500  -16.1702   25.9510 C   0  0  0  0  0  0  0  0  0  0  0  0
    7.5481  -15.3339   25.8408 C   0  0  0  0  0  0  0  0  0  0  0  0
    6.2567  -15.5803   25.4604 C   0  0  0  0  0  0  0  0  0  0  0  0
    5.5348  -14.4523   25.5449 N   0  0  0  0  0  0  0  0  0  0  0  0
    6.3079  -13.4595   25.9716 C   0  0  0  0  0  0  0  0  0  0  0  0
    6.0379  -12.1150   26.2234 C   0  0  0  0  0  0  0  0  0  0  0  0
    7.0302  -11.2857   26.6704 C   0  0  0  0  0  0  0  0  0  0  0  0
    8.3017  -11.7631   26.8772 C   0  0  0  0  0  0  0  0  0  0  0  0
    8.5405  -13.1166   26.6153 C   0  0  0  0  0  0  0  0  0  0  0  0
    7.5748  -13.9656   26.1697 C   0  0  0  0  0  0  0  0  0  0  0  0
   10.4875  -17.3916   24.6203 C   0  0  0  0  0  0  0  0  0  0  0  0
    9.9978  -18.5435   24.7425 O   0  0  0  0  0  0  0  0  0  0  0  0
   13.3191  -18.0576   21.9400 C   0  0  0  0  0  0  0  0  0  0  0  0
   13.8358  -18.3290   23.3288 C   0  0  1  0  0  0  0  0  0  0  0  0
   14.8132  -17.4583   23.7455 O   0  0  0  0  0  0  0  0  0  0  0  0
   12.6909  -18.4736   24.3099 C   0  0  2  0  0  0  0  0  0  0  0  0
   11.8889  -17.3037   24.4324 N   0  0  0  0  0  0  0  0  0  0  0  0
   13.2067  -18.9834   25.5929 C   0  0  0  0  0  0  0  0  0  0  0  0
   13.0165  -18.3379   26.6537 O   0  0  0  0  0  0  0  0  0  0  0  0
   13.9125  -20.1720   25.7016 O   0  0  0  0  0  0  0  0  0  0  0  0
  2  1  1  0
  3  4  1  0
  3  2  1  0
  4  5  1  0
  5  1  1  0
  5  6  1  1
  6  7  2  0
  6  8  1  0
  8  9  1  0
  9 20  1  0
  9 10  1  1
 10 11  1  0
 11 19  1  0
 12 11  2  0
 12 13  1  0
 13 14  1  0
 14 15  1  0
 15 16  2  0
 17 16  1  0
 18 17  2  0
 19 14  2  0
 19 18  1  0
 20 21  2  0
 23 22  1  6
 24 23  1  0
 25 23  1  0
 26 20  1  0
 25 26  1  1
 27 25  1  0
 27 29  1  0
 28 27  2  0
M  END
$$$$
