PWT.pdb
     RDKit          3D

 29 31  0  0  1  0  0  0  0  0999 V2000
    7.5920  -15.5233   20.6272 N   0  0  0  0  0  0  0  0  0  0  0  0
    7.0681  -14.8168   19.4480 C   0  0  0  0  0  0  0  0  0  0  0  0
    7.3981  -13.3664   19.6432 C   0  0  0  0  0  0  0  0  0  0  0  0
    8.2691  -13.3422   20.8721 C   0  0  0  0  0  0  0  0  0  0  0  0
    8.7755  -14.7765   20.9222 C   0  0  1  0  0  0  0  0  0  0  0  0
    9.2718  -15.0319   22.3100 C   0  0  0  0  0  0  0  0  0  0  0  0
   10.2740  -14.3889   22.6868 O   0  0  0  0  0  0  0  0  0  0  0  0
    8.6565  -15.9500   23.1743 N   0  0  0  0  0  0  0  0  0  0  0  0
    9.0551  -16.3023   24.4871 C   0  0  1  0  0  0  0  0  0  0  0  0
    8.0055  -16.2207   25.5696 C   0  0  0  0  0  0  0  0  0  0  0  0
    7.1294  -15.0465   25.4710 C   0  0  0  0  0  0  0  0  0  0  0  0
    5.8933  -14.8325   24.9240 C   0  0  0  0  0  0  0  0  0  0  0  0
    5.5271  -13.5555   25.1133 N   0  0  0  0  0  0  0  0  0  0  0  0
    6.4841  -12.9108   25.7721 C   0  0  0  0  0  0  0  0  0  0  0  0
    6.5834  -11.5899   26.2074 C   0  0  0  0  0  0  0  0  0  0  0  0
    7.6968  -11.1696   26.8825 C   0  0  0  0  0  0  0  0  0  0  0  0
    8.7289  -12.0387   27.1408 C   0  0  0  0  0  0  0  0  0  0  0  0
    8.5990  -13.3572   26.6909 C   0  0  0  0  0  0  0  0  0  0  0  0
    7.5048  -13.8045   26.0167 C   0  0  0  0  0  0  0  0  0  0  0  0
    9.8670  -17.5249   24.5134 C   0  0  0  0  0  0  0  0  0  0  0  0
    9.2875  -18.6149   24.2736 O   0  0  0  0  0  0  0  0  0  0  0  0
   13.0667  -18.4954   22.6160 C   0  0  0  0  0  0  0  0  0  0  0  0
   13.2753  -18.7954   24.0775 C   0  0  1  0  0  0  0  0  0  0  0  0
   14.2293  -18.0132   24.6817 O   0  0  0  0  0  0  0  0  0  0  0  0
   11.9528  -18.8212   24.8154 C   0  0  2  0  0  0  0  0  0  0  0  0
   11.2558  -17.5801   24.7876 N   0  0  0  0  0  0  0  0  0  0  0  0
   12.1584  -19.3626   26.1705 C   0  0  0  0  0  0  0  0  0  0  0  0
   11.9262  -18.6508   27.1792 O   0  0  0  0  0  0  0  0  0  0  0  0
   12.6077  -20.6533   26.4053 O   0  0  0  0  0  0  0  0  0  0  0  0
  2  1  1  0
  3  4  1  0
  3  2  1  0
  4  5  1  0
  5  1  1  0
  5  6  1  1
  6  7  2  0
  6  8  1  0
  8  9  1  0
  9 20  1  0
  9 10  1  1
 10 11  1  0
 11 19  1  0
 12 11  2  0
 12 13  1  0
 13 14  1  0
 14 15  1  0
 15 16  2  0
 17 16  1  0
 18 17  2  0
 19 14  2  0
 19 18  1  0
 20 21  2  0
 23 22  1  6
 24 23  1  0
 25 23  1  0
 26 20  1  0
 25 26  1  1
 27 25  1  0
 27 29  1  0
 28 27  2  0
M  END
$$$$
