PWT.pdb
     RDKit          3D

 29 31  0  0  1  0  0  0  0  0999 V2000
    7.2845  -15.6972   21.1622 N   0  0  0  0  0  0  0  0  0  0  0  0
    6.4467  -14.9813   20.1877 C   0  0  0  0  0  0  0  0  0  0  0  0
    6.8335  -13.5347   20.2800 C   0  0  0  0  0  0  0  0  0  0  0  0
    8.0250  -13.5233   21.2017 C   0  0  0  0  0  0  0  0  0  0  0  0
    8.5099  -14.9624   21.1003 C   0  0  1  0  0  0  0  0  0  0  0  0
    9.3866  -15.2278   22.2829 C   0  0  0  0  0  0  0  0  0  0  0  0
   10.5149  -14.6924   22.2905 O   0  0  0  0  0  0  0  0  0  0  0  0
    8.9839  -16.0403   23.3534 N   0  0  0  0  0  0  0  0  0  0  0  0
    9.6912  -16.3048   24.5518 C   0  0  1  0  0  0  0  0  0  0  0  0
    8.9165  -16.2039   25.8440 C   0  0  0  0  0  0  0  0  0  0  0  0
    7.7292  -15.3434   25.7682 C   0  0  0  0  0  0  0  0  0  0  0  0
    6.4114  -15.5741   25.4797 C   0  0  0  0  0  0  0  0  0  0  0  0
    5.7216  -14.4255   25.5548 N   0  0  0  0  0  0  0  0  0  0  0  0
    6.5419  -13.4342   25.8860 C   0  0  0  0  0  0  0  0  0  0  0  0
    6.3184  -12.0731   26.0901 C   0  0  0  0  0  0  0  0  0  0  0  0
    7.3550  -11.2497   26.4358 C   0  0  0  0  0  0  0  0  0  0  0  0
    8.6258  -11.7491   26.5866 C   0  0  0  0  0  0  0  0  0  0  0  0
    8.8175  -13.1188   26.3749 C   0  0  0  0  0  0  0  0  0  0  0  0
    7.8071  -13.9626   26.0298 C   0  0  0  0  0  0  0  0  0  0  0  0
   10.5471  -17.4923   24.4429 C   0  0  0  0  0  0  0  0  0  0  0  0
   10.0882  -18.5827   24.8694 O   0  0  0  0  0  0  0  0  0  0  0  0
   12.3347  -18.9452   21.2919 C   0  0  0  0  0  0  0  0  0  0  0  0
   13.3083  -18.8626   22.4386 C   0  0  1  0  0  0  0  0  0  0  0  0
   14.3037  -17.9319   22.2654 O   0  0  0  0  0  0  0  0  0  0  0  0
   12.5758  -18.7321   23.7578 C   0  0  2  0  0  0  0  0  0  0  0  0
   11.8533  -17.5130   23.8949 N   0  0  0  0  0  0  0  0  0  0  0  0
   13.5094  -19.0030   24.8655 C   0  0  0  0  0  0  0  0  0  0  0  0
   13.6907  -18.1455   25.7654 O   0  0  0  0  0  0  0  0  0  0  0  0
   14.2227  -20.1869   24.9762 O   0  0  0  0  0  0  0  0  0  0  0  0
  2  1  1  0
  3  4  1  0
  3  2  1  0
  4  5  1  0
  5  1  1  0
  5  6  1  1
  6  7  2  0
  6  8  1  0
  8  9  1  0
  9 20  1  0
  9 10  1  1
 10 11  1  0
 11 19  1  0
 12 11  2  0
 12 13  1  0
 13 14  1  0
 14 15  1  0
 15 16  2  0
 17 16  1  0
 18 17  2  0
 19 14  2  0
 19 18  1  0
 20 21  2  0
 23 22  1  6
 24 23  1  0
 25 23  1  0
 26 20  1  0
 25 26  1  1
 27 25  1  0
 27 29  1  0
 28 27  2  0
M  END
$$$$
