PWT.pdb
     RDKit          3D

 29 31  0  0  1  0  0  0  0  0999 V2000
    7.2220  -15.2391   20.6951 N   0  0  0  0  0  0  0  0  0  0  0  0
    6.5315  -14.4282   19.6802 C   0  0  0  0  0  0  0  0  0  0  0  0
    7.0871  -13.0397   19.7990 C   0  0  0  0  0  0  0  0  0  0  0  0
    8.2201  -13.1723   20.7830 C   0  0  0  0  0  0  0  0  0  0  0  0
    8.5297  -14.6601   20.7017 C   0  0  1  0  0  0  0  0  0  0  0  0
    9.3028  -15.0281   21.9282 C   0  0  0  0  0  0  0  0  0  0  0  0
   10.4719  -14.5983   22.0182 O   0  0  0  0  0  0  0  0  0  0  0  0
    8.7621  -15.8219   22.9510 N   0  0  0  0  0  0  0  0  0  0  0  0
    9.3555  -16.1526   24.1939 C   0  0  1  0  0  0  0  0  0  0  0  0
    8.4455  -16.2056   25.3978 C   0  0  0  0  0  0  0  0  0  0  0  0
    7.3423  -15.2374   25.3614 C   0  0  0  0  0  0  0  0  0  0  0  0
    6.0526  -15.2904   24.9064 C   0  0  0  0  0  0  0  0  0  0  0  0
    5.4466  -14.1122   25.1192 N   0  0  0  0  0  0  0  0  0  0  0  0
    6.2955  -13.2739   25.7042 C   0  0  0  0  0  0  0  0  0  0  0  0
    6.1524  -11.9533   26.1279 C   0  0  0  0  0  0  0  0  0  0  0  0
    7.2013  -11.3025   26.7182 C   0  0  0  0  0  0  0  0  0  0  0  0
    8.4056  -11.9374   26.9017 C   0  0  0  0  0  0  0  0  0  0  0  0
    8.5173  -13.2622   26.4657 C   0  0  0  0  0  0  0  0  0  0  0  0
    7.4928  -13.9355   25.8750 C   0  0  0  0  0  0  0  0  0  0  0  0
   10.2894  -17.2796   24.0830 C   0  0  0  0  0  0  0  0  0  0  0  0
    9.8026  -18.4235   23.8930 O   0  0  0  0  0  0  0  0  0  0  0  0
   12.8577  -18.0050   21.5333 C   0  0  0  0  0  0  0  0  0  0  0  0
   13.5436  -18.1622   22.8654 C   0  0  1  0  0  0  0  0  0  0  0  0
   14.4949  -17.2057   23.1246 O   0  0  0  0  0  0  0  0  0  0  0  0
   12.5282  -18.3277   23.9770 C   0  0  2  0  0  0  0  0  0  0  0  0
   11.7001  -17.1862   24.1725 N   0  0  0  0  0  0  0  0  0  0  0  0
   13.2105  -18.7892   25.1990 C   0  0  0  0  0  0  0  0  0  0  0  0
   13.8701  -19.8582   25.1911 O   0  0  0  0  0  0  0  0  0  0  0  0
   13.1657  -18.0903   26.3958 O   0  0  0  0  0  0  0  0  0  0  0  0
  2  1  1  0
  3  4  1  0
  3  2  1  0
  4  5  1  0
  5  1  1  0
  5  6  1  1
  6  7  2  0
  6  8  1  0
  8  9  1  0
  9 20  1  0
  9 10  1  1
 10 11  1  0
 11 19  1  0
 12 11  2  0
 12 13  1  0
 13 14  1  0
 14 15  1  0
 15 16  2  0
 17 16  1  0
 18 17  2  0
 19 14  2  0
 19 18  1  0
 20 21  2  0
 23 22  1  6
 24 23  1  0
 25 23  1  0
 26 20  1  0
 25 26  1  1
 27 25  1  0
 27 29  1  0
 28 27  2  0
M  END
$$$$
