PWT.pdb
     RDKit          3D

 29 31  0  0  1  0  0  0  0  0999 V2000
    7.0154  -16.4100   21.4943 N   0  0  0  0  0  0  0  0  0  0  0  0
    5.9477  -15.9756   20.5802 C   0  0  0  0  0  0  0  0  0  0  0  0
    6.0052  -14.4769   20.5451 C   0  0  0  0  0  0  0  0  0  0  0  0
    7.2466  -14.1310   21.3253 C   0  0  0  0  0  0  0  0  0  0  0  0
    8.0316  -15.4329   21.2533 C   0  0  1  0  0  0  0  0  0  0  0  0
    9.0553  -15.4037   22.3435 C   0  0  0  0  0  0  0  0  0  0  0  0
    9.9895  -14.5827   22.2295 O   0  0  0  0  0  0  0  0  0  0  0  0
    8.9937  -16.2519   23.4593 N   0  0  0  0  0  0  0  0  0  0  0  0
    9.8072  -16.2164   24.6183 C   0  0  1  0  0  0  0  0  0  0  0  0
    9.1022  -16.1298   25.9508 C   0  0  0  0  0  0  0  0  0  0  0  0
    7.7926  -15.4681   25.8968 C   0  0  0  0  0  0  0  0  0  0  0  0
    6.5166  -15.9135   25.6812 C   0  0  0  0  0  0  0  0  0  0  0  0
    5.6590  -14.8832   25.7424 N   0  0  0  0  0  0  0  0  0  0  0  0
    6.3266  -13.7622   25.9935 C   0  0  0  0  0  0  0  0  0  0  0  0
    5.9010  -12.4440   26.1525 C   0  0  0  0  0  0  0  0  0  0  0  0
    6.8089  -11.4545   26.4145 C   0  0  0  0  0  0  0  0  0  0  0  0
    8.1474  -11.7435   26.5247 C   0  0  0  0  0  0  0  0  0  0  0  0
    8.5426  -13.0755   26.3599 C   0  0  0  0  0  0  0  0  0  0  0  0
    7.6637  -14.0809   26.0981 C   0  0  0  0  0  0  0  0  0  0  0  0
   10.8958  -17.1996   24.5650 C   0  0  0  0  0  0  0  0  0  0  0  0
   10.8109  -18.2047   25.3161 O   0  0  0  0  0  0  0  0  0  0  0  0
   12.6517  -18.7930   21.3578 C   0  0  0  0  0  0  0  0  0  0  0  0
   13.6729  -18.3528   22.3741 C   0  0  1  0  0  0  0  0  0  0  0  0
   14.4588  -17.3036   21.9638 O   0  0  0  0  0  0  0  0  0  0  0  0
   13.0269  -18.1367   23.7269 C   0  0  2  0  0  0  0  0  0  0  0  0
   12.0398  -17.1108   23.7343 N   0  0  0  0  0  0  0  0  0  0  0  0
   14.0751  -17.9670   24.7488 C   0  0  0  0  0  0  0  0  0  0  0  0
   14.1662  -16.8908   25.3904 O   0  0  0  0  0  0  0  0  0  0  0  0
   14.9966  -18.9572   25.0537 O   0  0  0  0  0  0  0  0  0  0  0  0
  2  1  1  0
  3  4  1  0
  3  2  1  0
  4  5  1  0
  5  1  1  0
  5  6  1  1
  6  7  2  0
  6  8  1  0
  8  9  1  0
  9 20  1  0
  9 10  1  1
 10 11  1  0
 11 19  1  0
 12 11  2  0
 12 13  1  0
 13 14  1  0
 14 15  1  0
 15 16  2  0
 17 16  1  0
 18 17  2  0
 19 14  2  0
 19 18  1  0
 20 21  2  0
 23 22  1  6
 24 23  1  0
 25 23  1  0
 26 20  1  0
 25 26  1  6
 27 25  1  0
 27 29  1  0
 28 27  2  0
M  END
$$$$
