MYG.pdb
     RDKit          3D

 25 25  0  0  1  0  0  0  0  0999 V2000
   23.8360  -17.9935  -20.1341 C   0  0  0  0  0  0  0  0  0  0  0  0
   24.5902  -19.2807  -21.1340 S   0  0  0  0  0  0  0  0  0  0  0  0
   25.7255  -20.2820  -20.1482 C   0  0  0  0  0  0  0  0  0  0  0  0
   26.1473  -19.5706  -18.8827 C   0  0  0  0  0  0  0  0  0  0  0  0
   27.2209  -20.3443  -18.1447 C   0  0  2  0  0  0  0  0  0  0  0  0
   27.6639  -21.4952  -18.8977 N   0  0  0  0  0  0  0  0  0  0  0  0
   26.7281  -20.7983  -16.8283 C   0  0  0  0  0  0  0  0  0  0  0  0
   26.3140  -21.9779  -16.6621 O   0  0  0  0  0  0  0  0  0  0  0  0
   25.3415  -21.0740   -8.2079 O   0  0  0  0  0  0  0  0  0  0  0  0
   25.7712  -20.7458   -9.4744 C   0  0  0  0  0  0  0  0  0  0  0  0
   26.7777  -21.4346  -10.0951 C   0  0  0  0  0  0  0  0  0  0  0  0
   27.1783  -21.0718  -11.3671 C   0  0  0  0  0  0  0  0  0  0  0  0
   26.5898  -20.0281  -12.0355 C   0  0  0  0  0  0  0  0  0  0  0  0
   27.0192  -19.6369  -13.3937 C   0  0  0  0  0  0  0  0  0  0  0  0
   26.2265  -20.3753  -14.4282 C   0  0  2  0  0  0  0  0  0  0  0  0
   26.7106  -19.9209  -15.7299 N   0  0  0  0  0  0  0  0  0  0  0  0
   24.7663  -20.1856  -14.3324 C   0  0  0  0  0  0  0  0  0  0  0  0
   24.2051  -19.1547  -14.7754 O   0  0  0  0  0  0  0  0  0  0  0  0
   25.5859  -19.3448  -11.4106 C   0  0  0  0  0  0  0  0  0  0  0  0
   25.1666  -19.6931  -10.1299 C   0  0  0  0  0  0  0  0  0  0  0  0
   23.9341  -21.1765  -13.7272 N   0  0  0  0  0  0  0  0  0  0  0  0
   22.5658  -20.8682  -13.4320 C   0  0  0  0  0  0  0  0  0  0  0  0
   21.6393  -21.4262  -14.4534 C   0  0  0  0  0  0  0  0  0  0  0  0
   22.1517  -22.0739  -15.5682 O   0  0  0  0  0  0  0  0  0  0  0  0
   20.3861  -21.3447  -14.3664 O   0  0  0  0  0  0  0  0  0  0  0  0
  2  1  1  0
  3  2  1  0
  4  3  1  0
  5  4  1  0
  5  6  1  6
  5  7  1  0
  7  8  2  0
  9 10  1  0
 10 11  2  0
 11 12  1  0
 13 12  2  0
 13 14  1  0
 15 14  1  1
 15 17  1  0
 16  7  1  0
 16 15  1  0
 17 21  1  0
 17 18  2  0
 19 13  1  0
 20 10  1  0
 20 19  2  0
 21 22  1  0
 23 22  1  0
 23 24  1  0
 25 23  2  0
M  END
$$$$
