MYG.pdb
     RDKit          3D

 25 25  0  0  1  0  0  0  0  0999 V2000
   27.5166  -12.5167  -14.6756 C   0  0  0  0  0  0  0  0  0  0  0  0
   26.7757  -13.6280  -15.8762 S   0  0  0  0  0  0  0  0  0  0  0  0
   26.6506  -12.8380  -17.4959 C   0  0  0  0  0  0  0  0  0  0  0  0
   25.5508  -11.8013  -17.5315 C   0  0  0  0  0  0  0  0  0  0  0  0
   24.2096  -12.4049  -17.1673 C   0  0  2  0  0  0  0  0  0  0  0  0
   23.7695  -13.3647  -18.1536 N   0  0  0  0  0  0  0  0  0  0  0  0
   23.1806  -11.3535  -17.0348 C   0  0  0  0  0  0  0  0  0  0  0  0
   22.6218  -10.8607  -18.0523 O   0  0  0  0  0  0  0  0  0  0  0  0
   17.6774  -14.1665  -17.8579 O   0  0  0  0  0  0  0  0  0  0  0  0
   18.4242  -13.2916  -17.1008 C   0  0  0  0  0  0  0  0  0  0  0  0
   19.4119  -13.7278  -16.2600 C   0  0  0  0  0  0  0  0  0  0  0  0
   20.1378  -12.8154  -15.5179 C   0  0  0  0  0  0  0  0  0  0  0  0
   19.8949  -11.4675  -15.5995 C   0  0  0  0  0  0  0  0  0  0  0  0
   20.6675  -10.4913  -14.8043 C   0  0  0  0  0  0  0  0  0  0  0  0
   21.7491   -9.8743  -15.6369 C   0  0  2  0  0  0  0  0  0  0  0  0
   22.8023  -10.8789  -15.7666 N   0  0  0  0  0  0  0  0  0  0  0  0
   22.3041   -8.6211  -15.0903 C   0  0  0  0  0  0  0  0  0  0  0  0
   23.0444   -8.6146  -14.0776 O   0  0  0  0  0  0  0  0  0  0  0  0
   18.9079  -11.0386  -16.4405 C   0  0  0  0  0  0  0  0  0  0  0  0
   18.1647  -11.9400  -17.1971 C   0  0  0  0  0  0  0  0  0  0  0  0
   22.0155   -7.3616  -15.6996 N   0  0  0  0  0  0  0  0  0  0  0  0
   22.6843   -6.1812  -15.2371 C   0  0  0  0  0  0  0  0  0  0  0  0
   22.0269   -5.6083  -14.0318 C   0  0  0  0  0  0  0  0  0  0  0  0
   22.5631   -4.4824  -13.4237 O   0  0  0  0  0  0  0  0  0  0  0  0
   20.9868   -6.0950  -13.5160 O   0  0  0  0  0  0  0  0  0  0  0  0
  2  1  1  0
  3  2  1  0
  4  3  1  0
  5  4  1  0
  5  6  1  6
  5  7  1  0
  7  8  2  0
  9 10  1  0
 10 11  2  0
 11 12  1  0
 13 12  2  0
 13 14  1  0
 15 14  1  1
 15 17  1  0
 16  7  1  0
 16 15  1  0
 17 21  1  0
 17 18  2  0
 19 13  1  0
 20 10  1  0
 20 19  2  0
 21 22  1  0
 23 22  1  0
 23 24  1  0
 25 23  2  0
M  END
$$$$
