MYG.pdb
     RDKit          3D

 25 25  0  0  1  0  0  0  0  0999 V2000
   22.4187  -21.4857  -17.9094 C   0  0  0  0  0  0  0  0  0  0  0  0
   23.8107  -21.4332  -19.0430 S   0  0  0  0  0  0  0  0  0  0  0  0
   25.3357  -21.9377  -18.2165 C   0  0  0  0  0  0  0  0  0  0  0  0
   25.1880  -21.9296  -16.7119 C   0  0  0  0  0  0  0  0  0  0  0  0
   26.4742  -22.3455  -16.0275 C   0  0  2  0  0  0  0  0  0  0  0  0
   26.9068  -23.6567  -16.4532 N   0  0  0  0  0  0  0  0  0  0  0  0
   26.3078  -22.3531  -14.5598 C   0  0  0  0  0  0  0  0  0  0  0  0
   25.7798  -23.3359  -13.9717 O   0  0  0  0  0  0  0  0  0  0  0  0
   27.4019  -20.3279   -6.1393 O   0  0  0  0  0  0  0  0  0  0  0  0
   27.4864  -20.3791   -7.5128 C   0  0  0  0  0  0  0  0  0  0  0  0
   28.2258  -21.3354   -8.1542 C   0  0  0  0  0  0  0  0  0  0  0  0
   28.2835  -21.3507   -9.5350 C   0  0  0  0  0  0  0  0  0  0  0  0
   27.6130  -20.4237  -10.2924 C   0  0  0  0  0  0  0  0  0  0  0  0
   27.6765  -20.4365  -11.7682 C   0  0  0  0  0  0  0  0  0  0  0  0
   26.5691  -21.2714  -12.3343 C   0  0  2  0  0  0  0  0  0  0  0  0
   26.7362  -21.2602  -13.7859 N   0  0  0  0  0  0  0  0  0  0  0  0
   25.2125  -20.8166  -11.9735 C   0  0  0  0  0  0  0  0  0  0  0  0
   24.6850  -19.8181  -12.5199 O   0  0  0  0  0  0  0  0  0  0  0  0
   26.8768  -19.4720   -9.6462 C   0  0  0  0  0  0  0  0  0  0  0  0
   26.8048  -19.4381   -8.2566 C   0  0  0  0  0  0  0  0  0  0  0  0
   24.4464  -21.5024  -10.9817 N   0  0  0  0  0  0  0  0  0  0  0  0
   23.2300  -20.9189  -10.4976 C   0  0  0  0  0  0  0  0  0  0  0  0
   22.0673  -21.2688  -11.3572 C   0  0  0  0  0  0  0  0  0  0  0  0
   20.7874  -20.8997  -10.9693 O   0  0  0  0  0  0  0  0  0  0  0  0
   22.1761  -21.8956  -12.4435 O   0  0  0  0  0  0  0  0  0  0  0  0
  2  1  1  0
  3  2  1  0
  4  3  1  0
  5  4  1  0
  5  6  1  6
  5  7  1  0
  7  8  2  0
  9 10  1  0
 10 11  2  0
 11 12  1  0
 13 12  2  0
 13 14  1  0
 15 14  1  1
 15 17  1  0
 16  7  1  0
 16 15  1  0
 17 21  1  0
 17 18  2  0
 19 13  1  0
 20 10  1  0
 20 19  2  0
 21 22  1  0
 23 22  1  0
 23 24  1  0
 25 23  2  0
M  END
$$$$
