MYG.pdb
     RDKit          3D

 25 25  0  0  1  0  0  0  0  0999 V2000
   29.6704  -24.9181  -19.3056 C   0  0  0  0  0  0  0  0  0  0  0  0
   30.2423  -23.3552  -19.9806 S   0  0  0  0  0  0  0  0  0  0  0  0
   30.0904  -22.0312  -18.7611 C   0  0  0  0  0  0  0  0  0  0  0  0
   29.3374  -22.4845  -17.5311 C   0  0  0  0  0  0  0  0  0  0  0  0
   27.9871  -21.8050  -17.4273 C   0  0  2  0  0  0  0  0  0  0  0  0
   28.0890  -20.3785  -17.6335 N   0  0  0  0  0  0  0  0  0  0  0  0
   27.3767  -22.0519  -16.1052 C   0  0  0  0  0  0  0  0  0  0  0  0
   27.2239  -23.2258  -15.6701 O   0  0  0  0  0  0  0  0  0  0  0  0
   24.3505  -20.9619   -8.0224 O   0  0  0  0  0  0  0  0  0  0  0  0
   24.9750  -20.8077   -9.2399 C   0  0  0  0  0  0  0  0  0  0  0  0
   26.1996  -21.3618   -9.4971 C   0  0  0  0  0  0  0  0  0  0  0  0
   26.7912  -21.1824  -10.7332 C   0  0  0  0  0  0  0  0  0  0  0  0
   26.1798  -20.4559  -11.7237 C   0  0  0  0  0  0  0  0  0  0  0  0
   26.8124  -20.2604  -13.0443 C   0  0  0  0  0  0  0  0  0  0  0  0
   26.2555  -21.2289  -14.0419 C   0  0  2  0  0  0  0  0  0  0  0  0
   26.9517  -20.9790  -15.3021 N   0  0  0  0  0  0  0  0  0  0  0  0
   24.7960  -21.1356  -14.2384 C   0  0  0  0  0  0  0  0  0  0  0  0
   24.2838  -20.2480  -14.9619 O   0  0  0  0  0  0  0  0  0  0  0  0
   24.9578  -19.9057  -11.4608 C   0  0  0  0  0  0  0  0  0  0  0  0
   24.3439  -20.0737  -10.2229 C   0  0  0  0  0  0  0  0  0  0  0  0
   23.9083  -22.0596  -13.6067 N   0  0  0  0  0  0  0  0  0  0  0  0
   22.4925  -21.8528  -13.6918 C   0  0  0  0  0  0  0  0  0  0  0  0
   21.9307  -22.3827  -14.9633 C   0  0  0  0  0  0  0  0  0  0  0  0
   20.5974  -22.1579  -15.2744 O   0  0  0  0  0  0  0  0  0  0  0  0
   22.6083  -23.0399  -15.7962 O   0  0  0  0  0  0  0  0  0  0  0  0
  2  1  1  0
  3  2  1  0
  4  3  1  0
  5  4  1  0
  5  6  1  1
  5  7  1  0
  7  8  2  0
  9 10  1  0
 10 11  2  0
 11 12  1  0
 13 12  2  0
 13 14  1  0
 15 14  1  1
 15 17  1  0
 16  7  1  0
 16 15  1  0
 17 21  1  0
 17 18  2  0
 19 13  1  0
 20 10  1  0
 20 19  2  0
 21 22  1  0
 23 22  1  0
 23 24  1  0
 25 23  2  0
M  END
$$$$
