MYG.pdb
     RDKit          3D

 25 25  0  0  1  0  0  0  0  0999 V2000
   25.9782  -23.7599  -15.3606 C   0  0  0  0  0  0  0  0  0  0  0  0
   25.1292  -23.2374  -16.8544 S   0  0  0  0  0  0  0  0  0  0  0  0
   25.6245  -21.5658  -17.3274 C   0  0  0  0  0  0  0  0  0  0  0  0
   25.3736  -20.5707  -16.2173 C   0  0  0  0  0  0  0  0  0  0  0  0
   23.9021  -20.2274  -16.1042 C   0  0  2  0  0  0  0  0  0  0  0  0
   23.5191  -19.1990  -17.0441 N   0  0  0  0  0  0  0  0  0  0  0  0
   23.5746  -19.7694  -14.7386 C   0  0  0  0  0  0  0  0  0  0  0  0
   23.7243  -18.5621  -14.4058 O   0  0  0  0  0  0  0  0  0  0  0  0
   18.1559  -16.5199  -14.5579 O   0  0  0  0  0  0  0  0  0  0  0  0
   18.9419  -17.4734  -13.9501 C   0  0  0  0  0  0  0  0  0  0  0  0
   19.5482  -17.2460  -12.7445 C   0  0  0  0  0  0  0  0  0  0  0  0
   20.3289  -18.2307  -12.1693 C   0  0  0  0  0  0  0  0  0  0  0  0
   20.5173  -19.4456  -12.7784 C   0  0  0  0  0  0  0  0  0  0  0  0
   21.3543  -20.4979  -12.1666 C   0  0  0  0  0  0  0  0  0  0  0  0
   22.8059  -20.2258  -12.4165 C   0  0  2  0  0  0  0  0  0  0  0  0
   23.0876  -20.6738  -13.7786 N   0  0  0  0  0  0  0  0  0  0  0  0
   23.7249  -20.8789  -11.4645 C   0  0  0  0  0  0  0  0  0  0  0  0
   23.3224  -21.3351  -10.3673 O   0  0  0  0  0  0  0  0  0  0  0  0
   19.9094  -19.6663  -13.9814 C   0  0  0  0  0  0  0  0  0  0  0  0
   19.1188  -18.6887  -14.5786 C   0  0  0  0  0  0  0  0  0  0  0  0
   25.1157  -21.0155  -11.7608 N   0  0  0  0  0  0  0  0  0  0  0  0
   26.0026  -21.5468  -10.7681 C   0  0  0  0  0  0  0  0  0  0  0  0
   26.1142  -20.6488   -9.5873 C   0  0  0  0  0  0  0  0  0  0  0  0
   26.9750  -20.9776   -8.5501 O   0  0  0  0  0  0  0  0  0  0  0  0
   25.4584  -19.5809   -9.4681 O   0  0  0  0  0  0  0  0  0  0  0  0
  2  1  1  0
  3  2  1  0
  4  3  1  0
  5  4  1  0
  5  6  1  6
  5  7  1  0
  7  8  2  0
  9 10  1  0
 10 11  2  0
 11 12  1  0
 13 12  2  0
 13 14  1  0
 15 14  1  1
 15 17  1  0
 16  7  1  0
 16 15  1  0
 17 21  1  0
 17 18  2  0
 19 13  1  0
 20 10  1  0
 20 19  2  0
 21 22  1  0
 23 22  1  0
 23 24  1  0
 25 23  2  0
M  END
$$$$
