MYG.pdb
     RDKit          3D

 25 25  0  0  1  0  0  0  0  0999 V2000
   25.0565  -19.9257  -20.9141 C   0  0  0  0  0  0  0  0  0  0  0  0
   26.8174  -19.5737  -20.8895 S   0  0  0  0  0  0  0  0  0  0  0  0
   27.6839  -20.6933  -19.7675 C   0  0  0  0  0  0  0  0  0  0  0  0
   26.9849  -20.8011  -18.4314 C   0  0  0  0  0  0  0  0  0  0  0  0
   27.7463  -21.7012  -17.4796 C   0  0  2  0  0  0  0  0  0  0  0  0
   27.9448  -23.0204  -18.0346 N   0  0  0  0  0  0  0  0  0  0  0  0
   27.0305  -21.8291  -16.1939 C   0  0  0  0  0  0  0  0  0  0  0  0
   26.1724  -22.7361  -16.0165 O   0  0  0  0  0  0  0  0  0  0  0  0
   24.6642  -20.4940   -7.8782 O   0  0  0  0  0  0  0  0  0  0  0  0
   25.3351  -20.5150   -9.0806 C   0  0  0  0  0  0  0  0  0  0  0  0
   25.9545  -21.6452   -9.5408 C   0  0  0  0  0  0  0  0  0  0  0  0
   26.6170  -21.6227  -10.7534 C   0  0  0  0  0  0  0  0  0  0  0  0
   26.6735  -20.4865  -11.5203 C   0  0  0  0  0  0  0  0  0  0  0  0
   27.3842  -20.4598  -12.8151 C   0  0  0  0  0  0  0  0  0  0  0  0
   26.5121  -21.0044  -13.9042 C   0  0  2  0  0  0  0  0  0  0  0  0
   27.2923  -20.9384  -15.1380 N   0  0  0  0  0  0  0  0  0  0  0  0
   25.2287  -20.2962  -14.0738 C   0  0  0  0  0  0  0  0  0  0  0  0
   25.1791  -19.1093  -14.4771 O   0  0  0  0  0  0  0  0  0  0  0  0
   26.0533  -19.3619  -11.0556 C   0  0  0  0  0  0  0  0  0  0  0  0
   25.3804  -19.3622   -9.8372 C   0  0  0  0  0  0  0  0  0  0  0  0
   23.9882  -20.9420  -13.7824 N   0  0  0  0  0  0  0  0  0  0  0  0
   22.7721  -20.1838  -13.8065 C   0  0  0  0  0  0  0  0  0  0  0  0
   21.7485  -20.7490  -12.8867 C   0  0  0  0  0  0  0  0  0  0  0  0
   21.9881  -21.9569  -12.2475 O   0  0  0  0  0  0  0  0  0  0  0  0
   20.6495  -20.1841  -12.6464 O   0  0  0  0  0  0  0  0  0  0  0  0
  2  1  1  0
  3  2  1  0
  4  3  1  0
  5  4  1  0
  5  6  1  6
  5  7  1  0
  7  8  2  0
  9 10  1  0
 10 11  2  0
 11 12  1  0
 13 12  2  0
 13 14  1  0
 15 14  1  1
 15 17  1  0
 16  7  1  0
 16 15  1  0
 17 21  1  0
 17 18  2  0
 19 13  1  0
 20 10  1  0
 20 19  2  0
 21 22  1  0
 23 22  1  0
 23 24  1  0
 25 23  2  0
M  END
$$$$
