RSM.pdb
     RDKit          3D

 26 25  0  0  1  0  0  0  0  0999 V2000
    8.6632  -15.3141   16.8641 N   0  0  0  0  0  0  0  0  0  0  0  0
    8.3914  -13.9237   16.6161 C   0  0  0  0  0  0  0  0  0  0  0  0
    8.2330  -13.4861   15.4122 N   0  0  0  0  0  0  0  0  0  0  0  0
    8.2918  -13.0055   17.6998 N   0  0  0  0  0  0  0  0  0  0  0  0
    8.5310  -13.4565   19.0331 C   0  0  0  0  0  0  0  0  0  0  0  0
    7.2246  -13.8427   19.6882 C   0  0  0  0  0  0  0  0  0  0  0  0
    7.3944  -14.4123   21.0554 C   0  0  0  0  0  0  0  0  0  0  0  0
    7.9654  -15.8120   21.0471 C   0  0  2  0  0  0  0  0  0  0  0  0
    7.2003  -16.7193   20.2494 N   0  0  0  0  0  0  0  0  0  0  0  0
    8.0329  -16.3377   22.4581 C   0  0  0  0  0  0  0  0  0  0  0  0
    7.0144  -16.5715   23.1287 O   0  0  0  0  0  0  0  0  0  0  0  0
    8.0900  -12.4976   15.1661 O   0  0  0  0  0  0  0  0  0  0  0  0
   11.5830  -17.8659   23.7387 C   0  0  0  0  0  0  0  0  0  0  0  0
   10.4060  -18.2213   24.3713 C   0  0  1  0  0  0  0  0  0  0  0  0
    9.4203  -17.0467   24.4077 N   0  0  0  0  0  0  0  0  0  0  0  0
    9.2993  -16.5786   23.0541 C   0  0  0  0  0  0  0  0  0  0  0  0
    9.9638  -15.9604   25.2412 O   0  0  0  0  0  0  0  0  0  0  0  0
   10.7790  -15.1225   24.7721 C   0  0  0  0  0  0  0  0  0  0  0  0
    7.0409  -10.9761   25.4132 S   0  0  0  0  0  0  0  0  0  0  0  0
    7.2699  -12.0624   26.8597 C   0  0  0  0  0  0  0  0  0  0  0  0
    8.8019  -13.0145   26.5698 C   0  0  0  0  0  0  0  0  0  0  0  0
    9.0883  -13.8781   27.7682 C   0  0  2  0  0  0  0  0  0  0  0  0
   10.1710  -14.9049   27.4629 N   0  0  0  0  0  0  0  0  0  0  0  0
    9.5519  -15.8754   26.5842 C   0  0  0  0  0  0  0  0  0  0  0  0
   10.6553  -15.6182   28.6506 O   0  0  0  0  0  0  0  0  0  0  0  0
   11.4650  -15.0287   29.6044 O   0  0  0  0  0  0  0  0  0  0  0  0
  2  1  1  0
  3  2  2  0
  4  2  1  0
  5  4  1  0
  6  5  1  0
  6  7  1  0
  8  7  1  0
  8  9  1  6
 10  8  1  0
 11 10  2  0
 12 13  1  0
 14 13  1  6
 14 15  1  0
 15 10  1  0
 16 14  1  0
 16 23  1  0
 17 16  2  0
 19 18  1  0
 20 19  1  0
 22 21  1  6
 21 20  1  0
 22 23  1  0
 22 24  1  0
 24 25  1  0
 26 24  2  0
M  END
$$$$
