RSM.pdb
     RDKit          3D

 26 25  0  0  1  0  0  0  0  0999 V2000
    9.7521  -15.1014   15.8085 N   0  0  0  0  0  0  0  0  0  0  0  0
    8.8325  -14.0122   16.0001 C   0  0  0  0  0  0  0  0  0  0  0  0
    7.8170  -13.8598   15.2182 N   0  0  0  0  0  0  0  0  0  0  0  0
    9.0291  -13.0824   17.0604 N   0  0  0  0  0  0  0  0  0  0  0  0
    8.1291  -13.0729   18.1687 C   0  0  0  0  0  0  0  0  0  0  0  0
    7.3430  -14.3636   18.2046 C   0  0  0  0  0  0  0  0  0  0  0  0
    7.1135  -14.8779   19.5849 C   0  0  0  0  0  0  0  0  0  0  0  0
    8.3966  -15.1658   20.3306 C   0  0  2  0  0  0  0  0  0  0  0  0
    9.1876  -16.1790   19.7042 N   0  0  0  0  0  0  0  0  0  0  0  0
    8.0759  -15.5958   21.7391 C   0  0  0  0  0  0  0  0  0  0  0  0
    7.3248  -14.9396   22.4787 O   0  0  0  0  0  0  0  0  0  0  0  0
    7.1030  -13.1273   15.3271 O   0  0  0  0  0  0  0  0  0  0  0  0
   10.4500  -18.5137   23.4219 C   0  0  0  0  0  0  0  0  0  0  0  0
    9.1093  -18.5763   23.7542 C   0  0  1  0  0  0  0  0  0  0  0  0
    8.4391  -17.2039   23.6129 N   0  0  0  0  0  0  0  0  0  0  0  0
    8.6458  -16.7915   22.2515 C   0  0  0  0  0  0  0  0  0  0  0  0
    9.0894  -16.2325   24.5093 O   0  0  0  0  0  0  0  0  0  0  0  0
   10.1558  -15.6497   24.1778 C   0  0  0  0  0  0  0  0  0  0  0  0
    7.1542  -10.4844   26.8190 S   0  0  0  0  0  0  0  0  0  0  0  0
    6.3805  -12.0319   26.2433 C   0  0  0  0  0  0  0  0  0  0  0  0
    7.7389  -13.1762   25.8160 C   0  0  0  0  0  0  0  0  0  0  0  0
    8.0927  -14.0047   27.0211 C   0  0  2  0  0  0  0  0  0  0  0  0
    9.1388  -15.0576   26.6796 N   0  0  0  0  0  0  0  0  0  0  0  0
    8.4918  -15.9653   25.7552 C   0  0  0  0  0  0  0  0  0  0  0  0
    9.5854  -15.8391   27.8389 O   0  0  0  0  0  0  0  0  0  0  0  0
   10.5582  -15.3952   28.7162 O   0  0  0  0  0  0  0  0  0  0  0  0
  2  1  1  0
  3  2  2  0
  4  2  1  0
  5  4  1  0
  6  5  1  0
  6  7  1  0
  8  7  1  0
  8  9  1  6
 10  8  1  0
 11 10  2  0
 12 13  1  0
 14 13  1  6
 14 15  1  0
 15 10  1  0
 16 14  1  0
 16 23  1  0
 17 16  2  0
 19 18  1  0
 20 19  1  0
 22 21  1  6
 21 20  1  0
 22 23  1  0
 22 24  1  0
 24 25  1  0
 26 24  2  0
M  END
$$$$
