RSM.pdb
     RDKit          3D

 26 25  0  0  1  0  0  0  0  0999 V2000
    8.0725  -12.7017   16.9582 N   0  0  0  0  0  0  0  0  0  0  0  0
    8.1571  -13.8141   16.0505 C   0  0  0  0  0  0  0  0  0  0  0  0
    7.9371  -13.6554   14.7887 N   0  0  0  0  0  0  0  0  0  0  0  0
    8.4873  -15.1127   16.5325 N   0  0  0  0  0  0  0  0  0  0  0  0
    7.9245  -15.5755   17.7603 C   0  0  0  0  0  0  0  0  0  0  0  0
    8.2261  -14.5921   18.8680 C   0  0  0  0  0  0  0  0  0  0  0  0
    7.6813  -15.0074   20.1921 C   0  0  0  0  0  0  0  0  0  0  0  0
    7.8269  -16.4891   20.4539 C   0  0  2  0  0  0  0  0  0  0  0  0
    6.7149  -17.2497   19.9745 N   0  0  0  0  0  0  0  0  0  0  0  0
    7.9812  -16.7270   21.9342 C   0  0  0  0  0  0  0  0  0  0  0  0
    7.0127  -16.7251   22.7113 O   0  0  0  0  0  0  0  0  0  0  0  0
    8.0533  -14.3920   14.0801 O   0  0  0  0  0  0  0  0  0  0  0  0
   11.8247  -17.5430   23.4596 C   0  0  0  0  0  0  0  0  0  0  0  0
   10.6948  -18.1728   23.9478 C   0  0  1  0  0  0  0  0  0  0  0  0
    9.4697  -17.2535   23.8670 N   0  0  0  0  0  0  0  0  0  0  0  0
    9.2739  -16.9629   22.4730 C   0  0  0  0  0  0  0  0  0  0  0  0
    9.7382  -15.9946   24.5834 O   0  0  0  0  0  0  0  0  0  0  0  0
   10.0684  -14.9484   23.9645 C   0  0  0  0  0  0  0  0  0  0  0  0
    6.7595  -11.4473   26.4577 S   0  0  0  0  0  0  0  0  0  0  0  0
    6.5347  -12.9091   27.5240 C   0  0  0  0  0  0  0  0  0  0  0  0
    7.4731  -14.2750   26.7552 C   0  0  0  0  0  0  0  0  0  0  0  0
    8.8316  -13.7777   26.3416 C   0  0  1  0  0  0  0  0  0  0  0  0
    9.9221  -14.7715   26.7195 N   0  0  0  0  0  0  0  0  0  0  0  0
    9.6182  -15.9823   25.9856 C   0  0  0  0  0  0  0  0  0  0  0  0
    9.9427  -15.1052   28.1486 O   0  0  0  0  0  0  0  0  0  0  0  0
    9.6227  -16.3605   28.6330 O   0  0  0  0  0  0  0  0  0  0  0  0
  2  1  1  0
  3  2  2  0
  4  2  1  0
  5  4  1  0
  6  5  1  0
  6  7  1  0
  8  7  1  0
  8  9  1  1
 10  8  1  0
 11 10  2  0
 12 13  1  0
 14 13  1  6
 14 15  1  0
 15 10  1  0
 16 14  1  0
 16 23  1  0
 17 16  2  0
 19 18  1  0
 20 19  1  0
 22 21  1  6
 21 20  1  0
 22 23  1  0
 22 24  1  0
 24 25  1  0
 26 24  2  0
M  END
$$$$
