RSM.pdb
     RDKit          3D

 26 25  0  0  1  0  0  0  0  0999 V2000
    8.2443  -11.7029   19.3837 N   0  0  0  0  0  0  0  0  0  0  0  0
    8.6577  -12.9612   18.8231 C   0  0  0  0  0  0  0  0  0  0  0  0
    9.1523  -13.0234   17.6325 N   0  0  0  0  0  0  0  0  0  0  0  0
    8.5277  -14.1623   19.5768 N   0  0  0  0  0  0  0  0  0  0  0  0
    7.5596  -15.1381   19.1908 C   0  0  0  0  0  0  0  0  0  0  0  0
    6.4652  -15.2170   20.2306 C   0  0  0  0  0  0  0  0  0  0  0  0
    6.9698  -15.5317   21.5976 C   0  0  0  0  0  0  0  0  0  0  0  0
    7.2968  -16.9956   21.7855 C   0  0  2  0  0  0  0  0  0  0  0  0
    6.2157  -17.8576   21.4208 N   0  0  0  0  0  0  0  0  0  0  0  0
    7.6617  -17.2502   23.2256 C   0  0  0  0  0  0  0  0  0  0  0  0
    6.8045  -17.3793   24.1146 O   0  0  0  0  0  0  0  0  0  0  0  0
    9.4084  -13.8968   17.1532 O   0  0  0  0  0  0  0  0  0  0  0  0
   11.6681  -17.8072   24.1200 C   0  0  0  0  0  0  0  0  0  0  0  0
   10.7058  -18.3525   24.9497 C   0  0  1  0  0  0  0  0  0  0  0  0
    9.4355  -17.4930   24.9643 N   0  0  0  0  0  0  0  0  0  0  0  0
    9.0301  -17.3479   23.5929 C   0  0  0  0  0  0  0  0  0  0  0  0
    9.7367  -16.1608   25.5160 O   0  0  0  0  0  0  0  0  0  0  0  0
   10.4303  -15.3289   24.8730 C   0  0  0  0  0  0  0  0  0  0  0  0
    6.9660  -10.7086   27.0156 S   0  0  0  0  0  0  0  0  0  0  0  0
    6.3344  -12.3603   26.5711 C   0  0  0  0  0  0  0  0  0  0  0  0
    7.7911  -13.4284   26.2975 C   0  0  0  0  0  0  0  0  0  0  0  0
    8.4159  -13.7712   27.6227 C   0  0  2  0  0  0  0  0  0  0  0  0
    9.6701  -14.6157   27.4399 N   0  0  0  0  0  0  0  0  0  0  0  0
    9.2306  -15.8314   26.7873 C   0  0  0  0  0  0  0  0  0  0  0  0
   10.3142  -14.9915   28.7040 O   0  0  0  0  0  0  0  0  0  0  0  0
   10.3391  -16.2902   29.1790 O   0  0  0  0  0  0  0  0  0  0  0  0
  2  1  1  0
  3  2  2  0
  4  2  1  0
  5  4  1  0
  6  5  1  0
  6  7  1  0
  8  7  1  0
  8  9  1  1
 10  8  1  0
 11 10  2  0
 12 13  1  0
 14 13  1  1
 14 15  1  0
 15 10  1  0
 16 14  1  0
 16 23  1  0
 17 16  2  0
 19 18  1  0
 20 19  1  0
 22 21  1  6
 21 20  1  0
 22 23  1  0
 22 24  1  0
 24 25  1  0
 26 24  2  0
M  END
$$$$
