RSM.pdb
     RDKit          3D

 26 25  0  0  1  0  0  0  0  0999 V2000
    9.5478  -15.0466   17.3034 N   0  0  0  0  0  0  0  0  0  0  0  0
    8.9938  -13.8177   17.8048 C   0  0  0  0  0  0  0  0  0  0  0  0
    8.0026  -13.2472   17.2066 N   0  0  0  0  0  0  0  0  0  0  0  0
    9.5324  -13.2100   18.9745 N   0  0  0  0  0  0  0  0  0  0  0  0
    8.6618  -12.8389   20.0435 C   0  0  0  0  0  0  0  0  0  0  0  0
    7.6218  -13.9148   20.2577 C   0  0  0  0  0  0  0  0  0  0  0  0
    7.7060  -14.5602   21.5989 C   0  0  0  0  0  0  0  0  0  0  0  0
    8.2699  -15.9618   21.5472 C   0  0  2  0  0  0  0  0  0  0  0  0
    7.5772  -16.8055   20.6236 N   0  0  0  0  0  0  0  0  0  0  0  0
    8.2067  -16.5820   22.9194 C   0  0  0  0  0  0  0  0  0  0  0  0
    7.3455  -17.4211   23.2295 O   0  0  0  0  0  0  0  0  0  0  0  0
    7.4991  -12.4260   17.5675 O   0  0  0  0  0  0  0  0  0  0  0  0
   11.2305  -18.0773   23.7113 C   0  0  0  0  0  0  0  0  0  0  0  0
   10.0681  -18.3406   24.4122 C   0  0  1  0  0  0  0  0  0  0  0  0
    9.4804  -17.0573   25.0123 N   0  0  0  0  0  0  0  0  0  0  0  0
    9.1590  -16.2025   23.9023 C   0  0  0  0  0  0  0  0  0  0  0  0
   10.4883  -16.3883   25.8530 O   0  0  0  0  0  0  0  0  0  0  0  0
   11.2728  -17.0498   26.5836 C   0  0  0  0  0  0  0  0  0  0  0  0
    6.4324  -11.6084   25.9528 S   0  0  0  0  0  0  0  0  0  0  0  0
    6.2873  -12.7158   27.3941 C   0  0  0  0  0  0  0  0  0  0  0  0
    7.9836  -13.2202   27.8474 C   0  0  0  0  0  0  0  0  0  0  0  0
    8.6516  -13.8543   26.6575 C   0  0  1  0  0  0  0  0  0  0  0  0
   10.0976  -14.2200   26.9659 N   0  0  0  0  0  0  0  0  0  0  0  0
   10.5591  -14.9830   25.8249 C   0  0  0  0  0  0  0  0  0  0  0  0
   10.2489  -15.0603   28.1597 O   0  0  0  0  0  0  0  0  0  0  0  0
   10.5507  -14.5469   29.4080 O   0  0  0  0  0  0  0  0  0  0  0  0
  2  1  1  0
  3  2  2  0
  4  2  1  0
  5  4  1  0
  6  5  1  0
  6  7  1  0
  8  7  1  0
  8  9  1  6
 10  8  1  0
 11 10  2  0
 12 13  1  0
 14 13  1  6
 14 15  1  0
 15 10  1  0
 16 14  1  0
 16 23  1  0
 17 16  2  0
 19 18  1  0
 20 19  1  0
 22 21  1  6
 21 20  1  0
 22 23  1  0
 22 24  1  0
 24 25  1  0
 26 24  2  0
M  END
$$$$
