RSM.pdb
     RDKit          3D

 26 25  0  0  1  0  0  0  0  0999 V2000
    8.1184  -13.7346   13.8975 N   0  0  0  0  0  0  0  0  0  0  0  0
    7.6053  -13.6549   15.2387 C   0  0  0  0  0  0  0  0  0  0  0  0
    7.2345  -12.5239   15.7381 N   0  0  0  0  0  0  0  0  0  0  0  0
    7.4975  -14.8278   16.0389 N   0  0  0  0  0  0  0  0  0  0  0  0
    8.3397  -14.9845   17.1811 C   0  0  0  0  0  0  0  0  0  0  0  0
    8.1702  -13.8053   18.1115 C   0  0  0  0  0  0  0  0  0  0  0  0
    8.0036  -14.1982   19.5399 C   0  0  0  0  0  0  0  0  0  0  0  0
    9.1924  -14.9534   20.0889 C   0  0  2  0  0  0  0  0  0  0  0  0
    9.5532  -16.0807   19.2864 N   0  0  0  0  0  0  0  0  0  0  0  0
    8.8882  -15.4253   21.4876 C   0  0  0  0  0  0  0  0  0  0  0  0
    8.4487  -14.6636   22.3642 O   0  0  0  0  0  0  0  0  0  0  0  0
    6.8500  -12.4033   16.6845 O   0  0  0  0  0  0  0  0  0  0  0  0
   10.2052  -19.2234   22.8322 C   0  0  0  0  0  0  0  0  0  0  0  0
    8.8972  -18.8248   23.0368 C   0  0  1  0  0  0  0  0  0  0  0  0
    8.7925  -17.2977   23.1349 N   0  0  0  0  0  0  0  0  0  0  0  0
    9.1074  -16.7864   21.8290 C   0  0  0  0  0  0  0  0  0  0  0  0
    9.7828  -16.7871   24.0985 O   0  0  0  0  0  0  0  0  0  0  0  0
   10.9221  -16.4029   23.7228 C   0  0  0  0  0  0  0  0  0  0  0  0
    8.1085  -12.8612   28.3941 S   0  0  0  0  0  0  0  0  0  0  0  0
    9.9089  -12.8316   28.6814 C   0  0  0  0  0  0  0  0  0  0  0  0
   10.5529  -14.4646   28.1753 C   0  0  0  0  0  0  0  0  0  0  0  0
    9.7970  -14.9478   26.9674 C   0  0  1  0  0  0  0  0  0  0  0  0
   10.3860  -16.2455   26.4300 N   0  0  0  0  0  0  0  0  0  0  0  0
    9.4294  -16.7362   25.4599 C   0  0  0  0  0  0  0  0  0  0  0  0
   10.5579  -17.2812   27.4557 O   0  0  0  0  0  0  0  0  0  0  0  0
   11.6223  -17.2966   28.3386 O   0  0  0  0  0  0  0  0  0  0  0  0
  2  1  1  0
  3  2  2  0
  4  2  1  0
  5  4  1  0
  6  5  1  0
  6  7  1  0
  8  7  1  0
  8  9  1  6
 10  8  1  0
 11 10  2  0
 12 13  1  0
 14 13  1  6
 14 15  1  0
 15 10  1  0
 16 14  1  0
 16 23  1  0
 17 16  2  0
 19 18  1  0
 20 19  1  0
 22 21  1  6
 21 20  1  0
 22 23  1  0
 22 24  1  0
 24 25  1  0
 26 24  2  0
M  END
$$$$
