WDR.pdb
     RDKit          3D

 34 35  0  0  1  0  0  0  0  0999 V2000
    7.3214  -16.2929   23.0177 N   0  0  0  0  0  0  0  0  0  0  0  0
    8.5800  -15.9633   23.6369 C   0  0  1  0  0  0  0  0  0  0  0  0
    8.4261  -15.9958   25.1263 C   0  0  0  0  0  0  0  0  0  0  0  0
    7.4299  -14.9773   25.5338 C   0  0  0  0  0  0  0  0  0  0  0  0
    6.1017  -15.2152   25.9059 C   0  0  0  0  0  0  0  0  0  0  0  0
    5.5067  -14.0633   26.2506 N   0  0  0  0  0  0  0  0  0  0  0  0
    6.4034  -13.0715   26.1162 C   0  0  0  0  0  0  0  0  0  0  0  0
    6.2454  -11.7050   26.3493 C   0  0  0  0  0  0  0  0  0  0  0  0
    7.3035  -10.8547   26.1358 C   0  0  0  0  0  0  0  0  0  0  0  0
    8.4873  -11.3993   25.6947 C   0  0  0  0  0  0  0  0  0  0  0  0
    8.6497  -12.7647   25.4609 C   0  0  0  0  0  0  0  0  0  0  0  0
    7.5896  -13.6051   25.6777 C   0  0  0  0  0  0  0  0  0  0  0  0
    9.6210  -16.9178   23.1645 C   0  0  0  0  0  0  0  0  0  0  0  0
    9.5532  -18.1078   23.5506 O   0  0  0  0  0  0  0  0  0  0  0  0
   10.6920  -16.5653   22.2994 N   0  0  0  0  0  0  0  0  0  0  0  0
   11.9972  -17.1594   22.3879 C   0  0  1  0  0  0  0  0  0  0  0  0
   12.9408  -16.4174   21.4360 C   0  0  0  0  0  0  0  0  0  0  0  0
   12.4790  -16.4717   20.0323 C   0  0  0  0  0  0  0  0  0  0  0  0
   12.0617  -17.5227   19.4840 O   0  0  0  0  0  0  0  0  0  0  0  0
   12.5375  -17.1308   23.7852 C   0  0  0  0  0  0  0  0  0  0  0  0
   13.3389  -16.2223   24.1062 O   0  0  0  0  0  0  0  0  0  0  0  0
   12.5019  -15.3140   19.2717 O   0  0  0  0  0  0  0  0  0  0  0  0
    6.9063  -20.6889   27.1564 N   0  0  0  0  0  0  0  0  0  0  0  0
    7.6047  -20.5234   25.9259 C   0  0  0  0  0  0  0  0  0  0  0  0
    6.9442  -20.4611   24.8061 N   0  0  0  0  0  0  0  0  0  0  0  0
    9.0166  -20.4197   25.8558 N   0  0  0  0  0  0  0  0  0  0  0  0
    9.8110  -20.3425   27.0795 C   0  0  0  0  0  0  0  0  0  0  0  0
   10.5427  -19.0231   27.0714 C   0  0  0  0  0  0  0  0  0  0  0  0
   12.0017  -19.2522   26.9271 C   0  0  0  0  0  0  0  0  0  0  0  0
   12.7461  -18.3470   26.0231 C   0  0  2  0  0  0  0  0  0  0  0  0
   12.1691  -18.0973   24.7492 N   0  0  0  0  0  0  0  0  0  0  0  0
   14.1690  -18.7807   26.0245 C   0  0  0  0  0  0  0  0  0  0  0  0
   14.5936  -19.6066   24.9996 O   0  0  0  0  0  0  0  0  0  0  0  0
   14.9571  -18.4275   26.8987 O   0  0  0  0  0  0  0  0  0  0  0  0
  2  1  1  6
  2  3  1  0
  3  4  1  0
  4  5  2  0
  5  6  1  0
  7  6  1  0
  8  7  2  0
  9  8  1  0
 10 11  1  0
 10  9  2  0
 11 12  2  0
 12  4  1  0
 12  7  1  0
 13  2  1  0
 13 14  2  0
 15 13  1  0
 16 15  1  0
 16 17  1  6
 18 17  1  0
 19 18  2  0
 20 21  2  0
 20 16  1  0
 22 18  1  0
 23 24  1  0
 24 25  2  0
 26 27  1  0
 26 24  1  0
 27 28  1  0
 29 28  1  0
 30 31  1  0
 30 29  1  6
 31 20  1  0
 32 30  1  0
 33 32  1  0
 34 32  2  0
M  END
$$$$
