WDR.pdb
     RDKit          3D

 34 35  0  0  1  0  0  0  0  0999 V2000
    7.7748  -16.2767   19.0344 N   0  0  0  0  0  0  0  0  0  0  0  0
    8.4914  -16.0421   20.2623 C   0  0  1  0  0  0  0  0  0  0  0  0
    7.5457  -16.1466   21.4189 C   0  0  0  0  0  0  0  0  0  0  0  0
    7.2803  -14.7900   21.9530 C   0  0  0  0  0  0  0  0  0  0  0  0
    7.0654  -13.6280   21.2026 C   0  0  0  0  0  0  0  0  0  0  0  0
    6.8169  -12.5925   22.0184 N   0  0  0  0  0  0  0  0  0  0  0  0
    6.8621  -13.0369   23.2858 C   0  0  0  0  0  0  0  0  0  0  0  0
    6.6760  -12.3289   24.4736 C   0  0  0  0  0  0  0  0  0  0  0  0
    6.7776  -12.9853   25.6764 C   0  0  0  0  0  0  0  0  0  0  0  0
    7.0630  -14.3309   25.6527 C   0  0  0  0  0  0  0  0  0  0  0  0
    7.2492  -15.0426   24.4677 C   0  0  0  0  0  0  0  0  0  0  0  0
    7.1448  -14.3800   23.2730 C   0  0  0  0  0  0  0  0  0  0  0  0
    9.6101  -17.0194   20.3687 C   0  0  0  0  0  0  0  0  0  0  0  0
    9.3272  -18.2365   20.4611 O   0  0  0  0  0  0  0  0  0  0  0  0
   10.9850  -16.6600   20.3721 N   0  0  0  0  0  0  0  0  0  0  0  0
   12.0310  -17.5710   20.7468 C   0  0  1  0  0  0  0  0  0  0  0  0
   13.3836  -16.8951   20.5003 C   0  0  0  0  0  0  0  0  0  0  0  0
   14.5183  -17.8241   20.6894 C   0  0  0  0  0  0  0  0  0  0  0  0
   15.6927  -17.4402   20.9192 O   0  0  0  0  0  0  0  0  0  0  0  0
   11.9174  -18.0045   22.1766 C   0  0  0  0  0  0  0  0  0  0  0  0
   12.7411  -18.8360   22.6246 O   0  0  0  0  0  0  0  0  0  0  0  0
   14.2902  -19.1884   20.6123 O   0  0  0  0  0  0  0  0  0  0  0  0
   12.5260  -14.3769   29.2309 N   0  0  0  0  0  0  0  0  0  0  0  0
   11.2677  -14.9668   29.5439 C   0  0  0  0  0  0  0  0  0  0  0  0
   10.9607  -15.2262   30.7819 N   0  0  0  0  0  0  0  0  0  0  0  0
   10.3084  -15.2935   28.5529 N   0  0  0  0  0  0  0  0  0  0  0  0
   10.6756  -15.2771   27.1389 C   0  0  0  0  0  0  0  0  0  0  0  0
   10.6719  -16.7028   26.6453 C   0  0  0  0  0  0  0  0  0  0  0  0
   10.1422  -16.7595   25.2602 C   0  0  0  0  0  0  0  0  0  0  0  0
   10.6415  -17.8436   24.3850 C   0  0  2  0  0  0  0  0  0  0  0  0
   10.9100  -17.5026   23.0323 N   0  0  0  0  0  0  0  0  0  0  0  0
    9.7732  -19.0319   24.6014 C   0  0  0  0  0  0  0  0  0  0  0  0
    8.5540  -19.0684   23.9494 O   0  0  0  0  0  0  0  0  0  0  0  0
   10.1101  -19.9610   25.3316 O   0  0  0  0  0  0  0  0  0  0  0  0
  2  1  1  6
  2  3  1  0
  3  4  1  0
  4  5  2  0
  5  6  1  0
  7  6  1  0
  8  7  2  0
  9  8  1  0
 10 11  1  0
 10  9  2  0
 11 12  2  0
 12  4  1  0
 12  7  1  0
 13  2  1  0
 13 14  2  0
 15 13  1  0
 16 15  1  0
 16 17  1  1
 18 17  1  0
 19 18  2  0
 20 21  2  0
 20 16  1  0
 22 18  1  0
 23 24  1  0
 24 25  2  0
 26 27  1  0
 26 24  1  0
 27 28  1  0
 29 28  1  0
 30 31  1  0
 30 29  1  6
 31 20  1  0
 32 30  1  0
 33 32  1  0
 34 32  2  0
M  END
$$$$
