WDR.pdb
     RDKit          3D

 34 35  0  0  1  0  0  0  0  0999 V2000
    6.6513  -17.4720   24.0749 N   0  0  0  0  0  0  0  0  0  0  0  0
    7.6406  -16.4967   23.6924 C   0  0  1  0  0  0  0  0  0  0  0  0
    8.2541  -15.9007   24.9218 C   0  0  0  0  0  0  0  0  0  0  0  0
    7.2718  -14.9968   25.5652 C   0  0  0  0  0  0  0  0  0  0  0  0
    6.1714  -15.3807   26.3404 C   0  0  0  0  0  0  0  0  0  0  0  0
    5.5263  -14.2954   26.7937 N   0  0  0  0  0  0  0  0  0  0  0  0
    6.1684  -13.2058   26.3396 C   0  0  0  0  0  0  0  0  0  0  0  0
    5.8664  -11.8586   26.5413 C   0  0  0  0  0  0  0  0  0  0  0  0
    6.6599  -10.8936   25.9694 C   0  0  0  0  0  0  0  0  0  0  0  0
    7.7315  -11.3076   25.2125 C   0  0  0  0  0  0  0  0  0  0  0  0
    8.0373  -12.6530   25.0087 C   0  0  0  0  0  0  0  0  0  0  0  0
    7.2413  -13.6083   25.5839 C   0  0  0  0  0  0  0  0  0  0  0  0
    8.6587  -17.1493   22.8233 C   0  0  0  0  0  0  0  0  0  0  0  0
    9.2064  -18.1977   23.2364 O   0  0  0  0  0  0  0  0  0  0  0  0
    9.0516  -16.6583   21.5489 N   0  0  0  0  0  0  0  0  0  0  0  0
   10.3721  -16.8415   21.0128 C   0  0  1  0  0  0  0  0  0  0  0  0
   10.4717  -16.0883   19.6825 C   0  0  0  0  0  0  0  0  0  0  0  0
    9.5590  -16.6372   18.6568 C   0  0  0  0  0  0  0  0  0  0  0  0
    9.3638  -17.8681   18.4953 O   0  0  0  0  0  0  0  0  0  0  0  0
   11.4358  -16.3732   21.9584 C   0  0  0  0  0  0  0  0  0  0  0  0
   11.5149  -15.1509   22.2237 O   0  0  0  0  0  0  0  0  0  0  0  0
    8.8785  -15.7627   17.8253 O   0  0  0  0  0  0  0  0  0  0  0  0
   10.9316  -20.7516   27.3702 N   0  0  0  0  0  0  0  0  0  0  0  0
   11.0619  -20.8792   25.9574 C   0  0  0  0  0  0  0  0  0  0  0  0
    9.9997  -20.9037   25.2056 N   0  0  0  0  0  0  0  0  0  0  0  0
   12.3195  -20.9829   25.3116 N   0  0  0  0  0  0  0  0  0  0  0  0
   13.1932  -19.8165   25.2095 C   0  0  0  0  0  0  0  0  0  0  0  0
   12.3177  -18.5903   25.1315 C   0  0  0  0  0  0  0  0  0  0  0  0
   13.1507  -17.3855   24.8933 C   0  0  0  0  0  0  0  0  0  0  0  0
   13.3887  -16.9904   23.4869 C   0  0  2  0  0  0  0  0  0  0  0  0
   12.3501  -17.2693   22.5586 N   0  0  0  0  0  0  0  0  0  0  0  0
   14.7481  -17.4634   23.1111 C   0  0  0  0  0  0  0  0  0  0  0  0
   14.8540  -18.3544   22.0585 O   0  0  0  0  0  0  0  0  0  0  0  0
   15.7563  -17.0866   23.7039 O   0  0  0  0  0  0  0  0  0  0  0  0
  2  1  1  1
  2  3  1  0
  3  4  1  0
  4  5  2  0
  5  6  1  0
  7  6  1  0
  8  7  2  0
  9  8  1  0
 10 11  1  0
 10  9  2  0
 11 12  2  0
 12  4  1  0
 12  7  1  0
 13  2  1  0
 13 14  2  0
 15 13  1  0
 16 15  1  0
 16 17  1  6
 18 17  1  0
 19 18  2  0
 20 21  2  0
 20 16  1  0
 22 18  1  0
 23 24  1  0
 24 25  2  0
 26 27  1  0
 26 24  1  0
 27 28  1  0
 29 28  1  0
 30 31  1  0
 30 29  1  1
 31 20  1  0
 32 30  1  0
 33 32  1  0
 34 32  2  0
M  END
$$$$
