WDR.pdb
     RDKit          3D

 34 35  0  0  1  0  0  0  0  0999 V2000
    6.7804  -18.1049   24.9434 N   0  0  0  0  0  0  0  0  0  0  0  0
    7.4103  -17.1539   24.0631 C   0  0  1  0  0  0  0  0  0  0  0  0
    8.3285  -16.2744   24.8546 C   0  0  0  0  0  0  0  0  0  0  0  0
    7.5434  -15.1731   25.4601 C   0  0  0  0  0  0  0  0  0  0  0  0
    6.4994  -15.3055   26.3831 C   0  0  0  0  0  0  0  0  0  0  0  0
    6.0474  -14.0951   26.7438 N   0  0  0  0  0  0  0  0  0  0  0  0
    6.7621  -13.1672   26.0852 C   0  0  0  0  0  0  0  0  0  0  0  0
    6.6518  -11.7769   26.1289 C   0  0  0  0  0  0  0  0  0  0  0  0
    7.4872  -11.0065   25.3566 C   0  0  0  0  0  0  0  0  0  0  0  0
    8.4073  -11.6523   24.5635 C   0  0  0  0  0  0  0  0  0  0  0  0
    8.5214  -13.0416   24.5171 C   0  0  0  0  0  0  0  0  0  0  0  0
    7.6850  -13.8017   25.2916 C   0  0  0  0  0  0  0  0  0  0  0  0
    8.1335  -17.8885   22.9883 C   0  0  0  0  0  0  0  0  0  0  0  0
    8.6561  -18.9912   23.2723 O   0  0  0  0  0  0  0  0  0  0  0  0
    8.2702  -17.4182   21.6542 N   0  0  0  0  0  0  0  0  0  0  0  0
    9.0331  -18.1126   20.6541 C   0  0  1  0  0  0  0  0  0  0  0  0
    8.6934  -17.5250   19.2806 C   0  0  0  0  0  0  0  0  0  0  0  0
    9.4359  -18.1879   18.1871 C   0  0  0  0  0  0  0  0  0  0  0  0
    9.6934  -19.4180   18.1753 O   0  0  0  0  0  0  0  0  0  0  0  0
   10.5073  -18.0274   20.9077 C   0  0  0  0  0  0  0  0  0  0  0  0
   11.2896  -18.6414   20.1450 O   0  0  0  0  0  0  0  0  0  0  0  0
    9.8758  -17.4276   17.1159 O   0  0  0  0  0  0  0  0  0  0  0  0
   15.3107  -15.6666   18.4534 N   0  0  0  0  0  0  0  0  0  0  0  0
   14.5728  -14.4973   18.1107 C   0  0  0  0  0  0  0  0  0  0  0  0
   14.5718  -14.0651   16.8829 N   0  0  0  0  0  0  0  0  0  0  0  0
   13.8204  -13.7619   19.0606 N   0  0  0  0  0  0  0  0  0  0  0  0
   13.8520  -14.1344   20.4729 C   0  0  0  0  0  0  0  0  0  0  0  0
   13.1595  -15.4674   20.6134 C   0  0  0  0  0  0  0  0  0  0  0  0
   13.0426  -15.8305   22.0475 C   0  0  0  0  0  0  0  0  0  0  0  0
   12.3964  -17.1220   22.3716 C   0  0  2  0  0  0  0  0  0  0  0  0
   11.0393  -17.2753   21.9803 N   0  0  0  0  0  0  0  0  0  0  0  0
   12.7087  -17.4372   23.7914 C   0  0  0  0  0  0  0  0  0  0  0  0
   14.0387  -17.5747   24.1451 O   0  0  0  0  0  0  0  0  0  0  0  0
   11.8282  -17.5748   24.6373 O   0  0  0  0  0  0  0  0  0  0  0  0
  2  1  1  1
  2  3  1  0
  3  4  1  0
  4  5  2  0
  5  6  1  0
  7  6  1  0
  8  7  2  0
  9  8  1  0
 10 11  1  0
 10  9  2  0
 11 12  2  0
 12  4  1  0
 12  7  1  0
 13  2  1  0
 13 14  2  0
 15 13  1  0
 16 15  1  0
 16 17  1  6
 18 17  1  0
 19 18  2  0
 20 21  2  0
 20 16  1  0
 22 18  1  0
 23 24  1  0
 24 25  2  0
 26 27  1  0
 26 24  1  0
 27 28  1  0
 29 28  1  0
 30 31  1  0
 30 29  1  1
 31 20  1  0
 32 30  1  0
 33 32  1  0
 34 32  2  0
M  END
$$$$
