WDR.pdb
     RDKit          3D

 34 35  0  0  1  0  0  0  0  0999 V2000
    6.8379  -18.3425   24.6211 N   0  0  0  0  0  0  0  0  0  0  0  0
    7.5317  -17.1762   24.1367 C   0  0  1  0  0  0  0  0  0  0  0  0
    8.0257  -16.3716   25.2993 C   0  0  0  0  0  0  0  0  0  0  0  0
    7.0417  -15.3069   25.6058 C   0  0  0  0  0  0  0  0  0  0  0  0
    5.7318  -15.4916   26.0635 C   0  0  0  0  0  0  0  0  0  0  0  0
    5.1452  -14.3034   26.2725 N   0  0  0  0  0  0  0  0  0  0  0  0
    6.0296  -13.3393   25.9654 C   0  0  0  0  0  0  0  0  0  0  0  0
    5.8737  -11.9537   26.0159 C   0  0  0  0  0  0  0  0  0  0  0  0
    6.9167  -11.1407   25.6430 C   0  0  0  0  0  0  0  0  0  0  0  0
    8.0840  -11.7406   25.2303 C   0  0  0  0  0  0  0  0  0  0  0  0
    8.2443  -13.1251   25.1788 C   0  0  0  0  0  0  0  0  0  0  0  0
    7.1993  -13.9279   25.5537 C   0  0  0  0  0  0  0  0  0  0  0  0
    8.6444  -17.6057   23.2449 C   0  0  0  0  0  0  0  0  0  0  0  0
    9.2999  -18.6248   23.5635 O   0  0  0  0  0  0  0  0  0  0  0  0
    9.0132  -16.9317   22.0493 N   0  0  0  0  0  0  0  0  0  0  0  0
   10.2342  -17.2039   21.3425 C   0  0  1  0  0  0  0  0  0  0  0  0
   10.1663  -16.5326   19.9670 C   0  0  0  0  0  0  0  0  0  0  0  0
   11.3439  -16.8471   19.1300 C   0  0  0  0  0  0  0  0  0  0  0  0
   11.9341  -17.9563   19.1591 O   0  0  0  0  0  0  0  0  0  0  0  0
   11.4403  -16.7305   22.0949 C   0  0  0  0  0  0  0  0  0  0  0  0
   11.8482  -15.5599   21.9108 O   0  0  0  0  0  0  0  0  0  0  0  0
   11.8320  -15.8805   18.2659 O   0  0  0  0  0  0  0  0  0  0  0  0
   12.3655  -20.8385   29.5841 N   0  0  0  0  0  0  0  0  0  0  0  0
   11.3650  -20.2593   28.7516 C   0  0  0  0  0  0  0  0  0  0  0  0
   10.1494  -20.7238   28.7760 N   0  0  0  0  0  0  0  0  0  0  0  0
   11.6310  -19.1762   27.8768 N   0  0  0  0  0  0  0  0  0  0  0  0
   12.5008  -19.3622   26.7178 C   0  0  0  0  0  0  0  0  0  0  0  0
   12.6465  -18.0263   26.0320 C   0  0  0  0  0  0  0  0  0  0  0  0
   13.6038  -18.1363   24.9034 C   0  0  0  0  0  0  0  0  0  0  0  0
   13.3391  -17.3102   23.7042 C   0  0  2  0  0  0  0  0  0  0  0  0
   12.1290  -17.5652   23.0050 N   0  0  0  0  0  0  0  0  0  0  0  0
   14.5800  -17.2981   22.8839 C   0  0  0  0  0  0  0  0  0  0  0  0
   15.7391  -16.8262   23.4727 O   0  0  0  0  0  0  0  0  0  0  0  0
   14.5953  -17.6904   21.7195 O   0  0  0  0  0  0  0  0  0  0  0  0
  2  1  1  1
  2  3  1  0
  3  4  1  0
  4  5  2  0
  5  6  1  0
  7  6  1  0
  8  7  2  0
  9  8  1  0
 10 11  1  0
 10  9  2  0
 11 12  2  0
 12  4  1  0
 12  7  1  0
 13  2  1  0
 13 14  2  0
 15 13  1  0
 16 15  1  0
 16 17  1  6
 18 17  1  0
 19 18  2  0
 20 21  2  0
 20 16  1  0
 22 18  1  0
 23 24  1  0
 24 25  2  0
 26 27  1  0
 26 24  1  0
 27 28  1  0
 29 28  1  0
 30 31  1  0
 30 29  1  1
 31 20  1  0
 32 30  1  0
 33 32  1  0
 34 32  2  0
M  END
$$$$
