WDR.pdb
     RDKit          3D

 34 35  0  0  1  0  0  0  0  0999 V2000
    9.7696  -15.3372   22.5082 N   0  0  0  0  0  0  0  0  0  0  0  0
    8.8270  -16.1953   23.1800 C   0  0  1  0  0  0  0  0  0  0  0  0
    7.4404  -15.8734   22.7144 C   0  0  0  0  0  0  0  0  0  0  0  0
    7.2198  -14.4119   22.8203 C   0  0  0  0  0  0  0  0  0  0  0  0
    7.1664  -13.4998   21.7599 C   0  0  0  0  0  0  0  0  0  0  0  0
    6.9107  -12.2677   22.2247 N   0  0  0  0  0  0  0  0  0  0  0  0
    6.7943  -12.3396   23.5615 C   0  0  0  0  0  0  0  0  0  0  0  0
    6.5392  -11.3196   24.4787 C   0  0  0  0  0  0  0  0  0  0  0  0
    6.4701  -11.6153   25.8188 C   0  0  0  0  0  0  0  0  0  0  0  0
    6.6594  -12.9237   26.1992 C   0  0  0  0  0  0  0  0  0  0  0  0
    6.9141  -13.9465   25.2858 C   0  0  0  0  0  0  0  0  0  0  0  0
    6.9799  -13.6425   23.9515 C   0  0  0  0  0  0  0  0  0  0  0  0
    9.1865  -17.6162   22.9161 C   0  0  0  0  0  0  0  0  0  0  0  0
    8.3476  -18.5024   23.2000 O   0  0  0  0  0  0  0  0  0  0  0  0
   10.4254  -18.0350   22.3600 N   0  0  0  0  0  0  0  0  0  0  0  0
   10.8252  -19.4133   22.2891 C   0  0  1  0  0  0  0  0  0  0  0  0
   12.0034  -19.5342   21.3174 C   0  0  0  0  0  0  0  0  0  0  0  0
   11.7324  -18.8753   20.0217 C   0  0  0  0  0  0  0  0  0  0  0  0
   12.5055  -18.0315   19.5022 O   0  0  0  0  0  0  0  0  0  0  0  0
   11.1982  -19.9632   23.6321 C   0  0  0  0  0  0  0  0  0  0  0  0
   11.5839  -21.1529   23.7135 O   0  0  0  0  0  0  0  0  0  0  0  0
   10.5723  -19.1942   19.3349 O   0  0  0  0  0  0  0  0  0  0  0  0
   12.2327  -14.9177   30.0567 N   0  0  0  0  0  0  0  0  0  0  0  0
   11.2709  -15.9685   30.0669 C   0  0  0  0  0  0  0  0  0  0  0  0
   10.0005  -15.6882   30.0282 N   0  0  0  0  0  0  0  0  0  0  0  0
   11.6345  -17.3376   30.1177 N   0  0  0  0  0  0  0  0  0  0  0  0
   12.7098  -17.8460   29.2693 C   0  0  0  0  0  0  0  0  0  0  0  0
   12.1606  -19.0041   28.4735 C   0  0  0  0  0  0  0  0  0  0  0  0
   11.9596  -18.5993   27.0600 C   0  0  0  0  0  0  0  0  0  0  0  0
   11.3193  -19.5809   26.1560 C   0  0  2  0  0  0  0  0  0  0  0  0
   11.1280  -19.1795   24.8068 N   0  0  0  0  0  0  0  0  0  0  0  0
   10.1227  -20.1218   26.8549 C   0  0  0  0  0  0  0  0  0  0  0  0
   10.3180  -21.1213   27.7907 O   0  0  0  0  0  0  0  0  0  0  0  0
    8.9895  -19.7074   26.6225 O   0  0  0  0  0  0  0  0  0  0  0  0
  2  1  1  6
  2  3  1  0
  3  4  1  0
  4  5  2  0
  5  6  1  0
  7  6  1  0
  8  7  2  0
  9  8  1  0
 10 11  1  0
 10  9  2  0
 11 12  2  0
 12  4  1  0
 12  7  1  0
 13  2  1  0
 13 14  2  0
 15 13  1  0
 16 15  1  0
 16 17  1  6
 18 17  1  0
 19 18  2  0
 20 21  2  0
 20 16  1  0
 22 18  1  0
 23 24  1  0
 24 25  2  0
 26 27  1  0
 26 24  1  0
 27 28  1  0
 29 28  1  0
 30 31  1  0
 30 29  1  1
 31 20  1  0
 32 30  1  0
 33 32  1  0
 34 32  2  0
M  END
$$$$
