WDR.pdb
     RDKit          3D

 34 35  0  0  1  0  0  0  0  0999 V2000
    6.7856  -15.7714   21.9916 N   0  0  0  0  0  0  0  0  0  0  0  0
    7.5853  -15.4559   23.1479 C   0  0  1  0  0  0  0  0  0  0  0  0
    7.1033  -16.2542   24.3199 C   0  0  0  0  0  0  0  0  0  0  0  0
    6.8299  -15.3379   25.4519 C   0  0  0  0  0  0  0  0  0  0  0  0
    6.1642  -15.6599   26.6405 C   0  0  0  0  0  0  0  0  0  0  0  0
    6.1345  -14.5942   27.4547 N   0  0  0  0  0  0  0  0  0  0  0  0
    6.7606  -13.5776   26.8381 C   0  0  0  0  0  0  0  0  0  0  0  0
    6.9729  -12.2734   27.2862 C   0  0  0  0  0  0  0  0  0  0  0  0
    7.6364  -11.3799   26.4804 C   0  0  0  0  0  0  0  0  0  0  0  0
    8.0666  -11.8200   25.2500 C   0  0  0  0  0  0  0  0  0  0  0  0
    7.8570  -13.1229   24.7983 C   0  0  0  0  0  0  0  0  0  0  0  0
    7.1955  -14.0073   25.6091 C   0  0  0  0  0  0  0  0  0  0  0  0
    9.0167  -15.7284   22.8404 C   0  0  0  0  0  0  0  0  0  0  0  0
    9.5732  -15.0421   21.9521 O   0  0  0  0  0  0  0  0  0  0  0  0
    9.7972  -16.7211   23.4923 N   0  0  0  0  0  0  0  0  0  0  0  0
   11.2185  -16.6074   23.6697 C   0  0  1  0  0  0  0  0  0  0  0  0
   11.6648  -17.6218   24.7274 C   0  0  0  0  0  0  0  0  0  0  0  0
   13.1284  -17.6072   24.9371 C   0  0  0  0  0  0  0  0  0  0  0  0
   13.9042  -16.8269   24.3297 O   0  0  0  0  0  0  0  0  0  0  0  0
   11.9668  -16.8249   22.3899 C   0  0  0  0  0  0  0  0  0  0  0  0
   12.4538  -17.9561   22.1577 O   0  0  0  0  0  0  0  0  0  0  0  0
   13.6864  -18.4921   25.8452 O   0  0  0  0  0  0  0  0  0  0  0  0
    8.6059  -12.3169   18.2465 N   0  0  0  0  0  0  0  0  0  0  0  0
    8.0753  -13.4847   18.8662 C   0  0  0  0  0  0  0  0  0  0  0  0
    7.2257  -13.3726   19.8458 N   0  0  0  0  0  0  0  0  0  0  0  0
    8.4329  -14.7951   18.4611 N   0  0  0  0  0  0  0  0  0  0  0  0
    9.8243  -15.1166   18.1526 C   0  0  0  0  0  0  0  0  0  0  0  0
   10.6765  -14.6154   19.2922 C   0  0  0  0  0  0  0  0  0  0  0  0
   12.0879  -15.0270   19.0904 C   0  0  0  0  0  0  0  0  0  0  0  0
   12.7084  -15.8659   20.1401 C   0  0  2  0  0  0  0  0  0  0  0  0
   12.1381  -15.7924   21.4392 N   0  0  0  0  0  0  0  0  0  0  0  0
   14.1810  -15.6715   20.0589 C   0  0  0  0  0  0  0  0  0  0  0  0
   14.8434  -15.2678   21.2039 O   0  0  0  0  0  0  0  0  0  0  0  0
   14.8065  -15.8584   19.0179 O   0  0  0  0  0  0  0  0  0  0  0  0
  2  1  1  6
  2  3  1  0
  3  4  1  0
  4  5  2  0
  5  6  1  0
  7  6  1  0
  8  7  2  0
  9  8  1  0
 10 11  1  0
 10  9  2  0
 11 12  2  0
 12  4  1  0
 12  7  1  0
 13  2  1  0
 13 14  2  0
 15 13  1  0
 16 15  1  0
 16 17  1  1
 18 17  1  0
 19 18  2  0
 20 21  2  0
 20 16  1  0
 22 18  1  0
 23 24  1  0
 24 25  2  0
 26 27  1  0
 26 24  1  0
 27 28  1  0
 29 28  1  0
 30 31  1  0
 30 29  1  6
 31 20  1  0
 32 30  1  0
 33 32  1  0
 34 32  2  0
M  END
$$$$
