WDR.pdb
     RDKit          3D

 34 35  0  0  1  0  0  0  0  0999 V2000
    6.5035  -17.2806   23.9228 N   0  0  0  0  0  0  0  0  0  0  0  0
    7.6109  -16.3865   23.6983 C   0  0  1  0  0  0  0  0  0  0  0  0
    8.1388  -15.9066   25.0151 C   0  0  0  0  0  0  0  0  0  0  0  0
    7.1363  -15.0147   25.6440 C   0  0  0  0  0  0  0  0  0  0  0  0
    5.9415  -15.4085   26.2578 C   0  0  0  0  0  0  0  0  0  0  0  0
    5.3029  -14.3373   26.7521 N   0  0  0  0  0  0  0  0  0  0  0  0
    6.0412  -13.2475   26.4820 C   0  0  0  0  0  0  0  0  0  0  0  0
    5.7829  -11.9113   26.7900 C   0  0  0  0  0  0  0  0  0  0  0  0
    6.6784  -10.9424   26.4060 C   0  0  0  0  0  0  0  0  0  0  0  0
    7.8050  -11.3416   25.7248 C   0  0  0  0  0  0  0  0  0  0  0  0
    8.0673  -12.6760   25.4153 C   0  0  0  0  0  0  0  0  0  0  0  0
    7.1694  -13.6354   25.8032 C   0  0  0  0  0  0  0  0  0  0  0  0
    8.6549  -17.0924   22.9047 C   0  0  0  0  0  0  0  0  0  0  0  0
    8.8714  -18.3013   23.1524 O   0  0  0  0  0  0  0  0  0  0  0  0
    9.4256  -16.4812   21.8790 N   0  0  0  0  0  0  0  0  0  0  0  0
   10.7990  -16.8190   21.6256 C   0  0  1  0  0  0  0  0  0  0  0  0
   11.3714  -15.8230   20.6119 C   0  0  0  0  0  0  0  0  0  0  0  0
   12.5895  -16.3350   19.9482 C   0  0  0  0  0  0  0  0  0  0  0  0
   13.7514  -16.1110   20.3717 O   0  0  0  0  0  0  0  0  0  0  0  0
   11.6213  -16.8190   22.8781 C   0  0  0  0  0  0  0  0  0  0  0  0
   11.6491  -15.7842   23.5844 O   0  0  0  0  0  0  0  0  0  0  0  0
   12.4587  -17.1011   18.8014 O   0  0  0  0  0  0  0  0  0  0  0  0
   10.8459  -21.3071   29.9212 N   0  0  0  0  0  0  0  0  0  0  0  0
   12.0822  -20.6258   29.7298 C   0  0  0  0  0  0  0  0  0  0  0  0
   12.4513  -19.7000   30.5670 N   0  0  0  0  0  0  0  0  0  0  0  0
   12.9533  -20.9110   28.6486 N   0  0  0  0  0  0  0  0  0  0  0  0
   12.4697  -20.8305   27.2724 C   0  0  0  0  0  0  0  0  0  0  0  0
   13.1088  -19.6247   26.6291 C   0  0  0  0  0  0  0  0  0  0  0  0
   12.5011  -19.3771   25.2981 C   0  0  0  0  0  0  0  0  0  0  0  0
   12.9857  -18.2038   24.5370 C   0  0  2  0  0  0  0  0  0  0  0  0
   12.3642  -17.9512   23.2848 N   0  0  0  0  0  0  0  0  0  0  0  0
   14.4724  -18.2536   24.5326 C   0  0  0  0  0  0  0  0  0  0  0  0
   15.1268  -18.1206   25.7437 O   0  0  0  0  0  0  0  0  0  0  0  0
   15.1162  -18.4073   23.4973 O   0  0  0  0  0  0  0  0  0  0  0  0
  2  1  1  1
  2  3  1  0
  3  4  1  0
  4  5  2  0
  5  6  1  0
  7  6  1  0
  8  7  2  0
  9  8  1  0
 10 11  1  0
 10  9  2  0
 11 12  2  0
 12  4  1  0
 12  7  1  0
 13  2  1  0
 13 14  2  0
 15 13  1  0
 16 15  1  0
 16 17  1  6
 18 17  1  0
 19 18  2  0
 20 21  2  0
 20 16  1  0
 22 18  1  0
 23 24  1  0
 24 25  2  0
 26 27  1  0
 26 24  1  0
 27 28  1  0
 29 28  1  0
 30 31  1  0
 30 29  1  6
 31 20  1  0
 32 30  1  0
 33 32  1  0
 34 32  2  0
M  END
$$$$
