WDR.pdb
     RDKit          3D

 34 35  0  0  1  0  0  0  0  0999 V2000
    9.9756  -17.6978   27.9480 N   0  0  0  0  0  0  0  0  0  0  0  0
    9.5914  -17.1890   26.6558 C   0  0  1  0  0  0  0  0  0  0  0  0
   10.2413  -15.8586   26.4308 C   0  0  0  0  0  0  0  0  0  0  0  0
    9.3283  -14.7876   26.8949 C   0  0  0  0  0  0  0  0  0  0  0  0
    9.3697  -14.1385   28.1344 C   0  0  0  0  0  0  0  0  0  0  0  0
    8.4164  -13.1966   28.1930 N   0  0  0  0  0  0  0  0  0  0  0  0
    7.7461  -13.2053   27.0284 C   0  0  0  0  0  0  0  0  0  0  0  0
    6.6697  -12.4135   26.6267 C   0  0  0  0  0  0  0  0  0  0  0  0
    6.1213  -12.5977   25.3804 C   0  0  0  0  0  0  0  0  0  0  0  0
    6.6677  -13.5698   24.5746 C   0  0  0  0  0  0  0  0  0  0  0  0
    7.7438  -14.3631   24.9719 C   0  0  0  0  0  0  0  0  0  0  0  0
    8.2850  -14.1715   26.2159 C   0  0  0  0  0  0  0  0  0  0  0  0
    9.9718  -18.1778   25.6092 C   0  0  0  0  0  0  0  0  0  0  0  0
   11.1902  -18.3960   25.4147 O   0  0  0  0  0  0  0  0  0  0  0  0
    9.0383  -18.8943   24.8124 N   0  0  0  0  0  0  0  0  0  0  0  0
    9.4272  -19.7143   23.6985 C   0  0  1  0  0  0  0  0  0  0  0  0
    8.2629  -20.6440   23.3421 C   0  0  0  0  0  0  0  0  0  0  0  0
    8.6166  -21.6022   22.2728 C   0  0  0  0  0  0  0  0  0  0  0  0
    9.6408  -22.3297   22.3100 O   0  0  0  0  0  0  0  0  0  0  0  0
    9.8258  -18.8973   22.5074 C   0  0  0  0  0  0  0  0  0  0  0  0
    9.5186  -19.3052   21.3629 O   0  0  0  0  0  0  0  0  0  0  0  0
    7.7869  -21.7142   21.1691 O   0  0  0  0  0  0  0  0  0  0  0  0
    6.7766  -14.5786   18.0887 N   0  0  0  0  0  0  0  0  0  0  0  0
    7.8866  -13.7315   17.8064 C   0  0  0  0  0  0  0  0  0  0  0  0
    8.1106  -13.3374   16.5863 N   0  0  0  0  0  0  0  0  0  0  0  0
    8.7818  -13.2839   18.8101 N   0  0  0  0  0  0  0  0  0  0  0  0
    8.7181  -13.8453   20.1574 C   0  0  0  0  0  0  0  0  0  0  0  0
    9.9643  -14.6679   20.3732 C   0  0  0  0  0  0  0  0  0  0  0  0
    9.7202  -15.6961   21.4150 C   0  0  0  0  0  0  0  0  0  0  0  0
   10.7905  -16.6904   21.6530 C   0  0  2  0  0  0  0  0  0  0  0  0
   10.5363  -17.6819   22.6381 N   0  0  0  0  0  0  0  0  0  0  0  0
   12.0725  -15.9477   21.7862 C   0  0  0  0  0  0  0  0  0  0  0  0
   12.3315  -15.3168   22.9894 O   0  0  0  0  0  0  0  0  0  0  0  0
   12.8877  -15.8850   20.8690 O   0  0  0  0  0  0  0  0  0  0  0  0
  2  1  1  1
  2  3  1  0
  3  4  1  0
  4  5  2  0
  5  6  1  0
  7  6  1  0
  8  7  2  0
  9  8  1  0
 10 11  1  0
 10  9  2  0
 11 12  2  0
 12  4  1  0
 12  7  1  0
 13  2  1  0
 13 14  2  0
 15 13  1  0
 16 15  1  0
 16 17  1  6
 18 17  1  0
 19 18  2  0
 20 21  2  0
 20 16  1  0
 22 18  1  0
 23 24  1  0
 24 25  2  0
 26 27  1  0
 26 24  1  0
 27 28  1  0
 29 28  1  0
 30 31  1  0
 30 29  1  1
 31 20  1  0
 32 30  1  0
 33 32  1  0
 34 32  2  0
M  END
$$$$
