WDR.pdb
     RDKit          3D

 34 35  0  0  1  0  0  0  0  0999 V2000
    6.5154  -17.3593   24.2817 N   0  0  0  0  0  0  0  0  0  0  0  0
    7.6088  -16.5002   23.9041 C   0  0  1  0  0  0  0  0  0  0  0  0
    8.1494  -15.8170   25.1223 C   0  0  0  0  0  0  0  0  0  0  0  0
    7.1939  -14.7708   25.5564 C   0  0  0  0  0  0  0  0  0  0  0  0
    6.0082  -14.9726   26.2724 C   0  0  0  0  0  0  0  0  0  0  0  0
    5.4173  -13.7952   26.5259 N   0  0  0  0  0  0  0  0  0  0  0  0
    6.1781  -12.8218   25.9973 C   0  0  0  0  0  0  0  0  0  0  0  0
    5.9690  -11.4423   25.9999 C   0  0  0  0  0  0  0  0  0  0  0  0
    6.8797  -10.6180   25.3842 C   0  0  0  0  0  0  0  0  0  0  0  0
    7.9719  -11.2009   24.7842 C   0  0  0  0  0  0  0  0  0  0  0  0
    8.1851  -12.5792   24.7797 C   0  0  0  0  0  0  0  0  0  0  0  0
    7.2724  -13.3932   25.3972 C   0  0  0  0  0  0  0  0  0  0  0  0
    8.6498  -17.3104   23.2129 C   0  0  0  0  0  0  0  0  0  0  0  0
    8.8093  -18.5004   23.5710 O   0  0  0  0  0  0  0  0  0  0  0  0
    9.4785  -16.8196   22.1679 N   0  0  0  0  0  0  0  0  0  0  0  0
   10.8237  -17.2776   21.9555 C   0  0  1  0  0  0  0  0  0  0  0  0
   11.4402  -16.4758   20.8047 C   0  0  0  0  0  0  0  0  0  0  0  0
   12.7762  -16.9803   20.4215 C   0  0  0  0  0  0  0  0  0  0  0  0
   13.2864  -18.0204   20.9088 O   0  0  0  0  0  0  0  0  0  0  0  0
   11.6652  -17.1510   23.1888 C   0  0  0  0  0  0  0  0  0  0  0  0
   11.8725  -16.0110   23.6662 O   0  0  0  0  0  0  0  0  0  0  0  0
   13.5138  -16.2818   19.4796 O   0  0  0  0  0  0  0  0  0  0  0  0
   11.1138  -22.1586   30.3825 N   0  0  0  0  0  0  0  0  0  0  0  0
   12.1528  -21.2144   30.6236 C   0  0  0  0  0  0  0  0  0  0  0  0
   12.7021  -21.1379   31.8012 N   0  0  0  0  0  0  0  0  0  0  0  0
   12.6321  -20.3323   29.6229 N   0  0  0  0  0  0  0  0  0  0  0  0
   11.9933  -20.2917   28.3097 C   0  0  0  0  0  0  0  0  0  0  0  0
   12.8332  -19.4133   27.4157 C   0  0  0  0  0  0  0  0  0  0  0  0
   12.1481  -19.2093   26.1152 C   0  0  0  0  0  0  0  0  0  0  0  0
   12.8328  -18.3644   25.1111 C   0  0  2  0  0  0  0  0  0  0  0  0
   12.2299  -18.2789   23.8276 N   0  0  0  0  0  0  0  0  0  0  0  0
   14.2771  -18.7196   25.1344 C   0  0  0  0  0  0  0  0  0  0  0  0
   14.8416  -19.2060   23.9693 O   0  0  0  0  0  0  0  0  0  0  0  0
   14.9633  -18.5922   26.1458 O   0  0  0  0  0  0  0  0  0  0  0  0
  2  1  1  1
  2  3  1  0
  3  4  1  0
  4  5  2  0
  5  6  1  0
  7  6  1  0
  8  7  2  0
  9  8  1  0
 10 11  1  0
 10  9  2  0
 11 12  2  0
 12  4  1  0
 12  7  1  0
 13  2  1  0
 13 14  2  0
 15 13  1  0
 16 15  1  0
 16 17  1  6
 18 17  1  0
 19 18  2  0
 20 21  2  0
 20 16  1  0
 22 18  1  0
 23 24  1  0
 24 25  2  0
 26 27  1  0
 26 24  1  0
 27 28  1  0
 29 28  1  0
 30 31  1  0
 30 29  1  1
 31 20  1  0
 32 30  1  0
 33 32  1  0
 34 32  2  0
M  END
$$$$
