RWL.pdb
     RDKit          3D

 34 35  0  0  1  0  0  0  0  0999 V2000
    9.8886  -14.4056   15.1456 N   0  0  0  0  0  0  0  0  0  0  0  0
    9.1413  -14.9990   16.2020 C   0  0  0  0  0  0  0  0  0  0  0  0
    8.3865  -14.2202   16.8981 N   0  0  0  0  0  0  0  0  0  0  0  0
    9.2228  -16.3795   16.4765 N   0  0  0  0  0  0  0  0  0  0  0  0
   10.5776  -16.9678   16.5191 C   0  0  0  0  0  0  0  0  0  0  0  0
   10.7196  -17.7613   17.7830 C   0  0  0  0  0  0  0  0  0  0  0  0
   10.7540  -16.9458   19.0367 C   0  0  0  0  0  0  0  0  0  0  0  0
   11.0142  -17.6699   20.3099 C   0  0  2  0  0  0  0  0  0  0  0  0
   10.3993  -18.9519   20.3041 N   0  0  0  0  0  0  0  0  0  0  0  0
   10.6817  -16.8656   21.5139 C   0  0  0  0  0  0  0  0  0  0  0  0
   11.2834  -15.7756   21.7126 O   0  0  0  0  0  0  0  0  0  0  0  0
    7.8075  -14.6149   17.6575 N   0  0  0  0  0  0  0  0  0  0  0  0
    9.7128  -17.2392   22.4856 C   0  0  1  0  0  0  0  0  0  0  0  0
    9.3894  -16.3805   23.6003 C   0  0  0  0  0  0  0  0  0  0  0  0
    7.9040  -16.3443   23.8987 C   0  0  0  0  0  0  0  0  0  0  0  0
    7.1511  -15.8133   22.7480 C   0  0  0  0  0  0  0  0  0  0  0  0
    6.1411  -16.4134   22.0112 N   0  0  0  0  0  0  0  0  0  0  0  0
    5.7371  -15.5711   21.0565 C   0  0  0  0  0  0  0  0  0  0  0  0
    6.4219  -14.4224   21.1038 C   0  0  0  0  0  0  0  0  0  0  0  0
    6.3747  -13.2699   20.3499 C   0  0  0  0  0  0  0  0  0  0  0  0
    7.2382  -12.2425   20.6667 C   0  0  0  0  0  0  0  0  0  0  0  0
    8.1407  -12.3534   21.7195 C   0  0  0  0  0  0  0  0  0  0  0  0
    8.1770  -13.5222   22.4711 C   0  0  0  0  0  0  0  0  0  0  0  0
    7.3070  -14.5570   22.1521 C   0  0  0  0  0  0  0  0  0  0  0  0
   10.0759  -16.7605   24.8435 O   0  0  0  0  0  0  0  0  0  0  0  0
   10.8521  -17.7480   24.8158 C   0  0  0  0  0  0  0  0  0  0  0  0
   11.3087  -13.4284   27.6651 C   0  0  1  0  0  0  0  0  0  0  0  0
   10.0574  -14.1568   28.0662 C   0  0  0  0  0  0  0  0  0  0  0  0
    9.4572  -13.4364   29.2548 C   0  0  0  0  0  0  0  0  0  0  0  0
   10.2887  -15.5758   28.4651 C   0  0  2  0  0  0  0  0  0  0  0  0
   10.5963  -16.4985   27.3143 N   0  0  0  0  0  0  0  0  0  0  0  0
    9.9355  -16.0978   26.0920 C   0  0  0  0  0  0  0  0  0  0  0  0
   10.0976  -17.8388   27.6891 O   0  0  0  0  0  0  0  0  0  0  0  0
    9.1182  -18.3127   27.0682 O   0  0  0  0  0  0  0  0  0  0  0  0
  2  1  1  0
  2  4  1  0
  3  2  2  0
  5  4  1  0
  6  5  1  0
  7  6  1  0
  8  7  1  0
  8  9  1  6
 10  8  1  0
 10 11  2  0
 12 10  1  0
 13 12  1  0
 13 14  1  1
 15 14  1  0
 16 15  2  0
 17 16  1  0
 18 17  1  0
 18 23  2  0
 19 20  2  0
 19 18  1  0
 20 21  1  0
 21 22  2  0
 23 22  1  0
 23 15  1  0
 24 13  1  0
 25 24  2  0
 27 26  1  6
 27 29  1  0
 28 27  1  0
 30 29  1  6
 30 31  1  0
 30 32  1  0
 31 24  1  0
 32 34  1  0
 33 32  2  0
M  END
$$$$
