RWL.pdb
     RDKit          3D

 34 35  0  0  1  0  0  0  0  0999 V2000
    7.9501  -15.8345   15.1508 N   0  0  0  0  0  0  0  0  0  0  0  0
    8.1553  -16.8617   16.1149 C   0  0  0  0  0  0  0  0  0  0  0  0
    7.1230  -17.2673   16.7710 N   0  0  0  0  0  0  0  0  0  0  0  0
    9.4330  -17.4122   16.3436 N   0  0  0  0  0  0  0  0  0  0  0  0
   10.4808  -16.4823   16.8134 C   0  0  0  0  0  0  0  0  0  0  0  0
   11.1690  -17.0896   17.9987 C   0  0  0  0  0  0  0  0  0  0  0  0
   10.4827  -16.8625   19.3084 C   0  0  0  0  0  0  0  0  0  0  0  0
   11.0667  -17.5272   20.5043 C   0  0  2  0  0  0  0  0  0  0  0  0
   10.7962  -18.9232   20.4968 N   0  0  0  0  0  0  0  0  0  0  0  0
   10.6901  -16.8641   21.7793 C   0  0  0  0  0  0  0  0  0  0  0  0
   11.0623  -15.6782   21.9907 O   0  0  0  0  0  0  0  0  0  0  0  0
    6.1783  -16.9837   16.4631 N   0  0  0  0  0  0  0  0  0  0  0  0
    9.9231  -17.4787   22.8071 C   0  0  2  0  0  0  0  0  0  0  0  0
    9.5381  -16.7578   23.9974 C   0  0  0  0  0  0  0  0  0  0  0  0
    8.0805  -16.9622   24.3588 C   0  0  0  0  0  0  0  0  0  0  0  0
    7.2855  -15.7662   24.0267 C   0  0  0  0  0  0  0  0  0  0  0  0
    6.4662  -15.5367   22.9316 N   0  0  0  0  0  0  0  0  0  0  0  0
    5.9343  -14.3156   23.0321 C   0  0  0  0  0  0  0  0  0  0  0  0
    6.3498  -13.6972   24.1436 C   0  0  0  0  0  0  0  0  0  0  0  0
    6.0888  -12.4550   24.6800 C   0  0  0  0  0  0  0  0  0  0  0  0
    6.6922  -12.1150   25.8724 C   0  0  0  0  0  0  0  0  0  0  0  0
    7.5463  -12.9951   26.5289 C   0  0  0  0  0  0  0  0  0  0  0  0
    7.8004  -14.2448   25.9757 C   0  0  0  0  0  0  0  0  0  0  0  0
    7.1924  -14.5874   24.7747 C   0  0  0  0  0  0  0  0  0  0  0  0
   10.3361  -17.1191   25.1780 O   0  0  0  0  0  0  0  0  0  0  0  0
   10.9869  -18.1933   25.1492 C   0  0  0  0  0  0  0  0  0  0  0  0
   12.1107  -13.8639   27.4786 C   0  0  1  0  0  0  0  0  0  0  0  0
   10.8994  -14.3512   28.2220 C   0  0  0  0  0  0  0  0  0  0  0  0
   10.7204  -13.4799   29.4471 C   0  0  0  0  0  0  0  0  0  0  0  0
   11.0050  -15.7662   28.6830 C   0  0  2  0  0  0  0  0  0  0  0  0
   11.1205  -16.7722   27.5672 N   0  0  0  0  0  0  0  0  0  0  0  0
   10.4365  -16.3472   26.3662 C   0  0  0  0  0  0  0  0  0  0  0  0
   10.4849  -18.0197   28.0419 O   0  0  0  0  0  0  0  0  0  0  0  0
   11.0913  -18.7229   28.8828 O   0  0  0  0  0  0  0  0  0  0  0  0
  2  1  1  0
  2  4  1  0
  3  2  2  0
  5  4  1  0
  6  5  1  0
  7  6  1  0
  8  7  1  0
  8  9  1  1
 10  8  1  0
 10 11  2  0
 12 10  1  0
 13 12  1  0
 13 14  1  6
 15 14  1  0
 16 15  2  0
 17 16  1  0
 18 17  1  0
 18 23  2  0
 19 20  2  0
 19 18  1  0
 20 21  1  0
 21 22  2  0
 23 22  1  0
 23 15  1  0
 24 13  1  0
 25 24  2  0
 27 26  1  6
 27 29  1  0
 28 27  1  0
 30 29  1  6
 30 31  1  0
 30 32  1  0
 31 24  1  0
 32 34  1  0
 33 32  2  0
M  END
$$$$
