RWL.pdb
     RDKit          3D

 34 35  0  0  1  0  0  0  0  0999 V2000
    7.5692  -14.4407   14.9348 N   0  0  0  0  0  0  0  0  0  0  0  0
    8.1316  -14.4228   16.2425 C   0  0  0  0  0  0  0  0  0  0  0  0
    8.3683  -13.2689   16.7652 N   0  0  0  0  0  0  0  0  0  0  0  0
    8.4185  -15.6157   16.9370 N   0  0  0  0  0  0  0  0  0  0  0  0
    9.0323  -16.7076   16.1531 C   0  0  0  0  0  0  0  0  0  0  0  0
   10.0957  -17.3599   16.9845 C   0  0  0  0  0  0  0  0  0  0  0  0
   10.3987  -16.6660   18.2747 C   0  0  0  0  0  0  0  0  0  0  0  0
   10.4465  -17.5059   19.5015 C   0  0  2  0  0  0  0  0  0  0  0  0
    9.5085  -18.5721   19.4284 N   0  0  0  0  0  0  0  0  0  0  0  0
   10.3364  -16.7130   20.7530 C   0  0  0  0  0  0  0  0  0  0  0  0
   11.2115  -15.8427   21.0103 O   0  0  0  0  0  0  0  0  0  0  0  0
    8.8214  -13.2112   17.6921 N   0  0  0  0  0  0  0  0  0  0  0  0
    9.2939  -16.8632   21.7086 C   0  0  1  0  0  0  0  0  0  0  0  0
    9.1003  -15.9074   22.7733 C   0  0  0  0  0  0  0  0  0  0  0  0
    7.6510  -15.4930   22.9304 C   0  0  0  0  0  0  0  0  0  0  0  0
    7.5526  -14.1082   23.4261 C   0  0  0  0  0  0  0  0  0  0  0  0
    7.9646  -12.9308   22.8202 N   0  0  0  0  0  0  0  0  0  0  0  0
    7.6779  -11.9027   23.6233 C   0  0  0  0  0  0  0  0  0  0  0  0
    7.0892  -12.3191   24.7504 C   0  0  0  0  0  0  0  0  0  0  0  0
    6.6159  -11.6566   25.8622 C   0  0  0  0  0  0  0  0  0  0  0  0
    6.0489  -12.3987   26.8766 C   0  0  0  0  0  0  0  0  0  0  0  0
    5.9507  -13.7838   26.7931 C   0  0  0  0  0  0  0  0  0  0  0  0
    6.4328  -14.4385   25.6655 C   0  0  0  0  0  0  0  0  0  0  0  0
    7.0037  -13.6909   24.6435 C   0  0  0  0  0  0  0  0  0  0  0  0
    9.5597  -16.3954   24.0817 O   0  0  0  0  0  0  0  0  0  0  0  0
    9.2992  -17.5831   24.3978 C   0  0  0  0  0  0  0  0  0  0  0  0
    9.9276  -14.5251   29.8364 C   0  0  1  0  0  0  0  0  0  0  0  0
   10.5726  -15.4152   28.8123 C   0  0  0  0  0  0  0  0  0  0  0  0
   12.0683  -15.3899   29.0459 C   0  0  0  0  0  0  0  0  0  0  0  0
   10.3262  -14.9892   27.4037 C   0  0  2  0  0  0  0  0  0  0  0  0
   10.5867  -16.0630   26.3793 N   0  0  0  0  0  0  0  0  0  0  0  0
   10.2836  -15.6289   25.0336 C   0  0  0  0  0  0  0  0  0  0  0  0
    9.6989  -17.1986   26.7075 O   0  0  0  0  0  0  0  0  0  0  0  0
    8.4592  -17.0210   26.6831 O   0  0  0  0  0  0  0  0  0  0  0  0
  2  1  1  0
  2  4  1  0
  3  2  2  0
  5  4  1  0
  6  5  1  0
  7  6  1  0
  8  7  1  0
  8  9  1  6
 10  8  1  0
 10 11  2  0
 12 10  1  0
 13 12  1  0
 13 14  1  1
 15 14  1  0
 16 15  2  0
 17 16  1  0
 18 17  1  0
 18 23  2  0
 19 20  2  0
 19 18  1  0
 20 21  1  0
 21 22  2  0
 23 22  1  0
 23 15  1  0
 24 13  1  0
 25 24  2  0
 27 26  1  1
 27 29  1  0
 28 27  1  0
 30 29  1  6
 30 31  1  0
 30 32  1  0
 31 24  1  0
 32 34  1  0
 33 32  2  0
M  END
$$$$
