RWL.pdb
     RDKit          3D

 34 35  0  0  1  0  0  0  0  0999 V2000
   12.1301  -18.8390   15.7387 N   0  0  0  0  0  0  0  0  0  0  0  0
   11.1366  -19.7288   16.2364 C   0  0  0  0  0  0  0  0  0  0  0  0
   10.2346  -20.1268   15.4065 N   0  0  0  0  0  0  0  0  0  0  0  0
   11.1379  -20.1569   17.5797 N   0  0  0  0  0  0  0  0  0  0  0  0
   12.2159  -19.6300   18.4421 C   0  0  0  0  0  0  0  0  0  0  0  0
   11.8683  -18.2293   18.8479 C   0  0  0  0  0  0  0  0  0  0  0  0
   12.0530  -17.9323   20.3024 C   0  0  0  0  0  0  0  0  0  0  0  0
   10.8391  -17.9689   21.1616 C   0  0  2  0  0  0  0  0  0  0  0  0
    9.6612  -18.1062   20.3771 N   0  0  0  0  0  0  0  0  0  0  0  0
   10.7742  -16.8387   22.1237 C   0  0  0  0  0  0  0  0  0  0  0  0
   11.7100  -16.6812   22.9537 O   0  0  0  0  0  0  0  0  0  0  0  0
    9.4695  -20.7374   15.7377 N   0  0  0  0  0  0  0  0  0  0  0  0
    9.7108  -15.8963   22.1835 C   0  0  2  0  0  0  0  0  0  0  0  0
    9.1430  -15.4755   23.4426 C   0  0  0  0  0  0  0  0  0  0  0  0
    7.8380  -16.1780   23.7593 C   0  0  0  0  0  0  0  0  0  0  0  0
    7.0452  -15.3993   24.7277 C   0  0  0  0  0  0  0  0  0  0  0  0
    6.1491  -15.8478   25.6864 N   0  0  0  0  0  0  0  0  0  0  0  0
    5.6575  -14.7980   26.3500 C   0  0  0  0  0  0  0  0  0  0  0  0
    6.1737  -13.6516   25.8921 C   0  0  0  0  0  0  0  0  0  0  0  0
    5.9868  -12.3320   26.2425 C   0  0  0  0  0  0  0  0  0  0  0  0
    6.6900  -11.3647   25.5561 C   0  0  0  0  0  0  0  0  0  0  0  0
    7.5703  -11.6987   24.5320 C   0  0  0  0  0  0  0  0  0  0  0  0
    7.7484  -13.0341   24.1894 C   0  0  0  0  0  0  0  0  0  0  0  0
    7.0402  -14.0085   24.8810 C   0  0  0  0  0  0  0  0  0  0  0  0
   10.0431  -15.6893   24.5851 O   0  0  0  0  0  0  0  0  0  0  0  0
   11.0275  -14.9201   24.7182 C   0  0  0  0  0  0  0  0  0  0  0  0
   11.0034  -13.8920   27.8869 C   0  0  2  0  0  0  0  0  0  0  0  0
    9.7090  -14.6531   27.8360 C   0  0  0  0  0  0  0  0  0  0  0  0
    8.8497  -14.1926   28.9943 C   0  0  0  0  0  0  0  0  0  0  0  0
    9.8748  -16.1312   27.9536 C   0  0  2  0  0  0  0  0  0  0  0  0
   10.6284  -16.7608   26.8107 N   0  0  0  0  0  0  0  0  0  0  0  0
    9.8938  -16.7054   25.5664 C   0  0  0  0  0  0  0  0  0  0  0  0
   10.8354  -18.1823   27.1600 O   0  0  0  0  0  0  0  0  0  0  0  0
   11.5954  -18.4637   28.1152 O   0  0  0  0  0  0  0  0  0  0  0  0
  2  1  1  0
  2  4  1  0
  3  2  2  0
  5  4  1  0
  6  5  1  0
  7  6  1  0
  8  7  1  0
  8  9  1  6
 10  8  1  0
 10 11  2  0
 12 10  1  0
 13 12  1  0
 13 14  1  6
 15 14  1  0
 16 15  2  0
 17 16  1  0
 18 17  1  0
 18 23  2  0
 19 20  2  0
 19 18  1  0
 20 21  1  0
 21 22  2  0
 23 22  1  0
 23 15  1  0
 24 13  1  0
 25 24  2  0
 27 26  1  6
 27 29  1  0
 28 27  1  0
 30 29  1  6
 30 31  1  0
 30 32  1  0
 31 24  1  0
 32 34  1  0
 33 32  2  0
M  END
$$$$
