RWL.pdb
     RDKit          3D

 34 35  0  0  1  0  0  0  0  0999 V2000
    7.3762  -13.1490   16.2526 N   0  0  0  0  0  0  0  0  0  0  0  0
    8.4098  -13.9797   15.7344 C   0  0  0  0  0  0  0  0  0  0  0  0
    9.3234  -13.4094   15.0268 N   0  0  0  0  0  0  0  0  0  0  0  0
    8.4337  -15.3671   15.9836 N   0  0  0  0  0  0  0  0  0  0  0  0
    7.9651  -15.8099   17.3132 C   0  0  0  0  0  0  0  0  0  0  0  0
    8.4197  -14.8171   18.3404 C   0  0  0  0  0  0  0  0  0  0  0  0
    8.0373  -15.1494   19.7480 C   0  0  0  0  0  0  0  0  0  0  0  0
    8.8347  -16.1988   20.4377 C   0  0  2  0  0  0  0  0  0  0  0  0
    8.2188  -17.4743   20.3124 N   0  0  0  0  0  0  0  0  0  0  0  0
    9.1700  -15.8451   21.8411 C   0  0  0  0  0  0  0  0  0  0  0  0
    9.7294  -14.7412   22.0818 O   0  0  0  0  0  0  0  0  0  0  0  0
   10.1272  -13.9634   14.6879 N   0  0  0  0  0  0  0  0  0  0  0  0
    8.9028  -16.6765   22.9636 C   0  0  1  0  0  0  0  0  0  0  0  0
    8.9633  -16.1674   24.3133 C   0  0  0  0  0  0  0  0  0  0  0  0
    7.8108  -16.6488   25.1719 C   0  0  0  0  0  0  0  0  0  0  0  0
    6.7264  -15.6508   25.2008 C   0  0  0  0  0  0  0  0  0  0  0  0
    5.3578  -15.8425   25.0860 N   0  0  0  0  0  0  0  0  0  0  0  0
    4.7423  -14.6600   25.1702 C   0  0  0  0  0  0  0  0  0  0  0  0
    5.6236  -13.6671   25.3372 C   0  0  0  0  0  0  0  0  0  0  0  0
    5.4857  -12.3028   25.4739 C   0  0  0  0  0  0  0  0  0  0  0  0
    6.6237  -11.5408   25.6342 C   0  0  0  0  0  0  0  0  0  0  0  0
    7.8872  -12.1222   25.6590 C   0  0  0  0  0  0  0  0  0  0  0  0
    8.0109  -13.4998   25.5197 C   0  0  0  0  0  0  0  0  0  0  0  0
    6.8645  -14.2674   25.3584 C   0  0  0  0  0  0  0  0  0  0  0  0
   10.2070  -16.5225   25.0120 O   0  0  0  0  0  0  0  0  0  0  0  0
   11.0822  -17.1636   24.3785 C   0  0  0  0  0  0  0  0  0  0  0  0
   10.9489  -13.7444   28.1779 C   0  0  1  0  0  0  0  0  0  0  0  0
   10.7121  -15.0886   28.8058 C   0  0  0  0  0  0  0  0  0  0  0  0
   10.7066  -14.9084   30.3091 C   0  0  0  0  0  0  0  0  0  0  0  0
   11.7572  -16.1005   28.4739 C   0  0  2  0  0  0  0  0  0  0  0  0
   11.7305  -16.5689   27.0421 N   0  0  0  0  0  0  0  0  0  0  0  0
   10.5094  -16.1986   26.3615 C   0  0  0  0  0  0  0  0  0  0  0  0
   11.8135  -18.0447   27.0680 O   0  0  0  0  0  0  0  0  0  0  0  0
   12.8728  -18.5818   27.4663 O   0  0  0  0  0  0  0  0  0  0  0  0
  2  1  1  0
  2  4  1  0
  3  2  2  0
  5  4  1  0
  6  5  1  0
  7  6  1  0
  8  7  1  0
  8  9  1  1
 10  8  1  0
 10 11  2  0
 12 10  1  0
 13 12  1  0
 13 14  1  1
 15 14  1  0
 16 15  2  0
 17 16  1  0
 18 17  1  0
 18 23  2  0
 19 20  2  0
 19 18  1  0
 20 21  1  0
 21 22  2  0
 23 22  1  0
 23 15  1  0
 24 13  1  0
 25 24  2  0
 27 26  1  6
 27 29  1  0
 28 27  1  0
 30 29  1  6
 30 31  1  0
 30 32  1  0
 31 24  1  0
 32 34  1  0
 33 32  2  0
M  END
$$$$
