RWL.pdb
     RDKit          3D

 34 35  0  0  1  0  0  0  0  0999 V2000
   15.9282  -19.3423   18.7071 N   0  0  0  0  0  0  0  0  0  0  0  0
   15.2528  -19.7019   17.5065 C   0  0  0  0  0  0  0  0  0  0  0  0
   15.7863  -20.6280   16.7864 N   0  0  0  0  0  0  0  0  0  0  0  0
   14.0519  -19.0724   17.1205 N   0  0  0  0  0  0  0  0  0  0  0  0
   13.3539  -18.2840   18.1572 C   0  0  0  0  0  0  0  0  0  0  0  0
   12.4038  -19.1833   18.8893 C   0  0  0  0  0  0  0  0  0  0  0  0
   11.8059  -18.5920   20.1266 C   0  0  0  0  0  0  0  0  0  0  0  0
   10.5338  -17.8368   19.9710 C   0  0  2  0  0  0  0  0  0  0  0  0
   10.5519  -17.0417   18.7922 N   0  0  0  0  0  0  0  0  0  0  0  0
   10.1599  -17.0717   21.1883 C   0  0  0  0  0  0  0  0  0  0  0  0
   10.6776  -15.9396   21.3881 O   0  0  0  0  0  0  0  0  0  0  0  0
   15.3293  -20.9173   15.9060 N   0  0  0  0  0  0  0  0  0  0  0  0
    9.2401  -17.5288   22.1720 C   0  0  1  0  0  0  0  0  0  0  0  0
    8.8849  -16.7159   23.3112 C   0  0  0  0  0  0  0  0  0  0  0  0
    7.4191  -16.8325   23.6783 C   0  0  0  0  0  0  0  0  0  0  0  0
    7.0770  -15.9039   24.7707 C   0  0  0  0  0  0  0  0  0  0  0  0
    6.6190  -16.1873   26.0486 N   0  0  0  0  0  0  0  0  0  0  0  0
    6.4392  -15.0421   26.7123 C   0  0  0  0  0  0  0  0  0  0  0  0
    6.7521  -13.9875   25.9504 C   0  0  0  0  0  0  0  0  0  0  0  0
    6.7346  -12.6283   26.1763 C   0  0  0  0  0  0  0  0  0  0  0  0
    7.1281  -11.7882   25.1561 C   0  0  0  0  0  0  0  0  0  0  0  0
    7.5352  -12.2873   23.9231 C   0  0  0  0  0  0  0  0  0  0  0  0
    7.5475  -13.6609   23.7096 C   0  0  0  0  0  0  0  0  0  0  0  0
    7.1513  -14.5071   24.7374 C   0  0  0  0  0  0  0  0  0  0  0  0
    9.6641  -17.0343   24.5164 O   0  0  0  0  0  0  0  0  0  0  0  0
   10.2788  -18.1293   24.5546 C   0  0  0  0  0  0  0  0  0  0  0  0
   10.6251  -13.2533   26.8877 C   0  0  1  0  0  0  0  0  0  0  0  0
    9.7076  -14.2548   27.5299 C   0  0  0  0  0  0  0  0  0  0  0  0
    9.1225  -13.6225   28.7749 C   0  0  0  0  0  0  0  0  0  0  0  0
   10.3876  -15.5182   27.9393 C   0  0  1  0  0  0  0  0  0  0  0  0
   10.6002  -16.4977   26.8142 N   0  0  0  0  0  0  0  0  0  0  0  0
    9.7840  -16.1984   25.6586 C   0  0  0  0  0  0  0  0  0  0  0  0
   10.2094  -17.8303   27.3211 O   0  0  0  0  0  0  0  0  0  0  0  0
    9.1999  -18.3885   26.8327 O   0  0  0  0  0  0  0  0  0  0  0  0
  2  1  1  0
  2  4  1  0
  3  2  2  0
  5  4  1  0
  6  5  1  0
  7  6  1  0
  8  7  1  0
  8  9  1  6
 10  8  1  0
 10 11  2  0
 12 10  1  0
 13 12  1  0
 13 14  1  1
 15 14  1  0
 16 15  2  0
 17 16  1  0
 18 17  1  0
 18 23  2  0
 19 20  2  0
 19 18  1  0
 20 21  1  0
 21 22  2  0
 23 22  1  0
 23 15  1  0
 24 13  1  0
 25 24  2  0
 27 26  1  6
 27 29  1  0
 28 27  1  0
 30 29  1  6
 30 31  1  0
 30 32  1  0
 31 24  1  0
 32 34  1  0
 33 32  2  0
M  END
$$$$
