RWL.pdb
     RDKit          3D

 34 35  0  0  1  0  0  0  0  0999 V2000
    8.9856  -13.0664   16.3237 N   0  0  0  0  0  0  0  0  0  0  0  0
    8.3578  -14.2752   15.9097 C   0  0  0  0  0  0  0  0  0  0  0  0
    8.3495  -14.5310   14.6467 N   0  0  0  0  0  0  0  0  0  0  0  0
    7.7695  -15.1556   16.8406 N   0  0  0  0  0  0  0  0  0  0  0  0
    8.1001  -14.9332   18.2635 C   0  0  0  0  0  0  0  0  0  0  0  0
    9.5879  -14.8100   18.3999 C   0  0  0  0  0  0  0  0  0  0  0  0
   10.0738  -14.5758   19.7952 C   0  0  0  0  0  0  0  0  0  0  0  0
   10.3863  -15.7771   20.6152 C   0  0  2  0  0  0  0  0  0  0  0  0
    9.6724  -16.9148   20.1483 N   0  0  0  0  0  0  0  0  0  0  0  0
   10.2264  -15.5426   22.0734 C   0  0  0  0  0  0  0  0  0  0  0  0
   10.7471  -14.5191   22.5939 O   0  0  0  0  0  0  0  0  0  0  0  0
    7.9162  -15.4048   14.3053 N   0  0  0  0  0  0  0  0  0  0  0  0
    9.5138  -16.4052   22.9512 C   0  0  1  0  0  0  0  0  0  0  0  0
    9.2428  -16.0352   24.3203 C   0  0  0  0  0  0  0  0  0  0  0  0
    7.8196  -16.3453   24.7388 C   0  0  0  0  0  0  0  0  0  0  0  0
    6.9179  -15.2307   24.3963 C   0  0  0  0  0  0  0  0  0  0  0  0
    6.0269  -15.1193   23.3395 N   0  0  0  0  0  0  0  0  0  0  0  0
    5.4080  -13.9379   23.4125 C   0  0  0  0  0  0  0  0  0  0  0  0
    5.8320  -13.2344   24.4688 C   0  0  0  0  0  0  0  0  0  0  0  0
    5.5040  -11.9895   24.9603 C   0  0  0  0  0  0  0  0  0  0  0  0
    6.1409  -11.5449   26.0996 C   0  0  0  0  0  0  0  0  0  0  0  0
    7.0940  -12.3240   26.7475 C   0  0  0  0  0  0  0  0  0  0  0  0
    7.4148  -13.5777   26.2400 C   0  0  0  0  0  0  0  0  0  0  0  0
    6.7731  -14.0256   25.0924 C   0  0  0  0  0  0  0  0  0  0  0  0
   10.1355  -16.6918   25.2863 O   0  0  0  0  0  0  0  0  0  0  0  0
   10.7910  -17.6931   24.9041 C   0  0  0  0  0  0  0  0  0  0  0  0
   11.5474  -14.1662   30.1258 C   0  0  1  0  0  0  0  0  0  0  0  0
   10.9577  -14.8599   28.9307 C   0  0  0  0  0  0  0  0  0  0  0  0
    9.4758  -14.5517   28.8948 C   0  0  0  0  0  0  0  0  0  0  0  0
   11.1120  -16.3436   28.9591 C   0  0  1  0  0  0  0  0  0  0  0  0
   11.1440  -16.9873   27.5971 N   0  0  0  0  0  0  0  0  0  0  0  0
   10.3240  -16.2859   26.6343 C   0  0  0  0  0  0  0  0  0  0  0  0
   10.6040  -18.3547   27.7520 O   0  0  0  0  0  0  0  0  0  0  0  0
   11.2775  -19.2005   28.3847 O   0  0  0  0  0  0  0  0  0  0  0  0
  2  1  1  0
  2  4  1  0
  3  2  2  0
  5  4  1  0
  6  5  1  0
  7  6  1  0
  8  7  1  0
  8  9  1  6
 10  8  1  0
 10 11  2  0
 12 10  1  0
 13 12  1  0
 13 14  1  6
 15 14  1  0
 16 15  2  0
 17 16  1  0
 18 17  1  0
 18 23  2  0
 19 20  2  0
 19 18  1  0
 20 21  1  0
 21 22  2  0
 23 22  1  0
 23 15  1  0
 24 13  1  0
 25 24  2  0
 27 26  1  6
 27 29  1  0
 28 27  1  0
 30 29  1  6
 30 31  1  0
 30 32  1  0
 31 24  1  0
 32 34  1  0
 33 32  2  0
M  END
$$$$
