RWL.pdb
     RDKit          3D

 34 35  0  0  1  0  0  0  0  0999 V2000
    7.8711  -13.1761   15.5495 N   0  0  0  0  0  0  0  0  0  0  0  0
    8.3610  -14.5113   15.4868 C   0  0  0  0  0  0  0  0  0  0  0  0
    7.5207  -15.4313   15.1575 N   0  0  0  0  0  0  0  0  0  0  0  0
    9.7075  -14.8157   15.7729 N   0  0  0  0  0  0  0  0  0  0  0  0
   10.1585  -14.5852   17.1611 C   0  0  0  0  0  0  0  0  0  0  0  0
    8.9822  -14.7240   18.0801 C   0  0  0  0  0  0  0  0  0  0  0  0
    9.2873  -14.5074   19.5285 C   0  0  0  0  0  0  0  0  0  0  0  0
    9.6299  -15.7087   20.3364 C   0  0  2  0  0  0  0  0  0  0  0  0
    8.9047  -16.8480   19.8917 N   0  0  0  0  0  0  0  0  0  0  0  0
    9.5170  -15.4763   21.7993 C   0  0  0  0  0  0  0  0  0  0  0  0
    9.9972  -14.4210   22.2947 O   0  0  0  0  0  0  0  0  0  0  0  0
    7.8511  -16.4014   15.0257 N   0  0  0  0  0  0  0  0  0  0  0  0
    8.8940  -16.3750   22.7086 C   0  0  1  0  0  0  0  0  0  0  0  0
    8.8269  -16.0941   24.1233 C   0  0  0  0  0  0  0  0  0  0  0  0
    7.5960  -16.6871   24.7792 C   0  0  0  0  0  0  0  0  0  0  0  0
    6.6514  -15.6272   25.1757 C   0  0  0  0  0  0  0  0  0  0  0  0
    5.3414  -15.7426   25.6157 N   0  0  0  0  0  0  0  0  0  0  0  0
    4.8568  -14.5241   25.8696 C   0  0  0  0  0  0  0  0  0  0  0  0
    5.7720  -13.5791   25.6247 C   0  0  0  0  0  0  0  0  0  0  0  0
    5.7539  -12.2052   25.7302 C   0  0  0  0  0  0  0  0  0  0  0  0
    6.8929  -11.5059   25.3912 C   0  0  0  0  0  0  0  0  0  0  0  0
    8.0399  -12.1587   24.9515 C   0  0  0  0  0  0  0  0  0  0  0  0
    8.0432  -13.5451   24.8498 C   0  0  0  0  0  0  0  0  0  0  0  0
    6.8959  -14.2496   25.1915 C   0  0  0  0  0  0  0  0  0  0  0  0
    9.9969  -16.5820   24.8677 O   0  0  0  0  0  0  0  0  0  0  0  0
   10.8158  -17.3229   24.2686 C   0  0  0  0  0  0  0  0  0  0  0  0
   10.5577  -13.9552   28.0865 C   0  0  1  0  0  0  0  0  0  0  0  0
   10.3985  -15.3118   28.7123 C   0  0  0  0  0  0  0  0  0  0  0  0
   10.4005  -15.1365   30.2161 C   0  0  0  0  0  0  0  0  0  0  0  0
   11.4910  -16.2667   28.3653 C   0  0  1  0  0  0  0  0  0  0  0  0
   11.4293  -16.7890   26.9532 N   0  0  0  0  0  0  0  0  0  0  0  0
   10.2861  -16.2837   26.2260 C   0  0  0  0  0  0  0  0  0  0  0  0
   11.3057  -18.2595   27.0408 O   0  0  0  0  0  0  0  0  0  0  0  0
   12.2722  -18.9200   27.4868 O   0  0  0  0  0  0  0  0  0  0  0  0
  2  1  1  0
  2  4  1  0
  3  2  2  0
  5  4  1  0
  6  5  1  0
  7  6  1  0
  8  7  1  0
  8  9  1  6
 10  8  1  0
 10 11  2  0
 12 10  1  0
 13 12  1  0
 13 14  1  6
 15 14  1  0
 16 15  2  0
 17 16  1  0
 18 17  1  0
 18 23  2  0
 19 20  2  0
 19 18  1  0
 20 21  1  0
 21 22  2  0
 23 22  1  0
 23 15  1  0
 24 13  1  0
 25 24  2  0
 27 26  1  6
 27 29  1  0
 28 27  1  0
 30 29  1  6
 30 31  1  0
 30 32  1  0
 31 24  1  0
 32 34  1  0
 33 32  2  0
M  END
$$$$
