RWL.pdb
     RDKit          3D

 34 35  0  0  1  0  0  0  0  0999 V2000
   12.2028  -15.8677   15.9377 N   0  0  0  0  0  0  0  0  0  0  0  0
   11.0548  -15.8909   15.0960 C   0  0  0  0  0  0  0  0  0  0  0  0
   11.2585  -15.9588   13.8253 N   0  0  0  0  0  0  0  0  0  0  0  0
    9.7503  -15.8413   15.6285 N   0  0  0  0  0  0  0  0  0  0  0  0
    9.6326  -15.9007   17.1003 C   0  0  0  0  0  0  0  0  0  0  0  0
   10.3122  -17.1443   17.5891 C   0  0  0  0  0  0  0  0  0  0  0  0
   11.3033  -16.9281   18.6886 C   0  0  0  0  0  0  0  0  0  0  0  0
   11.1550  -17.7652   19.9094 C   0  0  2  0  0  0  0  0  0  0  0  0
   10.3481  -18.9072   19.6517 N   0  0  0  0  0  0  0  0  0  0  0  0
   10.7104  -16.9889   21.0955 C   0  0  0  0  0  0  0  0  0  0  0  0
   11.3421  -15.9482   21.4232 O   0  0  0  0  0  0  0  0  0  0  0  0
   10.4534  -15.9458   13.1776 N   0  0  0  0  0  0  0  0  0  0  0  0
    9.5992  -17.3374   21.9118 C   0  0  1  0  0  0  0  0  0  0  0  0
    9.1125  -16.4534   22.9444 C   0  0  0  0  0  0  0  0  0  0  0  0
    7.6020  -16.3305   22.9446 C   0  0  0  0  0  0  0  0  0  0  0  0
    7.1261  -15.7147   21.6927 C   0  0  0  0  0  0  0  0  0  0  0  0
    6.1899  -16.1880   20.7857 N   0  0  0  0  0  0  0  0  0  0  0  0
    6.0602  -15.3057   19.7913 C   0  0  0  0  0  0  0  0  0  0  0  0
    6.8625  -14.2504   19.9734 C   0  0  0  0  0  0  0  0  0  0  0  0
    7.0856  -13.1038   19.2424 C   0  0  0  0  0  0  0  0  0  0  0  0
    8.0020  -12.1900   19.7181 C   0  0  0  0  0  0  0  0  0  0  0  0
    8.6923  -12.4077   20.9061 C   0  0  0  0  0  0  0  0  0  0  0  0
    8.4570  -13.5692   21.6328 C   0  0  0  0  0  0  0  0  0  0  0  0
    7.5336  -14.4896   21.1536 C   0  0  0  0  0  0  0  0  0  0  0  0
    9.5180  -16.8626   24.2969 O   0  0  0  0  0  0  0  0  0  0  0  0
   10.2924  -17.8450   24.4134 C   0  0  0  0  0  0  0  0  0  0  0  0
   10.0603  -15.2301   29.8008 C   0  0  1  0  0  0  0  0  0  0  0  0
   10.3703  -14.4103   28.5805 C   0  0  0  0  0  0  0  0  0  0  0  0
   10.1445  -12.9535   28.9257 C   0  0  0  0  0  0  0  0  0  0  0  0
    9.5136  -14.7357   27.4031 C   0  0  2  0  0  0  0  0  0  0  0  0
    9.9775  -15.9324   26.6138 N   0  0  0  0  0  0  0  0  0  0  0  0
    9.1039  -16.2339   25.5015 C   0  0  0  0  0  0  0  0  0  0  0  0
    9.9660  -17.0889   27.5345 O   0  0  0  0  0  0  0  0  0  0  0  0
   10.8666  -17.1786   28.4006 O   0  0  0  0  0  0  0  0  0  0  0  0
  2  1  1  0
  2  4  1  0
  3  2  2  0
  5  4  1  0
  6  5  1  0
  7  6  1  0
  8  7  1  0
  8  9  1  6
 10  8  1  0
 10 11  2  0
 12 10  1  0
 13 12  1  0
 13 14  1  1
 15 14  1  0
 16 15  2  0
 17 16  1  0
 18 17  1  0
 18 23  2  0
 19 20  2  0
 19 18  1  0
 20 21  1  0
 21 22  2  0
 23 22  1  0
 23 15  1  0
 24 13  1  0
 25 24  2  0
 27 26  1  1
 27 29  1  0
 28 27  1  0
 30 29  1  6
 30 31  1  0
 30 32  1  0
 31 24  1  0
 32 34  1  0
 33 32  2  0
M  END
$$$$
