RWL.pdb
     RDKit          3D

 34 35  0  0  1  0  0  0  0  0999 V2000
    8.9686  -14.5466   14.8192 N   0  0  0  0  0  0  0  0  0  0  0  0
    8.4658  -14.3045   16.1289 C   0  0  0  0  0  0  0  0  0  0  0  0
    8.7086  -13.1503   16.6481 N   0  0  0  0  0  0  0  0  0  0  0  0
    7.7338  -15.2849   16.8293 N   0  0  0  0  0  0  0  0  0  0  0  0
    8.5158  -16.3544   17.4835 C   0  0  0  0  0  0  0  0  0  0  0  0
    8.0494  -16.4952   18.9013 C   0  0  0  0  0  0  0  0  0  0  0  0
    8.9001  -15.7975   19.9150 C   0  0  0  0  0  0  0  0  0  0  0  0
    9.4423  -16.6220   21.0282 C   0  0  2  0  0  0  0  0  0  0  0  0
    8.7119  -17.8337   21.1701 N   0  0  0  0  0  0  0  0  0  0  0  0
    9.5756  -15.8654   22.2997 C   0  0  0  0  0  0  0  0  0  0  0  0
   10.1232  -14.7299   22.2869 O   0  0  0  0  0  0  0  0  0  0  0  0
    8.3955  -12.9477   17.6118 N   0  0  0  0  0  0  0  0  0  0  0  0
    9.1224  -16.3345   23.5635 C   0  0  1  0  0  0  0  0  0  0  0  0
    9.2051  -15.5142   24.7488 C   0  0  0  0  0  0  0  0  0  0  0  0
    8.0600  -15.7598   25.7107 C   0  0  0  0  0  0  0  0  0  0  0  0
    6.9500  -14.8245   25.4538 C   0  0  0  0  0  0  0  0  0  0  0  0
    5.6782  -15.0885   24.9682 N   0  0  0  0  0  0  0  0  0  0  0  0
    4.9925  -13.9445   24.8942 C   0  0  0  0  0  0  0  0  0  0  0  0
    5.7336  -12.9092   25.3059 C   0  0  0  0  0  0  0  0  0  0  0  0
    5.4814  -11.5588   25.4145 C   0  0  0  0  0  0  0  0  0  0  0  0
    6.4847  -10.7396   25.8872 C   0  0  0  0  0  0  0  0  0  0  0  0
    7.7269  -11.2507   26.2492 C   0  0  0  0  0  0  0  0  0  0  0  0
    7.9670  -12.6151   26.1339 C   0  0  0  0  0  0  0  0  0  0  0  0
    6.9561  -13.4403   25.6580 C   0  0  0  0  0  0  0  0  0  0  0  0
   10.4548  -15.7039   25.4994 O   0  0  0  0  0  0  0  0  0  0  0  0
   11.0942  -14.6831   25.8566 C   0  0  0  0  0  0  0  0  0  0  0  0
   11.4544  -14.5600   28.3901 C   0  0  2  0  0  0  0  0  0  0  0  0
   10.7542  -15.8819   28.5297 C   0  0  0  0  0  0  0  0  0  0  0  0
   10.2751  -16.0089   29.9603 C   0  0  0  0  0  0  0  0  0  0  0  0
   11.6243  -17.0580   28.2365 C   0  0  2  0  0  0  0  0  0  0  0  0
   12.0902  -17.1400   26.8059 N   0  0  0  0  0  0  0  0  0  0  0  0
   11.0103  -16.9601   25.8612 C   0  0  0  0  0  0  0  0  0  0  0  0
   12.6517  -18.4936   26.6107 O   0  0  0  0  0  0  0  0  0  0  0  0
   12.1009  -19.2618   25.7888 O   0  0  0  0  0  0  0  0  0  0  0  0
  2  1  1  0
  2  4  1  0
  3  2  2  0
  5  4  1  0
  6  5  1  0
  7  6  1  0
  8  7  1  0
  8  9  1  1
 10  8  1  0
 10 11  2  0
 12 10  1  0
 13 12  1  0
 13 14  1  1
 15 14  1  0
 16 15  2  0
 17 16  1  0
 18 17  1  0
 18 23  2  0
 19 20  2  0
 19 18  1  0
 20 21  1  0
 21 22  2  0
 23 22  1  0
 23 15  1  0
 24 13  1  0
 25 24  2  0
 27 26  1  6
 27 29  1  0
 28 27  1  0
 30 29  1  6
 30 31  1  0
 30 32  1  0
 31 24  1  0
 32 34  1  0
 33 32  2  0
M  END
$$$$
