PAG.pdb
     RDKit          3D

 17 17  0  0  1  0  0  0  0  0999 V2000
    8.9311  -14.4815   19.8180 N   0  0  0  0  0  0  0  0  0  0  0  0
    8.4389  -13.4964   18.8443 C   0  0  0  0  0  0  0  0  0  0  0  0
    6.9717  -13.4330   19.2145 C   0  0  0  0  0  0  0  0  0  0  0  0
    6.9228  -13.7456   20.7116 C   0  0  0  0  0  0  0  0  0  0  0  0
    8.3653  -13.9648   21.0409 C   0  0  1  0  0  0  0  0  0  0  0  0
    8.5636  -14.8970   22.1820 C   0  0  0  0  0  0  0  0  0  0  0  0
    9.3511  -15.8597   22.1283 O   0  0  0  0  0  0  0  0  0  0  0  0
    7.5562  -14.6431   25.7553 C   0  0  0  0  0  0  0  0  0  0  0  0
    7.9692  -15.5118   24.5603 C   0  0  2  0  0  0  0  0  0  0  0  0
    7.8402  -14.7065   23.3921 N   0  0  0  0  0  0  0  0  0  0  0  0
    7.1875  -16.7643   24.5122 C   0  0  0  0  0  0  0  0  0  0  0  0
    7.6159  -17.7672   25.1414 O   0  0  0  0  0  0  0  0  0  0  0  0
    5.9774  -16.9084   23.7972 N   0  0  0  0  0  0  0  0  0  0  0  0
    5.8660  -17.6596   22.5609 C   0  0  0  0  0  0  0  0  0  0  0  0
    6.0353  -19.0855   22.8804 C   0  0  0  0  0  0  0  0  0  0  0  0
    7.1691  -19.6012   22.8082 O   0  0  0  0  0  0  0  0  0  0  0  0
    4.9623  -19.8553   23.2568 O   0  0  0  0  0  0  0  0  0  0  0  0
  1  2  1  0
  1  5  1  0
  2  3  1  0
  3  4  1  0
  5  6  1  1
  5  4  1  0
  6  7  2  0
  9  8  1  1
 10  9  1  0
 10  6  1  0
 11  9  1  0
 12 11  2  0
 13 11  1  0
 14 13  1  0
 15 17  1  0
 15 14  1  0
 16 15  2  0
M  END
$$$$
