PAG.pdb
     RDKit          3D

 17 17  0  0  1  0  0  0  0  0999 V2000
    7.4556  -15.1658   20.2232 N   0  0  0  0  0  0  0  0  0  0  0  0
    7.1858  -14.8647   18.8099 C   0  0  0  0  0  0  0  0  0  0  0  0
    7.2011  -13.3504   18.8296 C   0  0  0  0  0  0  0  0  0  0  0  0
    8.1634  -12.9745   19.9583 C   0  0  0  0  0  0  0  0  0  0  0  0
    8.5916  -14.3118   20.4736 C   0  0  1  0  0  0  0  0  0  0  0  0
    8.9605  -14.2864   21.9137 C   0  0  0  0  0  0  0  0  0  0  0  0
   10.0342  -13.8041   22.3192 O   0  0  0  0  0  0  0  0  0  0  0  0
    6.9018  -14.7592   24.9582 C   0  0  0  0  0  0  0  0  0  0  0  0
    8.2847  -14.7963   24.2951 C   0  0  2  0  0  0  0  0  0  0  0  0
    8.0735  -14.8258   22.8864 N   0  0  0  0  0  0  0  0  0  0  0  0
    9.0926  -15.9242   24.8022 C   0  0  0  0  0  0  0  0  0  0  0  0
    9.2985  -16.0094   26.0414 O   0  0  0  0  0  0  0  0  0  0  0  0
    9.6540  -16.9229   23.9754 N   0  0  0  0  0  0  0  0  0  0  0  0
   10.4018  -18.0556   24.4884 C   0  0  0  0  0  0  0  0  0  0  0  0
   11.7838  -17.9464   23.9961 C   0  0  0  0  0  0  0  0  0  0  0  0
   12.1602  -16.8896   23.4501 O   0  0  0  0  0  0  0  0  0  0  0  0
   12.6638  -18.9921   24.1298 O   0  0  0  0  0  0  0  0  0  0  0  0
  1  2  1  0
  1  5  1  0
  2  3  1  0
  3  4  1  0
  5  6  1  1
  5  4  1  0
  6  7  2  0
  9  8  1  1
 10  9  1  0
 10  6  1  0
 11  9  1  0
 12 11  2  0
 13 11  1  0
 14 13  1  0
 15 17  1  0
 15 14  1  0
 16 15  2  0
M  END
$$$$
