PAG.pdb
     RDKit          3D

 17 17  0  0  1  0  0  0  0  0999 V2000
    7.3884  -14.3658   20.0080 N   0  0  0  0  0  0  0  0  0  0  0  0
    7.1655  -13.0677   19.3551 C   0  0  0  0  0  0  0  0  0  0  0  0
    8.4238  -12.3248   19.7532 C   0  0  0  0  0  0  0  0  0  0  0  0
    9.4958  -13.4060   19.9054 C   0  0  0  0  0  0  0  0  0  0  0  0
    8.7382  -14.6559   19.5880 C   0  0  1  0  0  0  0  0  0  0  0  0
    9.2873  -15.8556   20.2734 C   0  0  0  0  0  0  0  0  0  0  0  0
    8.7032  -16.4067   21.2247 O   0  0  0  0  0  0  0  0  0  0  0  0
   11.7904  -18.3542   19.2920 C   0  0  0  0  0  0  0  0  0  0  0  0
   11.1548  -17.5511   20.4341 C   0  0  2  0  0  0  0  0  0  0  0  0
   10.5237  -16.4161   19.8479 N   0  0  0  0  0  0  0  0  0  0  0  0
   12.1510  -17.2122   21.4707 C   0  0  0  0  0  0  0  0  0  0  0  0
   12.8978  -18.1253   21.9110 O   0  0  0  0  0  0  0  0  0  0  0  0
   12.3199  -15.9148   22.0040 N   0  0  0  0  0  0  0  0  0  0  0  0
   13.3539  -15.5751   22.9636 C   0  0  0  0  0  0  0  0  0  0  0  0
   12.8790  -15.9678   24.2993 C   0  0  0  0  0  0  0  0  0  0  0  0
   11.7938  -16.5729   24.4126 O   0  0  0  0  0  0  0  0  0  0  0  0
   13.6143  -15.6770   25.4220 O   0  0  0  0  0  0  0  0  0  0  0  0
  1  2  1  0
  1  5  1  0
  2  3  1  0
  3  4  1  0
  5  6  1  1
  5  4  1  0
  6  7  2  0
  9  8  1  6
 10  9  1  0
 10  6  1  0
 11  9  1  0
 12 11  2  0
 13 11  1  0
 14 13  1  0
 15 17  1  0
 15 14  1  0
 16 15  2  0
M  END
$$$$
