PAG.pdb
     RDKit          3D

 17 17  0  0  1  0  0  0  0  0999 V2000
    9.3967  -15.1206   15.1735 N   0  0  0  0  0  0  0  0  0  0  0  0
    8.6195  -15.5236   13.9927 C   0  0  0  0  0  0  0  0  0  0  0  0
    7.6843  -16.5489   14.5990 C   0  0  0  0  0  0  0  0  0  0  0  0
    7.4899  -16.1047   16.0503 C   0  0  0  0  0  0  0  0  0  0  0  0
    8.3410  -14.8771   16.1268 C   0  0  1  0  0  0  0  0  0  0  0  0
    8.8728  -14.6254   17.4922 C   0  0  0  0  0  0  0  0  0  0  0  0
    9.9670  -15.0781   17.8763 O   0  0  0  0  0  0  0  0  0  0  0  0
    7.5006  -12.5527   20.3169 C   0  0  0  0  0  0  0  0  0  0  0  0
    8.5232  -13.5463   19.7508 C   0  0  2  0  0  0  0  0  0  0  0  0
    8.1253  -13.8420   18.4150 N   0  0  0  0  0  0  0  0  0  0  0  0
    8.6483  -14.7378   20.6149 C   0  0  0  0  0  0  0  0  0  0  0  0
    7.7645  -15.6316   20.5414 O   0  0  0  0  0  0  0  0  0  0  0  0
    9.7081  -14.9391   21.5273 N   0  0  0  0  0  0  0  0  0  0  0  0
    9.9321  -16.1907   22.2261 C   0  0  0  0  0  0  0  0  0  0  0  0
   11.1328  -16.0345   23.0617 C   0  0  0  0  0  0  0  0  0  0  0  0
   12.2061  -15.6777   22.5349 O   0  0  0  0  0  0  0  0  0  0  0  0
   11.0872  -16.2762   24.4126 O   0  0  0  0  0  0  0  0  0  0  0  0
  1  2  1  0
  1  5  1  0
  2  3  1  0
  3  4  1  0
  5  6  1  1
  5  4  1  0
  6  7  2  0
  9  8  1  1
 10  9  1  0
 10  6  1  0
 11  9  1  0
 12 11  2  0
 13 11  1  0
 14 13  1  0
 15 17  1  0
 15 14  1  0
 16 15  2  0
M  END
$$$$
