PAG.pdb
     RDKit          3D

 17 17  0  0  1  0  0  0  0  0999 V2000
    7.0561  -14.7871   20.7299 N   0  0  0  0  0  0  0  0  0  0  0  0
    7.0067  -14.4987   19.2894 C   0  0  0  0  0  0  0  0  0  0  0  0
    7.4236  -13.0428   19.2722 C   0  0  0  0  0  0  0  0  0  0  0  0
    8.3440  -12.8757   20.4831 C   0  0  0  0  0  0  0  0  0  0  0  0
    8.3509  -14.2501   21.0730 C   0  0  1  0  0  0  0  0  0  0  0  0
    8.5801  -14.2486   22.5420 C   0  0  0  0  0  0  0  0  0  0  0  0
    9.7129  -14.1145   23.0406 O   0  0  0  0  0  0  0  0  0  0  0  0
    6.5104  -13.5921   25.4505 C   0  0  0  0  0  0  0  0  0  0  0  0
    7.5873  -14.5060   24.8520 C   0  0  2  0  0  0  0  0  0  0  0  0
    7.4833  -14.4042   23.4347 N   0  0  0  0  0  0  0  0  0  0  0  0
    7.4636  -15.8866   25.3627 C   0  0  0  0  0  0  0  0  0  0  0  0
    6.3125  -16.3486   25.5791 O   0  0  0  0  0  0  0  0  0  0  0  0
    8.5669  -16.7289   25.6260 N   0  0  0  0  0  0  0  0  0  0  0  0
    8.4329  -18.0984   26.0860 C   0  0  0  0  0  0  0  0  0  0  0  0
    9.1604  -18.2221   27.3586 C   0  0  0  0  0  0  0  0  0  0  0  0
    9.5767  -17.1946   27.9310 O   0  0  0  0  0  0  0  0  0  0  0  0
    9.3869  -19.4529   27.9238 O   0  0  0  0  0  0  0  0  0  0  0  0
  1  2  1  0
  1  5  1  0
  2  3  1  0
  3  4  1  0
  5  6  1  1
  5  4  1  0
  6  7  2  0
  9  8  1  1
 10  9  1  0
 10  6  1  0
 11  9  1  0
 12 11  2  0
 13 11  1  0
 14 13  1  0
 15 17  1  0
 15 14  1  0
 16 15  2  0
M  END
$$$$
