PAG.pdb
     RDKit          3D

 17 17  0  0  1  0  0  0  0  0999 V2000
    9.0714  -13.7462   19.3950 N   0  0  0  0  0  0  0  0  0  0  0  0
    8.3177  -13.3323   18.2027 C   0  0  0  0  0  0  0  0  0  0  0  0
    7.0058  -14.0555   18.4254 C   0  0  0  0  0  0  0  0  0  0  0  0
    6.8573  -14.1566   19.9450 C   0  0  0  0  0  0  0  0  0  0  0  0
    8.1035  -13.4896   20.4342 C   0  0  1  0  0  0  0  0  0  0  0  0
    8.5559  -14.0041   21.7538 C   0  0  0  0  0  0  0  0  0  0  0  0
    9.5116  -14.7933   21.8705 O   0  0  0  0  0  0  0  0  0  0  0  0
    7.2503  -13.3401   25.2225 C   0  0  0  0  0  0  0  0  0  0  0  0
    8.2152  -14.0413   24.2579 C   0  0  2  0  0  0  0  0  0  0  0  0
    7.8909  -13.5968   22.9436 N   0  0  0  0  0  0  0  0  0  0  0  0
    8.1657  -15.5085   24.4218 C   0  0  0  0  0  0  0  0  0  0  0  0
    7.1133  -16.1169   24.0936 O   0  0  0  0  0  0  0  0  0  0  0  0
    9.2359  -16.2792   24.9288 N   0  0  0  0  0  0  0  0  0  0  0  0
    9.1790  -17.7211   25.0800 C   0  0  0  0  0  0  0  0  0  0  0  0
   10.4645  -18.1692   25.6374 C   0  0  0  0  0  0  0  0  0  0  0  0
   10.6461  -19.3824   25.8655 O   0  0  0  0  0  0  0  0  0  0  0  0
   11.4660  -17.2701   25.9096 O   0  0  0  0  0  0  0  0  0  0  0  0
  1  2  1  0
  1  5  1  0
  2  3  1  0
  3  4  1  0
  5  6  1  1
  5  4  1  0
  6  7  2  0
  9  8  1  1
 10  9  1  0
 10  6  1  0
 11  9  1  0
 12 11  2  0
 13 11  1  0
 14 13  1  0
 15 17  1  0
 15 14  1  0
 16 15  2  0
M  END
$$$$
