PAG.pdb
     RDKit          3D

 17 17  0  0  1  0  0  0  0  0999 V2000
    7.6344  -14.5324   19.1625 N   0  0  0  0  0  0  0  0  0  0  0  0
    7.9045  -13.7092   17.9750 C   0  0  0  0  0  0  0  0  0  0  0  0
    8.4083  -12.4334   18.6168 C   0  0  0  0  0  0  0  0  0  0  0  0
    9.0653  -12.8762   19.9259 C   0  0  0  0  0  0  0  0  0  0  0  0
    8.8613  -14.3577   19.9021 C   0  0  1  0  0  0  0  0  0  0  0  0
    8.7794  -14.9528   21.2622 C   0  0  0  0  0  0  0  0  0  0  0  0
    7.8912  -14.6386   22.0759 O   0  0  0  0  0  0  0  0  0  0  0  0
    9.4069  -17.9566   22.8633 C   0  0  0  0  0  0  0  0  0  0  0  0
    9.8217  -16.4845   22.9814 C   0  0  2  0  0  0  0  0  0  0  0  0
    9.7378  -15.9193   21.6762 N   0  0  0  0  0  0  0  0  0  0  0  0
   11.1535  -16.3509   23.6061 C   0  0  0  0  0  0  0  0  0  0  0  0
   11.2646  -16.5670   24.8416 O   0  0  0  0  0  0  0  0  0  0  0  0
   12.3218  -15.9922   22.8970 N   0  0  0  0  0  0  0  0  0  0  0  0
   13.6233  -15.8522   23.5228 C   0  0  0  0  0  0  0  0  0  0  0  0
   14.5802  -15.4296   22.4884 C   0  0  0  0  0  0  0  0  0  0  0  0
   14.1933  -15.2999   21.3093 O   0  0  0  0  0  0  0  0  0  0  0  0
   15.8924  -15.1764   22.8039 O   0  0  0  0  0  0  0  0  0  0  0  0
  1  2  1  0
  1  5  1  0
  2  3  1  0
  3  4  1  0
  5  6  1  1
  5  4  1  0
  6  7  2  0
  9  8  1  6
 10  9  1  0
 10  6  1  0
 11  9  1  0
 12 11  2  0
 13 11  1  0
 14 13  1  0
 15 17  1  0
 15 14  1  0
 16 15  2  0
M  END
$$$$
