PAG.pdb
     RDKit          3D

 17 17  0  0  1  0  0  0  0  0999 V2000
    8.8922  -13.4502   18.9352 N   0  0  0  0  0  0  0  0  0  0  0  0
    8.0231  -13.1941   17.7777 C   0  0  0  0  0  0  0  0  0  0  0  0
    6.9974  -14.2968   17.9375 C   0  0  0  0  0  0  0  0  0  0  0  0
    6.9192  -14.5555   19.4436 C   0  0  0  0  0  0  0  0  0  0  0  0
    7.9146  -13.5812   19.9886 C   0  0  1  0  0  0  0  0  0  0  0  0
    8.5298  -14.0344   21.2641 C   0  0  0  0  0  0  0  0  0  0  0  0
    9.6421  -14.5917   21.3076 O   0  0  0  0  0  0  0  0  0  0  0  0
    7.3090  -13.7519   24.8138 C   0  0  0  0  0  0  0  0  0  0  0  0
    8.3183  -14.2534   23.7731 C   0  0  2  0  0  0  0  0  0  0  0  0
    7.8451  -13.8369   22.4954 N   0  0  0  0  0  0  0  0  0  0  0  0
    8.5266  -15.7114   23.8871 C   0  0  0  0  0  0  0  0  0  0  0  0
    7.6191  -16.4839   23.4809 O   0  0  0  0  0  0  0  0  0  0  0  0
    9.6919  -16.2988   24.4287 N   0  0  0  0  0  0  0  0  0  0  0  0
    9.9355  -17.7291   24.4342 C   0  0  0  0  0  0  0  0  0  0  0  0
   11.1904  -17.9721   25.1623 C   0  0  0  0  0  0  0  0  0  0  0  0
   12.1702  -17.2252   24.9648 O   0  0  0  0  0  0  0  0  0  0  0  0
   11.2970  -19.0095   26.0556 O   0  0  0  0  0  0  0  0  0  0  0  0
  1  2  1  0
  1  5  1  0
  2  3  1  0
  3  4  1  0
  5  6  1  1
  5  4  1  0
  6  7  2  0
  9  8  1  1
 10  9  1  0
 10  6  1  0
 11  9  1  0
 12 11  2  0
 13 11  1  0
 14 13  1  0
 15 17  1  0
 15 14  1  0
 16 15  2  0
M  END
$$$$
