AGQ.pdb
     RDKit          3D

 19 18  0  0  1  0  0  0  0  0999 V2000
    7.3033  -12.6984   19.0967 C   0  0  0  0  0  0  0  0  0  0  0  0
    8.6820  -13.2249   19.4300 C   0  0  2  0  0  0  0  0  0  0  0  0
    9.2138  -13.9401   18.2878 N   0  0  0  0  0  0  0  0  0  0  0  0
    8.5899  -14.1463   20.6163 C   0  0  0  0  0  0  0  0  0  0  0  0
    8.1478  -13.6480   21.6834 O   0  0  0  0  0  0  0  0  0  0  0  0
    8.9922  -15.4815   20.4749 N   0  0  0  0  0  0  0  0  0  0  0  0
    8.7831  -16.4120   21.5411 C   0  0  0  0  0  0  0  0  0  0  0  0
    9.7268  -16.1806   22.6755 C   0  0  0  0  0  0  0  0  0  0  0  0
   10.9428  -16.1216   22.4231 O   0  0  0  0  0  0  0  0  0  0  0  0
   10.5958  -14.2705   29.8897 N   0  0  0  0  0  0  0  0  0  0  0  0
    9.8459  -14.3478   28.6860 C   0  0  0  0  0  0  0  0  0  0  0  0
    8.6745  -13.8647   28.7102 O   0  0  0  0  0  0  0  0  0  0  0  0
   10.4735  -14.9714   27.5045 C   0  0  0  0  0  0  0  0  0  0  0  0
    9.6155  -15.1423   26.3147 C   0  0  0  0  0  0  0  0  0  0  0  0
   10.1910  -15.8279   25.1253 C   0  0  2  0  0  0  0  0  0  0  0  0
    9.2919  -16.0280   24.0115 N   0  0  0  0  0  0  0  0  0  0  0  0
   10.8847  -17.0914   25.4864 C   0  0  0  0  0  0  0  0  0  0  0  0
   12.0947  -17.0693   25.7836 O   0  0  0  0  0  0  0  0  0  0  0  0
   10.2016  -18.2856   25.4953 O   0  0  0  0  0  0  0  0  0  0  0  0
  2  1  1  6
  2  3  1  0
  4  2  1  0
  4  5  2  0
  6  4  1  0
  7  8  1  0
  7  6  1  0
  8 16  1  0
  9  8  2  0
 10 11  1  0
 11 13  1  0
 12 11  2  0
 13 14  1  0
 15 14  1  1
 15 17  1  0
 16 15  1  0
 17 18  2  0
 17 19  1  0
M  END
$$$$
