AGQ.pdb
     RDKit          3D

 19 18  0  0  1  0  0  0  0  0999 V2000
    6.6987  -13.4100   21.6839 C   0  0  0  0  0  0  0  0  0  0  0  0
    7.8037  -14.4433   21.7090 C   0  0  2  0  0  0  0  0  0  0  0  0
    8.8508  -14.0071   22.6102 N   0  0  0  0  0  0  0  0  0  0  0  0
    8.3581  -14.6134   20.3204 C   0  0  0  0  0  0  0  0  0  0  0  0
    7.6109  -15.1787   19.4810 O   0  0  0  0  0  0  0  0  0  0  0  0
    9.6487  -14.1442   20.0398 N   0  0  0  0  0  0  0  0  0  0  0  0
   10.2036  -14.3058   18.7312 C   0  0  0  0  0  0  0  0  0  0  0  0
   11.5864  -14.8686   18.7782 C   0  0  0  0  0  0  0  0  0  0  0  0
   12.1092  -15.2281   17.7089 O   0  0  0  0  0  0  0  0  0  0  0  0
   16.2951  -14.0725   16.4074 N   0  0  0  0  0  0  0  0  0  0  0  0
   16.2096  -14.0020   17.8234 C   0  0  0  0  0  0  0  0  0  0  0  0
   17.3006  -14.0600   18.4656 O   0  0  0  0  0  0  0  0  0  0  0  0
   14.8766  -13.8630   18.4419 C   0  0  0  0  0  0  0  0  0  0  0  0
   14.7230  -14.4048   19.8072 C   0  0  0  0  0  0  0  0  0  0  0  0
   13.6885  -15.4502   20.0367 C   0  0  2  0  0  0  0  0  0  0  0  0
   12.3144  -15.0059   19.9818 N   0  0  0  0  0  0  0  0  0  0  0  0
   13.9480  -16.2354   21.2714 C   0  0  0  0  0  0  0  0  0  0  0  0
   13.1017  -16.2468   22.1861 O   0  0  0  0  0  0  0  0  0  0  0  0
   15.1152  -16.9499   21.4126 O   0  0  0  0  0  0  0  0  0  0  0  0
  2  1  1  6
  2  3  1  0
  4  2  1  0
  4  5  2  0
  6  4  1  0
  7  8  1  0
  7  6  1  0
  8 16  1  0
  9  8  2  0
 10 11  1  0
 11 13  1  0
 12 11  2  0
 13 14  1  0
 15 14  1  1
 15 17  1  0
 16 15  1  0
 17 18  2  0
 17 19  1  0
M  END
$$$$
