AGQ.pdb
     RDKit          3D

 19 18  0  0  1  0  0  0  0  0999 V2000
    8.5977  -12.1063   19.8100 C   0  0  0  0  0  0  0  0  0  0  0  0
    8.3403  -13.4831   19.2379 C   0  0  2  0  0  0  0  0  0  0  0  0
    7.1355  -13.4532   18.4339 N   0  0  0  0  0  0  0  0  0  0  0  0
    8.1828  -14.4689   20.3640 C   0  0  0  0  0  0  0  0  0  0  0  0
    7.0178  -14.6343   20.8089 O   0  0  0  0  0  0  0  0  0  0  0  0
    9.3158  -15.1369   20.8481 N   0  0  0  0  0  0  0  0  0  0  0  0
    9.1780  -16.1642   21.8341 C   0  0  0  0  0  0  0  0  0  0  0  0
    9.4461  -15.6534   23.2119 C   0  0  0  0  0  0  0  0  0  0  0  0
   10.5849  -15.2245   23.4664 O   0  0  0  0  0  0  0  0  0  0  0  0
    5.5217  -12.8250   27.2215 N   0  0  0  0  0  0  0  0  0  0  0  0
    6.3799  -12.1917   26.2835 C   0  0  0  0  0  0  0  0  0  0  0  0
    6.1636  -10.9654   26.0478 O   0  0  0  0  0  0  0  0  0  0  0  0
    7.4528  -12.9908   25.6598 C   0  0  0  0  0  0  0  0  0  0  0  0
    7.6608  -14.3503   26.1979 C   0  0  0  0  0  0  0  0  0  0  0  0
    8.7159  -15.1981   25.5785 C   0  0  2  0  0  0  0  0  0  0  0  0
    8.4619  -15.6402   24.2262 N   0  0  0  0  0  0  0  0  0  0  0  0
    9.1041  -16.3375   26.4499 C   0  0  0  0  0  0  0  0  0  0  0  0
    9.5901  -16.1170   27.5760 O   0  0  0  0  0  0  0  0  0  0  0  0
    8.9313  -17.6339   26.0232 O   0  0  0  0  0  0  0  0  0  0  0  0
  2  1  1  1
  2  3  1  0
  4  2  1  0
  4  5  2  0
  6  4  1  0
  7  8  1  0
  7  6  1  0
  8 16  1  0
  9  8  2  0
 10 11  1  0
 11 13  1  0
 12 11  2  0
 13 14  1  0
 15 14  1  1
 15 17  1  0
 16 15  1  0
 17 18  2  0
 17 19  1  0
M  END
$$$$
