AGQ.pdb
     RDKit          3D

 19 18  0  0  1  0  0  0  0  0999 V2000
    7.4903  -12.5651   19.3439 C   0  0  0  0  0  0  0  0  0  0  0  0
    8.8187  -13.1457   19.7767 C   0  0  2  0  0  0  0  0  0  0  0  0
    9.4130  -13.8671   18.6698 N   0  0  0  0  0  0  0  0  0  0  0  0
    8.6006  -14.0763   20.9391 C   0  0  0  0  0  0  0  0  0  0  0  0
    8.0418  -13.5874   21.9547 O   0  0  0  0  0  0  0  0  0  0  0  0
    9.0213  -15.4090   20.8333 N   0  0  0  0  0  0  0  0  0  0  0  0
    8.7521  -16.3340   21.8907 C   0  0  0  0  0  0  0  0  0  0  0  0
    9.7001  -16.1659   23.0327 C   0  0  0  0  0  0  0  0  0  0  0  0
   10.7990  -15.6296   22.8077 O   0  0  0  0  0  0  0  0  0  0  0  0
    9.0211  -13.5883   28.3817 N   0  0  0  0  0  0  0  0  0  0  0  0
   10.1468  -14.3793   28.7344 C   0  0  0  0  0  0  0  0  0  0  0  0
   10.7387  -14.0817   29.8147 O   0  0  0  0  0  0  0  0  0  0  0  0
   10.5424  -15.4809   27.8352 C   0  0  0  0  0  0  0  0  0  0  0  0
    9.6822  -15.7125   26.6573 C   0  0  0  0  0  0  0  0  0  0  0  0
   10.2782  -16.3898   25.4734 C   0  0  2  0  0  0  0  0  0  0  0  0
    9.3961  -16.5900   24.3461 N   0  0  0  0  0  0  0  0  0  0  0  0
   10.9737  -17.6510   25.8390 C   0  0  0  0  0  0  0  0  0  0  0  0
   10.3915  -18.7430   25.6925 O   0  0  0  0  0  0  0  0  0  0  0  0
   12.2555  -17.6227   26.3380 O   0  0  0  0  0  0  0  0  0  0  0  0
  2  1  1  6
  2  3  1  0
  4  2  1  0
  4  5  2  0
  6  4  1  0
  7  8  1  0
  7  6  1  0
  8 16  1  0
  9  8  2  0
 10 11  1  0
 11 13  1  0
 12 11  2  0
 13 14  1  0
 15 14  1  1
 15 17  1  0
 16 15  1  0
 17 18  2  0
 17 19  1  0
M  END
$$$$
