AGQ.pdb
     RDKit          3D

 19 18  0  0  1  0  0  0  0  0999 V2000
    8.1960  -12.4341   19.6295 C   0  0  0  0  0  0  0  0  0  0  0  0
    7.8384  -13.8728   19.3268 C   0  0  2  0  0  0  0  0  0  0  0  0
    6.4210  -14.0739   19.5486 N   0  0  0  0  0  0  0  0  0  0  0  0
    8.6336  -14.7829   20.2236 C   0  0  0  0  0  0  0  0  0  0  0  0
    9.8703  -14.8507   20.0033 O   0  0  0  0  0  0  0  0  0  0  0  0
    7.9709  -15.4918   21.2350 N   0  0  0  0  0  0  0  0  0  0  0  0
    8.6933  -16.4094   22.0613 C   0  0  0  0  0  0  0  0  0  0  0  0
    9.1862  -15.7618   23.3138 C   0  0  0  0  0  0  0  0  0  0  0  0
   10.0560  -14.8792   23.2137 O   0  0  0  0  0  0  0  0  0  0  0  0
    5.7474  -11.8476   25.6619 N   0  0  0  0  0  0  0  0  0  0  0  0
    6.5980  -12.7021   26.4125 C   0  0  0  0  0  0  0  0  0  0  0  0
    6.5856  -12.5586   27.6716 O   0  0  0  0  0  0  0  0  0  0  0  0
    7.4227  -13.6882   25.6872 C   0  0  0  0  0  0  0  0  0  0  0  0
    8.2470  -14.5937   26.5128 C   0  0  0  0  0  0  0  0  0  0  0  0
    9.1874  -15.5164   25.8200 C   0  0  2  0  0  0  0  0  0  0  0  0
    8.7044  -16.1127   24.5953 N   0  0  0  0  0  0  0  0  0  0  0  0
    9.7389  -16.5482   26.7362 C   0  0  0  0  0  0  0  0  0  0  0  0
    9.5537  -17.7558   26.4904 O   0  0  0  0  0  0  0  0  0  0  0  0
   10.4523  -16.1809   27.8537 O   0  0  0  0  0  0  0  0  0  0  0  0
  2  1  1  1
  2  3  1  0
  4  2  1  0
  4  5  2  0
  6  4  1  0
  7  8  1  0
  7  6  1  0
  8 16  1  0
  9  8  2  0
 10 11  1  0
 11 13  1  0
 12 11  2  0
 13 14  1  0
 15 14  1  1
 15 17  1  0
 16 15  1  0
 17 18  2  0
 17 19  1  0
M  END
$$$$
