AGQ.pdb
     RDKit          3D

 19 18  0  0  1  0  0  0  0  0999 V2000
    9.5005  -17.7514   17.7896 C   0  0  0  0  0  0  0  0  0  0  0  0
   10.0544  -17.2547   19.1071 C   0  0  2  0  0  0  0  0  0  0  0  0
   10.9431  -18.2543   19.6637 N   0  0  0  0  0  0  0  0  0  0  0  0
    8.9177  -16.9908   20.0574 C   0  0  0  0  0  0  0  0  0  0  0  0
    8.1286  -16.0615   19.7473 O   0  0  0  0  0  0  0  0  0  0  0  0
    8.7992  -17.7757   21.2126 N   0  0  0  0  0  0  0  0  0  0  0  0
    7.7129  -17.5620   22.1185 C   0  0  0  0  0  0  0  0  0  0  0  0
    8.0316  -16.5131   23.1330 C   0  0  0  0  0  0  0  0  0  0  0  0
    9.1821  -16.0420   23.1469 O   0  0  0  0  0  0  0  0  0  0  0  0
    6.5120  -11.8939   24.9506 N   0  0  0  0  0  0  0  0  0  0  0  0
    6.7099  -12.1314   26.3368 C   0  0  0  0  0  0  0  0  0  0  0  0
    7.0899  -11.1459   27.0372 O   0  0  0  0  0  0  0  0  0  0  0  0
    6.4585  -13.4880   26.8614 C   0  0  0  0  0  0  0  0  0  0  0  0
    6.2188  -14.5481   25.8615 C   0  0  0  0  0  0  0  0  0  0  0  0
    7.3791  -15.0473   25.0738 C   0  0  2  0  0  0  0  0  0  0  0  0
    7.0823  -16.0418   24.0680 N   0  0  0  0  0  0  0  0  0  0  0  0
    8.5018  -15.4845   25.9435 C   0  0  0  0  0  0  0  0  0  0  0  0
    9.3527  -14.6548   26.3185 O   0  0  0  0  0  0  0  0  0  0  0  0
    8.6094  -16.7981   26.3381 O   0  0  0  0  0  0  0  0  0  0  0  0
  2  1  1  6
  2  3  1  0
  4  2  1  0
  4  5  2  0
  6  4  1  0
  7  8  1  0
  7  6  1  0
  8 16  1  0
  9  8  2  0
 10 11  1  0
 11 13  1  0
 12 11  2  0
 13 14  1  0
 15 14  1  1
 15 17  1  0
 16 15  1  0
 17 18  2  0
 17 19  1  0
M  END
$$$$
