PRP.pdb
     RDKit          3D

 26 27  0  0  1  0  0  0  0  0999 V2000
   21.3912  -20.0865  -16.0717 N   0  0  0  0  0  0  0  0  0  0  0  0
   20.0648  -20.5587  -15.7896 C   0  0  0  0  0  0  0  0  0  0  0  0
   19.3862  -19.5311  -14.9160 C   0  0  0  0  0  0  0  0  0  0  0  0
   20.5879  -18.7372  -14.3867 C   0  0  0  0  0  0  0  0  0  0  0  0
   21.4921  -18.7336  -15.5653 C   0  0  1  0  0  0  0  0  0  0  0  0
   22.8834  -18.3484  -15.3055 C   0  0  0  0  0  0  0  0  0  0  0  0
   23.1327  -17.3187  -14.5911 O   0  0  0  0  0  0  0  0  0  0  0  0
   24.6016  -20.5524   -8.6641 N   0  0  0  0  0  0  0  0  0  0  0  0
   23.8087  -20.6644   -9.8358 C   0  0  0  0  0  0  0  0  0  0  0  0
   22.5148  -20.7742   -9.7271 N   0  0  0  0  0  0  0  0  0  0  0  0
   24.3456  -20.6646  -11.1468 N   0  0  0  0  0  0  0  0  0  0  0  0
   25.7230  -20.3364  -11.4319 C   0  0  0  0  0  0  0  0  0  0  0  0
   26.0456  -20.3796  -12.9043 C   0  0  0  0  0  0  0  0  0  0  0  0
   24.8138  -20.0273  -13.6941 C   0  0  0  0  0  0  0  0  0  0  0  0
   25.1628  -19.3741  -15.0216 C   0  0  2  0  0  0  0  0  0  0  0  0
   24.0193  -19.0427  -15.7929 N   0  0  0  0  0  0  0  0  0  0  0  0
   26.1926  -20.2102  -15.6666 C   0  0  0  0  0  0  0  0  0  0  0  0
   25.7427  -21.3756  -16.0121 O   0  0  0  0  0  0  0  0  0  0  0  0
   21.8873  -20.8757  -10.5308 N   0  0  0  0  0  0  0  0  0  0  0  0
   27.5189  -19.9407  -15.9434 C   0  0  0  0  0  0  0  0  0  0  0  0
   28.4146  -18.9826  -15.3672 C   0  0  0  0  0  0  0  0  0  0  0  0
   29.1245  -18.4791  -16.6405 C   0  0  0  0  0  0  0  0  0  0  0  0
   29.4670  -19.7731  -17.3077 C   0  0  2  0  0  0  0  0  0  0  0  0
   28.3122  -20.6539  -16.9641 C   0  0  0  0  0  0  0  0  0  0  0  0
   28.7339  -21.9763  -16.4368 O   0  0  0  0  0  0  0  0  0  0  0  0
   29.3012  -22.8779  -17.2979 O   0  0  0  0  0  0  0  0  0  0  0  0
  1  2  1  0
  3  2  1  0
  4  5  1  0
  4  3  1  0
  5  1  1  0
  5  6  1  1
  6  7  2  0
  8  9  1  0
  9 11  1  0
 10  9  2  0
 11 12  1  0
 12 13  1  0
 15 14  1  1
 14 13  1  0
 15 16  1  0
 16  6  1  0
 17 15  1  0
 18 17  2  0
 19 20  1  0
 19 17  1  0
 21 20  1  0
 22 23  1  0
 22 21  1  0
 23 19  1  0
 24 25  1  0
 23 24  1  1
 26 24  2  0
M  END
$$$$
