PRP.pdb
     RDKit          3D

 26 27  0  0  1  0  0  0  0  0999 V2000
   20.2142  -18.4247  -17.9868 N   0  0  0  0  0  0  0  0  0  0  0  0
   18.9185  -18.0663  -18.4912 C   0  0  0  0  0  0  0  0  0  0  0  0
   18.7693  -16.5700  -18.3558 C   0  0  0  0  0  0  0  0  0  0  0  0
   19.8653  -16.2441  -17.3324 C   0  0  0  0  0  0  0  0  0  0  0  0
   20.9360  -17.1979  -17.7204 C   0  0  1  0  0  0  0  0  0  0  0  0
   22.0069  -17.3949  -16.7376 C   0  0  0  0  0  0  0  0  0  0  0  0
   22.7118  -16.3980  -16.3605 O   0  0  0  0  0  0  0  0  0  0  0  0
   18.3725  -21.2030  -12.9295 N   0  0  0  0  0  0  0  0  0  0  0  0
   19.0788  -20.6852  -11.8127 C   0  0  0  0  0  0  0  0  0  0  0  0
   18.4150  -20.2446  -10.7816 N   0  0  0  0  0  0  0  0  0  0  0  0
   20.4921  -20.6147  -11.7449 N   0  0  0  0  0  0  0  0  0  0  0  0
   21.3521  -21.0164  -12.8337 C   0  0  0  0  0  0  0  0  0  0  0  0
   21.6192  -19.9025  -13.8143 C   0  0  0  0  0  0  0  0  0  0  0  0
   23.0800  -19.8985  -14.1770 C   0  0  0  0  0  0  0  0  0  0  0  0
   23.3990  -18.8402  -15.2204 C   0  0  2  0  0  0  0  0  0  0  0  0
   22.3422  -18.6384  -16.1451 N   0  0  0  0  0  0  0  0  0  0  0  0
   24.7293  -19.1547  -15.7743 C   0  0  0  0  0  0  0  0  0  0  0  0
   24.6664  -19.9340  -16.8081 O   0  0  0  0  0  0  0  0  0  0  0  0
   18.8633  -19.8766   -9.9368 N   0  0  0  0  0  0  0  0  0  0  0  0
   25.9862  -18.7547  -15.3640 C   0  0  0  0  0  0  0  0  0  0  0  0
   26.3989  -18.0298  -14.1993 C   0  0  0  0  0  0  0  0  0  0  0  0
   27.4400  -17.0814  -14.8283 C   0  0  0  0  0  0  0  0  0  0  0  0
   28.2435  -18.0411  -15.6468 C   0  0  2  0  0  0  0  0  0  0  0  0
   27.2277  -19.0295  -16.1144 C   0  0  0  0  0  0  0  0  0  0  0  0
   27.6474  -20.4360  -15.8903 O   0  0  0  0  0  0  0  0  0  0  0  0
   28.6733  -20.9446  -16.6420 O   0  0  0  0  0  0  0  0  0  0  0  0
  1  2  1  0
  3  2  1  0
  4  5  1  0
  4  3  1  0
  5  1  1  0
  5  6  1  1
  6  7  2  0
  8  9  1  0
  9 11  1  0
 10  9  2  0
 11 12  1  0
 12 13  1  0
 15 14  1  1
 14 13  1  0
 15 16  1  0
 16  6  1  0
 17 15  1  0
 18 17  2  0
 19 20  1  0
 19 17  1  0
 21 20  1  0
 22 23  1  0
 22 21  1  0
 23 19  1  0
 24 25  1  0
 23 24  1  1
 26 24  2  0
M  END
$$$$
