PRP.pdb
     RDKit          3D

 26 27  0  0  1  0  0  0  0  0999 V2000
   27.6696  -19.5229  -17.5030 N   0  0  0  0  0  0  0  0  0  0  0  0
   28.2161  -19.2179  -18.7953 C   0  0  0  0  0  0  0  0  0  0  0  0
   27.8339  -17.7969  -19.1332 C   0  0  0  0  0  0  0  0  0  0  0  0
   26.6764  -17.5504  -18.1567 C   0  0  0  0  0  0  0  0  0  0  0  0
   27.1294  -18.2964  -16.9546 C   0  0  1  0  0  0  0  0  0  0  0  0
   26.1055  -18.5559  -15.9369 C   0  0  0  0  0  0  0  0  0  0  0  0
   25.6896  -17.5995  -15.1984 O   0  0  0  0  0  0  0  0  0  0  0  0
   19.8845  -22.8515  -11.9490 N   0  0  0  0  0  0  0  0  0  0  0  0
   19.5543  -22.9661  -13.3244 C   0  0  0  0  0  0  0  0  0  0  0  0
   18.3376  -23.2814  -13.6682 N   0  0  0  0  0  0  0  0  0  0  0  0
   20.4838  -22.7549  -14.3725 N   0  0  0  0  0  0  0  0  0  0  0  0
   21.9073  -22.6506  -14.1512 C   0  0  0  0  0  0  0  0  0  0  0  0
   22.3920  -21.2236  -14.1007 C   0  0  0  0  0  0  0  0  0  0  0  0
   23.4403  -21.0164  -15.1606 C   0  0  0  0  0  0  0  0  0  0  0  0
   24.5420  -20.0813  -14.6889 C   0  0  2  0  0  0  0  0  0  0  0  0
   25.5123  -19.8197  -15.6902 N   0  0  0  0  0  0  0  0  0  0  0  0
   25.0294  -20.5928  -13.3942 C   0  0  0  0  0  0  0  0  0  0  0  0
   25.7492  -21.6632  -13.5211 O   0  0  0  0  0  0  0  0  0  0  0  0
   18.0543  -23.4669  -14.6353 N   0  0  0  0  0  0  0  0  0  0  0  0
   24.8349  -20.1140  -12.1131 C   0  0  0  0  0  0  0  0  0  0  0  0
   24.0555  -19.0090  -11.6400 C   0  0  0  0  0  0  0  0  0  0  0  0
   25.0271  -18.4228  -10.5955 C   0  0  0  0  0  0  0  0  0  0  0  0
   25.4219  -19.6565   -9.8480 C   0  0  2  0  0  0  0  0  0  0  0  0
   25.4441  -20.7083  -10.9066 C   0  0  0  0  0  0  0  0  0  0  0  0
   24.6968  -21.9312  -10.5187 O   0  0  0  0  0  0  0  0  0  0  0  0
   25.2599  -22.7859   -9.6084 O   0  0  0  0  0  0  0  0  0  0  0  0
  1  2  1  0
  3  2  1  0
  4  5  1  0
  4  3  1  0
  5  1  1  0
  5  6  1  1
  6  7  2  0
  8  9  1  0
  9 11  1  0
 10  9  2  0
 11 12  1  0
 12 13  1  0
 15 14  1  6
 14 13  1  0
 15 16  1  0
 16  6  1  0
 17 15  1  0
 18 17  2  0
 19 20  1  0
 19 17  1  0
 21 20  1  0
 22 23  1  0
 22 21  1  0
 23 19  1  0
 24 25  1  0
 23 24  1  1
 26 24  2  0
M  END
$$$$
