PRP.pdb
     RDKit          3D

 26 27  0  0  1  0  0  0  0  0999 V2000
   27.0488  -21.9659  -13.0110 N   0  0  0  0  0  0  0  0  0  0  0  0
   26.7748  -22.2039  -14.4002 C   0  0  0  0  0  0  0  0  0  0  0  0
   27.0769  -20.9311  -15.1540 C   0  0  0  0  0  0  0  0  0  0  0  0
   27.0742  -19.8961  -14.0211 C   0  0  0  0  0  0  0  0  0  0  0  0
   27.6795  -20.6667  -12.9046 C   0  0  1  0  0  0  0  0  0  0  0  0
   27.5207  -20.0888  -11.5659 C   0  0  0  0  0  0  0  0  0  0  0  0
   28.1341  -19.0088  -11.2654 O   0  0  0  0  0  0  0  0  0  0  0  0
   21.9389  -19.1564  -12.5673 N   0  0  0  0  0  0  0  0  0  0  0  0
   21.7905  -20.5384  -12.2810 C   0  0  0  0  0  0  0  0  0  0  0  0
   21.6335  -21.3835  -13.2604 N   0  0  0  0  0  0  0  0  0  0  0  0
   21.8021  -21.0712  -10.9683 N   0  0  0  0  0  0  0  0  0  0  0  0
   22.6174  -20.5280   -9.9070 C   0  0  0  0  0  0  0  0  0  0  0  0
   24.0853  -20.4951  -10.2505 C   0  0  0  0  0  0  0  0  0  0  0  0
   24.8662  -20.0251   -9.0528 C   0  0  0  0  0  0  0  0  0  0  0  0
   26.3584  -19.9724   -9.3379 C   0  0  2  0  0  0  0  0  0  0  0  0
   26.7167  -20.6406  -10.5369 N   0  0  0  0  0  0  0  0  0  0  0  0
   27.0571  -20.3790   -8.1042 C   0  0  0  0  0  0  0  0  0  0  0  0
   27.1626  -21.6660   -7.9932 O   0  0  0  0  0  0  0  0  0  0  0  0
   21.4769  -22.3865  -13.1209 N   0  0  0  0  0  0  0  0  0  0  0  0
   27.5937  -19.6139   -7.0868 C   0  0  0  0  0  0  0  0  0  0  0  0
   27.6236  -18.1930   -6.9064 C   0  0  0  0  0  0  0  0  0  0  0  0
   29.0680  -18.0178   -6.3946 C   0  0  0  0  0  0  0  0  0  0  0  0
   29.1299  -19.0798   -5.3434 C   0  0  2  0  0  0  0  0  0  0  0  0
   28.2851  -20.1729   -5.9081 C   0  0  0  0  0  0  0  0  0  0  0  0
   27.2852  -20.6870   -4.9382 O   0  0  0  0  0  0  0  0  0  0  0  0
   27.7255  -21.3988   -3.8538 O   0  0  0  0  0  0  0  0  0  0  0  0
  1  2  1  0
  3  2  1  0
  4  5  1  0
  4  3  1  0
  5  1  1  0
  5  6  1  1
  6  7  2  0
  8  9  1  0
  9 11  1  0
 10  9  2  0
 11 12  1  0
 12 13  1  0
 15 14  1  1
 14 13  1  0
 15 16  1  0
 16  6  1  0
 17 15  1  0
 18 17  2  0
 19 20  1  0
 19 17  1  0
 21 20  1  0
 22 23  1  0
 22 21  1  0
 23 19  1  0
 24 25  1  0
 23 24  1  1
 26 24  2  0
M  END
$$$$
