PRP.pdb
     RDKit          3D

 26 27  0  0  1  0  0  0  0  0999 V2000
   19.9270  -19.2232  -15.1113 N   0  0  0  0  0  0  0  0  0  0  0  0
   18.8196  -18.8228  -15.9331 C   0  0  0  0  0  0  0  0  0  0  0  0
   18.9422  -19.5436  -17.2541 C   0  0  0  0  0  0  0  0  0  0  0  0
   20.4154  -19.9720  -17.2340 C   0  0  0  0  0  0  0  0  0  0  0  0
   20.6181  -20.2944  -15.7981 C   0  0  1  0  0  0  0  0  0  0  0  0
   22.0121  -20.4171  -15.3586 C   0  0  0  0  0  0  0  0  0  0  0  0
   22.5660  -21.5681  -15.3225 O   0  0  0  0  0  0  0  0  0  0  0  0
   26.0773  -14.9813  -16.2055 N   0  0  0  0  0  0  0  0  0  0  0  0
   26.9436  -15.9872  -16.7072 C   0  0  0  0  0  0  0  0  0  0  0  0
   27.2376  -16.0065  -17.9765 N   0  0  0  0  0  0  0  0  0  0  0  0
   27.5230  -16.9955  -15.8981 N   0  0  0  0  0  0  0  0  0  0  0  0
   27.2072  -17.1577  -14.4980 C   0  0  0  0  0  0  0  0  0  0  0  0
   26.4142  -18.4085  -14.2147 C   0  0  0  0  0  0  0  0  0  0  0  0
   25.0224  -18.2508  -14.7656 C   0  0  0  0  0  0  0  0  0  0  0  0
   24.1504  -19.4546  -14.4475 C   0  0  2  0  0  0  0  0  0  0  0  0
   22.8317  -19.3325  -14.9563 N   0  0  0  0  0  0  0  0  0  0  0  0
   24.2944  -19.7343  -13.0065 C   0  0  0  0  0  0  0  0  0  0  0  0
   23.3986  -19.1304  -12.2903 O   0  0  0  0  0  0  0  0  0  0  0  0
   27.8927  -16.6745  -18.3942 N   0  0  0  0  0  0  0  0  0  0  0  0
   25.2137  -20.5168  -12.3350 C   0  0  0  0  0  0  0  0  0  0  0  0
   26.3430  -21.2519  -12.8214 C   0  0  0  0  0  0  0  0  0  0  0  0
   26.1942  -22.5480  -11.9989 C   0  0  0  0  0  0  0  0  0  0  0  0
   25.9799  -21.9930  -10.6267 C   0  0  2  0  0  0  0  0  0  0  0  0
   25.1936  -20.7495  -10.8771 C   0  0  0  0  0  0  0  0  0  0  0  0
   25.7488  -19.5659  -10.1733 O   0  0  0  0  0  0  0  0  0  0  0  0
   25.4160  -19.3649   -8.8599 O   0  0  0  0  0  0  0  0  0  0  0  0
  1  2  1  0
  3  2  1  0
  4  5  1  0
  4  3  1  0
  5  1  1  0
  5  6  1  1
  6  7  2  0
  8  9  1  0
  9 11  1  0
 10  9  2  0
 11 12  1  0
 12 13  1  0
 15 14  1  1
 14 13  1  0
 15 16  1  0
 16  6  1  0
 17 15  1  0
 18 17  2  0
 19 20  1  0
 19 17  1  0
 21 20  1  0
 22 23  1  0
 22 21  1  0
 23 19  1  0
 24 25  1  0
 23 24  1  1
 26 24  2  0
M  END
$$$$
