PRP.pdb
     RDKit          3D

 26 27  0  0  1  0  0  0  0  0999 V2000
   36.5223   -1.8510   -9.0731 N   0  0  0  0  0  0  0  0  0  0  0  0
   35.5497   -0.8535   -8.7258 C   0  0  0  0  0  0  0  0  0  0  0  0
   35.9420   -0.2737   -7.3881 C   0  0  0  0  0  0  0  0  0  0  0  0
   36.8996   -1.3487   -6.8572 C   0  0  0  0  0  0  0  0  0  0  0  0
   37.5917   -1.7788   -8.0993 C   0  0  1  0  0  0  0  0  0  0  0  0
   38.3405   -3.0372   -8.0138 C   0  0  0  0  0  0  0  0  0  0  0  0
   39.3313   -3.1315   -7.2124 O   0  0  0  0  0  0  0  0  0  0  0  0
   38.8110  -11.6483   -7.6271 N   0  0  0  0  0  0  0  0  0  0  0  0
   37.8420  -10.8342   -6.9849 C   0  0  0  0  0  0  0  0  0  0  0  0
   37.3163  -11.2287   -5.8597 N   0  0  0  0  0  0  0  0  0  0  0  0
   37.3988   -9.5913   -7.5003 N   0  0  0  0  0  0  0  0  0  0  0  0
   37.7763   -9.1023   -8.8059 C   0  0  0  0  0  0  0  0  0  0  0  0
   38.7076   -7.9180   -8.7442 C   0  0  0  0  0  0  0  0  0  0  0  0
   37.8992   -6.6485   -8.7512 C   0  0  0  0  0  0  0  0  0  0  0  0
   38.7863   -5.4149   -8.7038 C   0  0  2  0  0  0  0  0  0  0  0  0
   38.0522   -4.2026   -8.7678 N   0  0  0  0  0  0  0  0  0  0  0  0
   39.8604   -5.6065   -9.6963 C   0  0  0  0  0  0  0  0  0  0  0  0
   39.4702   -5.3554  -10.9066 O   0  0  0  0  0  0  0  0  0  0  0  0
   36.6309  -10.6783   -5.3332 N   0  0  0  0  0  0  0  0  0  0  0  0
   41.1732   -6.0021   -9.5281 C   0  0  0  0  0  0  0  0  0  0  0  0
   41.8693   -6.4471   -8.3577 C   0  0  0  0  0  0  0  0  0  0  0  0
   43.2067   -5.7010   -8.5409 C   0  0  0  0  0  0  0  0  0  0  0  0
   43.5161   -6.0152   -9.9700 C   0  0  2  0  0  0  0  0  0  0  0  0
   42.1709   -6.0420  -10.6158 C   0  0  0  0  0  0  0  0  0  0  0  0
   41.9560   -7.2524  -11.4483 O   0  0  0  0  0  0  0  0  0  0  0  0
   42.6598   -7.3814  -12.6164 O   0  0  0  0  0  0  0  0  0  0  0  0
  1  2  1  0
  3  2  1  0
  4  5  1  0
  4  3  1  0
  5  1  1  0
  5  6  1  1
  6  7  2  0
  8  9  1  0
  9 11  1  0
 10  9  2  0
 11 12  1  0
 12 13  1  0
 15 14  1  6
 14 13  1  0
 15 16  1  0
 16  6  1  0
 17 15  1  0
 18 17  2  0
 19 20  1  0
 19 17  1  0
 21 20  1  0
 22 23  1  0
 22 21  1  0
 23 19  1  0
 24 25  1  0
 23 24  1  1
 26 24  2  0
M  END
$$$$
