PRP.pdb
     RDKit          3D

 26 27  0  0  1  0  0  0  0  0999 V2000
   14.4942  -22.7625    2.3118 N   0  0  0  0  0  0  0  0  0  0  0  0
   13.7245  -23.5578    1.3971 C   0  0  0  0  0  0  0  0  0  0  0  0
   14.6908  -24.2819    0.4906 C   0  0  0  0  0  0  0  0  0  0  0  0
   15.9706  -23.4586    0.6868 C   0  0  0  0  0  0  0  0  0  0  0  0
   15.8883  -23.1085    2.1282 C   0  0  1  0  0  0  0  0  0  0  0  0
   16.7826  -22.0374    2.5804 C   0  0  0  0  0  0  0  0  0  0  0  0
   18.0454  -22.2321    2.5988 O   0  0  0  0  0  0  0  0  0  0  0  0
   16.6537  -12.7719    2.8596 N   0  0  0  0  0  0  0  0  0  0  0  0
   17.5130  -13.4715    3.7463 C   0  0  0  0  0  0  0  0  0  0  0  0
   17.9604  -12.8717    4.8132 N   0  0  0  0  0  0  0  0  0  0  0  0
   17.9256  -14.8112    3.5417 N   0  0  0  0  0  0  0  0  0  0  0  0
   16.9981  -15.9156    3.4622 C   0  0  0  0  0  0  0  0  0  0  0  0
   17.6831  -17.2484    3.2944 C   0  0  0  0  0  0  0  0  0  0  0  0
   16.6438  -18.3267    3.1442 C   0  0  0  0  0  0  0  0  0  0  0  0
   17.2189  -19.7065    3.4200 C   0  0  2  0  0  0  0  0  0  0  0  0
   16.3560  -20.7569    3.0142 N   0  0  0  0  0  0  0  0  0  0  0  0
   17.6840  -19.7180    4.8197 C   0  0  0  0  0  0  0  0  0  0  0  0
   16.7520  -20.0651    5.6509 O   0  0  0  0  0  0  0  0  0  0  0  0
   18.5473  -13.3324    5.5155 N   0  0  0  0  0  0  0  0  0  0  0  0
   18.9234  -19.4213    5.3526 C   0  0  0  0  0  0  0  0  0  0  0  0
   20.1443  -19.0330    4.7115 C   0  0  0  0  0  0  0  0  0  0  0  0
   21.1518  -19.8755    5.5201 C   0  0  0  0  0  0  0  0  0  0  0  0
   20.7137  -19.5803    6.9192 C   0  0  2  0  0  0  0  0  0  0  0  0
   19.2319  -19.4518    6.7962 C   0  0  0  0  0  0  0  0  0  0  0  0
   18.7044  -18.2260    7.4471 O   0  0  0  0  0  0  0  0  0  0  0  0
   18.1954  -17.2287    6.6581 O   0  0  0  0  0  0  0  0  0  0  0  0
  1  2  1  0
  3  2  1  0
  4  5  1  0
  4  3  1  0
  5  1  1  0
  5  6  1  6
  6  7  2  0
  8  9  1  0
  9 11  1  0
 10  9  2  0
 11 12  1  0
 12 13  1  0
 15 14  1  1
 14 13  1  0
 15 16  1  0
 16  6  1  0
 17 15  1  0
 18 17  2  0
 19 20  1  0
 19 17  1  0
 21 20  1  0
 22 23  1  0
 22 21  1  0
 23 19  1  0
 24 25  1  0
 23 24  1  1
 26 24  2  0
M  END
$$$$
