PRP.pdb
     RDKit          3D

 26 27  0  0  1  0  0  0  0  0999 V2000
   31.4679  -23.0854  -12.2092 N   0  0  0  0  0  0  0  0  0  0  0  0
   32.8267  -23.5344  -12.0917 C   0  0  0  0  0  0  0  0  0  0  0  0
   33.3759  -23.0039  -10.7892 C   0  0  0  0  0  0  0  0  0  0  0  0
   32.3811  -21.8795  -10.4723 C   0  0  0  0  0  0  0  0  0  0  0  0
   31.1021  -22.4610  -10.9549 C   0  0  1  0  0  0  0  0  0  0  0  0
   29.9893  -21.5191  -11.1160 C   0  0  0  0  0  0  0  0  0  0  0  0
   29.5122  -20.9213  -10.0923 O   0  0  0  0  0  0  0  0  0  0  0  0
   24.8150  -18.1289  -16.1883 N   0  0  0  0  0  0  0  0  0  0  0  0
   25.2154  -16.8643  -15.6838 C   0  0  0  0  0  0  0  0  0  0  0  0
   24.3394  -15.9041  -15.5901 N   0  0  0  0  0  0  0  0  0  0  0  0
   26.5369  -16.5713  -15.2658 N   0  0  0  0  0  0  0  0  0  0  0  0
   27.5491  -17.5868  -15.0909 C   0  0  0  0  0  0  0  0  0  0  0  0
   27.2358  -18.5426  -13.9674 C   0  0  0  0  0  0  0  0  0  0  0  0
   28.3473  -19.5502  -13.8469 C   0  0  0  0  0  0  0  0  0  0  0  0
   28.3045  -20.2802  -12.5142 C   0  0  2  0  0  0  0  0  0  0  0  0
   29.3731  -21.1991  -12.3520 N   0  0  0  0  0  0  0  0  0  0  0  0
   26.9352  -20.8002  -12.3407 C   0  0  0  0  0  0  0  0  0  0  0  0
   26.6572  -21.7564  -13.1703 O   0  0  0  0  0  0  0  0  0  0  0  0
   24.5377  -14.9999  -15.1508 N   0  0  0  0  0  0  0  0  0  0  0  0
   25.9425  -20.4273  -11.4553 C   0  0  0  0  0  0  0  0  0  0  0  0
   25.8483  -19.2930  -10.5854 C   0  0  0  0  0  0  0  0  0  0  0  0
   25.2809  -19.9705   -9.3213 C   0  0  0  0  0  0  0  0  0  0  0  0
   24.1648  -20.7766   -9.9054 C   0  0  2  0  0  0  0  0  0  0  0  0
   24.7005  -21.1943  -11.2343 C   0  0  0  0  0  0  0  0  0  0  0  0
   23.7491  -20.9377  -12.3450 O   0  0  0  0  0  0  0  0  0  0  0  0
   22.6306  -21.7217  -12.4482 O   0  0  0  0  0  0  0  0  0  0  0  0
  1  2  1  0
  3  2  1  0
  4  5  1  0
  4  3  1  0
  5  1  1  0
  5  6  1  6
  6  7  2  0
  8  9  1  0
  9 11  1  0
 10  9  2  0
 11 12  1  0
 12 13  1  0
 15 14  1  6
 14 13  1  0
 15 16  1  0
 16  6  1  0
 17 15  1  0
 18 17  2  0
 19 20  1  0
 19 17  1  0
 21 20  1  0
 22 23  1  0
 22 21  1  0
 23 19  1  0
 24 25  1  0
 23 24  1  1
 26 24  2  0
M  END
$$$$
