PRP.pdb
     RDKit          3D

 26 27  0  0  1  0  0  0  0  0999 V2000
   30.1087  -20.2351  -11.2104 N   0  0  0  0  0  0  0  0  0  0  0  0
   31.3274  -20.2821  -10.4527 C   0  0  0  0  0  0  0  0  0  0  0  0
   31.5918  -21.7248  -10.0947 C   0  0  0  0  0  0  0  0  0  0  0  0
   30.2081  -22.3523  -10.3091 C   0  0  0  0  0  0  0  0  0  0  0  0
   29.7134  -21.5997  -11.4905 C   0  0  1  0  0  0  0  0  0  0  0  0
   28.2765  -21.7084  -11.7649 C   0  0  0  0  0  0  0  0  0  0  0  0
   27.7500  -22.8598  -11.9378 O   0  0  0  0  0  0  0  0  0  0  0  0
   21.3038  -20.2808   -9.5356 N   0  0  0  0  0  0  0  0  0  0  0  0
   21.9048  -20.9930   -8.4653 C   0  0  0  0  0  0  0  0  0  0  0  0
   21.1614  -21.4340   -7.4902 N   0  0  0  0  0  0  0  0  0  0  0  0
   23.2935  -21.2620   -8.3867 N   0  0  0  0  0  0  0  0  0  0  0  0
   24.3016  -20.3226   -8.8198 C   0  0  0  0  0  0  0  0  0  0  0  0
   25.2454  -20.9023   -9.8429 C   0  0  0  0  0  0  0  0  0  0  0  0
   25.0841  -20.1630  -11.1440 C   0  0  0  0  0  0  0  0  0  0  0  0
   26.0163  -20.7008  -12.2174 C   0  0  2  0  0  0  0  0  0  0  0  0
   27.3856  -20.6095  -11.8577 N   0  0  0  0  0  0  0  0  0  0  0  0
   25.6129  -20.0896  -13.4977 C   0  0  0  0  0  0  0  0  0  0  0  0
   26.2172  -18.9656  -13.7249 O   0  0  0  0  0  0  0  0  0  0  0  0
   21.5264  -21.9828   -6.7057 N   0  0  0  0  0  0  0  0  0  0  0  0
   24.7155  -20.5254  -14.4533 C   0  0  0  0  0  0  0  0  0  0  0  0
   23.8850  -21.6922  -14.4877 C   0  0  0  0  0  0  0  0  0  0  0  0
   24.0632  -22.1051  -15.9630 C   0  0  0  0  0  0  0  0  0  0  0  0
   23.8415  -20.7978  -16.6547 C   0  0  2  0  0  0  0  0  0  0  0  0
   24.4290  -19.8038  -15.7091 C   0  0  0  0  0  0  0  0  0  0  0  0
   23.5195  -18.6628  -15.4348 O   0  0  0  0  0  0  0  0  0  0  0  0
   23.3557  -17.7047  -16.3999 O   0  0  0  0  0  0  0  0  0  0  0  0
  1  2  1  0
  3  2  1  0
  4  5  1  0
  4  3  1  0
  5  1  1  0
  5  6  1  1
  6  7  2  0
  8  9  1  0
  9 11  1  0
 10  9  2  0
 11 12  1  0
 12 13  1  0
 15 14  1  1
 14 13  1  0
 15 16  1  0
 16  6  1  0
 17 15  1  0
 18 17  2  0
 19 20  1  0
 19 17  1  0
 21 20  1  0
 22 23  1  0
 22 21  1  0
 23 19  1  0
 24 25  1  0
 23 24  1  6
 26 24  2  0
M  END
$$$$
