PRP.pdb
     RDKit          3D

 26 27  0  0  1  0  0  0  0  0999 V2000
   27.2384  -21.6603  -16.3321 N   0  0  0  0  0  0  0  0  0  0  0  0
   27.7081  -21.5091  -17.6805 C   0  0  0  0  0  0  0  0  0  0  0  0
   28.3875  -20.1646  -17.7834 C   0  0  0  0  0  0  0  0  0  0  0  0
   27.8327  -19.4455  -16.5467 C   0  0  0  0  0  0  0  0  0  0  0  0
   27.7601  -20.5527  -15.5589 C   0  0  1  0  0  0  0  0  0  0  0  0
   26.9537  -20.2925  -14.3616 C   0  0  0  0  0  0  0  0  0  0  0  0
   27.2991  -19.3638  -13.5548 O   0  0  0  0  0  0  0  0  0  0  0  0
   20.6562  -21.7020  -15.9910 N   0  0  0  0  0  0  0  0  0  0  0  0
   20.4878  -20.2994  -15.8558 C   0  0  0  0  0  0  0  0  0  0  0  0
   20.1201  -19.5946  -16.8884 N   0  0  0  0  0  0  0  0  0  0  0  0
   20.6986  -19.5994  -14.6423 N   0  0  0  0  0  0  0  0  0  0  0  0
   20.9683  -20.2639  -13.3885 C   0  0  0  0  0  0  0  0  0  0  0  0
   22.3456  -19.9687  -12.8504 C   0  0  0  0  0  0  0  0  0  0  0  0
   23.3740  -20.6417  -13.7192 C   0  0  0  0  0  0  0  0  0  0  0  0
   24.7713  -20.5253  -13.1321 C   0  0  2  0  0  0  0  0  0  0  0  0
   25.7806  -21.0048  -14.0062 N   0  0  0  0  0  0  0  0  0  0  0  0
   24.7274  -21.0981  -11.7736 C   0  0  0  0  0  0  0  0  0  0  0  0
   24.5452  -22.3813  -11.7802 O   0  0  0  0  0  0  0  0  0  0  0  0
   19.9336  -18.5879  -16.8472 N   0  0  0  0  0  0  0  0  0  0  0  0
   24.8462  -20.4861  -10.5409 C   0  0  0  0  0  0  0  0  0  0  0  0
   25.0146  -19.1052  -10.1988 C   0  0  0  0  0  0  0  0  0  0  0  0
   26.0652  -19.2326   -9.0770 C   0  0  0  0  0  0  0  0  0  0  0  0
   25.4639  -20.3196   -8.2441 C   0  0  2  0  0  0  0  0  0  0  0  0
   24.8147  -21.2073   -9.2529 C   0  0  0  0  0  0  0  0  0  0  0  0
   23.4123  -21.5469   -8.9032 O   0  0  0  0  0  0  0  0  0  0  0  0
   22.3980  -20.9957   -9.6406 O   0  0  0  0  0  0  0  0  0  0  0  0
  1  2  1  0
  3  2  1  0
  4  5  1  0
  4  3  1  0
  5  1  1  0
  5  6  1  1
  6  7  2  0
  8  9  1  0
  9 11  1  0
 10  9  2  0
 11 12  1  0
 12 13  1  0
 15 14  1  6
 14 13  1  0
 15 16  1  0
 16  6  1  0
 17 15  1  0
 18 17  2  0
 19 20  1  0
 19 17  1  0
 21 20  1  0
 22 23  1  0
 22 21  1  0
 23 19  1  0
 24 25  1  0
 23 24  1  1
 26 24  2  0
M  END
$$$$
