PRP.pdb
     RDKit          3D

 26 27  0  0  1  0  0  0  0  0999 V2000
   18.5115  -19.7016  -13.2649 N   0  0  0  0  0  0  0  0  0  0  0  0
   17.0847  -19.6249  -13.4071 C   0  0  0  0  0  0  0  0  0  0  0  0
   16.5062  -20.9477  -12.9654 C   0  0  0  0  0  0  0  0  0  0  0  0
   17.7390  -21.8588  -13.0316 C   0  0  0  0  0  0  0  0  0  0  0  0
   18.8185  -20.9419  -12.5835 C   0  0  1  0  0  0  0  0  0  0  0  0
   20.1904  -21.3876  -12.8490 C   0  0  0  0  0  0  0  0  0  0  0  0
   20.7312  -22.2605  -12.0884 O   0  0  0  0  0  0  0  0  0  0  0  0
   26.7998  -23.5032  -16.4857 N   0  0  0  0  0  0  0  0  0  0  0  0
   25.8903  -24.5394  -16.1495 C   0  0  0  0  0  0  0  0  0  0  0  0
   26.3435  -25.6533  -15.6477 N   0  0  0  0  0  0  0  0  0  0  0  0
   24.4886  -24.4387  -16.3284 N   0  0  0  0  0  0  0  0  0  0  0  0
   23.8512  -23.2768  -16.9029 C   0  0  0  0  0  0  0  0  0  0  0  0
   23.9229  -22.0642  -16.0094 C   0  0  0  0  0  0  0  0  0  0  0  0
   22.5286  -21.5814  -15.7128 C   0  0  0  0  0  0  0  0  0  0  0  0
   22.2991  -21.4030  -14.2208 C   0  0  2  0  0  0  0  0  0  0  0  0
   21.0007  -20.9205  -13.9144 N   0  0  0  0  0  0  0  0  0  0  0  0
   23.4448  -20.6429  -13.6868 C   0  0  0  0  0  0  0  0  0  0  0  0
   23.3576  -19.3733  -13.9323 O   0  0  0  0  0  0  0  0  0  0  0  0
   25.7403  -26.4327  -15.3670 N   0  0  0  0  0  0  0  0  0  0  0  0
   24.5571  -21.0738  -12.9900 C   0  0  0  0  0  0  0  0  0  0  0  0
   24.9006  -22.3737  -12.4955 C   0  0  0  0  0  0  0  0  0  0  0  0
   25.4667  -21.9936  -11.1121 C   0  0  0  0  0  0  0  0  0  0  0  0
   26.3900  -20.8754  -11.4782 C   0  0  2  0  0  0  0  0  0  0  0  0
   25.6814  -20.1983  -12.6037 C   0  0  0  0  0  0  0  0  0  0  0  0
   26.5591  -19.9627  -13.7779 O   0  0  0  0  0  0  0  0  0  0  0  0
   27.4901  -18.9601  -13.7132 O   0  0  0  0  0  0  0  0  0  0  0  0
  1  2  1  0
  3  2  1  0
  4  5  1  0
  4  3  1  0
  5  1  1  0
  5  6  1  6
  6  7  2  0
  8  9  1  0
  9 11  1  0
 10  9  2  0
 11 12  1  0
 12 13  1  0
 15 14  1  6
 14 13  1  0
 15 16  1  0
 16  6  1  0
 17 15  1  0
 18 17  2  0
 19 20  1  0
 19 17  1  0
 21 20  1  0
 22 23  1  0
 22 21  1  0
 23 19  1  0
 24 25  1  0
 23 24  1  1
 26 24  2  0
M  END
$$$$
