PRP.pdb
     RDKit          3D

 26 27  0  0  1  0  0  0  0  0999 V2000
   19.9666  -20.4477  -15.2822 N   0  0  0  0  0  0  0  0  0  0  0  0
   18.8029  -19.9869  -15.9859 C   0  0  0  0  0  0  0  0  0  0  0  0
   19.1477  -19.9239  -17.4545 C   0  0  0  0  0  0  0  0  0  0  0  0
   20.6814  -19.9307  -17.4098 C   0  0  0  0  0  0  0  0  0  0  0  0
   20.9477  -20.8456  -16.2701 C   0  0  1  0  0  0  0  0  0  0  0  0
   22.3112  -20.8178  -15.7300 C   0  0  0  0  0  0  0  0  0  0  0  0
   22.9999  -21.8936  -15.6930 O   0  0  0  0  0  0  0  0  0  0  0  0
   28.9221  -18.1943  -16.6039 N   0  0  0  0  0  0  0  0  0  0  0  0
   27.9752  -17.1853  -16.9190 C   0  0  0  0  0  0  0  0  0  0  0  0
   27.9594  -16.6713  -18.1164 N   0  0  0  0  0  0  0  0  0  0  0  0
   27.0237  -16.6890  -15.9942 N   0  0  0  0  0  0  0  0  0  0  0  0
   27.0453  -17.0228  -14.5891 C   0  0  0  0  0  0  0  0  0  0  0  0
   26.3604  -18.3313  -14.2845 C   0  0  0  0  0  0  0  0  0  0  0  0
   25.0239  -18.3660  -14.9756 C   0  0  0  0  0  0  0  0  0  0  0  0
   24.2569  -19.6390  -14.6562 C   0  0  2  0  0  0  0  0  0  0  0  0
   22.9586  -19.6610  -15.2276 N   0  0  0  0  0  0  0  0  0  0  0  0
   24.3577  -19.8607  -13.2014 C   0  0  0  0  0  0  0  0  0  0  0  0
   23.4780  -19.1833  -12.5327 O   0  0  0  0  0  0  0  0  0  0  0  0
   27.3314  -15.9116  -18.3963 N   0  0  0  0  0  0  0  0  0  0  0  0
   25.2239  -20.6554  -12.4759 C   0  0  0  0  0  0  0  0  0  0  0  0
   26.3853  -21.3854  -12.8887 C   0  0  0  0  0  0  0  0  0  0  0  0
   26.1746  -22.6937  -12.0995 C   0  0  0  0  0  0  0  0  0  0  0  0
   25.8598  -22.1593  -10.7386 C   0  0  2  0  0  0  0  0  0  0  0  0
   25.0956  -20.9103  -11.0273 C   0  0  0  0  0  0  0  0  0  0  0  0
   25.5984  -19.7389  -10.2661 O   0  0  0  0  0  0  0  0  0  0  0  0
   25.1978  -19.5771   -8.9663 O   0  0  0  0  0  0  0  0  0  0  0  0
  1  2  1  0
  3  2  1  0
  4  5  1  0
  4  3  1  0
  5  1  1  0
  5  6  1  1
  6  7  2  0
  8  9  1  0
  9 11  1  0
 10  9  2  0
 11 12  1  0
 12 13  1  0
 15 14  1  1
 14 13  1  0
 15 16  1  0
 16  6  1  0
 17 15  1  0
 18 17  2  0
 19 20  1  0
 19 17  1  0
 21 20  1  0
 22 23  1  0
 22 21  1  0
 23 19  1  0
 24 25  1  0
 23 24  1  1
 26 24  2  0
M  END
$$$$
