PRP.pdb
     RDKit          3D

 26 27  0  0  1  0  0  0  0  0999 V2000
   28.8385  -18.6807  -17.9869 N   0  0  0  0  0  0  0  0  0  0  0  0
   29.2576  -17.5161  -18.7147 C   0  0  0  0  0  0  0  0  0  0  0  0
   28.5966  -16.3151  -18.0820 C   0  0  0  0  0  0  0  0  0  0  0  0
   27.4588  -16.9731  -17.2903 C   0  0  0  0  0  0  0  0  0  0  0  0
   28.0998  -18.2301  -16.8257 C   0  0  1  0  0  0  0  0  0  0  0  0
   27.1914  -19.2644  -16.3193 C   0  0  0  0  0  0  0  0  0  0  0  0
   26.7075  -20.1315  -17.1236 O   0  0  0  0  0  0  0  0  0  0  0  0
   25.8408  -19.5133   -8.8364 N   0  0  0  0  0  0  0  0  0  0  0  0
   25.1189  -20.5645   -9.4593 C   0  0  0  0  0  0  0  0  0  0  0  0
   23.8786  -20.7791   -9.1219 N   0  0  0  0  0  0  0  0  0  0  0  0
   25.6724  -21.4156  -10.4473 N   0  0  0  0  0  0  0  0  0  0  0  0
   26.9832  -21.2087  -11.0178 C   0  0  0  0  0  0  0  0  0  0  0  0
   26.9702  -21.1749  -12.5253 C   0  0  0  0  0  0  0  0  0  0  0  0
   25.7550  -20.4216  -12.9957 C   0  0  0  0  0  0  0  0  0  0  0  0
   25.7504  -20.2453  -14.5055 C   0  0  2  0  0  0  0  0  0  0  0  0
   26.7877  -19.3944  -14.9665 N   0  0  0  0  0  0  0  0  0  0  0  0
   24.3716  -19.9060  -14.9050 C   0  0  0  0  0  0  0  0  0  0  0  0
   24.1646  -18.6271  -14.9415 O   0  0  0  0  0  0  0  0  0  0  0  0
   23.2921  -21.4989   -9.5555 N   0  0  0  0  0  0  0  0  0  0  0  0
   23.3082  -20.7249  -15.2320 C   0  0  0  0  0  0  0  0  0  0  0  0
   23.1887  -22.1522  -15.2040 C   0  0  0  0  0  0  0  0  0  0  0  0
   22.4292  -22.3839  -16.5263 C   0  0  0  0  0  0  0  0  0  0  0  0
   21.3383  -21.3673  -16.4115 C   0  0  2  0  0  0  0  0  0  0  0  0
   21.9990  -20.2315  -15.7038 C   0  0  0  0  0  0  0  0  0  0  0  0
   21.2070  -19.7325  -14.5513 O   0  0  0  0  0  0  0  0  0  0  0  0
   21.6024  -20.0718  -13.2845 O   0  0  0  0  0  0  0  0  0  0  0  0
  1  2  1  0
  3  2  1  0
  4  5  1  0
  4  3  1  0
  5  1  1  0
  5  6  1  6
  6  7  2  0
  8  9  1  0
  9 11  1  0
 10  9  2  0
 11 12  1  0
 12 13  1  0
 15 14  1  1
 14 13  1  0
 15 16  1  0
 16  6  1  0
 17 15  1  0
 18 17  2  0
 19 20  1  0
 19 17  1  0
 21 20  1  0
 22 23  1  0
 22 21  1  0
 23 19  1  0
 24 25  1  0
 23 24  1  1
 26 24  2  0
M  END
$$$$
