MHG.pdb
     RDKit          3D

 23 23  0  0  1  0  0  0  0  0999 V2000
    8.8874  -11.9378   20.0285 C   0  0  0  0  0  0  0  0  0  0  0  0
    7.6272  -13.1865   19.6781 S   0  0  0  0  0  0  0  0  0  0  0  0
    6.8339  -13.7611   21.2092 C   0  0  0  0  0  0  0  0  0  0  0  0
    7.0868  -15.2345   21.4329 C   0  0  0  0  0  0  0  0  0  0  0  0
    8.5794  -15.4315   21.5339 C   0  0  2  0  0  0  0  0  0  0  0  0
    9.0423  -15.9471   20.2711 N   0  0  0  0  0  0  0  0  0  0  0  0
    8.9367  -16.3382   22.6652 C   0  0  0  0  0  0  0  0  0  0  0  0
    8.7114  -16.0715   23.8521 O   0  0  0  0  0  0  0  0  0  0  0  0
    9.5701  -17.5760   22.3707 N   0  0  0  0  0  0  0  0  0  0  0  0
    9.9775  -18.4972   23.4363 C   0  0  1  0  0  0  0  0  0  0  0  0
    9.3442  -19.8566   23.2433 C   0  0  0  0  0  0  0  0  0  0  0  0
    7.8891  -19.8072   23.1046 C   0  0  0  0  0  0  0  0  0  0  0  0
    7.0153  -19.4851   24.1165 C   0  0  0  0  0  0  0  0  0  0  0  0
    5.7777  -19.5427   23.6254 N   0  0  0  0  0  0  0  0  0  0  0  0
    5.8279  -19.8934   22.3227 C   0  0  0  0  0  0  0  0  0  0  0  0
    7.1403  -20.0517   22.0215 N   0  0  0  0  0  0  0  0  0  0  0  0
   11.4364  -18.6727   23.3695 C   0  0  0  0  0  0  0  0  0  0  0  0
   12.0162  -18.6871   22.2668 O   0  0  0  0  0  0  0  0  0  0  0  0
   12.1828  -18.8254   24.5562 N   0  0  0  0  0  0  0  0  0  0  0  0
   13.6193  -18.5520   24.6123 C   0  0  0  0  0  0  0  0  0  0  0  0
   14.3273  -19.7565   24.1814 C   0  0  0  0  0  0  0  0  0  0  0  0
   15.7091  -19.8498   24.2520 O   0  0  0  0  0  0  0  0  0  0  0  0
   13.6460  -20.7319   23.7341 O   0  0  0  0  0  0  0  0  0  0  0  0
  1  2  1  0
  3  2  1  0
  4  3  1  0
  5  4  1  0
  5  7  1  0
  5  6  1  6
  7  8  2  0
  7  9  1  0
  9 10  1  0
 10 17  1  0
 10 11  1  6
 12 11  1  0
 12 13  2  0
 14 13  1  0
 15 14  1  0
 16 15  2  0
 16 12  1  0
 17 19  1  0
 17 18  2  0
 19 20  1  0
 21 20  1  0
 21 22  1  0
 23 21  2  0
M  END
$$$$
