MHG.pdb
     RDKit          3D

 23 23  0  0  1  0  0  0  0  0999 V2000
    9.7656  -12.9948   17.2347 C   0  0  0  0  0  0  0  0  0  0  0  0
    7.9951  -13.3560   17.1628 S   0  0  0  0  0  0  0  0  0  0  0  0
    7.4864  -14.4087   18.5544 C   0  0  0  0  0  0  0  0  0  0  0  0
    8.1877  -14.0007   19.8298 C   0  0  0  0  0  0  0  0  0  0  0  0
    7.6676  -14.8817   20.9389 C   0  0  2  0  0  0  0  0  0  0  0  0
    6.2388  -14.7112   21.0037 N   0  0  0  0  0  0  0  0  0  0  0  0
    8.3216  -14.5637   22.2430 C   0  0  0  0  0  0  0  0  0  0  0  0
    8.3836  -13.4223   22.7161 O   0  0  0  0  0  0  0  0  0  0  0  0
    8.9067  -15.6242   22.9868 N   0  0  0  0  0  0  0  0  0  0  0  0
    9.6092  -15.3737   24.2493 C   0  0  1  0  0  0  0  0  0  0  0  0
    8.6886  -15.5898   25.4291 C   0  0  0  0  0  0  0  0  0  0  0  0
    7.7170  -14.5125   25.6152 C   0  0  0  0  0  0  0  0  0  0  0  0
    7.9284  -13.1979   25.2712 C   0  0  0  0  0  0  0  0  0  0  0  0
    6.8313  -12.5091   25.5846 N   0  0  0  0  0  0  0  0  0  0  0  0
    5.9161  -13.3434   26.1221 C   0  0  0  0  0  0  0  0  0  0  0  0
    6.4831  -14.5750   26.1317 N   0  0  0  0  0  0  0  0  0  0  0  0
   10.7159  -16.3355   24.3667 C   0  0  0  0  0  0  0  0  0  0  0  0
   11.4226  -16.3558   25.3927 O   0  0  0  0  0  0  0  0  0  0  0  0
   10.9795  -17.2383   23.3159 N   0  0  0  0  0  0  0  0  0  0  0  0
   11.9646  -18.3130   23.4423 C   0  0  0  0  0  0  0  0  0  0  0  0
   13.2689  -17.7811   23.0505 C   0  0  0  0  0  0  0  0  0  0  0  0
   14.1787  -18.5454   22.3356 O   0  0  0  0  0  0  0  0  0  0  0  0
   13.5604  -16.5886   23.3804 O   0  0  0  0  0  0  0  0  0  0  0  0
  1  2  1  0
  3  2  1  0
  4  3  1  0
  5  4  1  0
  5  7  1  0
  5  6  1  1
  7  8  2  0
  7  9  1  0
  9 10  1  0
 10 17  1  0
 10 11  1  1
 12 11  1  0
 12 13  2  0
 14 13  1  0
 15 14  1  0
 16 15  2  0
 16 12  1  0
 17 19  1  0
 17 18  2  0
 19 20  1  0
 21 20  1  0
 21 22  1  0
 23 21  2  0
M  END
$$$$
