MHG.pdb
     RDKit          3D

 23 23  0  0  1  0  0  0  0  0999 V2000
    7.6003  -11.1848   20.1538 C   0  0  0  0  0  0  0  0  0  0  0  0
    7.0065  -12.5000   19.0639 S   0  0  0  0  0  0  0  0  0  0  0  0
    7.5342  -14.1328   19.6633 C   0  0  0  0  0  0  0  0  0  0  0  0
    7.8865  -14.0851   21.1324 C   0  0  0  0  0  0  0  0  0  0  0  0
    8.3185  -15.4710   21.5437 C   0  0  2  0  0  0  0  0  0  0  0  0
    7.2940  -16.3938   21.1268 N   0  0  0  0  0  0  0  0  0  0  0  0
    8.5707  -15.5525   23.0132 C   0  0  0  0  0  0  0  0  0  0  0  0
    7.8972  -14.9479   23.8566 O   0  0  0  0  0  0  0  0  0  0  0  0
    9.6402  -16.3664   23.4755 N   0  0  0  0  0  0  0  0  0  0  0  0
    9.6586  -16.8984   24.8418 C   0  0  1  0  0  0  0  0  0  0  0  0
    8.4054  -17.6955   25.1256 C   0  0  0  0  0  0  0  0  0  0  0  0
    8.4075  -18.3361   26.4404 C   0  0  0  0  0  0  0  0  0  0  0  0
    9.1107  -17.8834   27.5322 C   0  0  0  0  0  0  0  0  0  0  0  0
    8.8733  -18.7135   28.5475 N   0  0  0  0  0  0  0  0  0  0  0  0
    8.0354  -19.6909   28.1413 C   0  0  0  0  0  0  0  0  0  0  0  0
    7.7603  -19.4391   26.8378 N   0  0  0  0  0  0  0  0  0  0  0  0
   10.8050  -17.8107   24.9724 C   0  0  0  0  0  0  0  0  0  0  0  0
   11.1350  -18.2466   26.0920 O   0  0  0  0  0  0  0  0  0  0  0  0
   11.5343  -18.1944   23.8280 N   0  0  0  0  0  0  0  0  0  0  0  0
   12.4672  -17.2866   23.1596 C   0  0  0  0  0  0  0  0  0  0  0  0
   13.7886  -17.4738   23.7568 C   0  0  0  0  0  0  0  0  0  0  0  0
   14.4041  -16.4674   24.4858 O   0  0  0  0  0  0  0  0  0  0  0  0
   14.3734  -18.5907   23.5950 O   0  0  0  0  0  0  0  0  0  0  0  0
  1  2  1  0
  3  2  1  0
  4  3  1  0
  5  4  1  0
  5  7  1  0
  5  6  1  1
  7  8  2  0
  7  9  1  0
  9 10  1  0
 10 17  1  0
 10 11  1  6
 12 11  1  0
 12 13  2  0
 14 13  1  0
 15 14  1  0
 16 15  2  0
 16 12  1  0
 17 19  1  0
 17 18  2  0
 19 20  1  0
 21 20  1  0
 21 22  1  0
 23 21  2  0
M  END
$$$$
