IMW.pdb
     RDKit          3D

 31 32  0  0  1  0  0  0  0  0999 V2000
   28.4433  -15.8882  -16.5953 C   0  0  0  0  0  0  0  0  0  0  0  0
   27.6339  -17.1399  -16.8575 C   0  0  0  0  0  0  0  0  0  0  0  0
   26.8671  -17.4557  -15.5946 C   0  0  2  0  0  0  0  0  0  0  0  0
   27.7859  -17.4879  -14.4198 C   0  0  0  0  0  0  0  0  0  0  0  0
   25.9648  -18.6325  -15.7325 C   0  0  2  0  0  0  0  0  0  0  0  0
   25.0744  -18.4078  -16.8521 N   0  0  0  0  0  0  0  0  0  0  0  0
   25.1399  -18.8937  -14.5116 C   0  0  0  0  0  0  0  0  0  0  0  0
   24.2464  -18.0849  -14.2023 O   0  0  0  0  0  0  0  0  0  0  0  0
   20.1059  -22.6573  -14.7595 C   0  0  0  0  0  0  0  0  0  0  0  0
   21.4220  -22.7641  -13.5420 S   0  0  0  0  0  0  0  0  0  0  0  0
   22.5483  -21.3463  -13.5531 C   0  0  0  0  0  0  0  0  0  0  0  0
   23.7118  -21.5339  -12.6656 C   0  0  0  0  0  0  0  0  0  0  0  0
   24.7060  -20.4245  -12.5454 C   0  0  2  0  0  0  0  0  0  0  0  0
   25.3679  -20.0193  -13.7372 N   0  0  0  0  0  0  0  0  0  0  0  0
   25.6988  -20.7638  -11.5090 C   0  0  0  0  0  0  0  0  0  0  0  0
   26.6480  -21.5282  -11.8141 O   0  0  0  0  0  0  0  0  0  0  0  0
   25.5977  -20.2498  -10.2055 N   0  0  0  0  0  0  0  0  0  0  0  0
   26.4768  -20.7536   -9.1706 C   0  0  1  0  0  0  0  0  0  0  0  0
   27.3349  -19.6115   -8.6664 C   0  0  0  0  0  0  0  0  0  0  0  0
   28.3182  -20.1715   -7.7113 C   0  0  0  0  0  0  0  0  0  0  0  0
   29.1495  -21.2503   -7.8939 C   0  0  0  0  0  0  0  0  0  0  0  0
   29.8831  -21.4203   -6.7760 N   0  0  0  0  0  0  0  0  0  0  0  0
   29.5385  -20.4739   -5.8842 C   0  0  0  0  0  0  0  0  0  0  0  0
   30.0073  -20.2281   -4.5919 C   0  0  0  0  0  0  0  0  0  0  0  0
   29.4904  -19.1863   -3.8732 C   0  0  0  0  0  0  0  0  0  0  0  0
   28.5123  -18.3793   -4.4145 C   0  0  0  0  0  0  0  0  0  0  0  0
   28.0670  -18.6394   -5.6855 C   0  0  0  0  0  0  0  0  0  0  0  0
   28.5566  -19.6785   -6.4517 C   0  0  0  0  0  0  0  0  0  0  0  0
   25.6775  -21.2912   -8.0222 C   0  0  0  0  0  0  0  0  0  0  0  0
   24.5394  -20.8703   -7.7707 O   0  0  0  0  0  0  0  0  0  0  0  0
   26.2379  -22.2849   -7.2283 O   0  0  0  0  0  0  0  0  0  0  0  0
  1  2  1  0
  2  3  1  0
  3  4  1  1
  5  3  1  0
  5  6  1  6
  7  8  2  0
  7  5  1  0
  9 10  1  0
 11 10  1  0
 12 11  1  0
 13 12  1  6
 13 14  1  0
 14  7  1  0
 15 16  2  0
 15 13  1  0
 17 15  1  0
 18 17  1  0
 18 19  1  1
 19 20  1  0
 20 28  1  0
 20 21  2  0
 21 22  1  0
 23 22  1  0
 23 24  2  0
 25 24  1  0
 26 25  2  0
 27 28  2  0
 27 26  1  0
 28 23  1  0
 29 18  1  0
 30 29  2  0
 31 29  1  0
M  END
$$$$
