IMW.pdb
     RDKit          3D

 31 32  0  0  1  0  0  0  0  0999 V2000
   33.4837  -23.5322   -6.5672 C   0  0  0  0  0  0  0  0  0  0  0  0
   34.3731  -23.9250   -5.4073 C   0  0  0  0  0  0  0  0  0  0  0  0
   33.7874  -23.3081   -4.1588 C   0  0  2  0  0  0  0  0  0  0  0  0
   34.2310  -21.8909   -4.0187 C   0  0  0  0  0  0  0  0  0  0  0  0
   33.9617  -24.1552   -2.9462 C   0  0  2  0  0  0  0  0  0  0  0  0
   33.3378  -25.4404   -3.1824 N   0  0  0  0  0  0  0  0  0  0  0  0
   33.3650  -23.5544   -1.7124 C   0  0  0  0  0  0  0  0  0  0  0  0
   32.1931  -23.8405   -1.4077 O   0  0  0  0  0  0  0  0  0  0  0  0
   34.7336  -21.6333    5.7505 C   0  0  0  0  0  0  0  0  0  0  0  0
   35.2912  -22.1789    4.1327 S   0  0  0  0  0  0  0  0  0  0  0  0
   34.1803  -21.7164    2.7795 C   0  0  0  0  0  0  0  0  0  0  0  0
   34.6018  -22.2715    1.4793 C   0  0  0  0  0  0  0  0  0  0  0  0
   33.7252  -22.0504    0.2891 C   0  0  2  0  0  0  0  0  0  0  0  0
   34.1066  -22.6926   -0.9213 N   0  0  0  0  0  0  0  0  0  0  0  0
   33.5616  -20.6027    0.0607 C   0  0  0  0  0  0  0  0  0  0  0  0
   34.5371  -19.9519   -0.3903 O   0  0  0  0  0  0  0  0  0  0  0  0
   32.3468  -19.9532    0.3363 N   0  0  0  0  0  0  0  0  0  0  0  0
   31.6898  -19.1970   -0.7097 C   0  0  1  0  0  0  0  0  0  0  0  0
   31.6160  -20.0568   -1.9548 C   0  0  0  0  0  0  0  0  0  0  0  0
   30.9211  -19.2759   -3.0036 C   0  0  0  0  0  0  0  0  0  0  0  0
   31.0640  -17.9401   -3.2929 C   0  0  0  0  0  0  0  0  0  0  0  0
   30.2465  -17.6341   -4.3200 N   0  0  0  0  0  0  0  0  0  0  0  0
   29.5853  -18.7449   -4.6926 C   0  0  0  0  0  0  0  0  0  0  0  0
   28.6369  -18.9445   -5.6980 C   0  0  0  0  0  0  0  0  0  0  0  0
   28.1020  -20.1889   -5.8836 C   0  0  0  0  0  0  0  0  0  0  0  0
   28.4916  -21.2446   -5.0871 C   0  0  0  0  0  0  0  0  0  0  0  0
   29.4246  -21.0252   -4.1058 C   0  0  0  0  0  0  0  0  0  0  0  0
   29.9943  -19.7882   -3.8783 C   0  0  0  0  0  0  0  0  0  0  0  0
   30.2947  -18.8371   -0.2966 C   0  0  0  0  0  0  0  0  0  0  0  0
   29.6383  -19.5579    0.4684 O   0  0  0  0  0  0  0  0  0  0  0  0
   29.7355  -17.6644   -0.7907 O   0  0  0  0  0  0  0  0  0  0  0  0
  1  2  1  0
  2  3  1  0
  3  4  1  1
  5  3  1  0
  5  6  1  6
  7  8  2  0
  7  5  1  0
  9 10  1  0
 11 10  1  0
 12 11  1  0
 13 12  1  1
 13 14  1  0
 14  7  1  0
 15 16  2  0
 15 13  1  0
 17 15  1  0
 18 17  1  0
 18 19  1  6
 19 20  1  0
 20 28  1  0
 20 21  2  0
 21 22  1  0
 23 22  1  0
 23 24  2  0
 25 24  1  0
 26 25  2  0
 27 28  2  0
 27 26  1  0
 28 23  1  0
 29 18  1  0
 30 29  2  0
 31 29  1  0
M  END
$$$$
