IMW.pdb
     RDKit          3D

 31 32  0  0  1  0  0  0  0  0999 V2000
   33.6865  -23.7422  -13.0164 C   0  0  0  0  0  0  0  0  0  0  0  0
   32.4486  -23.7552  -13.8871 C   0  0  0  0  0  0  0  0  0  0  0  0
   31.6266  -22.5410  -13.5231 C   0  0  2  0  0  0  0  0  0  0  0  0
   31.4463  -22.4562  -12.0448 C   0  0  0  0  0  0  0  0  0  0  0  0
   30.3798  -22.4115  -14.3274 C   0  0  2  0  0  0  0  0  0  0  0  0
   30.7367  -22.3166  -15.7275 N   0  0  0  0  0  0  0  0  0  0  0  0
   29.5597  -21.2145  -13.9616 C   0  0  0  0  0  0  0  0  0  0  0  0
   29.9944  -20.0800  -14.2301 O   0  0  0  0  0  0  0  0  0  0  0  0
   26.2131  -17.0626  -16.9258 C   0  0  0  0  0  0  0  0  0  0  0  0
   25.6651  -18.1287  -15.5882 S   0  0  0  0  0  0  0  0  0  0  0  0
   27.0174  -18.9128  -14.6743 C   0  0  0  0  0  0  0  0  0  0  0  0
   26.5523  -19.6390  -13.4773 C   0  0  0  0  0  0  0  0  0  0  0  0
   27.5553  -20.3869  -12.6596 C   0  0  2  0  0  0  0  0  0  0  0  0
   28.3348  -21.3674  -13.3333 N   0  0  0  0  0  0  0  0  0  0  0  0
   26.8864  -20.9908  -11.4923 C   0  0  0  0  0  0  0  0  0  0  0  0
   27.0833  -22.2078  -11.2505 O   0  0  0  0  0  0  0  0  0  0  0  0
   26.0457  -20.2330  -10.6601 N   0  0  0  0  0  0  0  0  0  0  0  0
   25.9263  -20.5825   -9.2596 C   0  0  1  0  0  0  0  0  0  0  0  0
   27.0684  -19.9382   -8.5011 C   0  0  0  0  0  0  0  0  0  0  0  0
   26.8670  -20.2131   -7.0601 C   0  0  0  0  0  0  0  0  0  0  0  0
   25.8330  -20.8995   -6.4701 C   0  0  0  0  0  0  0  0  0  0  0  0
   26.0362  -20.9188   -5.1378 N   0  0  0  0  0  0  0  0  0  0  0  0
   27.1770  -20.2601   -4.8645 C   0  0  0  0  0  0  0  0  0  0  0  0
   27.8119  -20.0076   -3.6467 C   0  0  0  0  0  0  0  0  0  0  0  0
   28.9837  -19.3035   -3.6297 C   0  0  0  0  0  0  0  0  0  0  0  0
   29.5407  -18.8426   -4.8037 C   0  0  0  0  0  0  0  0  0  0  0  0
   28.8996  -19.1024   -5.9881 C   0  0  0  0  0  0  0  0  0  0  0  0
   27.7151  -19.8084   -6.0584 C   0  0  0  0  0  0  0  0  0  0  0  0
   24.6340  -20.0678   -8.7012 C   0  0  0  0  0  0  0  0  0  0  0  0
   24.2224  -18.9285   -8.9624 O   0  0  0  0  0  0  0  0  0  0  0  0
   23.8895  -20.8982   -7.8716 O   0  0  0  0  0  0  0  0  0  0  0  0
  1  2  1  0
  2  3  1  0
  3  4  1  1
  5  3  1  0
  5  6  1  6
  7  8  2  0
  7  5  1  0
  9 10  1  0
 11 10  1  0
 12 11  1  0
 13 12  1  6
 13 14  1  0
 14  7  1  0
 15 16  2  0
 15 13  1  0
 17 15  1  0
 18 17  1  0
 18 19  1  1
 19 20  1  0
 20 28  1  0
 20 21  2  0
 21 22  1  0
 23 22  1  0
 23 24  2  0
 25 24  1  0
 26 25  2  0
 27 28  2  0
 27 26  1  0
 28 23  1  0
 29 18  1  0
 30 29  2  0
 31 29  1  0
M  END
$$$$
