IMW.pdb
     RDKit          3D

 31 32  0  0  1  0  0  0  0  0999 V2000
   24.7618  -22.6043  -20.5896 C   0  0  0  0  0  0  0  0  0  0  0  0
   24.2593  -22.8389  -19.1813 C   0  0  0  0  0  0  0  0  0  0  0  0
   25.4234  -22.6209  -18.2433 C   0  0  2  0  0  0  0  0  0  0  0  0
   26.6120  -23.4004  -18.6958 C   0  0  0  0  0  0  0  0  0  0  0  0
   25.0612  -22.7836  -16.8079 C   0  0  2  0  0  0  0  0  0  0  0  0
   23.7561  -22.1964  -16.5875 N   0  0  0  0  0  0  0  0  0  0  0  0
   26.0376  -22.1413  -15.8734 C   0  0  0  0  0  0  0  0  0  0  0  0
   27.2004  -22.5808  -15.8195 O   0  0  0  0  0  0  0  0  0  0  0  0
   26.1290  -15.8130  -15.1792 C   0  0  0  0  0  0  0  0  0  0  0  0
   27.4149  -16.2757  -14.0137 S   0  0  0  0  0  0  0  0  0  0  0  0
   27.3797  -18.0226  -13.5380 C   0  0  0  0  0  0  0  0  0  0  0  0
   26.5794  -18.8500  -14.4608 C   0  0  0  0  0  0  0  0  0  0  0  0
   26.4418  -20.3106  -14.1754 C   0  0  2  0  0  0  0  0  0  0  0  0
   25.6525  -21.0731  -15.0801 N   0  0  0  0  0  0  0  0  0  0  0  0
   25.9508  -20.4986  -12.7976 C   0  0  0  0  0  0  0  0  0  0  0  0
   24.7210  -20.3697  -12.5755 O   0  0  0  0  0  0  0  0  0  0  0  0
   26.8282  -20.8160  -11.7473 N   0  0  0  0  0  0  0  0  0  0  0  0
   26.3088  -20.9558  -10.4026 C   0  0  1  0  0  0  0  0  0  0  0  0
   27.4738  -21.1244   -9.4490 C   0  0  0  0  0  0  0  0  0  0  0  0
   26.9827  -20.8445   -8.0804 C   0  0  0  0  0  0  0  0  0  0  0  0
   25.6996  -20.9680   -7.6042 C   0  0  0  0  0  0  0  0  0  0  0  0
   25.6886  -20.6118   -6.3043 N   0  0  0  0  0  0  0  0  0  0  0  0
   26.9361  -20.2638   -5.9403 C   0  0  0  0  0  0  0  0  0  0  0  0
   27.4365  -19.8265   -4.7122 C   0  0  0  0  0  0  0  0  0  0  0  0
   28.7657  -19.5300   -4.5920 C   0  0  0  0  0  0  0  0  0  0  0  0
   29.6125  -19.6597   -5.6722 C   0  0  0  0  0  0  0  0  0  0  0  0
   29.0990  -20.0910   -6.8687 C   0  0  0  0  0  0  0  0  0  0  0  0
   27.7650  -20.4028   -7.0414 C   0  0  0  0  0  0  0  0  0  0  0  0
   25.5443  -19.7286  -10.0075 C   0  0  0  0  0  0  0  0  0  0  0  0
   25.9911  -18.5914  -10.2145 O   0  0  0  0  0  0  0  0  0  0  0  0
   24.3063  -19.8837   -9.3950 O   0  0  0  0  0  0  0  0  0  0  0  0
  1  2  1  0
  2  3  1  0
  3  4  1  6
  5  3  1  0
  5  6  1  6
  7  8  2  0
  7  5  1  0
  9 10  1  0
 11 10  1  0
 12 11  1  0
 13 12  1  6
 13 14  1  0
 14  7  1  0
 15 16  2  0
 15 13  1  0
 17 15  1  0
 18 17  1  0
 18 19  1  1
 19 20  1  0
 20 28  1  0
 20 21  2  0
 21 22  1  0
 23 22  1  0
 23 24  2  0
 25 24  1  0
 26 25  2  0
 27 28  2  0
 27 26  1  0
 28 23  1  0
 29 18  1  0
 30 29  2  0
 31 29  1  0
M  END
$$$$
