IMW.pdb
     RDKit          3D

 31 32  0  0  1  0  0  0  0  0999 V2000
   19.9581  -17.9420  -14.8100 C   0  0  0  0  0  0  0  0  0  0  0  0
   21.0625  -18.4937  -15.6855 C   0  0  0  0  0  0  0  0  0  0  0  0
   22.0734  -19.1533  -14.7769 C   0  0  2  0  0  0  0  0  0  0  0  0
   22.4367  -18.2434  -13.6520 C   0  0  0  0  0  0  0  0  0  0  0  0
   23.2225  -19.7521  -15.5112 C   0  0  2  0  0  0  0  0  0  0  0  0
   22.7160  -20.7321  -16.4491 N   0  0  0  0  0  0  0  0  0  0  0  0
   24.2168  -20.4195  -14.6138 C   0  0  0  0  0  0  0  0  0  0  0  0
   23.9397  -21.5301  -14.1261 O   0  0  0  0  0  0  0  0  0  0  0  0
   29.1344  -23.2491  -16.5677 C   0  0  0  0  0  0  0  0  0  0  0  0
   28.5042  -22.4485  -15.0886 S   0  0  0  0  0  0  0  0  0  0  0  0
   28.3441  -20.6511  -15.2391 C   0  0  0  0  0  0  0  0  0  0  0  0
   27.8832  -20.0121  -13.9918 C   0  0  0  0  0  0  0  0  0  0  0  0
   26.4928  -20.2880  -13.5182 C   0  0  2  0  0  0  0  0  0  0  0  0
   25.4277  -19.8097  -14.3304 N   0  0  0  0  0  0  0  0  0  0  0  0
   26.3354  -19.7917  -12.1384 C   0  0  0  0  0  0  0  0  0  0  0  0
   26.0821  -18.5736  -11.9636 O   0  0  0  0  0  0  0  0  0  0  0  0
   26.4625  -20.6515  -11.0347 N   0  0  0  0  0  0  0  0  0  0  0  0
   27.1778  -20.2006   -9.8588 C   0  0  1  0  0  0  0  0  0  0  0  0
   26.2835  -20.3819   -8.6495 C   0  0  0  0  0  0  0  0  0  0  0  0
   26.8769  -19.6169   -7.5290 C   0  0  0  0  0  0  0  0  0  0  0  0
   26.8897  -18.2542   -7.3530 C   0  0  0  0  0  0  0  0  0  0  0  0
   27.5325  -17.9767   -6.2012 N   0  0  0  0  0  0  0  0  0  0  0  0
   27.9300  -19.1320   -5.6383 C   0  0  0  0  0  0  0  0  0  0  0  0
   28.6256  -19.3735   -4.4517 C   0  0  0  0  0  0  0  0  0  0  0  0
   28.9159  -20.6594   -4.0894 C   0  0  0  0  0  0  0  0  0  0  0  0
   28.5275  -21.7159   -4.8854 C   0  0  0  0  0  0  0  0  0  0  0  0
   27.8453  -21.4551   -6.0464 C   0  0  0  0  0  0  0  0  0  0  0  0
   27.5282  -20.1752   -6.4563 C   0  0  0  0  0  0  0  0  0  0  0  0
   28.4199  -21.0153   -9.6585 C   0  0  0  0  0  0  0  0  0  0  0  0
   28.4663  -22.2142   -9.9682 O   0  0  0  0  0  0  0  0  0  0  0  0
   29.5391  -20.3991   -9.1111 O   0  0  0  0  0  0  0  0  0  0  0  0
  1  2  1  0
  2  3  1  0
  3  4  1  1
  5  3  1  0
  5  6  1  6
  7  8  2  0
  7  5  1  0
  9 10  1  0
 11 10  1  0
 12 11  1  0
 13 12  1  6
 13 14  1  0
 14  7  1  0
 15 16  2  0
 15 13  1  0
 17 15  1  0
 18 17  1  0
 18 19  1  1
 19 20  1  0
 20 28  1  0
 20 21  2  0
 21 22  1  0
 23 22  1  0
 23 24  2  0
 25 24  1  0
 26 25  2  0
 27 28  2  0
 27 26  1  0
 28 23  1  0
 29 18  1  0
 30 29  2  0
 31 29  1  0
M  END
$$$$
