IMW.pdb
     RDKit          3D

 31 32  0  0  1  0  0  0  0  0999 V2000
   24.7366  -26.3371  -17.8238 C   0  0  0  0  0  0  0  0  0  0  0  0
   24.6759  -24.8408  -18.0434 C   0  0  0  0  0  0  0  0  0  0  0  0
   25.6880  -24.2064  -17.1183 C   0  0  2  0  0  0  0  0  0  0  0  0
   25.4594  -24.6482  -15.7120 C   0  0  0  0  0  0  0  0  0  0  0  0
   25.8222  -22.7359  -17.3124 C   0  0  2  0  0  0  0  0  0  0  0  0
   26.3341  -22.4867  -18.6438 N   0  0  0  0  0  0  0  0  0  0  0  0
   26.7363  -22.0878  -16.3206 C   0  0  0  0  0  0  0  0  0  0  0  0
   27.9466  -21.9871  -16.5909 O   0  0  0  0  0  0  0  0  0  0  0  0
   27.6017  -16.3038  -14.4727 C   0  0  0  0  0  0  0  0  0  0  0  0
   25.9093  -16.8813  -14.6409 S   0  0  0  0  0  0  0  0  0  0  0  0
   25.6928  -18.6387  -14.2622 C   0  0  0  0  0  0  0  0  0  0  0  0
   26.9653  -19.3852  -14.2674 C   0  0  0  0  0  0  0  0  0  0  0  0
   26.9237  -20.8710  -14.1110 C   0  0  2  0  0  0  0  0  0  0  0  0
   26.2421  -21.6070  -15.1192 N   0  0  0  0  0  0  0  0  0  0  0  0
   26.3776  -21.2109  -12.7839 C   0  0  0  0  0  0  0  0  0  0  0  0
   25.1446  -21.4279  -12.6795 O   0  0  0  0  0  0  0  0  0  0  0  0
   27.2070  -21.2945  -11.6531 N   0  0  0  0  0  0  0  0  0  0  0  0
   26.6160  -21.5269  -10.3515 C   0  0  1  0  0  0  0  0  0  0  0  0
   27.7249  -21.5926   -9.3214 C   0  0  0  0  0  0  0  0  0  0  0  0
   27.2792  -20.8382   -8.1277 C   0  0  0  0  0  0  0  0  0  0  0  0
   26.0167  -20.3731   -7.8482 C   0  0  0  0  0  0  0  0  0  0  0  0
   26.0468  -19.7395   -6.6589 N   0  0  0  0  0  0  0  0  0  0  0  0
   27.3004  -19.7901   -6.1733 C   0  0  0  0  0  0  0  0  0  0  0  0
   27.8372  -19.2852   -4.9871 C   0  0  0  0  0  0  0  0  0  0  0  0
   29.1642  -19.4696   -4.7147 C   0  0  0  0  0  0  0  0  0  0  0  0
   29.9732  -20.1487   -5.6007 C   0  0  0  0  0  0  0  0  0  0  0  0
   29.4243  -20.6359   -6.7595 C   0  0  0  0  0  0  0  0  0  0  0  0
   28.0909  -20.4761   -7.0806 C   0  0  0  0  0  0  0  0  0  0  0  0
   25.6948  -20.4019   -9.9876 C   0  0  0  0  0  0  0  0  0  0  0  0
   25.8568  -19.2591  -10.4385 O   0  0  0  0  0  0  0  0  0  0  0  0
   24.6377  -20.6601   -9.1229 O   0  0  0  0  0  0  0  0  0  0  0  0
  1  2  1  0
  2  3  1  0
  3  4  1  1
  5  3  1  0
  5  6  1  6
  7  8  2  0
  7  5  1  0
  9 10  1  0
 11 10  1  0
 12 11  1  0
 13 12  1  6
 13 14  1  0
 14  7  1  0
 15 16  2  0
 15 13  1  0
 17 15  1  0
 18 17  1  0
 18 19  1  1
 19 20  1  0
 20 28  1  0
 20 21  2  0
 21 22  1  0
 23 22  1  0
 23 24  2  0
 25 24  1  0
 26 25  2  0
 27 28  2  0
 27 26  1  0
 28 23  1  0
 29 18  1  0
 30 29  2  0
 31 29  1  0
M  END
$$$$
