IMW.pdb
     RDKit          3D

 31 32  0  0  1  0  0  0  0  0999 V2000
   29.5470  -18.6558  -16.8644 C   0  0  0  0  0  0  0  0  0  0  0  0
   28.1095  -19.1288  -16.8390 C   0  0  0  0  0  0  0  0  0  0  0  0
   27.5968  -18.9434  -15.4300 C   0  0  2  0  0  0  0  0  0  0  0  0
   28.5617  -19.5109  -14.4441 C   0  0  0  0  0  0  0  0  0  0  0  0
   26.1809  -19.3717  -15.2577 C   0  0  2  0  0  0  0  0  0  0  0  0
   25.3622  -18.6747  -16.2276 N   0  0  0  0  0  0  0  0  0  0  0  0
   25.6400  -19.0954  -13.8900 C   0  0  0  0  0  0  0  0  0  0  0  0
   25.4220  -17.9176  -13.5537 O   0  0  0  0  0  0  0  0  0  0  0  0
   20.4355  -21.6305  -11.9052 C   0  0  0  0  0  0  0  0  0  0  0  0
   20.7178  -19.8699  -12.1212 S   0  0  0  0  0  0  0  0  0  0  0  0
   22.4597  -19.4281  -12.3435 C   0  0  0  0  0  0  0  0  0  0  0  0
   23.3709  -20.2855  -11.5617 C   0  0  0  0  0  0  0  0  0  0  0  0
   24.8442  -20.0749  -11.6979 C   0  0  2  0  0  0  0  0  0  0  0  0
   25.3859  -20.1358  -13.0116 N   0  0  0  0  0  0  0  0  0  0  0  0
   25.5593  -21.0148  -10.8147 C   0  0  0  0  0  0  0  0  0  0  0  0
   25.8042  -22.1710  -11.2408 O   0  0  0  0  0  0  0  0  0  0  0  0
   25.9643  -20.6381   -9.5233 N   0  0  0  0  0  0  0  0  0  0  0  0
   26.3605  -21.6583   -8.5748 C   0  0  1  0  0  0  0  0  0  0  0  0
   27.7727  -21.3656   -8.1112 C   0  0  0  0  0  0  0  0  0  0  0  0
   27.7326  -20.1369   -7.2856 C   0  0  0  0  0  0  0  0  0  0  0  0
   27.0085  -18.9917   -7.5145 C   0  0  0  0  0  0  0  0  0  0  0  0
   27.2610  -18.1187   -6.5191 N   0  0  0  0  0  0  0  0  0  0  0  0
   28.1301  -18.6814   -5.6601 C   0  0  0  0  0  0  0  0  0  0  0  0
   28.6944  -18.1865   -4.4825 C   0  0  0  0  0  0  0  0  0  0  0  0
   29.5665  -18.9645   -3.7731 C   0  0  0  0  0  0  0  0  0  0  0  0
   29.8914  -20.2306   -4.2116 C   0  0  0  0  0  0  0  0  0  0  0  0
   29.3251  -20.6960   -5.3709 C   0  0  0  0  0  0  0  0  0  0  0  0
   28.4395  -19.9498   -6.1230 C   0  0  0  0  0  0  0  0  0  0  0  0
   25.4547  -21.6416   -7.3808 C   0  0  0  0  0  0  0  0  0  0  0  0
   24.4978  -20.8581   -7.3034 O   0  0  0  0  0  0  0  0  0  0  0  0
   25.7052  -22.5311   -6.3425 O   0  0  0  0  0  0  0  0  0  0  0  0
  1  2  1  0
  2  3  1  0
  3  4  1  1
  5  3  1  0
  5  6  1  6
  7  8  2  0
  7  5  1  0
  9 10  1  0
 11 10  1  0
 12 11  1  0
 13 12  1  6
 13 14  1  0
 14  7  1  0
 15 16  2  0
 15 13  1  0
 17 15  1  0
 18 17  1  0
 18 19  1  1
 19 20  1  0
 20 28  1  0
 20 21  2  0
 21 22  1  0
 23 22  1  0
 23 24  2  0
 25 24  1  0
 26 25  2  0
 27 28  2  0
 27 26  1  0
 28 23  1  0
 29 18  1  0
 30 29  2  0
 31 29  1  0
M  END
$$$$
