THE.pdb
     RDKit          3D

 27 27  0  0  1  0  0  0  0  0999 V2000
   25.8803  -23.6227  -13.0582 C   0  0  0  0  0  0  0  0  0  0  0  0
   25.4558  -22.2308  -13.4467 C   0  0  1  0  0  0  0  0  0  0  0  0
   24.0460  -22.2572  -13.5579 O   0  0  0  0  0  0  0  0  0  0  0  0
   25.7789  -21.2083  -12.3956 C   0  0  2  0  0  0  0  0  0  0  0  0
   25.1351  -21.4192  -11.1444 N   0  0  0  0  0  0  0  0  0  0  0  0
   25.3688  -19.8755  -12.9470 C   0  0  0  0  0  0  0  0  0  0  0  0
   24.3829  -19.3047  -12.4169 O   0  0  0  0  0  0  0  0  0  0  0  0
   26.0691  -19.2915  -14.0207 N   0  0  0  0  0  0  0  0  0  0  0  0
   25.7449  -18.0468  -14.6325 C   0  0  1  0  0  0  0  0  0  0  0  0
   26.8771  -17.4110  -15.3756 C   0  0  0  0  0  0  0  0  0  0  0  0
   26.4641  -16.0855  -15.9289 C   0  0  0  0  0  0  0  0  0  0  0  0
   25.2331  -15.4982  -15.8398 C   0  0  0  0  0  0  0  0  0  0  0  0
   25.3045  -14.3182  -16.4725 N   0  0  0  0  0  0  0  0  0  0  0  0
   26.5449  -14.1546  -16.9527 C   0  0  0  0  0  0  0  0  0  0  0  0
   27.2486  -15.2463  -16.6129 N   0  0  0  0  0  0  0  0  0  0  0  0
   24.4910  -18.1247  -15.4612 C   0  0  0  0  0  0  0  0  0  0  0  0
   24.3100  -19.0166  -16.3018 O   0  0  0  0  0  0  0  0  0  0  0  0
   23.4561  -17.1467  -15.2913 N   0  0  0  0  0  0  0  0  0  0  0  0
   22.1558  -17.3092  -15.9207 C   0  0  1  0  0  0  0  0  0  0  0  0
   21.1920  -17.6233  -14.7951 C   0  0  0  0  0  0  0  0  0  0  0  0
   19.7685  -17.7130  -15.2319 C   0  0  0  0  0  0  0  0  0  0  0  0
   18.8120  -17.9908  -14.1606 C   0  0  0  0  0  0  0  0  0  0  0  0
   19.3024  -18.1607  -12.9938 O   0  0  0  0  0  0  0  0  0  0  0  0
   21.8183  -16.0544  -16.6089 C   0  0  0  0  0  0  0  0  0  0  0  0
   22.2809  -14.9742  -16.1920 O   0  0  0  0  0  0  0  0  0  0  0  0
   17.4537  -18.0882  -14.2719 O   0  0  0  0  0  0  0  0  0  0  0  0
   20.9967  -16.0632  -17.7083 O   0  0  0  0  0  0  0  0  0  0  0  0
  2  1  1  1
  2  4  1  0
  3  2  1  0
  4  5  1  1
  6  4  1  0
  6  7  2  0
  8  6  1  0
  9  8  1  0
  9 10  1  6
 11 15  1  0
 11 10  1  0
 12 11  2  0
 13 12  1  0
 13 14  1  0
 14 15  2  0
 16  9  1  0
 17 16  2  0
 18 16  1  0
 19 18  1  0
 20 21  1  0
 19 20  1  1
 22 26  1  0
 22 21  1  0
 23 22  2  0
 24 27  1  0
 24 19  1  0
 25 24  2  0
M  END
$$$$
