THE.pdb
     RDKit          3D

 27 27  0  0  1  0  0  0  0  0999 V2000
   24.6073  -13.7463  -18.3356 C   0  0  0  0  0  0  0  0  0  0  0  0
   23.6321  -12.6434  -18.0177 C   0  0  1  0  0  0  0  0  0  0  0  0
   22.4558  -13.2711  -17.5456 O   0  0  0  0  0  0  0  0  0  0  0  0
   24.1071  -11.7464  -16.9112 C   0  0  2  0  0  0  0  0  0  0  0  0
   24.3684  -12.4099  -15.6799 N   0  0  0  0  0  0  0  0  0  0  0  0
   23.0403  -10.7135  -16.7024 C   0  0  0  0  0  0  0  0  0  0  0  0
   22.7216   -9.9989  -17.6856 O   0  0  0  0  0  0  0  0  0  0  0  0
   22.4226  -10.5567  -15.4461 N   0  0  0  0  0  0  0  0  0  0  0  0
   21.4378   -9.5769  -15.1319 C   0  0  1  0  0  0  0  0  0  0  0  0
   20.3817  -10.0461  -14.1815 C   0  0  0  0  0  0  0  0  0  0  0  0
   19.3632  -10.8749  -14.8953 C   0  0  0  0  0  0  0  0  0  0  0  0
   19.3045  -11.1430  -16.2342 C   0  0  0  0  0  0  0  0  0  0  0  0
   18.2331  -11.9223  -16.4411 N   0  0  0  0  0  0  0  0  0  0  0  0
   17.6236  -12.1467  -15.2689 C   0  0  0  0  0  0  0  0  0  0  0  0
   18.3263  -11.4985  -14.3262 N   0  0  0  0  0  0  0  0  0  0  0  0
   22.0466   -8.2678  -14.7070 C   0  0  0  0  0  0  0  0  0  0  0  0
   22.8156   -8.1809  -13.7395 O   0  0  0  0  0  0  0  0  0  0  0  0
   21.7432   -7.0667  -15.4292 N   0  0  0  0  0  0  0  0  0  0  0  0
   22.4263   -5.8178  -15.1344 C   0  0  1  0  0  0  0  0  0  0  0  0
   22.0679   -4.8774  -16.2665 C   0  0  0  0  0  0  0  0  0  0  0  0
   22.6875   -3.5261  -16.1427 C   0  0  0  0  0  0  0  0  0  0  0  0
   22.3481   -2.5923  -17.2163 C   0  0  0  0  0  0  0  0  0  0  0  0
   21.6023   -3.0474  -18.1477 O   0  0  0  0  0  0  0  0  0  0  0  0
   21.9489   -5.3291  -13.8323 C   0  0  0  0  0  0  0  0  0  0  0  0
   22.6604   -4.5561  -13.1609 O   0  0  0  0  0  0  0  0  0  0  0  0
   22.7413   -1.2888  -17.3311 O   0  0  0  0  0  0  0  0  0  0  0  0
   20.7244   -5.7180  -13.3497 O   0  0  0  0  0  0  0  0  0  0  0  0
  2  1  1  1
  2  4  1  0
  3  2  1  0
  4  5  1  1
  6  4  1  0
  6  7  2  0
  8  6  1  0
  9  8  1  0
  9 10  1  1
 11 15  1  0
 11 10  1  0
 12 11  2  0
 13 12  1  0
 13 14  1  0
 14 15  2  0
 16  9  1  0
 17 16  2  0
 18 16  1  0
 19 18  1  0
 20 21  1  0
 19 20  1  6
 22 26  1  0
 22 21  1  0
 23 22  2  0
 24 27  1  0
 24 19  1  0
 25 24  2  0
M  END
$$$$
