THE.pdb
     RDKit          3D

 27 27  0  0  1  0  0  0  0  0999 V2000
   25.5692  -10.5185  -15.3931 C   0  0  0  0  0  0  0  0  0  0  0  0
   25.1630  -11.5294  -16.4331 C   0  0  1  0  0  0  0  0  0  0  0  0
   26.1167  -12.5722  -16.3737 O   0  0  0  0  0  0  0  0  0  0  0  0
   23.8298  -12.1577  -16.1455 C   0  0  2  0  0  0  0  0  0  0  0  0
   23.4259  -13.1488  -17.0831 N   0  0  0  0  0  0  0  0  0  0  0  0
   22.8217  -11.0476  -16.1307 C   0  0  0  0  0  0  0  0  0  0  0  0
   22.4195  -10.6119  -17.2385 O   0  0  0  0  0  0  0  0  0  0  0  0
   22.3481  -10.5181  -14.9144 N   0  0  0  0  0  0  0  0  0  0  0  0
   21.4507   -9.4190  -14.7913 C   0  0  1  0  0  0  0  0  0  0  0  0
   20.2036   -9.7234  -14.0227 C   0  0  0  0  0  0  0  0  0  0  0  0
   19.3994  -10.7725  -14.7201 C   0  0  0  0  0  0  0  0  0  0  0  0
   18.5226  -10.5933  -15.7532 C   0  0  0  0  0  0  0  0  0  0  0  0
   18.0247  -11.7971  -16.0706 N   0  0  0  0  0  0  0  0  0  0  0  0
   18.5669  -12.7202  -15.2645 C   0  0  0  0  0  0  0  0  0  0  0  0
   19.4098  -12.0796  -14.4389 N   0  0  0  0  0  0  0  0  0  0  0  0
   22.1350   -8.1727  -14.2977 C   0  0  0  0  0  0  0  0  0  0  0  0
   22.7717   -8.1463  -13.2353 O   0  0  0  0  0  0  0  0  0  0  0  0
   22.0632   -6.9627  -15.0639 N   0  0  0  0  0  0  0  0  0  0  0  0
   22.7640   -5.7611  -14.6413 C   0  0  1  0  0  0  0  0  0  0  0  0
   22.9048   -4.9096  -15.8861 C   0  0  0  0  0  0  0  0  0  0  0  0
   21.6079   -4.3846  -16.4035 C   0  0  0  0  0  0  0  0  0  0  0  0
   21.7090   -3.5941  -17.6302 C   0  0  0  0  0  0  0  0  0  0  0  0
   22.1878   -4.1926  -18.6516 O   0  0  0  0  0  0  0  0  0  0  0  0
   21.9590   -5.1008  -13.6030 C   0  0  0  0  0  0  0  0  0  0  0  0
   20.7701   -5.4358  -13.4330 O   0  0  0  0  0  0  0  0  0  0  0  0
   21.3479   -2.2876  -17.8020 O   0  0  0  0  0  0  0  0  0  0  0  0
   22.5072   -4.1170  -12.8185 O   0  0  0  0  0  0  0  0  0  0  0  0
  2  1  1  1
  2  4  1  0
  3  2  1  0
  4  5  1  6
  6  4  1  0
  6  7  2  0
  8  6  1  0
  9  8  1  0
  9 10  1  1
 11 15  1  0
 11 10  1  0
 12 11  2  0
 13 12  1  0
 13 14  1  0
 14 15  2  0
 16  9  1  0
 17 16  2  0
 18 16  1  0
 19 18  1  0
 20 21  1  0
 19 20  1  6
 22 26  1  0
 22 21  1  0
 23 22  2  0
 24 27  1  0
 24 19  1  0
 25 24  2  0
M  END
$$$$
