QHQ.pdb
     RDKit          3D

 29 29  0  0  1  0  0  0  0  0999 V2000
   24.3690  -17.6204  -20.2856 N   0  0  0  0  0  0  0  0  0  0  0  0
   25.5932  -16.8827  -20.1647 C   0  0  0  0  0  0  0  0  0  0  0  0
   25.8526  -16.0750  -21.0653 O   0  0  0  0  0  0  0  0  0  0  0  0
   26.4176  -17.1702  -18.9693 C   0  0  0  0  0  0  0  0  0  0  0  0
   25.7034  -18.1077  -18.0578 C   0  0  0  0  0  0  0  0  0  0  0  0
   26.5760  -19.1049  -17.3931 C   0  0  2  0  0  0  0  0  0  0  0  0
   26.8819  -20.1459  -18.4027 N   0  0  0  0  0  0  0  0  0  0  0  0
   25.9178  -19.8135  -16.2370 C   0  0  0  0  0  0  0  0  0  0  0  0
   25.0909  -20.7389  -16.5273 O   0  0  0  0  0  0  0  0  0  0  0  0
   26.1485  -19.5258  -14.8917 N   0  0  0  0  0  0  0  0  0  0  0  0
   25.4178  -20.1402  -13.7710 C   0  0  1  0  0  0  0  0  0  0  0  0
   26.2159  -19.9350  -12.5595 C   0  0  0  0  0  0  0  0  0  0  0  0
   25.6290  -20.3359  -11.2735 C   0  0  0  0  0  0  0  0  0  0  0  0
   24.3033  -20.7939  -11.2302 C   0  0  0  0  0  0  0  0  0  0  0  0
   23.9853  -21.0996   -9.9690 N   0  0  0  0  0  0  0  0  0  0  0  0
   25.0884  -20.8407   -9.2254 C   0  0  0  0  0  0  0  0  0  0  0  0
   26.0649  -20.3830  -10.0260 N   0  0  0  0  0  0  0  0  0  0  0  0
   24.0261  -19.6817  -13.7729 C   0  0  0  0  0  0  0  0  0  0  0  0
   23.7959  -18.4809  -14.0703 O   0  0  0  0  0  0  0  0  0  0  0  0
   21.9013  -19.3379  -17.5956 N   0  0  0  0  0  0  0  0  0  0  0  0
   21.1907  -20.4746  -17.2001 C   0  0  0  0  0  0  0  0  0  0  0  0
   20.8863  -21.3570  -18.0270 O   0  0  0  0  0  0  0  0  0  0  0  0
   20.7876  -20.6431  -15.7753 C   0  0  0  0  0  0  0  0  0  0  0  0
   21.2786  -19.4927  -14.9342 C   0  0  0  0  0  0  0  0  0  0  0  0
   21.5754  -19.8703  -13.5044 C   0  0  2  0  0  0  0  0  0  0  0  0
   22.9177  -20.4847  -13.4642 N   0  0  0  0  0  0  0  0  0  0  0  0
   20.5912  -20.7941  -12.9064 C   0  0  0  0  0  0  0  0  0  0  0  0
   19.3726  -20.4207  -12.7974 O   0  0  0  0  0  0  0  0  0  0  0  0
   20.8606  -22.0608  -12.4393 O   0  0  0  0  0  0  0  0  0  0  0  0
  2  1  1  0
  3  2  2  0
  4  2  1  0
  5  4  1  0
  6  5  1  0
  6  7  1  6
  8  6  1  0
  9  8  2  0
 10  8  1  0
 11 10  1  0
 11 12  1  1
 12 13  1  0
 13 14  2  0
 14 15  1  0
 16 15  1  0
 17 13  1  0
 17 16  2  0
 18 26  1  0
 18 11  1  0
 19 18  2  0
 21 20  1  0
 22 21  2  0
 23 21  1  0
 25 24  1  6
 24 23  1  0
 25 26  1  0
 27 25  1  0
 28 27  2  0
 29 27  1  0
M  END
$$$$
