QHQ.pdb
     RDKit          3D

 29 29  0  0  1  0  0  0  0  0999 V2000
   25.5071  -20.0767   -8.1010 N   0  0  0  0  0  0  0  0  0  0  0  0
   26.7123  -20.8491   -8.1924 C   0  0  0  0  0  0  0  0  0  0  0  0
   27.2578  -21.1656   -7.1280 O   0  0  0  0  0  0  0  0  0  0  0  0
   27.1750  -21.1846   -9.5579 C   0  0  0  0  0  0  0  0  0  0  0  0
   26.2807  -20.5669  -10.5769 C   0  0  0  0  0  0  0  0  0  0  0  0
   26.6822  -20.8176  -11.9818 C   0  0  2  0  0  0  0  0  0  0  0  0
   28.1394  -20.5599  -12.0627 N   0  0  0  0  0  0  0  0  0  0  0  0
   26.0301  -19.8899  -12.9749 C   0  0  0  0  0  0  0  0  0  0  0  0
   25.4997  -18.8298  -12.5067 O   0  0  0  0  0  0  0  0  0  0  0  0
   25.9676  -20.1133  -14.3504 N   0  0  0  0  0  0  0  0  0  0  0  0
   25.3772  -19.1765  -15.3207 C   0  0  1  0  0  0  0  0  0  0  0  0
   26.2402  -19.1670  -16.5048 C   0  0  0  0  0  0  0  0  0  0  0  0
   25.8315  -18.3372  -17.6465 C   0  0  0  0  0  0  0  0  0  0  0  0
   24.8020  -18.7800  -18.4910 C   0  0  0  0  0  0  0  0  0  0  0  0
   24.6015  -17.8733  -19.4516 N   0  0  0  0  0  0  0  0  0  0  0  0
   25.4871  -16.8734  -19.2215 C   0  0  0  0  0  0  0  0  0  0  0  0
   26.2168  -17.1697  -18.1336 N   0  0  0  0  0  0  0  0  0  0  0  0
   23.9541  -19.4762  -15.4995 C   0  0  0  0  0  0  0  0  0  0  0  0
   23.5995  -20.6831  -15.5288 O   0  0  0  0  0  0  0  0  0  0  0  0
   19.2372  -17.4305  -12.5083 N   0  0  0  0  0  0  0  0  0  0  0  0
   18.6744  -17.3266  -13.7833 C   0  0  0  0  0  0  0  0  0  0  0  0
   17.5301  -16.8561  -13.9397 O   0  0  0  0  0  0  0  0  0  0  0  0
   19.4431  -17.7809  -14.9765 C   0  0  0  0  0  0  0  0  0  0  0  0
   20.7860  -18.3356  -14.5761 C   0  0  0  0  0  0  0  0  0  0  0  0
   21.5430  -18.9723  -15.7148 C   0  0  2  0  0  0  0  0  0  0  0  0
   22.9446  -18.5125  -15.6441 N   0  0  0  0  0  0  0  0  0  0  0  0
   20.9912  -18.6714  -17.0506 C   0  0  0  0  0  0  0  0  0  0  0  0
   21.5241  -17.7422  -17.7498 O   0  0  0  0  0  0  0  0  0  0  0  0
   19.9256  -19.3123  -17.6413 O   0  0  0  0  0  0  0  0  0  0  0  0
  2  1  1  0
  3  2  2  0
  4  2  1  0
  5  4  1  0
  6  5  1  0
  6  7  1  1
  8  6  1  0
  9  8  2  0
 10  8  1  0
 11 10  1  0
 11 12  1  6
 12 13  1  0
 13 14  2  0
 14 15  1  0
 16 15  1  0
 17 13  1  0
 17 16  2  0
 18 26  1  0
 18 11  1  0
 19 18  2  0
 21 20  1  0
 22 21  2  0
 23 21  1  0
 25 24  1  1
 24 23  1  0
 25 26  1  0
 27 25  1  0
 28 27  2  0
 29 27  1  0
M  END
$$$$
