QHQ.pdb
     RDKit          3D

 29 29  0  0  1  0  0  0  0  0999 V2000
   13.9453  -17.6024    1.8730 N   0  0  0  0  0  0  0  0  0  0  0  0
   14.0936  -17.7057    3.2960 C   0  0  0  0  0  0  0  0  0  0  0  0
   14.4492  -16.6853    3.8985 O   0  0  0  0  0  0  0  0  0  0  0  0
   13.8039  -19.0295    3.8918 C   0  0  0  0  0  0  0  0  0  0  0  0
   13.4067  -20.0006    2.8340 C   0  0  0  0  0  0  0  0  0  0  0  0
   14.4034  -21.0658    2.5701 C   0  0  2  0  0  0  0  0  0  0  0  0
   15.6662  -20.3865    2.1954 N   0  0  0  0  0  0  0  0  0  0  0  0
   14.0428  -21.9623    1.4134 C   0  0  0  0  0  0  0  0  0  0  0  0
   12.9468  -22.6061    1.5068 O   0  0  0  0  0  0  0  0  0  0  0  0
   14.8188  -22.1332    0.2668 N   0  0  0  0  0  0  0  0  0  0  0  0
   14.4799  -23.0418   -0.8408 C   0  0  1  0  0  0  0  0  0  0  0  0
   14.4773  -22.2509   -2.0743 C   0  0  0  0  0  0  0  0  0  0  0  0
   14.3448  -22.9675   -3.3501 C   0  0  0  0  0  0  0  0  0  0  0  0
   14.3762  -24.3704   -3.3629 C   0  0  0  0  0  0  0  0  0  0  0  0
   14.2390  -24.8013   -4.6201 N   0  0  0  0  0  0  0  0  0  0  0  0
   14.1228  -23.6928   -5.3914 C   0  0  0  0  0  0  0  0  0  0  0  0
   14.1886  -22.6015   -4.6112 N   0  0  0  0  0  0  0  0  0  0  0  0
   15.3271  -24.2359   -0.7822 C   0  0  0  0  0  0  0  0  0  0  0  0
   16.5179  -24.1022   -0.3983 O   0  0  0  0  0  0  0  0  0  0  0  0
   17.0326  -29.0233    1.7338 N   0  0  0  0  0  0  0  0  0  0  0  0
   16.4790  -27.8778    2.3125 C   0  0  0  0  0  0  0  0  0  0  0  0
   16.7095  -27.5892    3.5036 O   0  0  0  0  0  0  0  0  0  0  0  0
   15.6015  -26.9845    1.5046 C   0  0  0  0  0  0  0  0  0  0  0  0
   15.3868  -27.5434    0.1213 C   0  0  0  0  0  0  0  0  0  0  0  0
   15.8772  -26.6383   -0.9811 C   0  0  2  0  0  0  0  0  0  0  0  0
   14.9108  -25.5311   -1.1258 N   0  0  0  0  0  0  0  0  0  0  0  0
   16.0547  -27.3124   -2.2825 C   0  0  0  0  0  0  0  0  0  0  0  0
   17.1263  -27.9765   -2.4990 O   0  0  0  0  0  0  0  0  0  0  0  0
   15.1523  -27.2995   -3.3222 O   0  0  0  0  0  0  0  0  0  0  0  0
  2  1  1  0
  3  2  2  0
  4  2  1  0
  5  4  1  0
  6  5  1  0
  6  7  1  6
  8  6  1  0
  9  8  2  0
 10  8  1  0
 11 10  1  0
 11 12  1  6
 12 13  1  0
 13 14  2  0
 14 15  1  0
 16 15  1  0
 17 13  1  0
 17 16  2  0
 18 26  1  0
 18 11  1  0
 19 18  2  0
 21 20  1  0
 22 21  2  0
 23 21  1  0
 25 24  1  1
 24 23  1  0
 25 26  1  0
 27 25  1  0
 28 27  2  0
 29 27  1  0
M  END
$$$$
