QHQ.pdb
     RDKit          3D

 29 29  0  0  1  0  0  0  0  0999 V2000
   22.5775  -15.5252  -24.9651 N   0  0  0  0  0  0  0  0  0  0  0  0
   23.7225  -16.3403  -24.6783 C   0  0  0  0  0  0  0  0  0  0  0  0
   24.7457  -16.1225  -25.3387 O   0  0  0  0  0  0  0  0  0  0  0  0
   23.5537  -17.3593  -23.6180 C   0  0  0  0  0  0  0  0  0  0  0  0
   23.5812  -16.7199  -22.2725 C   0  0  0  0  0  0  0  0  0  0  0  0
   22.2448  -16.4770  -21.6786 C   0  0  2  0  0  0  0  0  0  0  0  0
   21.5917  -15.4357  -22.5067 N   0  0  0  0  0  0  0  0  0  0  0  0
   22.2940  -15.9344  -20.2733 C   0  0  0  0  0  0  0  0  0  0  0  0
   22.9155  -16.6355  -19.4092 O   0  0  0  0  0  0  0  0  0  0  0  0
   21.7109  -14.7356  -19.8621 N   0  0  0  0  0  0  0  0  0  0  0  0
   21.7897  -14.1969  -18.4942 C   0  0  1  0  0  0  0  0  0  0  0  0
   21.9426  -12.7436  -18.6014 C   0  0  0  0  0  0  0  0  0  0  0  0
   23.2549  -12.2182  -19.0024 C   0  0  0  0  0  0  0  0  0  0  0  0
   24.3758  -13.0620  -18.9769 C   0  0  0  0  0  0  0  0  0  0  0  0
   25.4505  -12.3768  -19.3779 N   0  0  0  0  0  0  0  0  0  0  0  0
   25.0200  -11.1214  -19.6530 C   0  0  0  0  0  0  0  0  0  0  0  0
   23.6992  -11.0454  -19.4216 N   0  0  0  0  0  0  0  0  0  0  0  0
   20.6851  -14.7224  -17.6877 C   0  0  0  0  0  0  0  0  0  0  0  0
   19.5380  -14.7611  -18.2034 O   0  0  0  0  0  0  0  0  0  0  0  0
   20.6661  -18.5295  -12.7457 N   0  0  0  0  0  0  0  0  0  0  0  0
   19.2984  -18.3097  -12.9314 C   0  0  0  0  0  0  0  0  0  0  0  0
   18.4533  -18.9771  -12.3024 O   0  0  0  0  0  0  0  0  0  0  0  0
   18.8346  -17.2675  -13.8903 C   0  0  0  0  0  0  0  0  0  0  0  0
   19.9952  -16.6705  -14.6440 C   0  0  0  0  0  0  0  0  0  0  0  0
   19.5872  -15.6476  -15.6746 C   0  0  2  0  0  0  0  0  0  0  0  0
   20.8067  -15.1897  -16.3702 N   0  0  0  0  0  0  0  0  0  0  0  0
   18.8685  -14.4836  -15.1196 C   0  0  0  0  0  0  0  0  0  0  0  0
   19.5396  -13.4753  -14.7084 O   0  0  0  0  0  0  0  0  0  0  0  0
   17.5021  -14.3685  -14.9966 O   0  0  0  0  0  0  0  0  0  0  0  0
  2  1  1  0
  3  2  2  0
  4  2  1  0
  5  4  1  0
  6  5  1  0
  6  7  1  6
  8  6  1  0
  9  8  2  0
 10  8  1  0
 11 10  1  0
 11 12  1  6
 12 13  1  0
 13 14  2  0
 14 15  1  0
 16 15  1  0
 17 13  1  0
 17 16  2  0
 18 26  1  0
 18 11  1  0
 19 18  2  0
 21 20  1  0
 22 21  2  0
 23 21  1  0
 25 24  1  1
 24 23  1  0
 25 26  1  0
 27 25  1  0
 28 27  2  0
 29 27  1  0
M  END
$$$$
