QHQ.pdb
     RDKit          3D

 29 29  0  0  1  0  0  0  0  0999 V2000
   16.5698  -15.1489  -14.1808 N   0  0  0  0  0  0  0  0  0  0  0  0
   16.8596  -15.8326  -15.4081 C   0  0  0  0  0  0  0  0  0  0  0  0
   16.4115  -16.9792  -15.5307 O   0  0  0  0  0  0  0  0  0  0  0  0
   17.6681  -15.0877  -16.3993 C   0  0  0  0  0  0  0  0  0  0  0  0
   18.0759  -13.7644  -15.8495 C   0  0  0  0  0  0  0  0  0  0  0  0
   18.2535  -12.7023  -16.8684 C   0  0  2  0  0  0  0  0  0  0  0  0
   18.7096  -13.3720  -18.1093 N   0  0  0  0  0  0  0  0  0  0  0  0
   19.3152  -11.6925  -16.5147 C   0  0  0  0  0  0  0  0  0  0  0  0
   19.1303  -11.0145  -15.4515 O   0  0  0  0  0  0  0  0  0  0  0  0
   20.4671  -11.4531  -17.2642 N   0  0  0  0  0  0  0  0  0  0  0  0
   21.4756  -10.4311  -16.9387 C   0  0  1  0  0  0  0  0  0  0  0  0
   22.6795  -10.7372  -17.7157 C   0  0  0  0  0  0  0  0  0  0  0  0
   23.8392   -9.8476  -17.5655 C   0  0  0  0  0  0  0  0  0  0  0  0
   23.7880   -8.7932  -16.6409 C   0  0  0  0  0  0  0  0  0  0  0  0
   24.9432   -8.1228  -16.6748 N   0  0  0  0  0  0  0  0  0  0  0  0
   25.7137   -8.7399  -17.6036 C   0  0  0  0  0  0  0  0  0  0  0  0
   25.0339   -9.7730  -18.1275 N   0  0  0  0  0  0  0  0  0  0  0  0
   20.8883   -9.0945  -17.0637 C   0  0  0  0  0  0  0  0  0  0  0  0
   20.0626   -8.8920  -17.9912 O   0  0  0  0  0  0  0  0  0  0  0  0
   16.3136   -6.6723  -14.5602 N   0  0  0  0  0  0  0  0  0  0  0  0
   16.8224   -6.0663  -15.7123 C   0  0  0  0  0  0  0  0  0  0  0  0
   16.0710   -5.7686  -16.6620 O   0  0  0  0  0  0  0  0  0  0  0  0
   18.2789   -5.7685  -15.8164 C   0  0  0  0  0  0  0  0  0  0  0  0
   19.0274   -6.9307  -16.4170 C   0  0  0  0  0  0  0  0  0  0  0  0
   20.5186   -6.7172  -16.4932 C   0  0  2  0  0  0  0  0  0  0  0  0
   21.1787   -8.0101  -16.2220 N   0  0  0  0  0  0  0  0  0  0  0  0
   21.0315   -5.6951  -15.5595 C   0  0  0  0  0  0  0  0  0  0  0  0
   21.6635   -6.0693  -14.5123 O   0  0  0  0  0  0  0  0  0  0  0  0
   20.8953   -4.3332  -15.7073 O   0  0  0  0  0  0  0  0  0  0  0  0
  2  1  1  0
  3  2  2  0
  4  2  1  0
  5  4  1  0
  6  5  1  0
  6  7  1  6
  8  6  1  0
  9  8  2  0
 10  8  1  0
 11 10  1  0
 11 12  1  6
 12 13  1  0
 13 14  2  0
 14 15  1  0
 16 15  1  0
 17 13  1  0
 17 16  2  0
 18 26  1  0
 18 11  1  0
 19 18  2  0
 21 20  1  0
 22 21  2  0
 23 21  1  0
 25 24  1  1
 24 23  1  0
 25 26  1  0
 27 25  1  0
 28 27  2  0
 29 27  1  0
M  END
$$$$
