QHQ.pdb
     RDKit          3D

 29 29  0  0  1  0  0  0  0  0999 V2000
   42.9256  -14.0336  -10.3439 N   0  0  0  0  0  0  0  0  0  0  0  0
   44.0173  -14.9138  -10.0424 C   0  0  0  0  0  0  0  0  0  0  0  0
   44.2666  -15.8012  -10.8676 O   0  0  0  0  0  0  0  0  0  0  0  0
   44.7302  -14.6634   -8.7695 C   0  0  0  0  0  0  0  0  0  0  0  0
   44.1447  -13.4867   -8.0679 C   0  0  0  0  0  0  0  0  0  0  0  0
   44.5707  -12.1732   -8.6075 C   0  0  2  0  0  0  0  0  0  0  0  0
   46.0301  -12.0671   -8.3723 N   0  0  0  0  0  0  0  0  0  0  0  0
   43.9401  -10.9959   -7.9088 C   0  0  0  0  0  0  0  0  0  0  0  0
   42.6664  -10.9523   -7.8944 O   0  0  0  0  0  0  0  0  0  0  0  0
   44.6478   -9.9658   -7.2891 N   0  0  0  0  0  0  0  0  0  0  0  0
   44.0248   -8.8063   -6.6295 C   0  0  1  0  0  0  0  0  0  0  0  0
   45.0504   -8.1680   -5.8001 C   0  0  0  0  0  0  0  0  0  0  0  0
   44.6774   -6.9566   -5.0568 C   0  0  0  0  0  0  0  0  0  0  0  0
   43.3461   -6.5134   -5.0784 C   0  0  0  0  0  0  0  0  0  0  0  0
   43.2403   -5.4048   -4.3401 N   0  0  0  0  0  0  0  0  0  0  0  0
   44.4812   -5.1489   -3.8587 C   0  0  0  0  0  0  0  0  0  0  0  0
   45.3305   -6.0913   -4.2998 N   0  0  0  0  0  0  0  0  0  0  0  0
   43.3230   -7.9871   -7.6210 C   0  0  0  0  0  0  0  0  0  0  0  0
   43.8888   -7.7742   -8.7246 O   0  0  0  0  0  0  0  0  0  0  0  0
   38.1414   -8.6133  -10.1742 N   0  0  0  0  0  0  0  0  0  0  0  0
   38.4115   -7.3397  -10.6824 C   0  0  0  0  0  0  0  0  0  0  0  0
   37.7006   -6.8467  -11.5806 O   0  0  0  0  0  0  0  0  0  0  0  0
   39.5606   -6.5536  -10.1510 C   0  0  0  0  0  0  0  0  0  0  0  0
   40.3039   -7.3289   -9.0935 C   0  0  0  0  0  0  0  0  0  0  0  0
   41.4914   -6.5933   -8.5246 C   0  0  2  0  0  0  0  0  0  0  0  0
   42.0562   -7.4135   -7.4341 N   0  0  0  0  0  0  0  0  0  0  0  0
   41.1793   -5.2429   -8.0163 C   0  0  0  0  0  0  0  0  0  0  0  0
   40.7989   -5.1067   -6.8027 O   0  0  0  0  0  0  0  0  0  0  0  0
   41.2602   -4.0747   -8.7404 O   0  0  0  0  0  0  0  0  0  0  0  0
  2  1  1  0
  3  2  2  0
  4  2  1  0
  5  4  1  0
  6  5  1  0
  6  7  1  1
  8  6  1  0
  9  8  2  0
 10  8  1  0
 11 10  1  0
 11 12  1  6
 12 13  1  0
 13 14  2  0
 14 15  1  0
 16 15  1  0
 17 13  1  0
 17 16  2  0
 18 26  1  0
 18 11  1  0
 19 18  2  0
 21 20  1  0
 22 21  2  0
 23 21  1  0
 25 24  1  1
 24 23  1  0
 25 26  1  0
 27 25  1  0
 28 27  2  0
 29 27  1  0
M  END
$$$$
