QHQ.pdb
     RDKit          3D

 29 29  0  0  1  0  0  0  0  0999 V2000
   30.2228  -26.4678  -24.8769 N   0  0  0  0  0  0  0  0  0  0  0  0
   29.0504  -26.1661  -24.1073 C   0  0  0  0  0  0  0  0  0  0  0  0
   28.8208  -24.9720  -23.8796 O   0  0  0  0  0  0  0  0  0  0  0  0
   28.2389  -27.3230  -23.6665 C   0  0  0  0  0  0  0  0  0  0  0  0
   28.2257  -27.4131  -22.1794 C   0  0  0  0  0  0  0  0  0  0  0  0
   29.4604  -27.9794  -21.5857 C   0  0  2  0  0  0  0  0  0  0  0  0
   29.2422  -29.4396  -21.4567 N   0  0  0  0  0  0  0  0  0  0  0  0
   29.7571  -27.4692  -20.1987 C   0  0  0  0  0  0  0  0  0  0  0  0
   28.8482  -27.6338  -19.3205 O   0  0  0  0  0  0  0  0  0  0  0  0
   30.9410  -26.8362  -19.8199 N   0  0  0  0  0  0  0  0  0  0  0  0
   31.1954  -26.2763  -18.4823 C   0  0  1  0  0  0  0  0  0  0  0  0
   32.6456  -26.1274  -18.3356 C   0  0  0  0  0  0  0  0  0  0  0  0
   33.1632  -25.6861  -17.0332 C   0  0  0  0  0  0  0  0  0  0  0  0
   32.2710  -25.4619  -15.9735 C   0  0  0  0  0  0  0  0  0  0  0  0
   32.9580  -25.0705  -14.8964 N   0  0  0  0  0  0  0  0  0  0  0  0
   34.2620  -25.0466  -15.2652 C   0  0  0  0  0  0  0  0  0  0  0  0
   34.3654  -25.4192  -16.5515 N   0  0  0  0  0  0  0  0  0  0  0  0
   30.3500  -25.0992  -18.2662 C   0  0  0  0  0  0  0  0  0  0  0  0
   29.7706  -24.5922  -19.2614 O   0  0  0  0  0  0  0  0  0  0  0  0
   25.5905  -25.9086  -16.5134 N   0  0  0  0  0  0  0  0  0  0  0  0
   25.3622  -24.5303  -16.5542 C   0  0  0  0  0  0  0  0  0  0  0  0
   24.2523  -24.0574  -16.2388 O   0  0  0  0  0  0  0  0  0  0  0  0
   26.4522  -23.6067  -16.9783 C   0  0  0  0  0  0  0  0  0  0  0  0
   27.7322  -24.3607  -17.2327 C   0  0  0  0  0  0  0  0  0  0  0  0
   28.9749  -23.5819  -16.8803 C   0  0  2  0  0  0  0  0  0  0  0  0
   30.1347  -24.4849  -17.0232 N   0  0  0  0  0  0  0  0  0  0  0  0
   28.9620  -23.0056  -15.5212 C   0  0  0  0  0  0  0  0  0  0  0  0
   29.4405  -23.6879  -14.5507 O   0  0  0  0  0  0  0  0  0  0  0  0
   28.4719  -21.7650  -15.1805 O   0  0  0  0  0  0  0  0  0  0  0  0
  2  1  1  0
  3  2  2  0
  4  2  1  0
  5  4  1  0
  6  5  1  0
  6  7  1  1
  8  6  1  0
  9  8  2  0
 10  8  1  0
 11 10  1  0
 11 12  1  6
 12 13  1  0
 13 14  2  0
 14 15  1  0
 16 15  1  0
 17 13  1  0
 17 16  2  0
 18 26  1  0
 18 11  1  0
 19 18  2  0
 21 20  1  0
 22 21  2  0
 23 21  1  0
 25 24  1  1
 24 23  1  0
 25 26  1  0
 27 25  1  0
 28 27  2  0
 29 27  1  0
M  END
$$$$
