QHQ.pdb
     RDKit          3D

 29 29  0  0  1  0  0  0  0  0999 V2000
   20.6689  -10.4131  -22.8041 N   0  0  0  0  0  0  0  0  0  0  0  0
   21.8081  -11.2834  -22.7563 C   0  0  0  0  0  0  0  0  0  0  0  0
   22.1759  -11.7851  -23.8257 O   0  0  0  0  0  0  0  0  0  0  0  0
   22.4225  -11.4880  -21.4252 C   0  0  0  0  0  0  0  0  0  0  0  0
   21.6437  -10.7711  -20.3767 C   0  0  0  0  0  0  0  0  0  0  0  0
   22.2348  -10.8352  -19.0187 C   0  0  2  0  0  0  0  0  0  0  0  0
   22.1307  -12.2448  -18.5731 N   0  0  0  0  0  0  0  0  0  0  0  0
   21.4974  -10.0098  -17.9955 C   0  0  0  0  0  0  0  0  0  0  0  0
   20.4017   -9.4771  -18.3701 O   0  0  0  0  0  0  0  0  0  0  0  0
   21.9298   -9.7917  -16.6873 N   0  0  0  0  0  0  0  0  0  0  0  0
   21.1583   -9.0661  -15.6648 C   0  0  1  0  0  0  0  0  0  0  0  0
   20.7111  -10.0467  -14.6722 C   0  0  0  0  0  0  0  0  0  0  0  0
   19.5919  -10.9280  -15.0323 C   0  0  0  0  0  0  0  0  0  0  0  0
   19.8401  -12.2774  -15.3265 C   0  0  0  0  0  0  0  0  0  0  0  0
   18.6860  -12.8815  -15.6239 N   0  0  0  0  0  0  0  0  0  0  0  0
   17.7230  -11.9334  -15.5205 C   0  0  0  0  0  0  0  0  0  0  0  0
   18.2860  -10.7672  -15.1644 N   0  0  0  0  0  0  0  0  0  0  0  0
   21.9183   -7.9029  -15.1999 C   0  0  0  0  0  0  0  0  0  0  0  0
   23.1697   -7.9191  -15.3304 O   0  0  0  0  0  0  0  0  0  0  0  0
   23.9537   -4.3942  -18.0632 N   0  0  0  0  0  0  0  0  0  0  0  0
   24.2386   -3.5933  -16.9537 C   0  0  0  0  0  0  0  0  0  0  0  0
   24.9418   -2.5699  -17.0688 O   0  0  0  0  0  0  0  0  0  0  0  0
   23.7002   -3.9586  -15.6130 C   0  0  0  0  0  0  0  0  0  0  0  0
   22.8465   -5.1982  -15.6919 C   0  0  0  0  0  0  0  0  0  0  0  0
   22.2268   -5.5926  -14.3746 C   0  0  2  0  0  0  0  0  0  0  0  0
   21.3545   -6.7602  -14.6124 N   0  0  0  0  0  0  0  0  0  0  0  0
   21.4485   -4.5182  -13.7268 C   0  0  0  0  0  0  0  0  0  0  0  0
   22.0614   -3.4894  -13.2773 O   0  0  0  0  0  0  0  0  0  0  0  0
   20.0829   -4.5102  -13.5528 O   0  0  0  0  0  0  0  0  0  0  0  0
  2  1  1  0
  3  2  2  0
  4  2  1  0
  5  4  1  0
  6  5  1  0
  6  7  1  1
  8  6  1  0
  9  8  2  0
 10  8  1  0
 11 10  1  0
 11 12  1  1
 12 13  1  0
 13 14  2  0
 14 15  1  0
 16 15  1  0
 17 13  1  0
 17 16  2  0
 18 26  1  0
 18 11  1  0
 19 18  2  0
 21 20  1  0
 22 21  2  0
 23 21  1  0
 25 24  1  6
 24 23  1  0
 25 26  1  0
 27 25  1  0
 28 27  2  0
 29 27  1  0
M  END
$$$$
