YQQ.pdb
     RDKit          3D

 31 31  0  0  1  0  0  0  0  0999 V2000
   22.9533  -17.9783  -15.0760 O   0  0  0  0  0  0  0  0  0  0  0  0
   22.9466  -16.5848  -15.1818 C   0  0  0  0  0  0  0  0  0  0  0  0
   21.7962  -15.9645  -15.5516 C   0  0  0  0  0  0  0  0  0  0  0  0
   21.7437  -14.5725  -15.6700 C   0  0  0  0  0  0  0  0  0  0  0  0
   22.8622  -13.8168  -15.4116 C   0  0  0  0  0  0  0  0  0  0  0  0
   22.8345  -12.3579  -15.5293 C   0  0  0  0  0  0  0  0  0  0  0  0
   22.5118  -11.8980  -16.9511 C   0  0  2  0  0  0  0  0  0  0  0  0
   23.6060  -12.3464  -17.7869 N   0  0  0  0  0  0  0  0  0  0  0  0
   22.4627  -10.4249  -16.9502 C   0  0  0  0  0  0  0  0  0  0  0  0
   23.2849   -9.7893  -17.6487 O   0  0  0  0  0  0  0  0  0  0  0  0
   24.0179  -14.4511  -15.0393 C   0  0  0  0  0  0  0  0  0  0  0  0
   24.0673  -15.8316  -14.9228 C   0  0  0  0  0  0  0  0  0  0  0  0
   23.1391   -6.5541  -19.2133 N   0  0  0  0  0  0  0  0  0  0  0  0
   22.1773   -5.6892  -18.6422 C   0  0  0  0  0  0  0  0  0  0  0  0
   22.2447   -4.4584  -18.8555 O   0  0  0  0  0  0  0  0  0  0  0  0
   21.0883   -6.2397  -17.7903 C   0  0  0  0  0  0  0  0  0  0  0  0
   21.1499   -7.7545  -17.7350 C   0  0  0  0  0  0  0  0  0  0  0  0
   21.4314   -8.2674  -16.3735 C   0  0  2  0  0  0  0  0  0  0  0  0
   21.5429   -9.6601  -16.2082 N   0  0  0  0  0  0  0  0  0  0  0  0
   20.4049   -7.6540  -15.4497 C   0  0  0  0  0  0  0  0  0  0  0  0
   19.2001   -8.0135  -15.5435 O   0  0  0  0  0  0  0  0  0  0  0  0
   21.5863   -6.0584   -9.4178 N   0  0  0  0  0  0  0  0  0  0  0  0
   20.2449   -5.6821   -9.6715 C   0  0  0  0  0  0  0  0  0  0  0  0
   19.5911   -5.2098   -8.6787 O   0  0  0  0  0  0  0  0  0  0  0  0
   19.5801   -5.7934  -10.9777 C   0  0  0  0  0  0  0  0  0  0  0  0
   20.3757   -6.2674  -12.1156 C   0  0  0  0  0  0  0  0  0  0  0  0
   19.7648   -6.2595  -13.4548 C   0  0  2  0  0  0  0  0  0  0  0  0
   20.7392   -6.6834  -14.4740 N   0  0  0  0  0  0  0  0  0  0  0  0
   19.1417   -5.0403  -13.8936 C   0  0  0  0  0  0  0  0  0  0  0  0
   19.6502   -4.2089  -14.7118 O   0  0  0  0  0  0  0  0  0  0  0  0
   17.8609   -4.6639  -13.4234 O   0  0  0  0  0  0  0  0  0  0  0  0
  2  1  1  0
  3  2  2  0
  4  3  1  0
  5 11  1  0
  5  4  2  0
  6  5  1  0
  7  6  1  0
  7  8  1  6
  9  7  1  0
  9 10  2  0
 11 12  2  0
 12  2  1  0
 13 14  1  0
 14 15  2  0
 16 17  1  0
 16 14  1  0
 18 19  1  0
 18 17  1  6
 19  9  1  0
 20 18  1  0
 21 20  2  0
 23 22  1  0
 23 24  2  0
 25 23  1  0
 26 25  1  0
 27 26  1  1
 27 28  1  0
 28 20  1  0
 29 27  1  0
 29 31  1  0
 30 29  2  0
M  END
$$$$
