YQQ.pdb
     RDKit          3D

 31 31  0  0  1  0  0  0  0  0999 V2000
   28.7459  -19.6761   -4.9957 O   0  0  0  0  0  0  0  0  0  0  0  0
   28.4002  -19.7435   -6.3481 C   0  0  0  0  0  0  0  0  0  0  0  0
   27.0857  -19.7035   -6.6879 C   0  0  0  0  0  0  0  0  0  0  0  0
   26.6941  -19.7679   -8.0284 C   0  0  0  0  0  0  0  0  0  0  0  0
   27.6418  -19.8726   -9.0183 C   0  0  0  0  0  0  0  0  0  0  0  0
   27.2586  -19.9428  -10.4293 C   0  0  0  0  0  0  0  0  0  0  0  0
   26.2492  -21.0586  -10.7001 C   0  0  2  0  0  0  0  0  0  0  0  0
   26.9882  -22.3028  -10.6516 N   0  0  0  0  0  0  0  0  0  0  0  0
   25.7066  -20.8590  -12.0559 C   0  0  0  0  0  0  0  0  0  0  0  0
   26.4814  -20.9308  -13.0368 O   0  0  0  0  0  0  0  0  0  0  0  0
   28.9650  -19.9122   -8.6661 C   0  0  0  0  0  0  0  0  0  0  0  0
   29.3507  -19.8483   -7.3360 C   0  0  0  0  0  0  0  0  0  0  0  0
   20.4562  -21.4503  -12.1127 N   0  0  0  0  0  0  0  0  0  0  0  0
   21.1655  -22.5683  -12.6091 C   0  0  0  0  0  0  0  0  0  0  0  0
   20.8948  -23.7136  -12.1849 O   0  0  0  0  0  0  0  0  0  0  0  0
   22.2304  -22.3847  -13.6323 C   0  0  0  0  0  0  0  0  0  0  0  0
   22.4729  -20.9133  -13.9112 C   0  0  0  0  0  0  0  0  0  0  0  0
   23.8754  -20.5059  -13.6599 C   0  0  2  0  0  0  0  0  0  0  0  0
   24.3548  -20.5876  -12.3398 N   0  0  0  0  0  0  0  0  0  0  0  0
   24.0482  -19.1280  -14.2556 C   0  0  0  0  0  0  0  0  0  0  0  0
   23.7070  -18.1189  -13.5810 O   0  0  0  0  0  0  0  0  0  0  0  0
   28.9711  -16.8835  -17.3432 N   0  0  0  0  0  0  0  0  0  0  0  0
   28.3173  -18.1296  -17.5025 C   0  0  0  0  0  0  0  0  0  0  0  0
   29.0066  -19.0678  -18.0324 O   0  0  0  0  0  0  0  0  0  0  0  0
   26.9307  -18.4019  -17.0978 C   0  0  0  0  0  0  0  0  0  0  0  0
   26.1877  -17.3299  -16.4260 C   0  0  0  0  0  0  0  0  0  0  0  0
   24.7743  -17.5589  -16.0845 C   0  0  2  0  0  0  0  0  0  0  0  0
   24.5813  -18.9174  -15.5507 N   0  0  0  0  0  0  0  0  0  0  0  0
   23.7963  -17.3255  -17.1121 C   0  0  0  0  0  0  0  0  0  0  0  0
   23.0848  -18.2233  -17.6663 O   0  0  0  0  0  0  0  0  0  0  0  0
   23.5465  -16.0208  -17.6005 O   0  0  0  0  0  0  0  0  0  0  0  0
  2  1  1  0
  3  2  2  0
  4  3  1  0
  5 11  1  0
  5  4  2  0
  6  5  1  0
  7  6  1  0
  7  8  1  6
  9  7  1  0
  9 10  2  0
 11 12  2  0
 12  2  1  0
 13 14  1  0
 14 15  2  0
 16 17  1  0
 16 14  1  0
 18 19  1  0
 18 17  1  1
 19  9  1  0
 20 18  1  0
 21 20  2  0
 23 22  1  0
 23 24  2  0
 25 23  1  0
 26 25  1  0
 27 26  1  6
 27 28  1  0
 28 20  1  0
 29 27  1  0
 29 31  1  0
 30 29  2  0
M  END
$$$$
