YQQ.pdb
     RDKit          3D

 31 31  0  0  1  0  0  0  0  0999 V2000
   24.7402  -18.1769  -23.2318 O   0  0  0  0  0  0  0  0  0  0  0  0
   24.5437  -18.7507  -21.9728 C   0  0  0  0  0  0  0  0  0  0  0  0
   25.6230  -18.9549  -21.1736 C   0  0  0  0  0  0  0  0  0  0  0  0
   25.4732  -19.5260  -19.9064 C   0  0  0  0  0  0  0  0  0  0  0  0
   24.2256  -19.8871  -19.4570 C   0  0  0  0  0  0  0  0  0  0  0  0
   24.0414  -20.4878  -18.1348 C   0  0  0  0  0  0  0  0  0  0  0  0
   23.2485  -19.5817  -17.1928 C   0  0  2  0  0  0  0  0  0  0  0  0
   23.9698  -18.3281  -17.1237 N   0  0  0  0  0  0  0  0  0  0  0  0
   23.2317  -20.2157  -15.8624 C   0  0  0  0  0  0  0  0  0  0  0  0
   22.9533  -21.4333  -15.7732 O   0  0  0  0  0  0  0  0  0  0  0  0
   23.1431  -19.6774  -20.2698 C   0  0  0  0  0  0  0  0  0  0  0  0
   23.2943  -19.1110  -21.5261 C   0  0  0  0  0  0  0  0  0  0  0  0
   26.0270  -21.5847  -11.6989 N   0  0  0  0  0  0  0  0  0  0  0  0
   24.9548  -21.4724  -10.7839 C   0  0  0  0  0  0  0  0  0  0  0  0
   24.8958  -22.2415   -9.7991 O   0  0  0  0  0  0  0  0  0  0  0  0
   23.8997  -20.4433  -10.9904 C   0  0  0  0  0  0  0  0  0  0  0  0
   24.1403  -19.6623  -12.2686 C   0  0  0  0  0  0  0  0  0  0  0  0
   23.3294  -20.1591  -13.4050 C   0  0  2  0  0  0  0  0  0  0  0  0
   23.5101  -19.5437  -14.6572 N   0  0  0  0  0  0  0  0  0  0  0  0
   21.8866  -20.1478  -12.9560 C   0  0  0  0  0  0  0  0  0  0  0  0
   21.2672  -19.0509  -12.9036 O   0  0  0  0  0  0  0  0  0  0  0  0
   16.3717  -21.9404  -14.1024 N   0  0  0  0  0  0  0  0  0  0  0  0
   17.5173  -22.0659  -14.9253 C   0  0  0  0  0  0  0  0  0  0  0  0
   17.3579  -22.6969  -16.0265 O   0  0  0  0  0  0  0  0  0  0  0  0
   18.8427  -21.5208  -14.5988 C   0  0  0  0  0  0  0  0  0  0  0  0
   18.9777  -20.7328  -13.3687 C   0  0  0  0  0  0  0  0  0  0  0  0
   19.7587  -21.2940  -12.2543 C   0  0  2  0  0  0  0  0  0  0  0  0
   21.1925  -21.3261  -12.5876 N   0  0  0  0  0  0  0  0  0  0  0  0
   19.3731  -22.5870  -11.7578 C   0  0  0  0  0  0  0  0  0  0  0  0
   20.0304  -23.6638  -11.9250 O   0  0  0  0  0  0  0  0  0  0  0  0
   18.1808  -22.7588  -11.0148 O   0  0  0  0  0  0  0  0  0  0  0  0
  2  1  1  0
  3  2  2  0
  4  3  1  0
  5 11  1  0
  5  4  2  0
  6  5  1  0
  7  6  1  0
  7  8  1  1
  9  7  1  0
  9 10  2  0
 11 12  2  0
 12  2  1  0
 13 14  1  0
 14 15  2  0
 16 17  1  0
 16 14  1  0
 18 19  1  0
 18 17  1  1
 19  9  1  0
 20 18  1  0
 21 20  2  0
 23 22  1  0
 23 24  2  0
 25 23  1  0
 26 25  1  0
 27 26  1  6
 27 28  1  0
 28 20  1  0
 29 27  1  0
 29 31  1  0
 30 29  2  0
M  END
$$$$
