YQQ.pdb
     RDKit          3D

 31 31  0  0  1  0  0  0  0  0999 V2000
   27.3976  -19.8636   -5.9867 O   0  0  0  0  0  0  0  0  0  0  0  0
   27.1181  -20.0100   -7.3481 C   0  0  0  0  0  0  0  0  0  0  0  0
   28.0769  -19.6755   -8.2503 C   0  0  0  0  0  0  0  0  0  0  0  0
   27.8410  -19.8060   -9.6221 C   0  0  0  0  0  0  0  0  0  0  0  0
   26.6301  -20.2764  -10.0708 C   0  0  0  0  0  0  0  0  0  0  0  0
   26.3570  -20.4214  -11.5016 C   0  0  0  0  0  0  0  0  0  0  0  0
   26.7282  -21.8095  -12.0239 C   0  0  2  0  0  0  0  0  0  0  0  0
   28.1568  -21.7920  -12.2596 N   0  0  0  0  0  0  0  0  0  0  0  0
   26.0197  -22.0176  -13.2995 C   0  0  0  0  0  0  0  0  0  0  0  0
   26.4711  -21.4851  -14.3389 O   0  0  0  0  0  0  0  0  0  0  0  0
   25.6692  -20.6112   -9.1537 C   0  0  0  0  0  0  0  0  0  0  0  0
   25.9057  -20.4808   -7.7939 C   0  0  0  0  0  0  0  0  0  0  0  0
   26.3209  -25.4828  -16.6406 N   0  0  0  0  0  0  0  0  0  0  0  0
   25.0214  -25.4349  -17.1957 C   0  0  0  0  0  0  0  0  0  0  0  0
   24.8450  -25.7555  -18.3920 O   0  0  0  0  0  0  0  0  0  0  0  0
   23.8667  -25.0048  -16.3612 C   0  0  0  0  0  0  0  0  0  0  0  0
   24.3071  -24.6717  -14.9482 C   0  0  0  0  0  0  0  0  0  0  0  0
   24.3907  -23.2127  -14.7028 C   0  0  2  0  0  0  0  0  0  0  0  0
   24.8486  -22.7855  -13.4430 N   0  0  0  0  0  0  0  0  0  0  0  0
   23.0442  -22.6272  -15.0597 C   0  0  0  0  0  0  0  0  0  0  0  0
   22.3494  -23.1822  -15.9536 O   0  0  0  0  0  0  0  0  0  0  0  0
   19.0109  -24.7130  -12.4683 N   0  0  0  0  0  0  0  0  0  0  0  0
   18.3203  -23.5541  -12.8987 C   0  0  0  0  0  0  0  0  0  0  0  0
   17.0541  -23.5485  -12.7171 O   0  0  0  0  0  0  0  0  0  0  0  0
   18.9589  -22.3847  -13.5194 C   0  0  0  0  0  0  0  0  0  0  0  0
   20.4051  -22.4385  -13.7602 C   0  0  0  0  0  0  0  0  0  0  0  0
   21.0711  -21.2511  -14.3199 C   0  0  2  0  0  0  0  0  0  0  0  0
   22.5228  -21.4713  -14.4288 N   0  0  0  0  0  0  0  0  0  0  0  0
   20.8452  -19.9917  -13.6641 C   0  0  0  0  0  0  0  0  0  0  0  0
   21.3943  -19.6205  -12.5778 O   0  0  0  0  0  0  0  0  0  0  0  0
   19.9551  -19.0345  -14.2067 O   0  0  0  0  0  0  0  0  0  0  0  0
  2  1  1  0
  3  2  2  0
  4  3  1  0
  5 11  1  0
  5  4  2  0
  6  5  1  0
  7  6  1  0
  7  8  1  6
  9  7  1  0
  9 10  2  0
 11 12  2  0
 12  2  1  0
 13 14  1  0
 14 15  2  0
 16 17  1  0
 16 14  1  0
 18 19  1  0
 18 17  1  1
 19  9  1  0
 20 18  1  0
 21 20  2  0
 23 22  1  0
 23 24  2  0
 25 23  1  0
 26 25  1  0
 27 26  1  1
 27 28  1  0
 28 20  1  0
 29 27  1  0
 29 31  1  0
 30 29  2  0
M  END
$$$$
