SVS.pdb
     RDKit          3D

 20 19  0  0  1  0  0  0  0  0999 V2000
   24.3852  -12.3979  -13.9696 O   0  0  0  0  0  0  0  0  0  0  0  0
   24.3914  -11.6921  -15.1681 C   0  0  0  0  0  0  0  0  0  0  0  0
   23.0826  -11.8731  -15.9015 C   0  0  2  0  0  0  0  0  0  0  0  0
   23.2163  -12.9189  -16.8757 N   0  0  0  0  0  0  0  0  0  0  0  0
   22.6697  -10.6082  -16.5822 C   0  0  0  0  0  0  0  0  0  0  0  0
   23.1728  -10.3101  -17.6766 O   0  0  0  0  0  0  0  0  0  0  0  0
   19.9812   -9.4876  -18.5560 C   0  0  0  0  0  0  0  0  0  0  0  0
   19.9434   -8.6184  -17.3476 C   0  0  2  0  0  0  0  0  0  0  0  0
   19.3870   -7.2290  -17.6751 C   0  0  0  0  0  0  0  0  0  0  0  0
   21.2150   -8.5222  -16.5591 C   0  0  2  0  0  0  0  0  0  0  0  0
   21.7101   -9.7274  -16.0108 N   0  0  0  0  0  0  0  0  0  0  0  0
   21.1524   -7.3647  -15.6227 C   0  0  0  0  0  0  0  0  0  0  0  0
   20.3801   -7.4264  -14.6089 O   0  0  0  0  0  0  0  0  0  0  0  0
   22.6744   -2.9411  -14.1473 O   0  0  0  0  0  0  0  0  0  0  0  0
   22.8302   -4.0233  -15.0101 C   0  0  0  0  0  0  0  0  0  0  0  0
   21.7772   -5.0802  -14.7727 C   0  0  2  0  0  0  0  0  0  0  0  0
   21.8842   -6.1618  -15.7490 N   0  0  0  0  0  0  0  0  0  0  0  0
   20.4431   -4.4775  -14.8936 C   0  0  0  0  0  0  0  0  0  0  0  0
   19.7040   -4.1868  -13.7729 O   0  0  0  0  0  0  0  0  0  0  0  0
   19.9782   -4.2279  -16.0225 O   0  0  0  0  0  0  0  0  0  0  0  0
  2  3  1  0
  2  1  1  0
  3  4  1  6
  5  3  1  0
  5  6  2  0
  8  7  1  6
  8 10  1  0
  9  8  1  0
 10 11  1  1
 10 12  1  0
 11  5  1  0
 12 13  2  0
 12 17  1  0
 14 15  1  0
 16 15  1  6
 16 18  1  0
 17 16  1  0
 18 20  2  0
 18 19  1  0
M  END
$$$$
