SVS.pdb
     RDKit          3D

 20 19  0  0  1  0  0  0  0  0999 V2000
   17.1877   -9.9691  -19.8159 O   0  0  0  0  0  0  0  0  0  0  0  0
   17.6473   -9.5698  -18.5653 C   0  0  0  0  0  0  0  0  0  0  0  0
   18.2638  -10.7345  -17.8258 C   0  0  2  0  0  0  0  0  0  0  0  0
   17.2361  -11.6603  -17.4419 N   0  0  0  0  0  0  0  0  0  0  0  0
   18.9958  -10.2701  -16.6083 C   0  0  0  0  0  0  0  0  0  0  0  0
   18.3833  -10.1464  -15.5364 O   0  0  0  0  0  0  0  0  0  0  0  0
   22.2776  -11.7292  -15.0429 C   0  0  0  0  0  0  0  0  0  0  0  0
   22.4420  -10.2709  -15.2945 C   0  0  2  0  0  0  0  0  0  0  0  0
   23.2719   -9.6033  -14.1933 C   0  0  0  0  0  0  0  0  0  0  0  0
   21.1866   -9.4995  -15.5717 C   0  0  2  0  0  0  0  0  0  0  0  0
   20.3842   -9.9627  -16.6394 N   0  0  0  0  0  0  0  0  0  0  0  0
   21.4705   -8.0367  -15.5651 C   0  0  0  0  0  0  0  0  0  0  0  0
   22.1837   -7.5377  -16.4980 O   0  0  0  0  0  0  0  0  0  0  0  0
   19.3008   -5.1902  -15.8748 O   0  0  0  0  0  0  0  0  0  0  0  0
   20.0602   -4.8614  -14.7545 C   0  0  0  0  0  0  0  0  0  0  0  0
   21.3228   -5.6871  -14.6765 C   0  0  2  0  0  0  0  0  0  0  0  0
   21.0176   -7.1135  -14.5950 N   0  0  0  0  0  0  0  0  0  0  0  0
   22.0826   -5.3070  -13.4781 C   0  0  0  0  0  0  0  0  0  0  0  0
   22.1479   -6.1504  -12.3960 O   0  0  0  0  0  0  0  0  0  0  0  0
   22.6728   -4.2099  -13.4432 O   0  0  0  0  0  0  0  0  0  0  0  0
  2  3  1  0
  2  1  1  0
  3  4  1  1
  5  3  1  0
  5  6  2  0
  8  7  1  1
  8 10  1  0
  9  8  1  0
 10 11  1  6
 10 12  1  0
 11  5  1  0
 12 13  2  0
 12 17  1  0
 14 15  1  0
 16 15  1  1
 16 18  1  0
 17 16  1  0
 18 20  2  0
 18 19  1  0
M  END
$$$$
