SVS.pdb
     RDKit          3D

 20 19  0  0  1  0  0  0  0  0999 V2000
   18.4390  -10.2447  -20.9406 O   0  0  0  0  0  0  0  0  0  0  0  0
   18.6461   -9.7451  -19.6591 C   0  0  0  0  0  0  0  0  0  0  0  0
   19.2485  -10.8032  -18.7641 C   0  0  2  0  0  0  0  0  0  0  0  0
   18.3004  -11.8623  -18.5639 N   0  0  0  0  0  0  0  0  0  0  0  0
   19.6393  -10.2279  -17.4412 C   0  0  0  0  0  0  0  0  0  0  0  0
   18.7726  -10.0505  -16.5712 O   0  0  0  0  0  0  0  0  0  0  0  0
   22.4425  -11.6838  -15.1790 C   0  0  0  0  0  0  0  0  0  0  0  0
   22.6606  -10.2213  -15.3535 C   0  0  2  0  0  0  0  0  0  0  0  0
   23.2039   -9.5799  -14.0726 C   0  0  0  0  0  0  0  0  0  0  0  0
   21.5065   -9.4392  -15.9051 C   0  0  2  0  0  0  0  0  0  0  0  0
   20.9847   -9.8741  -17.1448 N   0  0  0  0  0  0  0  0  0  0  0  0
   21.7771   -7.9779  -15.7957 C   0  0  0  0  0  0  0  0  0  0  0  0
   22.6762   -7.4551  -16.5348 O   0  0  0  0  0  0  0  0  0  0  0  0
   20.3022   -3.4905  -14.8585 O   0  0  0  0  0  0  0  0  0  0  0  0
   20.0737   -4.8624  -14.9347 C   0  0  0  0  0  0  0  0  0  0  0  0
   21.3678   -5.6415  -14.9555 C   0  0  2  0  0  0  0  0  0  0  0  0
   21.1190   -7.0808  -14.9236 N   0  0  0  0  0  0  0  0  0  0  0  0
   22.1727   -5.2846  -13.7797 C   0  0  0  0  0  0  0  0  0  0  0  0
   23.0553   -4.2333  -13.8307 O   0  0  0  0  0  0  0  0  0  0  0  0
   22.0537   -5.9413  -12.7273 O   0  0  0  0  0  0  0  0  0  0  0  0
  2  3  1  0
  2  1  1  0
  3  4  1  1
  5  3  1  0
  5  6  2  0
  8  7  1  1
  8 10  1  0
  9  8  1  0
 10 11  1  6
 10 12  1  0
 11  5  1  0
 12 13  2  0
 12 17  1  0
 14 15  1  0
 16 15  1  1
 16 18  1  0
 17 16  1  0
 18 20  2  0
 18 19  1  0
M  END
$$$$
