SVS.pdb
     RDKit          3D

 20 19  0  0  1  0  0  0  0  0999 V2000
   18.3274  -12.5930  -14.4912 O   0  0  0  0  0  0  0  0  0  0  0  0
   19.0738  -11.5296  -14.9881 C   0  0  0  0  0  0  0  0  0  0  0  0
   18.8565  -11.3734  -16.4754 C   0  0  2  0  0  0  0  0  0  0  0  0
   19.5001  -12.4507  -17.1725 N   0  0  0  0  0  0  0  0  0  0  0  0
   19.4004  -10.0694  -16.9630 C   0  0  0  0  0  0  0  0  0  0  0  0
   20.5282  -10.0316  -17.4787 O   0  0  0  0  0  0  0  0  0  0  0  0
   17.8186   -7.3781  -19.4244 C   0  0  0  0  0  0  0  0  0  0  0  0
   18.1345   -6.7823  -18.0970 C   0  0  2  0  0  0  0  0  0  0  0  0
   18.5818   -5.3231  -18.2308 C   0  0  0  0  0  0  0  0  0  0  0  0
   19.0748   -7.5610  -17.2267 C   0  0  2  0  0  0  0  0  0  0  0  0
   18.6600   -8.8599  -16.8538 N   0  0  0  0  0  0  0  0  0  0  0  0
   19.5799   -6.7018  -16.1189 C   0  0  0  0  0  0  0  0  0  0  0  0
   18.7852   -6.3702  -15.1775 O   0  0  0  0  0  0  0  0  0  0  0  0
   23.2364   -4.4372  -13.7672 O   0  0  0  0  0  0  0  0  0  0  0  0
   22.8132   -5.1573  -14.8817 C   0  0  0  0  0  0  0  0  0  0  0  0
   21.3220   -5.3972  -14.8558 C   0  0  2  0  0  0  0  0  0  0  0  0
   20.8949   -6.1961  -16.0020 N   0  0  0  0  0  0  0  0  0  0  0  0
   20.6183   -4.1086  -14.9015 C   0  0  0  0  0  0  0  0  0  0  0  0
   20.5841   -3.3724  -16.0605 O   0  0  0  0  0  0  0  0  0  0  0  0
   20.0476   -3.6800  -13.8799 O   0  0  0  0  0  0  0  0  0  0  0  0
  2  3  1  0
  2  1  1  0
  3  4  1  6
  5  3  1  0
  5  6  2  0
  8  7  1  6
  8 10  1  0
  9  8  1  0
 10 11  1  1
 10 12  1  0
 11  5  1  0
 12 13  2  0
 12 17  1  0
 14 15  1  0
 16 15  1  6
 16 18  1  0
 17 16  1  0
 18 20  2  0
 18 19  1  0
M  END
$$$$
