SVS.pdb
     RDKit          3D

 20 19  0  0  1  0  0  0  0  0999 V2000
   14.3653  -12.8183  -15.5564 O   0  0  0  0  0  0  0  0  0  0  0  0
   15.1017  -12.1216  -14.6041 C   0  0  0  0  0  0  0  0  0  0  0  0
   16.5097  -11.8741  -15.0938 C   0  0  2  0  0  0  0  0  0  0  0  0
   17.1879  -13.1276  -15.2655 N   0  0  0  0  0  0  0  0  0  0  0  0
   17.2715  -11.0237  -14.1293 C   0  0  0  0  0  0  0  0  0  0  0  0
   17.8804  -11.5593  -13.1902 O   0  0  0  0  0  0  0  0  0  0  0  0
   19.0541   -7.1815  -15.1780 C   0  0  0  0  0  0  0  0  0  0  0  0
   19.2508   -8.0742  -14.0026 C   0  0  2  0  0  0  0  0  0  0  0  0
   20.3262   -9.1305  -14.2761 C   0  0  0  0  0  0  0  0  0  0  0  0
   18.0137   -8.6950  -13.4263 C   0  0  2  0  0  0  0  0  0  0  0  0
   17.3213   -9.6077  -14.2544 N   0  0  0  0  0  0  0  0  0  0  0  0
   17.1739   -7.6533  -12.7704 C   0  0  0  0  0  0  0  0  0  0  0  0
   16.3350   -6.9978  -13.4735 O   0  0  0  0  0  0  0  0  0  0  0  0
   17.5222   -6.4160   -8.7358 O   0  0  0  0  0  0  0  0  0  0  0  0
   16.2729   -6.3496   -9.3479 C   0  0  0  0  0  0  0  0  0  0  0  0
   16.3945   -6.2279  -10.8488 C   0  0  2  0  0  0  0  0  0  0  0  0
   17.2156   -7.3024  -11.4016 N   0  0  0  0  0  0  0  0  0  0  0  0
   17.0236   -4.9440  -11.1861 C   0  0  0  0  0  0  0  0  0  0  0  0
   16.3568   -3.7623  -10.9728 O   0  0  0  0  0  0  0  0  0  0  0  0
   18.1719   -4.9272  -11.6699 O   0  0  0  0  0  0  0  0  0  0  0  0
  2  3  1  0
  2  1  1  0
  3  4  1  1
  5  3  1  0
  5  6  2  0
  8  7  1  6
  8 10  1  0
  9  8  1  0
 10 11  1  6
 10 12  1  0
 11  5  1  0
 12 13  2  0
 12 17  1  0
 14 15  1  0
 16 15  1  1
 16 18  1  0
 17 16  1  0
 18 20  2  0
 18 19  1  0
M  END
$$$$
