SVS.pdb
     RDKit          3D

 20 19  0  0  1  0  0  0  0  0999 V2000
   15.9647  -11.4134  -13.7582 O   0  0  0  0  0  0  0  0  0  0  0  0
   16.8914  -10.4794  -14.2096 C   0  0  0  0  0  0  0  0  0  0  0  0
   16.6038  -10.0904  -15.6412 C   0  0  2  0  0  0  0  0  0  0  0  0
   16.7821  -11.2300  -16.4957 N   0  0  0  0  0  0  0  0  0  0  0  0
   17.5064   -8.9863  -16.0887 C   0  0  0  0  0  0  0  0  0  0  0  0
   18.4990   -9.2516  -16.7843 O   0  0  0  0  0  0  0  0  0  0  0  0
   16.6565   -5.6411  -18.0332 C   0  0  0  0  0  0  0  0  0  0  0  0
   17.3085   -5.3566  -16.7251 C   0  0  2  0  0  0  0  0  0  0  0  0
   18.1915   -4.1069  -16.8003 C   0  0  0  0  0  0  0  0  0  0  0  0
   18.0379   -6.4993  -16.0846 C   0  0  2  0  0  0  0  0  0  0  0  0
   17.2618   -7.6293  -15.7397 N   0  0  0  0  0  0  0  0  0  0  0  0
   18.9508   -5.9941  -15.0206 C   0  0  0  0  0  0  0  0  0  0  0  0
   18.4516   -5.4484  -13.9809 O   0  0  0  0  0  0  0  0  0  0  0  0
   22.0626   -7.7997  -13.4464 O   0  0  0  0  0  0  0  0  0  0  0  0
   22.4060   -6.4874  -13.7620 C   0  0  0  0  0  0  0  0  0  0  0  0
   21.1828   -5.6154  -13.9222 C   0  0  2  0  0  0  0  0  0  0  0  0
   20.3628   -6.0566  -15.0480 N   0  0  0  0  0  0  0  0  0  0  0  0
   21.5996   -4.2285  -14.1684 C   0  0  0  0  0  0  0  0  0  0  0  0
   22.1081   -3.4608  -13.1492 O   0  0  0  0  0  0  0  0  0  0  0  0
   21.4907   -3.7446  -15.3116 O   0  0  0  0  0  0  0  0  0  0  0  0
  2  3  1  0
  2  1  1  0
  3  4  1  6
  5  3  1  0
  5  6  2  0
  8  7  1  6
  8 10  1  0
  9  8  1  0
 10 11  1  1
 10 12  1  0
 11  5  1  0
 12 13  2  0
 12 17  1  0
 14 15  1  0
 16 15  1  6
 16 18  1  0
 17 16  1  0
 18 20  2  0
 18 19  1  0
M  END
$$$$
