SVS.pdb
     RDKit          3D

 20 19  0  0  1  0  0  0  0  0999 V2000
   31.5391  -23.6838  -18.8150 O   0  0  0  0  0  0  0  0  0  0  0  0
   31.1392  -24.9126  -18.3003 C   0  0  0  0  0  0  0  0  0  0  0  0
   30.3179  -24.7246  -17.0459 C   0  0  2  0  0  0  0  0  0  0  0  0
   31.1704  -24.3058  -15.9695 N   0  0  0  0  0  0  0  0  0  0  0  0
   29.6215  -25.9912  -16.6657 C   0  0  0  0  0  0  0  0  0  0  0  0
   30.1149  -26.7223  -15.7931 O   0  0  0  0  0  0  0  0  0  0  0  0
   25.4277  -28.5094  -16.1846 C   0  0  0  0  0  0  0  0  0  0  0  0
   26.2031  -27.3057  -16.5931 C   0  0  2  0  0  0  0  0  0  0  0  0
   25.4560  -26.4931  -17.6555 C   0  0  0  0  0  0  0  0  0  0  0  0
   27.6297  -27.5386  -16.9912 C   0  0  2  0  0  0  0  0  0  0  0  0
   28.4006  -26.3889  -17.2776 N   0  0  0  0  0  0  0  0  0  0  0  0
   27.7099  -28.6363  -17.9958 C   0  0  0  0  0  0  0  0  0  0  0  0
   27.3547  -28.4047  -19.1992 O   0  0  0  0  0  0  0  0  0  0  0  0
   29.3966  -32.9809  -19.4356 O   0  0  0  0  0  0  0  0  0  0  0  0
   29.2654  -32.0300  -18.4264 C   0  0  0  0  0  0  0  0  0  0  0  0
   28.2786  -30.9504  -18.8042 C   0  0  2  0  0  0  0  0  0  0  0  0
   28.1515  -29.9551  -17.7423 N   0  0  0  0  0  0  0  0  0  0  0  0
   26.9588  -31.5528  -19.0346 C   0  0  0  0  0  0  0  0  0  0  0  0
   26.5272  -31.8223  -20.3104 O   0  0  0  0  0  0  0  0  0  0  0  0
   26.2247  -31.8216  -18.0641 O   0  0  0  0  0  0  0  0  0  0  0  0
  2  3  1  0
  2  1  1  0
  3  4  1  1
  5  3  1  0
  5  6  2  0
  8  7  1  6
  8 10  1  0
  9  8  1  0
 10 11  1  6
 10 12  1  0
 11  5  1  0
 12 13  2  0
 12 17  1  0
 14 15  1  0
 16 15  1  1
 16 18  1  0
 17 16  1  0
 18 20  2  0
 18 19  1  0
M  END
$$$$
