GNV.pdb
     RDKit          3D

 20 19  0  0  1  0  0  0  0  0999 V2000
    8.1522  -13.0257   17.5973 N   0  0  0  0  0  0  0  0  0  0  0  0
    8.8930  -13.3188   18.7884 C   0  0  0  0  0  0  0  0  0  0  0  0
    8.1314  -14.0364   19.8245 C   0  0  0  0  0  0  0  0  0  0  0  0
    6.8834  -14.1030   19.6681 O   0  0  0  0  0  0  0  0  0  0  0  0
    9.9148  -16.4591   20.1910 N   0  0  0  0  0  0  0  0  0  0  0  0
    9.0296  -17.1923   21.0071 C   0  0  0  0  0  0  0  0  0  0  0  0
    9.0985  -18.4632   20.8985 O   0  0  0  0  0  0  0  0  0  0  0  0
    8.0529  -16.6852   21.9535 C   0  0  0  0  0  0  0  0  0  0  0  0
    7.8518  -15.2167   22.0206 C   0  0  2  0  0  0  0  0  0  0  0  0
    8.6847  -14.6432   20.9579 N   0  0  0  0  0  0  0  0  0  0  0  0
    8.3840  -14.6660   23.2900 C   0  0  0  0  0  0  0  0  0  0  0  0
    9.5942  -14.3562   23.4049 O   0  0  0  0  0  0  0  0  0  0  0  0
    7.7986  -11.8693   27.1898 C   0  0  0  0  0  0  0  0  0  0  0  0
    7.2142  -12.6153   26.0230 C   0  0  2  0  0  0  0  0  0  0  0  0
    5.8599  -13.1379   26.4368 C   0  0  0  0  0  0  0  0  0  0  0  0
    8.0953  -13.7792   25.6139 C   0  0  2  0  0  0  0  0  0  0  0  0
    7.5584  -14.4558   24.4520 N   0  0  0  0  0  0  0  0  0  0  0  0
    8.2529  -14.7576   26.7015 C   0  0  0  0  0  0  0  0  0  0  0  0
    8.9954  -14.4322   27.8210 O   0  0  0  0  0  0  0  0  0  0  0  0
    7.7264  -15.8979   26.6453 O   0  0  0  0  0  0  0  0  0  0  0  0
  2  1  1  0
  3  2  1  0
  4  3  2  0
  6  7  2  0
  6  5  1  0
  8  6  1  0
  9  8  1  1
  9 10  1  0
 10  3  1  0
 11 17  1  0
 11  9  1  0
 12 11  2  0
 14 13  1  1
 14 15  1  0
 16 14  1  0
 16 17  1  6
 18 16  1  0
 18 19  1  0
 20 18  2  0
M  END
$$$$
