GNV.pdb
     RDKit          3D

 20 19  0  0  1  0  0  0  0  0999 V2000
    7.3080  -17.7335   19.2523 N   0  0  0  0  0  0  0  0  0  0  0  0
    8.1836  -17.6070   20.3796 C   0  0  0  0  0  0  0  0  0  0  0  0
    7.5049  -17.3274   21.6562 C   0  0  0  0  0  0  0  0  0  0  0  0
    6.3138  -16.9232   21.5895 O   0  0  0  0  0  0  0  0  0  0  0  0
    5.6871  -19.9309   24.8006 N   0  0  0  0  0  0  0  0  0  0  0  0
    7.0521  -19.5794   24.8255 C   0  0  0  0  0  0  0  0  0  0  0  0
    7.8733  -20.5257   24.5767 O   0  0  0  0  0  0  0  0  0  0  0  0
    7.6394  -18.2802   25.0969 C   0  0  0  0  0  0  0  0  0  0  0  0
    7.3385  -17.1741   24.1548 C   0  0  2  0  0  0  0  0  0  0  0  0
    8.0783  -17.4754   22.9244 N   0  0  0  0  0  0  0  0  0  0  0  0
    7.8894  -15.8902   24.6510 C   0  0  0  0  0  0  0  0  0  0  0  0
    9.1076  -15.6175   24.5284 O   0  0  0  0  0  0  0  0  0  0  0  0
    7.2553  -11.2849   26.3900 C   0  0  0  0  0  0  0  0  0  0  0  0
    6.6527  -12.5467   25.8386 C   0  0  2  0  0  0  0  0  0  0  0  0
    5.5146  -12.9522   26.7434 C   0  0  0  0  0  0  0  0  0  0  0  0
    7.6716  -13.6679   25.7841 C   0  0  2  0  0  0  0  0  0  0  0  0
    7.0736  -14.8921   25.2946 N   0  0  0  0  0  0  0  0  0  0  0  0
    8.2731  -13.9280   27.1016 C   0  0  0  0  0  0  0  0  0  0  0  0
    9.1487  -13.0122   27.6540 O   0  0  0  0  0  0  0  0  0  0  0  0
    8.0130  -14.9722   27.7517 O   0  0  0  0  0  0  0  0  0  0  0  0
  2  1  1  0
  3  2  1  0
  4  3  2  0
  6  7  2  0
  6  5  1  0
  8  6  1  0
  9  8  1  1
  9 10  1  0
 10  3  1  0
 11 17  1  0
 11  9  1  0
 12 11  2  0
 14 13  1  1
 14 15  1  0
 16 14  1  0
 16 17  1  1
 18 16  1  0
 18 19  1  0
 20 18  2  0
M  END
$$$$
