GNV.pdb
     RDKit          3D

 20 19  0  0  1  0  0  0  0  0999 V2000
    8.1638  -12.8149   18.1214 N   0  0  0  0  0  0  0  0  0  0  0  0
    8.7905  -13.7268   19.0320 C   0  0  0  0  0  0  0  0  0  0  0  0
    8.0304  -13.9808   20.2673 C   0  0  0  0  0  0  0  0  0  0  0  0
    6.8085  -13.6752   20.2553 O   0  0  0  0  0  0  0  0  0  0  0  0
    6.7823  -17.8259   20.4170 N   0  0  0  0  0  0  0  0  0  0  0  0
    6.7642  -17.2756   21.7148 C   0  0  0  0  0  0  0  0  0  0  0  0
    5.6784  -17.4327   22.3689 O   0  0  0  0  0  0  0  0  0  0  0  0
    7.8224  -16.5555   22.3990 C   0  0  0  0  0  0  0  0  0  0  0  0
    7.7031  -15.0799   22.4987 C   0  0  2  0  0  0  0  0  0  0  0  0
    8.5585  -14.5305   21.4413 N   0  0  0  0  0  0  0  0  0  0  0  0
    8.2744  -14.5867   23.7749 C   0  0  0  0  0  0  0  0  0  0  0  0
    9.5031  -14.6753   24.0117 O   0  0  0  0  0  0  0  0  0  0  0  0
    5.8602  -12.8478   26.9485 C   0  0  0  0  0  0  0  0  0  0  0  0
    7.2744  -12.4196   26.6729 C   0  0  2  0  0  0  0  0  0  0  0  0
    7.2280  -11.2447   25.7264 C   0  0  0  0  0  0  0  0  0  0  0  0
    8.0776  -13.5391   26.0407 C   0  0  2  0  0  0  0  0  0  0  0  0
    7.4675  -13.9850   24.8058 N   0  0  0  0  0  0  0  0  0  0  0  0
    8.2176  -14.6924   26.9437 C   0  0  0  0  0  0  0  0  0  0  0  0
    9.0123  -14.5950   28.0703 O   0  0  0  0  0  0  0  0  0  0  0  0
    7.6290  -15.7808   26.7208 O   0  0  0  0  0  0  0  0  0  0  0  0
  2  1  1  0
  3  2  1  0
  4  3  2  0
  6  7  2  0
  6  5  1  0
  8  6  1  0
  9  8  1  1
  9 10  1  0
 10  3  1  0
 11 17  1  0
 11  9  1  0
 12 11  2  0
 14 13  1  6
 14 15  1  0
 16 14  1  0
 16 17  1  6
 18 16  1  0
 18 19  1  0
 20 18  2  0
M  END
$$$$
