GNV.pdb
     RDKit          3D

 20 19  0  0  1  0  0  0  0  0999 V2000
    7.6708  -13.0763   18.2746 N   0  0  0  0  0  0  0  0  0  0  0  0
    8.3854  -12.8504   19.4960 C   0  0  0  0  0  0  0  0  0  0  0  0
    7.9614  -13.6997   20.6218 C   0  0  0  0  0  0  0  0  0  0  0  0
    6.7317  -13.9589   20.7059 O   0  0  0  0  0  0  0  0  0  0  0  0
    7.4562  -18.1423   21.4241 N   0  0  0  0  0  0  0  0  0  0  0  0
    8.5689  -17.2768   21.4319 C   0  0  0  0  0  0  0  0  0  0  0  0
    9.2676  -17.2619   20.3627 O   0  0  0  0  0  0  0  0  0  0  0  0
    9.0182  -16.4024   22.4996 C   0  0  0  0  0  0  0  0  0  0  0  0
    8.3219  -15.1033   22.6697 C   0  0  2  0  0  0  0  0  0  0  0  0
    8.8136  -14.2346   21.5948 N   0  0  0  0  0  0  0  0  0  0  0  0
    8.7274  -14.4459   23.9352 C   0  0  0  0  0  0  0  0  0  0  0  0
    9.9294  -14.1709   24.1661 O   0  0  0  0  0  0  0  0  0  0  0  0
    5.8932  -13.0359   26.8825 C   0  0  0  0  0  0  0  0  0  0  0  0
    7.2814  -12.4791   26.7325 C   0  0  2  0  0  0  0  0  0  0  0  0
    7.2190  -11.3336   25.7515 C   0  0  0  0  0  0  0  0  0  0  0  0
    8.2449  -13.5287   26.2146 C   0  0  2  0  0  0  0  0  0  0  0  0
    7.7822  -14.0879   24.9620 N   0  0  0  0  0  0  0  0  0  0  0  0
    8.4364  -14.6225   27.1800 C   0  0  0  0  0  0  0  0  0  0  0  0
    9.0703  -14.3783   28.3837 O   0  0  0  0  0  0  0  0  0  0  0  0
    8.0363  -15.7906   26.9424 O   0  0  0  0  0  0  0  0  0  0  0  0
  2  1  1  0
  3  2  1  0
  4  3  2  0
  6  7  2  0
  6  5  1  0
  8  6  1  0
  9  8  1  6
  9 10  1  0
 10  3  1  0
 11 17  1  0
 11  9  1  0
 12 11  2  0
 14 13  1  6
 14 15  1  0
 16 14  1  0
 16 17  1  6
 18 16  1  0
 18 19  1  0
 20 18  2  0
M  END
$$$$
