GNV.pdb
     RDKit          3D

 20 19  0  0  1  0  0  0  0  0999 V2000
    7.2696  -12.9354   18.8391 N   0  0  0  0  0  0  0  0  0  0  0  0
    8.4039  -13.5109   19.4991 C   0  0  0  0  0  0  0  0  0  0  0  0
    8.0812  -14.2971   20.7017 C   0  0  0  0  0  0  0  0  0  0  0  0
    6.8659  -14.3665   21.0256 O   0  0  0  0  0  0  0  0  0  0  0  0
   10.2605  -18.1670   20.4769 N   0  0  0  0  0  0  0  0  0  0  0  0
    9.3893  -17.9380   21.5614 C   0  0  0  0  0  0  0  0  0  0  0  0
    8.3487  -18.6776   21.6029 O   0  0  0  0  0  0  0  0  0  0  0  0
    9.5270  -16.9700   22.6341 C   0  0  0  0  0  0  0  0  0  0  0  0
    8.6091  -15.8043   22.6366 C   0  0  2  0  0  0  0  0  0  0  0  0
    9.0138  -14.9657   21.5031 N   0  0  0  0  0  0  0  0  0  0  0  0
    8.8129  -14.9714   23.8460 C   0  0  0  0  0  0  0  0  0  0  0  0
    9.9456  -14.5171   24.1363 O   0  0  0  0  0  0  0  0  0  0  0  0
    6.2477  -12.1810   25.2390 C   0  0  0  0  0  0  0  0  0  0  0  0
    6.7551  -13.0675   26.3418 C   0  0  2  0  0  0  0  0  0  0  0  0
    7.0841  -12.1926   27.5270 C   0  0  0  0  0  0  0  0  0  0  0  0
    7.9996  -13.8215   25.9164 C   0  0  2  0  0  0  0  0  0  0  0  0
    7.7407  -14.6374   24.7488 N   0  0  0  0  0  0  0  0  0  0  0  0
    8.5143  -14.6833   26.9922 C   0  0  0  0  0  0  0  0  0  0  0  0
    9.4377  -14.1867   27.8928 O   0  0  0  0  0  0  0  0  0  0  0  0
    8.1360  -15.8754   27.1214 O   0  0  0  0  0  0  0  0  0  0  0  0
  2  1  1  0
  3  2  1  0
  4  3  2  0
  6  7  2  0
  6  5  1  0
  8  6  1  0
  9  8  1  1
  9 10  1  0
 10  3  1  0
 11 17  1  0
 11  9  1  0
 12 11  2  0
 14 13  1  6
 14 15  1  0
 16 14  1  0
 16 17  1  6
 18 16  1  0
 18 19  1  0
 20 18  2  0
M  END
$$$$
