GNV.pdb
     RDKit          3D

 20 19  0  0  1  0  0  0  0  0999 V2000
    5.5429  -19.1314   22.0534 N   0  0  0  0  0  0  0  0  0  0  0  0
    5.4232  -17.7689   22.4812 C   0  0  0  0  0  0  0  0  0  0  0  0
    6.6006  -16.9308   22.1987 C   0  0  0  0  0  0  0  0  0  0  0  0
    7.6297  -17.5212   21.7757 O   0  0  0  0  0  0  0  0  0  0  0  0
    8.3868  -12.4649   19.1495 N   0  0  0  0  0  0  0  0  0  0  0  0
    7.8634  -13.5643   19.8598 C   0  0  0  0  0  0  0  0  0  0  0  0
    7.7545  -14.6515   19.1980 O   0  0  0  0  0  0  0  0  0  0  0  0
    7.4347  -13.6157   21.2455 C   0  0  0  0  0  0  0  0  0  0  0  0
    7.8736  -14.7732   22.0635 C   0  0  2  0  0  0  0  0  0  0  0  0
    6.6609  -15.5422   22.3635 N   0  0  0  0  0  0  0  0  0  0  0  0
    8.4011  -14.3263   23.3750 C   0  0  0  0  0  0  0  0  0  0  0  0
    9.5796  -13.9129   23.4924 O   0  0  0  0  0  0  0  0  0  0  0  0
    5.9019  -13.5140   26.7391 C   0  0  0  0  0  0  0  0  0  0  0  0
    7.2883  -12.9588   26.5687 C   0  0  2  0  0  0  0  0  0  0  0  0
    7.1832  -11.6846   25.7664 C   0  0  0  0  0  0  0  0  0  0  0  0
    8.1892  -13.9358   25.8393 C   0  0  2  0  0  0  0  0  0  0  0  0
    7.6064  -14.3389   24.5768 N   0  0  0  0  0  0  0  0  0  0  0  0
    8.4591  -15.1388   26.6423 C   0  0  0  0  0  0  0  0  0  0  0  0
    9.1095  -15.0270   27.8568 O   0  0  0  0  0  0  0  0  0  0  0  0
    8.1124  -16.2834   26.2543 O   0  0  0  0  0  0  0  0  0  0  0  0
  2  1  1  0
  3  2  1  0
  4  3  2  0
  6  7  2  0
  6  5  1  0
  8  6  1  0
  9  8  1  6
  9 10  1  0
 10  3  1  0
 11 17  1  0
 11  9  1  0
 12 11  2  0
 14 13  1  6
 14 15  1  0
 16 14  1  0
 16 17  1  6
 18 16  1  0
 18 19  1  0
 20 18  2  0
M  END
$$$$
