GNV.pdb
     RDKit          3D

 20 19  0  0  1  0  0  0  0  0999 V2000
    5.3725  -18.4929   20.1872 N   0  0  0  0  0  0  0  0  0  0  0  0
    6.5293  -17.9120   20.8019 C   0  0  0  0  0  0  0  0  0  0  0  0
    6.4469  -17.7824   22.2664 C   0  0  0  0  0  0  0  0  0  0  0  0
    5.3326  -18.0344   22.7970 O   0  0  0  0  0  0  0  0  0  0  0  0
    6.3325  -19.1447   26.7315 N   0  0  0  0  0  0  0  0  0  0  0  0
    7.6337  -19.1937   26.1915 C   0  0  0  0  0  0  0  0  0  0  0  0
    8.4102  -20.0748   26.6940 O   0  0  0  0  0  0  0  0  0  0  0  0
    8.1998  -18.3710   25.1383 C   0  0  0  0  0  0  0  0  0  0  0  0
    7.3466  -17.3043   24.5590 C   0  0  2  0  0  0  0  0  0  0  0  0
    7.5027  -17.4041   23.1039 N   0  0  0  0  0  0  0  0  0  0  0  0
    7.8545  -15.9608   24.9267 C   0  0  0  0  0  0  0  0  0  0  0  0
    8.8635  -15.4731   24.3631 O   0  0  0  0  0  0  0  0  0  0  0  0
    5.6347  -12.6407   25.4310 C   0  0  0  0  0  0  0  0  0  0  0  0
    6.5712  -12.8815   26.5819 C   0  0  2  0  0  0  0  0  0  0  0  0
    7.1346  -11.5480   27.0093 C   0  0  0  0  0  0  0  0  0  0  0  0
    7.7094  -13.8009   26.1853 C   0  0  2  0  0  0  0  0  0  0  0  0
    7.2314  -15.1449   25.9376 N   0  0  0  0  0  0  0  0  0  0  0  0
    8.7580  -13.8532   27.2162 C   0  0  0  0  0  0  0  0  0  0  0  0
    9.5975  -12.7712   27.4030 O   0  0  0  0  0  0  0  0  0  0  0  0
    8.9183  -14.8656   27.9443 O   0  0  0  0  0  0  0  0  0  0  0  0
  2  1  1  0
  3  2  1  0
  4  3  2  0
  6  7  2  0
  6  5  1  0
  8  6  1  0
  9  8  1  1
  9 10  1  0
 10  3  1  0
 11 17  1  0
 11  9  1  0
 12 11  2  0
 14 13  1  6
 14 15  1  0
 16 14  1  0
 16 17  1  1
 18 16  1  0
 18 19  1  0
 20 18  2  0
M  END
$$$$
