DCT.pdb
     RDKit          3D

 22 21  0  0  1  0  0  0  0  0999 V2000
    9.8354  -19.0483   18.3164 N   0  0  0  0  0  0  0  0  0  0  0  0
   11.0528  -18.3255   18.0765 C   0  0  1  0  0  0  0  0  0  0  0  0
   11.0376  -17.5792   16.7619 C   0  0  0  0  0  0  0  0  0  0  0  0
   10.9572  -18.5680   15.6773 C   0  0  0  0  0  0  0  0  0  0  0  0
   10.8145  -19.7767   15.9917 O   0  0  0  0  0  0  0  0  0  0  0  0
   11.2829  -17.3891   19.2212 C   0  0  0  0  0  0  0  0  0  0  0  0
   12.3137  -16.6545   19.2728 O   0  0  0  0  0  0  0  0  0  0  0  0
   11.0282  -18.2566   14.3278 O   0  0  0  0  0  0  0  0  0  0  0  0
   10.3733  -17.2719   20.2984 N   0  0  0  0  0  0  0  0  0  0  0  0
   10.6181  -16.4047   21.4464 C   0  0  1  0  0  0  0  0  0  0  0  0
    9.3192  -16.0571   22.1279 C   0  0  0  0  0  0  0  0  0  0  0  0
    9.5296  -15.3504   23.7727 S   0  0  0  0  0  0  0  0  0  0  0  0
   11.6210  -17.0328   22.3081 C   0  0  0  0  0  0  0  0  0  0  0  0
   11.4790  -18.2804   22.5571 O   0  0  0  0  0  0  0  0  0  0  0  0
   15.9630  -17.3306   24.4926 C   0  0  0  0  0  0  0  0  0  0  0  0
   14.9880  -16.4912   23.6899 C   0  0  1  0  0  0  0  0  0  0  0  0
   15.4309  -16.3340   22.3881 O   0  0  0  0  0  0  0  0  0  0  0  0
   13.6603  -17.2301   23.6918 C   0  0  2  0  0  0  0  0  0  0  0  0
   12.7359  -16.4133   22.8982 N   0  0  0  0  0  0  0  0  0  0  0  0
   13.1473  -17.3725   25.0805 C   0  0  0  0  0  0  0  0  0  0  0  0
   13.4734  -18.3649   25.7558 O   0  0  0  0  0  0  0  0  0  0  0  0
   12.3122  -16.4163   25.6317 O   0  0  0  0  0  0  0  0  0  0  0  0
  2  1  1  1
  2  6  1  0
  2  3  1  0
  3  4  1  0
  4  5  2  0
  4  8  1  0
  6  7  2  0
  6  9  1  0
  9 10  1  0
 10 13  1  0
 10 11  1  1
 12 11  1  0
 13 14  2  0
 13 19  1  0
 16 15  1  1
 17 16  1  0
 18 16  1  0
 18 20  1  0
 18 19  1  6
 20 22  1  0
 21 20  2  0
M  END
$$$$
