DCT.pdb
     RDKit          3D

 22 21  0  0  1  0  0  0  0  0999 V2000
    7.0486  -15.8429   20.0439 N   0  0  0  0  0  0  0  0  0  0  0  0
    8.4786  -15.9509   19.9691 C   0  0  1  0  0  0  0  0  0  0  0  0
    9.0524  -15.2567   18.7550 C   0  0  0  0  0  0  0  0  0  0  0  0
    8.4979  -15.9019   17.5564 C   0  0  0  0  0  0  0  0  0  0  0  0
    8.6153  -17.1491   17.4513 O   0  0  0  0  0  0  0  0  0  0  0  0
    9.0636  -15.3955   21.2298 C   0  0  0  0  0  0  0  0  0  0  0  0
   10.1714  -14.7809   21.2257 O   0  0  0  0  0  0  0  0  0  0  0  0
    7.8526  -15.2262   16.5316 O   0  0  0  0  0  0  0  0  0  0  0  0
    8.4209  -15.5235   22.4836 N   0  0  0  0  0  0  0  0  0  0  0  0
    9.0587  -15.1411   23.7394 C   0  0  1  0  0  0  0  0  0  0  0  0
    8.2416  -14.0881   24.4436 C   0  0  0  0  0  0  0  0  0  0  0  0
    6.4699  -14.4201   24.4367 S   0  0  0  0  0  0  0  0  0  0  0  0
    9.3206  -16.3491   24.5236 C   0  0  0  0  0  0  0  0  0  0  0  0
    8.3666  -17.1962   24.6286 O   0  0  0  0  0  0  0  0  0  0  0  0
   11.3687  -19.0833   23.8575 C   0  0  0  0  0  0  0  0  0  0  0  0
   11.7664  -18.7207   25.2754 C   0  0  1  0  0  0  0  0  0  0  0  0
   12.8892  -17.9116   25.2791 O   0  0  0  0  0  0  0  0  0  0  0  0
   10.5946  -17.9711   25.8868 C   0  0  2  0  0  0  0  0  0  0  0  0
   10.5159  -16.6880   25.1804 N   0  0  0  0  0  0  0  0  0  0  0  0
   10.8270  -17.7384   27.3372 C   0  0  0  0  0  0  0  0  0  0  0  0
   11.0346  -16.5825   27.7471 O   0  0  0  0  0  0  0  0  0  0  0  0
   10.8154  -18.7899   28.2371 O   0  0  0  0  0  0  0  0  0  0  0  0
  2  1  1  1
  2  6  1  0
  2  3  1  0
  3  4  1  0
  4  5  2  0
  4  8  1  0
  6  7  2  0
  6  9  1  0
  9 10  1  0
 10 13  1  0
 10 11  1  1
 12 11  1  0
 13 14  2  0
 13 19  1  0
 16 15  1  6
 17 16  1  0
 18 16  1  0
 18 20  1  0
 18 19  1  6
 20 22  1  0
 21 20  2  0
M  END
$$$$
