DCT.pdb
     RDKit          3D

 22 21  0  0  1  0  0  0  0  0999 V2000
    7.5116  -16.1362   21.4608 N   0  0  0  0  0  0  0  0  0  0  0  0
    8.9199  -16.1249   21.7413 C   0  0  1  0  0  0  0  0  0  0  0  0
    9.7396  -15.5964   20.5862 C   0  0  0  0  0  0  0  0  0  0  0  0
    9.7151  -16.6003   19.5129 C   0  0  0  0  0  0  0  0  0  0  0  0
    8.8534  -17.5132   19.5799 O   0  0  0  0  0  0  0  0  0  0  0  0
    9.1517  -15.3139   22.9776 C   0  0  0  0  0  0  0  0  0  0  0  0
   10.3217  -15.0981   23.4128 O   0  0  0  0  0  0  0  0  0  0  0  0
   10.5802  -16.6083   18.4291 O   0  0  0  0  0  0  0  0  0  0  0  0
    8.0902  -14.7483   23.7224 N   0  0  0  0  0  0  0  0  0  0  0  0
    8.3072  -13.9635   24.9337 C   0  0  1  0  0  0  0  0  0  0  0  0
    7.1246  -13.0664   25.1965 C   0  0  0  0  0  0  0  0  0  0  0  0
    7.1704  -12.2594   26.8077 S   0  0  0  0  0  0  0  0  0  0  0  0
    8.6522  -14.8708   26.0294 C   0  0  0  0  0  0  0  0  0  0  0  0
    7.7768  -15.7431   26.3637 O   0  0  0  0  0  0  0  0  0  0  0  0
   10.8107  -17.4600   26.0860 C   0  0  0  0  0  0  0  0  0  0  0  0
   11.2098  -16.7606   27.3711 C   0  0  1  0  0  0  0  0  0  0  0  0
   12.3116  -15.9483   27.1666 O   0  0  0  0  0  0  0  0  0  0  0  0
   10.0240  -15.9139   27.8020 C   0  0  2  0  0  0  0  0  0  0  0  0
    9.8506  -14.8931   26.7630 N   0  0  0  0  0  0  0  0  0  0  0  0
   10.2986  -15.2637   29.1111 C   0  0  0  0  0  0  0  0  0  0  0  0
   10.4864  -15.9688   30.1185 O   0  0  0  0  0  0  0  0  0  0  0  0
   10.3480  -13.8852   29.2241 O   0  0  0  0  0  0  0  0  0  0  0  0
  2  1  1  6
  2  6  1  0
  2  3  1  0
  3  4  1  0
  4  5  2  0
  4  8  1  0
  6  7  2  0
  6  9  1  0
  9 10  1  0
 10 13  1  0
 10 11  1  1
 12 11  1  0
 13 14  2  0
 13 19  1  0
 16 15  1  6
 17 16  1  0
 18 16  1  0
 18 20  1  0
 18 19  1  6
 20 22  1  0
 21 20  2  0
M  END
$$$$
