DCT.pdb
     RDKit          3D

 22 21  0  0  1  0  0  0  0  0999 V2000
    8.1327  -14.2702   20.2538 N   0  0  0  0  0  0  0  0  0  0  0  0
    7.7101  -15.1076   21.3411 C   0  0  1  0  0  0  0  0  0  0  0  0
    8.1703  -16.5393   21.1864 C   0  0  0  0  0  0  0  0  0  0  0  0
    7.5049  -17.1069   20.0051 C   0  0  0  0  0  0  0  0  0  0  0  0
    6.3230  -16.7510   19.7671 O   0  0  0  0  0  0  0  0  0  0  0  0
    8.2165  -14.5176   22.6199 C   0  0  0  0  0  0  0  0  0  0  0  0
    9.4165  -14.1279   22.7345 O   0  0  0  0  0  0  0  0  0  0  0  0
    8.0943  -18.0104   19.1336 O   0  0  0  0  0  0  0  0  0  0  0  0
    7.3943  -14.3631   23.7607 N   0  0  0  0  0  0  0  0  0  0  0  0
    7.8733  -13.7654   25.0030 C   0  0  1  0  0  0  0  0  0  0  0  0
    6.8346  -12.8320   25.5709 C   0  0  0  0  0  0  0  0  0  0  0  0
    7.1723  -12.3153   27.2645 S   0  0  0  0  0  0  0  0  0  0  0  0
    8.3059  -14.8336   25.9055 C   0  0  0  0  0  0  0  0  0  0  0  0
    7.4582  -15.7564   26.1679 O   0  0  0  0  0  0  0  0  0  0  0  0
   10.4045  -17.4328   25.4654 C   0  0  0  0  0  0  0  0  0  0  0  0
   10.9212  -16.9078   26.7910 C   0  0  1  0  0  0  0  0  0  0  0  0
   12.0262  -16.0964   26.6011 O   0  0  0  0  0  0  0  0  0  0  0  0
    9.7964  -16.1005   27.4172 C   0  0  2  0  0  0  0  0  0  0  0  0
    9.5620  -14.9622   26.5223 N   0  0  0  0  0  0  0  0  0  0  0  0
   10.1950  -15.6130   28.7645 C   0  0  0  0  0  0  0  0  0  0  0  0
   10.3064  -14.3906   28.9660 O   0  0  0  0  0  0  0  0  0  0  0  0
   10.4436  -16.5004   29.7972 O   0  0  0  0  0  0  0  0  0  0  0  0
  2  1  1  6
  2  6  1  0
  2  3  1  0
  3  4  1  0
  4  5  2  0
  4  8  1  0
  6  7  2  0
  6  9  1  0
  9 10  1  0
 10 13  1  0
 10 11  1  1
 12 11  1  0
 13 14  2  0
 13 19  1  0
 16 15  1  6
 17 16  1  0
 18 16  1  0
 18 20  1  0
 18 19  1  6
 20 22  1  0
 21 20  2  0
M  END
$$$$
