DCT.pdb
     RDKit          3D

 22 21  0  0  1  0  0  0  0  0999 V2000
    8.9478  -17.8206   19.3402 N   0  0  0  0  0  0  0  0  0  0  0  0
    8.3688  -16.5225   19.5450 C   0  0  1  0  0  0  0  0  0  0  0  0
    7.4080  -16.1332   18.4448 C   0  0  0  0  0  0  0  0  0  0  0  0
    8.1111  -16.2583   17.1601 C   0  0  0  0  0  0  0  0  0  0  0  0
    9.0146  -15.4240   16.8996 O   0  0  0  0  0  0  0  0  0  0  0  0
    7.6892  -16.5105   20.8785 C   0  0  0  0  0  0  0  0  0  0  0  0
    6.4899  -16.8973   21.0088 O   0  0  0  0  0  0  0  0  0  0  0  0
    7.8444  -17.2367   16.2142 O   0  0  0  0  0  0  0  0  0  0  0  0
    8.3392  -16.0717   22.0559 N   0  0  0  0  0  0  0  0  0  0  0  0
    7.7469  -16.2111   23.3824 C   0  0  1  0  0  0  0  0  0  0  0  0
    8.0918  -17.5547   23.9726 C   0  0  0  0  0  0  0  0  0  0  0  0
    9.7891  -17.6709   24.5684 S   0  0  0  0  0  0  0  0  0  0  0  0
    8.1351  -15.0585   24.1971 C   0  0  0  0  0  0  0  0  0  0  0  0
    9.2429  -14.4853   23.9086 O   0  0  0  0  0  0  0  0  0  0  0  0
    6.6655  -11.6550   24.9410 C   0  0  0  0  0  0  0  0  0  0  0  0
    6.8890  -12.3894   26.2488 C   0  0  1  0  0  0  0  0  0  0  0  0
    5.7439  -13.0639   26.6355 O   0  0  0  0  0  0  0  0  0  0  0  0
    8.0126  -13.3846   26.0124 C   0  0  2  0  0  0  0  0  0  0  0  0
    7.4196  -14.5032   25.2716 N   0  0  0  0  0  0  0  0  0  0  0  0
    8.5597  -13.8676   27.3082 C   0  0  0  0  0  0  0  0  0  0  0  0
    8.4782  -15.0749   27.5964 O   0  0  0  0  0  0  0  0  0  0  0  0
    9.1584  -12.9925   28.1978 O   0  0  0  0  0  0  0  0  0  0  0  0
  2  1  1  6
  2  6  1  0
  2  3  1  0
  3  4  1  0
  4  5  2  0
  4  8  1  0
  6  7  2  0
  6  9  1  0
  9 10  1  0
 10 13  1  0
 10 11  1  1
 12 11  1  0
 13 14  2  0
 13 19  1  0
 16 15  1  6
 17 16  1  0
 18 16  1  0
 18 20  1  0
 18 19  1  1
 20 22  1  0
 21 20  2  0
M  END
$$$$
