DCT.pdb
     RDKit          3D

 22 21  0  0  1  0  0  0  0  0999 V2000
    8.1755  -14.5726   19.8358 N   0  0  0  0  0  0  0  0  0  0  0  0
    7.4597  -15.3283   20.8250 C   0  0  1  0  0  0  0  0  0  0  0  0
    7.4447  -16.8104   20.5274 C   0  0  0  0  0  0  0  0  0  0  0  0
    6.6733  -17.0199   19.2940 C   0  0  0  0  0  0  0  0  0  0  0  0
    7.2995  -17.0410   18.2042 O   0  0  0  0  0  0  0  0  0  0  0  0
    8.0708  -15.0571   22.1641 C   0  0  0  0  0  0  0  0  0  0  0  0
    9.3159  -14.8607   22.2910 O   0  0  0  0  0  0  0  0  0  0  0  0
    5.2984  -17.1963   19.2514 O   0  0  0  0  0  0  0  0  0  0  0  0
    7.3024  -15.0053   23.3507 N   0  0  0  0  0  0  0  0  0  0  0  0
    7.8925  -14.7558   24.6621 C   0  0  1  0  0  0  0  0  0  0  0  0
    6.9279  -13.9946   25.5354 C   0  0  0  0  0  0  0  0  0  0  0  0
    6.5471  -12.3416   24.9257 S   0  0  0  0  0  0  0  0  0  0  0  0
    8.3622  -16.0257   25.2185 C   0  0  0  0  0  0  0  0  0  0  0  0
    7.4735  -16.8973   25.5175 O   0  0  0  0  0  0  0  0  0  0  0  0
   10.3444  -18.6304   23.7819 C   0  0  0  0  0  0  0  0  0  0  0  0
   11.0116  -18.3627   25.1172 C   0  0  1  0  0  0  0  0  0  0  0  0
   12.0800  -17.4957   24.9676 O   0  0  0  0  0  0  0  0  0  0  0  0
    9.9636  -17.7311   26.0181 C   0  0  2  0  0  0  0  0  0  0  0  0
    9.6945  -16.4005   25.4627 N   0  0  0  0  0  0  0  0  0  0  0  0
   10.4802  -17.6061   27.4071 C   0  0  0  0  0  0  0  0  0  0  0  0
   10.7457  -16.4798   27.8634 O   0  0  0  0  0  0  0  0  0  0  0  0
   10.6694  -18.7254   28.1989 O   0  0  0  0  0  0  0  0  0  0  0  0
  2  1  1  6
  2  6  1  0
  2  3  1  0
  3  4  1  0
  4  5  2  0
  4  8  1  0
  6  7  2  0
  6  9  1  0
  9 10  1  0
 10 13  1  0
 10 11  1  1
 12 11  1  0
 13 14  2  0
 13 19  1  0
 16 15  1  6
 17 16  1  0
 18 16  1  0
 18 20  1  0
 18 19  1  6
 20 22  1  0
 21 20  2  0
M  END
$$$$
