DCT.pdb
     RDKit          3D

 22 21  0  0  1  0  0  0  0  0999 V2000
    6.6576  -15.5572   20.8242 N   0  0  0  0  0  0  0  0  0  0  0  0
    8.0897  -15.6192   20.7390 C   0  0  1  0  0  0  0  0  0  0  0  0
    8.6452  -14.7547   19.6302 C   0  0  0  0  0  0  0  0  0  0  0  0
    8.2903  -15.3762   18.3464 C   0  0  0  0  0  0  0  0  0  0  0  0
    8.5937  -16.5837   18.1728 O   0  0  0  0  0  0  0  0  0  0  0  0
    8.6622  -15.2236   22.0641 C   0  0  0  0  0  0  0  0  0  0  0  0
    9.9125  -15.1083   22.2323 O   0  0  0  0  0  0  0  0  0  0  0  0
    7.6419  -14.7189   17.3116 O   0  0  0  0  0  0  0  0  0  0  0  0
    7.8496  -14.9589   23.1915 N   0  0  0  0  0  0  0  0  0  0  0  0
    8.4019  -14.6650   24.5102 C   0  0  1  0  0  0  0  0  0  0  0  0
    7.4678  -13.7684   25.2823 C   0  0  0  0  0  0  0  0  0  0  0  0
    5.8151  -14.4553   25.4966 S   0  0  0  0  0  0  0  0  0  0  0  0
    8.7395  -15.9257   25.1730 C   0  0  0  0  0  0  0  0  0  0  0  0
    7.8634  -16.8584   25.1364 O   0  0  0  0  0  0  0  0  0  0  0  0
   11.6210  -19.4887   26.4268 C   0  0  0  0  0  0  0  0  0  0  0  0
   11.4007  -18.1143   25.8250 C   0  0  1  0  0  0  0  0  0  0  0  0
   11.2955  -18.1922   24.4472 O   0  0  0  0  0  0  0  0  0  0  0  0
   10.1033  -17.5781   26.4066 C   0  0  2  0  0  0  0  0  0  0  0  0
    9.9316  -16.2313   25.8516 N   0  0  0  0  0  0  0  0  0  0  0  0
   10.1888  -17.5086   27.8898 C   0  0  0  0  0  0  0  0  0  0  0  0
   10.6044  -16.4691   28.4319 O   0  0  0  0  0  0  0  0  0  0  0  0
    9.8124  -18.5843   28.6751 O   0  0  0  0  0  0  0  0  0  0  0  0
  2  1  1  1
  2  6  1  0
  2  3  1  0
  3  4  1  0
  4  5  2  0
  4  8  1  0
  6  7  2  0
  6  9  1  0
  9 10  1  0
 10 13  1  0
 10 11  1  1
 12 11  1  0
 13 14  2  0
 13 19  1  0
 16 15  1  1
 17 16  1  0
 18 16  1  0
 18 20  1  0
 18 19  1  6
 20 22  1  0
 21 20  2  0
M  END
$$$$
