DCT.pdb
     RDKit          3D

 22 21  0  0  1  0  0  0  0  0999 V2000
   10.8903  -18.2759   21.1710 N   0  0  0  0  0  0  0  0  0  0  0  0
   11.6434  -17.1178   21.5629 C   0  0  1  0  0  0  0  0  0  0  0  0
   11.7888  -16.1116   20.4441 C   0  0  0  0  0  0  0  0  0  0  0  0
   12.8041  -16.6145   19.5078 C   0  0  0  0  0  0  0  0  0  0  0  0
   12.8201  -17.8474   19.2629 O   0  0  0  0  0  0  0  0  0  0  0  0
   10.9808  -16.5012   22.7549 C   0  0  0  0  0  0  0  0  0  0  0  0
   11.4194  -15.4302   23.2703 O   0  0  0  0  0  0  0  0  0  0  0  0
   13.7474  -15.8189   18.8750 O   0  0  0  0  0  0  0  0  0  0  0  0
    9.8404  -17.0720   23.3672 N   0  0  0  0  0  0  0  0  0  0  0  0
    9.1133  -16.4141   24.4483 C   0  0  1  0  0  0  0  0  0  0  0  0
    7.7265  -16.9914   24.5753 C   0  0  0  0  0  0  0  0  0  0  0  0
    6.7746  -16.2983   25.9401 S   0  0  0  0  0  0  0  0  0  0  0  0
    9.9227  -16.4728   25.6666 C   0  0  0  0  0  0  0  0  0  0  0  0
   10.6943  -17.4845   25.8076 O   0  0  0  0  0  0  0  0  0  0  0  0
   11.3271  -13.4248   27.9399 C   0  0  0  0  0  0  0  0  0  0  0  0
   10.7198  -14.5547   28.7487 C   0  0  1  0  0  0  0  0  0  0  0  0
    9.4019  -14.2775   29.0677 O   0  0  0  0  0  0  0  0  0  0  0  0
   10.7844  -15.8032   27.8850 C   0  0  2  0  0  0  0  0  0  0  0  0
    9.9493  -15.5318   26.7100 N   0  0  0  0  0  0  0  0  0  0  0  0
   10.2503  -16.9762   28.6270 C   0  0  0  0  0  0  0  0  0  0  0  0
    9.1885  -17.5061   28.2540 O   0  0  0  0  0  0  0  0  0  0  0  0
   10.9182  -17.4864   29.7266 O   0  0  0  0  0  0  0  0  0  0  0  0
  2  1  1  6
  2  6  1  0
  2  3  1  0
  3  4  1  0
  4  5  2  0
  4  8  1  0
  6  7  2  0
  6  9  1  0
  9 10  1  0
 10 13  1  0
 10 11  1  1
 12 11  1  0
 13 14  2  0
 13 19  1  0
 16 15  1  6
 17 16  1  0
 18 16  1  0
 18 20  1  0
 18 19  1  6
 20 22  1  0
 21 20  2  0
M  END
$$$$
