QRD.pdb
     RDKit          3D

 29 28  0  0  1  0  0  0  0  0999 V2000
   29.6665  -24.2286  -18.7505 N   0  0  0  0  0  0  0  0  0  0  0  0
   30.2060  -22.9026  -19.0090 C   0  0  0  0  0  0  0  0  0  0  0  0
   30.8390  -22.8065  -20.0838 O   0  0  0  0  0  0  0  0  0  0  0  0
   29.9857  -21.8189  -18.0345 C   0  0  0  0  0  0  0  0  0  0  0  0
   29.1566  -22.1505  -16.8444 C   0  0  0  0  0  0  0  0  0  0  0  0
   27.7758  -21.5694  -16.9736 C   0  0  2  0  0  0  0  0  0  0  0  0
   27.8124  -20.1496  -17.0312 N   0  0  0  0  0  0  0  0  0  0  0  0
   26.9027  -22.0737  -15.8519 C   0  0  0  0  0  0  0  0  0  0  0  0
   26.8455  -23.3154  -15.6805 O   0  0  0  0  0  0  0  0  0  0  0  0
   22.7904  -19.8680  -10.2126 N   0  0  0  0  0  0  0  0  0  0  0  0
   23.2327  -20.6549   -9.1150 C   0  0  0  0  0  0  0  0  0  0  0  0
   22.4402  -20.8815   -8.1058 N   0  0  0  0  0  0  0  0  0  0  0  0
   24.5369  -21.2151   -9.0802 N   0  0  0  0  0  0  0  0  0  0  0  0
   25.5158  -20.8692  -10.1538 C   0  0  0  0  0  0  0  0  0  0  0  0
   24.9929  -21.3817  -11.4326 C   0  0  0  0  0  0  0  0  0  0  0  0
   25.7322  -21.3480  -12.6659 C   0  0  0  0  0  0  0  0  0  0  0  0
   25.2876  -21.9034  -13.9657 C   0  0  2  0  0  0  0  0  0  0  0  0
   26.1674  -21.2258  -15.0110 N   0  0  0  0  0  0  0  0  0  0  0  0
   23.9576  -21.3970  -14.3502 C   0  0  0  0  0  0  0  0  0  0  0  0
   23.8568  -20.1317  -14.5382 O   0  0  0  0  0  0  0  0  0  0  0  0
   22.7537  -21.4535   -7.2929 N   0  0  0  0  0  0  0  0  0  0  0  0
   22.7706  -22.1182  -14.5524 C   0  0  2  0  0  0  0  0  0  0  0  0
   21.5373  -21.4508  -14.8862 C   0  0  0  0  0  0  0  0  0  0  0  0
   20.6678  -22.3029  -15.7968 C   0  0  0  0  0  0  0  0  0  0  0  0
   19.3967  -21.6645  -16.1579 O   0  0  0  0  0  0  0  0  0  0  0  0
   19.0860  -20.5202  -15.7469 C   0  0  0  0  0  0  0  0  0  0  0  0
   20.8227  -21.0077  -13.6942 O   0  0  0  0  0  0  0  0  0  0  0  0
   20.7314  -21.8340  -12.5867 O   0  0  0  0  0  0  0  0  0  0  0  0
   18.4937  -22.3226  -16.9762 O   0  0  0  0  0  0  0  0  0  0  0  0
  2  1  1  0
  2  3  2  0
  4  2  1  0
  5  4  1  0
  5  6  1  0
  6  7  1  1
  8  6  1  0
  8  9  2  0
 10 11  1  0
 11 13  1  0
 11 12  2  0
 13 14  1  0
 15 14  1  0
 16 15  1  0
 17 16  1  1
 17 18  1  0
 18  8  1  0
 19 17  1  0
 20 19  2  0
 21 19  1  0
 22 21  1  0
 22 26  1  0
 23 24  1  0
 22 23  1  1
 24 25  2  0
 26 27  1  0
 28 24  1  0
 29 26  2  0
M  END
$$$$
