QRD.pdb
     RDKit          3D

 29 28  0  0  1  0  0  0  0  0999 V2000
   19.6688  -24.2123   -7.9543 N   0  0  0  0  0  0  0  0  0  0  0  0
   18.4032  -24.3611   -8.6560 C   0  0  0  0  0  0  0  0  0  0  0  0
   17.7065  -25.3218   -8.2598 O   0  0  0  0  0  0  0  0  0  0  0  0
   18.0480  -23.4211   -9.7342 C   0  0  0  0  0  0  0  0  0  0  0  0
   19.0596  -22.3848  -10.0757 C   0  0  0  0  0  0  0  0  0  0  0  0
   19.4864  -22.5046  -11.5126 C   0  0  2  0  0  0  0  0  0  0  0  0
   20.1495  -23.7379  -11.7571 N   0  0  0  0  0  0  0  0  0  0  0  0
   20.3318  -21.3155  -11.8948 C   0  0  0  0  0  0  0  0  0  0  0  0
   19.8097  -20.1795  -11.7877 O   0  0  0  0  0  0  0  0  0  0  0  0
   28.3290  -21.5198  -10.0171 N   0  0  0  0  0  0  0  0  0  0  0  0
   27.9023  -21.2722  -11.3499 C   0  0  0  0  0  0  0  0  0  0  0  0
   28.7704  -21.2215  -12.3203 N   0  0  0  0  0  0  0  0  0  0  0  0
   26.5326  -21.0746  -11.6669 N   0  0  0  0  0  0  0  0  0  0  0  0
   25.4935  -21.3050  -10.6191 C   0  0  0  0  0  0  0  0  0  0  0  0
   24.1735  -21.2990  -11.2742 C   0  0  0  0  0  0  0  0  0  0  0  0
   23.6650  -20.1863  -12.0305 C   0  0  0  0  0  0  0  0  0  0  0  0
   22.3559  -20.1262  -12.7219 C   0  0  2  0  0  0  0  0  0  0  0  0
   21.6513  -21.4283  -12.3562 N   0  0  0  0  0  0  0  0  0  0  0  0
   22.5000  -20.2873  -14.1802 C   0  0  0  0  0  0  0  0  0  0  0  0
   22.0323  -21.3689  -14.6878 O   0  0  0  0  0  0  0  0  0  0  0  0
   28.4701  -21.0459  -13.3028 N   0  0  0  0  0  0  0  0  0  0  0  0
   23.0773  -19.4044  -15.1062 C   0  0  1  0  0  0  0  0  0  0  0  0
   22.8272  -19.5342  -16.5198 C   0  0  0  0  0  0  0  0  0  0  0  0
   21.3383  -19.5477  -16.8265 C   0  0  0  0  0  0  0  0  0  0  0  0
   21.0366  -19.6017  -18.2617 O   0  0  0  0  0  0  0  0  0  0  0  0
   21.4046  -20.5599  -18.9838 C   0  0  0  0  0  0  0  0  0  0  0  0
   23.5421  -18.5227  -17.2904 O   0  0  0  0  0  0  0  0  0  0  0  0
   23.6722  -18.6525  -18.6630 O   0  0  0  0  0  0  0  0  0  0  0  0
   20.3253  -18.5771  -18.8637 O   0  0  0  0  0  0  0  0  0  0  0  0
  2  1  1  0
  2  3  2  0
  4  2  1  0
  5  4  1  0
  5  6  1  0
  6  7  1  1
  8  6  1  0
  8  9  2  0
 10 11  1  0
 11 13  1  0
 11 12  2  0
 13 14  1  0
 15 14  1  0
 16 15  1  0
 17 16  1  1
 17 18  1  0
 18  8  1  0
 19 17  1  0
 20 19  2  0
 21 19  1  0
 22 21  1  0
 22 26  1  0
 23 24  1  0
 22 23  1  6
 24 25  2  0
 26 27  1  0
 28 24  1  0
 29 26  2  0
M  END
$$$$
