QRD.pdb
     RDKit          3D

 29 28  0  0  1  0  0  0  0  0999 V2000
   17.7860  -20.2883   -9.9523 N   0  0  0  0  0  0  0  0  0  0  0  0
   17.5654  -19.8193  -11.3115 C   0  0  0  0  0  0  0  0  0  0  0  0
   16.4730  -20.1755  -11.8065 O   0  0  0  0  0  0  0  0  0  0  0  0
   18.5933  -19.0020  -11.9807 C   0  0  0  0  0  0  0  0  0  0  0  0
   19.8504  -18.7593  -11.2226 C   0  0  0  0  0  0  0  0  0  0  0  0
   20.8743  -19.8170  -11.5289 C   0  0  2  0  0  0  0  0  0  0  0  0
   22.0437  -19.6535  -10.7375 N   0  0  0  0  0  0  0  0  0  0  0  0
   21.1796  -19.8194  -13.0059 C   0  0  0  0  0  0  0  0  0  0  0  0
   21.6598  -18.7689  -13.4963 O   0  0  0  0  0  0  0  0  0  0  0  0
   24.7573  -26.0414  -17.5724 N   0  0  0  0  0  0  0  0  0  0  0  0
   25.0519  -25.0265  -16.6223 C   0  0  0  0  0  0  0  0  0  0  0  0
   26.1073  -25.1210  -15.8639 N   0  0  0  0  0  0  0  0  0  0  0  0
   24.2177  -23.8880  -16.4685 N   0  0  0  0  0  0  0  0  0  0  0  0
   22.9890  -23.7567  -17.3073 C   0  0  0  0  0  0  0  0  0  0  0  0
   22.3605  -22.4600  -16.9988 C   0  0  0  0  0  0  0  0  0  0  0  0
   21.9779  -22.0561  -15.6725 C   0  0  0  0  0  0  0  0  0  0  0  0
   21.3434  -20.7698  -15.3006 C   0  0  2  0  0  0  0  0  0  0  0  0
   20.9516  -20.9272  -13.8351 N   0  0  0  0  0  0  0  0  0  0  0  0
   20.0187  -20.6122  -15.9279 C   0  0  0  0  0  0  0  0  0  0  0  0
   19.0081  -21.0082  -15.2434 O   0  0  0  0  0  0  0  0  0  0  0  0
   26.3220  -24.3954  -15.1471 N   0  0  0  0  0  0  0  0  0  0  0  0
   19.7031  -20.0720  -17.1843 C   0  0  2  0  0  0  0  0  0  0  0  0
   18.3460  -20.0505  -17.6699 C   0  0  0  0  0  0  0  0  0  0  0  0
   17.7086  -21.4295  -17.6128 C   0  0  0  0  0  0  0  0  0  0  0  0
   16.3431  -21.4659  -18.1491 O   0  0  0  0  0  0  0  0  0  0  0  0
   16.0592  -21.0012  -19.2798 C   0  0  0  0  0  0  0  0  0  0  0  0
   17.5437  -19.0410  -16.9879 O   0  0  0  0  0  0  0  0  0  0  0  0
   16.2081  -18.8731  -17.3131 O   0  0  0  0  0  0  0  0  0  0  0  0
   15.3168  -22.0248  -17.4057 O   0  0  0  0  0  0  0  0  0  0  0  0
  2  1  1  0
  2  3  2  0
  4  2  1  0
  5  4  1  0
  5  6  1  0
  6  7  1  1
  8  6  1  0
  8  9  2  0
 10 11  1  0
 11 13  1  0
 11 12  2  0
 13 14  1  0
 15 14  1  0
 16 15  1  0
 17 16  1  6
 17 18  1  0
 18  8  1  0
 19 17  1  0
 20 19  2  0
 21 19  1  0
 22 21  1  0
 22 26  1  0
 23 24  1  0
 22 23  1  6
 24 25  2  0
 26 27  1  0
 28 24  1  0
 29 26  2  0
M  END
$$$$
