QRD.pdb
     RDKit          3D

 29 28  0  0  1  0  0  0  0  0999 V2000
   20.7844  -27.6390  -11.5016 N   0  0  0  0  0  0  0  0  0  0  0  0
   19.4557  -27.1589  -11.8481 C   0  0  0  0  0  0  0  0  0  0  0  0
   18.9121  -27.7845  -12.7853 O   0  0  0  0  0  0  0  0  0  0  0  0
   18.8718  -26.0231  -11.1124 C   0  0  0  0  0  0  0  0  0  0  0  0
   19.6986  -25.4389  -10.0220 C   0  0  0  0  0  0  0  0  0  0  0  0
   19.0432  -24.2124   -9.4500 C   0  0  2  0  0  0  0  0  0  0  0  0
   17.6739  -24.4469   -9.1489 N   0  0  0  0  0  0  0  0  0  0  0  0
   19.2303  -23.0481  -10.3902 C   0  0  0  0  0  0  0  0  0  0  0  0
   18.2524  -22.2796  -10.5568 O   0  0  0  0  0  0  0  0  0  0  0  0
   26.3409  -21.0104  -15.0776 N   0  0  0  0  0  0  0  0  0  0  0  0
   25.4910  -22.1064  -14.7680 C   0  0  0  0  0  0  0  0  0  0  0  0
   25.8912  -23.3289  -14.9755 N   0  0  0  0  0  0  0  0  0  0  0  0
   24.1926  -21.9103  -14.2280 N   0  0  0  0  0  0  0  0  0  0  0  0
   23.7095  -20.5233  -13.9569 C   0  0  0  0  0  0  0  0  0  0  0  0
   22.2999  -20.6038  -13.5349 C   0  0  0  0  0  0  0  0  0  0  0  0
   21.8191  -21.5194  -12.5353 C   0  0  0  0  0  0  0  0  0  0  0  0
   20.4254  -21.6208  -12.0427 C   0  0  2  0  0  0  0  0  0  0  0  0
   20.4301  -22.7967  -11.0716 N   0  0  0  0  0  0  0  0  0  0  0  0
   19.5124  -22.1239  -13.0851 C   0  0  0  0  0  0  0  0  0  0  0  0
   18.9259  -23.2397  -12.8455 O   0  0  0  0  0  0  0  0  0  0  0  0
   25.3061  -24.1429  -14.6900 N   0  0  0  0  0  0  0  0  0  0  0  0
   19.1824  -21.5385  -14.3173 C   0  0  1  0  0  0  0  0  0  0  0  0
   17.9978  -21.9311  -15.0388 C   0  0  0  0  0  0  0  0  0  0  0  0
   16.7604  -21.8741  -14.1576 C   0  0  0  0  0  0  0  0  0  0  0  0
   15.5384  -22.3239  -14.8344 O   0  0  0  0  0  0  0  0  0  0  0  0
   15.5711  -23.0894  -15.8284 C   0  0  0  0  0  0  0  0  0  0  0  0
   17.8364  -21.1658  -16.2702 O   0  0  0  0  0  0  0  0  0  0  0  0
   18.7474  -20.1774  -16.6030 O   0  0  0  0  0  0  0  0  0  0  0  0
   14.2974  -21.9063  -14.3831 O   0  0  0  0  0  0  0  0  0  0  0  0
  2  1  1  0
  2  3  2  0
  4  2  1  0
  5  4  1  0
  5  6  1  0
  6  7  1  6
  8  6  1  0
  8  9  2  0
 10 11  1  0
 11 13  1  0
 11 12  2  0
 13 14  1  0
 15 14  1  0
 16 15  1  0
 17 16  1  6
 17 18  1  0
 18  8  1  0
 19 17  1  0
 20 19  2  0
 21 19  1  0
 22 21  1  0
 22 26  1  0
 23 24  1  0
 22 23  1  6
 24 25  2  0
 26 27  1  0
 28 24  1  0
 29 26  2  0
M  END
$$$$
