QRD.pdb
     RDKit          3D

 29 28  0  0  1  0  0  0  0  0999 V2000
   25.9133  -21.7239  -15.3000 N   0  0  0  0  0  0  0  0  0  0  0  0
   26.8561  -22.6114  -15.9630 C   0  0  0  0  0  0  0  0  0  0  0  0
   28.0543  -22.2738  -15.8373 O   0  0  0  0  0  0  0  0  0  0  0  0
   26.3609  -23.7852  -16.7041 C   0  0  0  0  0  0  0  0  0  0  0  0
   24.9031  -24.0677  -16.6090 C   0  0  0  0  0  0  0  0  0  0  0  0
   24.6566  -25.4060  -15.9693 C   0  0  2  0  0  0  0  0  0  0  0  0
   25.1350  -26.4679  -16.7841 N   0  0  0  0  0  0  0  0  0  0  0  0
   23.1919  -25.5527  -15.6411 C   0  0  0  0  0  0  0  0  0  0  0  0
   22.4484  -26.0358  -16.5291 O   0  0  0  0  0  0  0  0  0  0  0  0
   19.8083  -28.7015   -8.7113 N   0  0  0  0  0  0  0  0  0  0  0  0
   20.5687  -29.0848   -9.8491 C   0  0  0  0  0  0  0  0  0  0  0  0
   21.3657  -30.1140   -9.7920 N   0  0  0  0  0  0  0  0  0  0  0  0
   20.4872  -28.3692  -11.0727 N   0  0  0  0  0  0  0  0  0  0  0  0
   19.5594  -27.2041  -11.1840 C   0  0  0  0  0  0  0  0  0  0  0  0
   19.7227  -26.6153  -12.5250 C   0  0  0  0  0  0  0  0  0  0  0  0
   20.8976  -25.8983  -12.9421 C   0  0  0  0  0  0  0  0  0  0  0  0
   21.1255  -25.2972  -14.2771 C   0  0  2  0  0  0  0  0  0  0  0  0
   22.6402  -25.1775  -14.4075 N   0  0  0  0  0  0  0  0  0  0  0  0
   20.7297  -23.8776  -14.3121 C   0  0  0  0  0  0  0  0  0  0  0  0
   21.5694  -23.0349  -13.8312 O   0  0  0  0  0  0  0  0  0  0  0  0
   21.8332  -30.4812  -10.6481 N   0  0  0  0  0  0  0  0  0  0  0  0
   19.5489  -23.3096  -14.8151 C   0  0  1  0  0  0  0  0  0  0  0  0
   19.3499  -21.8819  -14.8236 C   0  0  0  0  0  0  0  0  0  0  0  0
   20.5009  -21.1599  -15.5056 C   0  0  0  0  0  0  0  0  0  0  0  0
   20.2913  -19.7129  -15.6325 O   0  0  0  0  0  0  0  0  0  0  0  0
   19.5068  -19.0854  -14.8803 C   0  0  0  0  0  0  0  0  0  0  0  0
   18.0555  -21.5199  -15.3907 O   0  0  0  0  0  0  0  0  0  0  0  0
   17.2453  -22.4895  -15.9576 O   0  0  0  0  0  0  0  0  0  0  0  0
   20.9674  -18.9930  -16.6035 O   0  0  0  0  0  0  0  0  0  0  0  0
  2  1  1  0
  2  3  2  0
  4  2  1  0
  5  4  1  0
  5  6  1  0
  6  7  1  6
  8  6  1  0
  8  9  2  0
 10 11  1  0
 11 13  1  0
 11 12  2  0
 13 14  1  0
 15 14  1  0
 16 15  1  0
 17 16  1  1
 17 18  1  0
 18  8  1  0
 19 17  1  0
 20 19  2  0
 21 19  1  0
 22 21  1  0
 22 26  1  0
 23 24  1  0
 22 23  1  1
 24 25  2  0
 26 27  1  0
 28 24  1  0
 29 26  2  0
M  END
$$$$
