QRD.pdb
     RDKit          3D

 29 28  0  0  1  0  0  0  0  0999 V2000
   27.0746  -17.6407  -20.0880 N   0  0  0  0  0  0  0  0  0  0  0  0
   25.9673  -18.4018  -20.6454 C   0  0  0  0  0  0  0  0  0  0  0  0
   26.1970  -18.8905  -21.7740 O   0  0  0  0  0  0  0  0  0  0  0  0
   24.7124  -18.5349  -19.8838 C   0  0  0  0  0  0  0  0  0  0  0  0
   24.4205  -19.8756  -19.3083 C   0  0  0  0  0  0  0  0  0  0  0  0
   25.4095  -20.2237  -18.2305 C   0  0  2  0  0  0  0  0  0  0  0  0
   26.4333  -21.0793  -18.7207 N   0  0  0  0  0  0  0  0  0  0  0  0
   24.6870  -20.8169  -17.0469 C   0  0  0  0  0  0  0  0  0  0  0  0
   24.4068  -22.0391  -17.0968 O   0  0  0  0  0  0  0  0  0  0  0  0
   23.6808  -21.0844   -8.7176 N   0  0  0  0  0  0  0  0  0  0  0  0
   24.9852  -20.7988   -9.2040 C   0  0  0  0  0  0  0  0  0  0  0  0
   26.0343  -21.2646   -8.5873 N   0  0  0  0  0  0  0  0  0  0  0  0
   25.1885  -20.0067  -10.3646 N   0  0  0  0  0  0  0  0  0  0  0  0
   24.0116  -19.4100  -11.0643 C   0  0  0  0  0  0  0  0  0  0  0  0
   23.6633  -20.2824  -12.1997 C   0  0  0  0  0  0  0  0  0  0  0  0
   24.1665  -20.0923  -13.5336 C   0  0  0  0  0  0  0  0  0  0  0  0
   23.7614  -20.8565  -14.7366 C   0  0  2  0  0  0  0  0  0  0  0  0
   24.3234  -20.0706  -15.9166 N   0  0  0  0  0  0  0  0  0  0  0  0
   22.3138  -20.7463  -14.9925 C   0  0  0  0  0  0  0  0  0  0  0  0
   21.8818  -19.5965  -15.3636 O   0  0  0  0  0  0  0  0  0  0  0  0
   26.9961  -21.0696   -8.9385 N   0  0  0  0  0  0  0  0  0  0  0  0
   21.3288  -21.7414  -14.8949 C   0  0  2  0  0  0  0  0  0  0  0  0
   19.9281  -21.4217  -15.0124 C   0  0  0  0  0  0  0  0  0  0  0  0
   19.0754  -22.6748  -15.1297 C   0  0  0  0  0  0  0  0  0  0  0  0
   17.6465  -22.3954  -15.3140 O   0  0  0  0  0  0  0  0  0  0  0  0
   17.2321  -21.5910  -16.1836 C   0  0  0  0  0  0  0  0  0  0  0  0
   19.4811  -20.5468  -13.9342 O   0  0  0  0  0  0  0  0  0  0  0  0
   18.6496  -19.4730  -14.2050 O   0  0  0  0  0  0  0  0  0  0  0  0
   16.7046  -23.0251  -14.5174 O   0  0  0  0  0  0  0  0  0  0  0  0
  2  1  1  0
  2  3  2  0
  4  2  1  0
  5  4  1  0
  5  6  1  0
  6  7  1  6
  8  6  1  0
  8  9  2  0
 10 11  1  0
 11 13  1  0
 11 12  2  0
 13 14  1  0
 15 14  1  0
 16 15  1  0
 17 16  1  1
 17 18  1  0
 18  8  1  0
 19 17  1  0
 20 19  2  0
 21 19  1  0
 22 21  1  0
 22 26  1  0
 23 24  1  0
 22 23  1  1
 24 25  2  0
 26 27  1  0
 28 24  1  0
 29 26  2  0
M  END
$$$$
