QRD.pdb
     RDKit          3D

 29 28  0  0  1  0  0  0  0  0999 V2000
   28.6229  -20.0198  -16.0721 N   0  0  0  0  0  0  0  0  0  0  0  0
   28.2353  -18.6744  -16.4667 C   0  0  0  0  0  0  0  0  0  0  0  0
   29.1453  -17.8235  -16.3518 O   0  0  0  0  0  0  0  0  0  0  0  0
   26.8655  -18.4170  -16.9461 C   0  0  0  0  0  0  0  0  0  0  0  0
   25.9881  -19.6050  -17.1272 C   0  0  0  0  0  0  0  0  0  0  0  0
   24.6541  -19.3924  -16.4668 C   0  0  2  0  0  0  0  0  0  0  0  0
   24.4647  -18.0313  -16.1033 N   0  0  0  0  0  0  0  0  0  0  0  0
   24.5136  -20.3235  -15.2886 C   0  0  0  0  0  0  0  0  0  0  0  0
   24.3822  -21.5470  -15.5342 O   0  0  0  0  0  0  0  0  0  0  0  0
   29.1214  -22.1760  -10.3523 N   0  0  0  0  0  0  0  0  0  0  0  0
   28.7909  -20.8794  -10.8309 C   0  0  0  0  0  0  0  0  0  0  0  0
   29.5728  -20.2708  -11.6772 N   0  0  0  0  0  0  0  0  0  0  0  0
   27.6116  -20.2102  -10.4097 N   0  0  0  0  0  0  0  0  0  0  0  0
   26.5124  -20.9900   -9.7661 C   0  0  0  0  0  0  0  0  0  0  0  0
   25.5865  -21.4339  -10.8231 C   0  0  0  0  0  0  0  0  0  0  0  0
   24.8707  -20.5321  -11.6849 C   0  0  0  0  0  0  0  0  0  0  0  0
   24.1122  -20.9049  -12.9019 C   0  0  2  0  0  0  0  0  0  0  0  0
   24.5236  -19.8836  -13.9570 N   0  0  0  0  0  0  0  0  0  0  0  0
   22.6760  -20.6015  -12.7653 C   0  0  0  0  0  0  0  0  0  0  0  0
   22.3739  -19.4214  -12.3621 O   0  0  0  0  0  0  0  0  0  0  0  0
   30.4704  -20.7011  -11.9864 N   0  0  0  0  0  0  0  0  0  0  0  0
   21.5762  -21.4328  -13.0286 C   0  0  1  0  0  0  0  0  0  0  0  0
   20.2272  -20.9275  -12.9772 C   0  0  0  0  0  0  0  0  0  0  0  0
   20.0644  -19.6776  -13.8271 C   0  0  0  0  0  0  0  0  0  0  0  0
   18.6863  -19.1748  -13.8707 O   0  0  0  0  0  0  0  0  0  0  0  0
   17.8344  -19.4912  -13.0052 C   0  0  0  0  0  0  0  0  0  0  0  0
   19.2509  -21.9576  -13.3147 O   0  0  0  0  0  0  0  0  0  0  0  0
   19.5233  -22.8782  -14.3127 O   0  0  0  0  0  0  0  0  0  0  0  0
   18.2868  -18.3231  -14.8872 O   0  0  0  0  0  0  0  0  0  0  0  0
  2  1  1  0
  2  3  2  0
  4  2  1  0
  5  4  1  0
  5  6  1  0
  6  7  1  1
  8  6  1  0
  8  9  2  0
 10 11  1  0
 11 13  1  0
 11 12  2  0
 13 14  1  0
 15 14  1  0
 16 15  1  0
 17 16  1  1
 17 18  1  0
 18  8  1  0
 19 17  1  0
 20 19  2  0
 21 19  1  0
 22 21  1  0
 22 26  1  0
 23 24  1  0
 22 23  1  1
 24 25  2  0
 26 27  1  0
 28 24  1  0
 29 26  2  0
M  END
$$$$
