QRD.pdb
     RDKit          3D

 29 28  0  0  1  0  0  0  0  0999 V2000
   26.8676  -16.1371  -23.1982 N   0  0  0  0  0  0  0  0  0  0  0  0
   27.7947  -16.8204  -22.3095 C   0  0  0  0  0  0  0  0  0  0  0  0
   27.9752  -18.0272  -22.5855 O   0  0  0  0  0  0  0  0  0  0  0  0
   28.4224  -16.0835  -21.1981 C   0  0  0  0  0  0  0  0  0  0  0  0
   28.0075  -14.6659  -21.0191 C   0  0  0  0  0  0  0  0  0  0  0  0
   29.1576  -13.8274  -20.5340 C   0  0  2  0  0  0  0  0  0  0  0  0
   30.0241  -14.5724  -19.6886 N   0  0  0  0  0  0  0  0  0  0  0  0
   28.6340  -12.5830  -19.8616 C   0  0  0  0  0  0  0  0  0  0  0  0
   27.8808  -11.8384  -20.5346 O   0  0  0  0  0  0  0  0  0  0  0  0
   23.2188   -9.3416  -14.9148 N   0  0  0  0  0  0  0  0  0  0  0  0
   23.1729  -10.6443  -15.4807 C   0  0  0  0  0  0  0  0  0  0  0  0
   22.0986  -11.3733  -15.3688 N   0  0  0  0  0  0  0  0  0  0  0  0
   24.2817  -11.1903  -16.1796 N   0  0  0  0  0  0  0  0  0  0  0  0
   25.3846  -10.2894  -16.6296 C   0  0  0  0  0  0  0  0  0  0  0  0
   26.6321  -10.7355  -15.9844 C   0  0  0  0  0  0  0  0  0  0  0  0
   27.7001  -11.3948  -16.6868 C   0  0  0  0  0  0  0  0  0  0  0  0
   28.2734  -10.9827  -17.9895 C   0  0  2  0  0  0  0  0  0  0  0  0
   28.9504  -12.2330  -18.5409 N   0  0  0  0  0  0  0  0  0  0  0  0
   29.4339  -10.0899  -17.8181 C   0  0  0  0  0  0  0  0  0  0  0  0
   30.5558  -10.6513  -17.5486 O   0  0  0  0  0  0  0  0  0  0  0  0
   22.0447  -12.3220  -15.7969 N   0  0  0  0  0  0  0  0  0  0  0  0
   29.4855   -8.6910  -17.9202 C   0  0  1  0  0  0  0  0  0  0  0  0
   30.7313   -8.0030  -18.1493 C   0  0  0  0  0  0  0  0  0  0  0  0
   31.5162   -8.6304  -19.2902 C   0  0  0  0  0  0  0  0  0  0  0  0
   32.7445   -7.9010  -19.6264 O   0  0  0  0  0  0  0  0  0  0  0  0
   33.5973   -7.5969  -18.7573 C   0  0  0  0  0  0  0  0  0  0  0  0
   30.5311   -6.5704  -18.3371 O   0  0  0  0  0  0  0  0  0  0  0  0
   29.2510   -6.0498  -18.4279 O   0  0  0  0  0  0  0  0  0  0  0  0
   32.9957   -7.5245  -20.9354 O   0  0  0  0  0  0  0  0  0  0  0  0
  2  1  1  0
  2  3  2  0
  4  2  1  0
  5  4  1  0
  5  6  1  0
  6  7  1  1
  8  6  1  0
  8  9  2  0
 10 11  1  0
 11 13  1  0
 11 12  2  0
 13 14  1  0
 15 14  1  0
 16 15  1  0
 17 16  1  1
 17 18  1  0
 18  8  1  0
 19 17  1  0
 20 19  2  0
 21 19  1  0
 22 21  1  0
 22 26  1  0
 23 24  1  0
 22 23  1  1
 24 25  2  0
 26 27  1  0
 28 24  1  0
 29 26  2  0
M  END
$$$$
