QRD.pdb
     RDKit          3D

 29 28  0  0  1  0  0  0  0  0999 V2000
   24.6122  -19.3597  -20.1935 N   0  0  0  0  0  0  0  0  0  0  0  0
   25.5657  -18.2813  -19.9842 C   0  0  0  0  0  0  0  0  0  0  0  0
   25.6722  -17.4952  -20.9516 O   0  0  0  0  0  0  0  0  0  0  0  0
   26.3074  -18.1950  -18.7134 C   0  0  0  0  0  0  0  0  0  0  0  0
   25.9800  -19.2139  -17.6796 C   0  0  0  0  0  0  0  0  0  0  0  0
   24.8630  -18.7384  -16.7925 C   0  0  2  0  0  0  0  0  0  0  0  0
   25.2062  -17.5305  -16.1262 N   0  0  0  0  0  0  0  0  0  0  0  0
   24.4753  -19.8322  -15.8291 C   0  0  0  0  0  0  0  0  0  0  0  0
   24.1096  -20.9280  -16.3191 O   0  0  0  0  0  0  0  0  0  0  0  0
   29.1269  -22.7139  -11.0144 N   0  0  0  0  0  0  0  0  0  0  0  0
   28.5435  -21.4928  -10.5807 C   0  0  0  0  0  0  0  0  0  0  0  0
   29.2650  -20.6020   -9.9611 N   0  0  0  0  0  0  0  0  0  0  0  0
   27.1716  -21.2039  -10.8050 N   0  0  0  0  0  0  0  0  0  0  0  0
   26.2174  -22.3219  -11.0696 C   0  0  0  0  0  0  0  0  0  0  0  0
   24.8879  -21.7388  -11.3227 C   0  0  0  0  0  0  0  0  0  0  0  0
   24.6463  -20.6931  -12.2802 C   0  0  0  0  0  0  0  0  0  0  0  0
   24.0099  -20.8555  -13.6083 C   0  0  2  0  0  0  0  0  0  0  0  0
   24.5067  -19.6748  -14.4359 N   0  0  0  0  0  0  0  0  0  0  0  0
   22.5638  -20.5730  -13.5598 C   0  0  0  0  0  0  0  0  0  0  0  0
   22.2224  -19.3758  -13.2491 O   0  0  0  0  0  0  0  0  0  0  0  0
   28.8538  -19.6948   -9.6541 N   0  0  0  0  0  0  0  0  0  0  0  0
   21.4924  -21.4416  -13.8199 C   0  0  1  0  0  0  0  0  0  0  0  0
   20.1254  -21.0043  -13.6865 C   0  0  0  0  0  0  0  0  0  0  0  0
   19.5012  -20.6963  -15.0381 C   0  0  0  0  0  0  0  0  0  0  0  0
   18.0856  -20.3179  -14.9566 O   0  0  0  0  0  0  0  0  0  0  0  0
   17.4898  -20.2009  -13.8583 C   0  0  0  0  0  0  0  0  0  0  0  0
   19.3289  -21.9489  -12.9111 O   0  0  0  0  0  0  0  0  0  0  0  0
   19.7561  -23.2564  -12.7507 O   0  0  0  0  0  0  0  0  0  0  0  0
   17.3610  -20.0765  -16.1120 O   0  0  0  0  0  0  0  0  0  0  0  0
  2  1  1  0
  2  3  2  0
  4  2  1  0
  5  4  1  0
  5  6  1  0
  6  7  1  1
  8  6  1  0
  8  9  2  0
 10 11  1  0
 11 13  1  0
 11 12  2  0
 13 14  1  0
 15 14  1  0
 16 15  1  0
 17 16  1  1
 17 18  1  0
 18  8  1  0
 19 17  1  0
 20 19  2  0
 21 19  1  0
 22 21  1  0
 22 26  1  0
 23 24  1  0
 22 23  1  1
 24 25  2  0
 26 27  1  0
 28 24  1  0
 29 26  2  0
M  END
$$$$
