QRD.pdb
     RDKit          3D

 29 28  0  0  1  0  0  0  0  0999 V2000
   24.9684  -15.4092  -18.5841 N   0  0  0  0  0  0  0  0  0  0  0  0
   26.3700  -15.6073  -18.9197 C   0  0  0  0  0  0  0  0  0  0  0  0
   26.8471  -14.7281  -19.6712 O   0  0  0  0  0  0  0  0  0  0  0  0
   27.0944  -16.7732  -18.3830 C   0  0  0  0  0  0  0  0  0  0  0  0
   26.3054  -17.7260  -17.5563 C   0  0  0  0  0  0  0  0  0  0  0  0
   27.2011  -18.7501  -16.9160 C   0  0  2  0  0  0  0  0  0  0  0  0
   27.9090  -19.5043  -17.8910 N   0  0  0  0  0  0  0  0  0  0  0  0
   26.3947  -19.6263  -15.9904 C   0  0  0  0  0  0  0  0  0  0  0  0
   25.7785  -20.5918  -16.5031 O   0  0  0  0  0  0  0  0  0  0  0  0
   22.5626  -19.8055   -9.8631 N   0  0  0  0  0  0  0  0  0  0  0  0
   23.0856  -20.7900   -8.9819 C   0  0  0  0  0  0  0  0  0  0  0  0
   22.3016  -21.4058   -8.1428 N   0  0  0  0  0  0  0  0  0  0  0  0
   24.4632  -21.1336   -8.9852 N   0  0  0  0  0  0  0  0  0  0  0  0
   25.4056  -20.3893   -9.8732 C   0  0  0  0  0  0  0  0  0  0  0  0
   25.0466  -20.6845  -11.2716 C   0  0  0  0  0  0  0  0  0  0  0  0
   25.7413  -20.1353  -12.4049 C   0  0  0  0  0  0  0  0  0  0  0  0
   25.3893  -20.3430  -13.8292 C   0  0  2  0  0  0  0  0  0  0  0  0
   26.3085  -19.4079  -14.6078 N   0  0  0  0  0  0  0  0  0  0  0  0
   24.0698  -19.7720  -14.1550 C   0  0  0  0  0  0  0  0  0  0  0  0
   23.9133  -18.5193  -13.9253 O   0  0  0  0  0  0  0  0  0  0  0  0
   22.6724  -22.1305   -7.4920 N   0  0  0  0  0  0  0  0  0  0  0  0
   22.9472  -20.4151  -14.6992 C   0  0  1  0  0  0  0  0  0  0  0  0
   21.6966  -19.7192  -14.8713 C   0  0  0  0  0  0  0  0  0  0  0  0
   21.2542  -19.7133  -16.3257 C   0  0  0  0  0  0  0  0  0  0  0  0
   21.5968  -18.4761  -17.0369 O   0  0  0  0  0  0  0  0  0  0  0  0
   22.1572  -17.5113  -16.4624 C   0  0  0  0  0  0  0  0  0  0  0  0
   20.6635  -20.2359  -13.9804 O   0  0  0  0  0  0  0  0  0  0  0  0
   20.7924  -21.4943  -13.4167 O   0  0  0  0  0  0  0  0  0  0  0  0
   21.3041  -18.3424  -18.3840 O   0  0  0  0  0  0  0  0  0  0  0  0
  2  1  1  0
  2  3  2  0
  4  2  1  0
  5  4  1  0
  5  6  1  0
  6  7  1  6
  8  6  1  0
  8  9  2  0
 10 11  1  0
 11 13  1  0
 11 12  2  0
 13 14  1  0
 15 14  1  0
 16 15  1  0
 17 16  1  1
 17 18  1  0
 18  8  1  0
 19 17  1  0
 20 19  2  0
 21 19  1  0
 22 21  1  0
 22 26  1  0
 23 24  1  0
 22 23  1  6
 24 25  2  0
 26 27  1  0
 28 24  1  0
 29 26  2  0
M  END
$$$$
