QRD.pdb
     RDKit          3D

 29 28  0  0  1  0  0  0  0  0999 V2000
   37.4611   -6.3874   -7.1037 N   0  0  0  0  0  0  0  0  0  0  0  0
   36.8295   -7.5217   -6.4474 C   0  0  0  0  0  0  0  0  0  0  0  0
   35.6490   -7.3148   -6.0884 O   0  0  0  0  0  0  0  0  0  0  0  0
   37.5860   -8.7720   -6.2555 C   0  0  0  0  0  0  0  0  0  0  0  0
   38.9977   -8.7762   -6.7255 C   0  0  0  0  0  0  0  0  0  0  0  0
   39.3924  -10.1380   -7.2262 C   0  0  2  0  0  0  0  0  0  0  0  0
   39.1942  -11.1350   -6.2326 N   0  0  0  0  0  0  0  0  0  0  0  0
   40.8146  -10.1052   -7.7272 C   0  0  0  0  0  0  0  0  0  0  0  0
   41.2193   -9.0345   -8.2415 O   0  0  0  0  0  0  0  0  0  0  0  0
   43.6491  -15.9158   -6.2521 N   0  0  0  0  0  0  0  0  0  0  0  0
   43.7768  -15.9278   -7.6674 C   0  0  0  0  0  0  0  0  0  0  0  0
   43.1026  -16.7839   -8.3819 N   0  0  0  0  0  0  0  0  0  0  0  0
   44.6321  -15.0187   -8.3440 N   0  0  0  0  0  0  0  0  0  0  0  0
   45.4681  -14.0667   -7.5533 C   0  0  0  0  0  0  0  0  0  0  0  0
   44.6940  -12.8275   -7.3622 C   0  0  0  0  0  0  0  0  0  0  0  0
   43.6635  -12.3854   -8.2629 C   0  0  0  0  0  0  0  0  0  0  0  0
   43.0521  -11.0362   -8.2952 C   0  0  2  0  0  0  0  0  0  0  0  0
   41.6838  -11.2025   -7.6426 N   0  0  0  0  0  0  0  0  0  0  0  0
   42.6631  -10.6448   -9.6622 C   0  0  0  0  0  0  0  0  0  0  0  0
   41.4842  -10.9797  -10.0423 O   0  0  0  0  0  0  0  0  0  0  0  0
   43.1571  -16.7777   -9.4227 N   0  0  0  0  0  0  0  0  0  0  0  0
   43.4102   -9.9374  -10.6169 C   0  0  1  0  0  0  0  0  0  0  0  0
   42.8902   -9.6860  -11.9375 C   0  0  0  0  0  0  0  0  0  0  0  0
   41.5330   -9.0031  -11.8846 C   0  0  0  0  0  0  0  0  0  0  0  0
   41.0110   -8.6348  -13.2059 O   0  0  0  0  0  0  0  0  0  0  0  0
   41.6065   -8.9432  -14.2667 C   0  0  0  0  0  0  0  0  0  0  0  0
   43.8451   -8.9567  -12.7647 O   0  0  0  0  0  0  0  0  0  0  0  0
   43.5467   -8.6666  -14.0856 O   0  0  0  0  0  0  0  0  0  0  0  0
   39.8267   -7.9250  -13.3145 O   0  0  0  0  0  0  0  0  0  0  0  0
  2  1  1  0
  2  3  2  0
  4  2  1  0
  5  4  1  0
  5  6  1  0
  6  7  1  1
  8  6  1  0
  8  9  2  0
 10 11  1  0
 11 13  1  0
 11 12  2  0
 13 14  1  0
 15 14  1  0
 16 15  1  0
 17 16  1  6
 17 18  1  0
 18  8  1  0
 19 17  1  0
 20 19  2  0
 21 19  1  0
 22 21  1  0
 22 26  1  0
 23 24  1  0
 22 23  1  6
 24 25  2  0
 26 27  1  0
 28 24  1  0
 29 26  2  0
M  END
$$$$
