HEP.pdb
     RDKit          3D

 27 28  0  0  1  0  0  0  0  0999 V2000
    7.9689  -16.8441   19.8657 N   0  0  0  0  0  0  0  0  0  0  0  0
    8.2963  -15.7800   20.7827 C   0  0  1  0  0  0  0  0  0  0  0  0
    7.5081  -14.5542   20.3240 C   0  0  0  0  0  0  0  0  0  0  0  0
    8.0413  -14.0994   18.9902 C   0  0  0  0  0  0  0  0  0  0  0  0
    9.1085  -14.6327   18.3014 C   0  0  0  0  0  0  0  0  0  0  0  0
    9.2876  -13.9670   17.1515 N   0  0  0  0  0  0  0  0  0  0  0  0
    8.3407  -13.0159   17.1080 C   0  0  0  0  0  0  0  0  0  0  0  0
    7.5895  -13.0953   18.2159 N   0  0  0  0  0  0  0  0  0  0  0  0
    8.0273  -16.1221   22.1841 C   0  0  0  0  0  0  0  0  0  0  0  0
    6.9691  -16.7153   22.5026 O   0  0  0  0  0  0  0  0  0  0  0  0
    8.9280  -15.8045   23.2203 N   0  0  0  0  0  0  0  0  0  0  0  0
    8.7169  -16.2242   24.5964 C   0  0  1  0  0  0  0  0  0  0  0  0
    8.5323  -17.7038   24.6530 C   0  0  0  0  0  0  0  0  0  0  0  0
    9.4468  -18.5577   23.8527 C   0  0  0  0  0  0  0  0  0  0  0  0
    9.7294  -19.8770   24.3668 C   0  0  0  0  0  0  0  0  0  0  0  0
   10.7374  -20.2038   25.0062 O   0  0  0  0  0  0  0  0  0  0  0  0
    9.7389  -15.7175   25.4925 C   0  0  0  0  0  0  0  0  0  0  0  0
   10.9302  -16.0422   25.3268 O   0  0  0  0  0  0  0  0  0  0  0  0
    8.7748  -20.8869   24.1208 O   0  0  0  0  0  0  0  0  0  0  0  0
    9.4399  -14.8418   26.5748 N   0  0  0  0  0  0  0  0  0  0  0  0
    8.0919  -14.3295   26.8692 C   0  0  0  0  0  0  0  0  0  0  0  0
    8.1360  -13.6723   28.2085 C   0  0  0  0  0  0  0  0  0  0  0  0
    9.5697  -13.1643   28.2572 C   0  0  0  0  0  0  0  0  0  0  0  0
   10.3326  -14.2906   27.5619 C   0  0  1  0  0  0  0  0  0  0  0  0
   10.7484  -15.3116   28.5624 C   0  0  0  0  0  0  0  0  0  0  0  0
   10.1345  -16.5395   28.6223 O   0  0  0  0  0  0  0  0  0  0  0  0
   11.6689  -15.0340   29.3521 O   0  0  0  0  0  0  0  0  0  0  0  0
  2  1  1  6
  2  3  1  0
  3  4  1  0
  4  5  2  0
  4  8  1  0
  5  6  1  0
  6  7  1  0
  8  7  2  0
  9  2  1  0
  9 10  2  0
 11  9  1  0
 12 11  1  0
 12 17  1  0
 12 13  1  6
 14 13  1  0
 15 14  1  0
 16 15  2  0
 17 20  1  0
 18 17  2  0
 19 15  1  0
 20 24  1  0
 20 21  1  0
 21 22  1  0
 23 22  1  0
 24 23  1  0
 25 26  1  0
 24 25  1  1
 27 25  2  0
M  END
$$$$
