HEP.pdb
     RDKit          3D

 27 28  0  0  1  0  0  0  0  0999 V2000
    6.6499  -16.2378   19.9407 N   0  0  0  0  0  0  0  0  0  0  0  0
    7.5034  -15.4596   20.8047 C   0  0  1  0  0  0  0  0  0  0  0  0
    7.4022  -14.0124   20.3253 C   0  0  0  0  0  0  0  0  0  0  0  0
    8.1012  -13.8861   18.9966 C   0  0  0  0  0  0  0  0  0  0  0  0
    8.1035  -12.7876   18.1652 C   0  0  0  0  0  0  0  0  0  0  0  0
    8.8331  -13.0459   17.0704 N   0  0  0  0  0  0  0  0  0  0  0  0
    9.2926  -14.3006   17.2035 C   0  0  0  0  0  0  0  0  0  0  0  0
    8.8517  -14.8072   18.3641 N   0  0  0  0  0  0  0  0  0  0  0  0
    7.1679  -15.5996   22.2264 C   0  0  0  0  0  0  0  0  0  0  0  0
    5.9906  -15.4262   22.6225 O   0  0  0  0  0  0  0  0  0  0  0  0
    8.1355  -15.9278   23.1969 N   0  0  0  0  0  0  0  0  0  0  0  0
    7.8119  -16.0697   24.6074 C   0  0  1  0  0  0  0  0  0  0  0  0
    8.0010  -17.4879   25.0312 C   0  0  0  0  0  0  0  0  0  0  0  0
    7.8076  -17.8251   26.4646 C   0  0  0  0  0  0  0  0  0  0  0  0
    8.0817  -19.1863   26.8605 C   0  0  0  0  0  0  0  0  0  0  0  0
    8.4730  -20.0922   26.1136 O   0  0  0  0  0  0  0  0  0  0  0  0
    8.5088  -15.1034   25.4350 C   0  0  0  0  0  0  0  0  0  0  0  0
    9.7509  -15.0210   25.3858 O   0  0  0  0  0  0  0  0  0  0  0  0
    7.8873  -19.5183   28.2183 O   0  0  0  0  0  0  0  0  0  0  0  0
    7.8251  -14.2200   26.3180 N   0  0  0  0  0  0  0  0  0  0  0  0
    6.3613  -14.1741   26.4640 C   0  0  0  0  0  0  0  0  0  0  0  0
    6.0476  -13.3273   27.6523 C   0  0  0  0  0  0  0  0  0  0  0  0
    7.2107  -12.3459   27.6490 C   0  0  0  0  0  0  0  0  0  0  0  0
    8.3756  -13.2310   27.2090 C   0  0  1  0  0  0  0  0  0  0  0  0
    9.0139  -13.8549   28.4004 C   0  0  0  0  0  0  0  0  0  0  0  0
    9.8915  -13.1493   29.1881 O   0  0  0  0  0  0  0  0  0  0  0  0
    8.7391  -15.0368   28.6753 O   0  0  0  0  0  0  0  0  0  0  0  0
  2  1  1  6
  2  3  1  0
  3  4  1  0
  4  5  2  0
  4  8  1  0
  5  6  1  0
  6  7  1  0
  8  7  2  0
  9  2  1  0
  9 10  2  0
 11  9  1  0
 12 11  1  0
 12 17  1  0
 12 13  1  1
 14 13  1  0
 15 14  1  0
 16 15  2  0
 17 20  1  0
 18 17  2  0
 19 15  1  0
 20 24  1  0
 20 21  1  0
 21 22  1  0
 23 22  1  0
 24 23  1  0
 25 26  1  0
 24 25  1  1
 27 25  2  0
M  END
$$$$
