HEP.pdb
     RDKit          3D

 27 28  0  0  1  0  0  0  0  0999 V2000
    8.7718  -15.5023   20.4347 N   0  0  0  0  0  0  0  0  0  0  0  0
    7.9885  -14.3975   20.9310 C   0  0  1  0  0  0  0  0  0  0  0  0
    6.9124  -14.1228   19.8818 C   0  0  0  0  0  0  0  0  0  0  0  0
    7.5669  -13.9892   18.5313 C   0  0  0  0  0  0  0  0  0  0  0  0
    8.1972  -12.8736   18.0252 C   0  0  0  0  0  0  0  0  0  0  0  0
    8.6571  -13.1299   16.7922 N   0  0  0  0  0  0  0  0  0  0  0  0
    8.3222  -14.4002   16.5147 C   0  0  0  0  0  0  0  0  0  0  0  0
    7.6651  -14.9184   17.5625 N   0  0  0  0  0  0  0  0  0  0  0  0
    7.4192  -14.6445   22.2607 C   0  0  0  0  0  0  0  0  0  0  0  0
    6.7191  -13.7705   22.8256 O   0  0  0  0  0  0  0  0  0  0  0  0
    7.6299  -15.8527   22.9546 N   0  0  0  0  0  0  0  0  0  0  0  0
    7.3176  -16.0090   24.3661 C   0  0  1  0  0  0  0  0  0  0  0  0
    7.1637  -17.4564   24.6946 C   0  0  0  0  0  0  0  0  0  0  0  0
    6.9336  -17.8352   26.1121 C   0  0  0  0  0  0  0  0  0  0  0  0
    6.8755  -19.2462   26.4124 C   0  0  0  0  0  0  0  0  0  0  0  0
    6.6876  -19.7407   27.5313 O   0  0  0  0  0  0  0  0  0  0  0  0
    8.2512  -15.3008   25.2211 C   0  0  0  0  0  0  0  0  0  0  0  0
    9.4775  -15.4676   25.0781 O   0  0  0  0  0  0  0  0  0  0  0  0
    7.0481  -20.1453   25.3385 O   0  0  0  0  0  0  0  0  0  0  0  0
    7.8237  -14.3989   26.2367 N   0  0  0  0  0  0  0  0  0  0  0  0
    6.4150  -14.1833   26.6046 C   0  0  0  0  0  0  0  0  0  0  0  0
    6.3897  -13.3827   27.8640 C   0  0  0  0  0  0  0  0  0  0  0  0
    7.6585  -12.5532   27.7292 C   0  0  0  0  0  0  0  0  0  0  0  0
    8.6218  -13.5443   27.0781 C   0  0  1  0  0  0  0  0  0  0  0  0
    9.3382  -14.3172   28.1296 C   0  0  0  0  0  0  0  0  0  0  0  0
   10.3895  -13.7680   28.8235 O   0  0  0  0  0  0  0  0  0  0  0  0
    8.9680  -15.4798   28.3731 O   0  0  0  0  0  0  0  0  0  0  0  0
  2  1  1  6
  2  3  1  0
  3  4  1  0
  4  5  2  0
  4  8  1  0
  5  6  1  0
  6  7  1  0
  8  7  2  0
  9  2  1  0
  9 10  2  0
 11  9  1  0
 12 11  1  0
 12 17  1  0
 12 13  1  1
 14 13  1  0
 15 14  1  0
 16 15  2  0
 17 20  1  0
 18 17  2  0
 19 15  1  0
 20 24  1  0
 20 21  1  0
 21 22  1  0
 23 22  1  0
 24 23  1  0
 25 26  1  0
 24 25  1  1
 27 25  2  0
M  END
$$$$
