HEP.pdb
     RDKit          3D

 27 28  0  0  1  0  0  0  0  0999 V2000
    6.7507  -17.7330   19.9673 N   0  0  0  0  0  0  0  0  0  0  0  0
    7.3209  -16.4993   20.4502 C   0  0  1  0  0  0  0  0  0  0  0  0
    6.8899  -15.4093   19.4702 C   0  0  0  0  0  0  0  0  0  0  0  0
    7.7193  -14.1752   19.7136 C   0  0  0  0  0  0  0  0  0  0  0  0
    8.2377  -13.3266   18.7602 C   0  0  0  0  0  0  0  0  0  0  0  0
    8.9217  -12.3378   19.3535 N   0  0  0  0  0  0  0  0  0  0  0  0
    8.8396  -12.5550   20.6760 C   0  0  0  0  0  0  0  0  0  0  0  0
    8.1151  -13.6622   20.8935 N   0  0  0  0  0  0  0  0  0  0  0  0
    6.9382  -16.1882   21.8322 C   0  0  0  0  0  0  0  0  0  0  0  0
    5.7429  -15.9417   22.1214 O   0  0  0  0  0  0  0  0  0  0  0  0
    7.8786  -16.1504   22.8810 N   0  0  0  0  0  0  0  0  0  0  0  0
    7.4883  -16.0686   24.2793 C   0  0  1  0  0  0  0  0  0  0  0  0
    7.5327  -17.4253   24.8988 C   0  0  0  0  0  0  0  0  0  0  0  0
    7.1930  -17.5521   26.3391 C   0  0  0  0  0  0  0  0  0  0  0  0
    7.2909  -18.8693   26.9221 C   0  0  0  0  0  0  0  0  0  0  0  0
    8.3117  -19.3704   27.4106 O   0  0  0  0  0  0  0  0  0  0  0  0
    8.2357  -15.0586   25.0043 C   0  0  0  0  0  0  0  0  0  0  0  0
    9.4650  -14.9505   24.8338 O   0  0  0  0  0  0  0  0  0  0  0  0
    6.1218  -19.6597   26.9385 O   0  0  0  0  0  0  0  0  0  0  0  0
    7.6167  -14.1602   25.9193 N   0  0  0  0  0  0  0  0  0  0  0  0
    6.1766  -14.1597   26.2235 C   0  0  0  0  0  0  0  0  0  0  0  0
    5.9597  -13.2705   27.4025 C   0  0  0  0  0  0  0  0  0  0  0  0
    7.0750  -12.2496   27.2298 C   0  0  0  0  0  0  0  0  0  0  0  0
    8.2201  -13.1120   26.7018 C   0  0  1  0  0  0  0  0  0  0  0  0
    9.0086  -13.6570   27.8409 C   0  0  0  0  0  0  0  0  0  0  0  0
    9.9364  -12.8847   28.4974 O   0  0  0  0  0  0  0  0  0  0  0  0
    8.8138  -14.8343   28.1933 O   0  0  0  0  0  0  0  0  0  0  0  0
  2  1  1  6
  2  3  1  0
  3  4  1  0
  4  5  2  0
  4  8  1  0
  5  6  1  0
  6  7  1  0
  8  7  2  0
  9  2  1  0
  9 10  2  0
 11  9  1  0
 12 11  1  0
 12 17  1  0
 12 13  1  1
 14 13  1  0
 15 14  1  0
 16 15  2  0
 17 20  1  0
 18 17  2  0
 19 15  1  0
 20 24  1  0
 20 21  1  0
 21 22  1  0
 23 22  1  0
 24 23  1  0
 25 26  1  0
 24 25  1  1
 27 25  2  0
M  END
$$$$
