HEP.pdb
     RDKit          3D

 27 28  0  0  1  0  0  0  0  0999 V2000
    9.0297  -15.0242   19.8648 N   0  0  0  0  0  0  0  0  0  0  0  0
    8.1816  -13.9843   20.3938 C   0  0  1  0  0  0  0  0  0  0  0  0
    7.0844  -13.7499   19.3567 C   0  0  0  0  0  0  0  0  0  0  0  0
    7.6864  -13.8351   17.9782 C   0  0  0  0  0  0  0  0  0  0  0  0
    9.0138  -14.0326   17.6668 C   0  0  0  0  0  0  0  0  0  0  0  0
    9.1720  -14.0507   16.3356 N   0  0  0  0  0  0  0  0  0  0  0  0
    7.9536  -13.8661   15.8024 C   0  0  0  0  0  0  0  0  0  0  0  0
    7.0580  -13.7360   16.7919 N   0  0  0  0  0  0  0  0  0  0  0  0
    7.6365  -14.3017   21.7187 C   0  0  0  0  0  0  0  0  0  0  0  0
    6.7889  -13.5488   22.2552 O   0  0  0  0  0  0  0  0  0  0  0  0
    8.0337  -15.4458   22.4391 N   0  0  0  0  0  0  0  0  0  0  0  0
    7.5718  -15.7187   23.7906 C   0  0  1  0  0  0  0  0  0  0  0  0
    7.2307  -17.1648   23.9280 C   0  0  0  0  0  0  0  0  0  0  0  0
    6.9082  -17.6857   25.2810 C   0  0  0  0  0  0  0  0  0  0  0  0
    6.6455  -19.1010   25.3930 C   0  0  0  0  0  0  0  0  0  0  0  0
    5.5546  -19.6147   25.6717 O   0  0  0  0  0  0  0  0  0  0  0  0
    8.4902  -15.2256   24.7994 C   0  0  0  0  0  0  0  0  0  0  0  0
    9.6710  -15.6223   24.8149 O   0  0  0  0  0  0  0  0  0  0  0  0
    7.7253  -19.9809   25.1659 O   0  0  0  0  0  0  0  0  0  0  0  0
    8.0994  -14.2837   25.7932 N   0  0  0  0  0  0  0  0  0  0  0  0
    6.7774  -13.6382   25.8391 C   0  0  0  0  0  0  0  0  0  0  0  0
    6.6583  -12.9349   27.1501 C   0  0  0  0  0  0  0  0  0  0  0  0
    8.1057  -12.5593   27.4326 C   0  0  0  0  0  0  0  0  0  0  0  0
    8.8618  -13.7778   26.9058 C   0  0  1  0  0  0  0  0  0  0  0  0
    9.0011  -14.7919   27.9867 C   0  0  0  0  0  0  0  0  0  0  0  0
    9.9803  -14.6803   28.9443 O   0  0  0  0  0  0  0  0  0  0  0  0
    8.2104  -15.7522   28.0105 O   0  0  0  0  0  0  0  0  0  0  0  0
  2  1  1  6
  2  3  1  0
  3  4  1  0
  4  5  2  0
  4  8  1  0
  5  6  1  0
  6  7  1  0
  8  7  2  0
  9  2  1  0
  9 10  2  0
 11  9  1  0
 12 11  1  0
 12 17  1  0
 12 13  1  6
 14 13  1  0
 15 14  1  0
 16 15  2  0
 17 20  1  0
 18 17  2  0
 19 15  1  0
 20 24  1  0
 20 21  1  0
 21 22  1  0
 23 22  1  0
 24 23  1  0
 25 26  1  0
 24 25  1  1
 27 25  2  0
M  END
$$$$
