HEP.pdb
     RDKit          3D

 27 28  0  0  1  0  0  0  0  0999 V2000
    7.9959  -18.2298   20.6012 N   0  0  0  0  0  0  0  0  0  0  0  0
    8.1663  -16.8139   20.8174 C   0  0  1  0  0  0  0  0  0  0  0  0
    7.5912  -16.1149   19.5865 C   0  0  0  0  0  0  0  0  0  0  0  0
    7.9130  -14.6449   19.6624 C   0  0  0  0  0  0  0  0  0  0  0  0
    8.6473  -14.0090   20.6392 C   0  0  0  0  0  0  0  0  0  0  0  0
    8.7222  -12.6973   20.3720 N   0  0  0  0  0  0  0  0  0  0  0  0
    8.0403  -12.4989   19.2325 C   0  0  0  0  0  0  0  0  0  0  0  0
    7.5524  -13.6723   18.8045 N   0  0  0  0  0  0  0  0  0  0  0  0
    7.5517  -16.3418   22.0635 C   0  0  0  0  0  0  0  0  0  0  0  0
    6.3890  -15.8714   22.0612 O   0  0  0  0  0  0  0  0  0  0  0  0
    8.2270  -16.3918   23.2992 N   0  0  0  0  0  0  0  0  0  0  0  0
    7.6241  -15.9309   24.5395 C   0  0  1  0  0  0  0  0  0  0  0  0
    7.2327  -17.1008   25.3789 C   0  0  0  0  0  0  0  0  0  0  0  0
    6.3011  -18.1019   24.7994 C   0  0  0  0  0  0  0  0  0  0  0  0
    6.4527  -19.4691   25.2376 C   0  0  0  0  0  0  0  0  0  0  0  0
    6.6493  -20.4465   24.5043 O   0  0  0  0  0  0  0  0  0  0  0  0
    8.4487  -14.9550   25.2264 C   0  0  0  0  0  0  0  0  0  0  0  0
    9.6902  -15.0214   25.1473 O   0  0  0  0  0  0  0  0  0  0  0  0
    6.3697  -19.7186   26.6242 O   0  0  0  0  0  0  0  0  0  0  0  0
    7.8944  -13.8965   26.0011 N   0  0  0  0  0  0  0  0  0  0  0  0
    6.4658  -13.5425   26.0058 C   0  0  0  0  0  0  0  0  0  0  0  0
    6.2388  -12.5764   27.1206 C   0  0  0  0  0  0  0  0  0  0  0  0
    7.5781  -11.8564   27.1839 C   0  0  0  0  0  0  0  0  0  0  0  0
    8.5639  -12.9873   26.8956 C   0  0  1  0  0  0  0  0  0  0  0  0
    8.9556  -13.6526   28.1684 C   0  0  0  0  0  0  0  0  0  0  0  0
    9.8895  -13.0915   29.0058 O   0  0  0  0  0  0  0  0  0  0  0  0
    8.4202  -14.7356   28.4659 O   0  0  0  0  0  0  0  0  0  0  0  0
  2  1  1  6
  2  3  1  0
  3  4  1  0
  4  5  2  0
  4  8  1  0
  5  6  1  0
  6  7  1  0
  8  7  2  0
  9  2  1  0
  9 10  2  0
 11  9  1  0
 12 11  1  0
 12 17  1  0
 12 13  1  1
 14 13  1  0
 15 14  1  0
 16 15  2  0
 17 20  1  0
 18 17  2  0
 19 15  1  0
 20 24  1  0
 20 21  1  0
 21 22  1  0
 23 22  1  0
 24 23  1  0
 25 26  1  0
 24 25  1  1
 27 25  2  0
M  END
$$$$
