HEP.pdb
     RDKit          3D

 27 28  0  0  1  0  0  0  0  0999 V2000
    8.4986  -15.8710   20.3944 N   0  0  0  0  0  0  0  0  0  0  0  0
    7.9601  -14.6088   20.8386 C   0  0  1  0  0  0  0  0  0  0  0  0
    6.8979  -14.2066   19.8167 C   0  0  0  0  0  0  0  0  0  0  0  0
    7.5134  -14.2126   18.4415 C   0  0  0  0  0  0  0  0  0  0  0  0
    8.3285  -13.2448   17.8967 C   0  0  0  0  0  0  0  0  0  0  0  0
    8.6820  -13.5944   16.6516 N   0  0  0  0  0  0  0  0  0  0  0  0
    8.0962  -14.7771   16.4049 C   0  0  0  0  0  0  0  0  0  0  0  0
    7.3918  -15.1500   17.4832 N   0  0  0  0  0  0  0  0  0  0  0  0
    7.4276  -14.6570   22.2052 C   0  0  0  0  0  0  0  0  0  0  0  0
    6.7768  -13.6903   22.6690 O   0  0  0  0  0  0  0  0  0  0  0  0
    7.6203  -15.7706   23.0468 N   0  0  0  0  0  0  0  0  0  0  0  0
    7.1849  -15.7875   24.4340 C   0  0  1  0  0  0  0  0  0  0  0  0
    6.7450  -17.1625   24.8112 C   0  0  0  0  0  0  0  0  0  0  0  0
    7.7874  -18.1908   25.0601 C   0  0  0  0  0  0  0  0  0  0  0  0
    7.5824  -19.0732   26.1843 C   0  0  0  0  0  0  0  0  0  0  0  0
    6.5071  -19.2665   26.7658 O   0  0  0  0  0  0  0  0  0  0  0  0
    8.1694  -15.2110   25.3301 C   0  0  0  0  0  0  0  0  0  0  0  0
    9.3495  -15.6088   25.2989 O   0  0  0  0  0  0  0  0  0  0  0  0
    8.7046  -19.7799   26.6670 O   0  0  0  0  0  0  0  0  0  0  0  0
    7.8454  -14.1844   26.2622 N   0  0  0  0  0  0  0  0  0  0  0  0
    6.5129  -13.5702   26.3781 C   0  0  0  0  0  0  0  0  0  0  0  0
    6.4984  -12.7426   27.6200 C   0  0  0  0  0  0  0  0  0  0  0  0
    7.9528  -12.3053   27.7178 C   0  0  0  0  0  0  0  0  0  0  0  0
    8.6951  -13.5515   27.2382 C   0  0  1  0  0  0  0  0  0  0  0  0
    8.9740  -14.4489   28.3927 C   0  0  0  0  0  0  0  0  0  0  0  0
   10.0169  -14.1987   29.2519 O   0  0  0  0  0  0  0  0  0  0  0  0
    8.2421  -15.4393   28.5702 O   0  0  0  0  0  0  0  0  0  0  0  0
  2  1  1  6
  2  3  1  0
  3  4  1  0
  4  5  2  0
  4  8  1  0
  5  6  1  0
  6  7  1  0
  8  7  2  0
  9  2  1  0
  9 10  2  0
 11  9  1  0
 12 11  1  0
 12 17  1  0
 12 13  1  1
 14 13  1  0
 15 14  1  0
 16 15  2  0
 17 20  1  0
 18 17  2  0
 19 15  1  0
 20 24  1  0
 20 21  1  0
 21 22  1  0
 23 22  1  0
 24 23  1  0
 25 26  1  0
 24 25  1  1
 27 25  2  0
M  END
$$$$
