HEP.pdb
     RDKit          3D

 27 28  0  0  1  0  0  0  0  0999 V2000
    8.7085  -15.7035   20.4082 N   0  0  0  0  0  0  0  0  0  0  0  0
    7.9979  -14.5437   20.8882 C   0  0  1  0  0  0  0  0  0  0  0  0
    6.8661  -14.2865   19.8945 C   0  0  0  0  0  0  0  0  0  0  0  0
    7.4439  -14.1965   18.5059 C   0  0  0  0  0  0  0  0  0  0  0  0
    8.2509  -13.1963   18.0098 C   0  0  0  0  0  0  0  0  0  0  0  0
    8.5677  -13.4571   16.7334 N   0  0  0  0  0  0  0  0  0  0  0  0
    7.9667  -14.6158   16.4186 C   0  0  0  0  0  0  0  0  0  0  0  0
    7.2893  -15.0617   17.4864 N   0  0  0  0  0  0  0  0  0  0  0  0
    7.5077  -14.6948   22.2630 C   0  0  0  0  0  0  0  0  0  0  0  0
    6.6702  -13.8877   22.7324 O   0  0  0  0  0  0  0  0  0  0  0  0
    7.9481  -15.7340   23.1068 N   0  0  0  0  0  0  0  0  0  0  0  0
    7.5220  -15.8507   24.4921 C   0  0  1  0  0  0  0  0  0  0  0  0
    7.2262  -17.2774   24.8136 C   0  0  0  0  0  0  0  0  0  0  0  0
    6.3225  -18.0299   23.9065 C   0  0  0  0  0  0  0  0  0  0  0  0
    6.0690  -19.4131   24.2333 C   0  0  0  0  0  0  0  0  0  0  0  0
    6.5270  -20.0219   25.2087 O   0  0  0  0  0  0  0  0  0  0  0  0
    8.4459  -15.2129   25.4108 C   0  0  0  0  0  0  0  0  0  0  0  0
    9.6573  -15.5014   25.3774 O   0  0  0  0  0  0  0  0  0  0  0  0
    5.2251  -20.1401   23.3666 O   0  0  0  0  0  0  0  0  0  0  0  0
    8.0258  -14.2462   26.3683 N   0  0  0  0  0  0  0  0  0  0  0  0
    6.6312  -13.8061   26.5343 C   0  0  0  0  0  0  0  0  0  0  0  0
    6.5529  -13.0015   27.7889 C   0  0  0  0  0  0  0  0  0  0  0  0
    7.9434  -12.3858   27.8492 C   0  0  0  0  0  0  0  0  0  0  0  0
    8.8203  -13.5229   27.3278 C   0  0  1  0  0  0  0  0  0  0  0  0
    9.2466  -14.3915   28.4591 C   0  0  0  0  0  0  0  0  0  0  0  0
   10.2627  -14.0122   29.3030 O   0  0  0  0  0  0  0  0  0  0  0  0
    8.6641  -15.4773   28.6312 O   0  0  0  0  0  0  0  0  0  0  0  0
  2  1  1  6
  2  3  1  0
  3  4  1  0
  4  5  2  0
  4  8  1  0
  5  6  1  0
  6  7  1  0
  8  7  2  0
  9  2  1  0
  9 10  2  0
 11  9  1  0
 12 11  1  0
 12 17  1  0
 12 13  1  1
 14 13  1  0
 15 14  1  0
 16 15  2  0
 17 20  1  0
 18 17  2  0
 19 15  1  0
 20 24  1  0
 20 21  1  0
 21 22  1  0
 23 22  1  0
 24 23  1  0
 25 26  1  0
 24 25  1  1
 27 25  2  0
M  END
$$$$
