HEP.pdb
     RDKit          3D

 27 28  0  0  1  0  0  0  0  0999 V2000
    8.4609  -16.0517   20.4670 N   0  0  0  0  0  0  0  0  0  0  0  0
    7.9889  -14.8977   21.1922 C   0  0  1  0  0  0  0  0  0  0  0  0
    6.8106  -14.3378   20.3971 C   0  0  0  0  0  0  0  0  0  0  0  0
    7.2589  -14.0606   18.9856 C   0  0  0  0  0  0  0  0  0  0  0  0
    7.9667  -12.9644   18.5436 C   0  0  0  0  0  0  0  0  0  0  0  0
    8.1834  -13.0635   17.2242 N   0  0  0  0  0  0  0  0  0  0  0  0
    7.6177  -14.2151   16.8284 C   0  0  0  0  0  0  0  0  0  0  0  0
    7.0604  -14.8162   17.8895 N   0  0  0  0  0  0  0  0  0  0  0  0
    7.6297  -15.1969   22.5832 C   0  0  0  0  0  0  0  0  0  0  0  0
    6.4394  -15.4400   22.8949 O   0  0  0  0  0  0  0  0  0  0  0  0
    8.5874  -15.2230   23.6166 N   0  0  0  0  0  0  0  0  0  0  0  0
    8.2943  -15.7445   24.9418 C   0  0  1  0  0  0  0  0  0  0  0  0
    7.6395  -17.0804   24.8282 C   0  0  0  0  0  0  0  0  0  0  0  0
    7.4454  -17.8761   26.0672 C   0  0  0  0  0  0  0  0  0  0  0  0
    6.8656  -19.1899   25.9183 C   0  0  0  0  0  0  0  0  0  0  0  0
    6.6066  -19.7492   24.8451 O   0  0  0  0  0  0  0  0  0  0  0  0
    9.4533  -15.7222   25.8141 C   0  0  0  0  0  0  0  0  0  0  0  0
   10.4635  -16.3917   25.5258 O   0  0  0  0  0  0  0  0  0  0  0  0
    6.5652  -19.9036   27.0982 O   0  0  0  0  0  0  0  0  0  0  0  0
    9.4948  -14.9496   27.0095 N   0  0  0  0  0  0  0  0  0  0  0  0
    8.3961  -14.0837   27.4670 C   0  0  0  0  0  0  0  0  0  0  0  0
    8.7020  -13.6585   28.8646 C   0  0  0  0  0  0  0  0  0  0  0  0
   10.2237  -13.6380   28.8560 C   0  0  0  0  0  0  0  0  0  0  0  0
   10.5556  -14.8436   27.9783 C   0  0  1  0  0  0  0  0  0  0  0  0
   10.6597  -16.0674   28.8196 C   0  0  0  0  0  0  0  0  0  0  0  0
   11.7780  -16.3151   29.5788 O   0  0  0  0  0  0  0  0  0  0  0  0
    9.7101  -16.8712   28.8251 O   0  0  0  0  0  0  0  0  0  0  0  0
  2  1  1  6
  2  3  1  0
  3  4  1  0
  4  5  2  0
  4  8  1  0
  5  6  1  0
  6  7  1  0
  8  7  2  0
  9  2  1  0
  9 10  2  0
 11  9  1  0
 12 11  1  0
 12 17  1  0
 12 13  1  6
 14 13  1  0
 15 14  1  0
 16 15  2  0
 17 20  1  0
 18 17  2  0
 19 15  1  0
 20 24  1  0
 20 21  1  0
 21 22  1  0
 23 22  1  0
 24 23  1  0
 25 26  1  0
 24 25  1  1
 27 25  2  0
M  END
$$$$
