NAH.pdb
     RDKit          3D

 24 24  0  0  1  0  0  0  0  0999 V2000
   15.3137  -13.7740   18.2252 N   0  0  0  0  0  0  0  0  0  0  0  0
   14.7088  -14.4947   19.2823 C   0  0  0  0  0  0  0  0  0  0  0  0
   15.4224  -15.2598   19.9647 O   0  0  0  0  0  0  0  0  0  0  0  0
   13.2672  -14.3368   19.5611 C   0  0  0  0  0  0  0  0  0  0  0  0
   12.5635  -15.5993   19.1858 C   0  0  2  0  0  0  0  0  0  0  0  0
   12.2740  -15.5500   17.7700 N   0  0  0  0  0  0  0  0  0  0  0  0
   11.3148  -15.8190   19.9535 C   0  0  0  0  0  0  0  0  0  0  0  0
   10.3052  -15.1114   19.7075 O   0  0  0  0  0  0  0  0  0  0  0  0
    9.8616  -18.4864   22.1620 C   0  0  0  0  0  0  0  0  0  0  0  0
    9.9816  -17.0623   21.6953 C   0  0  2  0  0  0  0  0  0  0  0  0
   11.1911  -16.7984   20.9670 N   0  0  0  0  0  0  0  0  0  0  0  0
    9.8109  -16.1760   22.8681 C   0  0  0  0  0  0  0  0  0  0  0  0
   10.8548  -15.7552   23.4280 O   0  0  0  0  0  0  0  0  0  0  0  0
    8.5714  -15.7762   23.3940 N   0  0  0  0  0  0  0  0  0  0  0  0
    8.4042  -14.8476   24.5020 C   0  0  1  0  0  0  0  0  0  0  0  0
    6.9967  -14.4039   24.6610 C   0  0  0  0  0  0  0  0  0  0  0  0
    6.8532  -13.4953   25.8174 C   0  0  0  0  0  0  0  0  0  0  0  0
    7.8088  -13.0228   26.7049 C   0  0  0  0  0  0  0  0  0  0  0  0
    7.2197  -12.2378   27.6165 N   0  0  0  0  0  0  0  0  0  0  0  0
    5.9215  -12.1894   27.3470 C   0  0  0  0  0  0  0  0  0  0  0  0
    5.6914  -12.9355   26.2764 N   0  0  0  0  0  0  0  0  0  0  0  0
    8.9212  -15.4973   25.7170 C   0  0  0  0  0  0  0  0  0  0  0  0
    9.6656  -14.8662   26.7006 O   0  0  0  0  0  0  0  0  0  0  0  0
    8.6949  -16.7235   25.9191 O   0  0  0  0  0  0  0  0  0  0  0  0
  2  1  1  0
  3  2  2  0
  4  5  1  0
  4  2  1  0
  5  6  1  6
  7 11  1  0
  7  5  1  0
  8  7  2  0
 10  9  1  1
 10 12  1  0
 10 11  1  0
 12 14  1  0
 13 12  2  0
 14 15  1  0
 15 16  1  1
 15 22  1  0
 17 16  1  0
 18 17  2  0
 19 20  1  0
 19 18  1  0
 20 21  2  0
 21 17  1  0
 22 24  2  0
 22 23  1  0
M  END
$$$$
