NAH.pdb
     RDKit          3D

 24 24  0  0  1  0  0  0  0  0999 V2000
   10.2211  -20.9445   19.9482 N   0  0  0  0  0  0  0  0  0  0  0  0
   10.8657  -19.9985   19.1161 C   0  0  0  0  0  0  0  0  0  0  0  0
   11.4002  -20.4012   18.0615 O   0  0  0  0  0  0  0  0  0  0  0  0
   10.8983  -18.5722   19.4976 C   0  0  0  0  0  0  0  0  0  0  0  0
    9.6268  -18.2340   20.2041 C   0  0  2  0  0  0  0  0  0  0  0  0
    8.5258  -18.5188   19.3111 N   0  0  0  0  0  0  0  0  0  0  0  0
    9.5680  -16.8220   20.6508 C   0  0  0  0  0  0  0  0  0  0  0  0
   10.6326  -16.1615   20.7550 O   0  0  0  0  0  0  0  0  0  0  0  0
    6.8951  -14.2262   21.3690 C   0  0  0  0  0  0  0  0  0  0  0  0
    8.2771  -14.8116   21.4567 C   0  0  2  0  0  0  0  0  0  0  0  0
    8.3589  -16.1616   20.9731 N   0  0  0  0  0  0  0  0  0  0  0  0
    8.7510  -14.6701   22.8514 C   0  0  0  0  0  0  0  0  0  0  0  0
    8.8414  -13.5042   23.3128 O   0  0  0  0  0  0  0  0  0  0  0  0
    9.1037  -15.7416   23.6883 N   0  0  0  0  0  0  0  0  0  0  0  0
    9.7002  -15.5984   25.0079 C   0  0  1  0  0  0  0  0  0  0  0  0
    8.6893  -15.6444   26.0938 C   0  0  0  0  0  0  0  0  0  0  0  0
    7.8699  -14.4148   26.1099 C   0  0  0  0  0  0  0  0  0  0  0  0
    8.2530  -13.0892   26.2507 C   0  0  0  0  0  0  0  0  0  0  0  0
    7.1655  -12.3074   26.2308 N   0  0  0  0  0  0  0  0  0  0  0  0
    6.0989  -13.0824   26.0829 C   0  0  0  0  0  0  0  0  0  0  0  0
    6.5067  -14.3409   26.0097 N   0  0  0  0  0  0  0  0  0  0  0  0
   10.7223  -16.6465   25.1573 C   0  0  0  0  0  0  0  0  0  0  0  0
   11.5565  -16.7929   26.2539 O   0  0  0  0  0  0  0  0  0  0  0  0
   10.8881  -17.4983   24.2394 O   0  0  0  0  0  0  0  0  0  0  0  0
  2  1  1  0
  3  2  2  0
  4  5  1  0
  4  2  1  0
  5  6  1  6
  7 11  1  0
  7  5  1  0
  8  7  2  0
 10  9  1  1
 10 12  1  0
 10 11  1  0
 12 14  1  0
 13 12  2  0
 14 15  1  0
 15 16  1  1
 15 22  1  0
 17 16  1  0
 18 17  2  0
 19 20  1  0
 19 18  1  0
 20 21  2  0
 21 17  1  0
 22 24  2  0
 22 23  1  0
M  END
$$$$
