NAH.pdb
     RDKit          3D

 24 24  0  0  1  0  0  0  0  0999 V2000
    7.5728  -14.4367   14.0479 N   0  0  0  0  0  0  0  0  0  0  0  0
    8.1275  -15.7366   13.9756 C   0  0  0  0  0  0  0  0  0  0  0  0
    8.5905  -16.1254   12.8825 O   0  0  0  0  0  0  0  0  0  0  0  0
    8.1521  -16.6026   15.1716 C   0  0  0  0  0  0  0  0  0  0  0  0
    9.4174  -16.3491   15.9231 C   0  0  2  0  0  0  0  0  0  0  0  0
   10.5104  -16.9262   15.1727 N   0  0  0  0  0  0  0  0  0  0  0  0
    9.3970  -16.9008   17.2986 C   0  0  0  0  0  0  0  0  0  0  0  0
    8.4826  -16.5560   18.0896 O   0  0  0  0  0  0  0  0  0  0  0  0
   11.5034  -19.3065   19.3682 C   0  0  0  0  0  0  0  0  0  0  0  0
   10.4475  -18.2600   19.1442 C   0  0  2  0  0  0  0  0  0  0  0  0
   10.3662  -17.8110   17.7824 N   0  0  0  0  0  0  0  0  0  0  0  0
   10.6812  -17.1559   20.1014 C   0  0  0  0  0  0  0  0  0  0  0  0
   11.6659  -16.4051   19.8843 O   0  0  0  0  0  0  0  0  0  0  0  0
    9.8837  -16.8918   21.2271 N   0  0  0  0  0  0  0  0  0  0  0  0
   10.1197  -15.8105   22.1721 C   0  0  1  0  0  0  0  0  0  0  0  0
    8.9185  -14.9620   22.3725 C   0  0  0  0  0  0  0  0  0  0  0  0
    8.6044  -14.1886   21.1532 C   0  0  0  0  0  0  0  0  0  0  0  0
    9.3052  -14.0786   19.9612 C   0  0  0  0  0  0  0  0  0  0  0  0
    8.6556  -13.2445   19.1387 N   0  0  0  0  0  0  0  0  0  0  0  0
    7.5643  -12.8150   19.7589 C   0  0  0  0  0  0  0  0  0  0  0  0
    7.5234  -13.3712   20.9608 N   0  0  0  0  0  0  0  0  0  0  0  0
   10.5932  -16.4071   23.4313 C   0  0  0  0  0  0  0  0  0  0  0  0
   11.1731  -15.7045   24.4752 O   0  0  0  0  0  0  0  0  0  0  0  0
   10.4846  -17.6519   23.6171 O   0  0  0  0  0  0  0  0  0  0  0  0
  2  1  1  0
  3  2  2  0
  4  5  1  0
  4  2  1  0
  5  6  1  6
  7 11  1  0
  7  5  1  0
  8  7  2  0
 10  9  1  6
 10 12  1  0
 10 11  1  0
 12 14  1  0
 13 12  2  0
 14 15  1  0
 15 16  1  1
 15 22  1  0
 17 16  1  0
 18 17  2  0
 19 20  1  0
 19 18  1  0
 20 21  2  0
 21 17  1  0
 22 24  2  0
 22 23  1  0
M  END
$$$$
