NAH.pdb
     RDKit          3D

 24 24  0  0  1  0  0  0  0  0999 V2000
    8.1881  -14.4086   14.8248 N   0  0  0  0  0  0  0  0  0  0  0  0
    9.2240  -15.2691   14.3896 C   0  0  0  0  0  0  0  0  0  0  0  0
    9.8404  -14.9755   13.3436 O   0  0  0  0  0  0  0  0  0  0  0  0
    9.5580  -16.4819   15.1632 C   0  0  0  0  0  0  0  0  0  0  0  0
    8.6600  -16.5553   16.3541 C   0  0  2  0  0  0  0  0  0  0  0  0
    7.3633  -16.0415   15.9729 N   0  0  0  0  0  0  0  0  0  0  0  0
    9.1812  -15.8063   17.5220 C   0  0  0  0  0  0  0  0  0  0  0  0
   10.3476  -16.0340   17.9324 O   0  0  0  0  0  0  0  0  0  0  0  0
    7.8715  -13.1745   19.9458 C   0  0  0  0  0  0  0  0  0  0  0  0
    8.8402  -14.2080   19.4421 C   0  0  2  0  0  0  0  0  0  0  0  0
    8.4270  -14.8304   18.2155 N   0  0  0  0  0  0  0  0  0  0  0  0
    9.0824  -15.1826   20.5290 C   0  0  0  0  0  0  0  0  0  0  0  0
    8.0963  -15.8482   20.9351 O   0  0  0  0  0  0  0  0  0  0  0  0
   10.3294  -15.4126   21.1330 N   0  0  0  0  0  0  0  0  0  0  0  0
   10.5788  -16.4136   22.1595 C   0  0  1  0  0  0  0  0  0  0  0  0
   11.5156  -17.4707   21.7034 C   0  0  0  0  0  0  0  0  0  0  0  0
   10.8169  -18.4832   20.8848 C   0  0  0  0  0  0  0  0  0  0  0  0
    9.4815  -18.5684   20.5194 C   0  0  0  0  0  0  0  0  0  0  0  0
    9.2900  -19.6743   19.7883 N   0  0  0  0  0  0  0  0  0  0  0  0
   10.4530  -20.3019   19.6713 C   0  0  0  0  0  0  0  0  0  0  0  0
   11.3707  -19.6010   20.3211 N   0  0  0  0  0  0  0  0  0  0  0  0
   11.0706  -15.7171   23.3590 C   0  0  0  0  0  0  0  0  0  0  0  0
   11.0909  -16.2523   24.6368 O   0  0  0  0  0  0  0  0  0  0  0  0
   11.5155  -14.5387   23.2636 O   0  0  0  0  0  0  0  0  0  0  0  0
  2  1  1  0
  3  2  2  0
  4  5  1  0
  4  2  1  0
  5  6  1  6
  7 11  1  0
  7  5  1  0
  8  7  2  0
 10  9  1  1
 10 12  1  0
 10 11  1  0
 12 14  1  0
 13 12  2  0
 14 15  1  0
 15 16  1  6
 15 22  1  0
 17 16  1  0
 18 17  2  0
 19 20  1  0
 19 18  1  0
 20 21  2  0
 21 17  1  0
 22 24  2  0
 22 23  1  0
M  END
$$$$
