NAH.pdb
     RDKit          3D

 24 24  0  0  1  0  0  0  0  0999 V2000
    7.4162  -12.7003   16.9461 N   0  0  0  0  0  0  0  0  0  0  0  0
    8.4266  -13.2945   17.7390 C   0  0  0  0  0  0  0  0  0  0  0  0
    9.5367  -13.5229   17.2138 O   0  0  0  0  0  0  0  0  0  0  0  0
    8.1617  -13.6315   19.1522 C   0  0  0  0  0  0  0  0  0  0  0  0
    8.4981  -15.0693   19.3751 C   0  0  2  0  0  0  0  0  0  0  0  0
    7.7592  -15.8588   18.4152 N   0  0  0  0  0  0  0  0  0  0  0  0
    8.1982  -15.5297   20.7516 C   0  0  0  0  0  0  0  0  0  0  0  0
    7.5971  -14.7605   21.5438 O   0  0  0  0  0  0  0  0  0  0  0  0
    8.3098  -18.8161   22.6352 C   0  0  0  0  0  0  0  0  0  0  0  0
    8.1867  -17.3218   22.5252 C   0  0  2  0  0  0  0  0  0  0  0  0
    8.5565  -16.8102   21.2351 N   0  0  0  0  0  0  0  0  0  0  0  0
    8.9604  -16.7121   23.6296 C   0  0  0  0  0  0  0  0  0  0  0  0
   10.1568  -16.4066   23.3936 O   0  0  0  0  0  0  0  0  0  0  0  0
    8.4528  -16.4535   24.9135 N   0  0  0  0  0  0  0  0  0  0  0  0
    9.2187  -15.8657   26.0024 C   0  0  1  0  0  0  0  0  0  0  0  0
    8.3578  -15.1547   26.9803 C   0  0  0  0  0  0  0  0  0  0  0  0
    7.6305  -14.0408   26.3371 C   0  0  0  0  0  0  0  0  0  0  0  0
    8.0499  -13.1447   25.3650 C   0  0  0  0  0  0  0  0  0  0  0  0
    7.0595  -12.2836   25.0967 N   0  0  0  0  0  0  0  0  0  0  0  0
    6.0204  -12.5939   25.8609 C   0  0  0  0  0  0  0  0  0  0  0  0
    6.3493  -13.6400   26.6047 N   0  0  0  0  0  0  0  0  0  0  0  0
   10.0038  -16.9391   26.6326 C   0  0  0  0  0  0  0  0  0  0  0  0
   10.9992  -16.7465   27.5769 O   0  0  0  0  0  0  0  0  0  0  0  0
    9.7890  -18.1433   26.3172 O   0  0  0  0  0  0  0  0  0  0  0  0
  2  1  1  0
  3  2  2  0
  4  5  1  0
  4  2  1  0
  5  6  1  6
  7 11  1  0
  7  5  1  0
  8  7  2  0
 10  9  1  6
 10 12  1  0
 10 11  1  0
 12 14  1  0
 13 12  2  0
 14 15  1  0
 15 16  1  1
 15 22  1  0
 17 16  1  0
 18 17  2  0
 19 20  1  0
 19 18  1  0
 20 21  2  0
 21 17  1  0
 22 24  2  0
 22 23  1  0
M  END
$$$$
