NAH.pdb
     RDKit          3D

 24 24  0  0  1  0  0  0  0  0999 V2000
   13.1495  -14.5796   21.2208 N   0  0  0  0  0  0  0  0  0  0  0  0
   13.4130  -14.6470   19.8320 C   0  0  0  0  0  0  0  0  0  0  0  0
   13.9454  -13.6613   19.2796 O   0  0  0  0  0  0  0  0  0  0  0  0
   13.0618  -15.8599   19.0661 C   0  0  0  0  0  0  0  0  0  0  0  0
   11.6235  -15.7804   18.6724 C   0  0  2  0  0  0  0  0  0  0  0  0
   11.3951  -14.4914   18.0582 N   0  0  0  0  0  0  0  0  0  0  0  0
   10.6971  -15.9719   19.8134 C   0  0  0  0  0  0  0  0  0  0  0  0
    9.8362  -15.0911   20.0656 O   0  0  0  0  0  0  0  0  0  0  0  0
    9.8191  -18.8431   22.1426 C   0  0  0  0  0  0  0  0  0  0  0  0
    9.7011  -17.4458   21.6003 C   0  0  2  0  0  0  0  0  0  0  0  0
   10.7264  -17.1114   20.6517 N   0  0  0  0  0  0  0  0  0  0  0  0
    9.6481  -16.5092   22.7447 C   0  0  0  0  0  0  0  0  0  0  0  0
   10.7194  -15.9376   23.0704 O   0  0  0  0  0  0  0  0  0  0  0  0
    8.4912  -16.2177   23.4860 N   0  0  0  0  0  0  0  0  0  0  0  0
    8.4107  -15.2060   24.5290 C   0  0  1  0  0  0  0  0  0  0  0  0
    7.0239  -14.7215   24.7415 C   0  0  0  0  0  0  0  0  0  0  0  0
    6.9507  -13.8122   25.9040 C   0  0  0  0  0  0  0  0  0  0  0  0
    7.9443  -13.4044   26.7817 C   0  0  0  0  0  0  0  0  0  0  0  0
    7.4159  -12.5897   27.7044 N   0  0  0  0  0  0  0  0  0  0  0  0
    6.1200  -12.4599   27.4512 C   0  0  0  0  0  0  0  0  0  0  0  0
    5.8313  -13.1844   26.3801 N   0  0  0  0  0  0  0  0  0  0  0  0
    8.9932  -15.7745   25.7550 C   0  0  0  0  0  0  0  0  0  0  0  0
    9.7382  -15.0660   26.6838 O   0  0  0  0  0  0  0  0  0  0  0  0
    8.8283  -16.9985   26.0205 O   0  0  0  0  0  0  0  0  0  0  0  0
  2  1  1  0
  3  2  2  0
  4  5  1  0
  4  2  1  0
  5  6  1  1
  7 11  1  0
  7  5  1  0
  8  7  2  0
 10  9  1  1
 10 12  1  0
 10 11  1  0
 12 14  1  0
 13 12  2  0
 14 15  1  0
 15 16  1  1
 15 22  1  0
 17 16  1  0
 18 17  2  0
 19 20  1  0
 19 18  1  0
 20 21  2  0
 21 17  1  0
 22 24  2  0
 22 23  1  0
M  END
$$$$
