HCV.pdb
     RDKit          3D

 24 24  0  0  1  0  0  0  0  0999 V2000
   20.9677  -15.7176  -16.4125 N   0  0  0  0  0  0  0  0  0  0  0  0
   20.8656  -14.5067  -17.1646 C   0  0  1  0  0  0  0  0  0  0  0  0
   19.6525  -14.4939  -18.0539 C   0  0  0  0  0  0  0  0  0  0  0  0
   19.8196  -15.5808  -19.0498 C   0  0  0  0  0  0  0  0  0  0  0  0
   20.5026  -15.4999  -20.2428 C   0  0  0  0  0  0  0  0  0  0  0  0
   20.4276  -16.6914  -20.8641 N   0  0  0  0  0  0  0  0  0  0  0  0
   19.7115  -17.5258  -20.0900 C   0  0  0  0  0  0  0  0  0  0  0  0
   19.3415  -16.8335  -18.9754 N   0  0  0  0  0  0  0  0  0  0  0  0
   20.8770  -13.3153  -16.2446 C   0  0  0  0  0  0  0  0  0  0  0  0
   20.0789  -13.2703  -15.2858 O   0  0  0  0  0  0  0  0  0  0  0  0
   21.7857  -12.2386  -16.4525 N   0  0  0  0  0  0  0  0  0  0  0  0
   21.9071  -11.0597  -15.6735 C   0  0  1  0  0  0  0  0  0  0  0  0
   23.3153  -10.7035  -15.3055 C   0  0  0  0  0  0  0  0  0  0  0  0
   23.3843   -9.1542  -14.3532 S   0  0  0  0  0  0  0  0  0  0  0  0
   21.2355   -9.8533  -16.2439 C   0  0  0  0  0  0  0  0  0  0  0  0
   21.5132   -9.4930  -17.4083 O   0  0  0  0  0  0  0  0  0  0  0  0
   17.4827   -6.7901  -16.6571 C   0  0  0  0  0  0  0  0  0  0  0  0
   18.1462   -8.0305  -16.1088 C   0  0  2  0  0  0  0  0  0  0  0  0
   17.5880   -8.4145  -14.7535 C   0  0  0  0  0  0  0  0  0  0  0  0
   19.6493   -7.9241  -16.1046 C   0  0  2  0  0  0  0  0  0  0  0  0
   20.2837   -9.0882  -15.5142 N   0  0  0  0  0  0  0  0  0  0  0  0
   20.0077   -6.7278  -15.3100 C   0  0  0  0  0  0  0  0  0  0  0  0
   19.8994   -5.5978  -15.8166 O   0  0  0  0  0  0  0  0  0  0  0  0
   20.4593   -6.8555  -14.0164 O   0  0  0  0  0  0  0  0  0  0  0  0
  2  1  1  1
  3  2  1  0
  4  3  1  0
  4  5  2  0
  6  5  1  0
  7  8  2  0
  7  6  1  0
  8  4  1  0
  9  2  1  0
 10  9  2  0
 11  9  1  0
 12 11  1  0
 12 15  1  0
 12 13  1  6
 14 13  1  0
 15 21  1  0
 16 15  2  0
 18 17  1  1
 19 18  1  0
 20 18  1  0
 20 22  1  0
 20 21  1  1
 22 23  2  0
 22 24  1  0
M  END
$$$$
