HCV.pdb
     RDKit          3D

 24 24  0  0  1  0  0  0  0  0999 V2000
   18.6926  -11.5596  -16.6376 N   0  0  0  0  0  0  0  0  0  0  0  0
   19.6211  -10.6349  -17.2075 C   0  0  1  0  0  0  0  0  0  0  0  0
   19.3516  -10.3898  -18.6669 C   0  0  0  0  0  0  0  0  0  0  0  0
   19.5297  -11.6812  -19.3752 C   0  0  0  0  0  0  0  0  0  0  0  0
   18.5601  -12.3803  -20.0590 C   0  0  0  0  0  0  0  0  0  0  0  0
   19.1105  -13.5007  -20.5619 N   0  0  0  0  0  0  0  0  0  0  0  0
   20.4084  -13.5265  -20.2113 C   0  0  0  0  0  0  0  0  0  0  0  0
   20.6574  -12.4026  -19.4811 N   0  0  0  0  0  0  0  0  0  0  0  0
   19.6206   -9.3453  -16.4311 C   0  0  0  0  0  0  0  0  0  0  0  0
   18.5359   -8.7882  -16.1640 O   0  0  0  0  0  0  0  0  0  0  0  0
   20.8401   -8.7517  -15.9970 N   0  0  0  0  0  0  0  0  0  0  0  0
   20.9978   -7.5045  -15.3404 C   0  0  1  0  0  0  0  0  0  0  0  0
   21.8301   -7.5616  -14.0955 C   0  0  0  0  0  0  0  0  0  0  0  0
   22.1326   -5.8995  -13.4187 S   0  0  0  0  0  0  0  0  0  0  0  0
   21.4959   -6.3932  -16.2056 C   0  0  0  0  0  0  0  0  0  0  0  0
   22.6150   -6.4995  -16.7524 O   0  0  0  0  0  0  0  0  0  0  0  0
   20.8298   -2.8393  -19.4087 C   0  0  0  0  0  0  0  0  0  0  0  0
   20.3051   -3.9027  -18.4742 C   0  0  2  0  0  0  0  0  0  0  0  0
   18.8934   -3.6002  -18.0139 C   0  0  0  0  0  0  0  0  0  0  0  0
   21.2418   -4.1705  -17.3246 C   0  0  2  0  0  0  0  0  0  0  0  0
   20.7459   -5.2069  -16.4380 N   0  0  0  0  0  0  0  0  0  0  0  0
   21.3784   -2.9103  -16.5602 C   0  0  0  0  0  0  0  0  0  0  0  0
   20.7124   -2.7443  -15.5238 O   0  0  0  0  0  0  0  0  0  0  0  0
   22.2356   -1.9218  -16.9865 O   0  0  0  0  0  0  0  0  0  0  0  0
  2  1  1  1
  3  2  1  0
  4  3  1  0
  4  5  2  0
  6  5  1  0
  7  8  2  0
  7  6  1  0
  8  4  1  0
  9  2  1  0
 10  9  2  0
 11  9  1  0
 12 11  1  0
 12 15  1  0
 12 13  1  1
 14 13  1  0
 15 21  1  0
 16 15  2  0
 18 17  1  1
 19 18  1  0
 20 18  1  0
 20 22  1  0
 20 21  1  1
 22 23  2  0
 22 24  1  0
M  END
$$$$
