HCV.pdb
     RDKit          3D

 24 24  0  0  1  0  0  0  0  0999 V2000
   16.4561  -13.1152  -12.0195 N   0  0  0  0  0  0  0  0  0  0  0  0
   15.5741  -12.1302  -11.4771 C   0  0  1  0  0  0  0  0  0  0  0  0
   14.7021  -12.6907  -10.3872 C   0  0  0  0  0  0  0  0  0  0  0  0
   13.7294  -13.6116  -11.0251 C   0  0  0  0  0  0  0  0  0  0  0  0
   12.9317  -13.3342  -12.1129 C   0  0  0  0  0  0  0  0  0  0  0  0
   12.1885  -14.4212  -12.3907 N   0  0  0  0  0  0  0  0  0  0  0  0
   12.4983  -15.3817  -11.5021 C   0  0  0  0  0  0  0  0  0  0  0  0
   13.4476  -14.8743  -10.6654 N   0  0  0  0  0  0  0  0  0  0  0  0
   16.3546  -10.9389  -10.9895 C   0  0  0  0  0  0  0  0  0  0  0  0
   17.1277  -11.0655  -10.0177 O   0  0  0  0  0  0  0  0  0  0  0  0
   16.2234   -9.6694  -11.6213 N   0  0  0  0  0  0  0  0  0  0  0  0
   16.8773   -8.4635  -11.2613 C   0  0  1  0  0  0  0  0  0  0  0  0
   17.9360   -8.0220  -12.2257 C   0  0  0  0  0  0  0  0  0  0  0  0
   19.1888   -9.3175  -12.4798 S   0  0  0  0  0  0  0  0  0  0  0  0
   15.9688   -7.3118  -10.9786 C   0  0  0  0  0  0  0  0  0  0  0  0
   15.1000   -6.9983  -11.8209 O   0  0  0  0  0  0  0  0  0  0  0  0
   15.5014   -5.5346   -7.0131 C   0  0  0  0  0  0  0  0  0  0  0  0
   14.4712   -5.6813   -8.1069 C   0  0  2  0  0  0  0  0  0  0  0  0
   13.6773   -6.9639   -7.9635 C   0  0  0  0  0  0  0  0  0  0  0  0
   15.0664   -5.5220   -9.4820 C   0  0  2  0  0  0  0  0  0  0  0  0
   16.0483   -6.5480   -9.7810 N   0  0  0  0  0  0  0  0  0  0  0  0
   15.7265   -4.1980   -9.5297 C   0  0  0  0  0  0  0  0  0  0  0  0
   16.9645   -4.1245   -9.4449 O   0  0  0  0  0  0  0  0  0  0  0  0
   14.9823   -3.0487   -9.6670 O   0  0  0  0  0  0  0  0  0  0  0  0
  2  1  1  1
  3  2  1  0
  4  3  1  0
  4  5  2  0
  6  5  1  0
  7  8  2  0
  7  6  1  0
  8  4  1  0
  9  2  1  0
 10  9  2  0
 11  9  1  0
 12 11  1  0
 12 15  1  0
 12 13  1  6
 14 13  1  0
 15 21  1  0
 16 15  2  0
 18 17  1  1
 19 18  1  0
 20 18  1  0
 20 22  1  0
 20 21  1  1
 22 23  2  0
 22 24  1  0
M  END
$$$$
