HCV.pdb
     RDKit          3D

 24 24  0  0  1  0  0  0  0  0999 V2000
   16.5399  -15.2481  -17.8581 N   0  0  0  0  0  0  0  0  0  0  0  0
   17.5356  -14.7803  -16.9458 C   0  0  1  0  0  0  0  0  0  0  0  0
   18.6704  -15.7564  -16.7980 C   0  0  0  0  0  0  0  0  0  0  0  0
   18.1150  -16.9979  -16.2054 C   0  0  0  0  0  0  0  0  0  0  0  0
   18.0973  -18.2459  -16.7874 C   0  0  0  0  0  0  0  0  0  0  0  0
   17.5103  -19.1092  -15.9381 N   0  0  0  0  0  0  0  0  0  0  0  0
   17.1556  -18.4348  -14.8302 C   0  0  0  0  0  0  0  0  0  0  0  0
   17.5317  -17.1360  -15.0037 N   0  0  0  0  0  0  0  0  0  0  0  0
   18.0366  -13.4245  -17.3662 C   0  0  0  0  0  0  0  0  0  0  0  0
   18.4331  -13.2507  -18.5370 O   0  0  0  0  0  0  0  0  0  0  0  0
   18.0647  -12.3371  -16.4470 N   0  0  0  0  0  0  0  0  0  0  0  0
   18.5368  -11.0224  -16.6920 C   0  0  1  0  0  0  0  0  0  0  0  0
   17.5064  -10.0893  -17.2516 C   0  0  0  0  0  0  0  0  0  0  0  0
   15.8307  -10.5391  -16.7022 S   0  0  0  0  0  0  0  0  0  0  0  0
   19.2061  -10.3643  -15.5298 C   0  0  0  0  0  0  0  0  0  0  0  0
   18.6283  -10.3479  -14.4213 O   0  0  0  0  0  0  0  0  0  0  0  0
   23.3267   -9.0751  -15.7204 C   0  0  0  0  0  0  0  0  0  0  0  0
   22.6479   -9.5858  -14.4723 C   0  0  2  0  0  0  0  0  0  0  0  0
   22.9259  -11.0576  -14.2430 C   0  0  0  0  0  0  0  0  0  0  0  0
   21.1756   -9.2660  -14.4470 C   0  0  2  0  0  0  0  0  0  0  0  0
   20.4851   -9.7495  -15.6285 N   0  0  0  0  0  0  0  0  0  0  0  0
   21.0419   -7.7933  -14.3823 C   0  0  0  0  0  0  0  0  0  0  0  0
   21.3949   -7.1882  -13.3556 O   0  0  0  0  0  0  0  0  0  0  0  0
   20.5306   -7.0888  -15.4481 O   0  0  0  0  0  0  0  0  0  0  0  0
  2  1  1  6
  3  2  1  0
  4  3  1  0
  4  5  2  0
  6  5  1  0
  7  8  2  0
  7  6  1  0
  8  4  1  0
  9  2  1  0
 10  9  2  0
 11  9  1  0
 12 11  1  0
 12 15  1  0
 12 13  1  1
 14 13  1  0
 15 21  1  0
 16 15  2  0
 18 17  1  6
 19 18  1  0
 20 18  1  0
 20 22  1  0
 20 21  1  6
 22 23  2  0
 22 24  1  0
M  END
$$$$
