HCV.pdb
     RDKit          3D

 24 24  0  0  1  0  0  0  0  0999 V2000
   16.4719  -10.4023  -10.8015 N   0  0  0  0  0  0  0  0  0  0  0  0
   15.4075   -9.5224  -10.4342 C   0  0  1  0  0  0  0  0  0  0  0  0
   14.4391  -10.1719   -9.4840 C   0  0  0  0  0  0  0  0  0  0  0  0
   13.6955  -11.2062  -10.2446 C   0  0  0  0  0  0  0  0  0  0  0  0
   12.6173  -10.9946  -11.0747 C   0  0  0  0  0  0  0  0  0  0  0  0
   12.2230  -12.1783  -11.5793 N   0  0  0  0  0  0  0  0  0  0  0  0
   13.0286  -13.1356  -11.0866 C   0  0  0  0  0  0  0  0  0  0  0  0
   13.9319  -12.5279  -10.2660 N   0  0  0  0  0  0  0  0  0  0  0  0
   15.9578   -8.2446   -9.8596 C   0  0  0  0  0  0  0  0  0  0  0  0
   16.8969   -8.2932   -9.0386 O   0  0  0  0  0  0  0  0  0  0  0  0
   15.4223   -6.9808  -10.2393 N   0  0  0  0  0  0  0  0  0  0  0  0
   15.9045   -5.7006   -9.8652 C   0  0  1  0  0  0  0  0  0  0  0  0
   16.8183   -5.0661  -10.8691 C   0  0  0  0  0  0  0  0  0  0  0  0
   18.3360   -6.0434  -11.1008 S   0  0  0  0  0  0  0  0  0  0  0  0
   14.8494   -4.7156   -9.4799 C   0  0  0  0  0  0  0  0  0  0  0  0
   13.9376   -4.4483  -10.2922 O   0  0  0  0  0  0  0  0  0  0  0  0
   13.9542   -3.7327   -5.4250 C   0  0  0  0  0  0  0  0  0  0  0  0
   13.0328   -3.5926   -6.6128 C   0  0  2  0  0  0  0  0  0  0  0  0
   12.2073   -4.8437   -6.8349 C   0  0  0  0  0  0  0  0  0  0  0  0
   13.7615   -3.1539   -7.8566 C   0  0  2  0  0  0  0  0  0  0  0  0
   14.8352   -4.0615   -8.2167 N   0  0  0  0  0  0  0  0  0  0  0  0
   14.3345   -1.8160   -7.5873 C   0  0  0  0  0  0  0  0  0  0  0  0
   15.5503   -1.7030   -7.3545 O   0  0  0  0  0  0  0  0  0  0  0  0
   13.5336   -0.6970   -7.5923 O   0  0  0  0  0  0  0  0  0  0  0  0
  2  1  1  1
  3  2  1  0
  4  3  1  0
  4  5  2  0
  6  5  1  0
  7  8  2  0
  7  6  1  0
  8  4  1  0
  9  2  1  0
 10  9  2  0
 11  9  1  0
 12 11  1  0
 12 15  1  0
 12 13  1  6
 14 13  1  0
 15 21  1  0
 16 15  2  0
 18 17  1  1
 19 18  1  0
 20 18  1  0
 20 22  1  0
 20 21  1  1
 22 23  2  0
 22 24  1  0
M  END
$$$$
