HCV.pdb
     RDKit          3D

 24 24  0  0  1  0  0  0  0  0999 V2000
   19.8709  -15.2160  -17.4565 N   0  0  0  0  0  0  0  0  0  0  0  0
   19.8795  -13.8918  -17.9939 C   0  0  1  0  0  0  0  0  0  0  0  0
   18.6016  -13.5671  -18.7179 C   0  0  0  0  0  0  0  0  0  0  0  0
   18.5190  -14.4625  -19.8979 C   0  0  0  0  0  0  0  0  0  0  0  0
   19.1618  -14.2894  -21.1034 C   0  0  0  0  0  0  0  0  0  0  0  0
   18.8348  -15.3105  -21.9168 N   0  0  0  0  0  0  0  0  0  0  0  0
   17.9983  -16.1271  -21.2523 C   0  0  0  0  0  0  0  0  0  0  0  0
   17.8096  -15.5972  -20.0105 N   0  0  0  0  0  0  0  0  0  0  0  0
   20.1592  -12.8870  -16.9086 C   0  0  0  0  0  0  0  0  0  0  0  0
   19.3545  -12.7630  -15.9624 O   0  0  0  0  0  0  0  0  0  0  0  0
   21.3291  -12.0758  -16.9459 N   0  0  0  0  0  0  0  0  0  0  0  0
   21.7019  -11.0697  -16.0184 C   0  0  1  0  0  0  0  0  0  0  0  0
   23.1429  -11.1088  -15.6091 C   0  0  0  0  0  0  0  0  0  0  0  0
   23.5513   -9.7453  -14.4750 S   0  0  0  0  0  0  0  0  0  0  0  0
   21.3510   -9.6753  -16.4235 C   0  0  0  0  0  0  0  0  0  0  0  0
   21.8007   -9.2198  -17.4973 O   0  0  0  0  0  0  0  0  0  0  0  0
   17.9463   -7.3718  -15.0520 C   0  0  0  0  0  0  0  0  0  0  0  0
   18.7909   -7.2148  -16.2936 C   0  0  2  0  0  0  0  0  0  0  0  0
   18.2606   -8.0471  -17.4435 C   0  0  0  0  0  0  0  0  0  0  0  0
   20.2535   -7.4624  -16.0287 C   0  0  2  0  0  0  0  0  0  0  0  0
   20.5189   -8.8336  -15.6343 N   0  0  0  0  0  0  0  0  0  0  0  0
   20.6651   -6.5592  -14.9307 C   0  0  0  0  0  0  0  0  0  0  0  0
   20.7804   -5.3405  -15.1471 O   0  0  0  0  0  0  0  0  0  0  0  0
   20.9212   -7.0563  -13.6733 O   0  0  0  0  0  0  0  0  0  0  0  0
  2  1  1  1
  3  2  1  0
  4  3  1  0
  4  5  2  0
  6  5  1  0
  7  8  2  0
  7  6  1  0
  8  4  1  0
  9  2  1  0
 10  9  2  0
 11  9  1  0
 12 11  1  0
 12 15  1  0
 12 13  1  6
 14 13  1  0
 15 21  1  0
 16 15  2  0
 18 17  1  1
 19 18  1  0
 20 18  1  0
 20 22  1  0
 20 21  1  1
 22 23  2  0
 22 24  1  0
M  END
$$$$
