FTR.pdb
     RDKit          3D

 30 30  0  0  1  0  0  0  0  0999 V2000
    7.6715  -14.9143   23.1931 N   0  0  0  0  0  0  0  0  0  0  0  0
    8.5104  -15.5531   22.2178 C   0  0  1  0  0  0  0  0  0  0  0  0
    9.4099  -14.5456   21.5516 C   0  0  0  0  0  0  0  0  0  0  0  0
    8.6542  -13.8706   20.4780 C   0  0  0  0  0  0  0  0  0  0  0  0
    7.3058  -14.0924   20.3298 C   0  0  0  0  0  0  0  0  0  0  0  0
    6.5712  -13.4630   19.3193 C   0  0  0  0  0  0  0  0  0  0  0  0
    7.2489  -12.6043   18.4677 C   0  0  0  0  0  0  0  0  0  0  0  0
    8.5906  -12.3666   18.5941 C   0  0  0  0  0  0  0  0  0  0  0  0
    9.2757  -13.0080   19.6039 C   0  0  0  0  0  0  0  0  0  0  0  0
    9.2711  -16.6724   22.8223 C   0  0  0  0  0  0  0  0  0  0  0  0
    9.6090  -16.5379   24.0344 O   0  0  0  0  0  0  0  0  0  0  0  0
    8.3279  -20.1274   23.3831 C   0  0  0  0  0  0  0  0  0  0  0  0
    9.6181  -20.1487   22.6116 C   0  0  1  0  0  0  0  0  0  0  0  0
    9.3998  -20.3578   21.2603 O   0  0  0  0  0  0  0  0  0  0  0  0
   10.3849  -18.8456   22.7597 C   0  0  2  0  0  0  0  0  0  0  0  0
    9.6119  -17.8424   22.0950 N   0  0  0  0  0  0  0  0  0  0  0  0
   11.7432  -18.9991   22.1694 C   0  0  0  0  0  0  0  0  0  0  0  0
   11.8777  -19.3585   20.9510 O   0  0  0  0  0  0  0  0  0  0  0  0
   16.3202  -12.9381   19.5559 N   0  0  0  0  0  0  0  0  0  0  0  0
   15.3016  -13.9080   19.2557 C   0  0  0  0  0  0  0  0  0  0  0  0
   14.2748  -13.5559   18.5298 N   0  0  0  0  0  0  0  0  0  0  0  0
   15.3952  -15.2336   19.7337 N   0  0  0  0  0  0  0  0  0  0  0  0
   15.0314  -15.4926   21.1082 C   0  0  0  0  0  0  0  0  0  0  0  0
   14.2354  -16.7659   21.2571 C   0  0  0  0  0  0  0  0  0  0  0  0
   14.9349  -17.7274   22.1491 C   0  0  0  0  0  0  0  0  0  0  0  0
   14.2680  -19.0744   22.2915 C   0  0  2  0  0  0  0  0  0  0  0  0
   12.9560  -18.7745   22.8576 N   0  0  0  0  0  0  0  0  0  0  0  0
   15.0627  -19.9388   23.1591 C   0  0  0  0  0  0  0  0  0  0  0  0
   14.8073  -20.2427   24.3383 O   0  0  0  0  0  0  0  0  0  0  0  0
   16.2322  -20.4887   22.6255 O   0  0  0  0  0  0  0  0  0  0  0  0
  2  1  1  1
  2 10  1  0
  3  2  1  0
  4  5  2  0
  4  3  1  0
  6  5  1  0
  7  6  2  0
  8  7  1  0
  8  9  2  0
  9  4  1  0
 10 16  1  0
 10 11  2  0
 13 12  1  1
 14 13  1  0
 15 13  1  0
 15 16  1  6
 17 18  2  0
 17 15  1  0
 20 22  1  0
 20 19  1  0
 21 20  2  0
 23 22  1  0
 24 23  1  0
 24 25  1  0
 26 25  1  1
 26 27  1  0
 27 17  1  0
 28 26  1  0
 29 28  2  0
 30 28  1  0
M  END
$$$$
