FTR.pdb
     RDKit          3D

 30 30  0  0  1  0  0  0  0  0999 V2000
    5.5249  -14.1375   22.6271 N   0  0  0  0  0  0  0  0  0  0  0  0
    6.8619  -14.0354   22.1120 C   0  0  1  0  0  0  0  0  0  0  0  0
    7.6176  -12.9385   22.8147 C   0  0  0  0  0  0  0  0  0  0  0  0
    7.5666  -13.1831   24.2697 C   0  0  0  0  0  0  0  0  0  0  0  0
    6.5122  -12.7166   25.0179 C   0  0  0  0  0  0  0  0  0  0  0  0
    6.4445  -12.9374   26.3976 C   0  0  0  0  0  0  0  0  0  0  0  0
    7.4791  -13.6450   26.9897 C   0  0  0  0  0  0  0  0  0  0  0  0
    8.5398  -14.1199   26.2673 C   0  0  0  0  0  0  0  0  0  0  0  0
    8.5662  -13.8796   24.9101 C   0  0  0  0  0  0  0  0  0  0  0  0
    7.5625  -15.3392   22.1895 C   0  0  0  0  0  0  0  0  0  0  0  0
    6.8334  -16.3685   22.2926 O   0  0  0  0  0  0  0  0  0  0  0  0
    7.6275  -17.2476   20.4345 C   0  0  0  0  0  0  0  0  0  0  0  0
    9.1237  -17.2009   20.5737 C   0  0  1  0  0  0  0  0  0  0  0  0
    9.6938  -16.3369   19.6539 O   0  0  0  0  0  0  0  0  0  0  0  0
    9.5468  -16.7452   21.9598 C   0  0  2  0  0  0  0  0  0  0  0  0
    8.9770  -15.4474   22.1515 N   0  0  0  0  0  0  0  0  0  0  0  0
   11.0333  -16.7305   22.0452 C   0  0  0  0  0  0  0  0  0  0  0  0
   11.6963  -15.7605   21.5439 O   0  0  0  0  0  0  0  0  0  0  0  0
    9.4145  -15.0992   29.1263 N   0  0  0  0  0  0  0  0  0  0  0  0
   10.7971  -15.3475   29.4349 C   0  0  0  0  0  0  0  0  0  0  0  0
   11.2383  -15.1069   30.6403 N   0  0  0  0  0  0  0  0  0  0  0  0
   11.6834  -15.8469   28.4553 N   0  0  0  0  0  0  0  0  0  0  0  0
   11.1541  -16.1519   27.1456 C   0  0  0  0  0  0  0  0  0  0  0  0
   12.2052  -16.7203   26.2240 C   0  0  0  0  0  0  0  0  0  0  0  0
   11.6300  -17.0253   24.8878 C   0  0  0  0  0  0  0  0  0  0  0  0
   12.6219  -17.5032   23.8547 C   0  0  2  0  0  0  0  0  0  0  0  0
   11.8198  -17.7319   22.6564 N   0  0  0  0  0  0  0  0  0  0  0  0
   13.2846  -18.7182   24.3196 C   0  0  0  0  0  0  0  0  0  0  0  0
   12.8351  -19.8770   24.2611 O   0  0  0  0  0  0  0  0  0  0  0  0
   14.5536  -18.5828   24.8907 O   0  0  0  0  0  0  0  0  0  0  0  0
  2  1  1  1
  2 10  1  0
  3  2  1  0
  4  5  2  0
  4  3  1  0
  6  5  1  0
  7  6  2  0
  8  7  1  0
  8  9  2  0
  9  4  1  0
 10 16  1  0
 10 11  2  0
 13 12  1  1
 14 13  1  0
 15 13  1  0
 15 16  1  6
 17 18  2  0
 17 15  1  0
 20 22  1  0
 20 19  1  0
 21 20  2  0
 23 22  1  0
 24 23  1  0
 24 25  1  0
 26 25  1  1
 26 27  1  0
 27 17  1  0
 28 26  1  0
 29 28  2  0
 30 28  1  0
M  END
$$$$
