FTR.pdb
     RDKit          3D

 30 30  0  0  1  0  0  0  0  0999 V2000
   11.1753  -16.9709   26.8024 N   0  0  0  0  0  0  0  0  0  0  0  0
   10.2775  -16.6616   25.7246 C   0  0  1  0  0  0  0  0  0  0  0  0
    9.6277  -15.3211   25.9448 C   0  0  0  0  0  0  0  0  0  0  0  0
    9.8008  -14.9358   27.3594 C   0  0  0  0  0  0  0  0  0  0  0  0
    9.2425  -13.7748   27.8384 C   0  0  0  0  0  0  0  0  0  0  0  0
    9.3945  -13.3913   29.1752 C   0  0  0  0  0  0  0  0  0  0  0  0
   10.1294  -14.2231   30.0058 C   0  0  0  0  0  0  0  0  0  0  0  0
   10.6953  -15.3840   29.5535 C   0  0  0  0  0  0  0  0  0  0  0  0
   10.5204  -15.7235   28.2289 C   0  0  0  0  0  0  0  0  0  0  0  0
   10.9697  -16.7425   24.4164 C   0  0  0  0  0  0  0  0  0  0  0  0
   12.2016  -16.4529   24.4088 O   0  0  0  0  0  0  0  0  0  0  0  0
   13.1315  -17.9350   23.3589 C   0  0  0  0  0  0  0  0  0  0  0  0
   12.0940  -18.4137   22.3818 C   0  0  1  0  0  0  0  0  0  0  0  0
   11.3894  -19.4977   22.8778 O   0  0  0  0  0  0  0  0  0  0  0  0
   11.0899  -17.3239   22.0469 C   0  0  2  0  0  0  0  0  0  0  0  0
   10.3018  -17.1231   23.2234 N   0  0  0  0  0  0  0  0  0  0  0  0
   10.2687  -17.7475   20.8793 C   0  0  0  0  0  0  0  0  0  0  0  0
    9.4676  -18.7373   20.9821 O   0  0  0  0  0  0  0  0  0  0  0  0
    8.2056  -12.9428   17.1684 N   0  0  0  0  0  0  0  0  0  0  0  0
    8.3241  -12.7123   18.5830 C   0  0  0  0  0  0  0  0  0  0  0  0
    8.9940  -11.6758   19.0100 N   0  0  0  0  0  0  0  0  0  0  0  0
    7.7275  -13.5889   19.5159 N   0  0  0  0  0  0  0  0  0  0  0  0
    6.9066  -14.6670   19.0137 C   0  0  0  0  0  0  0  0  0  0  0  0
    7.5316  -16.0193   19.2543 C   0  0  0  0  0  0  0  0  0  0  0  0
    8.5710  -16.3124   18.2329 C   0  0  0  0  0  0  0  0  0  0  0  0
    9.4167  -17.5324   18.5080 C   0  0  2  0  0  0  0  0  0  0  0  0
   10.2889  -17.1319   19.6083 N   0  0  0  0  0  0  0  0  0  0  0  0
   10.1667  -17.9035   17.3117 C   0  0  0  0  0  0  0  0  0  0  0  0
   11.3865  -17.7464   17.1226 O   0  0  0  0  0  0  0  0  0  0  0  0
    9.4568  -18.4964   16.2633 O   0  0  0  0  0  0  0  0  0  0  0  0
  2  1  1  1
  2 10  1  0
  3  2  1  0
  4  5  2  0
  4  3  1  0
  6  5  1  0
  7  6  2  0
  8  7  1  0
  8  9  2  0
  9  4  1  0
 10 16  1  0
 10 11  2  0
 13 12  1  1
 14 13  1  0
 15 13  1  0
 15 16  1  1
 17 18  2  0
 17 15  1  0
 20 22  1  0
 20 19  1  0
 21 20  2  0
 23 22  1  0
 24 23  1  0
 24 25  1  0
 26 25  1  6
 26 27  1  0
 27 17  1  0
 28 26  1  0
 29 28  2  0
 30 28  1  0
M  END
$$$$
