FTR.pdb
     RDKit          3D

 30 30  0  0  1  0  0  0  0  0999 V2000
    8.1149  -16.6100   22.8304 N   0  0  0  0  0  0  0  0  0  0  0  0
    9.2024  -16.5501   21.8939 C   0  0  1  0  0  0  0  0  0  0  0  0
    9.8922  -15.2136   21.9683 C   0  0  0  0  0  0  0  0  0  0  0  0
    8.9741  -14.1760   21.4583 C   0  0  0  0  0  0  0  0  0  0  0  0
    8.2603  -13.3882   22.3296 C   0  0  0  0  0  0  0  0  0  0  0  0
    7.3852  -12.3996   21.8673 C   0  0  0  0  0  0  0  0  0  0  0  0
    7.2598  -12.2383   20.4962 C   0  0  0  0  0  0  0  0  0  0  0  0
    7.9590  -13.0094   19.6080 C   0  0  0  0  0  0  0  0  0  0  0  0
    8.8103  -13.9720   20.1070 C   0  0  0  0  0  0  0  0  0  0  0  0
   10.1411  -17.6790   22.0965 C   0  0  0  0  0  0  0  0  0  0  0  0
    9.8358  -18.5149   22.9963 O   0  0  0  0  0  0  0  0  0  0  0  0
    9.8572  -20.3009   21.4834 C   0  0  0  0  0  0  0  0  0  0  0  0
   11.1630  -20.1193   20.7609 C   0  0  1  0  0  0  0  0  0  0  0  0
   10.9676  -19.7306   19.4463 O   0  0  0  0  0  0  0  0  0  0  0  0
   12.0352  -19.0696   21.4284 C   0  0  2  0  0  0  0  0  0  0  0  0
   11.3261  -17.8313   21.3305 N   0  0  0  0  0  0  0  0  0  0  0  0
   13.3596  -19.0202   20.7498 C   0  0  0  0  0  0  0  0  0  0  0  0
   13.5693  -18.1812   19.8096 O   0  0  0  0  0  0  0  0  0  0  0  0
   19.2332  -15.8691   25.3424 N   0  0  0  0  0  0  0  0  0  0  0  0
   19.0083  -15.1471   24.1191 C   0  0  0  0  0  0  0  0  0  0  0  0
   19.1637  -13.8506   24.1017 N   0  0  0  0  0  0  0  0  0  0  0  0
   18.6224  -15.8184   22.9380 N   0  0  0  0  0  0  0  0  0  0  0  0
   17.3365  -16.4775   22.9146 C   0  0  0  0  0  0  0  0  0  0  0  0
   17.3428  -17.7092   22.0427 C   0  0  0  0  0  0  0  0  0  0  0  0
   15.9626  -18.2223   21.8397 C   0  0  0  0  0  0  0  0  0  0  0  0
   15.8500  -19.4215   20.9294 C   0  0  2  0  0  0  0  0  0  0  0  0
   14.4602  -19.8496   21.0594 N   0  0  0  0  0  0  0  0  0  0  0  0
   16.7913  -20.4573   21.3450 C   0  0  0  0  0  0  0  0  0  0  0  0
   17.8677  -20.7464   20.7918 O   0  0  0  0  0  0  0  0  0  0  0  0
   16.4644  -21.2093   22.4774 O   0  0  0  0  0  0  0  0  0  0  0  0
  2  1  1  1
  2 10  1  0
  3  2  1  0
  4  5  2  0
  4  3  1  0
  6  5  1  0
  7  6  2  0
  8  7  1  0
  8  9  2  0
  9  4  1  0
 10 16  1  0
 10 11  2  0
 13 12  1  1
 14 13  1  0
 15 13  1  0
 15 16  1  6
 17 18  2  0
 17 15  1  0
 20 22  1  0
 20 19  1  0
 21 20  2  0
 23 22  1  0
 24 23  1  0
 24 25  1  0
 26 25  1  1
 26 27  1  0
 27 17  1  0
 28 26  1  0
 29 28  2  0
 30 28  1  0
M  END
$$$$
