FTR.pdb
     RDKit          3D

 30 30  0  0  1  0  0  0  0  0999 V2000
    8.1016  -16.2467   16.2793 N   0  0  0  0  0  0  0  0  0  0  0  0
    8.4752  -15.5228   17.4623 C   0  0  1  0  0  0  0  0  0  0  0  0
    7.4025  -14.5356   17.8399 C   0  0  0  0  0  0  0  0  0  0  0  0
    7.7001  -14.0014   19.1837 C   0  0  0  0  0  0  0  0  0  0  0  0
    8.6091  -12.9828   19.3428 C   0  0  0  0  0  0  0  0  0  0  0  0
    8.9054  -12.4623   20.6070 C   0  0  0  0  0  0  0  0  0  0  0  0
    8.2504  -13.0086   21.6998 C   0  0  0  0  0  0  0  0  0  0  0  0
    7.3413  -14.0230   21.5682 C   0  0  0  0  0  0  0  0  0  0  0  0
    7.0794  -14.5059   20.3038 C   0  0  0  0  0  0  0  0  0  0  0  0
    8.8017  -16.4497   18.5718 C   0  0  0  0  0  0  0  0  0  0  0  0
    8.3871  -17.6397   18.4561 O   0  0  0  0  0  0  0  0  0  0  0  0
   11.8577  -18.7190   20.8126 C   0  0  0  0  0  0  0  0  0  0  0  0
   11.1007  -17.8083   19.8865 C   0  0  1  0  0  0  0  0  0  0  0  0
   10.5143  -18.5116   18.8477 O   0  0  0  0  0  0  0  0  0  0  0  0
   10.0002  -17.0538   20.6129 C   0  0  2  0  0  0  0  0  0  0  0  0
    9.5402  -16.0418   19.7131 N   0  0  0  0  0  0  0  0  0  0  0  0
   10.5403  -16.4850   21.8785 C   0  0  0  0  0  0  0  0  0  0  0  0
   11.5044  -15.6475   21.8468 O   0  0  0  0  0  0  0  0  0  0  0  0
    5.0344  -17.8961   23.4585 N   0  0  0  0  0  0  0  0  0  0  0  0
    6.3746  -18.4136   23.5278 C   0  0  0  0  0  0  0  0  0  0  0  0
    6.7718  -19.2859   22.6409 N   0  0  0  0  0  0  0  0  0  0  0  0
    7.2660  -17.9929   24.5392 N   0  0  0  0  0  0  0  0  0  0  0  0
    7.0094  -16.7314   25.1960 C   0  0  0  0  0  0  0  0  0  0  0  0
    8.1253  -15.7388   24.9800 C   0  0  0  0  0  0  0  0  0  0  0  0
    9.4343  -16.3164   25.3830 C   0  0  0  0  0  0  0  0  0  0  0  0
   10.5513  -16.1369   24.3833 C   0  0  2  0  0  0  0  0  0  0  0  0
   10.0677  -16.7949   23.1729 N   0  0  0  0  0  0  0  0  0  0  0  0
   11.7804  -16.7402   24.8901 C   0  0  0  0  0  0  0  0  0  0  0  0
   12.2870  -17.8144   24.5190 O   0  0  0  0  0  0  0  0  0  0  0  0
   12.4695  -16.0538   25.8944 O   0  0  0  0  0  0  0  0  0  0  0  0
  2  1  1  6
  2 10  1  0
  3  2  1  0
  4  5  2  0
  4  3  1  0
  6  5  1  0
  7  6  2  0
  8  7  1  0
  8  9  2  0
  9  4  1  0
 10 16  1  0
 10 11  2  0
 13 12  1  1
 14 13  1  0
 15 13  1  0
 15 16  1  6
 17 18  2  0
 17 15  1  0
 20 22  1  0
 20 19  1  0
 21 20  2  0
 23 22  1  0
 24 23  1  0
 24 25  1  0
 26 25  1  1
 26 27  1  0
 27 17  1  0
 28 26  1  0
 29 28  2  0
 30 28  1  0
M  END
$$$$
