FTR.pdb
     RDKit          3D

 30 30  0  0  1  0  0  0  0  0999 V2000
    6.0361  -16.2412   25.2850 N   0  0  0  0  0  0  0  0  0  0  0  0
    7.2429  -15.6618   24.7640 C   0  0  1  0  0  0  0  0  0  0  0  0
    7.9446  -14.8563   25.8254 C   0  0  0  0  0  0  0  0  0  0  0  0
    7.2060  -13.5945   26.0303 C   0  0  0  0  0  0  0  0  0  0  0  0
    6.8290  -12.8257   24.9552 C   0  0  0  0  0  0  0  0  0  0  0  0
    6.1286  -11.6270   25.1272 C   0  0  0  0  0  0  0  0  0  0  0  0
    5.8252  -11.2368   26.4223 C   0  0  0  0  0  0  0  0  0  0  0  0
    6.1891  -11.9841   27.5094 C   0  0  0  0  0  0  0  0  0  0  0  0
    6.8781  -13.1586   27.2939 C   0  0  0  0  0  0  0  0  0  0  0  0
    8.1205  -16.7012   24.1755 C   0  0  0  0  0  0  0  0  0  0  0  0
    7.5708  -17.7990   23.8686 O   0  0  0  0  0  0  0  0  0  0  0  0
    8.2285  -17.6564   21.6938 C   0  0  0  0  0  0  0  0  0  0  0  0
    9.7015  -17.3660   21.7715 C   0  0  1  0  0  0  0  0  0  0  0  0
    9.9950  -16.0950   21.3069 O   0  0  0  0  0  0  0  0  0  0  0  0
   10.2220  -17.4692   23.1951 C   0  0  2  0  0  0  0  0  0  0  0  0
    9.5078  -16.4941   23.9597 N   0  0  0  0  0  0  0  0  0  0  0  0
   11.6919  -17.2324   23.2046 C   0  0  0  0  0  0  0  0  0  0  0  0
   12.1677  -16.1272   22.7755 O   0  0  0  0  0  0  0  0  0  0  0  0
   12.0044  -21.4763   30.2339 N   0  0  0  0  0  0  0  0  0  0  0  0
   13.0501  -20.5290   30.5121 C   0  0  0  0  0  0  0  0  0  0  0  0
   13.5279  -20.4387   31.7241 N   0  0  0  0  0  0  0  0  0  0  0  0
   13.5672  -19.6961   29.4955 N   0  0  0  0  0  0  0  0  0  0  0  0
   12.8960  -19.6813   28.2157 C   0  0  0  0  0  0  0  0  0  0  0  0
   13.6161  -18.8240   27.2040 C   0  0  0  0  0  0  0  0  0  0  0  0
   12.8961  -18.8202   25.9037 C   0  0  0  0  0  0  0  0  0  0  0  0
   13.4897  -17.9251   24.8427 C   0  0  2  0  0  0  0  0  0  0  0  0
   12.6584  -18.1540   23.6645 N   0  0  0  0  0  0  0  0  0  0  0  0
   14.8877  -18.2778   24.6129 C   0  0  0  0  0  0  0  0  0  0  0  0
   15.8737  -17.8467   25.2377 O   0  0  0  0  0  0  0  0  0  0  0  0
   15.1630  -19.1913   23.5910 O   0  0  0  0  0  0  0  0  0  0  0  0
  2  1  1  1
  2 10  1  0
  3  2  1  0
  4  5  2  0
  4  3  1  0
  6  5  1  0
  7  6  2  0
  8  7  1  0
  8  9  2  0
  9  4  1  0
 10 16  1  0
 10 11  2  0
 13 12  1  1
 14 13  1  0
 15 13  1  0
 15 16  1  1
 17 18  2  0
 17 15  1  0
 20 22  1  0
 20 19  1  0
 21 20  2  0
 23 22  1  0
 24 23  1  0
 24 25  1  0
 26 25  1  1
 26 27  1  0
 27 17  1  0
 28 26  1  0
 29 28  2  0
 30 28  1  0
M  END
$$$$
