FTR.pdb
     RDKit          3D

 30 30  0  0  1  0  0  0  0  0999 V2000
    6.0853  -14.5923   23.2795 N   0  0  0  0  0  0  0  0  0  0  0  0
    7.1796  -15.0081   24.1120 C   0  0  1  0  0  0  0  0  0  0  0  0
    7.0175  -14.4680   25.5084 C   0  0  0  0  0  0  0  0  0  0  0  0
    6.9752  -12.9937   25.4458 C   0  0  0  0  0  0  0  0  0  0  0  0
    7.7507  -12.3125   24.5381 C   0  0  0  0  0  0  0  0  0  0  0  0
    7.7256  -10.9159   24.4623 C   0  0  0  0  0  0  0  0  0  0  0  0
    6.8900  -10.2369   25.3355 C   0  0  0  0  0  0  0  0  0  0  0  0
    6.1082  -10.8914   26.2481 C   0  0  0  0  0  0  0  0  0  0  0  0
    6.1640  -12.2683   26.2885 C   0  0  0  0  0  0  0  0  0  0  0  0
    7.3311  -16.4823   24.0937 C   0  0  0  0  0  0  0  0  0  0  0  0
    6.7920  -17.0950   23.1265 O   0  0  0  0  0  0  0  0  0  0  0  0
    8.1485  -18.3062   22.4597 C   0  0  0  0  0  0  0  0  0  0  0  0
    8.9417  -18.8079   23.6342 C   0  0  1  0  0  0  0  0  0  0  0  0
   10.1641  -18.1651   23.7348 O   0  0  0  0  0  0  0  0  0  0  0  0
    8.2013  -18.6005   24.9444 C   0  0  2  0  0  0  0  0  0  0  0  0
    8.0406  -17.1878   25.1002 N   0  0  0  0  0  0  0  0  0  0  0  0
    8.9814  -19.2090   26.0571 C   0  0  0  0  0  0  0  0  0  0  0  0
   10.0116  -18.6128   26.5209 O   0  0  0  0  0  0  0  0  0  0  0  0
    7.0966  -26.2709   29.5378 N   0  0  0  0  0  0  0  0  0  0  0  0
    6.9954  -26.2873   28.1032 C   0  0  0  0  0  0  0  0  0  0  0  0
    7.1604  -27.4126   27.4615 N   0  0  0  0  0  0  0  0  0  0  0  0
    6.7207  -25.1062   27.3793 N   0  0  0  0  0  0  0  0  0  0  0  0
    6.7435  -23.8476   28.0893 C   0  0  0  0  0  0  0  0  0  0  0  0
    7.9048  -22.9788   27.6724 C   0  0  0  0  0  0  0  0  0  0  0  0
    7.9672  -21.7447   28.4986 C   0  0  0  0  0  0  0  0  0  0  0  0
    9.0075  -20.7372   28.0718 C   0  0  2  0  0  0  0  0  0  0  0  0
    8.6788  -20.4396   26.6807 N   0  0  0  0  0  0  0  0  0  0  0  0
   10.3449  -21.3043   28.2173 C   0  0  0  0  0  0  0  0  0  0  0  0
   11.0778  -21.7200   27.3017 O   0  0  0  0  0  0  0  0  0  0  0  0
   10.8695  -21.3965   29.5100 O   0  0  0  0  0  0  0  0  0  0  0  0
  2  1  1  6
  2 10  1  0
  3  2  1  0
  4  5  2  0
  4  3  1  0
  6  5  1  0
  7  6  2  0
  8  7  1  0
  8  9  2  0
  9  4  1  0
 10 16  1  0
 10 11  2  0
 13 12  1  6
 14 13  1  0
 15 13  1  0
 15 16  1  1
 17 18  2  0
 17 15  1  0
 20 22  1  0
 20 19  1  0
 21 20  2  0
 23 22  1  0
 24 23  1  0
 24 25  1  0
 26 25  1  6
 26 27  1  0
 27 17  1  0
 28 26  1  0
 29 28  2  0
 30 28  1  0
M  END
$$$$
