FTR.pdb
     RDKit          3D

 30 30  0  0  1  0  0  0  0  0999 V2000
    5.3790  -16.2729   24.7677 N   0  0  0  0  0  0  0  0  0  0  0  0
    6.5022  -15.4777   24.3561 C   0  0  1  0  0  0  0  0  0  0  0  0
    7.2795  -14.9993   25.5539 C   0  0  0  0  0  0  0  0  0  0  0  0
    6.7668  -13.6742   25.9548 C   0  0  0  0  0  0  0  0  0  0  0  0
    5.5273  -13.5536   26.5363 C   0  0  0  0  0  0  0  0  0  0  0  0
    5.0229  -12.3076   26.9235 C   0  0  0  0  0  0  0  0  0  0  0  0
    5.8160  -11.1926   26.7012 C   0  0  0  0  0  0  0  0  0  0  0  0
    7.0533  -11.2858   26.1240 C   0  0  0  0  0  0  0  0  0  0  0  0
    7.5114  -12.5334   25.7579 C   0  0  0  0  0  0  0  0  0  0  0  0
    7.3525  -16.2169   23.3931 C   0  0  0  0  0  0  0  0  0  0  0  0
    6.8289  -17.2228   22.8315 O   0  0  0  0  0  0  0  0  0  0  0  0
    6.8832  -16.1871   21.0246 C   0  0  0  0  0  0  0  0  0  0  0  0
    8.2948  -15.7345   20.7745 C   0  0  1  0  0  0  0  0  0  0  0  0
    8.3877  -14.3533   20.7383 O   0  0  0  0  0  0  0  0  0  0  0  0
    9.2455  -16.2336   21.8492 C   0  0  2  0  0  0  0  0  0  0  0  0
    8.6872  -15.8314   23.1031 N   0  0  0  0  0  0  0  0  0  0  0  0
   10.5996  -15.6581   21.6203 C   0  0  0  0  0  0  0  0  0  0  0  0
   10.7521  -14.3938   21.5199 O   0  0  0  0  0  0  0  0  0  0  0  0
   12.6606  -15.3895   27.9430 N   0  0  0  0  0  0  0  0  0  0  0  0
   11.2606  -15.6837   28.0911 C   0  0  0  0  0  0  0  0  0  0  0  0
   10.6783  -15.4693   29.2401 N   0  0  0  0  0  0  0  0  0  0  0  0
   10.5075  -16.2003   27.0139 N   0  0  0  0  0  0  0  0  0  0  0  0
   11.1681  -17.0802   26.0769 C   0  0  0  0  0  0  0  0  0  0  0  0
   11.8037  -16.3244   24.9358 C   0  0  0  0  0  0  0  0  0  0  0  0
   11.8832  -17.1720   23.7174 C   0  0  0  0  0  0  0  0  0  0  0  0
   12.7278  -16.6116   22.5984 C   0  0  2  0  0  0  0  0  0  0  0  0
   11.7894  -16.4094   21.4983 N   0  0  0  0  0  0  0  0  0  0  0  0
   13.7923  -17.5499   22.2548 C   0  0  0  0  0  0  0  0  0  0  0  0
   13.6510  -18.6848   21.7647 O   0  0  0  0  0  0  0  0  0  0  0  0
   15.1095  -17.1471   22.4948 O   0  0  0  0  0  0  0  0  0  0  0  0
  2  1  1  1
  2 10  1  0
  3  2  1  0
  4  5  2  0
  4  3  1  0
  6  5  1  0
  7  6  2  0
  8  7  1  0
  8  9  2  0
  9  4  1  0
 10 16  1  0
 10 11  2  0
 13 12  1  1
 14 13  1  0
 15 13  1  0
 15 16  1  1
 17 18  2  0
 17 15  1  0
 20 22  1  0
 20 19  1  0
 21 20  2  0
 23 22  1  0
 24 23  1  0
 24 25  1  0
 26 25  1  1
 26 27  1  0
 27 17  1  0
 28 26  1  0
 29 28  2  0
 30 28  1  0
M  END
$$$$
