FTR.pdb
     RDKit          3D

 30 30  0  0  1  0  0  0  0  0999 V2000
    7.3857  -15.3713   25.6194 N   0  0  0  0  0  0  0  0  0  0  0  0
    6.4703  -15.6574   24.5500 C   0  0  1  0  0  0  0  0  0  0  0  0
    5.6496  -14.4398   24.2156 C   0  0  0  0  0  0  0  0  0  0  0  0
    5.9747  -13.3687   25.1782 C   0  0  0  0  0  0  0  0  0  0  0  0
    5.2672  -13.2472   26.3503 C   0  0  0  0  0  0  0  0  0  0  0  0
    5.5590  -12.2396   27.2758 C   0  0  0  0  0  0  0  0  0  0  0  0
    6.5891  -11.3629   26.9723 C   0  0  0  0  0  0  0  0  0  0  0  0
    7.3085  -11.4624   25.8124 C   0  0  0  0  0  0  0  0  0  0  0  0
    6.9872  -12.4704   24.9286 C   0  0  0  0  0  0  0  0  0  0  0  0
    7.1850  -16.1951   23.3681 C   0  0  0  0  0  0  0  0  0  0  0  0
    6.8737  -17.3660   23.0025 O   0  0  0  0  0  0  0  0  0  0  0  0
    7.9100  -15.7900   19.8706 C   0  0  0  0  0  0  0  0  0  0  0  0
    9.2328  -15.6252   20.5657 C   0  0  1  0  0  0  0  0  0  0  0  0
    9.6081  -14.2942   20.6369 O   0  0  0  0  0  0  0  0  0  0  0  0
    9.1969  -16.1716   21.9828 C   0  0  2  0  0  0  0  0  0  0  0  0
    8.1707  -15.4502   22.6698 N   0  0  0  0  0  0  0  0  0  0  0  0
   10.5334  -15.9981   22.6157 C   0  0  0  0  0  0  0  0  0  0  0  0
   10.7457  -15.0220   23.4119 O   0  0  0  0  0  0  0  0  0  0  0  0
   14.1968  -18.1303   28.1386 N   0  0  0  0  0  0  0  0  0  0  0  0
   12.8965  -18.2378   28.7436 C   0  0  0  0  0  0  0  0  0  0  0  0
   12.7961  -18.2809   30.0449 N   0  0  0  0  0  0  0  0  0  0  0  0
   11.7282  -18.2973   27.9523 N   0  0  0  0  0  0  0  0  0  0  0  0
   11.7868  -19.0132   26.6983 C   0  0  0  0  0  0  0  0  0  0  0  0
   12.6593  -18.3156   25.6838 C   0  0  0  0  0  0  0  0  0  0  0  0
   11.8482  -17.8082   24.5462 C   0  0  0  0  0  0  0  0  0  0  0  0
   12.6336  -17.1361   23.4459 C   0  0  2  0  0  0  0  0  0  0  0  0
   11.6427  -16.8485   22.4129 N   0  0  0  0  0  0  0  0  0  0  0  0
   13.6907  -18.0234   22.9697 C   0  0  0  0  0  0  0  0  0  0  0  0
   14.8447  -18.1139   23.4261 O   0  0  0  0  0  0  0  0  0  0  0  0
   13.3917  -18.8629   21.8923 O   0  0  0  0  0  0  0  0  0  0  0  0
  2  1  1  1
  2 10  1  0
  3  2  1  0
  4  5  2  0
  4  3  1  0
  6  5  1  0
  7  6  2  0
  8  7  1  0
  8  9  2  0
  9  4  1  0
 10 16  1  0
 10 11  2  0
 13 12  1  1
 14 13  1  0
 15 13  1  0
 15 16  1  1
 17 18  2  0
 17 15  1  0
 20 22  1  0
 20 19  1  0
 21 20  2  0
 23 22  1  0
 24 23  1  0
 24 25  1  0
 26 25  1  1
 26 27  1  0
 27 17  1  0
 28 26  1  0
 29 28  2  0
 30 28  1  0
M  END
$$$$
