VGM.pdb
     RDKit          3D

 20 19  0  0  1  0  0  0  0  0999 V2000
   12.4252  -10.0306  -10.7720 C   0  0  0  0  0  0  0  0  0  0  0  0
   13.5360   -9.3215  -10.0487 C   0  0  1  0  0  0  0  0  0  0  0  0
   13.6905   -9.8209   -8.6290 C   0  0  0  0  0  0  0  0  0  0  0  0
   14.8070   -9.5147  -10.8464 C   0  0  2  0  0  0  0  0  0  0  0  0
   15.1112  -10.9125  -11.0287 N   0  0  0  0  0  0  0  0  0  0  0  0
   15.9674   -8.8550  -10.2109 C   0  0  0  0  0  0  0  0  0  0  0  0
   16.9296   -9.5246   -9.7727 O   0  0  0  0  0  0  0  0  0  0  0  0
   16.0382   -7.4318  -10.0706 N   0  0  0  0  0  0  0  0  0  0  0  0
   17.1450   -6.7880   -9.4109 C   0  0  0  0  0  0  0  0  0  0  0  0
   18.1484   -6.2404  -10.3412 C   0  0  0  0  0  0  0  0  0  0  0  0
   19.0629   -5.4712   -9.8684 O   0  0  0  0  0  0  0  0  0  0  0  0
   23.1706   -9.6113  -12.9469 C   0  0  0  0  0  0  0  0  0  0  0  0
   21.8183   -8.7484  -13.7126 S   0  0  0  0  0  0  0  0  0  0  0  0
   21.0243   -7.4861  -12.7937 C   0  0  0  0  0  0  0  0  0  0  0  0
   19.9043   -6.7110  -13.2762 C   0  0  0  0  0  0  0  0  0  0  0  0
   19.1616   -5.6622  -12.5521 C   0  0  2  0  0  0  0  0  0  0  0  0
   18.1948   -6.4860  -11.7104 N   0  0  0  0  0  0  0  0  0  0  0  0
   18.2469   -4.8150  -13.3867 C   0  0  0  0  0  0  0  0  0  0  0  0
   17.1174   -5.1401  -13.6710 O   0  0  0  0  0  0  0  0  0  0  0  0
   18.7003   -3.5670  -13.8813 O   0  0  0  0  0  0  0  0  0  0  0  0
  2  1  1  6
  3  2  1  0
  4  2  1  0
  4  5  1  1
  6  8  1  0
  6  4  1  0
  7  6  2  0
  9 10  1  0
  9  8  1  0
 10 17  1  0
 11 10  2  0
 12 13  1  0
 13 14  1  0
 15 14  1  0
 16 15  1  6
 17 16  1  0
 18 16  1  0
 18 20  1  0
 19 18  2  0
M  END
$$$$
