VGM.pdb
     RDKit          3D

 20 19  0  0  1  0  0  0  0  0999 V2000
   19.9216  -14.7020  -21.5277 C   0  0  0  0  0  0  0  0  0  0  0  0
   19.9956  -13.2171  -21.3046 C   0  0  1  0  0  0  0  0  0  0  0  0
   18.8682  -12.4876  -22.0015 C   0  0  0  0  0  0  0  0  0  0  0  0
   19.9773  -12.9706  -19.8119 C   0  0  2  0  0  0  0  0  0  0  0  0
   18.8073  -13.5442  -19.1941 N   0  0  0  0  0  0  0  0  0  0  0  0
   20.0281  -11.5294  -19.4863 C   0  0  0  0  0  0  0  0  0  0  0  0
   18.9809  -10.8815  -19.2632 O   0  0  0  0  0  0  0  0  0  0  0  0
   21.2693  -10.8192  -19.4136 N   0  0  0  0  0  0  0  0  0  0  0  0
   21.3213   -9.4087  -19.1267 C   0  0  0  0  0  0  0  0  0  0  0  0
   21.7508   -9.1023  -17.7506 C   0  0  0  0  0  0  0  0  0  0  0  0
   21.4162   -9.9141  -16.8121 O   0  0  0  0  0  0  0  0  0  0  0  0
   26.7686  -11.4058  -15.7383 C   0  0  0  0  0  0  0  0  0  0  0  0
   25.4036  -10.3030  -15.4553 S   0  0  0  0  0  0  0  0  0  0  0  0
   25.4191   -8.7517  -16.2687 C   0  0  0  0  0  0  0  0  0  0  0  0
   24.4204   -7.7246  -16.0800 C   0  0  0  0  0  0  0  0  0  0  0  0
   22.9654   -7.9074  -15.9213 C   0  0  2  0  0  0  0  0  0  0  0  0
   22.4995   -7.9926  -17.3695 N   0  0  0  0  0  0  0  0  0  0  0  0
   22.2119   -6.7227  -15.3923 C   0  0  0  0  0  0  0  0  0  0  0  0
   21.7595   -5.8539  -16.1014 O   0  0  0  0  0  0  0  0  0  0  0  0
   22.0044   -6.5868  -13.9972 O   0  0  0  0  0  0  0  0  0  0  0  0
  2  1  1  1
  3  2  1  0
  4  2  1  0
  4  5  1  6
  6  8  1  0
  6  4  1  0
  7  6  2  0
  9 10  1  0
  9  8  1  0
 10 17  1  0
 11 10  2  0
 12 13  1  0
 13 14  1  0
 15 14  1  0
 16 15  1  6
 17 16  1  0
 18 16  1  0
 18 20  1  0
 19 18  2  0
M  END
$$$$
