VGM.pdb
     RDKit          3D

 20 19  0  0  1  0  0  0  0  0999 V2000
   18.3607  -15.3676  -18.1827 C   0  0  0  0  0  0  0  0  0  0  0  0
   18.8017  -14.5000  -17.0369 C   0  0  1  0  0  0  0  0  0  0  0  0
   20.2757  -14.1689  -17.1180 C   0  0  0  0  0  0  0  0  0  0  0  0
   17.9505  -13.2492  -17.0473 C   0  0  2  0  0  0  0  0  0  0  0  0
   18.1619  -12.4739  -18.2447 N   0  0  0  0  0  0  0  0  0  0  0  0
   18.2113  -12.3899  -15.8729 C   0  0  0  0  0  0  0  0  0  0  0  0
   17.9367  -12.7790  -14.7156 O   0  0  0  0  0  0  0  0  0  0  0  0
   18.7848  -11.0850  -16.0096 N   0  0  0  0  0  0  0  0  0  0  0  0
   19.2291  -10.3276  -14.8680 C   0  0  0  0  0  0  0  0  0  0  0  0
   18.2016   -9.4206  -14.3259 C   0  0  0  0  0  0  0  0  0  0  0  0
   17.1787   -9.1519  -15.0559 O   0  0  0  0  0  0  0  0  0  0  0  0
   14.9963   -6.9408   -7.5252 C   0  0  0  0  0  0  0  0  0  0  0  0
   16.0837   -7.8910   -8.5617 S   0  0  0  0  0  0  0  0  0  0  0  0
   16.1462   -7.4953  -10.2669 C   0  0  0  0  0  0  0  0  0  0  0  0
   16.9331   -8.2168  -11.2408 C   0  0  0  0  0  0  0  0  0  0  0  0
   17.0803   -7.9133  -12.6767 C   0  0  2  0  0  0  0  0  0  0  0  0
   18.2409   -8.8182  -13.0717 N   0  0  0  0  0  0  0  0  0  0  0  0
   17.5931   -6.5420  -13.0053 C   0  0  0  0  0  0  0  0  0  0  0  0
   18.7661   -6.2919  -13.1592 O   0  0  0  0  0  0  0  0  0  0  0  0
   16.6822   -5.4661  -13.1483 O   0  0  0  0  0  0  0  0  0  0  0  0
  2  1  1  6
  3  2  1  0
  4  2  1  0
  4  5  1  6
  6  8  1  0
  6  4  1  0
  7  6  2  0
  9 10  1  0
  9  8  1  0
 10 17  1  0
 11 10  2  0
 12 13  1  0
 13 14  1  0
 15 14  1  0
 16 15  1  1
 17 16  1  0
 18 16  1  0
 18 20  1  0
 19 18  2  0
M  END
$$$$
