VGM.pdb
     RDKit          3D

 20 19  0  0  1  0  0  0  0  0999 V2000
   24.1617  -18.4471  -17.7181 C   0  0  0  0  0  0  0  0  0  0  0  0
   25.3309  -19.0871  -17.0226 C   0  0  1  0  0  0  0  0  0  0  0  0
   26.5151  -18.1496  -16.9367 C   0  0  0  0  0  0  0  0  0  0  0  0
   24.8705  -19.5270  -15.6501 C   0  0  2  0  0  0  0  0  0  0  0  0
   24.4280  -18.4081  -14.8554 N   0  0  0  0  0  0  0  0  0  0  0  0
   25.9317  -20.2440  -14.9116 C   0  0  0  0  0  0  0  0  0  0  0  0
   26.2890  -21.3943  -15.2510 O   0  0  0  0  0  0  0  0  0  0  0  0
   26.5904  -19.6563  -13.7841 N   0  0  0  0  0  0  0  0  0  0  0  0
   27.5324  -20.3963  -12.9845 C   0  0  0  0  0  0  0  0  0  0  0  0
   26.9738  -20.8750  -11.7074 C   0  0  0  0  0  0  0  0  0  0  0  0
   26.4682  -22.0558  -11.6672 O   0  0  0  0  0  0  0  0  0  0  0  0
   29.3023  -19.0382   -5.7683 C   0  0  0  0  0  0  0  0  0  0  0  0
   27.5676  -19.3421   -5.5273 S   0  0  0  0  0  0  0  0  0  0  0  0
   26.7058  -20.2163   -6.7769 C   0  0  0  0  0  0  0  0  0  0  0  0
   26.9613  -20.0745   -8.1921 C   0  0  0  0  0  0  0  0  0  0  0  0
   26.3128  -20.8046   -9.2976 C   0  0  2  0  0  0  0  0  0  0  0  0
   26.9442  -20.1496  -10.5199 N   0  0  0  0  0  0  0  0  0  0  0  0
   24.8489  -20.5360   -9.4877 C   0  0  0  0  0  0  0  0  0  0  0  0
   24.4208  -19.7164  -10.2669 O   0  0  0  0  0  0  0  0  0  0  0  0
   23.8964  -21.2624   -8.7308 O   0  0  0  0  0  0  0  0  0  0  0  0
  2  1  1  1
  3  2  1  0
  4  2  1  0
  4  5  1  1
  6  8  1  0
  6  4  1  0
  7  6  2  0
  9 10  1  0
  9  8  1  0
 10 17  1  0
 11 10  2  0
 12 13  1  0
 13 14  1  0
 15 14  1  0
 16 15  1  1
 17 16  1  0
 18 16  1  0
 18 20  1  0
 19 18  2  0
M  END
$$$$
