VGM.pdb
     RDKit          3D

 20 19  0  0  1  0  0  0  0  0999 V2000
   22.6508  -18.9006  -13.7336 C   0  0  0  0  0  0  0  0  0  0  0  0
   22.6301  -19.2923  -15.1849 C   0  0  1  0  0  0  0  0  0  0  0  0
   21.2501  -19.1442  -15.7870 C   0  0  0  0  0  0  0  0  0  0  0  0
   23.6468  -18.4386  -15.9106 C   0  0  2  0  0  0  0  0  0  0  0  0
   23.5533  -18.6028  -17.3402 N   0  0  0  0  0  0  0  0  0  0  0  0
   25.0304  -18.7419  -15.4871 C   0  0  0  0  0  0  0  0  0  0  0  0
   25.5701  -19.8321  -15.7806 O   0  0  0  0  0  0  0  0  0  0  0  0
   25.8054  -17.8074  -14.7279 N   0  0  0  0  0  0  0  0  0  0  0  0
   27.1540  -18.0983  -14.3146 C   0  0  0  0  0  0  0  0  0  0  0  0
   27.2467  -19.1947  -13.3341 C   0  0  0  0  0  0  0  0  0  0  0  0
   28.3682  -19.8100  -13.2111 O   0  0  0  0  0  0  0  0  0  0  0  0
   27.4560  -18.7320   -7.4458 C   0  0  0  0  0  0  0  0  0  0  0  0
   26.5063  -20.2342   -7.4746 S   0  0  0  0  0  0  0  0  0  0  0  0
   26.2373  -21.0059   -9.0239 C   0  0  0  0  0  0  0  0  0  0  0  0
   26.1821  -20.3016  -10.2845 C   0  0  0  0  0  0  0  0  0  0  0  0
   26.4617  -20.8440  -11.6273 C   0  0  2  0  0  0  0  0  0  0  0  0
   26.2096  -19.6314  -12.5148 N   0  0  0  0  0  0  0  0  0  0  0  0
   25.4768  -21.8517  -12.1430 C   0  0  0  0  0  0  0  0  0  0  0  0
   24.3791  -21.5556  -12.5545 O   0  0  0  0  0  0  0  0  0  0  0  0
   25.8209  -23.2262  -12.1608 O   0  0  0  0  0  0  0  0  0  0  0  0
  2  1  1  1
  3  2  1  0
  4  2  1  0
  4  5  1  6
  6  8  1  0
  6  4  1  0
  7  6  2  0
  9 10  1  0
  9  8  1  0
 10 17  1  0
 11 10  2  0
 12 13  1  0
 13 14  1  0
 15 14  1  0
 16 15  1  1
 17 16  1  0
 18 16  1  0
 18 20  1  0
 19 18  2  0
M  END
$$$$
