VGM.pdb
     RDKit          3D

 20 19  0  0  1  0  0  0  0  0999 V2000
   21.9688  -24.4787  -15.8650 C   0  0  0  0  0  0  0  0  0  0  0  0
   22.7304  -23.2914  -15.3451 C   0  0  1  0  0  0  0  0  0  0  0  0
   22.2945  -22.9131  -13.9466 C   0  0  0  0  0  0  0  0  0  0  0  0
   24.2048  -23.6276  -15.3950 C   0  0  2  0  0  0  0  0  0  0  0  0
   24.5086  -24.7980  -14.6092 N   0  0  0  0  0  0  0  0  0  0  0  0
   25.0463  -22.5073  -14.9235 C   0  0  0  0  0  0  0  0  0  0  0  0
   25.0404  -21.4037  -15.5135 O   0  0  0  0  0  0  0  0  0  0  0  0
   25.8981  -22.6374  -13.7799 N   0  0  0  0  0  0  0  0  0  0  0  0
   26.6873  -21.5359  -13.2918 C   0  0  0  0  0  0  0  0  0  0  0  0
   26.0588  -20.8101  -12.1736 C   0  0  0  0  0  0  0  0  0  0  0  0
   25.6908  -19.5939  -12.3658 O   0  0  0  0  0  0  0  0  0  0  0  0
   20.6857  -22.2046   -8.7872 C   0  0  0  0  0  0  0  0  0  0  0  0
   21.9831  -21.9204   -7.6059 S   0  0  0  0  0  0  0  0  0  0  0  0
   23.3581  -20.9602   -8.1116 C   0  0  0  0  0  0  0  0  0  0  0  0
   24.1495  -21.2307   -9.2900 C   0  0  0  0  0  0  0  0  0  0  0  0
   25.2388  -20.4067   -9.8468 C   0  0  2  0  0  0  0  0  0  0  0  0
   25.8242  -21.3333  -10.9053 N   0  0  0  0  0  0  0  0  0  0  0  0
   26.4027  -20.1585   -8.9329 C   0  0  0  0  0  0  0  0  0  0  0  0
   27.3956  -20.8485   -8.9214 O   0  0  0  0  0  0  0  0  0  0  0  0
   26.3659  -19.0696   -8.0270 O   0  0  0  0  0  0  0  0  0  0  0  0
  2  1  1  1
  3  2  1  0
  4  2  1  0
  4  5  1  1
  6  8  1  0
  6  4  1  0
  7  6  2  0
  9 10  1  0
  9  8  1  0
 10 17  1  0
 11 10  2  0
 12 13  1  0
 13 14  1  0
 15 14  1  0
 16 15  1  1
 17 16  1  0
 18 16  1  0
 18 20  1  0
 19 18  2  0
M  END
$$$$
