RYK.pdb
     RDKit          3D

 33 33  0  0  1  0  0  0  0  0999 V2000
   30.6314  -23.5669  -20.3150 N   0  0  0  0  0  0  0  0  0  0  0  0
   29.6200  -23.7143  -21.3112 C   0  0  0  0  0  0  0  0  0  0  0  0
   29.9321  -24.3555  -22.3670 N   0  0  0  0  0  0  0  0  0  0  0  0
   28.3212  -23.1789  -21.1549 N   0  0  0  0  0  0  0  0  0  0  0  0
   27.8888  -22.6545  -19.8434 C   0  0  0  0  0  0  0  0  0  0  0  0
   27.9408  -23.7305  -18.8241 C   0  0  0  0  0  0  0  0  0  0  0  0
   26.9201  -23.6035  -17.7548 C   0  0  0  0  0  0  0  0  0  0  0  0
   26.6668  -22.2072  -17.3287 C   0  0  2  0  0  0  0  0  0  0  0  0
   27.9014  -21.4453  -17.2537 N   0  0  0  0  0  0  0  0  0  0  0  0
   26.0717  -22.2119  -15.9389 C   0  0  0  0  0  0  0  0  0  0  0  0
   25.1219  -22.9527  -15.6418 O   0  0  0  0  0  0  0  0  0  0  0  0
   29.2455  -24.5562  -23.1050 O   0  0  0  0  0  0  0  0  0  0  0  0
   24.5434  -20.3126   -7.4657 C   0  0  0  0  0  0  0  0  0  0  0  0
   25.1494  -20.4089   -8.7323 C   0  0  0  0  0  0  0  0  0  0  0  0
   25.2958  -19.3027   -9.5389 C   0  0  0  0  0  0  0  0  0  0  0  0
   25.8894  -19.4134  -10.7718 C   0  0  0  0  0  0  0  0  0  0  0  0
   26.3667  -20.6109  -11.2714 C   0  0  0  0  0  0  0  0  0  0  0  0
   27.0046  -20.6729  -12.6126 C   0  0  2  0  0  0  0  0  0  0  0  0
   26.0909  -21.2094  -13.6406 N   0  0  0  0  0  0  0  0  0  0  0  0
   26.6138  -21.3535  -14.9698 C   0  0  0  0  0  0  0  0  0  0  0  0
   24.8046  -20.4682  -13.6899 O   0  0  0  0  0  0  0  0  0  0  0  0
   24.7547  -19.3117  -14.2312 C   0  0  0  0  0  0  0  0  0  0  0  0
   26.2151  -21.7141  -10.4556 C   0  0  0  0  0  0  0  0  0  0  0  0
   25.6179  -21.6147   -9.2098 N   0  0  0  0  0  0  0  0  0  0  0  0
   23.5997  -20.9602  -13.1681 C   0  0  2  0  0  0  0  0  0  0  0  0
   22.3518  -20.1329  -13.1319 C   0  0  0  0  0  0  0  0  0  0  0  0
   21.6941  -20.4003  -14.4354 C   0  0  0  0  0  0  0  0  0  0  0  0
   20.3961  -19.8811  -14.7964 C   0  0  0  0  0  0  0  0  0  0  0  0
   19.6663  -20.0745  -16.0389 C   0  0  0  0  0  0  0  0  0  0  0  0
   18.3820  -19.4390  -16.3371 N   0  0  0  0  0  0  0  0  0  0  0  0
   17.7332  -19.7284  -17.5589 C   0  0  0  0  0  0  0  0  0  0  0  0
   21.4552  -20.6378  -12.0605 O   0  0  0  0  0  0  0  0  0  0  0  0
   21.5120  -21.8627  -11.7862 O   0  0  0  0  0  0  0  0  0  0  0  0
  2  3  2  0
  2  1  1  0
  4  2  1  0
  5  4  1  0
  6  5  1  0
  7  6  1  0
  8  7  1  0
  8 10  1  0
  8  9  1  1
 10 19  1  0
 10 11  2  0
 12 13  1  0
 13 23  2  0
 13 14  1  0
 14 15  2  0
 15 16  1  0
 16 17  1  0
 18 17  1  1
 19 18  1  0
 20 18  1  0
 20 24  1  0
 21 20  2  0
 22 16  2  0
 23 22  1  0
 25 26  1  6
 25 31  1  0
 25 24  1  0
 26 27  1  0
 27 28  1  0
 28 29  1  0
 29 30  1  0
 31 33  1  0
 32 31  2  0
M  END
$$$$
