RYK.pdb
     RDKit          3D

 33 33  0  0  1  0  0  0  0  0999 V2000
   25.1226  -26.9468  -20.6021 N   0  0  0  0  0  0  0  0  0  0  0  0
   24.1564  -26.6719  -19.5881 C   0  0  0  0  0  0  0  0  0  0  0  0
   23.0440  -27.2885  -19.6617 N   0  0  0  0  0  0  0  0  0  0  0  0
   24.4014  -25.7574  -18.5386 N   0  0  0  0  0  0  0  0  0  0  0  0
   25.7546  -25.1975  -18.3444 C   0  0  0  0  0  0  0  0  0  0  0  0
   26.2986  -25.6273  -17.0335 C   0  0  0  0  0  0  0  0  0  0  0  0
   26.4869  -24.5216  -16.0623 C   0  0  0  0  0  0  0  0  0  0  0  0
   26.6865  -23.1957  -16.6928 C   0  0  2  0  0  0  0  0  0  0  0  0
   28.0122  -23.0819  -17.2759 N   0  0  0  0  0  0  0  0  0  0  0  0
   26.5815  -22.1211  -15.6345 C   0  0  0  0  0  0  0  0  0  0  0  0
   27.5233  -21.8725  -14.8660 O   0  0  0  0  0  0  0  0  0  0  0  0
   22.8305  -27.9365  -20.4304 O   0  0  0  0  0  0  0  0  0  0  0  0
   29.4042  -17.0375  -18.2529 C   0  0  0  0  0  0  0  0  0  0  0  0
   28.3010  -17.5164  -17.5219 C   0  0  0  0  0  0  0  0  0  0  0  0
   28.1842  -17.2805  -16.1704 C   0  0  0  0  0  0  0  0  0  0  0  0
   27.1017  -17.7543  -15.4716 C   0  0  0  0  0  0  0  0  0  0  0  0
   26.0844  -18.4801  -16.0631 C   0  0  0  0  0  0  0  0  0  0  0  0
   24.9327  -18.9662  -15.2590 C   0  0  2  0  0  0  0  0  0  0  0  0
   25.1988  -20.2803  -14.6411 N   0  0  0  0  0  0  0  0  0  0  0  0
   25.3858  -21.3943  -15.5271 C   0  0  0  0  0  0  0  0  0  0  0  0
   24.1892  -20.6299  -13.6091 O   0  0  0  0  0  0  0  0  0  0  0  0
   23.1204  -21.2449  -13.9443 C   0  0  0  0  0  0  0  0  0  0  0  0
   26.2106  -18.7116  -17.4181 C   0  0  0  0  0  0  0  0  0  0  0  0
   27.2982  -18.2385  -18.1337 N   0  0  0  0  0  0  0  0  0  0  0  0
   24.3265  -20.3240  -12.2475 C   0  0  2  0  0  0  0  0  0  0  0  0
   23.2419  -20.6089  -11.2549 C   0  0  0  0  0  0  0  0  0  0  0  0
   23.7699  -20.0837   -9.9709 C   0  0  0  0  0  0  0  0  0  0  0  0
   23.0324  -20.1186   -8.7302 C   0  0  0  0  0  0  0  0  0  0  0  0
   22.9585  -21.1994   -7.7604 C   0  0  0  0  0  0  0  0  0  0  0  0
   22.1308  -21.1568   -6.5541 N   0  0  0  0  0  0  0  0  0  0  0  0
   20.7949  -21.6143   -6.6141 C   0  0  0  0  0  0  0  0  0  0  0  0
   22.0330  -19.8193  -11.6039 O   0  0  0  0  0  0  0  0  0  0  0  0
   22.2077  -18.7103  -12.1683 O   0  0  0  0  0  0  0  0  0  0  0  0
  2  3  2  0
  2  1  1  0
  4  2  1  0
  5  4  1  0
  6  5  1  0
  7  6  1  0
  8  7  1  0
  8 10  1  0
  8  9  1  1
 10 19  1  0
 10 11  2  0
 12 13  1  0
 13 23  2  0
 13 14  1  0
 14 15  2  0
 15 16  1  0
 16 17  1  0
 18 17  1  6
 19 18  1  0
 20 18  1  0
 20 24  1  0
 21 20  2  0
 22 16  2  0
 23 22  1  0
 25 26  1  1
 25 31  1  0
 25 24  1  0
 26 27  1  0
 27 28  1  0
 28 29  1  0
 29 30  1  0
 31 33  1  0
 32 31  2  0
M  END
$$$$
