RYK.pdb
     RDKit          3D

 33 33  0  0  1  0  0  0  0  0999 V2000
   21.2023  -19.3138  -16.5848 N   0  0  0  0  0  0  0  0  0  0  0  0
   20.7813  -18.8685  -15.2958 C   0  0  0  0  0  0  0  0  0  0  0  0
   19.6128  -18.3688  -15.2057 N   0  0  0  0  0  0  0  0  0  0  0  0
   21.6092  -18.9668  -14.1544 N   0  0  0  0  0  0  0  0  0  0  0  0
   23.0657  -19.1588  -14.3097 C   0  0  0  0  0  0  0  0  0  0  0  0
   23.3818  -20.6058  -14.3845 C   0  0  0  0  0  0  0  0  0  0  0  0
   23.9415  -21.1704  -13.1318 C   0  0  0  0  0  0  0  0  0  0  0  0
   25.3680  -20.8378  -12.9076 C   0  0  2  0  0  0  0  0  0  0  0  0
   26.2368  -21.6439  -13.7477 N   0  0  0  0  0  0  0  0  0  0  0  0
   25.7323  -21.1521  -11.4744 C   0  0  0  0  0  0  0  0  0  0  0  0
   25.6887  -22.3106  -11.0325 O   0  0  0  0  0  0  0  0  0  0  0  0
   19.2226  -18.0553  -14.3080 O   0  0  0  0  0  0  0  0  0  0  0  0
   28.7491  -20.6116   -3.2588 C   0  0  0  0  0  0  0  0  0  0  0  0
   28.4485  -20.3079   -4.5999 C   0  0  0  0  0  0  0  0  0  0  0  0
   29.0374  -20.9968   -5.6364 C   0  0  0  0  0  0  0  0  0  0  0  0
   28.7334  -20.6886   -6.9392 C   0  0  0  0  0  0  0  0  0  0  0  0
   27.8396  -19.6928   -7.2870 C   0  0  0  0  0  0  0  0  0  0  0  0
   27.5443  -19.4033   -8.7147 C   0  0  2  0  0  0  0  0  0  0  0  0
   26.4712  -20.2654   -9.2484 N   0  0  0  0  0  0  0  0  0  0  0  0
   26.1272  -20.1010  -10.6324 C   0  0  0  0  0  0  0  0  0  0  0  0
   25.2399  -20.2065   -8.4196 O   0  0  0  0  0  0  0  0  0  0  0  0
   24.4831  -19.1781   -8.4729 C   0  0  0  0  0  0  0  0  0  0  0  0
   27.2547  -19.0077   -6.2410 C   0  0  0  0  0  0  0  0  0  0  0  0
   27.5536  -19.3098   -4.9226 N   0  0  0  0  0  0  0  0  0  0  0  0
   24.8326  -21.2308   -7.5529 C   0  0  2  0  0  0  0  0  0  0  0  0
   23.6247  -21.0987   -6.6774 C   0  0  0  0  0  0  0  0  0  0  0  0
   22.8571  -22.3463   -6.9175 C   0  0  0  0  0  0  0  0  0  0  0  0
   21.5505  -22.6001   -6.3579 C   0  0  0  0  0  0  0  0  0  0  0  0
   20.7252  -23.7876   -6.5086 C   0  0  0  0  0  0  0  0  0  0  0  0
   19.3958  -23.9369   -5.9149 N   0  0  0  0  0  0  0  0  0  0  0  0
   18.6435  -25.1024   -6.1851 C   0  0  0  0  0  0  0  0  0  0  0  0
   24.0454  -21.0932   -5.2528 O   0  0  0  0  0  0  0  0  0  0  0  0
   25.1200  -21.6765   -4.9631 O   0  0  0  0  0  0  0  0  0  0  0  0
  2  3  2  0
  2  1  1  0
  4  2  1  0
  5  4  1  0
  6  5  1  0
  7  6  1  0
  8  7  1  0
  8 10  1  0
  8  9  1  6
 10 19  1  0
 10 11  2  0
 12 13  1  0
 13 23  2  0
 13 14  1  0
 14 15  2  0
 15 16  1  0
 16 17  1  0
 18 17  1  6
 19 18  1  0
 20 18  1  0
 20 24  1  0
 21 20  2  0
 22 16  2  0
 23 22  1  0
 25 26  1  1
 25 31  1  0
 25 24  1  0
 26 27  1  0
 27 28  1  0
 28 29  1  0
 29 30  1  0
 31 33  1  0
 32 31  2  0
M  END
$$$$
