RYK.pdb
     RDKit          3D

 33 33  0  0  1  0  0  0  0  0999 V2000
   26.8036  -21.3153  -20.8977 N   0  0  0  0  0  0  0  0  0  0  0  0
   26.5301  -19.9958  -20.4273 C   0  0  0  0  0  0  0  0  0  0  0  0
   26.6023  -19.0486  -21.2763 N   0  0  0  0  0  0  0  0  0  0  0  0
   26.1929  -19.7279  -19.0811 N   0  0  0  0  0  0  0  0  0  0  0  0
   26.3354  -20.7833  -18.0573 C   0  0  0  0  0  0  0  0  0  0  0  0
   25.5346  -21.9719  -18.4385 C   0  0  0  0  0  0  0  0  0  0  0  0
   25.1612  -22.8436  -17.2975 C   0  0  0  0  0  0  0  0  0  0  0  0
   26.1490  -22.8437  -16.1929 C   0  0  2  0  0  0  0  0  0  0  0  0
   26.7550  -24.1533  -16.0260 N   0  0  0  0  0  0  0  0  0  0  0  0
   25.4436  -22.5205  -14.8953 C   0  0  0  0  0  0  0  0  0  0  0  0
   25.0829  -23.4129  -14.1127 O   0  0  0  0  0  0  0  0  0  0  0  0
   26.4168  -18.0711  -21.0186 O   0  0  0  0  0  0  0  0  0  0  0  0
   29.9732  -21.6114  -10.0321 C   0  0  0  0  0  0  0  0  0  0  0  0
   28.8117  -21.1354  -10.6686 C   0  0  0  0  0  0  0  0  0  0  0  0
   27.5672  -21.3107  -10.1060 C   0  0  0  0  0  0  0  0  0  0  0  0
   26.4439  -20.8402  -10.7395 C   0  0  0  0  0  0  0  0  0  0  0  0
   26.4869  -20.1768  -11.9518 C   0  0  0  0  0  0  0  0  0  0  0  0
   25.2389  -19.6849  -12.5921 C   0  0  2  0  0  0  0  0  0  0  0  0
   24.5577  -20.7391  -13.3692 N   0  0  0  0  0  0  0  0  0  0  0  0
   25.1954  -21.1758  -14.5789 C   0  0  0  0  0  0  0  0  0  0  0  0
   23.1385  -20.4012  -13.6493 O   0  0  0  0  0  0  0  0  0  0  0  0
   22.8551  -19.4924  -14.5018 C   0  0  0  0  0  0  0  0  0  0  0  0
   27.7388  -20.0062  -12.5078 C   0  0  0  0  0  0  0  0  0  0  0  0
   28.8793  -20.4765  -11.8780 N   0  0  0  0  0  0  0  0  0  0  0  0
   22.0494  -21.0267  -13.0258 C   0  0  1  0  0  0  0  0  0  0  0  0
   20.6324  -20.6716  -13.3558 C   0  0  0  0  0  0  0  0  0  0  0  0
   19.9276  -21.9769  -13.4073 C   0  0  0  0  0  0  0  0  0  0  0  0
   19.8707  -22.8077  -14.5869 C   0  0  0  0  0  0  0  0  0  0  0  0
   19.1573  -24.0616  -14.7676 C   0  0  0  0  0  0  0  0  0  0  0  0
   19.2600  -24.8920  -15.9685 N   0  0  0  0  0  0  0  0  0  0  0  0
   18.5022  -26.0818  -16.0547 C   0  0  0  0  0  0  0  0  0  0  0  0
   20.0475  -19.8852  -12.2395 O   0  0  0  0  0  0  0  0  0  0  0  0
   20.7026  -19.8217  -11.1692 O   0  0  0  0  0  0  0  0  0  0  0  0
  2  3  2  0
  2  1  1  0
  4  2  1  0
  5  4  1  0
  6  5  1  0
  7  6  1  0
  8  7  1  0
  8 10  1  0
  8  9  1  1
 10 19  1  0
 10 11  2  0
 12 13  1  0
 13 23  2  0
 13 14  1  0
 14 15  2  0
 15 16  1  0
 16 17  1  0
 18 17  1  1
 19 18  1  0
 20 18  1  0
 20 24  1  0
 21 20  2  0
 22 16  2  0
 23 22  1  0
 25 26  1  6
 25 31  1  0
 25 24  1  0
 26 27  1  0
 27 28  1  0
 28 29  1  0
 29 30  1  0
 31 33  1  0
 32 31  2  0
M  END
$$$$
