RYK.pdb
     RDKit          3D

 33 33  0  0  1  0  0  0  0  0999 V2000
   30.7653  -22.6744  -18.6366 N   0  0  0  0  0  0  0  0  0  0  0  0
   30.6420  -22.2962  -20.0073 C   0  0  0  0  0  0  0  0  0  0  0  0
   31.3091  -22.9690  -20.8590 N   0  0  0  0  0  0  0  0  0  0  0  0
   29.8216  -21.2235  -20.4246 N   0  0  0  0  0  0  0  0  0  0  0  0
   28.8537  -20.6217  -19.4849 C   0  0  0  0  0  0  0  0  0  0  0  0
   27.5323  -21.2800  -19.6263 C   0  0  0  0  0  0  0  0  0  0  0  0
   26.7597  -21.3681  -18.3628 C   0  0  0  0  0  0  0  0  0  0  0  0
   27.5368  -21.9011  -17.2193 C   0  0  2  0  0  0  0  0  0  0  0  0
   27.9432  -23.2764  -17.4517 N   0  0  0  0  0  0  0  0  0  0  0  0
   26.6642  -21.9065  -15.9847 C   0  0  0  0  0  0  0  0  0  0  0  0
   25.6480  -22.6144  -15.9110 O   0  0  0  0  0  0  0  0  0  0  0  0
   31.2906  -22.7479  -21.8625 O   0  0  0  0  0  0  0  0  0  0  0  0
   23.8245  -20.4913   -7.7590 C   0  0  0  0  0  0  0  0  0  0  0  0
   24.6011  -20.4625   -8.9324 C   0  0  0  0  0  0  0  0  0  0  0  0
   24.4381  -19.4686   -9.8713 C   0  0  0  0  0  0  0  0  0  0  0  0
   25.2037  -19.4546  -11.0107 C   0  0  0  0  0  0  0  0  0  0  0  0
   26.1635  -20.4118  -11.2832 C   0  0  0  0  0  0  0  0  0  0  0  0
   26.9673  -20.3461  -12.5318 C   0  0  2  0  0  0  0  0  0  0  0  0
   26.3180  -21.0566  -13.6512 N   0  0  0  0  0  0  0  0  0  0  0  0
   27.0210  -21.0872  -14.9025 C   0  0  0  0  0  0  0  0  0  0  0  0
   24.9239  -20.5953  -13.8753 O   0  0  0  0  0  0  0  0  0  0  0  0
   24.7048  -19.5205  -14.5311 C   0  0  0  0  0  0  0  0  0  0  0  0
   26.3192  -21.4039  -10.3361 C   0  0  0  0  0  0  0  0  0  0  0  0
   25.5526  -21.4285   -9.1827 N   0  0  0  0  0  0  0  0  0  0  0  0
   23.7915  -21.2748  -13.4040 C   0  0  2  0  0  0  0  0  0  0  0  0
   22.4116  -20.7078  -13.5351 C   0  0  0  0  0  0  0  0  0  0  0  0
   21.6237  -21.7969  -14.1644 C   0  0  0  0  0  0  0  0  0  0  0  0
   20.2114  -21.6992  -14.4488 C   0  0  0  0  0  0  0  0  0  0  0  0
   19.3541  -22.6856  -15.0858 C   0  0  0  0  0  0  0  0  0  0  0  0
   17.9429  -22.4576  -15.3999 N   0  0  0  0  0  0  0  0  0  0  0  0
   17.1823  -23.5037  -15.9696 C   0  0  0  0  0  0  0  0  0  0  0  0
   21.8472  -20.4640  -12.1828 O   0  0  0  0  0  0  0  0  0  0  0  0
   22.2294  -21.2151  -11.2508 O   0  0  0  0  0  0  0  0  0  0  0  0
  2  3  2  0
  2  1  1  0
  4  2  1  0
  5  4  1  0
  6  5  1  0
  7  6  1  0
  8  7  1  0
  8 10  1  0
  8  9  1  6
 10 19  1  0
 10 11  2  0
 12 13  1  0
 13 23  2  0
 13 14  1  0
 14 15  2  0
 15 16  1  0
 16 17  1  0
 18 17  1  1
 19 18  1  0
 20 18  1  0
 20 24  1  0
 21 20  2  0
 22 16  2  0
 23 22  1  0
 25 26  1  6
 25 31  1  0
 25 24  1  0
 26 27  1  0
 27 28  1  0
 28 29  1  0
 29 30  1  0
 31 33  1  0
 32 31  2  0
M  END
$$$$
