RYK.pdb
     RDKit          3D

 33 33  0  0  1  0  0  0  0  0999 V2000
   27.2669  -25.4219  -16.5114 N   0  0  0  0  0  0  0  0  0  0  0  0
   25.8445  -25.3955  -16.3972 C   0  0  0  0  0  0  0  0  0  0  0  0
   25.2713  -26.4675  -16.0156 N   0  0  0  0  0  0  0  0  0  0  0  0
   25.0838  -24.2411  -16.6909 N   0  0  0  0  0  0  0  0  0  0  0  0
   25.7618  -22.9632  -16.9900 C   0  0  0  0  0  0  0  0  0  0  0  0
   26.1781  -22.3021  -15.7295 C   0  0  0  0  0  0  0  0  0  0  0  0
   25.0581  -21.9970  -14.8055 C   0  0  0  0  0  0  0  0  0  0  0  0
   24.2148  -20.8583  -15.2389 C   0  0  2  0  0  0  0  0  0  0  0  0
   24.9620  -19.6126  -15.2268 N   0  0  0  0  0  0  0  0  0  0  0  0
   23.0693  -20.6897  -14.2667 C   0  0  0  0  0  0  0  0  0  0  0  0
   23.1959  -20.0329  -13.2219 O   0  0  0  0  0  0  0  0  0  0  0  0
   24.2482  -26.5467  -15.9573 O   0  0  0  0  0  0  0  0  0  0  0  0
   20.8131  -14.8855  -15.2077 C   0  0  0  0  0  0  0  0  0  0  0  0
   20.4929  -16.2398  -14.9974 C   0  0  0  0  0  0  0  0  0  0  0  0
   20.8759  -17.2110  -15.8951 C   0  0  0  0  0  0  0  0  0  0  0  0
   20.5559  -18.5278  -15.6753 C   0  0  0  0  0  0  0  0  0  0  0  0
   19.8469  -18.9542  -14.5676 C   0  0  0  0  0  0  0  0  0  0  0  0
   19.5306  -20.3941  -14.3775 C   0  0  2  0  0  0  0  0  0  0  0  0
   20.6526  -21.1361  -13.7692 N   0  0  0  0  0  0  0  0  0  0  0  0
   21.8383  -21.2954  -14.5626 C   0  0  0  0  0  0  0  0  0  0  0  0
   20.2291  -22.4568  -13.2373 O   0  0  0  0  0  0  0  0  0  0  0  0
   20.2367  -23.4835  -13.9981 C   0  0  0  0  0  0  0  0  0  0  0  0
   19.4672  -17.9732  -13.6737 C   0  0  0  0  0  0  0  0  0  0  0  0
   19.7844  -16.6415  -13.8848 N   0  0  0  0  0  0  0  0  0  0  0  0
   19.8065  -22.6675  -11.9170 C   0  0  2  0  0  0  0  0  0  0  0  0
   19.3891  -24.0177  -11.4212 C   0  0  0  0  0  0  0  0  0  0  0  0
   19.2620  -23.8479   -9.9521 C   0  0  0  0  0  0  0  0  0  0  0  0
   18.7550  -24.8729   -9.0707 C   0  0  0  0  0  0  0  0  0  0  0  0
   18.6082  -24.8211   -7.6252 C   0  0  0  0  0  0  0  0  0  0  0  0
   17.9747  -25.8755   -6.8319 N   0  0  0  0  0  0  0  0  0  0  0  0
   17.9181  -25.7451   -5.4258 C   0  0  0  0  0  0  0  0  0  0  0  0
   18.0431  -24.3462  -11.9569 O   0  0  0  0  0  0  0  0  0  0  0  0
   17.2192  -23.4045  -12.0725 O   0  0  0  0  0  0  0  0  0  0  0  0
  2  3  2  0
  2  1  1  0
  4  2  1  0
  5  4  1  0
  6  5  1  0
  7  6  1  0
  8  7  1  0
  8 10  1  0
  8  9  1  1
 10 19  1  0
 10 11  2  0
 12 13  1  0
 13 23  2  0
 13 14  1  0
 14 15  2  0
 15 16  1  0
 16 17  1  0
 18 17  1  1
 19 18  1  0
 20 18  1  0
 20 24  1  0
 21 20  2  0
 22 16  2  0
 23 22  1  0
 25 26  1  1
 25 31  1  0
 25 24  1  0
 26 27  1  0
 27 28  1  0
 28 29  1  0
 29 30  1  0
 31 33  1  0
 32 31  2  0
M  END
$$$$
