QMA.pdb
     RDKit          3D

 23 22  0  0  1  0  0  0  0  0999 V2000
    9.3153  -13.6671   17.0551 N   0  0  0  0  0  0  0  0  0  0  0  0
    8.0290  -13.5003   17.6149 C   0  0  0  0  0  0  0  0  0  0  0  0
    7.0358  -13.1897   16.9313 O   0  0  0  0  0  0  0  0  0  0  0  0
    7.8853  -13.7080   19.0706 C   0  0  0  0  0  0  0  0  0  0  0  0
    9.1120  -14.1486   19.7799 C   0  0  0  0  0  0  0  0  0  0  0  0
    8.9446  -15.2437   20.7772 C   0  0  2  0  0  0  0  0  0  0  0  0
    7.6047  -15.8404   20.6755 N   0  0  0  0  0  0  0  0  0  0  0  0
    9.1665  -14.8021   22.1857 C   0  0  0  0  0  0  0  0  0  0  0  0
   10.2057  -14.1976   22.5221 O   0  0  0  0  0  0  0  0  0  0  0  0
    7.4562  -10.9846   26.9790 C   0  0  0  0  0  0  0  0  0  0  0  0
    6.1647  -12.1214   26.4073 S   0  0  0  0  0  0  0  0  0  0  0  0
    6.8096  -13.8518   26.4126 C   0  0  0  0  0  0  0  0  0  0  0  0
    6.9962  -14.2208   24.9950 C   0  0  0  0  0  0  0  0  0  0  0  0
    8.3310  -14.7459   24.5804 C   0  0  2  0  0  0  0  0  0  0  0  0
    8.1872  -15.0724   23.1467 N   0  0  0  0  0  0  0  0  0  0  0  0
    8.8419  -15.8885   25.3284 C   0  0  0  0  0  0  0  0  0  0  0  0
    8.9230  -15.9175   26.5976 O   0  0  0  0  0  0  0  0  0  0  0  0
    9.5898  -19.4965   24.5916 C   0  0  0  0  0  0  0  0  0  0  0  0
    9.7160  -18.2447   25.4373 C   0  0  2  0  0  0  0  0  0  0  0  0
    9.2866  -17.0653   24.6752 N   0  0  0  0  0  0  0  0  0  0  0  0
   11.1381  -18.1327   25.8435 C   0  0  0  0  0  0  0  0  0  0  0  0
   11.5741  -18.8483   26.7702 O   0  0  0  0  0  0  0  0  0  0  0  0
   12.0394  -17.2636   25.2470 O   0  0  0  0  0  0  0  0  0  0  0  0
  2  1  1  0
  2  3  2  0
  4  2  1  0
  5  4  1  0
  6  5  1  0
  6  7  1  1
  8  6  1  0
  8 15  1  0
  9  8  2  0
 10 11  1  0
 11 12  1  0
 12 13  1  0
 14 13  1  1
 14 15  1  0
 16 14  1  0
 17 16  2  0
 19 18  1  6
 19 20  1  0
 19 21  1  0
 20 16  1  0
 21 23  1  0
 22 21  2  0
M  END
$$$$
