QMA.pdb
     RDKit          3D

 23 22  0  0  1  0  0  0  0  0999 V2000
    9.0123  -12.3290   17.8851 N   0  0  0  0  0  0  0  0  0  0  0  0
    8.0588  -13.2167   17.3388 C   0  0  0  0  0  0  0  0  0  0  0  0
    7.9173  -13.3761   16.1120 O   0  0  0  0  0  0  0  0  0  0  0  0
    7.2091  -13.9719   18.2825 C   0  0  0  0  0  0  0  0  0  0  0  0
    7.5265  -13.7873   19.7203 C   0  0  0  0  0  0  0  0  0  0  0  0
    8.0097  -14.9920   20.4530 C   0  0  2  0  0  0  0  0  0  0  0  0
    6.9489  -16.0058   20.5454 N   0  0  0  0  0  0  0  0  0  0  0  0
    8.5053  -14.6905   21.8283 C   0  0  0  0  0  0  0  0  0  0  0  0
    9.5242  -13.9937   22.0148 O   0  0  0  0  0  0  0  0  0  0  0  0
    7.4102  -11.1793   26.5103 C   0  0  0  0  0  0  0  0  0  0  0  0
    6.2960  -12.5707   26.8412 S   0  0  0  0  0  0  0  0  0  0  0  0
    7.1557  -14.1614   26.4658 C   0  0  0  0  0  0  0  0  0  0  0  0
    7.1060  -14.3141   24.9979 C   0  0  0  0  0  0  0  0  0  0  0  0
    8.2424  -15.0159   24.3305 C   0  0  2  0  0  0  0  0  0  0  0  0
    7.8107  -15.2005   22.9297 N   0  0  0  0  0  0  0  0  0  0  0  0
    8.6619  -16.2819   24.9198 C   0  0  0  0  0  0  0  0  0  0  0  0
    7.9244  -17.3177   24.9572 O   0  0  0  0  0  0  0  0  0  0  0  0
   11.7541  -18.0889   25.6780 C   0  0  0  0  0  0  0  0  0  0  0  0
   10.3517  -17.7127   26.1136 C   0  0  2  0  0  0  0  0  0  0  0  0
    9.9464  -16.4430   25.4973 N   0  0  0  0  0  0  0  0  0  0  0  0
   10.3657  -17.6108   27.5932 C   0  0  0  0  0  0  0  0  0  0  0  0
   10.1920  -16.4997   28.1376 O   0  0  0  0  0  0  0  0  0  0  0  0
   10.5636  -18.6955   28.4344 O   0  0  0  0  0  0  0  0  0  0  0  0
  2  1  1  0
  2  3  2  0
  4  2  1  0
  5  4  1  0
  6  5  1  0
  6  7  1  1
  8  6  1  0
  8 15  1  0
  9  8  2  0
 10 11  1  0
 11 12  1  0
 12 13  1  0
 14 13  1  1
 14 15  1  0
 16 14  1  0
 17 16  2  0
 19 18  1  6
 19 20  1  0
 19 21  1  0
 20 16  1  0
 21 23  1  0
 22 21  2  0
M  END
$$$$
