QMA.pdb
     RDKit          3D

 23 22  0  0  1  0  0  0  0  0999 V2000
    8.5077  -12.0564   18.7273 N   0  0  0  0  0  0  0  0  0  0  0  0
    8.0614  -13.2718   18.1622 C   0  0  0  0  0  0  0  0  0  0  0  0
    7.5796  -13.3408   17.0161 O   0  0  0  0  0  0  0  0  0  0  0  0
    8.1819  -14.4928   18.9852 C   0  0  0  0  0  0  0  0  0  0  0  0
    8.7632  -14.3005   20.3369 C   0  0  0  0  0  0  0  0  0  0  0  0
    8.9131  -15.5242   21.1748 C   0  0  2  0  0  0  0  0  0  0  0  0
    7.7467  -16.4060   21.0222 N   0  0  0  0  0  0  0  0  0  0  0  0
    9.1045  -15.2297   22.6256 C   0  0  0  0  0  0  0  0  0  0  0  0
   10.0347  -14.4987   23.0241 O   0  0  0  0  0  0  0  0  0  0  0  0
    6.8086  -11.0564   26.5281 C   0  0  0  0  0  0  0  0  0  0  0  0
    7.2973  -12.8014   26.5848 S   0  0  0  0  0  0  0  0  0  0  0  0
    6.4648  -13.7271   25.2209 C   0  0  0  0  0  0  0  0  0  0  0  0
    6.8725  -15.1375   25.3784 C   0  0  0  0  0  0  0  0  0  0  0  0
    8.2707  -15.5055   25.0056 C   0  0  2  0  0  0  0  0  0  0  0  0
    8.2208  -15.7858   23.5559 N   0  0  0  0  0  0  0  0  0  0  0  0
    8.8667  -16.6195   25.7335 C   0  0  0  0  0  0  0  0  0  0  0  0
    8.8304  -16.7303   27.0003 O   0  0  0  0  0  0  0  0  0  0  0  0
   10.4012  -19.9613   24.9025 C   0  0  0  0  0  0  0  0  0  0  0  0
   10.1822  -18.7625   25.8042 C   0  0  2  0  0  0  0  0  0  0  0  0
    9.5353  -17.6734   25.0614 N   0  0  0  0  0  0  0  0  0  0  0  0
   11.5126  -18.3488   26.3130 C   0  0  0  0  0  0  0  0  0  0  0  0
   11.9720  -17.2292   26.0024 O   0  0  0  0  0  0  0  0  0  0  0  0
   12.3007  -19.1432   27.1323 O   0  0  0  0  0  0  0  0  0  0  0  0
  2  1  1  0
  2  3  2  0
  4  2  1  0
  5  4  1  0
  6  5  1  0
  6  7  1  1
  8  6  1  0
  8 15  1  0
  9  8  2  0
 10 11  1  0
 11 12  1  0
 12 13  1  0
 14 13  1  1
 14 15  1  0
 16 14  1  0
 17 16  2  0
 19 18  1  6
 19 20  1  0
 19 21  1  0
 20 16  1  0
 21 23  1  0
 22 21  2  0
M  END
$$$$
