QMA.pdb
     RDKit          3D

 23 22  0  0  1  0  0  0  0  0999 V2000
    8.9177  -12.3514   18.0518 N   0  0  0  0  0  0  0  0  0  0  0  0
    8.1802  -13.5261   17.7835 C   0  0  0  0  0  0  0  0  0  0  0  0
    7.5658  -13.7021   16.7149 O   0  0  0  0  0  0  0  0  0  0  0  0
    8.1533  -14.5696   18.8290 C   0  0  0  0  0  0  0  0  0  0  0  0
    8.8486  -14.2277   20.0946 C   0  0  0  0  0  0  0  0  0  0  0  0
    8.9444  -15.3121   21.1128 C   0  0  2  0  0  0  0  0  0  0  0  0
    7.7911  -16.2190   21.0179 N   0  0  0  0  0  0  0  0  0  0  0  0
    9.0403  -14.8041   22.5130 C   0  0  0  0  0  0  0  0  0  0  0  0
    9.9430  -14.0139   22.8582 O   0  0  0  0  0  0  0  0  0  0  0  0
    7.5175  -11.1233   26.3230 C   0  0  0  0  0  0  0  0  0  0  0  0
    6.0240  -12.1375   26.4904 S   0  0  0  0  0  0  0  0  0  0  0  0
    6.4888  -13.9223   26.5825 C   0  0  0  0  0  0  0  0  0  0  0  0
    6.7714  -14.3412   25.1950 C   0  0  0  0  0  0  0  0  0  0  0  0
    8.1406  -14.8494   24.8846 C   0  0  2  0  0  0  0  0  0  0  0  0
    8.0969  -15.2239   23.4561 N   0  0  0  0  0  0  0  0  0  0  0  0
    8.6247  -15.9563   25.7010 C   0  0  0  0  0  0  0  0  0  0  0  0
    8.6284  -15.9415   26.9731 O   0  0  0  0  0  0  0  0  0  0  0  0
    9.5596  -19.5578   25.1774 C   0  0  0  0  0  0  0  0  0  0  0  0
    9.6226  -18.2524   25.9455 C   0  0  2  0  0  0  0  0  0  0  0  0
    9.1290  -17.1453   25.1167 N   0  0  0  0  0  0  0  0  0  0  0  0
   11.0382  -18.0416   26.3348 C   0  0  0  0  0  0  0  0  0  0  0  0
   11.6602  -17.0529   25.8915 O   0  0  0  0  0  0  0  0  0  0  0  0
   11.7352  -18.8916   27.1805 O   0  0  0  0  0  0  0  0  0  0  0  0
  2  1  1  0
  2  3  2  0
  4  2  1  0
  5  4  1  0
  6  5  1  0
  6  7  1  1
  8  6  1  0
  8 15  1  0
  9  8  2  0
 10 11  1  0
 11 12  1  0
 12 13  1  0
 14 13  1  1
 14 15  1  0
 16 14  1  0
 17 16  2  0
 19 18  1  6
 19 20  1  0
 19 21  1  0
 20 16  1  0
 21 23  1  0
 22 21  2  0
M  END
$$$$
