QMA.pdb
     RDKit          3D

 23 22  0  0  1  0  0  0  0  0999 V2000
    8.2190  -11.9733   18.7464 N   0  0  0  0  0  0  0  0  0  0  0  0
    8.0231  -13.3365   18.4319 C   0  0  0  0  0  0  0  0  0  0  0  0
    7.9977  -13.7568   17.2601 O   0  0  0  0  0  0  0  0  0  0  0  0
    7.8434  -14.2780   19.5561 C   0  0  0  0  0  0  0  0  0  0  0  0
    9.0413  -15.0721   19.9256 C   0  0  0  0  0  0  0  0  0  0  0  0
    8.8794  -16.0302   21.0559 C   0  0  2  0  0  0  0  0  0  0  0  0
    7.4981  -16.5296   21.1215 N   0  0  0  0  0  0  0  0  0  0  0  0
    9.2424  -15.4496   22.3822 C   0  0  0  0  0  0  0  0  0  0  0  0
   10.3434  -14.8917   22.5691 O   0  0  0  0  0  0  0  0  0  0  0  0
    6.9108  -10.7940   26.6011 C   0  0  0  0  0  0  0  0  0  0  0  0
    6.0586  -12.3925   26.5239 S   0  0  0  0  0  0  0  0  0  0  0  0
    7.2961  -13.7623   26.5739 C   0  0  0  0  0  0  0  0  0  0  0  0
    7.3663  -14.2974   25.1994 C   0  0  0  0  0  0  0  0  0  0  0  0
    8.5991  -15.0400   24.8018 C   0  0  2  0  0  0  0  0  0  0  0  0
    8.3269  -15.5334   23.4361 N   0  0  0  0  0  0  0  0  0  0  0  0
    9.0143  -16.1288   25.6783 C   0  0  0  0  0  0  0  0  0  0  0  0
    9.1297  -16.0098   26.9396 O   0  0  0  0  0  0  0  0  0  0  0  0
    9.4040  -19.8509   25.4471 C   0  0  0  0  0  0  0  0  0  0  0  0
    9.7439  -18.5060   26.0584 C   0  0  2  0  0  0  0  0  0  0  0  0
    9.3186  -17.4167   25.1702 N   0  0  0  0  0  0  0  0  0  0  0  0
   11.2113  -18.4813   26.2732 C   0  0  0  0  0  0  0  0  0  0  0  0
   11.9139  -17.6611   25.6450 O   0  0  0  0  0  0  0  0  0  0  0  0
   11.8722  -19.3303   27.1483 O   0  0  0  0  0  0  0  0  0  0  0  0
  2  1  1  0
  2  3  2  0
  4  2  1  0
  5  4  1  0
  6  5  1  0
  6  7  1  1
  8  6  1  0
  8 15  1  0
  9  8  2  0
 10 11  1  0
 11 12  1  0
 12 13  1  0
 14 13  1  1
 14 15  1  0
 16 14  1  0
 17 16  2  0
 19 18  1  6
 19 20  1  0
 19 21  1  0
 20 16  1  0
 21 23  1  0
 22 21  2  0
M  END
$$$$
