QMA.pdb
     RDKit          3D

 23 22  0  0  1  0  0  0  0  0999 V2000
    8.8972  -12.2911   18.4333 N   0  0  0  0  0  0  0  0  0  0  0  0
    7.8642  -13.2546   18.4410 C   0  0  0  0  0  0  0  0  0  0  0  0
    6.8605  -13.1668   17.7095 O   0  0  0  0  0  0  0  0  0  0  0  0
    8.0056  -14.4004   19.3631 C   0  0  0  0  0  0  0  0  0  0  0  0
    9.1917  -14.3641   20.2541 C   0  0  0  0  0  0  0  0  0  0  0  0
    9.3257  -15.4860   21.2263 C   0  0  2  0  0  0  0  0  0  0  0  0
    8.2883  -16.5020   20.9954 N   0  0  0  0  0  0  0  0  0  0  0  0
    9.2575  -15.0472   22.6514 C   0  0  0  0  0  0  0  0  0  0  0  0
   10.0831  -14.2386   23.1235 O   0  0  0  0  0  0  0  0  0  0  0  0
    6.7421  -10.9283   26.8039 C   0  0  0  0  0  0  0  0  0  0  0  0
    7.1790  -12.6804   26.6416 S   0  0  0  0  0  0  0  0  0  0  0  0
    6.4485  -13.3644   25.0897 C   0  0  0  0  0  0  0  0  0  0  0  0
    6.7240  -14.8149   25.1152 C   0  0  0  0  0  0  0  0  0  0  0  0
    8.1350  -15.2608   24.9164 C   0  0  2  0  0  0  0  0  0  0  0  0
    8.2455  -15.5543   23.4726 N   0  0  0  0  0  0  0  0  0  0  0  0
    8.5776  -16.3967   25.7164 C   0  0  0  0  0  0  0  0  0  0  0  0
    8.1202  -16.6614   26.8736 O   0  0  0  0  0  0  0  0  0  0  0  0
    9.7983  -19.7373   25.3335 C   0  0  0  0  0  0  0  0  0  0  0  0
   10.0201  -18.4279   26.0645 C   0  0  2  0  0  0  0  0  0  0  0  0
    9.5638  -17.2988   25.2441 N   0  0  0  0  0  0  0  0  0  0  0  0
   11.4714  -18.3288   26.3541 C   0  0  0  0  0  0  0  0  0  0  0  0
   12.1609  -17.4671   25.7684 O   0  0  0  0  0  0  0  0  0  0  0  0
   12.1309  -19.1506   27.2558 O   0  0  0  0  0  0  0  0  0  0  0  0
  2  1  1  0
  2  3  2  0
  4  2  1  0
  5  4  1  0
  6  5  1  0
  6  7  1  6
  8  6  1  0
  8 15  1  0
  9  8  2  0
 10 11  1  0
 11 12  1  0
 12 13  1  0
 14 13  1  1
 14 15  1  0
 16 14  1  0
 17 16  2  0
 19 18  1  6
 19 20  1  0
 19 21  1  0
 20 16  1  0
 21 23  1  0
 22 21  2  0
M  END
$$$$
