WHY.pdb
     RDKit          3D

 37 40  0  0  1  0  0  0  0  0999 V2000
   20.9359  -20.3456  -23.3637 N   0  0  0  0  0  0  0  0  0  0  0  0
   20.1453  -19.4797  -22.5137 C   0  0  1  0  0  0  0  0  0  0  0  0
   18.7176  -19.5462  -23.0133 C   0  0  0  0  0  0  0  0  0  0  0  0
   18.5643  -18.7892  -24.2633 C   0  0  0  0  0  0  0  0  0  0  0  0
   18.8627  -19.2353  -25.5320 C   0  0  0  0  0  0  0  0  0  0  0  0
   18.5662  -18.2093  -26.3482 N   0  0  0  0  0  0  0  0  0  0  0  0
   18.1064  -17.1624  -25.6743 C   0  0  0  0  0  0  0  0  0  0  0  0
   17.6762  -15.9035  -26.0423 C   0  0  0  0  0  0  0  0  0  0  0  0
   17.2463  -15.0166  -25.0853 C   0  0  0  0  0  0  0  0  0  0  0  0
   17.2345  -15.3570  -23.7576 C   0  0  0  0  0  0  0  0  0  0  0  0
   17.6604  -16.6107  -23.3686 C   0  0  0  0  0  0  0  0  0  0  0  0
   18.0908  -17.4949  -24.3396 C   0  0  0  0  0  0  0  0  0  0  0  0
   20.1636  -19.8991  -21.1046 C   0  0  0  0  0  0  0  0  0  0  0  0
   20.3061  -21.1167  -20.8403 O   0  0  0  0  0  0  0  0  0  0  0  0
   20.0286  -19.0072  -19.9862 N   0  0  0  0  0  0  0  0  0  0  0  0
   20.1047  -19.4955  -18.6255 C   0  0  1  0  0  0  0  0  0  0  0  0
   21.3366  -19.1417  -17.8884 C   0  0  0  0  0  0  0  0  0  0  0  0
   22.6145  -19.4542  -18.5043 C   0  0  0  0  0  0  0  0  0  0  0  0
   22.9156  -19.9937  -19.7141 C   0  0  0  0  0  0  0  0  0  0  0  0
   24.2744  -20.0590  -19.8324 N   0  0  0  0  0  0  0  0  0  0  0  0
   24.7903  -19.5618  -18.7023 C   0  0  0  0  0  0  0  0  0  0  0  0
   23.8060  -19.1869  -17.8786 N   0  0  0  0  0  0  0  0  0  0  0  0
   18.8568  -19.1131  -17.8732 C   0  0  0  0  0  0  0  0  0  0  0  0
   18.5108  -17.9120  -17.8191 O   0  0  0  0  0  0  0  0  0  0  0  0
   14.1183  -16.8974  -21.5994 O   0  0  0  0  0  0  0  0  0  0  0  0
   14.5135  -17.7323  -20.5423 C   0  0  0  0  0  0  0  0  0  0  0  0
   15.5780  -18.5980  -20.6764 C   0  0  0  0  0  0  0  0  0  0  0  0
   15.9693  -19.4240  -19.6312 C   0  0  0  0  0  0  0  0  0  0  0  0
   15.3087  -19.4108  -18.4183 C   0  0  0  0  0  0  0  0  0  0  0  0
   15.7079  -20.2804  -17.2991 C   0  0  0  0  0  0  0  0  0  0  0  0
   16.8502  -19.7564  -16.4822 C   0  0  2  0  0  0  0  0  0  0  0  0
   18.0713  -20.0867  -17.2292 N   0  0  0  0  0  0  0  0  0  0  0  0
   16.9044  -20.2617  -15.1078 C   0  0  0  0  0  0  0  0  0  0  0  0
   17.9329  -20.8031  -14.6611 O   0  0  0  0  0  0  0  0  0  0  0  0
   14.2437  -18.5418  -18.2907 C   0  0  0  0  0  0  0  0  0  0  0  0
   13.8489  -17.7135  -19.3342 C   0  0  0  0  0  0  0  0  0  0  0  0
   15.8070  -20.1488  -14.2667 O   0  0  0  0  0  0  0  0  0  0  0  0
  2  1  1  6
  2 13  1  0
  2  3  1  0
  3  4  1  0
  4  5  2  0
  6  5  1  0
  7  6  1  0
  8  7  2  0
  9  8  1  0
 10 11  1  0
 10  9  2  0
 11 12  2  0
 12  7  1  0
 12  4  1  0
 13 14  2  0
 15 16  1  0
 15 13  1  0
 16 17  1  1
 18 17  1  0
 19 18  2  0
 20 21  1  0
 20 19  1  0
 21 22  2  0
 22 18  1  0
 23 32  1  0
 23 16  1  0
 24 23  2  0
 25 26  1  0
 26 36  2  0
 26 27  1  0
 27 28  2  0
 28 29  1  0
 29 30  1  0
 31 30  1  6
 31 32  1  0
 33 31  1  0
 33 37  1  0
 34 33  2  0
 35 29  2  0
 36 35  1  0
M  END
$$$$
