WHY.pdb
     RDKit          3D

 37 40  0  0  1  0  0  0  0  0999 V2000
   27.3838  -18.7228  -20.6702 N   0  0  0  0  0  0  0  0  0  0  0  0
   27.3699  -19.1306  -19.2807 C   0  0  1  0  0  0  0  0  0  0  0  0
   26.6259  -18.0613  -18.5091 C   0  0  0  0  0  0  0  0  0  0  0  0
   27.3586  -16.7879  -18.5395 C   0  0  0  0  0  0  0  0  0  0  0  0
   26.8221  -15.5404  -18.7706 C   0  0  0  0  0  0  0  0  0  0  0  0
   27.8605  -14.6894  -18.7050 N   0  0  0  0  0  0  0  0  0  0  0  0
   28.9990  -15.3223  -18.4500 C   0  0  0  0  0  0  0  0  0  0  0  0
   30.3064  -14.9093  -18.2902 C   0  0  0  0  0  0  0  0  0  0  0  0
   31.2911  -15.8301  -18.0259 C   0  0  0  0  0  0  0  0  0  0  0  0
   31.0018  -17.1654  -17.9159 C   0  0  0  0  0  0  0  0  0  0  0  0
   29.7011  -17.5991  -18.0722 C   0  0  0  0  0  0  0  0  0  0  0  0
   28.7185  -16.6643  -18.3377 C   0  0  0  0  0  0  0  0  0  0  0  0
   26.6833  -20.4142  -19.0740 C   0  0  0  0  0  0  0  0  0  0  0  0
   25.7015  -20.6961  -19.8015 O   0  0  0  0  0  0  0  0  0  0  0  0
   27.0557  -21.3886  -18.0859 N   0  0  0  0  0  0  0  0  0  0  0  0
   26.3548  -22.6507  -17.9775 C   0  0  1  0  0  0  0  0  0  0  0  0
   27.0823  -23.7260  -17.2699 C   0  0  0  0  0  0  0  0  0  0  0  0
   26.4382  -25.0226  -17.1509 C   0  0  0  0  0  0  0  0  0  0  0  0
   25.2537  -25.4799  -17.6339 C   0  0  0  0  0  0  0  0  0  0  0  0
   25.1143  -26.7884  -17.2691 N   0  0  0  0  0  0  0  0  0  0  0  0
   26.2071  -27.1191  -16.5713 C   0  0  0  0  0  0  0  0  0  0  0  0
   27.0276  -26.0669  -16.4841 N   0  0  0  0  0  0  0  0  0  0  0  0
   24.9761  -22.4246  -17.4142 C   0  0  0  0  0  0  0  0  0  0  0  0
   24.8237  -21.6485  -16.4447 O   0  0  0  0  0  0  0  0  0  0  0  0
   21.2267  -18.1227  -13.2260 O   0  0  0  0  0  0  0  0  0  0  0  0
   21.4624  -18.9289  -14.3509 C   0  0  0  0  0  0  0  0  0  0  0  0
   20.8080  -20.1308  -14.5169 C   0  0  0  0  0  0  0  0  0  0  0  0
   21.0407  -20.9286  -15.6293 C   0  0  0  0  0  0  0  0  0  0  0  0
   21.9353  -20.5500  -16.6112 C   0  0  0  0  0  0  0  0  0  0  0  0
   22.1965  -21.3832  -17.7968 C   0  0  0  0  0  0  0  0  0  0  0  0
   22.4840  -22.8226  -17.4933 C   0  0  2  0  0  0  0  0  0  0  0  0
   23.8537  -23.0727  -17.9618 N   0  0  0  0  0  0  0  0  0  0  0  0
   21.5325  -23.7741  -18.0734 C   0  0  0  0  0  0  0  0  0  0  0  0
   20.3234  -23.7363  -17.7783 O   0  0  0  0  0  0  0  0  0  0  0  0
   22.5871  -19.3454  -16.4387 C   0  0  0  0  0  0  0  0  0  0  0  0
   22.3571  -18.5441  -15.3270 C   0  0  0  0  0  0  0  0  0  0  0  0
   21.9566  -24.7444  -18.9696 O   0  0  0  0  0  0  0  0  0  0  0  0
  2  1  1  6
  2 13  1  0
  2  3  1  0
  3  4  1  0
  4  5  2  0
  6  5  1  0
  7  6  1  0
  8  7  2  0
  9  8  1  0
 10 11  1  0
 10  9  2  0
 11 12  2  0
 12  7  1  0
 12  4  1  0
 13 14  2  0
 15 16  1  0
 15 13  1  0
 16 17  1  1
 18 17  1  0
 19 18  2  0
 20 21  1  0
 20 19  1  0
 21 22  2  0
 22 18  1  0
 23 32  1  0
 23 16  1  0
 24 23  2  0
 25 26  1  0
 26 36  2  0
 26 27  1  0
 27 28  2  0
 28 29  1  0
 29 30  1  0
 31 30  1  6
 31 32  1  0
 33 31  1  0
 33 37  1  0
 34 33  2  0
 35 29  2  0
 36 35  1  0
M  END
$$$$
