WHY.pdb
     RDKit          3D

 37 40  0  0  1  0  0  0  0  0999 V2000
   15.3648  -10.8683  -12.4324 N   0  0  0  0  0  0  0  0  0  0  0  0
   15.0509   -9.5106  -12.0382 C   0  0  1  0  0  0  0  0  0  0  0  0
   15.2083   -9.4347  -10.5343 C   0  0  0  0  0  0  0  0  0  0  0  0
   13.9380   -9.7339   -9.8590 C   0  0  0  0  0  0  0  0  0  0  0  0
   13.2437  -10.9225   -9.9109 C   0  0  0  0  0  0  0  0  0  0  0  0
   12.1529  -10.7303   -9.1494 N   0  0  0  0  0  0  0  0  0  0  0  0
   12.1243   -9.5086   -8.6314 C   0  0  0  0  0  0  0  0  0  0  0  0
   11.2419   -8.8416   -7.8057 C   0  0  0  0  0  0  0  0  0  0  0  0
   11.4956   -7.5438   -7.4333 C   0  0  0  0  0  0  0  0  0  0  0  0
   12.6181   -6.8882   -7.8679 C   0  0  0  0  0  0  0  0  0  0  0  0
   13.5131   -7.5372   -8.6939 C   0  0  0  0  0  0  0  0  0  0  0  0
   13.2480   -8.8424   -9.0623 C   0  0  0  0  0  0  0  0  0  0  0  0
   15.9507   -8.5212  -12.6492 C   0  0  0  0  0  0  0  0  0  0  0  0
   17.1423   -8.8448  -12.8680 O   0  0  0  0  0  0  0  0  0  0  0  0
   15.5647   -7.1883  -13.0221 N   0  0  0  0  0  0  0  0  0  0  0  0
   16.5090   -6.2797  -13.6374 C   0  0  1  0  0  0  0  0  0  0  0  0
   15.9981   -5.5164  -14.7960 C   0  0  0  0  0  0  0  0  0  0  0  0
   15.6218   -6.2556  -15.9886 C   0  0  0  0  0  0  0  0  0  0  0  0
   15.6737   -7.5834  -16.2707 C   0  0  0  0  0  0  0  0  0  0  0  0
   15.1743   -7.7784  -17.5267 N   0  0  0  0  0  0  0  0  0  0  0  0
   14.8228   -6.5770  -17.9993 C   0  0  0  0  0  0  0  0  0  0  0  0
   15.0830   -5.6347  -17.0871 N   0  0  0  0  0  0  0  0  0  0  0  0
   17.1206   -5.3882  -12.5884 C   0  0  0  0  0  0  0  0  0  0  0  0
   18.0528   -4.6145  -12.9012 O   0  0  0  0  0  0  0  0  0  0  0  0
   17.8764    0.5593   -6.2911 O   0  0  0  0  0  0  0  0  0  0  0  0
   17.4908   -0.4095   -7.2310 C   0  0  0  0  0  0  0  0  0  0  0  0
   18.3033   -0.7327   -8.2968 C   0  0  0  0  0  0  0  0  0  0  0  0
   17.9224   -1.6908   -9.2268 C   0  0  0  0  0  0  0  0  0  0  0  0
   16.7169   -2.3566   -9.1208 C   0  0  0  0  0  0  0  0  0  0  0  0
   16.2951   -3.3742  -10.0978 C   0  0  0  0  0  0  0  0  0  0  0  0
   17.2192   -4.5491  -10.2090 C   0  0  2  0  0  0  0  0  0  0  0  0
   16.6596   -5.4105  -11.2593 N   0  0  0  0  0  0  0  0  0  0  0  0
   17.4278   -5.2864   -8.9599 C   0  0  0  0  0  0  0  0  0  0  0  0
   16.7930   -6.3290   -8.7141 O   0  0  0  0  0  0  0  0  0  0  0  0
   15.9082   -2.0282   -8.0513 C   0  0  0  0  0  0  0  0  0  0  0  0
   16.2856   -1.0699   -7.1185 C   0  0  0  0  0  0  0  0  0  0  0  0
   18.3413   -4.8394   -8.0164 O   0  0  0  0  0  0  0  0  0  0  0  0
  2  1  1  6
  2 13  1  0
  2  3  1  0
  3  4  1  0
  4  5  2  0
  6  5  1  0
  7  6  1  0
  8  7  2  0
  9  8  1  0
 10 11  1  0
 10  9  2  0
 11 12  2  0
 12  7  1  0
 12  4  1  0
 13 14  2  0
 15 16  1  0
 15 13  1  0
 16 17  1  6
 18 17  1  0
 19 18  2  0
 20 21  1  0
 20 19  1  0
 21 22  2  0
 22 18  1  0
 23 32  1  0
 23 16  1  0
 24 23  2  0
 25 26  1  0
 26 36  2  0
 26 27  1  0
 27 28  2  0
 28 29  1  0
 29 30  1  0
 31 30  1  1
 31 32  1  0
 33 31  1  0
 33 37  1  0
 34 33  2  0
 35 29  2  0
 36 35  1  0
M  END
$$$$
