WHY.pdb
     RDKit          3D

 37 40  0  0  1  0  0  0  0  0999 V2000
   38.2281  -22.0583  -24.3563 N   0  0  0  0  0  0  0  0  0  0  0  0
   37.2116  -23.0659  -24.5776 C   0  0  1  0  0  0  0  0  0  0  0  0
   36.5053  -22.7114  -25.8690 C   0  0  0  0  0  0  0  0  0  0  0  0
   35.5945  -21.5750  -25.6731 C   0  0  0  0  0  0  0  0  0  0  0  0
   35.9391  -20.2413  -25.6697 C   0  0  0  0  0  0  0  0  0  0  0  0
   34.7900  -19.5781  -25.4541 N   0  0  0  0  0  0  0  0  0  0  0  0
   33.7613  -20.4068  -25.3242 C   0  0  0  0  0  0  0  0  0  0  0  0
   32.4117  -20.2260  -25.0977 C   0  0  0  0  0  0  0  0  0  0  0  0
   31.5772  -21.3138  -25.0108 C   0  0  0  0  0  0  0  0  0  0  0  0
   32.0595  -22.5898  -25.1455 C   0  0  0  0  0  0  0  0  0  0  0  0
   33.4056  -22.7923  -25.3724 C   0  0  0  0  0  0  0  0  0  0  0  0
   34.2359  -21.6910  -25.4580 C   0  0  0  0  0  0  0  0  0  0  0  0
   37.7740  -24.4176  -24.7124 C   0  0  0  0  0  0  0  0  0  0  0  0
   38.9039  -24.5500  -25.2401 O   0  0  0  0  0  0  0  0  0  0  0  0
   37.1187  -25.6207  -24.2793 N   0  0  0  0  0  0  0  0  0  0  0  0
   37.7545  -26.9134  -24.4236 C   0  0  1  0  0  0  0  0  0  0  0  0
   38.0848  -27.6068  -23.1603 C   0  0  0  0  0  0  0  0  0  0  0  0
   39.1084  -27.0251  -22.3094 C   0  0  0  0  0  0  0  0  0  0  0  0
   39.0143  -26.2012  -21.2334 C   0  0  0  0  0  0  0  0  0  0  0  0
   40.2730  -25.9600  -20.7621 N   0  0  0  0  0  0  0  0  0  0  0  0
   41.1212  -26.6340  -21.5475 C   0  0  0  0  0  0  0  0  0  0  0  0
   40.4420  -27.2893  -22.4946 N   0  0  0  0  0  0  0  0  0  0  0  0
   36.9506  -27.7784  -25.3591 C   0  0  0  0  0  0  0  0  0  0  0  0
   35.7204  -27.5838  -25.4778 O   0  0  0  0  0  0  0  0  0  0  0  0
   33.1679  -31.4885  -32.0395 O   0  0  0  0  0  0  0  0  0  0  0  0
   33.9010  -30.8220  -31.0449 C   0  0  0  0  0  0  0  0  0  0  0  0
   35.2792  -30.7996  -31.0687 C   0  0  0  0  0  0  0  0  0  0  0  0
   36.0048  -30.1406  -30.0853 C   0  0  0  0  0  0  0  0  0  0  0  0
   35.3754  -29.4829  -29.0465 C   0  0  0  0  0  0  0  0  0  0  0  0
   36.1277  -28.7801  -27.9938 C   0  0  0  0  0  0  0  0  0  0  0  0
   36.8118  -29.6823  -27.0115 C   0  0  2  0  0  0  0  0  0  0  0  0
   37.5617  -28.8036  -26.1039 N   0  0  0  0  0  0  0  0  0  0  0  0
   37.6758  -30.7016  -27.6130 C   0  0  0  0  0  0  0  0  0  0  0  0
   38.9145  -30.5742  -27.6180 O   0  0  0  0  0  0  0  0  0  0  0  0
   33.9954  -29.5093  -29.0287 C   0  0  0  0  0  0  0  0  0  0  0  0
   33.2655  -30.1676  -30.0109 C   0  0  0  0  0  0  0  0  0  0  0  0
   37.1333  -31.8386  -28.1939 O   0  0  0  0  0  0  0  0  0  0  0  0
  2  1  1  6
  2 13  1  0
  2  3  1  0
  3  4  1  0
  4  5  2  0
  6  5  1  0
  7  6  1  0
  8  7  2  0
  9  8  1  0
 10 11  1  0
 10  9  2  0
 11 12  2  0
 12  7  1  0
 12  4  1  0
 13 14  2  0
 15 16  1  0
 15 13  1  0
 16 17  1  1
 18 17  1  0
 19 18  2  0
 20 21  1  0
 20 19  1  0
 21 22  2  0
 22 18  1  0
 23 32  1  0
 23 16  1  0
 24 23  2  0
 25 26  1  0
 26 36  2  0
 26 27  1  0
 27 28  2  0
 28 29  1  0
 29 30  1  0
 31 30  1  6
 31 32  1  0
 33 31  1  0
 33 37  1  0
 34 33  2  0
 35 29  2  0
 36 35  1  0
M  END
$$$$
