WHY.pdb
     RDKit          3D

 37 40  0  0  1  0  0  0  0  0999 V2000
   27.5493  -22.2976  -10.5504 N   0  0  0  0  0  0  0  0  0  0  0  0
   26.6834  -21.1985  -10.1771 C   0  0  1  0  0  0  0  0  0  0  0  0
   27.5732  -20.0103   -9.8793 C   0  0  0  0  0  0  0  0  0  0  0  0
   28.4995  -20.3123   -8.7794 C   0  0  0  0  0  0  0  0  0  0  0  0
   29.7496  -20.8795   -8.8947 C   0  0  0  0  0  0  0  0  0  0  0  0
   30.2183  -20.9648   -7.6378 N   0  0  0  0  0  0  0  0  0  0  0  0
   29.3473  -20.4910   -6.7554 C   0  0  0  0  0  0  0  0  0  0  0  0
   29.3551  -20.3596   -5.3813 C   0  0  0  0  0  0  0  0  0  0  0  0
   28.2715  -19.8145   -4.7364 C   0  0  0  0  0  0  0  0  0  0  0  0
   27.1696  -19.3930   -5.4342 C   0  0  0  0  0  0  0  0  0  0  0  0
   27.1416  -19.5154   -6.8085 C   0  0  0  0  0  0  0  0  0  0  0  0
   28.2371  -20.0651   -7.4469 C   0  0  0  0  0  0  0  0  0  0  0  0
   25.7511  -20.8225  -11.2500 C   0  0  0  0  0  0  0  0  0  0  0  0
   26.2193  -20.4683  -12.3582 O   0  0  0  0  0  0  0  0  0  0  0  0
   24.3196  -20.8290  -11.1262 N   0  0  0  0  0  0  0  0  0  0  0  0
   23.4747  -21.2467  -12.2252 C   0  0  1  0  0  0  0  0  0  0  0  0
   23.7481  -22.5965  -12.7630 C   0  0  0  0  0  0  0  0  0  0  0  0
   24.7332  -22.7228  -13.8232 C   0  0  0  0  0  0  0  0  0  0  0  0
   25.4255  -21.7819  -14.5166 C   0  0  0  0  0  0  0  0  0  0  0  0
   26.2568  -22.4166  -15.3946 N   0  0  0  0  0  0  0  0  0  0  0  0
   26.0681  -23.7313  -15.2321 C   0  0  0  0  0  0  0  0  0  0  0  0
   25.1492  -23.9460  -14.2849 N   0  0  0  0  0  0  0  0  0  0  0  0
   22.0259  -21.0584  -11.8582 C   0  0  0  0  0  0  0  0  0  0  0  0
   21.6656  -21.2013  -10.6686 O   0  0  0  0  0  0  0  0  0  0  0  0
   23.7408  -17.6871  -18.1052 O   0  0  0  0  0  0  0  0  0  0  0  0
   23.1734  -17.8577  -16.8325 C   0  0  0  0  0  0  0  0  0  0  0  0
   21.8603  -17.5184  -16.5854 C   0  0  0  0  0  0  0  0  0  0  0  0
   21.2986  -17.6868  -15.3268 C   0  0  0  0  0  0  0  0  0  0  0  0
   22.0320  -18.2001  -14.2750 C   0  0  0  0  0  0  0  0  0  0  0  0
   21.4544  -18.3844  -12.9332 C   0  0  0  0  0  0  0  0  0  0  0  0
   20.3792  -19.4260  -12.8575 C   0  0  2  0  0  0  0  0  0  0  0  0
   21.0685  -20.7231  -12.8331 N   0  0  0  0  0  0  0  0  0  0  0  0
   19.3861  -19.3622  -13.9331 C   0  0  0  0  0  0  0  0  0  0  0  0
   18.5082  -18.4792  -13.9472 O   0  0  0  0  0  0  0  0  0  0  0  0
   23.3461  -18.5377  -14.5292 C   0  0  0  0  0  0  0  0  0  0  0  0
   23.9121  -18.3707  -15.7872 C   0  0  0  0  0  0  0  0  0  0  0  0
   19.3993  -20.2874  -14.9667 O   0  0  0  0  0  0  0  0  0  0  0  0
  2  1  1  6
  2 13  1  0
  2  3  1  0
  3  4  1  0
  4  5  2  0
  6  5  1  0
  7  6  1  0
  8  7  2  0
  9  8  1  0
 10 11  1  0
 10  9  2  0
 11 12  2  0
 12  7  1  0
 12  4  1  0
 13 14  2  0
 15 16  1  0
 15 13  1  0
 16 17  1  1
 18 17  1  0
 19 18  2  0
 20 21  1  0
 20 19  1  0
 21 22  2  0
 22 18  1  0
 23 32  1  0
 23 16  1  0
 24 23  2  0
 25 26  1  0
 26 36  2  0
 26 27  1  0
 27 28  2  0
 28 29  1  0
 29 30  1  0
 31 30  1  6
 31 32  1  0
 33 31  1  0
 33 37  1  0
 34 33  2  0
 35 29  2  0
 36 35  1  0
M  END
$$$$
