WHY.pdb
     RDKit          3D

 37 40  0  0  1  0  0  0  0  0999 V2000
   35.8969  -30.2561  -19.2892 N   0  0  0  0  0  0  0  0  0  0  0  0
   35.1954  -31.2760  -20.0408 C   0  0  1  0  0  0  0  0  0  0  0  0
   35.3038  -32.5647  -19.2536 C   0  0  0  0  0  0  0  0  0  0  0  0
   36.2035  -33.5137  -19.9236 C   0  0  0  0  0  0  0  0  0  0  0  0
   37.5258  -33.3001  -20.2451 C   0  0  0  0  0  0  0  0  0  0  0  0
   37.9340  -34.4335  -20.8414 N   0  0  0  0  0  0  0  0  0  0  0  0
   36.9586  -35.3309  -20.9109 C   0  0  0  0  0  0  0  0  0  0  0  0
   36.8742  -36.6128  -21.4158 C   0  0  0  0  0  0  0  0  0  0  0  0
   35.6912  -37.3067  -21.3365 C   0  0  0  0  0  0  0  0  0  0  0  0
   34.5795  -36.7488  -20.7607 C   0  0  0  0  0  0  0  0  0  0  0  0
   34.6427  -35.4684  -20.2497 C   0  0  0  0  0  0  0  0  0  0  0  0
   35.8377  -34.7795  -20.3349 C   0  0  0  0  0  0  0  0  0  0  0  0
   33.7705  -30.9638  -20.2256 C   0  0  0  0  0  0  0  0  0  0  0  0
   33.2705  -30.0200  -19.5685 O   0  0  0  0  0  0  0  0  0  0  0  0
   32.8899  -31.6681  -21.1162 N   0  0  0  0  0  0  0  0  0  0  0  0
   31.4895  -31.3157  -21.2184 C   0  0  1  0  0  0  0  0  0  0  0  0
   30.8648  -31.5587  -22.5362 C   0  0  0  0  0  0  0  0  0  0  0  0
   31.1862  -30.6493  -23.6225 C   0  0  0  0  0  0  0  0  0  0  0  0
   31.8363  -29.4565  -23.6269 C   0  0  0  0  0  0  0  0  0  0  0  0
   31.9078  -29.0078  -24.9146 N   0  0  0  0  0  0  0  0  0  0  0  0
   31.3057  -29.9234  -25.6824 C   0  0  0  0  0  0  0  0  0  0  0  0
   30.8586  -30.9304  -24.9249 N   0  0  0  0  0  0  0  0  0  0  0  0
   30.7174  -31.9517  -20.0920 C   0  0  0  0  0  0  0  0  0  0  0  0
   31.1802  -32.9628  -19.5185 O   0  0  0  0  0  0  0  0  0  0  0  0
   27.0468  -34.1931  -12.7317 O   0  0  0  0  0  0  0  0  0  0  0  0
   27.6608  -33.6652  -13.8786 C   0  0  0  0  0  0  0  0  0  0  0  0
   28.2528  -34.4875  -14.8134 C   0  0  0  0  0  0  0  0  0  0  0  0
   28.8602  -33.9660  -15.9479 C   0  0  0  0  0  0  0  0  0  0  0  0
   28.8952  -32.6056  -16.1838 C   0  0  0  0  0  0  0  0  0  0  0  0
   29.5360  -32.0339  -17.3800 C   0  0  0  0  0  0  0  0  0  0  0  0
   28.6766  -32.0401  -18.6080 C   0  0  2  0  0  0  0  0  0  0  0  0
   29.4815  -31.4262  -19.6726 N   0  0  0  0  0  0  0  0  0  0  0  0
   27.3823  -31.3702  -18.4548 C   0  0  0  0  0  0  0  0  0  0  0  0
   26.4116  -31.9554  -17.9394 O   0  0  0  0  0  0  0  0  0  0  0  0
   28.3006  -31.7880  -15.2438 C   0  0  0  0  0  0  0  0  0  0  0  0
   27.6917  -32.3058  -14.1072 C   0  0  0  0  0  0  0  0  0  0  0  0
   27.2057  -30.0622  -18.8817 O   0  0  0  0  0  0  0  0  0  0  0  0
  2  1  1  1
  2 13  1  0
  2  3  1  0
  3  4  1  0
  4  5  2  0
  6  5  1  0
  7  6  1  0
  8  7  2  0
  9  8  1  0
 10 11  1  0
 10  9  2  0
 11 12  2  0
 12  7  1  0
 12  4  1  0
 13 14  2  0
 15 16  1  0
 15 13  1  0
 16 17  1  6
 18 17  1  0
 19 18  2  0
 20 21  1  0
 20 19  1  0
 21 22  2  0
 22 18  1  0
 23 32  1  0
 23 16  1  0
 24 23  2  0
 25 26  1  0
 26 36  2  0
 26 27  1  0
 27 28  2  0
 28 29  1  0
 29 30  1  0
 31 30  1  1
 31 32  1  0
 33 31  1  0
 33 37  1  0
 34 33  2  0
 35 29  2  0
 36 35  1  0
M  END
$$$$
