WHY.pdb
     RDKit          3D

 37 40  0  0  1  0  0  0  0  0999 V2000
   18.8694  -23.8987  -14.1599 N   0  0  0  0  0  0  0  0  0  0  0  0
   19.1649  -23.6036  -12.7732 C   0  0  1  0  0  0  0  0  0  0  0  0
   18.4521  -22.3128  -12.4298 C   0  0  0  0  0  0  0  0  0  0  0  0
   19.3967  -21.1880  -12.3879 C   0  0  0  0  0  0  0  0  0  0  0  0
   19.8075  -20.4242  -13.4581 C   0  0  0  0  0  0  0  0  0  0  0  0
   20.6655  -19.5258  -12.9448 N   0  0  0  0  0  0  0  0  0  0  0  0
   20.8135  -19.6804  -11.6349 C   0  0  0  0  0  0  0  0  0  0  0  0
   21.5603  -19.0284  -10.6743 C   0  0  0  0  0  0  0  0  0  0  0  0
   21.4991  -19.4340   -9.3632 C   0  0  0  0  0  0  0  0  0  0  0  0
   20.7042  -20.4836   -8.9822 C   0  0  0  0  0  0  0  0  0  0  0  0
   19.9496  -21.1489   -9.9270 C   0  0  0  0  0  0  0  0  0  0  0  0
   20.0187  -20.7326  -11.2429 C   0  0  0  0  0  0  0  0  0  0  0  0
   18.6919  -24.6524  -11.8578 C   0  0  0  0  0  0  0  0  0  0  0  0
   17.5629  -25.1610  -12.0564 O   0  0  0  0  0  0  0  0  0  0  0  0
   19.4351  -25.1494  -10.7330 N   0  0  0  0  0  0  0  0  0  0  0  0
   18.9089  -26.2070   -9.8959 C   0  0  1  0  0  0  0  0  0  0  0  0
   19.8176  -27.3503   -9.6654 C   0  0  0  0  0  0  0  0  0  0  0  0
   20.1590  -28.1910  -10.7998 C   0  0  0  0  0  0  0  0  0  0  0  0
   19.7194  -28.1796  -12.0851 C   0  0  0  0  0  0  0  0  0  0  0  0
   20.3715  -29.1621  -12.7738 N   0  0  0  0  0  0  0  0  0  0  0  0
   21.1994  -29.7620  -11.9106 C   0  0  0  0  0  0  0  0  0  0  0  0
   21.0915  -29.1930  -10.7055 N   0  0  0  0  0  0  0  0  0  0  0  0
   18.3790  -25.6275   -8.6103 C   0  0  0  0  0  0  0  0  0  0  0  0
   18.8212  -24.5325   -8.1970 O   0  0  0  0  0  0  0  0  0  0  0  0
   12.7783  -23.1237   -2.3561 O   0  0  0  0  0  0  0  0  0  0  0  0
   13.4696  -23.6119   -3.4762 C   0  0  0  0  0  0  0  0  0  0  0  0
   13.4207  -24.9463   -3.8189 C   0  0  0  0  0  0  0  0  0  0  0  0
   14.1042  -25.4297   -4.9267 C   0  0  0  0  0  0  0  0  0  0  0  0
   14.8585  -24.5942   -5.7272 C   0  0  0  0  0  0  0  0  0  0  0  0
   15.5914  -25.0887   -6.9047 C   0  0  0  0  0  0  0  0  0  0  0  0
   16.8779  -25.7890   -6.5865 C   0  0  2  0  0  0  0  0  0  0  0  0
   17.3922  -26.2984   -7.8649 N   0  0  0  0  0  0  0  0  0  0  0  0
   16.7659  -26.8541   -5.5864 C   0  0  0  0  0  0  0  0  0  0  0  0
   16.4789  -28.0198   -5.9168 O   0  0  0  0  0  0  0  0  0  0  0  0
   14.9031  -23.2594   -5.3784 C   0  0  0  0  0  0  0  0  0  0  0  0
   14.2206  -22.7715   -4.2707 C   0  0  0  0  0  0  0  0  0  0  0  0
   16.9778  -26.5892   -4.2412 O   0  0  0  0  0  0  0  0  0  0  0  0
  2  1  1  6
  2 13  1  0
  2  3  1  0
  3  4  1  0
  4  5  2  0
  6  5  1  0
  7  6  1  0
  8  7  2  0
  9  8  1  0
 10 11  1  0
 10  9  2  0
 11 12  2  0
 12  7  1  0
 12  4  1  0
 13 14  2  0
 15 16  1  0
 15 13  1  0
 16 17  1  1
 18 17  1  0
 19 18  2  0
 20 21  1  0
 20 19  1  0
 21 22  2  0
 22 18  1  0
 23 32  1  0
 23 16  1  0
 24 23  2  0
 25 26  1  0
 26 36  2  0
 26 27  1  0
 27 28  2  0
 28 29  1  0
 29 30  1  0
 31 30  1  6
 31 32  1  0
 33 31  1  0
 33 37  1  0
 34 33  2  0
 35 29  2  0
 36 35  1  0
M  END
$$$$
