WHY.pdb
     RDKit          3D

 37 40  0  0  1  0  0  0  0  0999 V2000
   23.3981  -18.5283  -21.7819 N   0  0  0  0  0  0  0  0  0  0  0  0
   22.7879  -18.0511  -20.5582 C   0  0  1  0  0  0  0  0  0  0  0  0
   21.4159  -17.5230  -20.9199 C   0  0  0  0  0  0  0  0  0  0  0  0
   21.5052  -16.1598  -21.4610 C   0  0  0  0  0  0  0  0  0  0  0  0
   21.7332  -15.8141  -22.7748 C   0  0  0  0  0  0  0  0  0  0  0  0
   21.7337  -14.4701  -22.7935 N   0  0  0  0  0  0  0  0  0  0  0  0
   21.5224  -13.9617  -21.5857 C   0  0  0  0  0  0  0  0  0  0  0  0
   21.4338  -12.6754  -21.0929 C   0  0  0  0  0  0  0  0  0  0  0  0
   21.2005  -12.4661  -19.7553 C   0  0  0  0  0  0  0  0  0  0  0  0
   21.0519  -13.5175  -18.8886 C   0  0  0  0  0  0  0  0  0  0  0  0
   21.1370  -14.8113  -19.3611 C   0  0  0  0  0  0  0  0  0  0  0  0
   21.3719  -15.0104  -20.7083 C   0  0  0  0  0  0  0  0  0  0  0  0
   22.6264  -19.1132  -19.5544 C   0  0  0  0  0  0  0  0  0  0  0  0
   22.4920  -20.2969  -19.9462 O   0  0  0  0  0  0  0  0  0  0  0  0
   22.6100  -18.8974  -18.1339 N   0  0  0  0  0  0  0  0  0  0  0  0
   22.4301  -19.9984  -17.2113 C   0  0  1  0  0  0  0  0  0  0  0  0
   23.5498  -20.2363  -16.2755 C   0  0  0  0  0  0  0  0  0  0  0  0
   24.7792  -20.7961  -16.8096 C   0  0  0  0  0  0  0  0  0  0  0  0
   25.1055  -21.2015  -18.0645 C   0  0  0  0  0  0  0  0  0  0  0  0
   26.4026  -21.6285  -18.0573 N   0  0  0  0  0  0  0  0  0  0  0  0
   26.8564  -21.4815  -16.8072 C   0  0  0  0  0  0  0  0  0  0  0  0
   25.8927  -20.9782  -16.0289 N   0  0  0  0  0  0  0  0  0  0  0  0
   21.1087  -19.8614  -16.5010 C   0  0  0  0  0  0  0  0  0  0  0  0
   20.8398  -18.8008  -15.8941 O   0  0  0  0  0  0  0  0  0  0  0  0
   12.4820  -21.5895  -15.0366 O   0  0  0  0  0  0  0  0  0  0  0  0
   13.8139  -21.5606  -15.4793 C   0  0  0  0  0  0  0  0  0  0  0  0
   14.7179  -22.5236  -15.0847 C   0  0  0  0  0  0  0  0  0  0  0  0
   16.0354  -22.4955  -15.5223 C   0  0  0  0  0  0  0  0  0  0  0  0
   16.4911  -21.5034  -16.3684 C   0  0  0  0  0  0  0  0  0  0  0  0
   17.8846  -21.4560  -16.8415 C   0  0  0  0  0  0  0  0  0  0  0  0
   18.8385  -20.7875  -15.8981 C   0  0  2  0  0  0  0  0  0  0  0  0
   20.1689  -20.9084  -16.5093 N   0  0  0  0  0  0  0  0  0  0  0  0
   18.8217  -21.3161  -14.5315 C   0  0  0  0  0  0  0  0  0  0  0  0
   18.0746  -20.8296  -13.6623 O   0  0  0  0  0  0  0  0  0  0  0  0
   15.5807  -20.5423  -16.7596 C   0  0  0  0  0  0  0  0  0  0  0  0
   14.2614  -20.5668  -16.3240 C   0  0  0  0  0  0  0  0  0  0  0  0
   19.6409  -22.3759  -14.1707 O   0  0  0  0  0  0  0  0  0  0  0  0
  2  1  1  6
  2 13  1  0
  2  3  1  0
  3  4  1  0
  4  5  2  0
  6  5  1  0
  7  6  1  0
  8  7  2  0
  9  8  1  0
 10 11  1  0
 10  9  2  0
 11 12  2  0
 12  7  1  0
 12  4  1  0
 13 14  2  0
 15 16  1  0
 15 13  1  0
 16 17  1  1
 18 17  1  0
 19 18  2  0
 20 21  1  0
 20 19  1  0
 21 22  2  0
 22 18  1  0
 23 32  1  0
 23 16  1  0
 24 23  2  0
 25 26  1  0
 26 36  2  0
 26 27  1  0
 27 28  2  0
 28 29  1  0
 29 30  1  0
 31 30  1  6
 31 32  1  0
 33 31  1  0
 33 37  1  0
 34 33  2  0
 35 29  2  0
 36 35  1  0
M  END
$$$$
