WHY.pdb
     RDKit          3D

 37 40  0  0  1  0  0  0  0  0999 V2000
   19.2132  -30.3581  -10.4156 N   0  0  0  0  0  0  0  0  0  0  0  0
   20.6217  -30.1091  -10.6424 C   0  0  1  0  0  0  0  0  0  0  0  0
   20.9381  -28.7556  -10.0422 C   0  0  0  0  0  0  0  0  0  0  0  0
   20.2264  -27.6867  -10.7563 C   0  0  0  0  0  0  0  0  0  0  0  0
   19.2398  -26.8748  -10.2415 C   0  0  0  0  0  0  0  0  0  0  0  0
   18.8890  -26.0587  -11.2503 N   0  0  0  0  0  0  0  0  0  0  0  0
   19.5882  -26.3088  -12.3504 C   0  0  0  0  0  0  0  0  0  0  0  0
   19.6024  -25.7625  -13.6180 C   0  0  0  0  0  0  0  0  0  0  0  0
   20.4658  -26.2518  -14.5680 C   0  0  0  0  0  0  0  0  0  0  0  0
   21.3236  -27.2821  -14.2829 C   0  0  0  0  0  0  0  0  0  0  0  0
   21.3253  -27.8422  -13.0216 C   0  0  0  0  0  0  0  0  0  0  0  0
   20.4528  -27.3423  -12.0737 C   0  0  0  0  0  0  0  0  0  0  0  0
   21.4845  -31.1133  -10.0029 C   0  0  0  0  0  0  0  0  0  0  0  0
   21.0528  -31.7257   -8.9973 O   0  0  0  0  0  0  0  0  0  0  0  0
   22.8076  -31.4541  -10.4477 N   0  0  0  0  0  0  0  0  0  0  0  0
   23.5647  -32.5086   -9.8068 C   0  0  1  0  0  0  0  0  0  0  0  0
   24.7185  -33.0233  -10.5748 C   0  0  0  0  0  0  0  0  0  0  0  0
   25.5715  -34.0153   -9.9435 C   0  0  0  0  0  0  0  0  0  0  0  0
   26.8147  -33.9129   -9.4058 C   0  0  0  0  0  0  0  0  0  0  0  0
   27.1728  -35.1334   -8.9090 N   0  0  0  0  0  0  0  0  0  0  0  0
   26.1528  -35.9668   -9.1446 C   0  0  0  0  0  0  0  0  0  0  0  0
   25.1675  -35.3151   -9.7709 N   0  0  0  0  0  0  0  0  0  0  0  0
   23.9462  -32.0898   -8.4109 C   0  0  0  0  0  0  0  0  0  0  0  0
   24.1711  -30.8835   -8.1667 O   0  0  0  0  0  0  0  0  0  0  0  0
   18.8552  -35.2990   -3.6301 O   0  0  0  0  0  0  0  0  0  0  0  0
   19.8801  -34.4659   -4.1060 C   0  0  0  0  0  0  0  0  0  0  0  0
   19.7421  -33.7687   -5.2872 C   0  0  0  0  0  0  0  0  0  0  0  0
   20.7554  -32.9446   -5.7583 C   0  0  0  0  0  0  0  0  0  0  0  0
   21.9392  -32.7913   -5.0633 C   0  0  0  0  0  0  0  0  0  0  0  0
   23.0255  -31.9233   -5.5477 C   0  0  0  0  0  0  0  0  0  0  0  0
   24.2634  -32.6550   -5.9706 C   0  0  2  0  0  0  0  0  0  0  0  0
   24.0536  -33.0349   -7.3741 N   0  0  0  0  0  0  0  0  0  0  0  0
   24.6040  -33.8148   -5.1422 C   0  0  0  0  0  0  0  0  0  0  0  0
   24.8756  -33.6854   -3.9339 O   0  0  0  0  0  0  0  0  0  0  0  0
   22.0707  -33.4922   -3.8814 C   0  0  0  0  0  0  0  0  0  0  0  0
   21.0591  -34.3180   -3.4064 C   0  0  0  0  0  0  0  0  0  0  0  0
   24.6324  -35.0909   -5.6856 O   0  0  0  0  0  0  0  0  0  0  0  0
  2  1  1  1
  2 13  1  0
  2  3  1  0
  3  4  1  0
  4  5  2  0
  6  5  1  0
  7  6  1  0
  8  7  2  0
  9  8  1  0
 10 11  1  0
 10  9  2  0
 11 12  2  0
 12  7  1  0
 12  4  1  0
 13 14  2  0
 15 16  1  0
 15 13  1  0
 16 17  1  6
 18 17  1  0
 19 18  2  0
 20 21  1  0
 20 19  1  0
 21 22  2  0
 22 18  1  0
 23 32  1  0
 23 16  1  0
 24 23  2  0
 25 26  1  0
 26 36  2  0
 26 27  1  0
 27 28  2  0
 28 29  1  0
 29 30  1  0
 31 30  1  1
 31 32  1  0
 33 31  1  0
 33 37  1  0
 34 33  2  0
 35 29  2  0
 36 35  1  0
M  END
$$$$
