WHY.pdb
     RDKit          3D

 37 40  0  0  1  0  0  0  0  0999 V2000
   27.0004  -21.2362  -14.6425 N   0  0  0  0  0  0  0  0  0  0  0  0
   25.7457  -21.0781  -13.9367 C   0  0  1  0  0  0  0  0  0  0  0  0
   25.9503  -19.9940  -12.8999 C   0  0  0  0  0  0  0  0  0  0  0  0
   26.9914  -20.3795  -11.9373 C   0  0  0  0  0  0  0  0  0  0  0  0
   28.3458  -20.4459  -12.1797 C   0  0  0  0  0  0  0  0  0  0  0  0
   28.8954  -20.8418  -11.0187 N   0  0  0  0  0  0  0  0  0  0  0  0
   27.9775  -21.0245  -10.0775 C   0  0  0  0  0  0  0  0  0  0  0  0
   28.0301  -21.4171   -8.7552 C   0  0  0  0  0  0  0  0  0  0  0  0
   26.8735  -21.5150   -8.0204 C   0  0  0  0  0  0  0  0  0  0  0  0
   25.6539  -21.2285   -8.5766 C   0  0  0  0  0  0  0  0  0  0  0  0
   25.5794  -20.8341   -9.8969 C   0  0  0  0  0  0  0  0  0  0  0  0
   26.7490  -20.7390  -10.6268 C   0  0  0  0  0  0  0  0  0  0  0  0
   24.6451  -20.6710  -14.8226 C   0  0  0  0  0  0  0  0  0  0  0  0
   24.7772  -19.6289  -15.5076 O   0  0  0  0  0  0  0  0  0  0  0  0
   23.4075  -21.3864  -14.9676 N   0  0  0  0  0  0  0  0  0  0  0  0
   22.4131  -20.9740  -15.9356 C   0  0  1  0  0  0  0  0  0  0  0  0
   22.3620  -21.7735  -17.1783 C   0  0  0  0  0  0  0  0  0  0  0  0
   23.5574  -21.8333  -18.0016 C   0  0  0  0  0  0  0  0  0  0  0  0
   24.7799  -21.2620  -17.8451 C   0  0  0  0  0  0  0  0  0  0  0  0
   25.5750  -21.6504  -18.8852 N   0  0  0  0  0  0  0  0  0  0  0  0
   24.8379  -22.4510  -19.6638 C   0  0  0  0  0  0  0  0  0  0  0  0
   23.6096  -22.5797  -19.1516 N   0  0  0  0  0  0  0  0  0  0  0  0
   21.0661  -20.8616  -15.2706 C   0  0  0  0  0  0  0  0  0  0  0  0
   20.7764  -21.6298  -14.3264 O   0  0  0  0  0  0  0  0  0  0  0  0
   21.4828  -19.2882   -9.2298 O   0  0  0  0  0  0  0  0  0  0  0  0
   20.8286  -19.1086  -10.4589 C   0  0  0  0  0  0  0  0  0  0  0  0
   19.5288  -19.5292  -10.6433 C   0  0  0  0  0  0  0  0  0  0  0  0
   18.8812  -19.3519  -11.8587 C   0  0  0  0  0  0  0  0  0  0  0  0
   19.5127  -18.7483  -12.9286 C   0  0  0  0  0  0  0  0  0  0  0  0
   18.8431  -18.5531  -14.2254 C   0  0  0  0  0  0  0  0  0  0  0  0
   18.7932  -19.7771  -15.0891 C   0  0  2  0  0  0  0  0  0  0  0  0
   20.1259  -19.9043  -15.6940 N   0  0  0  0  0  0  0  0  0  0  0  0
   17.7374  -19.7685  -16.1052 C   0  0  0  0  0  0  0  0  0  0  0  0
   18.0125  -19.7814  -17.3196 O   0  0  0  0  0  0  0  0  0  0  0  0
   20.8141  -18.3297  -12.7371 C   0  0  0  0  0  0  0  0  0  0  0  0
   21.4658  -18.5052  -11.5225 C   0  0  0  0  0  0  0  0  0  0  0  0
   16.3997  -19.7460  -15.7382 O   0  0  0  0  0  0  0  0  0  0  0  0
  2  1  1  6
  2 13  1  0
  2  3  1  0
  3  4  1  0
  4  5  2  0
  6  5  1  0
  7  6  1  0
  8  7  2  0
  9  8  1  0
 10 11  1  0
 10  9  2  0
 11 12  2  0
 12  7  1  0
 12  4  1  0
 13 14  2  0
 15 16  1  0
 15 13  1  0
 16 17  1  6
 18 17  1  0
 19 18  2  0
 20 21  1  0
 20 19  1  0
 21 22  2  0
 22 18  1  0
 23 32  1  0
 23 16  1  0
 24 23  2  0
 25 26  1  0
 26 36  2  0
 26 27  1  0
 27 28  2  0
 28 29  1  0
 29 30  1  0
 31 30  1  6
 31 32  1  0
 33 31  1  0
 33 37  1  0
 34 33  2  0
 35 29  2  0
 36 35  1  0
M  END
$$$$
