NSR.pdb
     RDKit          3D

 26 25  0  0  1  0  0  0  0  0999 V2000
   26.1526  -32.5451  -15.6580 N   0  0  0  0  0  0  0  0  0  0  0  0
   26.0511  -33.9435  -15.5152 C   0  0  0  0  0  0  0  0  0  0  0  0
   25.9308  -34.6667  -16.5472 O   0  0  0  0  0  0  0  0  0  0  0  0
   26.0748  -34.6626  -14.2077 C   0  0  0  0  0  0  0  0  0  0  0  0
   26.5293  -33.7503  -13.1030 C   0  0  2  0  0  0  0  0  0  0  0  0
   27.9019  -33.3635  -13.3048 N   0  0  0  0  0  0  0  0  0  0  0  0
   26.3173  -34.4073  -11.7924 C   0  0  0  0  0  0  0  0  0  0  0  0
   25.1592  -34.8063  -11.5137 O   0  0  0  0  0  0  0  0  0  0  0  0
   28.1185  -36.4518   -7.7678 O   0  0  0  0  0  0  0  0  0  0  0  0
   28.3188  -35.9051   -9.0508 C   0  0  0  0  0  0  0  0  0  0  0  0
   27.0896  -35.2053   -9.5283 C   0  0  2  0  0  0  0  0  0  0  0  0
   27.3390  -34.6161  -10.8283 N   0  0  0  0  0  0  0  0  0  0  0  0
   26.5843  -34.2000   -8.5589 C   0  0  0  0  0  0  0  0  0  0  0  0
   27.1841  -33.0985   -8.4676 O   0  0  0  0  0  0  0  0  0  0  0  0
   22.2789  -33.7316   -2.5227 N   0  0  0  0  0  0  0  0  0  0  0  0
   21.1554  -32.9183   -2.8380 C   0  0  0  0  0  0  0  0  0  0  0  0
   20.5117  -32.2611   -1.9360 N   0  0  0  0  0  0  0  0  0  0  0  0
   20.7640  -32.8582   -4.2120 N   0  0  0  0  0  0  0  0  0  0  0  0
   21.4605  -33.6142   -5.2036 C   0  0  0  0  0  0  0  0  0  0  0  0
   22.9021  -33.1035   -5.3594 C   0  0  0  0  0  0  0  0  0  0  0  0
   23.5750  -33.9422   -6.4000 C   0  0  0  0  0  0  0  0  0  0  0  0
   24.9888  -33.5060   -6.7153 C   0  0  2  0  0  0  0  0  0  0  0  0
   25.4642  -34.4274   -7.7396 N   0  0  0  0  0  0  0  0  0  0  0  0
   25.8794  -33.5495   -5.5289 C   0  0  0  0  0  0  0  0  0  0  0  0
   25.9141  -32.5732   -4.7118 O   0  0  0  0  0  0  0  0  0  0  0  0
   26.7110  -34.6130   -5.2262 O   0  0  0  0  0  0  0  0  0  0  0  0
  1  2  1  0
  2  3  2  0
  4  5  1  0
  4  2  1  0
  5  6  1  6
  7  5  1  0
  8  7  2  0
  9 10  1  0
 11 10  1  1
 11 13  1  0
 11 12  1  0
 12  7  1  0
 13 14  2  0
 16 15  1  0
 16 17  2  0
 18 16  1  0
 19 18  1  0
 20 19  1  0
 21 20  1  0
 22 21  1  1
 23 22  1  0
 23 13  1  0
 24 22  1  0
 24 26  1  0
 25 24  2  0
M  END
$$$$
