NSR.pdb
     RDKit          3D

 26 25  0  0  1  0  0  0  0  0999 V2000
   26.8892  -13.5810  -17.3725 N   0  0  0  0  0  0  0  0  0  0  0  0
   26.7700  -14.3686  -16.2098 C   0  0  0  0  0  0  0  0  0  0  0  0
   27.0106  -13.8501  -15.0804 O   0  0  0  0  0  0  0  0  0  0  0  0
   26.3712  -15.8067  -16.2014 C   0  0  0  0  0  0  0  0  0  0  0  0
   26.2502  -16.3370  -17.6026 C   0  0  2  0  0  0  0  0  0  0  0  0
   25.1268  -15.7334  -18.2720 N   0  0  0  0  0  0  0  0  0  0  0  0
   26.1584  -17.8151  -17.5720 C   0  0  0  0  0  0  0  0  0  0  0  0
   25.1119  -18.3310  -17.1067 O   0  0  0  0  0  0  0  0  0  0  0  0
   28.1130  -22.1624  -18.6714 O   0  0  0  0  0  0  0  0  0  0  0  0
   28.1581  -20.7577  -18.7702 C   0  0  0  0  0  0  0  0  0  0  0  0
   27.0798  -20.1321  -17.9490 C   0  0  2  0  0  0  0  0  0  0  0  0
   27.1778  -18.6890  -18.0349 N   0  0  0  0  0  0  0  0  0  0  0  0
   27.0839  -20.5986  -16.5390 C   0  0  0  0  0  0  0  0  0  0  0  0
   27.8824  -20.0606  -15.7301 O   0  0  0  0  0  0  0  0  0  0  0  0
   23.4357  -20.7795   -9.9264 N   0  0  0  0  0  0  0  0  0  0  0  0
   24.7187  -20.7066   -9.3166 C   0  0  0  0  0  0  0  0  0  0  0  0
   24.8982  -20.9651   -8.0673 N   0  0  0  0  0  0  0  0  0  0  0  0
   25.8143  -20.3305  -10.1549 N   0  0  0  0  0  0  0  0  0  0  0  0
   25.6190  -20.0939  -11.5499 C   0  0  0  0  0  0  0  0  0  0  0  0
   25.8745  -21.3771  -12.3570 C   0  0  0  0  0  0  0  0  0  0  0  0
   25.9725  -20.9977  -13.8012 C   0  0  0  0  0  0  0  0  0  0  0  0
   26.2652  -22.1631  -14.7202 C   0  0  2  0  0  0  0  0  0  0  0  0
   26.2329  -21.6155  -16.0704 N   0  0  0  0  0  0  0  0  0  0  0  0
   25.2760  -23.2612  -14.5851 C   0  0  0  0  0  0  0  0  0  0  0  0
   24.2639  -23.3166  -15.3562 O   0  0  0  0  0  0  0  0  0  0  0  0
   25.3701  -24.2744  -13.6477 O   0  0  0  0  0  0  0  0  0  0  0  0
  1  2  1  0
  2  3  2  0
  4  5  1  0
  4  2  1  0
  5  6  1  1
  7  5  1  0
  8  7  2  0
  9 10  1  0
 11 10  1  6
 11 13  1  0
 11 12  1  0
 12  7  1  0
 13 14  2  0
 16 15  1  0
 16 17  2  0
 18 16  1  0
 19 18  1  0
 20 19  1  0
 21 20  1  0
 22 21  1  1
 23 22  1  0
 23 13  1  0
 24 22  1  0
 24 26  1  0
 25 24  2  0
M  END
$$$$
