NSR.pdb
     RDKit          3D

 26 25  0  0  1  0  0  0  0  0999 V2000
   23.2258  -14.8258  -21.2833 N   0  0  0  0  0  0  0  0  0  0  0  0
   24.3361  -15.5042  -20.7419 C   0  0  0  0  0  0  0  0  0  0  0  0
   25.3880  -15.6274  -21.4352 O   0  0  0  0  0  0  0  0  0  0  0  0
   24.3740  -16.1070  -19.3772 C   0  0  0  0  0  0  0  0  0  0  0  0
   23.0162  -16.0618  -18.7340 C   0  0  2  0  0  0  0  0  0  0  0  0
   22.6237  -14.6983  -18.4864 N   0  0  0  0  0  0  0  0  0  0  0  0
   23.0205  -16.8787  -17.4984 C   0  0  0  0  0  0  0  0  0  0  0  0
   23.4286  -16.3420  -16.4385 O   0  0  0  0  0  0  0  0  0  0  0  0
   21.9297  -21.0558  -17.2250 O   0  0  0  0  0  0  0  0  0  0  0  0
   21.5385  -20.0700  -16.2976 C   0  0  0  0  0  0  0  0  0  0  0  0
   22.5676  -18.9930  -16.2005 C   0  0  2  0  0  0  0  0  0  0  0  0
   22.5929  -18.2315  -17.4330 N   0  0  0  0  0  0  0  0  0  0  0  0
   23.9142  -19.5113  -15.8489 C   0  0  0  0  0  0  0  0  0  0  0  0
   24.7713  -19.6263  -16.7620 O   0  0  0  0  0  0  0  0  0  0  0  0
   25.7069  -20.6148   -7.8980 N   0  0  0  0  0  0  0  0  0  0  0  0
   24.7634  -21.0935   -8.8488 C   0  0  0  0  0  0  0  0  0  0  0  0
   23.5724  -21.4500   -8.5110 N   0  0  0  0  0  0  0  0  0  0  0  0
   25.1944  -21.1643  -10.2103 N   0  0  0  0  0  0  0  0  0  0  0  0
   26.5847  -21.2001  -10.5355 C   0  0  0  0  0  0  0  0  0  0  0  0
   26.7874  -21.0971  -12.0559 C   0  0  0  0  0  0  0  0  0  0  0  0
   25.5229  -20.5626  -12.6512 C   0  0  0  0  0  0  0  0  0  0  0  0
   25.5750  -20.4045  -14.1548 C   0  0  2  0  0  0  0  0  0  0  0  0
   24.2713  -19.8784  -14.5392 N   0  0  0  0  0  0  0  0  0  0  0  0
   25.8418  -21.6849  -14.8562 C   0  0  0  0  0  0  0  0  0  0  0  0
   24.8818  -22.4595  -15.1728 O   0  0  0  0  0  0  0  0  0  0  0  0
   27.1056  -22.1230  -15.2096 O   0  0  0  0  0  0  0  0  0  0  0  0
  1  2  1  0
  2  3  2  0
  4  5  1  0
  4  2  1  0
  5  6  1  1
  7  5  1  0
  8  7  2  0
  9 10  1  0
 11 10  1  6
 11 13  1  0
 11 12  1  0
 12  7  1  0
 13 14  2  0
 16 15  1  0
 16 17  2  0
 18 16  1  0
 19 18  1  0
 20 19  1  0
 21 20  1  0
 22 21  1  1
 23 22  1  0
 23 13  1  0
 24 22  1  0
 24 26  1  0
 25 24  2  0
M  END
$$$$
