NSR.pdb
     RDKit          3D

 26 25  0  0  1  0  0  0  0  0999 V2000
   23.0097  -12.5199  -18.3846 N   0  0  0  0  0  0  0  0  0  0  0  0
   23.3979  -11.1938  -18.1070 C   0  0  0  0  0  0  0  0  0  0  0  0
   24.5266  -10.7804  -18.5039 O   0  0  0  0  0  0  0  0  0  0  0  0
   22.5618  -10.2078  -17.3613 C   0  0  0  0  0  0  0  0  0  0  0  0
   23.3809   -9.4819  -16.3310 C   0  0  2  0  0  0  0  0  0  0  0  0
   23.9096  -10.4106  -15.3654 N   0  0  0  0  0  0  0  0  0  0  0  0
   22.5640   -8.4194  -15.7002 C   0  0  0  0  0  0  0  0  0  0  0  0
   21.4668   -8.7478  -15.1842 O   0  0  0  0  0  0  0  0  0  0  0  0
   22.3286   -3.9604  -13.7920 O   0  0  0  0  0  0  0  0  0  0  0  0
   23.0529   -4.9312  -14.5118 C   0  0  0  0  0  0  0  0  0  0  0  0
   22.1611   -6.0476  -14.9440 C   0  0  2  0  0  0  0  0  0  0  0  0
   22.9403   -7.0512  -15.6405 N   0  0  0  0  0  0  0  0  0  0  0  0
   21.0100   -5.5841  -15.7599 C   0  0  0  0  0  0  0  0  0  0  0  0
   21.1907   -5.3656  -16.9851 O   0  0  0  0  0  0  0  0  0  0  0  0
   12.7408   -7.7210  -14.8193 N   0  0  0  0  0  0  0  0  0  0  0  0
   12.6058   -6.7946  -15.8902 C   0  0  0  0  0  0  0  0  0  0  0  0
   11.4880   -6.6189  -16.5061 N   0  0  0  0  0  0  0  0  0  0  0  0
   13.7737   -6.0575  -16.2604 N   0  0  0  0  0  0  0  0  0  0  0  0
   15.0225   -6.2914  -15.6079 C   0  0  0  0  0  0  0  0  0  0  0  0
   16.1165   -5.3829  -16.1920 C   0  0  0  0  0  0  0  0  0  0  0  0
   17.4143   -5.7569  -15.5480 C   0  0  0  0  0  0  0  0  0  0  0  0
   18.5803   -4.8945  -15.9783 C   0  0  2  0  0  0  0  0  0  0  0  0
   19.7273   -5.3795  -15.2209 N   0  0  0  0  0  0  0  0  0  0  0  0
   18.3563   -3.4525  -15.7081 C   0  0  0  0  0  0  0  0  0  0  0  0
   18.7715   -2.9266  -14.6250 O   0  0  0  0  0  0  0  0  0  0  0  0
   17.7043   -2.5962  -16.5775 O   0  0  0  0  0  0  0  0  0  0  0  0
  1  2  1  0
  2  3  2  0
  4  5  1  0
  4  2  1  0
  5  6  1  1
  7  5  1  0
  8  7  2  0
  9 10  1  0
 11 10  1  6
 11 13  1  0
 11 12  1  0
 12  7  1  0
 13 14  2  0
 16 15  1  0
 16 17  2  0
 18 16  1  0
 19 18  1  0
 20 19  1  0
 21 20  1  0
 22 21  1  1
 23 22  1  0
 23 13  1  0
 24 22  1  0
 24 26  1  0
 25 24  2  0
M  END
$$$$
