NSR.pdb
     RDKit          3D

 26 25  0  0  1  0  0  0  0  0999 V2000
   15.1301  -13.0028  -15.5507 N   0  0  0  0  0  0  0  0  0  0  0  0
   16.3961  -13.3072  -15.0112 C   0  0  0  0  0  0  0  0  0  0  0  0
   16.7863  -14.5110  -14.9822 O   0  0  0  0  0  0  0  0  0  0  0  0
   17.3422  -12.2958  -14.4551 C   0  0  0  0  0  0  0  0  0  0  0  0
   16.7482  -10.9164  -14.5162 C   0  0  2  0  0  0  0  0  0  0  0  0
   16.8955  -10.3652  -15.8387 N   0  0  0  0  0  0  0  0  0  0  0  0
   17.3659  -10.0593  -13.4780 C   0  0  0  0  0  0  0  0  0  0  0  0
   17.2278  -10.3973  -12.2760 O   0  0  0  0  0  0  0  0  0  0  0  0
   18.8647   -6.2229  -14.3226 O   0  0  0  0  0  0  0  0  0  0  0  0
   19.4903   -6.9652  -13.3015 C   0  0  0  0  0  0  0  0  0  0  0  0
   18.5483   -7.9655  -12.7179 C   0  0  2  0  0  0  0  0  0  0  0  0
   18.1051   -8.8780  -13.7525 N   0  0  0  0  0  0  0  0  0  0  0  0
   17.4018   -7.3366  -12.0140 C   0  0  0  0  0  0  0  0  0  0  0  0
   16.2988   -7.2576  -12.6128 O   0  0  0  0  0  0  0  0  0  0  0  0
   11.4986   -9.9045   -7.6527 N   0  0  0  0  0  0  0  0  0  0  0  0
   11.1197   -8.5340   -7.6120 C   0  0  0  0  0  0  0  0  0  0  0  0
    9.9334   -8.1618   -7.2745 N   0  0  0  0  0  0  0  0  0  0  0  0
   12.1195   -7.5745   -7.9645 N   0  0  0  0  0  0  0  0  0  0  0  0
   13.2526   -7.9541   -8.7469 C   0  0  0  0  0  0  0  0  0  0  0  0
   14.2286   -6.7754   -8.8927 C   0  0  0  0  0  0  0  0  0  0  0  0
   15.4030   -7.2492   -9.6898 C   0  0  0  0  0  0  0  0  0  0  0  0
   16.4104   -6.1634   -9.9973 C   0  0  2  0  0  0  0  0  0  0  0  0
   17.4971   -6.8264  -10.7070 N   0  0  0  0  0  0  0  0  0  0  0  0
   16.9238   -5.4960   -8.7752 C   0  0  0  0  0  0  0  0  0  0  0  0
   18.0466   -5.8343   -8.2784 O   0  0  0  0  0  0  0  0  0  0  0  0
   16.2507   -4.4910   -8.1036 O   0  0  0  0  0  0  0  0  0  0  0  0
  1  2  1  0
  2  3  2  0
  4  5  1  0
  4  2  1  0
  5  6  1  6
  7  5  1  0
  8  7  2  0
  9 10  1  0
 11 10  1  6
 11 13  1  0
 11 12  1  0
 12  7  1  0
 13 14  2  0
 16 15  1  0
 16 17  2  0
 18 16  1  0
 19 18  1  0
 20 19  1  0
 21 20  1  0
 22 21  1  1
 23 22  1  0
 23 13  1  0
 24 22  1  0
 24 26  1  0
 25 24  2  0
M  END
$$$$
