NSR.pdb
     RDKit          3D

 26 25  0  0  1  0  0  0  0  0999 V2000
   28.5624  -19.3280  -18.3512 N   0  0  0  0  0  0  0  0  0  0  0  0
   27.9936  -18.0898  -17.9911 C   0  0  0  0  0  0  0  0  0  0  0  0
   28.7029  -17.0424  -18.0390 O   0  0  0  0  0  0  0  0  0  0  0  0
   26.5811  -17.9073  -17.5450 C   0  0  0  0  0  0  0  0  0  0  0  0
   25.8486  -19.2198  -17.5365 C   0  0  2  0  0  0  0  0  0  0  0  0
   25.5903  -19.6588  -18.8837 N   0  0  0  0  0  0  0  0  0  0  0  0
   24.6070  -19.0946  -16.7383 C   0  0  0  0  0  0  0  0  0  0  0  0
   24.7143  -18.7785  -15.5273 O   0  0  0  0  0  0  0  0  0  0  0  0
   20.9888  -20.7505  -17.8666 O   0  0  0  0  0  0  0  0  0  0  0  0
   20.9020  -19.4705  -17.2843 C   0  0  0  0  0  0  0  0  0  0  0  0
   22.1039  -19.1853  -16.4459 C   0  0  2  0  0  0  0  0  0  0  0  0
   23.3008  -19.3089  -17.2530 N   0  0  0  0  0  0  0  0  0  0  0  0
   22.1734  -20.0339  -15.2291 C   0  0  0  0  0  0  0  0  0  0  0  0
   23.1228  -20.8513  -15.1197 O   0  0  0  0  0  0  0  0  0  0  0  0
   26.4053  -21.1522   -9.0925 N   0  0  0  0  0  0  0  0  0  0  0  0
   26.3819  -21.1122  -10.5142 C   0  0  0  0  0  0  0  0  0  0  0  0
   27.3716  -21.5276  -11.2268 N   0  0  0  0  0  0  0  0  0  0  0  0
   25.2025  -20.5866  -11.1283 N   0  0  0  0  0  0  0  0  0  0  0  0
   24.0852  -20.1811  -10.3363 C   0  0  0  0  0  0  0  0  0  0  0  0
   22.7820  -20.7748  -10.8953 C   0  0  0  0  0  0  0  0  0  0  0  0
   22.5603  -20.1927  -12.2558 C   0  0  0  0  0  0  0  0  0  0  0  0
   21.3100  -20.6992  -12.9404 C   0  0  2  0  0  0  0  0  0  0  0  0
   21.2236  -19.9618  -14.1946 N   0  0  0  0  0  0  0  0  0  0  0  0
   20.0859  -20.4833  -12.1296 C   0  0  0  0  0  0  0  0  0  0  0  0
   19.3489  -19.4646  -12.3322 O   0  0  0  0  0  0  0  0  0  0  0  0
   19.6626  -21.3383  -11.1277 O   0  0  0  0  0  0  0  0  0  0  0  0
  1  2  1  0
  2  3  2  0
  4  5  1  0
  4  2  1  0
  5  6  1  6
  7  5  1  0
  8  7  2  0
  9 10  1  0
 11 10  1  6
 11 13  1  0
 11 12  1  0
 12  7  1  0
 13 14  2  0
 16 15  1  0
 16 17  2  0
 18 16  1  0
 19 18  1  0
 20 19  1  0
 21 20  1  0
 22 21  1  1
 23 22  1  0
 23 13  1  0
 24 22  1  0
 24 26  1  0
 25 24  2  0
M  END
$$$$
