NSR.pdb
     RDKit          3D

 26 25  0  0  1  0  0  0  0  0999 V2000
   21.7714   -6.6577  -14.7342 N   0  0  0  0  0  0  0  0  0  0  0  0
   21.5890   -7.9907  -14.3146 C   0  0  0  0  0  0  0  0  0  0  0  0
   21.0056   -8.2222  -13.2153 O   0  0  0  0  0  0  0  0  0  0  0  0
   22.0410   -9.1873  -15.0836 C   0  0  0  0  0  0  0  0  0  0  0  0
   22.7259   -8.7777  -16.3574 C   0  0  2  0  0  0  0  0  0  0  0  0
   21.7880   -8.1483  -17.2510 N   0  0  0  0  0  0  0  0  0  0  0  0
   23.3851   -9.9536  -16.9714 C   0  0  0  0  0  0  0  0  0  0  0  0
   22.8835  -11.0862  -16.7624 O   0  0  0  0  0  0  0  0  0  0  0  0
   25.5886   -9.7946  -20.4095 O   0  0  0  0  0  0  0  0  0  0  0  0
   26.1642  -10.6051  -19.4111 C   0  0  0  0  0  0  0  0  0  0  0  0
   25.1343  -11.0445  -18.4238 C   0  0  2  0  0  0  0  0  0  0  0  0
   24.5491   -9.8847  -17.7821 N   0  0  0  0  0  0  0  0  0  0  0  0
   25.6637  -12.0122  -17.4294 C   0  0  0  0  0  0  0  0  0  0  0  0
   26.2673  -11.5671  -16.4199 O   0  0  0  0  0  0  0  0  0  0  0  0
   21.9967  -19.4515  -15.2989 N   0  0  0  0  0  0  0  0  0  0  0  0
   21.7933  -18.0621  -15.0722 C   0  0  0  0  0  0  0  0  0  0  0  0
   20.6217  -17.5662  -14.8690 N   0  0  0  0  0  0  0  0  0  0  0  0
   22.9544  -17.2277  -15.0791 N   0  0  0  0  0  0  0  0  0  0  0  0
   24.1437  -17.6363  -15.7563 C   0  0  0  0  0  0  0  0  0  0  0  0
   25.2445  -16.5741  -15.6048 C   0  0  0  0  0  0  0  0  0  0  0  0
   24.9160  -15.4399  -16.5239 C   0  0  0  0  0  0  0  0  0  0  0  0
   25.9978  -14.3854  -16.6034 C   0  0  2  0  0  0  0  0  0  0  0  0
   25.5184  -13.4040  -17.5685 N   0  0  0  0  0  0  0  0  0  0  0  0
   27.3054  -14.9382  -17.0360 C   0  0  0  0  0  0  0  0  0  0  0  0
   28.1525  -15.3412  -16.1747 O   0  0  0  0  0  0  0  0  0  0  0  0
   27.6943  -15.0563  -18.3585 O   0  0  0  0  0  0  0  0  0  0  0  0
  1  2  1  0
  2  3  2  0
  4  5  1  0
  4  2  1  0
  5  6  1  6
  7  5  1  0
  8  7  2  0
  9 10  1  0
 11 10  1  6
 11 13  1  0
 11 12  1  0
 12  7  1  0
 13 14  2  0
 16 15  1  0
 16 17  2  0
 18 16  1  0
 19 18  1  0
 20 19  1  0
 21 20  1  0
 22 21  1  6
 23 22  1  0
 23 13  1  0
 24 22  1  0
 24 26  1  0
 25 24  2  0
M  END
$$$$
