NSR.pdb
     RDKit          3D

 26 25  0  0  1  0  0  0  0  0999 V2000
   36.2474  -25.6190  -18.3695 N   0  0  0  0  0  0  0  0  0  0  0  0
   35.5348  -26.7886  -18.7018 C   0  0  0  0  0  0  0  0  0  0  0  0
   36.1639  -27.8750  -18.8641 O   0  0  0  0  0  0  0  0  0  0  0  0
   34.0548  -26.8528  -18.8832 C   0  0  0  0  0  0  0  0  0  0  0  0
   33.6198  -28.2447  -19.2473 C   0  0  2  0  0  0  0  0  0  0  0  0
   34.0826  -28.5854  -20.5680 N   0  0  0  0  0  0  0  0  0  0  0  0
   32.1483  -28.3582  -19.1207 C   0  0  0  0  0  0  0  0  0  0  0  0
   31.6788  -28.7313  -18.0168 O   0  0  0  0  0  0  0  0  0  0  0  0
   30.0131  -27.8637  -22.3780 O   0  0  0  0  0  0  0  0  0  0  0  0
   29.1209  -27.8112  -21.2888 C   0  0  0  0  0  0  0  0  0  0  0  0
   29.7982  -28.2304  -20.0262 C   0  0  2  0  0  0  0  0  0  0  0  0
   31.2315  -28.0727  -20.1671 N   0  0  0  0  0  0  0  0  0  0  0  0
   29.4370  -29.6088  -19.6076 C   0  0  0  0  0  0  0  0  0  0  0  0
   30.1932  -30.5562  -19.9423 O   0  0  0  0  0  0  0  0  0  0  0  0
   25.1941  -33.0656  -14.2350 N   0  0  0  0  0  0  0  0  0  0  0  0
   26.1868  -34.0104  -13.8538 C   0  0  0  0  0  0  0  0  0  0  0  0
   25.8873  -35.1216  -13.2746 N   0  0  0  0  0  0  0  0  0  0  0  0
   27.5462  -33.6741  -14.1424 N   0  0  0  0  0  0  0  0  0  0  0  0
   27.8723  -32.4459  -14.7944 C   0  0  0  0  0  0  0  0  0  0  0  0
   27.5944  -32.5441  -16.3032 C   0  0  0  0  0  0  0  0  0  0  0  0
   28.0353  -31.2611  -16.9345 C   0  0  0  0  0  0  0  0  0  0  0  0
   27.8854  -31.2380  -18.4396 C   0  0  2  0  0  0  0  0  0  0  0  0
   28.2864  -29.8992  -18.8531 N   0  0  0  0  0  0  0  0  0  0  0  0
   26.4968  -31.5200  -18.8811 C   0  0  0  0  0  0  0  0  0  0  0  0
   26.0712  -32.7186  -18.9465 O   0  0  0  0  0  0  0  0  0  0  0  0
   25.5877  -30.5417  -19.2423 O   0  0  0  0  0  0  0  0  0  0  0  0
  1  2  1  0
  2  3  2  0
  4  5  1  0
  4  2  1  0
  5  6  1  6
  7  5  1  0
  8  7  2  0
  9 10  1  0
 11 10  1  6
 11 13  1  0
 11 12  1  0
 12  7  1  0
 13 14  2  0
 16 15  1  0
 16 17  2  0
 18 16  1  0
 19 18  1  0
 20 19  1  0
 21 20  1  0
 22 21  1  1
 23 22  1  0
 23 13  1  0
 24 22  1  0
 24 26  1  0
 25 24  2  0
M  END
$$$$
