WTI.pdb
     RDKit          3D

 30 31  0  0  1  0  0  0  0  0999 V2000
    5.7864  -17.3185   24.3537 N   0  0  0  0  0  0  0  0  0  0  0  0
    7.0116  -16.5823   24.2032 C   0  0  1  0  0  0  0  0  0  0  0  0
    7.3579  -15.7653   25.4260 C   0  0  0  0  0  0  0  0  0  0  0  0
    6.4734  -14.6445   25.6991 C   0  0  0  0  0  0  0  0  0  0  0  0
    5.2798  -14.6866   26.3700 C   0  0  0  0  0  0  0  0  0  0  0  0
    4.7508  -13.4621   26.4013 N   0  0  0  0  0  0  0  0  0  0  0  0
    5.5590  -12.6053   25.7702 C   0  0  0  0  0  0  0  0  0  0  0  0
    5.4409  -11.2298   25.5474 C   0  0  0  0  0  0  0  0  0  0  0  0
    6.4465  -10.5915   24.8606 C   0  0  0  0  0  0  0  0  0  0  0  0
    7.5421  -11.2746   24.4009 C   0  0  0  0  0  0  0  0  0  0  0  0
    7.6273  -12.6344   24.6384 C   0  0  0  0  0  0  0  0  0  0  0  0
    6.6413  -13.3346   25.3265 C   0  0  0  0  0  0  0  0  0  0  0  0
    8.1439  -17.4229   23.7984 C   0  0  0  0  0  0  0  0  0  0  0  0
    8.2331  -18.5896   24.3059 O   0  0  0  0  0  0  0  0  0  0  0  0
   10.6077  -17.5328   20.6007 C   0  0  0  0  0  0  0  0  0  0  0  0
   11.3729  -17.0544   21.8201 C   0  0  1  0  0  0  0  0  0  0  0  0
   11.4500  -15.6660   21.7384 O   0  0  0  0  0  0  0  0  0  0  0  0
   10.5630  -17.4079   23.0626 C   0  0  2  0  0  0  0  0  0  0  0  0
    9.1684  -17.0763   22.8841 N   0  0  0  0  0  0  0  0  0  0  0  0
   11.1449  -16.8027   24.2739 C   0  0  0  0  0  0  0  0  0  0  0  0
   11.7181  -15.6651   24.1327 O   0  0  0  0  0  0  0  0  0  0  0  0
    9.6810  -14.1886   27.9180 C   0  0  0  0  0  0  0  0  0  0  0  0
   10.4729  -15.0410   26.9908 C   0  0  0  0  0  0  0  0  0  0  0  0
   11.3017  -16.0977   27.6391 C   0  0  2  0  0  0  0  0  0  0  0  0
   12.1356  -15.6107   28.7760 C   0  0  0  0  0  0  0  0  0  0  0  0
   12.0805  -16.8671   26.6104 C   0  0  2  0  0  0  0  0  0  0  0  0
   11.1476  -17.3219   25.5745 N   0  0  0  0  0  0  0  0  0  0  0  0
   12.9265  -17.9243   27.1587 C   0  0  0  0  0  0  0  0  0  0  0  0
   12.7394  -19.2791   26.9452 O   0  0  0  0  0  0  0  0  0  0  0  0
   13.9142  -17.6240   27.8870 O   0  0  0  0  0  0  0  0  0  0  0  0
  2  1  1  1
  2 13  1  0
  3  2  1  0
  3  4  1  0
  4  5  2  0
  4 12  1  0
  5  6  1  0
  6  7  1  0
  7  8  2  0
  9  8  1  0
 10  9  2  0
 11 12  2  0
 11 10  1  0
 12  7  1  0
 13 14  2  0
 16 15  1  6
 16 18  1  0
 17 16  1  0
 19 13  1  0
 18 19  1  6
 20 18  1  0
 20 21  2  0
 22 23  1  0
 23 24  1  0
 24 25  1  1
 24 26  1  0
 26 28  1  0
 26 27  1  6
 27 20  1  0
 28 30  2  0
 28 29  1  0
M  END
$$$$
