WTI.pdb
     RDKit          3D

 30 31  0  0  1  0  0  0  0  0999 V2000
    8.0122  -18.7796   19.9104 N   0  0  0  0  0  0  0  0  0  0  0  0
    7.6427  -17.4823   20.4065 C   0  0  1  0  0  0  0  0  0  0  0  0
    6.7727  -16.7120   19.4408 C   0  0  0  0  0  0  0  0  0  0  0  0
    7.3743  -15.5149   18.8768 C   0  0  0  0  0  0  0  0  0  0  0  0
    7.7249  -15.3121   17.5681 C   0  0  0  0  0  0  0  0  0  0  0  0
    8.2662  -14.0992   17.4419 N   0  0  0  0  0  0  0  0  0  0  0  0
    8.2856  -13.4881   18.6301 C   0  0  0  0  0  0  0  0  0  0  0  0
    8.7443  -12.2199   19.0002 C   0  0  0  0  0  0  0  0  0  0  0  0
    8.6309  -11.8440   20.3179 C   0  0  0  0  0  0  0  0  0  0  0  0
    8.0838  -12.6818   21.2545 C   0  0  0  0  0  0  0  0  0  0  0  0
    7.6401  -13.9292   20.8546 C   0  0  0  0  0  0  0  0  0  0  0  0
    7.7291  -14.3651   19.5363 C   0  0  0  0  0  0  0  0  0  0  0  0
    7.0314  -17.5267   21.7395 C   0  0  0  0  0  0  0  0  0  0  0  0
    5.8327  -17.1079   21.8611 O   0  0  0  0  0  0  0  0  0  0  0  0
    6.4148  -19.9470   24.6263 C   0  0  0  0  0  0  0  0  0  0  0  0
    7.2724  -18.8357   25.2014 C   0  0  1  0  0  0  0  0  0  0  0  0
    8.5876  -19.2944   25.2109 O   0  0  0  0  0  0  0  0  0  0  0  0
    7.1992  -17.6385   24.2600 C   0  0  2  0  0  0  0  0  0  0  0  0
    7.6363  -17.9967   22.9305 N   0  0  0  0  0  0  0  0  0  0  0  0
    7.9244  -16.4784   24.8080 C   0  0  0  0  0  0  0  0  0  0  0  0
    9.0881  -16.2441   24.3247 O   0  0  0  0  0  0  0  0  0  0  0  0
    6.4626  -12.0988   28.2603 C   0  0  0  0  0  0  0  0  0  0  0  0
    6.4659  -13.2551   27.3241 C   0  0  0  0  0  0  0  0  0  0  0  0
    7.5296  -13.2329   26.2792 C   0  0  2  0  0  0  0  0  0  0  0  0
    7.0421  -12.8723   24.9164 C   0  0  0  0  0  0  0  0  0  0  0  0
    8.3331  -14.5016   26.3126 C   0  0  2  0  0  0  0  0  0  0  0  0
    7.4939  -15.5898   25.8010 N   0  0  0  0  0  0  0  0  0  0  0  0
    8.9608  -14.7861   27.6007 C   0  0  0  0  0  0  0  0  0  0  0  0
    9.9646  -14.0272   28.1774 O   0  0  0  0  0  0  0  0  0  0  0  0
    8.5896  -15.7898   28.2722 O   0  0  0  0  0  0  0  0  0  0  0  0
  2  1  1  6
  2 13  1  0
  3  2  1  0
  3  4  1  0
  4  5  2  0
  4 12  1  0
  5  6  1  0
  6  7  1  0
  7  8  2  0
  9  8  1  0
 10  9  2  0
 11 12  2  0
 11 10  1  0
 12  7  1  0
 13 14  2  0
 16 15  1  6
 16 18  1  0
 17 16  1  0
 19 13  1  0
 18 19  1  6
 20 18  1  0
 20 21  2  0
 22 23  1  0
 23 24  1  0
 24 25  1  6
 24 26  1  0
 26 28  1  0
 26 27  1  1
 27 20  1  0
 28 30  2  0
 28 29  1  0
M  END
$$$$
