WTI.pdb
     RDKit          3D

 30 31  0  0  1  0  0  0  0  0999 V2000
    6.3550  -18.7410   24.0073 N   0  0  0  0  0  0  0  0  0  0  0  0
    7.0539  -18.0664   22.9480 C   0  0  1  0  0  0  0  0  0  0  0  0
    6.5252  -16.6745   22.6910 C   0  0  0  0  0  0  0  0  0  0  0  0
    6.4153  -15.8221   23.8633 C   0  0  0  0  0  0  0  0  0  0  0  0
    6.0513  -16.2079   25.1263 C   0  0  0  0  0  0  0  0  0  0  0  0
    6.0460  -15.1404   25.9267 N   0  0  0  0  0  0  0  0  0  0  0  0
    6.3968  -14.0541   25.2320 C   0  0  0  0  0  0  0  0  0  0  0  0
    6.5381  -12.7202   25.6276 C   0  0  0  0  0  0  0  0  0  0  0  0
    6.9255  -11.7977   24.6847 C   0  0  0  0  0  0  0  0  0  0  0  0
    7.1703  -12.1633   23.3868 C   0  0  0  0  0  0  0  0  0  0  0  0
    7.0209  -13.4909   23.0291 C   0  0  0  0  0  0  0  0  0  0  0  0
    6.6309  -14.4690   23.9385 C   0  0  0  0  0  0  0  0  0  0  0  0
    8.5086  -18.0461   23.1376 C   0  0  0  0  0  0  0  0  0  0  0  0
    9.1339  -19.1564   23.0804 O   0  0  0  0  0  0  0  0  0  0  0  0
   11.0419  -16.6079   21.0921 C   0  0  0  0  0  0  0  0  0  0  0  0
   11.4236  -16.0730   22.4594 C   0  0  1  0  0  0  0  0  0  0  0  0
   10.8974  -14.7872   22.5594 O   0  0  0  0  0  0  0  0  0  0  0  0
   10.7503  -16.9399   23.5177 C   0  0  2  0  0  0  0  0  0  0  0  0
    9.3129  -16.9057   23.3783 N   0  0  0  0  0  0  0  0  0  0  0  0
   11.2027  -16.5816   24.8738 C   0  0  0  0  0  0  0  0  0  0  0  0
   12.4577  -16.3712   25.0270 O   0  0  0  0  0  0  0  0  0  0  0  0
    8.7730  -13.0821   27.6946 C   0  0  0  0  0  0  0  0  0  0  0  0
    9.8107  -14.0177   27.1833 C   0  0  0  0  0  0  0  0  0  0  0  0
   10.1072  -15.1886   28.0578 C   0  0  2  0  0  0  0  0  0  0  0  0
   10.5868  -14.8274   29.4233 C   0  0  0  0  0  0  0  0  0  0  0  0
   10.9980  -16.1685   27.3489 C   0  0  2  0  0  0  0  0  0  0  0  0
   10.4223  -16.4394   26.0278 N   0  0  0  0  0  0  0  0  0  0  0  0
   11.3126  -17.3681   28.1210 C   0  0  0  0  0  0  0  0  0  0  0  0
   10.8715  -18.6443   27.8167 O   0  0  0  0  0  0  0  0  0  0  0  0
   12.0391  -17.2794   29.1509 O   0  0  0  0  0  0  0  0  0  0  0  0
  2  1  1  1
  2 13  1  0
  3  2  1  0
  3  4  1  0
  4  5  2  0
  4 12  1  0
  5  6  1  0
  6  7  1  0
  7  8  2  0
  9  8  1  0
 10  9  2  0
 11 12  2  0
 11 10  1  0
 12  7  1  0
 13 14  2  0
 16 15  1  6
 16 18  1  0
 17 16  1  0
 19 13  1  0
 18 19  1  1
 20 18  1  0
 20 21  2  0
 22 23  1  0
 23 24  1  0
 24 25  1  1
 24 26  1  0
 26 28  1  0
 26 27  1  6
 27 20  1  0
 28 30  2  0
 28 29  1  0
M  END
$$$$
