WTI.pdb
     RDKit          3D

 30 31  0  0  1  0  0  0  0  0999 V2000
    5.9327  -17.1350   24.3583 N   0  0  0  0  0  0  0  0  0  0  0  0
    7.2117  -16.4990   24.1993 C   0  0  1  0  0  0  0  0  0  0  0  0
    7.5615  -15.5902   25.3545 C   0  0  0  0  0  0  0  0  0  0  0  0
    6.6506  -14.4784   25.5721 C   0  0  0  0  0  0  0  0  0  0  0  0
    5.4480  -14.5199   26.2268 C   0  0  0  0  0  0  0  0  0  0  0  0
    4.8941  -13.3063   26.2042 N   0  0  0  0  0  0  0  0  0  0  0  0
    5.6946  -12.4573   25.5529 C   0  0  0  0  0  0  0  0  0  0  0  0
    5.5523  -11.0938   25.2765 C   0  0  0  0  0  0  0  0  0  0  0  0
    6.5552  -10.4611   24.5807 C   0  0  0  0  0  0  0  0  0  0  0  0
    7.6712  -11.1382   24.1632 C   0  0  0  0  0  0  0  0  0  0  0  0
    7.7800  -12.4861   24.4531 C   0  0  0  0  0  0  0  0  0  0  0  0
    6.7979  -13.1802   25.1528 C   0  0  0  0  0  0  0  0  0  0  0  0
    8.2988  -17.4476   23.9329 C   0  0  0  0  0  0  0  0  0  0  0  0
    8.2412  -18.5937   24.4898 O   0  0  0  0  0  0  0  0  0  0  0  0
   11.0287  -17.8496   20.9635 C   0  0  0  0  0  0  0  0  0  0  0  0
   11.7120  -17.4236   22.2491 C   0  0  1  0  0  0  0  0  0  0  0  0
   11.9139  -16.0476   22.1710 O   0  0  0  0  0  0  0  0  0  0  0  0
   10.7603  -17.6938   23.4093 C   0  0  2  0  0  0  0  0  0  0  0  0
    9.4269  -17.2284   23.1055 N   0  0  0  0  0  0  0  0  0  0  0  0
   11.2839  -17.1455   24.6732 C   0  0  0  0  0  0  0  0  0  0  0  0
   11.7788  -15.9641   24.6289 O   0  0  0  0  0  0  0  0  0  0  0  0
    9.3225  -14.6478   28.0965 C   0  0  0  0  0  0  0  0  0  0  0  0
   10.3450  -15.3769   27.2987 C   0  0  0  0  0  0  0  0  0  0  0  0
   10.9781  -16.5437   27.9782 C   0  0  2  0  0  0  0  0  0  0  0  0
   11.4833  -16.2530   29.3513 C   0  0  0  0  0  0  0  0  0  0  0  0
   12.0017  -17.1863   27.0860 C   0  0  2  0  0  0  0  0  0  0  0  0
   11.3063  -17.7619   25.9305 N   0  0  0  0  0  0  0  0  0  0  0  0
   12.8992  -18.1159   27.7673 C   0  0  0  0  0  0  0  0  0  0  0  0
   14.0780  -17.7594   28.3992 O   0  0  0  0  0  0  0  0  0  0  0  0
   12.6164  -19.3467   27.8071 O   0  0  0  0  0  0  0  0  0  0  0  0
  2  1  1  1
  2 13  1  0
  3  2  1  0
  3  4  1  0
  4  5  2  0
  4 12  1  0
  5  6  1  0
  6  7  1  0
  7  8  2  0
  9  8  1  0
 10  9  2  0
 11 12  2  0
 11 10  1  0
 12  7  1  0
 13 14  2  0
 16 15  1  6
 16 18  1  0
 17 16  1  0
 19 13  1  0
 18 19  1  6
 20 18  1  0
 20 21  2  0
 22 23  1  0
 23 24  1  0
 24 25  1  1
 24 26  1  0
 26 28  1  0
 26 27  1  6
 27 20  1  0
 28 30  2  0
 28 29  1  0
M  END
$$$$
