WTI.pdb
     RDKit          3D

 30 31  0  0  1  0  0  0  0  0999 V2000
    6.0947  -17.1004   23.9650 N   0  0  0  0  0  0  0  0  0  0  0  0
    7.3495  -16.4002   23.9939 C   0  0  1  0  0  0  0  0  0  0  0  0
    7.6259  -15.7488   25.3289 C   0  0  0  0  0  0  0  0  0  0  0  0
    6.7212  -14.6723   25.6975 C   0  0  0  0  0  0  0  0  0  0  0  0
    5.6201  -14.7678   26.5069 C   0  0  0  0  0  0  0  0  0  0  0  0
    5.0335  -13.5725   26.5921 N   0  0  0  0  0  0  0  0  0  0  0  0
    5.7134  -12.6832   25.8624 C   0  0  0  0  0  0  0  0  0  0  0  0
    5.4956  -11.3191   25.6449 C   0  0  0  0  0  0  0  0  0  0  0  0
    6.3764  -10.6384   24.8378 C   0  0  0  0  0  0  0  0  0  0  0  0
    7.4445  -11.2693   24.2554 C   0  0  0  0  0  0  0  0  0  0  0  0
    7.6305  -12.6193   24.4912 C   0  0  0  0  0  0  0  0  0  0  0  0
    6.7728  -13.3607   25.2977 C   0  0  0  0  0  0  0  0  0  0  0  0
    8.4835  -17.2304   23.5728 C   0  0  0  0  0  0  0  0  0  0  0  0
    8.3872  -18.4934   23.7225 O   0  0  0  0  0  0  0  0  0  0  0  0
   11.1828  -17.5515   20.7859 C   0  0  0  0  0  0  0  0  0  0  0  0
   11.9202  -17.1654   22.0542 C   0  0  1  0  0  0  0  0  0  0  0  0
   12.1934  -15.8020   21.9720 O   0  0  0  0  0  0  0  0  0  0  0  0
   10.9849  -17.3866   23.2378 C   0  0  2  0  0  0  0  0  0  0  0  0
    9.6973  -16.7753   23.0028 N   0  0  0  0  0  0  0  0  0  0  0  0
   11.6042  -16.9491   24.5016 C   0  0  0  0  0  0  0  0  0  0  0  0
   12.6954  -16.2831   24.4097 O   0  0  0  0  0  0  0  0  0  0  0  0
    9.4499  -14.9491   29.1175 C   0  0  0  0  0  0  0  0  0  0  0  0
   10.0100  -15.9668   28.1878 C   0  0  0  0  0  0  0  0  0  0  0  0
   11.3842  -15.6869   27.6809 C   0  0  2  0  0  0  0  0  0  0  0  0
   11.4973  -14.4363   26.8758 C   0  0  0  0  0  0  0  0  0  0  0  0
   11.9533  -16.8958   26.9944 C   0  0  2  0  0  0  0  0  0  0  0  0
   11.1420  -17.1720   25.8046 N   0  0  0  0  0  0  0  0  0  0  0  0
   12.1473  -18.0512   27.8669 C   0  0  0  0  0  0  0  0  0  0  0  0
   11.5287  -19.2789   27.7047 O   0  0  0  0  0  0  0  0  0  0  0  0
   12.9301  -17.9677   28.8551 O   0  0  0  0  0  0  0  0  0  0  0  0
  2  1  1  1
  2 13  1  0
  3  2  1  0
  3  4  1  0
  4  5  2  0
  4 12  1  0
  5  6  1  0
  6  7  1  0
  7  8  2  0
  9  8  1  0
 10  9  2  0
 11 12  2  0
 11 10  1  0
 12  7  1  0
 13 14  2  0
 16 15  1  6
 16 18  1  0
 17 16  1  0
 19 13  1  0
 18 19  1  6
 20 18  1  0
 20 21  2  0
 22 23  1  0
 23 24  1  0
 24 25  1  6
 24 26  1  0
 26 28  1  0
 26 27  1  6
 27 20  1  0
 28 30  2  0
 28 29  1  0
M  END
$$$$
