WTI.pdb
     RDKit          3D

 30 31  0  0  1  0  0  0  0  0999 V2000
    7.8593  -17.9372   20.7207 N   0  0  0  0  0  0  0  0  0  0  0  0
    8.5287  -17.0620   21.6436 C   0  0  1  0  0  0  0  0  0  0  0  0
    7.6758  -15.8862   22.0592 C   0  0  0  0  0  0  0  0  0  0  0  0
    7.2710  -14.9971   20.9828 C   0  0  0  0  0  0  0  0  0  0  0  0
    6.0117  -14.8623   20.4605 C   0  0  0  0  0  0  0  0  0  0  0  0
    6.0399  -13.9648   19.4737 N   0  0  0  0  0  0  0  0  0  0  0  0
    7.2829  -13.4976   19.3243 C   0  0  0  0  0  0  0  0  0  0  0  0
    7.8049  -12.5510   18.4371 C   0  0  0  0  0  0  0  0  0  0  0  0
    9.1451  -12.2539   18.5143 C   0  0  0  0  0  0  0  0  0  0  0  0
    9.9594  -12.8630   19.4331 C   0  0  0  0  0  0  0  0  0  0  0  0
    9.4108  -13.7947   20.2955 C   0  0  0  0  0  0  0  0  0  0  0  0
    8.0625  -14.1367   20.2644 C   0  0  0  0  0  0  0  0  0  0  0  0
    9.0631  -17.7610   22.8176 C   0  0  0  0  0  0  0  0  0  0  0  0
    8.3035  -18.5946   23.4135 O   0  0  0  0  0  0  0  0  0  0  0  0
   11.5237  -20.2271   23.4915 C   0  0  0  0  0  0  0  0  0  0  0  0
   11.9457  -19.1309   24.4514 C   0  0  1  0  0  0  0  0  0  0  0  0
   12.9794  -18.4249   23.8404 O   0  0  0  0  0  0  0  0  0  0  0  0
   10.7703  -18.1774   24.6358 C   0  0  2  0  0  0  0  0  0  0  0  0
   10.3577  -17.6123   23.3719 N   0  0  0  0  0  0  0  0  0  0  0  0
   11.0642  -17.1519   25.6528 C   0  0  0  0  0  0  0  0  0  0  0  0
   11.8671  -16.2133   25.3110 O   0  0  0  0  0  0  0  0  0  0  0  0
    8.2207  -13.7699   28.5272 C   0  0  0  0  0  0  0  0  0  0  0  0
    8.9476  -15.0171   28.1671 C   0  0  0  0  0  0  0  0  0  0  0  0
   10.3965  -14.8494   27.8565 C   0  0  2  0  0  0  0  0  0  0  0  0
   10.6699  -14.1247   26.5817 C   0  0  0  0  0  0  0  0  0  0  0  0
   11.1185  -16.1620   27.9670 C   0  0  2  0  0  0  0  0  0  0  0  0
   10.5679  -17.0746   26.9600 N   0  0  0  0  0  0  0  0  0  0  0  0
   11.1602  -16.7173   29.3175 C   0  0  0  0  0  0  0  0  0  0  0  0
   10.6750  -17.9628   29.6772 O   0  0  0  0  0  0  0  0  0  0  0  0
   11.6692  -16.0443   30.2579 O   0  0  0  0  0  0  0  0  0  0  0  0
  2  1  1  1
  2 13  1  0
  3  2  1  0
  3  4  1  0
  4  5  2  0
  4 12  1  0
  5  6  1  0
  6  7  1  0
  7  8  2  0
  9  8  1  0
 10  9  2  0
 11 12  2  0
 11 10  1  0
 12  7  1  0
 13 14  2  0
 16 15  1  6
 16 18  1  0
 17 16  1  0
 19 13  1  0
 18 19  1  6
 20 18  1  0
 20 21  2  0
 22 23  1  0
 23 24  1  0
 24 25  1  6
 24 26  1  0
 26 28  1  0
 26 27  1  6
 27 20  1  0
 28 30  2  0
 28 29  1  0
M  END
$$$$
