WTI.pdb
     RDKit          3D

 30 31  0  0  1  0  0  0  0  0999 V2000
    6.1661  -17.7115   23.4853 N   0  0  0  0  0  0  0  0  0  0  0  0
    7.3048  -16.8679   23.7251 C   0  0  1  0  0  0  0  0  0  0  0  0
    7.3599  -16.3473   25.1424 C   0  0  0  0  0  0  0  0  0  0  0  0
    6.5306  -15.1845   25.4131 C   0  0  0  0  0  0  0  0  0  0  0  0
    5.3370  -15.1673   26.0852 C   0  0  0  0  0  0  0  0  0  0  0  0
    4.8676  -13.9187   26.1135 N   0  0  0  0  0  0  0  0  0  0  0  0
    5.7154  -13.1035   25.4793 C   0  0  0  0  0  0  0  0  0  0  0  0
    5.6634  -11.7245   25.2527 C   0  0  0  0  0  0  0  0  0  0  0  0
    6.6978  -11.1372   24.5632 C   0  0  0  0  0  0  0  0  0  0  0  0
    7.7588  -11.8736   24.1045 C   0  0  0  0  0  0  0  0  0  0  0  0
    7.7787  -13.2353   24.3457 C   0  0  0  0  0  0  0  0  0  0  0  0
    6.7609  -13.8853   25.0367 C   0  0  0  0  0  0  0  0  0  0  0  0
    8.5768  -17.4947   23.3488 C   0  0  0  0  0  0  0  0  0  0  0  0
    8.8185  -18.6669   23.7898 O   0  0  0  0  0  0  0  0  0  0  0  0
   11.1783  -17.0232   20.2390 C   0  0  0  0  0  0  0  0  0  0  0  0
   11.7990  -16.5721   21.5477 C   0  0  1  0  0  0  0  0  0  0  0  0
   11.6564  -15.1881   21.6148 O   0  0  0  0  0  0  0  0  0  0  0  0
   10.9988  -17.1830   22.6927 C   0  0  2  0  0  0  0  0  0  0  0  0
    9.5856  -16.9320   22.5296 N   0  0  0  0  0  0  0  0  0  0  0  0
   11.5112  -16.7416   24.0023 C   0  0  0  0  0  0  0  0  0  0  0  0
   12.3686  -15.7890   23.9955 O   0  0  0  0  0  0  0  0  0  0  0  0
   10.1840  -14.3547   29.1338 C   0  0  0  0  0  0  0  0  0  0  0  0
   11.1684  -15.1834   28.3870 C   0  0  0  0  0  0  0  0  0  0  0  0
   10.6611  -15.8083   27.1316 C   0  0  2  0  0  0  0  0  0  0  0  0
    9.3365  -16.4794   27.2733 C   0  0  0  0  0  0  0  0  0  0  0  0
   11.7132  -16.6827   26.5111 C   0  0  2  0  0  0  0  0  0  0  0  0
   11.1722  -17.2388   25.2668 N   0  0  0  0  0  0  0  0  0  0  0  0
   12.2801  -17.6807   27.4148 C   0  0  0  0  0  0  0  0  0  0  0  0
   13.2281  -17.4194   28.3890 O   0  0  0  0  0  0  0  0  0  0  0  0
   11.9046  -18.8845   27.3362 O   0  0  0  0  0  0  0  0  0  0  0  0
  2  1  1  1
  2 13  1  0
  3  2  1  0
  3  4  1  0
  4  5  2  0
  4 12  1  0
  5  6  1  0
  6  7  1  0
  7  8  2  0
  9  8  1  0
 10  9  2  0
 11 12  2  0
 11 10  1  0
 12  7  1  0
 13 14  2  0
 16 15  1  6
 16 18  1  0
 17 16  1  0
 19 13  1  0
 18 19  1  6
 20 18  1  0
 20 21  2  0
 22 23  1  0
 23 24  1  0
 24 25  1  1
 24 26  1  0
 26 28  1  0
 26 27  1  6
 27 20  1  0
 28 30  2  0
 28 29  1  0
M  END
$$$$
