VGA.pdb
     RDKit          3D

 17 16  0  0  1  0  0  0  0  0999 V2000
    8.5836  -12.2248   19.7293 C   0  0  0  0  0  0  0  0  0  0  0  0
    8.2872  -13.3586   20.6986 C   0  0  1  0  0  0  0  0  0  0  0  0
    6.9983  -13.1105   21.4551 C   0  0  0  0  0  0  0  0  0  0  0  0
    8.0860  -14.6266   19.8871 C   0  0  2  0  0  0  0  0  0  0  0  0
    7.1464  -14.4530   18.8238 N   0  0  0  0  0  0  0  0  0  0  0  0
    7.6339  -15.7147   20.7727 C   0  0  0  0  0  0  0  0  0  0  0  0
    6.4229  -15.8580   21.1282 O   0  0  0  0  0  0  0  0  0  0  0  0
    8.5559  -16.6723   21.2785 N   0  0  0  0  0  0  0  0  0  0  0  0
    8.1224  -17.6824   22.2201 C   0  0  0  0  0  0  0  0  0  0  0  0
    9.1162  -17.8102   23.2880 C   0  0  0  0  0  0  0  0  0  0  0  0
    8.9576  -18.6368   24.2025 O   0  0  0  0  0  0  0  0  0  0  0  0
   12.4493  -16.1967   23.9954 C   0  0  0  0  0  0  0  0  0  0  0  0
   11.2902  -17.1504   24.2380 C   0  0  2  0  0  0  0  0  0  0  0  0
   10.2576  -16.9705   23.2507 N   0  0  0  0  0  0  0  0  0  0  0  0
   10.7242  -16.9505   25.5908 C   0  0  0  0  0  0  0  0  0  0  0  0
   11.2745  -17.6188   26.6593 O   0  0  0  0  0  0  0  0  0  0  0  0
    9.7475  -16.1832   25.8012 O   0  0  0  0  0  0  0  0  0  0  0  0
  2  1  1  6
  2  3  1  0
  4  2  1  0
  4  5  1  6
  6  8  1  0
  6  4  1  0
  7  6  2  0
  9 10  1  0
  9  8  1  0
 10 11  2  0
 13 12  1  6
 13 15  1  0
 14 13  1  0
 14 10  1  0
 15 17  2  0
 15 16  1  0
M  END
$$$$
