VGA.pdb
     RDKit          3D

 17 16  0  0  1  0  0  0  0  0999 V2000
    8.9597  -12.9009   21.1140 C   0  0  0  0  0  0  0  0  0  0  0  0
    7.7421  -13.4783   20.4092 C   0  0  1  0  0  0  0  0  0  0  0  0
    7.8646  -13.3450   18.9051 C   0  0  0  0  0  0  0  0  0  0  0  0
    7.6845  -14.9643   20.7176 C   0  0  2  0  0  0  0  0  0  0  0  0
    6.7260  -15.6541   19.9119 N   0  0  0  0  0  0  0  0  0  0  0  0
    7.3650  -15.1622   22.1428 C   0  0  0  0  0  0  0  0  0  0  0  0
    6.2514  -14.8275   22.6541 O   0  0  0  0  0  0  0  0  0  0  0  0
    8.3120  -15.7497   23.0265 N   0  0  0  0  0  0  0  0  0  0  0  0
    7.9940  -15.9337   24.4264 C   0  0  0  0  0  0  0  0  0  0  0  0
    8.9890  -15.2396   25.2465 C   0  0  0  0  0  0  0  0  0  0  0  0
   10.1397  -15.0496   24.8172 O   0  0  0  0  0  0  0  0  0  0  0  0
    8.9898  -13.1704   28.3190 C   0  0  0  0  0  0  0  0  0  0  0  0
    9.6031  -14.2153   27.4001 C   0  0  2  0  0  0  0  0  0  0  0  0
    8.6063  -14.7927   26.5362 N   0  0  0  0  0  0  0  0  0  0  0  0
   10.2569  -15.2839   28.1879 C   0  0  0  0  0  0  0  0  0  0  0  0
   11.4360  -15.0159   28.8430 O   0  0  0  0  0  0  0  0  0  0  0  0
    9.7682  -16.4413   28.2812 O   0  0  0  0  0  0  0  0  0  0  0  0
  2  1  1  1
  2  3  1  0
  4  2  1  0
  4  5  1  6
  6  8  1  0
  6  4  1  0
  7  6  2  0
  9 10  1  0
  9  8  1  0
 10 11  2  0
 13 12  1  1
 13 15  1  0
 14 13  1  0
 14 10  1  0
 15 17  2  0
 15 16  1  0
M  END
$$$$
