VGA.pdb
     RDKit          3D

 17 16  0  0  1  0  0  0  0  0999 V2000
   11.5446  -19.2337   21.0021 C   0  0  0  0  0  0  0  0  0  0  0  0
   10.1136  -19.5382   21.4174 C   0  0  1  0  0  0  0  0  0  0  0  0
    9.8037  -21.0143   21.2754 C   0  0  0  0  0  0  0  0  0  0  0  0
    9.9717  -19.1968   22.8905 C   0  0  2  0  0  0  0  0  0  0  0  0
    8.7239  -19.6318   23.4357 N   0  0  0  0  0  0  0  0  0  0  0  0
   10.1114  -17.7414   23.0771 C   0  0  0  0  0  0  0  0  0  0  0  0
   11.1754  -17.1077   22.7947 O   0  0  0  0  0  0  0  0  0  0  0  0
    9.0358  -16.9670   23.5932 N   0  0  0  0  0  0  0  0  0  0  0  0
    9.1530  -15.5285   23.7016 C   0  0  0  0  0  0  0  0  0  0  0  0
    9.7581  -15.1855   24.9902 C   0  0  0  0  0  0  0  0  0  0  0  0
   10.9349  -15.4988   25.2386 O   0  0  0  0  0  0  0  0  0  0  0  0
    8.7404  -12.8153   27.7017 C   0  0  0  0  0  0  0  0  0  0  0  0
    9.6152  -13.8936   27.0818 C   0  0  2  0  0  0  0  0  0  0  0  0
    8.9698  -14.4905   25.9414 N   0  0  0  0  0  0  0  0  0  0  0  0
    9.9352  -14.9417   28.0764 C   0  0  0  0  0  0  0  0  0  0  0  0
   10.7365  -14.6325   29.1504 O   0  0  0  0  0  0  0  0  0  0  0  0
    9.4962  -16.1181   27.9741 O   0  0  0  0  0  0  0  0  0  0  0  0
  2  1  1  1
  2  3  1  0
  4  2  1  0
  4  5  1  6
  6  8  1  0
  6  4  1  0
  7  6  2  0
  9 10  1  0
  9  8  1  0
 10 11  2  0
 13 12  1  1
 13 15  1  0
 14 13  1  0
 14 10  1  0
 15 17  2  0
 15 16  1  0
M  END
$$$$
