VGA.pdb
     RDKit          3D

 17 16  0  0  1  0  0  0  0  0999 V2000
    8.3921  -12.2777   20.7368 C   0  0  0  0  0  0  0  0  0  0  0  0
    7.4605  -13.2736   20.0637 C   0  0  1  0  0  0  0  0  0  0  0  0
    7.4578  -13.0920   18.5597 C   0  0  0  0  0  0  0  0  0  0  0  0
    7.9911  -14.6698   20.3391 C   0  0  2  0  0  0  0  0  0  0  0  0
    7.3122  -15.6732   19.5803 N   0  0  0  0  0  0  0  0  0  0  0  0
    7.8693  -14.9711   21.7767 C   0  0  0  0  0  0  0  0  0  0  0  0
    6.8182  -15.4636   22.2927 O   0  0  0  0  0  0  0  0  0  0  0  0
    8.9485  -14.7175   22.6678 N   0  0  0  0  0  0  0  0  0  0  0  0
    8.8143  -14.9972   24.0815 C   0  0  0  0  0  0  0  0  0  0  0  0
    9.3195  -16.3429   24.3611 C   0  0  0  0  0  0  0  0  0  0  0  0
    8.7248  -17.3438   23.9261 O   0  0  0  0  0  0  0  0  0  0  0  0
   12.5506  -17.7917   25.2200 C   0  0  0  0  0  0  0  0  0  0  0  0
   11.0380  -17.7863   25.3750 C   0  0  2  0  0  0  0  0  0  0  0  0
   10.4987  -16.4725   25.1369 N   0  0  0  0  0  0  0  0  0  0  0  0
   10.6503  -18.2447   26.7276 C   0  0  0  0  0  0  0  0  0  0  0  0
   11.0129  -19.5041   27.1444 O   0  0  0  0  0  0  0  0  0  0  0  0
    9.9939  -17.5165   27.5187 O   0  0  0  0  0  0  0  0  0  0  0  0
  2  1  1  1
  2  3  1  0
  4  2  1  0
  4  5  1  6
  6  8  1  0
  6  4  1  0
  7  6  2  0
  9 10  1  0
  9  8  1  0
 10 11  2  0
 13 12  1  1
 13 15  1  0
 14 13  1  0
 14 10  1  0
 15 17  2  0
 15 16  1  0
M  END
$$$$
