VGA.pdb
     RDKit          3D

 17 16  0  0  1  0  0  0  0  0999 V2000
    9.7752  -12.6196   18.6792 C   0  0  0  0  0  0  0  0  0  0  0  0
    8.8193  -12.9367   19.8187 C   0  0  1  0  0  0  0  0  0  0  0  0
    7.5273  -12.1572   19.6837 C   0  0  0  0  0  0  0  0  0  0  0  0
    8.4581  -14.4092   19.7297 C   0  0  2  0  0  0  0  0  0  0  0  0
    7.3298  -14.7463   20.5401 N   0  0  0  0  0  0  0  0  0  0  0  0
    9.6162  -15.2282   20.1306 C   0  0  0  0  0  0  0  0  0  0  0  0
    9.8434  -15.5604   21.3353 O   0  0  0  0  0  0  0  0  0  0  0  0
   10.5499  -15.6919   19.1630 N   0  0  0  0  0  0  0  0  0  0  0  0
   11.6576  -16.5357   19.5574 C   0  0  0  0  0  0  0  0  0  0  0  0
   12.7532  -15.7000   20.0528 C   0  0  0  0  0  0  0  0  0  0  0  0
   12.9189  -14.5497   19.6124 O   0  0  0  0  0  0  0  0  0  0  0  0
   15.3057  -16.0279   22.7907 C   0  0  0  0  0  0  0  0  0  0  0  0
   14.7098  -15.4337   21.5243 C   0  0  2  0  0  0  0  0  0  0  0  0
   13.6150  -16.2355   21.0427 N   0  0  0  0  0  0  0  0  0  0  0  0
   15.7402  -15.3145   20.4687 C   0  0  0  0  0  0  0  0  0  0  0  0
   16.7724  -14.4201   20.6293 O   0  0  0  0  0  0  0  0  0  0  0  0
   15.7060  -16.0092   19.4183 O   0  0  0  0  0  0  0  0  0  0  0  0
  2  1  1  6
  2  3  1  0
  4  2  1  0
  4  5  1  1
  6  8  1  0
  6  4  1  0
  7  6  2  0
  9 10  1  0
  9  8  1  0
 10 11  2  0
 13 12  1  1
 13 15  1  0
 14 13  1  0
 14 10  1  0
 15 17  2  0
 15 16  1  0
M  END
$$$$
