VGA.pdb
     RDKit          3D

 17 16  0  0  1  0  0  0  0  0999 V2000
    7.3017  -15.8275   19.6668 C   0  0  0  0  0  0  0  0  0  0  0  0
    8.2166  -14.6859   19.2514 C   0  0  1  0  0  0  0  0  0  0  0  0
    7.9780  -14.2890   17.8089 C   0  0  0  0  0  0  0  0  0  0  0  0
    7.8729  -13.4773   20.1046 C   0  0  2  0  0  0  0  0  0  0  0  0
    8.5087  -12.2828   19.6437 N   0  0  0  0  0  0  0  0  0  0  0  0
    8.2585  -13.7334   21.5040 C   0  0  0  0  0  0  0  0  0  0  0  0
    9.3661  -13.3532   21.9960 O   0  0  0  0  0  0  0  0  0  0  0  0
    7.3865  -14.4334   22.3830 N   0  0  0  0  0  0  0  0  0  0  0  0
    7.7076  -14.5596   23.7886 C   0  0  0  0  0  0  0  0  0  0  0  0
    8.5510  -15.7395   23.9908 C   0  0  0  0  0  0  0  0  0  0  0  0
    8.6525  -16.2579   25.1158 O   0  0  0  0  0  0  0  0  0  0  0  0
   10.0640  -18.2855   21.7659 C   0  0  0  0  0  0  0  0  0  0  0  0
   10.0324  -17.4647   23.0455 C   0  0  2  0  0  0  0  0  0  0  0  0
    9.2446  -16.2715   22.8749 N   0  0  0  0  0  0  0  0  0  0  0  0
   11.4036  -17.0988   23.4649 C   0  0  0  0  0  0  0  0  0  0  0  0
   12.2889  -18.0893   23.8203 O   0  0  0  0  0  0  0  0  0  0  0  0
   11.7933  -15.9016   23.5086 O   0  0  0  0  0  0  0  0  0  0  0  0
  2  1  1  1
  2  3  1  0
  4  2  1  0
  4  5  1  6
  6  8  1  0
  6  4  1  0
  7  6  2  0
  9 10  1  0
  9  8  1  0
 10 11  2  0
 13 12  1  6
 13 15  1  0
 14 13  1  0
 14 10  1  0
 15 17  2  0
 15 16  1  0
M  END
$$$$
