VGA.pdb
     RDKit          3D

 17 16  0  0  1  0  0  0  0  0999 V2000
    9.4030  -12.9867   19.7386 C   0  0  0  0  0  0  0  0  0  0  0  0
    8.0493  -13.4014   20.2939 C   0  0  1  0  0  0  0  0  0  0  0  0
    6.9384  -12.5374   19.7332 C   0  0  0  0  0  0  0  0  0  0  0  0
    7.7740  -14.8244   19.8400 C   0  0  2  0  0  0  0  0  0  0  0  0
    6.4260  -15.2284   20.0916 N   0  0  0  0  0  0  0  0  0  0  0  0
    8.7010  -15.7484   20.5179 C   0  0  0  0  0  0  0  0  0  0  0  0
    8.4183  -16.3331   21.6096 O   0  0  0  0  0  0  0  0  0  0  0  0
    9.9809  -16.0310   19.9657 N   0  0  0  0  0  0  0  0  0  0  0  0
   10.8555  -16.9964   20.5964 C   0  0  0  0  0  0  0  0  0  0  0  0
   11.2822  -16.4865   21.9011 C   0  0  0  0  0  0  0  0  0  0  0  0
   12.3855  -15.9294   22.0313 O   0  0  0  0  0  0  0  0  0  0  0  0
    9.7039  -15.9124   25.2248 C   0  0  0  0  0  0  0  0  0  0  0  0
   10.8691  -16.2808   24.3201 C   0  0  2  0  0  0  0  0  0  0  0  0
   10.4078  -16.6446   23.0055 N   0  0  0  0  0  0  0  0  0  0  0  0
   11.6475  -17.3977   24.9001 C   0  0  0  0  0  0  0  0  0  0  0  0
   12.4226  -17.1749   26.0140 O   0  0  0  0  0  0  0  0  0  0  0  0
   11.6258  -18.5564   24.4061 O   0  0  0  0  0  0  0  0  0  0  0  0
  2  1  1  6
  2  3  1  0
  4  2  1  0
  4  5  1  1
  6  8  1  0
  6  4  1  0
  7  6  2  0
  9 10  1  0
  9  8  1  0
 10 11  2  0
 13 12  1  1
 13 15  1  0
 14 13  1  0
 14 10  1  0
 15 17  2  0
 15 16  1  0
M  END
$$$$
