VGA.pdb
     RDKit          3D

 17 16  0  0  1  0  0  0  0  0999 V2000
   10.4575  -17.0186   20.9108 C   0  0  0  0  0  0  0  0  0  0  0  0
    9.5683  -18.2221   20.6394 C   0  0  1  0  0  0  0  0  0  0  0  0
   10.3922  -19.4745   20.4205 C   0  0  0  0  0  0  0  0  0  0  0  0
    8.7180  -18.4631   21.8746 C   0  0  2  0  0  0  0  0  0  0  0  0
    7.9536  -19.6678   21.7867 N   0  0  0  0  0  0  0  0  0  0  0  0
    7.8132  -17.3184   22.0838 C   0  0  0  0  0  0  0  0  0  0  0  0
    6.7219  -17.1756   21.4497 O   0  0  0  0  0  0  0  0  0  0  0  0
    8.1312  -16.3018   23.0264 N   0  0  0  0  0  0  0  0  0  0  0  0
    7.2580  -15.1603   23.1973 C   0  0  0  0  0  0  0  0  0  0  0  0
    7.7514  -14.3312   24.2988 C   0  0  0  0  0  0  0  0  0  0  0  0
    8.9720  -14.2005   24.4932 O   0  0  0  0  0  0  0  0  0  0  0  0
    6.1206  -11.8968   26.6465 C   0  0  0  0  0  0  0  0  0  0  0  0
    7.2684  -12.7418   26.1168 C   0  0  2  0  0  0  0  0  0  0  0  0
    6.8046  -13.6851   25.1327 N   0  0  0  0  0  0  0  0  0  0  0  0
    7.9374  -13.4647   27.2213 C   0  0  0  0  0  0  0  0  0  0  0  0
    7.8711  -14.8375   27.2688 O   0  0  0  0  0  0  0  0  0  0  0  0
    8.5714  -12.8627   28.1283 O   0  0  0  0  0  0  0  0  0  0  0  0
  2  1  1  1
  2  3  1  0
  4  2  1  0
  4  5  1  6
  6  8  1  0
  6  4  1  0
  7  6  2  0
  9 10  1  0
  9  8  1  0
 10 11  2  0
 13 12  1  1
 13 15  1  0
 14 13  1  0
 14 10  1  0
 15 17  2  0
 15 16  1  0
M  END
$$$$
