VGA.pdb
     RDKit          3D

 17 16  0  0  1  0  0  0  0  0999 V2000
    5.4355  -11.6777   26.0245 C   0  0  0  0  0  0  0  0  0  0  0  0
    6.8024  -12.2652   25.7100 C   0  0  1  0  0  0  0  0  0  0  0  0
    7.5795  -12.5557   26.9776 C   0  0  0  0  0  0  0  0  0  0  0  0
    6.5892  -13.5951   25.0080 C   0  0  2  0  0  0  0  0  0  0  0  0
    5.9691  -14.5672   25.8531 N   0  0  0  0  0  0  0  0  0  0  0  0
    7.8821  -14.1132   24.5257 C   0  0  0  0  0  0  0  0  0  0  0  0
    8.6788  -13.4271   23.8130 O   0  0  0  0  0  0  0  0  0  0  0  0
    8.3021  -15.4341   24.8452 N   0  0  0  0  0  0  0  0  0  0  0  0
    9.5766  -15.9330   24.3748 C   0  0  0  0  0  0  0  0  0  0  0  0
   10.5302  -15.9554   25.4858 C   0  0  0  0  0  0  0  0  0  0  0  0
   11.6771  -16.4063   25.3246 O   0  0  0  0  0  0  0  0  0  0  0  0
   10.8645  -14.2490   28.7293 C   0  0  0  0  0  0  0  0  0  0  0  0
   11.0356  -15.4761   27.8479 C   0  0  2  0  0  0  0  0  0  0  0  0
   10.1123  -15.4518   26.7432 N   0  0  0  0  0  0  0  0  0  0  0  0
   10.8377  -16.7146   28.6334 C   0  0  0  0  0  0  0  0  0  0  0  0
   11.6645  -16.9779   29.7003 O   0  0  0  0  0  0  0  0  0  0  0  0
    9.9309  -17.5446   28.3577 O   0  0  0  0  0  0  0  0  0  0  0  0
  2  1  1  1
  2  3  1  0
  4  2  1  0
  4  5  1  1
  6  8  1  0
  6  4  1  0
  7  6  2  0
  9 10  1  0
  9  8  1  0
 10 11  2  0
 13 12  1  1
 13 15  1  0
 14 13  1  0
 14 10  1  0
 15 17  2  0
 15 16  1  0
M  END
$$$$
