PLY.pdb
     RDKit          3D

 28 29  0  0  1  0  0  0  0  0999 V2000
   28.0723  -19.6326  -13.1881 N   0  0  0  0  0  0  0  0  0  0  0  0
   29.4423  -19.7201  -13.6189 C   0  0  0  0  0  0  0  0  0  0  0  0
   29.5330  -20.8910  -14.5677 C   0  0  0  0  0  0  0  0  0  0  0  0
   28.3717  -21.7745  -14.1747 C   0  0  0  0  0  0  0  0  0  0  0  0
   27.3920  -20.8168  -13.5873 C   0  0  1  0  0  0  0  0  0  0  0  0
   26.6134  -21.3732  -12.4581 C   0  0  0  0  0  0  0  0  0  0  0  0
   25.8143  -22.3147  -12.6116 O   0  0  0  0  0  0  0  0  0  0  0  0
   26.3453  -18.8826   -7.9306 C   0  0  0  0  0  0  0  0  0  0  0  0
   27.4358  -19.8774   -8.3954 C   0  0  1  0  0  0  0  0  0  0  0  0
   28.4235  -19.9582   -7.2903 C   0  0  0  0  0  0  0  0  0  0  0  0
   26.7143  -21.1069   -8.7714 C   0  0  0  0  0  0  0  0  0  0  0  0
   25.9261  -21.1315  -10.0238 C   0  0  2  0  0  0  0  0  0  0  0  0
   26.7684  -20.8311  -11.1550 N   0  0  0  0  0  0  0  0  0  0  0  0
   24.7024  -20.3136   -9.9804 C   0  0  0  0  0  0  0  0  0  0  0  0
   24.8040  -19.1124   -9.6429 O   0  0  0  0  0  0  0  0  0  0  0  0
   20.5719  -18.3713  -17.1406 O   0  0  0  0  0  0  0  0  0  0  0  0
   21.2717  -18.8850  -16.0582 C   0  0  0  0  0  0  0  0  0  0  0  0
   21.9531  -18.0426  -15.2091 C   0  0  0  0  0  0  0  0  0  0  0  0
   22.6515  -18.5419  -14.1306 C   0  0  0  0  0  0  0  0  0  0  0  0
   22.6967  -19.9120  -13.8565 C   0  0  0  0  0  0  0  0  0  0  0  0
   23.4624  -20.4378  -12.7061 C   0  0  0  0  0  0  0  0  0  0  0  0
   22.6449  -20.3302  -11.4578 C   0  0  2  0  0  0  0  0  0  0  0  0
   23.4125  -20.8026  -10.2979 N   0  0  0  0  0  0  0  0  0  0  0  0
   21.3805  -21.0655  -11.4996 C   0  0  0  0  0  0  0  0  0  0  0  0
   21.3251  -22.3660  -10.9834 O   0  0  0  0  0  0  0  0  0  0  0  0
   21.9987  -20.7193  -14.7351 C   0  0  0  0  0  0  0  0  0  0  0  0
   21.2978  -20.2415  -15.8136 C   0  0  0  0  0  0  0  0  0  0  0  0
   20.3042  -20.6007  -11.9806 O   0  0  0  0  0  0  0  0  0  0  0  0
  1  2  1  0
  3  2  1  0
  4  5  1  0
  4  3  1  0
  5  6  1  1
  5  1  1  0
  6  7  2  0
  9  8  1  1
  9 10  1  0
 11  9  1  0
 12 11  1  1
 13 12  1  0
 13  6  1  0
 14 12  1  0
 14 15  2  0
 16 17  1  0
 17 18  2  0
 17 27  1  0
 18 19  1  0
 19 20  2  0
 20 21  1  0
 22 21  1  6
 22 23  1  0
 22 24  1  0
 23 14  1  0
 24 28  2  0
 24 25  1  0
 26 20  1  0
 27 26  2  0
M  END
$$$$
