PLY.pdb
     RDKit          3D

 28 29  0  0  1  0  0  0  0  0999 V2000
   26.5892  -19.1248  -16.2751 N   0  0  0  0  0  0  0  0  0  0  0  0
   27.6383  -18.1689  -16.5114 C   0  0  0  0  0  0  0  0  0  0  0  0
   28.8140  -18.9329  -17.0711 C   0  0  0  0  0  0  0  0  0  0  0  0
   28.6082  -20.3441  -16.5712 C   0  0  0  0  0  0  0  0  0  0  0  0
   27.1312  -20.4352  -16.3916 C   0  0  1  0  0  0  0  0  0  0  0  0
   26.7179  -21.2714  -15.2422 C   0  0  0  0  0  0  0  0  0  0  0  0
   26.8065  -22.5123  -15.2668 O   0  0  0  0  0  0  0  0  0  0  0  0
   26.9831  -21.7225   -9.7373 C   0  0  0  0  0  0  0  0  0  0  0  0
   25.7135  -21.0815  -10.3474 C   0  0  1  0  0  0  0  0  0  0  0  0
   25.2226  -20.0989   -9.3490 C   0  0  0  0  0  0  0  0  0  0  0  0
   26.1223  -20.5787  -11.6717 C   0  0  0  0  0  0  0  0  0  0  0  0
   25.7820  -21.3603  -12.8815 C   0  0  2  0  0  0  0  0  0  0  0  0
   26.2032  -20.6591  -14.0690 N   0  0  0  0  0  0  0  0  0  0  0  0
   24.3782  -21.8012  -12.9374 C   0  0  0  0  0  0  0  0  0  0  0  0
   23.9550  -22.5489  -12.0268 O   0  0  0  0  0  0  0  0  0  0  0  0
   15.8766  -22.2611  -12.4830 O   0  0  0  0  0  0  0  0  0  0  0  0
   17.2295  -21.9580  -12.5366 C   0  0  0  0  0  0  0  0  0  0  0  0
   17.6685  -20.8662  -13.2507 C   0  0  0  0  0  0  0  0  0  0  0  0
   19.0102  -20.5556  -13.3107 C   0  0  0  0  0  0  0  0  0  0  0  0
   19.9724  -21.3291  -12.6549 C   0  0  0  0  0  0  0  0  0  0  0  0
   21.4104  -20.9959  -12.7394 C   0  0  0  0  0  0  0  0  0  0  0  0
   22.0337  -21.7168  -13.8927 C   0  0  2  0  0  0  0  0  0  0  0  0
   23.4730  -21.4311  -13.9608 N   0  0  0  0  0  0  0  0  0  0  0  0
   21.4425  -21.3995  -15.1930 C   0  0  0  0  0  0  0  0  0  0  0  0
   20.4275  -22.2176  -15.7040 O   0  0  0  0  0  0  0  0  0  0  0  0
   19.4861  -22.4148  -11.9509 C   0  0  0  0  0  0  0  0  0  0  0  0
   18.1551  -22.7402  -11.8792 C   0  0  0  0  0  0  0  0  0  0  0  0
   21.7900  -20.4137  -15.9096 O   0  0  0  0  0  0  0  0  0  0  0  0
  1  2  1  0
  3  2  1  0
  4  5  1  0
  4  3  1  0
  5  6  1  1
  5  1  1  0
  6  7  2  0
  9  8  1  1
  9 10  1  0
 11  9  1  0
 12 11  1  1
 13 12  1  0
 13  6  1  0
 14 12  1  0
 14 15  2  0
 16 17  1  0
 17 18  2  0
 17 27  1  0
 18 19  1  0
 19 20  2  0
 20 21  1  0
 22 21  1  1
 22 23  1  0
 22 24  1  0
 23 14  1  0
 24 28  2  0
 24 25  1  0
 26 20  1  0
 27 26  2  0
M  END
$$$$
