PLY.pdb
     RDKit          3D

 28 29  0  0  1  0  0  0  0  0999 V2000
   28.7870  -22.9192  -18.6424 N   0  0  0  0  0  0  0  0  0  0  0  0
   30.1047  -23.0080  -19.2134 C   0  0  0  0  0  0  0  0  0  0  0  0
   30.8255  -24.1199  -18.4900 C   0  0  0  0  0  0  0  0  0  0  0  0
   30.1200  -24.2101  -17.1566 C   0  0  0  0  0  0  0  0  0  0  0  0
   28.7506  -23.7025  -17.4551 C   0  0  1  0  0  0  0  0  0  0  0  0
   28.1412  -22.9348  -16.3459 C   0  0  0  0  0  0  0  0  0  0  0  0
   27.9994  -23.4219  -15.2097 O   0  0  0  0  0  0  0  0  0  0  0  0
   27.6550  -18.3268  -13.6525 C   0  0  0  0  0  0  0  0  0  0  0  0
   26.8918  -18.2640  -14.9974 C   0  0  1  0  0  0  0  0  0  0  0  0
   27.0019  -16.8624  -15.4732 C   0  0  0  0  0  0  0  0  0  0  0  0
   27.4772  -19.3279  -15.8336 C   0  0  0  0  0  0  0  0  0  0  0  0
   27.1306  -20.7403  -15.5588 C   0  0  2  0  0  0  0  0  0  0  0  0
   27.6996  -21.6031  -16.5644 N   0  0  0  0  0  0  0  0  0  0  0  0
   25.6935  -20.9755  -15.3405 C   0  0  0  0  0  0  0  0  0  0  0  0
   24.9098  -20.7860  -16.2982 O   0  0  0  0  0  0  0  0  0  0  0  0
   17.8501  -22.9020  -11.8318 O   0  0  0  0  0  0  0  0  0  0  0  0
   19.2176  -22.7800  -12.0325 C   0  0  0  0  0  0  0  0  0  0  0  0
   19.9251  -21.7809  -11.4031 C   0  0  0  0  0  0  0  0  0  0  0  0
   21.2839  -21.6504  -11.5950 C   0  0  0  0  0  0  0  0  0  0  0  0
   21.9939  -22.5190  -12.4291 C   0  0  0  0  0  0  0  0  0  0  0  0
   23.4485  -22.3596  -12.6403 C   0  0  0  0  0  0  0  0  0  0  0  0
   23.7004  -21.6235  -13.9180 C   0  0  2  0  0  0  0  0  0  0  0  0
   25.1401  -21.4043  -14.1103 N   0  0  0  0  0  0  0  0  0  0  0  0
   23.0244  -20.3291  -14.0118 C   0  0  0  0  0  0  0  0  0  0  0  0
   23.6170  -19.2012  -13.4310 O   0  0  0  0  0  0  0  0  0  0  0  0
   21.2429  -23.5059  -13.0398 C   0  0  0  0  0  0  0  0  0  0  0  0
   19.8904  -23.6522  -12.8614 C   0  0  0  0  0  0  0  0  0  0  0  0
   21.9137  -20.1485  -14.5947 O   0  0  0  0  0  0  0  0  0  0  0  0
  1  2  1  0
  3  2  1  0
  4  5  1  0
  4  3  1  0
  5  6  1  1
  5  1  1  0
  6  7  2  0
  9  8  1  1
  9 10  1  0
 11  9  1  0
 12 11  1  6
 13 12  1  0
 13  6  1  0
 14 12  1  0
 14 15  2  0
 16 17  1  0
 17 18  2  0
 17 27  1  0
 18 19  1  0
 19 20  2  0
 20 21  1  0
 22 21  1  1
 22 23  1  0
 22 24  1  0
 23 14  1  0
 24 28  2  0
 24 25  1  0
 26 20  1  0
 27 26  2  0
M  END
$$$$
