PLY.pdb
     RDKit          3D

 28 29  0  0  1  0  0  0  0  0999 V2000
   27.6485  -19.7167  -15.8689 N   0  0  0  0  0  0  0  0  0  0  0  0
   29.0553  -19.4158  -15.8466 C   0  0  0  0  0  0  0  0  0  0  0  0
   29.7897  -20.7258  -16.0005 C   0  0  0  0  0  0  0  0  0  0  0  0
   28.8068  -21.7600  -15.5025 C   0  0  0  0  0  0  0  0  0  0  0  0
   27.4812  -21.1248  -15.7507 C   0  0  1  0  0  0  0  0  0  0  0  0
   26.4634  -21.4417  -14.7238 C   0  0  0  0  0  0  0  0  0  0  0  0
   25.7401  -22.4510  -14.8050 O   0  0  0  0  0  0  0  0  0  0  0  0
   26.5858  -20.1533   -9.0524 C   0  0  0  0  0  0  0  0  0  0  0  0
   25.9855  -21.0520  -10.1601 C   0  0  1  0  0  0  0  0  0  0  0  0
   24.8157  -21.7351   -9.5533 C   0  0  0  0  0  0  0  0  0  0  0  0
   25.7475  -20.1580  -11.3080 C   0  0  0  0  0  0  0  0  0  0  0  0
   25.2804  -20.7317  -12.5900 C   0  0  2  0  0  0  0  0  0  0  0  0
   26.2920  -20.5821  -13.6068 N   0  0  0  0  0  0  0  0  0  0  0  0
   23.9557  -20.2511  -13.0168 C   0  0  0  0  0  0  0  0  0  0  0  0
   23.7519  -19.0160  -13.0386 O   0  0  0  0  0  0  0  0  0  0  0  0
   16.2409  -19.1832  -16.9620 O   0  0  0  0  0  0  0  0  0  0  0  0
   17.4981  -19.6134  -16.5627 C   0  0  0  0  0  0  0  0  0  0  0  0
   17.6833  -20.9058  -16.1264 C   0  0  0  0  0  0  0  0  0  0  0  0
   18.9279  -21.3441  -15.7275 C   0  0  0  0  0  0  0  0  0  0  0  0
   20.0439  -20.5024  -15.7492 C   0  0  0  0  0  0  0  0  0  0  0  0
   21.3709  -20.9786  -15.3038 C   0  0  0  0  0  0  0  0  0  0  0  0
   21.5976  -20.5937  -13.8761 C   0  0  2  0  0  0  0  0  0  0  0  0
   22.8932  -21.1017  -13.4058 N   0  0  0  0  0  0  0  0  0  0  0  0
   20.5617  -21.0600  -12.9538 C   0  0  0  0  0  0  0  0  0  0  0  0
   19.4813  -20.2212  -12.6536 O   0  0  0  0  0  0  0  0  0  0  0  0
   19.8108  -19.2145  -16.1942 C   0  0  0  0  0  0  0  0  0  0  0  0
   18.5800  -18.7597  -16.5953 C   0  0  0  0  0  0  0  0  0  0  0  0
   20.5699  -22.1959  -12.3921 O   0  0  0  0  0  0  0  0  0  0  0  0
  1  2  1  0
  3  2  1  0
  4  5  1  0
  4  3  1  0
  5  6  1  1
  5  1  1  0
  6  7  2  0
  9  8  1  1
  9 10  1  0
 11  9  1  0
 12 11  1  1
 13 12  1  0
 13  6  1  0
 14 12  1  0
 14 15  2  0
 16 17  1  0
 17 18  2  0
 17 27  1  0
 18 19  1  0
 19 20  2  0
 20 21  1  0
 22 21  1  6
 22 23  1  0
 22 24  1  0
 23 14  1  0
 24 28  2  0
 24 25  1  0
 26 20  1  0
 27 26  2  0
M  END
$$$$
