PLY.pdb
     RDKit          3D

 28 29  0  0  1  0  0  0  0  0999 V2000
   25.9884  -22.0664  -17.6333 N   0  0  0  0  0  0  0  0  0  0  0  0
   27.1499  -22.5158  -18.3537 C   0  0  0  0  0  0  0  0  0  0  0  0
   27.7456  -23.6563  -17.5639 C   0  0  0  0  0  0  0  0  0  0  0  0
   27.2658  -23.4163  -16.1511 C   0  0  0  0  0  0  0  0  0  0  0  0
   25.9938  -22.6626  -16.3414 C   0  0  1  0  0  0  0  0  0  0  0  0
   25.7398  -21.6432  -15.2987 C   0  0  0  0  0  0  0  0  0  0  0  0
   25.7661  -21.9224  -14.0863 O   0  0  0  0  0  0  0  0  0  0  0  0
   27.6009  -16.6952  -16.0741 C   0  0  0  0  0  0  0  0  0  0  0  0
   27.2031  -18.1343  -15.6670 C   0  0  1  0  0  0  0  0  0  0  0  0
   28.3086  -18.6478  -14.8200 C   0  0  0  0  0  0  0  0  0  0  0  0
   25.8635  -18.0175  -15.0623 C   0  0  0  0  0  0  0  0  0  0  0  0
   25.0936  -19.2452  -14.7615 C   0  0  2  0  0  0  0  0  0  0  0  0
   25.4564  -20.3029  -15.6719 N   0  0  0  0  0  0  0  0  0  0  0  0
   23.6391  -19.0353  -14.6687 C   0  0  0  0  0  0  0  0  0  0  0  0
   23.2112  -18.2150  -13.8253 O   0  0  0  0  0  0  0  0  0  0  0  0
   22.5183  -13.9174  -18.1576 O   0  0  0  0  0  0  0  0  0  0  0  0
   22.0600  -15.1736  -17.7871 C   0  0  0  0  0  0  0  0  0  0  0  0
   22.7082  -16.3061  -18.2255 C   0  0  0  0  0  0  0  0  0  0  0  0
   22.2618  -17.5591  -17.8636 C   0  0  0  0  0  0  0  0  0  0  0  0
   21.1426  -17.7307  -17.0437 C   0  0  0  0  0  0  0  0  0  0  0  0
   20.6631  -19.0799  -16.6750 C   0  0  0  0  0  0  0  0  0  0  0  0
   21.2428  -19.4840  -15.3565 C   0  0  2  0  0  0  0  0  0  0  0  0
   22.6900  -19.7057  -15.4770 N   0  0  0  0  0  0  0  0  0  0  0  0
   20.6428  -20.6861  -14.7767 C   0  0  0  0  0  0  0  0  0  0  0  0
   21.4425  -21.8139  -14.5545 O   0  0  0  0  0  0  0  0  0  0  0  0
   20.5239  -16.5665  -16.6279 C   0  0  0  0  0  0  0  0  0  0  0  0
   20.9529  -15.3109  -16.9772 C   0  0  0  0  0  0  0  0  0  0  0  0
   19.4217  -20.7848  -14.4525 O   0  0  0  0  0  0  0  0  0  0  0  0
  1  2  1  0
  3  2  1  0
  4  5  1  0
  4  3  1  0
  5  6  1  1
  5  1  1  0
  6  7  2  0
  9  8  1  1
  9 10  1  0
 11  9  1  0
 12 11  1  6
 13 12  1  0
 13  6  1  0
 14 12  1  0
 14 15  2  0
 16 17  1  0
 17 18  2  0
 17 27  1  0
 18 19  1  0
 19 20  2  0
 20 21  1  0
 22 21  1  6
 22 23  1  0
 22 24  1  0
 23 14  1  0
 24 28  2  0
 24 25  1  0
 26 20  1  0
 27 26  2  0
M  END
$$$$
