PLY.pdb
     RDKit          3D

 28 29  0  0  1  0  0  0  0  0999 V2000
   27.2063  -19.4223  -15.0071 N   0  0  0  0  0  0  0  0  0  0  0  0
   28.6291  -19.2256  -14.9217 C   0  0  0  0  0  0  0  0  0  0  0  0
   29.2809  -20.4748  -15.4638 C   0  0  0  0  0  0  0  0  0  0  0  0
   28.2350  -21.5488  -15.2730 C   0  0  0  0  0  0  0  0  0  0  0  0
   26.9518  -20.7907  -15.3024 C   0  0  1  0  0  0  0  0  0  0  0  0
   25.9149  -21.3327  -14.3957 C   0  0  0  0  0  0  0  0  0  0  0  0
   25.4101  -22.4563  -14.5718 O   0  0  0  0  0  0  0  0  0  0  0  0
   25.8768  -19.9958   -9.0198 C   0  0  0  0  0  0  0  0  0  0  0  0
   25.9176  -20.7373  -10.3776 C   0  0  1  0  0  0  0  0  0  0  0  0
   26.2056  -22.1598  -10.0663 C   0  0  0  0  0  0  0  0  0  0  0  0
   24.6401  -20.4179  -11.0405 C   0  0  0  0  0  0  0  0  0  0  0  0
   24.3857  -20.9237  -12.4080 C   0  0  2  0  0  0  0  0  0  0  0  0
   25.4702  -20.5641  -13.2878 N   0  0  0  0  0  0  0  0  0  0  0  0
   23.0621  -20.5659  -12.9451 C   0  0  0  0  0  0  0  0  0  0  0  0
   22.7610  -19.3531  -13.0201 O   0  0  0  0  0  0  0  0  0  0  0  0
   15.1773  -20.6934  -16.8677 O   0  0  0  0  0  0  0  0  0  0  0  0
   16.4726  -20.9643  -16.4507 C   0  0  0  0  0  0  0  0  0  0  0  0
   17.5222  -20.1966  -16.9023 C   0  0  0  0  0  0  0  0  0  0  0  0
   18.8130  -20.4566  -16.4946 C   0  0  0  0  0  0  0  0  0  0  0  0
   19.1078  -21.5011  -15.6134 C   0  0  0  0  0  0  0  0  0  0  0  0
   20.4981  -21.7810  -15.1955 C   0  0  0  0  0  0  0  0  0  0  0  0
   20.7754  -21.1284  -13.8781 C   0  0  2  0  0  0  0  0  0  0  0  0
   22.1046  -21.5115  -13.3839 N   0  0  0  0  0  0  0  0  0  0  0  0
   19.7947  -21.4330  -12.8358 C   0  0  0  0  0  0  0  0  0  0  0  0
   19.9426  -22.5981  -12.0732 O   0  0  0  0  0  0  0  0  0  0  0  0
   18.0236  -22.2449  -15.1865 C   0  0  0  0  0  0  0  0  0  0  0  0
   16.7321  -22.0018  -15.5807 C   0  0  0  0  0  0  0  0  0  0  0  0
   18.7958  -20.7018  -12.5649 O   0  0  0  0  0  0  0  0  0  0  0  0
  1  2  1  0
  3  2  1  0
  4  5  1  0
  4  3  1  0
  5  6  1  1
  5  1  1  0
  6  7  2  0
  9  8  1  1
  9 10  1  0
 11  9  1  0
 12 11  1  1
 13 12  1  0
 13  6  1  0
 14 12  1  0
 14 15  2  0
 16 17  1  0
 17 18  2  0
 17 27  1  0
 18 19  1  0
 19 20  2  0
 20 21  1  0
 22 21  1  6
 22 23  1  0
 22 24  1  0
 23 14  1  0
 24 28  2  0
 24 25  1  0
 26 20  1  0
 27 26  2  0
M  END
$$$$
