PLY.pdb
     RDKit          3D

 28 29  0  0  1  0  0  0  0  0999 V2000
   26.5945  -18.8931  -14.6938 N   0  0  0  0  0  0  0  0  0  0  0  0
   27.8624  -18.2268  -14.8303 C   0  0  0  0  0  0  0  0  0  0  0  0
   28.7319  -19.1053  -15.6971 C   0  0  0  0  0  0  0  0  0  0  0  0
   28.1508  -20.4890  -15.5196 C   0  0  0  0  0  0  0  0  0  0  0  0
   26.7235  -20.2237  -15.1813 C   0  0  1  0  0  0  0  0  0  0  0  0
   26.1472  -21.1874  -14.2169 C   0  0  0  0  0  0  0  0  0  0  0  0
   26.0572  -22.4013  -14.4751 O   0  0  0  0  0  0  0  0  0  0  0  0
   26.9893  -20.3268   -9.0115 C   0  0  0  0  0  0  0  0  0  0  0  0
   26.8641  -20.6555  -10.5185 C   0  0  1  0  0  0  0  0  0  0  0  0
   28.1289  -21.3302  -10.9037 C   0  0  0  0  0  0  0  0  0  0  0  0
   25.6059  -21.4117  -10.6546 C   0  0  0  0  0  0  0  0  0  0  0  0
   24.9786  -21.5427  -11.9887 C   0  0  2  0  0  0  0  0  0  0  0  0
   25.6783  -20.7337  -12.9558 N   0  0  0  0  0  0  0  0  0  0  0  0
   23.5230  -21.3204  -11.9933 C   0  0  0  0  0  0  0  0  0  0  0  0
   22.9727  -20.9750  -10.9232 O   0  0  0  0  0  0  0  0  0  0  0  0
   15.6105  -18.2304  -13.0185 O   0  0  0  0  0  0  0  0  0  0  0  0
   16.9516  -18.5834  -12.9719 C   0  0  0  0  0  0  0  0  0  0  0  0
   17.5047  -19.0567  -11.8036 C   0  0  0  0  0  0  0  0  0  0  0  0
   18.8358  -19.4104  -11.7459 C   0  0  0  0  0  0  0  0  0  0  0  0
   19.6721  -19.3043  -12.8611 C   0  0  0  0  0  0  0  0  0  0  0  0
   21.1022  -19.6713  -12.7834 C   0  0  0  0  0  0  0  0  0  0  0  0
   21.2797  -21.1106  -13.1508 C   0  0  2  0  0  0  0  0  0  0  0  0
   22.7031  -21.4734  -13.1370 N   0  0  0  0  0  0  0  0  0  0  0  0
   20.7285  -21.4720  -14.4572 C   0  0  0  0  0  0  0  0  0  0  0  0
   21.5031  -21.2767  -15.6073 O   0  0  0  0  0  0  0  0  0  0  0  0
   19.0741  -18.8245  -14.0114 C   0  0  0  0  0  0  0  0  0  0  0  0
   17.7516  -18.4675  -14.0887 C   0  0  0  0  0  0  0  0  0  0  0  0
   19.5722  -21.9613  -14.6295 O   0  0  0  0  0  0  0  0  0  0  0  0
  1  2  1  0
  3  2  1  0
  4  5  1  0
  4  3  1  0
  5  6  1  1
  5  1  1  0
  6  7  2  0
  9  8  1  1
  9 10  1  0
 11  9  1  0
 12 11  1  1
 13 12  1  0
 13  6  1  0
 14 12  1  0
 14 15  2  0
 16 17  1  0
 17 18  2  0
 17 27  1  0
 18 19  1  0
 19 20  2  0
 20 21  1  0
 22 21  1  6
 22 23  1  0
 22 24  1  0
 23 14  1  0
 24 28  2  0
 24 25  1  0
 26 20  1  0
 27 26  2  0
M  END
$$$$
