PLY.pdb
     RDKit          3D

 28 29  0  0  1  0  0  0  0  0999 V2000
   20.8057  -12.3681  -21.6356 N   0  0  0  0  0  0  0  0  0  0  0  0
   19.9328  -11.7789  -22.6159 C   0  0  0  0  0  0  0  0  0  0  0  0
   19.1286  -10.7148  -21.9086 C   0  0  0  0  0  0  0  0  0  0  0  0
   19.1387  -11.1469  -20.4605 C   0  0  0  0  0  0  0  0  0  0  0  0
   20.3999  -11.9329  -20.3431 C   0  0  1  0  0  0  0  0  0  0  0  0
   20.3054  -13.0821  -19.4150 C   0  0  0  0  0  0  0  0  0  0  0  0
   19.9052  -14.1989  -19.7905 O   0  0  0  0  0  0  0  0  0  0  0  0
   23.5504  -13.6701  -17.2169 C   0  0  0  0  0  0  0  0  0  0  0  0
   22.8764  -14.2316  -15.9419 C   0  0  1  0  0  0  0  0  0  0  0  0
   23.7834  -13.9043  -14.8134 C   0  0  0  0  0  0  0  0  0  0  0  0
   21.5182  -13.6584  -15.9282 C   0  0  0  0  0  0  0  0  0  0  0  0
   20.5942  -13.9543  -17.0458 C   0  0  2  0  0  0  0  0  0  0  0  0
   20.6774  -12.9262  -18.0536 N   0  0  0  0  0  0  0  0  0  0  0  0
   19.2127  -14.2408  -16.6244 C   0  0  0  0  0  0  0  0  0  0  0  0
   18.4476  -13.2746  -16.4048 O   0  0  0  0  0  0  0  0  0  0  0  0
   18.0930  -20.9046  -19.8045 O   0  0  0  0  0  0  0  0  0  0  0  0
   17.7066  -19.7154  -19.2031 C   0  0  0  0  0  0  0  0  0  0  0  0
   16.8888  -19.7312  -18.0959 C   0  0  0  0  0  0  0  0  0  0  0  0
   16.4988  -18.5559  -17.4903 C   0  0  0  0  0  0  0  0  0  0  0  0
   16.9135  -17.3102  -17.9705 C   0  0  0  0  0  0  0  0  0  0  0  0
   16.4758  -16.0554  -17.3226 C   0  0  0  0  0  0  0  0  0  0  0  0
   17.2919  -15.8046  -16.0941 C   0  0  2  0  0  0  0  0  0  0  0  0
   18.6931  -15.5460  -16.4512 N   0  0  0  0  0  0  0  0  0  0  0  0
   17.2625  -16.8939  -15.1176 C   0  0  0  0  0  0  0  0  0  0  0  0
   18.4677  -17.4585  -14.6821 O   0  0  0  0  0  0  0  0  0  0  0  0
   17.7329  -17.3429  -19.0833 C   0  0  0  0  0  0  0  0  0  0  0  0
   18.1320  -18.5018  -19.7000 C   0  0  0  0  0  0  0  0  0  0  0  0
   16.1999  -17.3768  -14.6241 O   0  0  0  0  0  0  0  0  0  0  0  0
  1  2  1  0
  3  2  1  0
  4  5  1  0
  4  3  1  0
  5  6  1  1
  5  1  1  0
  6  7  2  0
  9  8  1  6
  9 10  1  0
 11  9  1  0
 12 11  1  1
 13 12  1  0
 13  6  1  0
 14 12  1  0
 14 15  2  0
 16 17  1  0
 17 18  2  0
 17 27  1  0
 18 19  1  0
 19 20  2  0
 20 21  1  0
 22 21  1  6
 22 23  1  0
 22 24  1  0
 23 14  1  0
 24 28  2  0
 24 25  1  0
 26 20  1  0
 27 26  2  0
M  END
$$$$
