TRT.pdb
     RDKit          3D

 26 25  0  0  1  0  0  0  0  0999 V2000
   27.0225  -17.9123  -16.0235 C   0  0  0  0  0  0  0  0  0  0  0  0
   27.2900  -19.0665  -16.9774 C   0  0  1  0  0  0  0  0  0  0  0  0
   28.1353  -18.6215  -17.9643 O   0  0  0  0  0  0  0  0  0  0  0  0
   27.8055  -20.2790  -16.2278 C   0  0  2  0  0  0  0  0  0  0  0  0
   28.0879  -21.3121  -17.2096 N   0  0  0  0  0  0  0  0  0  0  0  0
   26.8261  -20.7849  -15.2411 C   0  0  0  0  0  0  0  0  0  0  0  0
   25.8359  -21.4536  -15.6401 O   0  0  0  0  0  0  0  0  0  0  0  0
   22.7446  -20.0204   -9.3234 N   0  0  0  0  0  0  0  0  0  0  0  0
   23.2379  -20.8706   -8.2692 C   0  0  0  0  0  0  0  0  0  0  0  0
   22.4466  -21.3301   -7.3846 N   0  0  0  0  0  0  0  0  0  0  0  0
   24.6092  -21.2236   -8.1765 N   0  0  0  0  0  0  0  0  0  0  0  0
   25.5363  -20.7286   -9.1258 C   0  0  0  0  0  0  0  0  0  0  0  0
   25.2134  -20.9925  -10.5527 C   0  0  0  0  0  0  0  0  0  0  0  0
   26.2947  -20.5090  -11.4997 C   0  0  0  0  0  0  0  0  0  0  0  0
   25.9140  -20.8391  -12.9500 C   0  0  2  0  0  0  0  0  0  0  0  0
   26.9804  -20.5316  -13.8504 N   0  0  0  0  0  0  0  0  0  0  0  0
   24.6445  -20.1226  -13.2807 C   0  0  0  0  0  0  0  0  0  0  0  0
   24.6758  -18.8707  -13.2462 O   0  0  0  0  0  0  0  0  0  0  0  0
   22.6586  -21.9258   -6.5822 C   0  0  0  0  0  0  0  0  0  0  0  0
   22.6686  -20.9201  -16.4153 C   0  0  2  0  0  0  0  0  0  0  0  0
   22.3712  -19.7186  -15.5334 O   0  0  0  0  0  0  0  0  0  0  0  0
   21.1736  -19.1533  -15.9587 C   0  0  1  0  0  0  0  0  0  0  0  0
   22.2618  -20.1346  -14.0828 N   0  0  0  0  0  0  0  0  0  0  0  0
   23.4546  -20.7976  -13.6188 C   0  0  0  0  0  0  0  0  0  0  0  0
   21.1071  -21.0570  -13.9611 O   0  0  0  0  0  0  0  0  0  0  0  0
   19.8223  -20.7264  -14.3443 O   0  0  0  0  0  0  0  0  0  0  0  0
  2  4  1  0
  2  1  1  1
  3  2  1  0
  4  6  1  0
  4  5  1  6
  6  7  2  0
  9 11  1  0
  9  8  1  0
 10  9  2  0
 12 13  1  0
 12 11  1  0
 13 14  1  0
 15 14  1  1
 16 15  1  0
 16  6  1  0
 17 15  1  0
 17 18  2  0
 20 19  1  6
 20 22  1  0
 21 20  1  0
 22 23  1  6
 22 24  1  0
 23 17  1  0
 24 26  2  0
 24 25  1  0
M  END
$$$$
