TRT.pdb
     RDKit          3D

 26 25  0  0  1  0  0  0  0  0999 V2000
   27.4606  -19.6593  -17.5736 C   0  0  0  0  0  0  0  0  0  0  0  0
   27.8753  -21.0408  -18.0564 C   0  0  1  0  0  0  0  0  0  0  0  0
   28.8858  -20.8900  -18.9742 O   0  0  0  0  0  0  0  0  0  0  0  0
   28.2355  -21.9362  -16.8876 C   0  0  2  0  0  0  0  0  0  0  0  0
   28.5547  -23.2480  -17.4244 N   0  0  0  0  0  0  0  0  0  0  0  0
   27.1302  -22.0538  -15.9113 C   0  0  0  0  0  0  0  0  0  0  0  0
   26.1306  -22.7669  -16.1923 O   0  0  0  0  0  0  0  0  0  0  0  0
   23.0611  -19.9076   -9.9902 N   0  0  0  0  0  0  0  0  0  0  0  0
   23.4811  -20.8201   -8.9565 C   0  0  0  0  0  0  0  0  0  0  0  0
   22.7004  -21.1123   -7.9948 N   0  0  0  0  0  0  0  0  0  0  0  0
   24.7668  -21.4204   -8.9697 N   0  0  0  0  0  0  0  0  0  0  0  0
   25.7153  -21.0476   -9.9530 C   0  0  0  0  0  0  0  0  0  0  0  0
   25.3574  -21.3679  -11.3599 C   0  0  0  0  0  0  0  0  0  0  0  0
   26.4731  -21.0523  -12.3373 C   0  0  0  0  0  0  0  0  0  0  0  0
   26.0753  -21.4910  -13.7538 C   0  0  2  0  0  0  0  0  0  0  0  0
   27.1740  -21.3779  -14.6609 N   0  0  0  0  0  0  0  0  0  0  0  0
   24.8827  -20.6960  -14.1779 C   0  0  0  0  0  0  0  0  0  0  0  0
   25.0077  -19.4495  -14.1871 O   0  0  0  0  0  0  0  0  0  0  0  0
   22.8489  -21.7675   -7.2252 C   0  0  0  0  0  0  0  0  0  0  0  0
   22.9509  -20.6665  -17.4145 C   0  0  2  0  0  0  0  0  0  0  0  0
   21.9717  -21.0113  -16.3046 O   0  0  0  0  0  0  0  0  0  0  0  0
   21.7925  -22.3907  -16.2963 C   0  0  2  0  0  0  0  0  0  0  0  0
   22.4991  -20.5490  -14.9640 N   0  0  0  0  0  0  0  0  0  0  0  0
   23.6634  -21.2937  -14.5548 C   0  0  0  0  0  0  0  0  0  0  0  0
   21.4202  -20.7339  -13.9637 O   0  0  0  0  0  0  0  0  0  0  0  0
   20.2072  -20.0762  -14.0187 O   0  0  0  0  0  0  0  0  0  0  0  0
  2  4  1  0
  2  1  1  1
  3  2  1  0
  4  6  1  0
  4  5  1  6
  6  7  2  0
  9 11  1  0
  9  8  1  0
 10  9  2  0
 12 13  1  0
 12 11  1  0
 13 14  1  0
 15 14  1  1
 16 15  1  0
 16  6  1  0
 17 15  1  0
 17 18  2  0
 20 19  1  6
 20 22  1  0
 21 20  1  0
 22 23  1  1
 22 24  1  0
 23 17  1  0
 24 26  2  0
 24 25  1  0
M  END
$$$$
