TRT.pdb
     RDKit          3D

 26 25  0  0  1  0  0  0  0  0999 V2000
   20.9816  -22.2110  -15.8781 C   0  0  0  0  0  0  0  0  0  0  0  0
   20.4664  -20.7854  -16.0038 C   0  0  1  0  0  0  0  0  0  0  0  0
   19.0996  -20.8318  -16.1303 O   0  0  0  0  0  0  0  0  0  0  0  0
   20.9476  -19.9328  -14.8465 C   0  0  2  0  0  0  0  0  0  0  0  0
   20.4595  -18.5822  -15.0665 N   0  0  0  0  0  0  0  0  0  0  0  0
   22.4230  -19.9170  -14.7386 C   0  0  0  0  0  0  0  0  0  0  0  0
   23.0962  -19.2480  -15.5668 O   0  0  0  0  0  0  0  0  0  0  0  0
   25.0622  -21.4856   -8.8176 N   0  0  0  0  0  0  0  0  0  0  0  0
   26.0124  -20.4018   -8.8165 C   0  0  0  0  0  0  0  0  0  0  0  0
   26.0708  -19.5934   -7.8353 N   0  0  0  0  0  0  0  0  0  0  0  0
   26.9086  -20.1952   -9.8971 N   0  0  0  0  0  0  0  0  0  0  0  0
   27.1000  -21.2105  -10.8657 C   0  0  0  0  0  0  0  0  0  0  0  0
   26.5460  -20.9358  -12.2176 C   0  0  0  0  0  0  0  0  0  0  0  0
   25.0297  -20.9286  -12.2418 C   0  0  0  0  0  0  0  0  0  0  0  0
   24.5247  -20.6265  -13.6598 C   0  0  2  0  0  0  0  0  0  0  0  0
   23.0968  -20.6422  -13.7177 N   0  0  0  0  0  0  0  0  0  0  0  0
   25.1589  -21.5960  -14.6044 C   0  0  0  0  0  0  0  0  0  0  0  0
   24.9177  -22.8107  -14.4151 O   0  0  0  0  0  0  0  0  0  0  0  0
   26.6274  -18.7422   -7.7384 C   0  0  0  0  0  0  0  0  0  0  0  0
   25.6231  -20.9488  -18.6553 C   0  0  2  0  0  0  0  0  0  0  0  0
   26.8861  -21.3966  -17.9383 O   0  0  0  0  0  0  0  0  0  0  0  0
   27.6622  -20.2712  -17.6818 C   0  0  2  0  0  0  0  0  0  0  0  0
   26.5444  -22.0973  -16.6416 N   0  0  0  0  0  0  0  0  0  0  0  0
   25.9923  -21.1910  -15.6662 C   0  0  0  0  0  0  0  0  0  0  0  0
   27.7914  -22.6956  -16.1069 O   0  0  0  0  0  0  0  0  0  0  0  0
   28.4893  -23.7025  -16.7442 O   0  0  0  0  0  0  0  0  0  0  0  0
  2  4  1  0
  2  1  1  1
  3  2  1  0
  4  6  1  0
  4  5  1  6
  6  7  2  0
  9 11  1  0
  9  8  1  0
 10  9  2  0
 12 13  1  0
 12 11  1  0
 13 14  1  0
 15 14  1  1
 16 15  1  0
 16  6  1  0
 17 15  1  0
 17 18  2  0
 20 19  1  6
 20 22  1  0
 21 20  1  0
 22 23  1  6
 22 24  1  0
 23 17  1  0
 24 26  2  0
 24 25  1  0
M  END
$$$$
