TRT.pdb
     RDKit          3D

 26 25  0  0  1  0  0  0  0  0999 V2000
   27.0087  -19.8751  -17.1900 C   0  0  0  0  0  0  0  0  0  0  0  0
   27.5280  -21.2237  -17.6647 C   0  0  1  0  0  0  0  0  0  0  0  0
   28.5004  -21.0018  -18.6088 O   0  0  0  0  0  0  0  0  0  0  0  0
   27.9901  -22.0677  -16.4935 C   0  0  2  0  0  0  0  0  0  0  0  0
   28.3465  -23.3772  -17.0124 N   0  0  0  0  0  0  0  0  0  0  0  0
   26.9423  -22.2110  -15.4590 C   0  0  0  0  0  0  0  0  0  0  0  0
   25.9111  -22.8883  -15.7134 O   0  0  0  0  0  0  0  0  0  0  0  0
   22.7716  -20.2133  -10.2514 N   0  0  0  0  0  0  0  0  0  0  0  0
   23.1794  -20.7240   -8.9667 C   0  0  0  0  0  0  0  0  0  0  0  0
   22.3140  -21.1394   -8.1310 N   0  0  0  0  0  0  0  0  0  0  0  0
   24.5455  -20.7820   -8.5871 N   0  0  0  0  0  0  0  0  0  0  0  0
   25.5611  -20.6608   -9.5666 C   0  0  0  0  0  0  0  0  0  0  0  0
   25.2351  -21.1960  -10.9147 C   0  0  0  0  0  0  0  0  0  0  0  0
   26.3939  -21.0874  -11.8868 C   0  0  0  0  0  0  0  0  0  0  0  0
   25.9808  -21.6244  -13.2645 C   0  0  2  0  0  0  0  0  0  0  0  0
   27.0761  -21.5994  -14.1823 N   0  0  0  0  0  0  0  0  0  0  0  0
   24.7997  -20.8428  -13.7422 C   0  0  0  0  0  0  0  0  0  0  0  0
   24.9627  -19.6107  -13.8998 O   0  0  0  0  0  0  0  0  0  0  0  0
   22.4611  -21.5634   -7.2133 C   0  0  0  0  0  0  0  0  0  0  0  0
   21.9297  -22.5451  -16.1548 C   0  0  2  0  0  0  0  0  0  0  0  0
   22.1441  -21.0508  -15.9794 O   0  0  0  0  0  0  0  0  0  0  0  0
   20.9978  -20.3935  -16.4139 C   0  0  1  0  0  0  0  0  0  0  0  0
   22.4151  -20.7165  -14.5289 N   0  0  0  0  0  0  0  0  0  0  0  0
   23.5506  -21.4374  -14.0107 C   0  0  0  0  0  0  0  0  0  0  0  0
   21.2067  -21.0742  -13.7474 O   0  0  0  0  0  0  0  0  0  0  0  0
   19.9553  -20.5434  -13.9910 O   0  0  0  0  0  0  0  0  0  0  0  0
  2  4  1  0
  2  1  1  1
  3  2  1  0
  4  6  1  0
  4  5  1  6
  6  7  2  0
  9 11  1  0
  9  8  1  0
 10  9  2  0
 12 13  1  0
 12 11  1  0
 13 14  1  0
 15 14  1  1
 16 15  1  0
 16  6  1  0
 17 15  1  0
 17 18  2  0
 20 19  1  6
 20 22  1  0
 21 20  1  0
 22 23  1  6
 22 24  1  0
 23 17  1  0
 24 26  2  0
 24 25  1  0
M  END
$$$$
