TRT.pdb
     RDKit          3D

 26 25  0  0  1  0  0  0  0  0999 V2000
   25.5389  -15.2828  -17.2031 C   0  0  0  0  0  0  0  0  0  0  0  0
   26.2882  -16.1973  -18.1600 C   0  0  1  0  0  0  0  0  0  0  0  0
   27.1763  -15.4338  -18.8774 O   0  0  0  0  0  0  0  0  0  0  0  0
   26.9313  -17.3497  -17.4144 C   0  0  2  0  0  0  0  0  0  0  0  0
   27.6361  -18.1627  -18.3907 N   0  0  0  0  0  0  0  0  0  0  0  0
   25.9358  -18.1800  -16.7015 C   0  0  0  0  0  0  0  0  0  0  0  0
   25.1912  -18.9539  -17.3598 O   0  0  0  0  0  0  0  0  0  0  0  0
   25.4148  -22.8002  -12.0742 N   0  0  0  0  0  0  0  0  0  0  0  0
   26.2544  -21.9255  -11.2947 C   0  0  0  0  0  0  0  0  0  0  0  0
   27.4708  -22.2258  -11.0713 N   0  0  0  0  0  0  0  0  0  0  0  0
   25.7632  -20.7102  -10.7512 N   0  0  0  0  0  0  0  0  0  0  0  0
   24.4466  -20.2803  -11.0466 C   0  0  0  0  0  0  0  0  0  0  0  0
   24.1491  -20.0262  -12.4808 C   0  0  0  0  0  0  0  0  0  0  0  0
   25.1739  -19.1261  -13.1437 C   0  0  0  0  0  0  0  0  0  0  0  0
   24.8360  -18.9449  -14.6303 C   0  0  2  0  0  0  0  0  0  0  0  0
   25.8028  -18.1223  -15.2869 N   0  0  0  0  0  0  0  0  0  0  0  0
   23.4442  -18.4105  -14.7374 C   0  0  0  0  0  0  0  0  0  0  0  0
   23.2067  -17.3288  -14.1517 O   0  0  0  0  0  0  0  0  0  0  0  0
   28.1670  -21.7154  -10.5250 C   0  0  0  0  0  0  0  0  0  0  0  0
   21.0242  -17.6943  -17.7582 C   0  0  2  0  0  0  0  0  0  0  0  0
   20.4281  -18.7432  -16.8340 O   0  0  0  0  0  0  0  0  0  0  0  0
   20.6696  -19.9967  -17.3864 C   0  0  2  0  0  0  0  0  0  0  0  0
   21.0475  -18.6556  -15.4563 N   0  0  0  0  0  0  0  0  0  0  0  0
   22.4278  -19.0707  -15.4565 C   0  0  0  0  0  0  0  0  0  0  0  0
   20.2691  -19.5361  -14.5521 O   0  0  0  0  0  0  0  0  0  0  0  0
   20.7939  -20.6573  -13.9402 O   0  0  0  0  0  0  0  0  0  0  0  0
  2  4  1  0
  2  1  1  1
  3  2  1  0
  4  6  1  0
  4  5  1  6
  6  7  2  0
  9 11  1  0
  9  8  1  0
 10  9  2  0
 12 13  1  0
 12 11  1  0
 13 14  1  0
 15 14  1  1
 16 15  1  0
 16  6  1  0
 17 15  1  0
 17 18  2  0
 20 19  1  6
 20 22  1  0
 21 20  1  0
 22 23  1  1
 22 24  1  0
 23 17  1  0
 24 26  2  0
 24 25  1  0
M  END
$$$$
