TRT.pdb
     RDKit          3D

 26 25  0  0  1  0  0  0  0  0999 V2000
   27.7239  -12.0413  -17.3606 C   0  0  0  0  0  0  0  0  0  0  0  0
   26.3253  -11.4535  -17.4700 C   0  0  1  0  0  0  0  0  0  0  0  0
   25.4174  -12.4591  -17.2444 O   0  0  0  0  0  0  0  0  0  0  0  0
   26.1655  -10.2629  -16.5455 C   0  0  2  0  0  0  0  0  0  0  0  0
   26.4298  -10.7219  -15.1926 N   0  0  0  0  0  0  0  0  0  0  0  0
   24.8085   -9.6778  -16.6160 C   0  0  0  0  0  0  0  0  0  0  0  0
   24.4023   -9.1880  -17.7031 O   0  0  0  0  0  0  0  0  0  0  0  0
   16.9358  -11.6103  -15.4854 N   0  0  0  0  0  0  0  0  0  0  0  0
   16.7929  -10.1841  -15.3333 C   0  0  0  0  0  0  0  0  0  0  0  0
   15.7383   -9.5933  -15.7316 N   0  0  0  0  0  0  0  0  0  0  0  0
   17.8107   -9.3919  -14.7417 N   0  0  0  0  0  0  0  0  0  0  0  0
   19.1041   -9.9319  -14.5390 C   0  0  0  0  0  0  0  0  0  0  0  0
   20.2345   -9.1484  -15.1031 C   0  0  0  0  0  0  0  0  0  0  0  0
   21.5729   -9.8410  -14.9336 C   0  0  0  0  0  0  0  0  0  0  0  0
   22.6907   -8.9910  -15.5540 C   0  0  2  0  0  0  0  0  0  0  0  0
   23.9528   -9.6577  -15.4805 N   0  0  0  0  0  0  0  0  0  0  0  0
   22.6957   -7.6545  -14.8848 C   0  0  0  0  0  0  0  0  0  0  0  0
   23.0387   -7.6259  -13.6802 O   0  0  0  0  0  0  0  0  0  0  0  0
   15.5159   -8.5964  -15.7120 C   0  0  0  0  0  0  0  0  0  0  0  0
   24.7379   -4.5942  -15.6531 C   0  0  2  0  0  0  0  0  0  0  0  0
   23.2712   -4.2114  -15.7624 O   0  0  0  0  0  0  0  0  0  0  0  0
   22.9073   -4.2640  -17.1038 C   0  0  2  0  0  0  0  0  0  0  0  0
   22.4103   -5.1575  -14.9542 N   0  0  0  0  0  0  0  0  0  0  0  0
   22.3365   -6.4666  -15.5528 C   0  0  0  0  0  0  0  0  0  0  0  0
   21.0488   -4.5757  -14.8740 O   0  0  0  0  0  0  0  0  0  0  0  0
   19.9449   -5.1281  -15.4931 O   0  0  0  0  0  0  0  0  0  0  0  0
  2  4  1  0
  2  1  1  1
  3  2  1  0
  4  6  1  0
  4  5  1  1
  6  7  2  0
  9 11  1  0
  9  8  1  0
 10  9  2  0
 12 13  1  0
 12 11  1  0
 13 14  1  0
 15 14  1  1
 16 15  1  0
 16  6  1  0
 17 15  1  0
 17 18  2  0
 20 19  1  6
 20 22  1  0
 21 20  1  0
 22 23  1  1
 22 24  1  0
 23 17  1  0
 24 26  2  0
 24 25  1  0
M  END
$$$$
