TRT.pdb
     RDKit          3D

 26 25  0  0  1  0  0  0  0  0999 V2000
   22.4717  -21.0346  -11.1866 C   0  0  0  0  0  0  0  0  0  0  0  0
   23.6913  -20.3477  -10.5913 C   0  0  1  0  0  0  0  0  0  0  0  0
   23.4605  -20.1464   -9.2524 O   0  0  0  0  0  0  0  0  0  0  0  0
   24.9526  -21.1352  -10.8856 C   0  0  2  0  0  0  0  0  0  0  0  0
   26.0638  -20.4234  -10.2777 N   0  0  0  0  0  0  0  0  0  0  0  0
   25.1927  -21.2851  -12.3376 C   0  0  0  0  0  0  0  0  0  0  0  0
   25.8755  -20.4175  -12.9441 O   0  0  0  0  0  0  0  0  0  0  0  0
   27.2880  -25.9419  -15.8735 N   0  0  0  0  0  0  0  0  0  0  0  0
   26.9633  -26.2810  -17.2363 C   0  0  0  0  0  0  0  0  0  0  0  0
   27.8176  -26.8617  -17.9798 N   0  0  0  0  0  0  0  0  0  0  0  0
   25.6940  -25.9831  -17.7963 N   0  0  0  0  0  0  0  0  0  0  0  0
   24.6861  -25.3903  -16.9973 C   0  0  0  0  0  0  0  0  0  0  0  0
   25.0032  -24.0520  -16.4330 C   0  0  0  0  0  0  0  0  0  0  0  0
   24.6608  -23.9385  -14.9600 C   0  0  0  0  0  0  0  0  0  0  0  0
   24.9347  -22.5123  -14.4618 C   0  0  2  0  0  0  0  0  0  0  0  0
   24.6681  -22.3901  -13.0630 N   0  0  0  0  0  0  0  0  0  0  0  0
   24.1389  -21.5594  -15.2941 C   0  0  0  0  0  0  0  0  0  0  0  0
   22.8972  -21.5631  -15.1276 O   0  0  0  0  0  0  0  0  0  0  0  0
   27.7128  -27.1886  -18.9420 C   0  0  0  0  0  0  0  0  0  0  0  0
   25.0776  -17.6982  -15.9362 C   0  0  2  0  0  0  0  0  0  0  0  0
   24.8243  -18.4527  -17.2309 O   0  0  0  0  0  0  0  0  0  0  0  0
   26.0545  -18.8042  -17.7766 C   0  0  2  0  0  0  0  0  0  0  0  0
   23.9978  -19.6936  -16.9734 N   0  0  0  0  0  0  0  0  0  0  0  0
   24.7308  -20.6868  -16.2292 C   0  0  0  0  0  0  0  0  0  0  0  0
   23.6022  -20.2559  -18.2872 O   0  0  0  0  0  0  0  0  0  0  0  0
   22.8295  -19.5754  -19.2074 O   0  0  0  0  0  0  0  0  0  0  0  0
  2  4  1  0
  2  1  1  1
  3  2  1  0
  4  6  1  0
  4  5  1  1
  6  7  2  0
  9 11  1  0
  9  8  1  0
 10  9  2  0
 12 13  1  0
 12 11  1  0
 13 14  1  0
 15 14  1  6
 16 15  1  0
 16  6  1  0
 17 15  1  0
 17 18  2  0
 20 19  1  6
 20 22  1  0
 21 20  1  0
 22 23  1  6
 22 24  1  0
 23 17  1  0
 24 26  2  0
 24 25  1  0
M  END
$$$$
