CAQ.pdb
     RDKit          3D

 21 20  0  0  1  0  0  0  0  0999 V2000
    7.4161  -13.5114   18.7880 N   0  0  0  0  0  0  0  0  0  0  0  0
    8.7581  -13.9180   19.1560 C   0  0  1  0  0  0  0  0  0  0  0  0
    9.5609  -12.6653   19.4401 C   0  0  0  0  0  0  0  0  0  0  0  0
   11.2811  -13.0871   19.8287 S   0  0  0  0  0  0  0  0  0  0  0  0
    8.6704  -14.8009   20.3336 C   0  0  0  0  0  0  0  0  0  0  0  0
    7.9497  -14.4755   21.3386 O   0  0  0  0  0  0  0  0  0  0  0  0
    9.5949  -18.3144   21.3268 C   0  0  0  0  0  0  0  0  0  0  0  0
    9.2194  -16.8645   21.6125 C   0  0  2  0  0  0  0  0  0  0  0  0
    9.3510  -16.0369   20.4470 N   0  0  0  0  0  0  0  0  0  0  0  0
   10.0974  -16.4255   22.7270 C   0  0  0  0  0  0  0  0  0  0  0  0
   11.2278  -15.9600   22.4298 O   0  0  0  0  0  0  0  0  0  0  0  0
    8.7703  -13.4479   28.0509 N   0  0  0  0  0  0  0  0  0  0  0  0
    9.8827  -14.2216   28.4667 C   0  0  0  0  0  0  0  0  0  0  0  0
   10.2090  -14.2329   29.6591 O   0  0  0  0  0  0  0  0  0  0  0  0
   10.6356  -15.0024   27.4638 C   0  0  0  0  0  0  0  0  0  0  0  0
    9.8667  -15.3643   26.2426 C   0  0  0  0  0  0  0  0  0  0  0  0
   10.6433  -16.0680   25.1836 C   0  0  2  0  0  0  0  0  0  0  0  0
    9.7541  -16.4940   24.0837 N   0  0  0  0  0  0  0  0  0  0  0  0
   11.2710  -17.2906   25.7023 C   0  0  0  0  0  0  0  0  0  0  0  0
   10.6747  -18.3813   25.6219 O   0  0  0  0  0  0  0  0  0  0  0  0
   12.5174  -17.2404   26.2785 O   0  0  0  0  0  0  0  0  0  0  0  0
  2  5  1  0
  2  1  1  1
  3  2  1  0
  4  3  1  0
  5  6  2  0
  8  7  1  6
  8 10  1  0
  9  5  1  0
  9  8  1  0
 10 11  2  0
 12 13  1  0
 13 14  2  0
 15 13  1  0
 15 16  1  0
 17 16  1  1
 17 19  1  0
 18 17  1  0
 18 10  1  0
 19 20  2  0
 19 21  1  0
M  END
$$$$
