CAQ.pdb
     RDKit          3D

 21 20  0  0  1  0  0  0  0  0999 V2000
    8.0922  -14.8304   20.8561 N   0  0  0  0  0  0  0  0  0  0  0  0
    7.1051  -14.8431   21.9178 C   0  0  1  0  0  0  0  0  0  0  0  0
    6.6328  -16.2713   22.0951 C   0  0  0  0  0  0  0  0  0  0  0  0
    7.9117  -17.2676   22.9074 S   0  0  0  0  0  0  0  0  0  0  0  0
    7.7307  -14.3086   23.1412 C   0  0  0  0  0  0  0  0  0  0  0  0
    8.9885  -14.4321   23.3362 O   0  0  0  0  0  0  0  0  0  0  0  0
    6.7496  -12.2758   26.1875 C   0  0  0  0  0  0  0  0  0  0  0  0
    7.6808  -13.1272   25.3315 C   0  0  2  0  0  0  0  0  0  0  0  0
    7.0188  -13.6387   24.1650 N   0  0  0  0  0  0  0  0  0  0  0  0
    8.1848  -14.2045   26.2209 C   0  0  0  0  0  0  0  0  0  0  0  0
    7.4577  -15.2193   26.3770 O   0  0  0  0  0  0  0  0  0  0  0  0
   11.3342  -18.2767   26.6011 N   0  0  0  0  0  0  0  0  0  0  0  0
   11.5961  -17.3264   25.5826 C   0  0  0  0  0  0  0  0  0  0  0  0
   11.8284  -17.7117   24.4311 O   0  0  0  0  0  0  0  0  0  0  0  0
   11.5877  -15.8875   25.9170 C   0  0  0  0  0  0  0  0  0  0  0  0
   11.3501  -15.5773   27.3525 C   0  0  0  0  0  0  0  0  0  0  0  0
    9.9364  -15.2796   27.7166 C   0  0  2  0  0  0  0  0  0  0  0  0
    9.4117  -14.1685   26.8967 N   0  0  0  0  0  0  0  0  0  0  0  0
    9.8230  -14.8475   29.1160 C   0  0  0  0  0  0  0  0  0  0  0  0
   10.1018  -15.6373   30.0381 O   0  0  0  0  0  0  0  0  0  0  0  0
    9.4096  -13.5723   29.4176 O   0  0  0  0  0  0  0  0  0  0  0  0
  2  5  1  0
  2  1  1  6
  3  2  1  0
  4  3  1  0
  5  6  2  0
  8  7  1  1
  8 10  1  0
  9  5  1  0
  9  8  1  0
 10 11  2  0
 12 13  1  0
 13 14  2  0
 15 13  1  0
 15 16  1  0
 17 16  1  6
 17 19  1  0
 18 17  1  0
 18 10  1  0
 19 20  2  0
 19 21  1  0
M  END
$$$$
