CAQ.pdb
     RDKit          3D

 21 20  0  0  1  0  0  0  0  0999 V2000
    6.6499  -14.5176   19.2371 N   0  0  0  0  0  0  0  0  0  0  0  0
    8.0418  -14.3210   19.5917 C   0  0  1  0  0  0  0  0  0  0  0  0
    8.2310  -12.8578   19.9345 C   0  0  0  0  0  0  0  0  0  0  0  0
    8.0960  -11.8332   18.4444 S   0  0  0  0  0  0  0  0  0  0  0  0
    8.3616  -15.2041   20.7283 C   0  0  0  0  0  0  0  0  0  0  0  0
    7.5965  -15.2501   21.7519 O   0  0  0  0  0  0  0  0  0  0  0  0
   10.5568  -18.1305   21.5219 C   0  0  0  0  0  0  0  0  0  0  0  0
    9.7595  -16.8904   21.9106 C   0  0  2  0  0  0  0  0  0  0  0  0
    9.4998  -16.0439   20.7806 N   0  0  0  0  0  0  0  0  0  0  0  0
   10.5511  -16.2080   22.9656 C   0  0  0  0  0  0  0  0  0  0  0  0
   11.4331  -15.3907   22.5957 O   0  0  0  0  0  0  0  0  0  0  0  0
    8.8277  -14.5206   28.7483 N   0  0  0  0  0  0  0  0  0  0  0  0
   10.2379  -14.4513   28.8722 C   0  0  0  0  0  0  0  0  0  0  0  0
   10.7415  -14.0992   29.9450 O   0  0  0  0  0  0  0  0  0  0  0  0
   11.0836  -14.8012   27.7126 C   0  0  0  0  0  0  0  0  0  0  0  0
   10.3668  -15.4616   26.5886 C   0  0  0  0  0  0  0  0  0  0  0  0
   11.1927  -15.7418   25.3806 C   0  0  2  0  0  0  0  0  0  0  0  0
   10.3835  -16.4113   24.3418 N   0  0  0  0  0  0  0  0  0  0  0  0
   12.3020  -16.6540   25.6896 C   0  0  0  0  0  0  0  0  0  0  0  0
   13.4193  -16.1970   25.9970 O   0  0  0  0  0  0  0  0  0  0  0  0
   12.1158  -18.0145   25.6419 O   0  0  0  0  0  0  0  0  0  0  0  0
  2  5  1  0
  2  1  1  1
  3  2  1  0
  4  3  1  0
  5  6  2  0
  8  7  1  6
  8 10  1  0
  9  5  1  0
  9  8  1  0
 10 11  2  0
 12 13  1  0
 13 14  2  0
 15 13  1  0
 15 16  1  0
 17 16  1  1
 17 19  1  0
 18 17  1  0
 18 10  1  0
 19 20  2  0
 19 21  1  0
M  END
$$$$
