CAQ.pdb
     RDKit          3D

 21 20  0  0  1  0  0  0  0  0999 V2000
    7.8635  -15.3966   19.5936 N   0  0  0  0  0  0  0  0  0  0  0  0
    6.9156  -14.9465   20.5939 C   0  0  1  0  0  0  0  0  0  0  0  0
    5.8104  -15.9783   20.6832 C   0  0  0  0  0  0  0  0  0  0  0  0
    6.4669  -17.5642   21.2680 S   0  0  0  0  0  0  0  0  0  0  0  0
    7.6305  -14.7856   21.8733 C   0  0  0  0  0  0  0  0  0  0  0  0
    8.7690  -15.3385   22.0566 O   0  0  0  0  0  0  0  0  0  0  0  0
    7.1772  -12.9798   25.1813 C   0  0  0  0  0  0  0  0  0  0  0  0
    7.9016  -13.8584   24.1674 C   0  0  2  0  0  0  0  0  0  0  0  0
    7.1358  -14.0338   22.9659 N   0  0  0  0  0  0  0  0  0  0  0  0
    8.1783  -15.1422   24.8609 C   0  0  0  0  0  0  0  0  0  0  0  0
    7.2627  -16.0049   24.8774 O   0  0  0  0  0  0  0  0  0  0  0  0
   11.0746  -18.9288   22.8436 N   0  0  0  0  0  0  0  0  0  0  0  0
   11.6730  -19.3644   24.0524 C   0  0  0  0  0  0  0  0  0  0  0  0
   12.1511  -20.5023   24.1233 O   0  0  0  0  0  0  0  0  0  0  0  0
   11.7136  -18.4479   25.2102 C   0  0  0  0  0  0  0  0  0  0  0  0
   11.1019  -17.1121   24.9761 C   0  0  0  0  0  0  0  0  0  0  0  0
    9.8545  -16.8371   25.7432 C   0  0  2  0  0  0  0  0  0  0  0  0
    9.3863  -15.4579   25.4966 N   0  0  0  0  0  0  0  0  0  0  0  0
   10.0815  -16.9419   27.1908 C   0  0  0  0  0  0  0  0  0  0  0  0
   10.3342  -18.0481   27.7048 O   0  0  0  0  0  0  0  0  0  0  0  0
   10.0169  -15.8236   27.9864 O   0  0  0  0  0  0  0  0  0  0  0  0
  2  5  1  0
  2  1  1  6
  3  2  1  0
  4  3  1  0
  5  6  2  0
  8  7  1  1
  8 10  1  0
  9  5  1  0
  9  8  1  0
 10 11  2  0
 12 13  1  0
 13 14  2  0
 15 13  1  0
 15 16  1  0
 17 16  1  6
 17 19  1  0
 18 17  1  0
 18 10  1  0
 19 20  2  0
 19 21  1  0
M  END
$$$$
