CAQ.pdb
     RDKit          3D

 21 20  0  0  1  0  0  0  0  0999 V2000
    7.0637  -13.9786   18.4790 N   0  0  0  0  0  0  0  0  0  0  0  0
    8.2953  -14.2055   19.2093 C   0  0  1  0  0  0  0  0  0  0  0  0
    8.5042  -13.0310   20.1427 C   0  0  0  0  0  0  0  0  0  0  0  0
    9.1067  -11.5882   19.2242 S   0  0  0  0  0  0  0  0  0  0  0  0
    8.1754  -15.4810   19.9391 C   0  0  0  0  0  0  0  0  0  0  0  0
    7.1097  -15.7618   20.5878 O   0  0  0  0  0  0  0  0  0  0  0  0
    9.9998  -18.7688   20.2312 C   0  0  0  0  0  0  0  0  0  0  0  0
    9.0133  -17.7010   20.6908 C   0  0  2  0  0  0  0  0  0  0  0  0
    9.1914  -16.4656   19.9817 N   0  0  0  0  0  0  0  0  0  0  0  0
    9.2199  -17.5545   22.1542 C   0  0  0  0  0  0  0  0  0  0  0  0
    9.9563  -16.6134   22.5476 O   0  0  0  0  0  0  0  0  0  0  0  0
    6.0394  -20.6192   26.8015 N   0  0  0  0  0  0  0  0  0  0  0  0
    6.9329  -19.7989   27.5349 C   0  0  0  0  0  0  0  0  0  0  0  0
    6.9073  -19.8184   28.7708 O   0  0  0  0  0  0  0  0  0  0  0  0
    7.8812  -18.9315   26.8065 C   0  0  0  0  0  0  0  0  0  0  0  0
    7.8195  -19.0387   25.3240 C   0  0  0  0  0  0  0  0  0  0  0  0
    8.7724  -18.1679   24.5800 C   0  0  2  0  0  0  0  0  0  0  0  0
    8.6521  -18.3907   23.1247 N   0  0  0  0  0  0  0  0  0  0  0  0
   10.1654  -18.4764   24.9298 C   0  0  0  0  0  0  0  0  0  0  0  0
   10.7834  -19.3627   24.3099 O   0  0  0  0  0  0  0  0  0  0  0  0
   10.7954  -17.7914   25.9406 O   0  0  0  0  0  0  0  0  0  0  0  0
  2  5  1  0
  2  1  1  1
  3  2  1  0
  4  3  1  0
  5  6  2  0
  8  7  1  6
  8 10  1  0
  9  5  1  0
  9  8  1  0
 10 11  2  0
 12 13  1  0
 13 14  2  0
 15 13  1  0
 15 16  1  0
 17 16  1  1
 17 19  1  0
 18 17  1  0
 18 10  1  0
 19 20  2  0
 19 21  1  0
M  END
$$$$
