CAQ.pdb
     RDKit          3D

 21 20  0  0  1  0  0  0  0  0999 V2000
    7.2072  -15.0001   18.7989 N   0  0  0  0  0  0  0  0  0  0  0  0
    8.4774  -14.7089   19.4341 C   0  0  1  0  0  0  0  0  0  0  0  0
    8.5722  -13.2080   19.6150 C   0  0  0  0  0  0  0  0  0  0  0  0
    8.8080  -12.3884   18.0147 S   0  0  0  0  0  0  0  0  0  0  0  0
    8.5304  -15.4282   20.7200 C   0  0  0  0  0  0  0  0  0  0  0  0
    7.5315  -15.4085   21.5183 O   0  0  0  0  0  0  0  0  0  0  0  0
   10.8283  -17.8030   22.5684 C   0  0  0  0  0  0  0  0  0  0  0  0
    9.6550  -16.8385   22.4352 C   0  0  2  0  0  0  0  0  0  0  0  0
    9.6493  -16.1734   21.1631 N   0  0  0  0  0  0  0  0  0  0  0  0
    9.7707  -15.8923   23.5740 C   0  0  0  0  0  0  0  0  0  0  0  0
   10.5267  -14.8969   23.4303 O   0  0  0  0  0  0  0  0  0  0  0  0
    5.4573  -12.7969   26.0514 N   0  0  0  0  0  0  0  0  0  0  0  0
    6.4791  -12.4559   26.9727 C   0  0  0  0  0  0  0  0  0  0  0  0
    6.2878  -11.5488   27.7907 O   0  0  0  0  0  0  0  0  0  0  0  0
    7.7591  -13.1924   26.9379 C   0  0  0  0  0  0  0  0  0  0  0  0
    7.8588  -14.2294   25.8758 C   0  0  0  0  0  0  0  0  0  0  0  0
    9.1212  -15.0208   25.8717 C   0  0  2  0  0  0  0  0  0  0  0  0
    9.0973  -16.0316   24.7948 N   0  0  0  0  0  0  0  0  0  0  0  0
    9.2930  -15.7622   27.1282 C   0  0  0  0  0  0  0  0  0  0  0  0
    8.9902  -16.9690   27.1877 O   0  0  0  0  0  0  0  0  0  0  0  0
    9.7879  -15.1317   28.2442 O   0  0  0  0  0  0  0  0  0  0  0  0
  2  5  1  0
  2  1  1  1
  3  2  1  0
  4  3  1  0
  5  6  2  0
  8  7  1  6
  8 10  1  0
  9  5  1  0
  9  8  1  0
 10 11  2  0
 12 13  1  0
 13 14  2  0
 15 13  1  0
 15 16  1  0
 17 16  1  1
 17 19  1  0
 18 17  1  0
 18 10  1  0
 19 20  2  0
 19 21  1  0
M  END
$$$$
