CAQ.pdb
     RDKit          3D

 21 20  0  0  1  0  0  0  0  0999 V2000
    7.4632  -13.9090   17.9360 N   0  0  0  0  0  0  0  0  0  0  0  0
    8.6996  -14.4251   18.4898 C   0  0  1  0  0  0  0  0  0  0  0  0
    9.6736  -13.2709   18.6052 C   0  0  0  0  0  0  0  0  0  0  0  0
    9.0227  -11.9990   19.7218 S   0  0  0  0  0  0  0  0  0  0  0  0
    8.4039  -15.0359   19.7988 C   0  0  0  0  0  0  0  0  0  0  0  0
    7.4149  -14.6274   20.4990 O   0  0  0  0  0  0  0  0  0  0  0  0
    9.5011  -18.0286   21.8305 C   0  0  0  0  0  0  0  0  0  0  0  0
    8.7775  -16.7053   21.6068 C   0  0  2  0  0  0  0  0  0  0  0  0
    9.1613  -16.0867   20.3696 N   0  0  0  0  0  0  0  0  0  0  0  0
    9.0906  -15.8620   22.7885 C   0  0  0  0  0  0  0  0  0  0  0  0
   10.1052  -15.1210   22.7233 O   0  0  0  0  0  0  0  0  0  0  0  0
    5.0922  -12.5465   25.8500 N   0  0  0  0  0  0  0  0  0  0  0  0
    6.1946  -12.3772   26.7246 C   0  0  0  0  0  0  0  0  0  0  0  0
    6.1733  -11.4739   27.5685 O   0  0  0  0  0  0  0  0  0  0  0  0
    7.3539  -13.2857   26.6109 C   0  0  0  0  0  0  0  0  0  0  0  0
    7.2560  -14.2963   25.5234 C   0  0  0  0  0  0  0  0  0  0  0  0
    8.5525  -14.8711   25.0665 C   0  0  2  0  0  0  0  0  0  0  0  0
    8.3352  -15.8348   23.9683 N   0  0  0  0  0  0  0  0  0  0  0  0
    9.2170  -15.6173   26.1433 C   0  0  0  0  0  0  0  0  0  0  0  0
    9.0406  -16.8455   26.2532 O   0  0  0  0  0  0  0  0  0  0  0  0
   10.0361  -14.9677   27.0350 O   0  0  0  0  0  0  0  0  0  0  0  0
  2  5  1  0
  2  1  1  1
  3  2  1  0
  4  3  1  0
  5  6  2  0
  8  7  1  1
  8 10  1  0
  9  5  1  0
  9  8  1  0
 10 11  2  0
 12 13  1  0
 13 14  2  0
 15 13  1  0
 15 16  1  0
 17 16  1  1
 17 19  1  0
 18 17  1  0
 18 10  1  0
 19 20  2  0
 19 21  1  0
M  END
$$$$
