CAQ.pdb
     RDKit          3D

 21 20  0  0  1  0  0  0  0  0999 V2000
    2.7676  -20.2971   21.4920 N   0  0  0  0  0  0  0  0  0  0  0  0
    3.7365  -19.2298   21.3374 C   0  0  1  0  0  0  0  0  0  0  0  0
    3.0166  -18.0302   20.7569 C   0  0  0  0  0  0  0  0  0  0  0  0
    2.8672  -18.1884   18.9566 S   0  0  0  0  0  0  0  0  0  0  0  0
    4.3242  -18.9399   22.6582 C   0  0  0  0  0  0  0  0  0  0  0  0
    3.5845  -18.5626   23.6308 O   0  0  0  0  0  0  0  0  0  0  0  0
    7.2453  -19.7362   24.7328 C   0  0  0  0  0  0  0  0  0  0  0  0
    6.2306  -18.7095   24.2419 C   0  0  2  0  0  0  0  0  0  0  0  0
    5.7048  -19.0504   22.9504 N   0  0  0  0  0  0  0  0  0  0  0  0
    6.9355  -17.4024   24.2448 C   0  0  0  0  0  0  0  0  0  0  0  0
    7.6447  -17.1204   23.2446 O   0  0  0  0  0  0  0  0  0  0  0  0
    6.6778  -11.1377   27.9303 N   0  0  0  0  0  0  0  0  0  0  0  0
    6.5418  -11.7799   26.6741 C   0  0  0  0  0  0  0  0  0  0  0  0
    5.6388  -11.4333   25.9041 O   0  0  0  0  0  0  0  0  0  0  0  0
    7.4842  -12.8565   26.3068 C   0  0  0  0  0  0  0  0  0  0  0  0
    6.8862  -14.2167   26.2318 C   0  0  0  0  0  0  0  0  0  0  0  0
    7.5136  -15.1370   25.2421 C   0  0  2  0  0  0  0  0  0  0  0  0
    6.8653  -16.4636   25.2826 N   0  0  0  0  0  0  0  0  0  0  0  0
    8.9330  -15.3632   25.5453 C   0  0  0  0  0  0  0  0  0  0  0  0
    9.2759  -16.3409   26.2368 O   0  0  0  0  0  0  0  0  0  0  0  0
    9.8906  -14.5002   25.0696 O   0  0  0  0  0  0  0  0  0  0  0  0
  2  5  1  0
  2  1  1  1
  3  2  1  0
  4  3  1  0
  5  6  2  0
  8  7  1  6
  8 10  1  0
  9  5  1  0
  9  8  1  0
 10 11  2  0
 12 13  1  0
 13 14  2  0
 15 13  1  0
 15 16  1  0
 17 16  1  1
 17 19  1  0
 18 17  1  0
 18 10  1  0
 19 20  2  0
 19 21  1  0
M  END
$$$$
