CAQ.pdb
     RDKit          3D

 21 20  0  0  1  0  0  0  0  0999 V2000
    7.4914  -14.6108   17.3586 N   0  0  0  0  0  0  0  0  0  0  0  0
    8.3891  -14.1192   18.3854 C   0  0  1  0  0  0  0  0  0  0  0  0
    7.9018  -12.7494   18.8104 C   0  0  0  0  0  0  0  0  0  0  0  0
    8.9086  -12.1125   20.1775 S   0  0  0  0  0  0  0  0  0  0  0  0
    8.3889  -15.0808   19.5030 C   0  0  0  0  0  0  0  0  0  0  0  0
    7.2894  -15.4610   20.0341 O   0  0  0  0  0  0  0  0  0  0  0  0
   10.0325  -17.9431   20.7755 C   0  0  0  0  0  0  0  0  0  0  0  0
    9.5044  -16.5655   21.1603 C   0  0  2  0  0  0  0  0  0  0  0  0
    9.5615  -15.6433   20.0617 N   0  0  0  0  0  0  0  0  0  0  0  0
   10.3193  -16.1233   22.3204 C   0  0  0  0  0  0  0  0  0  0  0  0
   11.4094  -15.5431   22.0796 O   0  0  0  0  0  0  0  0  0  0  0  0
    8.1728  -14.3058   27.9144 N   0  0  0  0  0  0  0  0  0  0  0  0
    9.5680  -14.3267   28.1637 C   0  0  0  0  0  0  0  0  0  0  0  0
    9.9975  -13.9757   29.2687 O   0  0  0  0  0  0  0  0  0  0  0  0
   10.4869  -14.7680   27.0946 C   0  0  0  0  0  0  0  0  0  0  0  0
    9.8227  -15.2311   25.8466 C   0  0  0  0  0  0  0  0  0  0  0  0
   10.7336  -15.7842   24.8053 C   0  0  2  0  0  0  0  0  0  0  0  0
    9.9585  -16.3073   23.6617 N   0  0  0  0  0  0  0  0  0  0  0  0
   11.5162  -16.9143   25.3232 C   0  0  0  0  0  0  0  0  0  0  0  0
   11.0656  -18.0731   25.2473 O   0  0  0  0  0  0  0  0  0  0  0  0
   12.7480  -16.7021   25.8939 O   0  0  0  0  0  0  0  0  0  0  0  0
  2  5  1  0
  2  1  1  6
  3  2  1  0
  4  3  1  0
  5  6  2  0
  8  7  1  6
  8 10  1  0
  9  5  1  0
  9  8  1  0
 10 11  2  0
 12 13  1  0
 13 14  2  0
 15 13  1  0
 15 16  1  0
 17 16  1  1
 17 19  1  0
 18 17  1  0
 18 10  1  0
 19 20  2  0
 19 21  1  0
M  END
$$$$
