WYE.pdb
     RDKit          3D

 36 38  0  0  1  0  0  0  0  0999 V2000
   25.8015  -23.0718  -12.0469 N   0  0  0  0  0  0  0  0  0  0  0  0
   25.3406  -21.7690  -11.7151 C   0  0  1  0  0  0  0  0  0  0  0  0
   26.3567  -20.6665  -11.8883 C   0  0  0  0  0  0  0  0  0  0  0  0
   27.4959  -20.7456  -10.9659 C   0  0  0  0  0  0  0  0  0  0  0  0
   28.7936  -21.0536  -11.3708 C   0  0  0  0  0  0  0  0  0  0  0  0
   29.5488  -21.0103  -10.2850 N   0  0  0  0  0  0  0  0  0  0  0  0
   28.8184  -20.6917   -9.1921 C   0  0  0  0  0  0  0  0  0  0  0  0
   29.1192  -20.5279   -7.8541 C   0  0  0  0  0  0  0  0  0  0  0  0
   28.1032  -20.1985   -6.9712 C   0  0  0  0  0  0  0  0  0  0  0  0
   26.8061  -20.0271   -7.3687 C   0  0  0  0  0  0  0  0  0  0  0  0
   26.5084  -20.1926   -8.7153 C   0  0  0  0  0  0  0  0  0  0  0  0
   27.5046  -20.5221   -9.6250 C   0  0  0  0  0  0  0  0  0  0  0  0
   24.1238  -21.3576  -12.4889 C   0  0  0  0  0  0  0  0  0  0  0  0
   23.8548  -22.0026  -13.5340 O   0  0  0  0  0  0  0  0  0  0  0  0
   19.3235  -23.7732   -8.0226 O   0  0  0  0  0  0  0  0  0  0  0  0
   19.7238  -22.7724   -8.9036 C   0  0  0  0  0  0  0  0  0  0  0  0
   19.2000  -22.6834  -10.1628 C   0  0  0  0  0  0  0  0  0  0  0  0
   19.6276  -21.6624  -11.0214 C   0  0  0  0  0  0  0  0  0  0  0  0
   20.5670  -20.7427  -10.6249 C   0  0  0  0  0  0  0  0  0  0  0  0
   20.9972  -19.6837  -11.5185 C   0  0  0  0  0  0  0  0  0  0  0  0
   21.9166  -20.1547  -12.6280 C   0  0  2  0  0  0  0  0  0  0  0  0
   23.2870  -20.2964  -12.0983 N   0  0  0  0  0  0  0  0  0  0  0  0
   21.9113  -19.2960  -13.8202 C   0  0  0  0  0  0  0  0  0  0  0  0
   22.2818  -18.0920  -13.7115 O   0  0  0  0  0  0  0  0  0  0  0  0
   21.0766  -20.8560   -9.3548 C   0  0  0  0  0  0  0  0  0  0  0  0
   20.6628  -21.8654   -8.4861 C   0  0  0  0  0  0  0  0  0  0  0  0
   21.5136  -19.7417  -15.0978 N   0  0  0  0  0  0  0  0  0  0  0  0
   21.4646  -18.8246  -16.2567 C   0  0  1  0  0  0  0  0  0  0  0  0
   21.5594  -19.7070  -17.4436 C   0  0  0  0  0  0  0  0  0  0  0  0
   20.5824  -20.7802  -17.6606 C   0  0  0  0  0  0  0  0  0  0  0  0
   20.9202  -22.1388  -17.2746 C   0  0  0  0  0  0  0  0  0  0  0  0
   20.7838  -22.5458  -16.1047 O   0  0  0  0  0  0  0  0  0  0  0  0
   20.2957  -17.9867  -16.1242 C   0  0  0  0  0  0  0  0  0  0  0  0
   19.1601  -18.4519  -15.4566 O   0  0  0  0  0  0  0  0  0  0  0  0
   21.4115  -23.0040  -18.2556 O   0  0  0  0  0  0  0  0  0  0  0  0
   20.2086  -16.8150  -16.5827 O   0  0  0  0  0  0  0  0  0  0  0  0
  2  3  1  0
  2  1  1  6
  4  3  1  0
  5  4  2  0
  6  5  1  0
  7 12  2  0
  7  6  1  0
  8  7  1  0
  9  8  2  0
  9 10  1  0
 10 11  2  0
 11 12  1  0
 12  4  1  0
 13  2  1  0
 14 13  2  0
 15 16  1  0
 16 17  2  0
 16 26  1  0
 17 18  1  0
 18 19  2  0
 19 20  1  0
 21 20  1  1
 21 22  1  0
 22 13  1  0
 23 21  1  0
 23 27  1  0
 24 23  2  0
 25 19  1  0
 26 25  2  0
 28 27  1  0
 28 33  1  0
 28 29  1  6
 29 30  1  0
 31 30  1  0
 32 31  2  0
 33 34  1  0
 35 31  1  0
 36 33  2  0
M  END
$$$$
