WYE.pdb
     RDKit          3D

 36 38  0  0  1  0  0  0  0  0999 V2000
   26.2774  -22.1999  -14.5796 N   0  0  0  0  0  0  0  0  0  0  0  0
   25.9053  -21.3877  -13.4743 C   0  0  1  0  0  0  0  0  0  0  0  0
   26.4944  -19.9981  -13.4732 C   0  0  0  0  0  0  0  0  0  0  0  0
   27.8899  -19.9347  -13.0221 C   0  0  0  0  0  0  0  0  0  0  0  0
   28.8861  -19.2334  -13.6991 C   0  0  0  0  0  0  0  0  0  0  0  0
   29.9969  -19.3801  -12.9951 N   0  0  0  0  0  0  0  0  0  0  0  0
   29.7839  -20.1383  -11.8955 C   0  0  0  0  0  0  0  0  0  0  0  0
   30.5921  -20.5809  -10.8667 C   0  0  0  0  0  0  0  0  0  0  0  0
   30.0417  -21.3722   -9.8711 C   0  0  0  0  0  0  0  0  0  0  0  0
   28.7240  -21.7373   -9.8619 C   0  0  0  0  0  0  0  0  0  0  0  0
   27.9150  -21.2897  -10.8985 C   0  0  0  0  0  0  0  0  0  0  0  0
   28.4367  -20.4946  -11.9106 C   0  0  0  0  0  0  0  0  0  0  0  0
   24.4213  -21.2255  -13.3331 C   0  0  0  0  0  0  0  0  0  0  0  0
   23.7002  -21.6311  -14.2798 O   0  0  0  0  0  0  0  0  0  0  0  0
   16.4596  -19.3689   -9.8842 O   0  0  0  0  0  0  0  0  0  0  0  0
   17.8268  -19.5454  -10.0784 C   0  0  0  0  0  0  0  0  0  0  0  0
   18.4404  -20.7284   -9.7753 C   0  0  0  0  0  0  0  0  0  0  0  0
   19.8184  -20.8685   -9.9843 C   0  0  0  0  0  0  0  0  0  0  0  0
   20.5724  -19.8383  -10.4899 C   0  0  0  0  0  0  0  0  0  0  0  0
   21.9977  -19.9960  -10.7108 C   0  0  0  0  0  0  0  0  0  0  0  0
   22.3492  -20.5215  -12.0886 C   0  0  2  0  0  0  0  0  0  0  0  0
   23.8154  -20.6469  -12.2031 N   0  0  0  0  0  0  0  0  0  0  0  0
   21.8128  -19.7174  -13.1951 C   0  0  0  0  0  0  0  0  0  0  0  0
   22.4799  -18.7291  -13.6157 O   0  0  0  0  0  0  0  0  0  0  0  0
   19.9302  -18.6610  -10.7852 C   0  0  0  0  0  0  0  0  0  0  0  0
   18.5593  -18.5031  -10.5842 C   0  0  0  0  0  0  0  0  0  0  0  0
   20.5810  -19.9873  -13.8268 N   0  0  0  0  0  0  0  0  0  0  0  0
   20.0903  -19.1612  -14.9507 C   0  0  1  0  0  0  0  0  0  0  0  0
   20.9796  -19.4992  -16.0870 C   0  0  0  0  0  0  0  0  0  0  0  0
   20.6732  -19.0326  -17.4441 C   0  0  0  0  0  0  0  0  0  0  0  0
   21.2770  -19.7048  -18.5810 C   0  0  0  0  0  0  0  0  0  0  0  0
   21.5145  -20.9281  -18.5748 O   0  0  0  0  0  0  0  0  0  0  0  0
   18.6735  -19.3963  -15.1029 C   0  0  0  0  0  0  0  0  0  0  0  0
   18.0637  -20.4885  -14.4809 O   0  0  0  0  0  0  0  0  0  0  0  0
   21.5956  -18.9436  -19.7087 O   0  0  0  0  0  0  0  0  0  0  0  0
   17.9033  -18.6648  -15.7830 O   0  0  0  0  0  0  0  0  0  0  0  0
  2  3  1  0
  2  1  1  6
  4  3  1  0
  5  4  2  0
  6  5  1  0
  7 12  2  0
  7  6  1  0
  8  7  1  0
  9  8  2  0
  9 10  1  0
 10 11  2  0
 11 12  1  0
 12  4  1  0
 13  2  1  0
 14 13  2  0
 15 16  1  0
 16 17  2  0
 16 26  1  0
 17 18  1  0
 18 19  2  0
 19 20  1  0
 21 20  1  1
 21 22  1  0
 22 13  1  0
 23 21  1  0
 23 27  1  0
 24 23  2  0
 25 19  1  0
 26 25  2  0
 28 27  1  0
 28 33  1  0
 28 29  1  6
 29 30  1  0
 31 30  1  0
 32 31  2  0
 33 34  1  0
 35 31  1  0
 36 33  2  0
M  END
$$$$
