WYE.pdb
     RDKit          3D

 36 38  0  0  1  0  0  0  0  0999 V2000
   28.7047  -20.5725  -10.9977 N   0  0  0  0  0  0  0  0  0  0  0  0
   27.5421  -21.2729  -10.5761 C   0  0  1  0  0  0  0  0  0  0  0  0
   26.9941  -20.8549   -9.2333 C   0  0  0  0  0  0  0  0  0  0  0  0
   28.0217  -20.5650   -8.2259 C   0  0  0  0  0  0  0  0  0  0  0  0
   29.3897  -20.6805   -8.4671 C   0  0  0  0  0  0  0  0  0  0  0  0
   30.0023  -20.3193   -7.3512 N   0  0  0  0  0  0  0  0  0  0  0  0
   29.1123  -19.9742   -6.3929 C   0  0  0  0  0  0  0  0  0  0  0  0
   29.2316  -19.5426   -5.0864 C   0  0  0  0  0  0  0  0  0  0  0  0
   28.0833  -19.2755   -4.3582 C   0  0  0  0  0  0  0  0  0  0  0  0
   26.8275  -19.4215   -4.8795 C   0  0  0  0  0  0  0  0  0  0  0  0
   26.7125  -19.8557   -6.1939 C   0  0  0  0  0  0  0  0  0  0  0  0
   27.8444  -20.1309   -6.9500 C   0  0  0  0  0  0  0  0  0  0  0  0
   26.4079  -21.1770  -11.5520 C   0  0  0  0  0  0  0  0  0  0  0  0
   26.2353  -20.0768  -12.1355 O   0  0  0  0  0  0  0  0  0  0  0  0
   20.5745  -23.6035  -17.7174 O   0  0  0  0  0  0  0  0  0  0  0  0
   21.5393  -23.5692  -16.7143 C   0  0  0  0  0  0  0  0  0  0  0  0
   22.7445  -22.9547  -16.9088 C   0  0  0  0  0  0  0  0  0  0  0  0
   23.6905  -22.9405  -15.8758 C   0  0  0  0  0  0  0  0  0  0  0  0
   23.4338  -23.5336  -14.6642 C   0  0  0  0  0  0  0  0  0  0  0  0
   24.4168  -23.5063  -13.5975 C   0  0  0  0  0  0  0  0  0  0  0  0
   24.5237  -22.1658  -12.8977 C   0  0  2  0  0  0  0  0  0  0  0  0
   25.5441  -22.2509  -11.8346 N   0  0  0  0  0  0  0  0  0  0  0  0
   23.2532  -21.6671  -12.3537 C   0  0  0  0  0  0  0  0  0  0  0  0
   23.0917  -21.6368  -11.1000 O   0  0  0  0  0  0  0  0  0  0  0  0
   22.2152  -24.1439  -14.4965 C   0  0  0  0  0  0  0  0  0  0  0  0
   21.2610  -24.1678  -15.5132 C   0  0  0  0  0  0  0  0  0  0  0  0
   22.1881  -21.2116  -13.1583 N   0  0  0  0  0  0  0  0  0  0  0  0
   20.9737  -20.6102  -12.5667 C   0  0  1  0  0  0  0  0  0  0  0  0
   21.0980  -19.1586  -12.8380 C   0  0  0  0  0  0  0  0  0  0  0  0
   20.0297  -18.2292  -12.4531 C   0  0  0  0  0  0  0  0  0  0  0  0
   20.0521  -16.8691  -12.9617 C   0  0  0  0  0  0  0  0  0  0  0  0
   19.1249  -16.0664  -12.7406 O   0  0  0  0  0  0  0  0  0  0  0  0
   19.8209  -21.3038  -13.0921 C   0  0  0  0  0  0  0  0  0  0  0  0
   19.7832  -21.7078  -14.4289 O   0  0  0  0  0  0  0  0  0  0  0  0
   21.1532  -16.4630  -13.7202 O   0  0  0  0  0  0  0  0  0  0  0  0
   18.7961  -21.5884  -12.4144 O   0  0  0  0  0  0  0  0  0  0  0  0
  2  3  1  0
  2  1  1  6
  4  3  1  0
  5  4  2  0
  6  5  1  0
  7 12  2  0
  7  6  1  0
  8  7  1  0
  9  8  2  0
  9 10  1  0
 10 11  2  0
 11 12  1  0
 12  4  1  0
 13  2  1  0
 14 13  2  0
 15 16  1  0
 16 17  2  0
 16 26  1  0
 17 18  1  0
 18 19  2  0
 19 20  1  0
 21 20  1  1
 21 22  1  0
 22 13  1  0
 23 21  1  0
 23 27  1  0
 24 23  2  0
 25 19  1  0
 26 25  2  0
 28 27  1  0
 28 33  1  0
 28 29  1  6
 29 30  1  0
 31 30  1  0
 32 31  2  0
 33 34  1  0
 35 31  1  0
 36 33  2  0
M  END
$$$$
