WYE.pdb
     RDKit          3D

 36 38  0  0  1  0  0  0  0  0999 V2000
   24.9303  -20.8181   -9.2122 N   0  0  0  0  0  0  0  0  0  0  0  0
   26.1045  -20.5274   -9.9581 C   0  0  1  0  0  0  0  0  0  0  0  0
   27.4010  -20.9118   -9.2878 C   0  0  0  0  0  0  0  0  0  0  0  0
   27.6478  -20.2264   -8.0134 C   0  0  0  0  0  0  0  0  0  0  0  0
   26.8133  -19.2356   -7.4987 C   0  0  0  0  0  0  0  0  0  0  0  0
   27.3320  -18.8700   -6.3375 N   0  0  0  0  0  0  0  0  0  0  0  0
   28.4592  -19.5654   -6.0633 C   0  0  0  0  0  0  0  0  0  0  0  0
   29.3561  -19.5594   -5.0130 C   0  0  0  0  0  0  0  0  0  0  0  0
   30.4419  -20.4197   -5.0501 C   0  0  0  0  0  0  0  0  0  0  0  0
   30.6667  -21.2807   -6.0883 C   0  0  0  0  0  0  0  0  0  0  0  0
   29.7620  -21.2834   -7.1423 C   0  0  0  0  0  0  0  0  0  0  0  0
   28.6636  -20.4337   -7.1342 C   0  0  0  0  0  0  0  0  0  0  0  0
   26.1162  -21.1660  -11.3147 C   0  0  0  0  0  0  0  0  0  0  0  0
   25.7716  -22.3727  -11.3915 O   0  0  0  0  0  0  0  0  0  0  0  0
   20.0880  -21.8740  -11.4806 O   0  0  0  0  0  0  0  0  0  0  0  0
   21.2290  -21.3935  -12.1173 C   0  0  0  0  0  0  0  0  0  0  0  0
   21.6891  -20.1269  -11.8897 C   0  0  0  0  0  0  0  0  0  0  0  0
   22.8409  -19.6784  -12.5491 C   0  0  0  0  0  0  0  0  0  0  0  0
   23.5230  -20.4869  -13.4246 C   0  0  0  0  0  0  0  0  0  0  0  0
   24.7198  -20.0162  -14.0963 C   0  0  0  0  0  0  0  0  0  0  0  0
   25.9522  -20.8502  -13.8071 C   0  0  2  0  0  0  0  0  0  0  0  0
   26.4919  -20.4800  -12.4841 N   0  0  0  0  0  0  0  0  0  0  0  0
   26.9981  -20.7563  -14.8347 C   0  0  0  0  0  0  0  0  0  0  0  0
   27.7037  -19.7090  -14.8990 O   0  0  0  0  0  0  0  0  0  0  0  0
   23.0382  -21.7544  -13.6347 C   0  0  0  0  0  0  0  0  0  0  0  0
   21.8936  -22.2183  -12.9872 C   0  0  0  0  0  0  0  0  0  0  0  0
   27.2672  -21.7805  -15.7662 N   0  0  0  0  0  0  0  0  0  0  0  0
   28.3914  -21.6816  -16.7218 C   0  0  1  0  0  0  0  0  0  0  0  0
   28.8495  -23.0777  -16.9151 C   0  0  0  0  0  0  0  0  0  0  0  0
   29.8121  -23.6864  -15.9897 C   0  0  0  0  0  0  0  0  0  0  0  0
   31.1472  -24.0080  -16.4617 C   0  0  0  0  0  0  0  0  0  0  0  0
   31.4761  -23.8709  -17.6558 O   0  0  0  0  0  0  0  0  0  0  0  0
   27.9394  -20.9478  -17.8808 C   0  0  0  0  0  0  0  0  0  0  0  0
   28.8489  -20.2495  -18.6786 O   0  0  0  0  0  0  0  0  0  0  0  0
   32.0804  -24.4845  -15.5371 O   0  0  0  0  0  0  0  0  0  0  0  0
   26.7356  -20.8800  -18.2509 O   0  0  0  0  0  0  0  0  0  0  0  0
  2  3  1  0
  2  1  1  1
  4  3  1  0
  5  4  2  0
  6  5  1  0
  7 12  2  0
  7  6  1  0
  8  7  1  0
  9  8  2  0
  9 10  1  0
 10 11  2  0
 11 12  1  0
 12  4  1  0
 13  2  1  0
 14 13  2  0
 15 16  1  0
 16 17  2  0
 16 26  1  0
 17 18  1  0
 18 19  2  0
 19 20  1  0
 21 20  1  6
 21 22  1  0
 22 13  1  0
 23 21  1  0
 23 27  1  0
 24 23  2  0
 25 19  1  0
 26 25  2  0
 28 27  1  0
 28 33  1  0
 28 29  1  6
 29 30  1  0
 31 30  1  0
 32 31  2  0
 33 34  1  0
 35 31  1  0
 36 33  2  0
M  END
$$$$
