WYE.pdb
     RDKit          3D

 36 38  0  0  1  0  0  0  0  0999 V2000
   27.1560  -19.7448  -19.2944 N   0  0  0  0  0  0  0  0  0  0  0  0
   27.0388  -18.9651  -18.1120 C   0  0  1  0  0  0  0  0  0  0  0  0
   26.0367  -17.8387  -18.1839 C   0  0  0  0  0  0  0  0  0  0  0  0
   26.2822  -16.8810  -19.2689 C   0  0  0  0  0  0  0  0  0  0  0  0
   25.3149  -16.5106  -20.2016 C   0  0  0  0  0  0  0  0  0  0  0  0
   25.8822  -15.6231  -21.0026 N   0  0  0  0  0  0  0  0  0  0  0  0
   27.1666  -15.3921  -20.6470 C   0  0  0  0  0  0  0  0  0  0  0  0
   28.1675  -14.5825  -21.1472 C   0  0  0  0  0  0  0  0  0  0  0  0
   29.4094  -14.5897  -20.5324 C   0  0  0  0  0  0  0  0  0  0  0  0
   29.6903  -15.3688  -19.4443 C   0  0  0  0  0  0  0  0  0  0  0  0
   28.6805  -16.1813  -18.9447 C   0  0  0  0  0  0  0  0  0  0  0  0
   27.4250  -16.1959  -19.5382 C   0  0  0  0  0  0  0  0  0  0  0  0
   26.6872  -19.7767  -16.9012 C   0  0  0  0  0  0  0  0  0  0  0  0
   25.9108  -20.7525  -17.0617 O   0  0  0  0  0  0  0  0  0  0  0  0
   25.1032  -21.1109   -8.2571 O   0  0  0  0  0  0  0  0  0  0  0  0
   25.6738  -20.7562   -9.4764 C   0  0  0  0  0  0  0  0  0  0  0  0
   25.7057  -19.4552   -9.8939 C   0  0  0  0  0  0  0  0  0  0  0  0
   26.2885  -19.1367  -11.1274 C   0  0  0  0  0  0  0  0  0  0  0  0
   26.8319  -20.1074  -11.9323 C   0  0  0  0  0  0  0  0  0  0  0  0
   27.4408  -19.7664  -13.2043 C   0  0  0  0  0  0  0  0  0  0  0  0
   26.5598  -20.0591  -14.4027 C   0  0  2  0  0  0  0  0  0  0  0  0
   27.1826  -19.4933  -15.6154 N   0  0  0  0  0  0  0  0  0  0  0  0
   25.1766  -19.5836  -14.2642 C   0  0  0  0  0  0  0  0  0  0  0  0
   24.9359  -18.3489  -14.3922 O   0  0  0  0  0  0  0  0  0  0  0  0
   26.7858  -21.4059  -11.4882 C   0  0  0  0  0  0  0  0  0  0  0  0
   26.2102  -21.7420  -10.2632 C   0  0  0  0  0  0  0  0  0  0  0  0
   24.0848  -20.4349  -13.9949 N   0  0  0  0  0  0  0  0  0  0  0  0
   22.7288  -19.8997  -13.7472 C   0  0  1  0  0  0  0  0  0  0  0  0
   22.0064  -20.0883  -15.0274 C   0  0  0  0  0  0  0  0  0  0  0  0
   21.7831  -21.4326  -15.5718 C   0  0  0  0  0  0  0  0  0  0  0  0
   21.8246  -21.6341  -17.0094 C   0  0  0  0  0  0  0  0  0  0  0  0
   21.9531  -20.6841  -17.8056 O   0  0  0  0  0  0  0  0  0  0  0  0
   22.1969  -20.5382  -12.5659 C   0  0  0  0  0  0  0  0  0  0  0  0
   21.0494  -20.0395  -11.9445 O   0  0  0  0  0  0  0  0  0  0  0  0
   21.7160  -22.9382  -17.4995 O   0  0  0  0  0  0  0  0  0  0  0  0
   22.7054  -21.5557  -12.0212 O   0  0  0  0  0  0  0  0  0  0  0  0
  2  3  1  0
  2  1  1  6
  4  3  1  0
  5  4  2  0
  6  5  1  0
  7 12  2  0
  7  6  1  0
  8  7  1  0
  9  8  2  0
  9 10  1  0
 10 11  2  0
 11 12  1  0
 12  4  1  0
 13  2  1  0
 14 13  2  0
 15 16  1  0
 16 17  2  0
 16 26  1  0
 17 18  1  0
 18 19  2  0
 19 20  1  0
 21 20  1  1
 21 22  1  0
 22 13  1  0
 23 21  1  0
 23 27  1  0
 24 23  2  0
 25 19  1  0
 26 25  2  0
 28 27  1  0
 28 33  1  0
 28 29  1  6
 29 30  1  0
 31 30  1  0
 32 31  2  0
 33 34  1  0
 35 31  1  0
 36 33  2  0
M  END
$$$$
