WYE.pdb
     RDKit          3D

 36 38  0  0  1  0  0  0  0  0999 V2000
   25.4345  -29.8435  -18.7415 N   0  0  0  0  0  0  0  0  0  0  0  0
   25.9958  -30.3206  -17.5262 C   0  0  1  0  0  0  0  0  0  0  0  0
   25.7343  -29.4561  -16.3169 C   0  0  0  0  0  0  0  0  0  0  0  0
   26.2517  -28.0872  -16.4305 C   0  0  0  0  0  0  0  0  0  0  0  0
   25.4354  -26.9593  -16.4967 C   0  0  0  0  0  0  0  0  0  0  0  0
   26.2418  -25.9125  -16.5686 N   0  0  0  0  0  0  0  0  0  0  0  0
   27.5400  -26.2919  -16.5536 C   0  0  0  0  0  0  0  0  0  0  0  0
   28.7381  -25.6071  -16.6109 C   0  0  0  0  0  0  0  0  0  0  0  0
   29.9245  -26.3225  -16.5803 C   0  0  0  0  0  0  0  0  0  0  0  0
   29.9621  -27.6868  -16.4952 C   0  0  0  0  0  0  0  0  0  0  0  0
   28.7548  -28.3711  -16.4375 C   0  0  0  0  0  0  0  0  0  0  0  0
   27.5491  -27.6827  -16.4656 C   0  0  0  0  0  0  0  0  0  0  0  0
   25.5446  -31.7056  -17.1703 C   0  0  0  0  0  0  0  0  0  0  0  0
   24.4927  -32.1307  -17.7121 O   0  0  0  0  0  0  0  0  0  0  0  0
   25.6955  -40.1185  -14.4538 O   0  0  0  0  0  0  0  0  0  0  0  0
   26.0134  -38.7969  -14.7550 C   0  0  0  0  0  0  0  0  0  0  0  0
   26.0166  -38.3434  -16.0443 C   0  0  0  0  0  0  0  0  0  0  0  0
   26.3417  -37.0066  -16.3085 C   0  0  0  0  0  0  0  0  0  0  0  0
   26.6596  -36.1355  -15.2958 C   0  0  0  0  0  0  0  0  0  0  0  0
   26.9868  -34.7506  -15.5788 C   0  0  0  0  0  0  0  0  0  0  0  0
   25.7908  -33.9077  -15.9753 C   0  0  2  0  0  0  0  0  0  0  0  0
   26.2395  -32.5326  -16.2692 N   0  0  0  0  0  0  0  0  0  0  0  0
   24.7071  -33.8952  -14.9833 C   0  0  0  0  0  0  0  0  0  0  0  0
   24.8746  -33.2674  -13.8986 O   0  0  0  0  0  0  0  0  0  0  0  0
   26.6489  -36.6181  -14.0102 C   0  0  0  0  0  0  0  0  0  0  0  0
   26.3275  -37.9454  -13.7280 C   0  0  0  0  0  0  0  0  0  0  0  0
   23.4721  -34.5495  -15.1724 N   0  0  0  0  0  0  0  0  0  0  0  0
   22.4032  -34.4948  -14.1521 C   0  0  1  0  0  0  0  0  0  0  0  0
   21.1434  -34.3981  -14.9267 C   0  0  0  0  0  0  0  0  0  0  0  0
   19.8432  -34.3888  -14.2464 C   0  0  0  0  0  0  0  0  0  0  0  0
   18.6262  -34.3516  -15.0378 C   0  0  0  0  0  0  0  0  0  0  0  0
   18.4973  -35.0193  -16.0821 O   0  0  0  0  0  0  0  0  0  0  0  0
   22.5683  -35.6188  -13.2603 C   0  0  0  0  0  0  0  0  0  0  0  0
   23.0060  -36.8531  -13.7464 O   0  0  0  0  0  0  0  0  0  0  0  0
   17.5769  -33.5379  -14.6024 O   0  0  0  0  0  0  0  0  0  0  0  0
   22.3390  -35.5789  -12.0207 O   0  0  0  0  0  0  0  0  0  0  0  0
  2  3  1  0
  2  1  1  6
  4  3  1  0
  5  4  2  0
  6  5  1  0
  7 12  2  0
  7  6  1  0
  8  7  1  0
  9  8  2  0
  9 10  1  0
 10 11  2  0
 11 12  1  0
 12  4  1  0
 13  2  1  0
 14 13  2  0
 15 16  1  0
 16 17  2  0
 16 26  1  0
 17 18  1  0
 18 19  2  0
 19 20  1  0
 21 20  1  1
 21 22  1  0
 22 13  1  0
 23 21  1  0
 23 27  1  0
 24 23  2  0
 25 19  1  0
 26 25  2  0
 28 27  1  0
 28 33  1  0
 28 29  1  6
 29 30  1  0
 31 30  1  0
 32 31  2  0
 33 34  1  0
 35 31  1  0
 36 33  2  0
M  END
$$$$
