RNV.pdb
     RDKit          3D

 27 26  0  0  1  0  0  0  0  0999 V2000
    7.3198  -12.8073   19.0625 N   0  0  0  0  0  0  0  0  0  0  0  0
    8.3132  -13.2322   18.1143 C   0  0  0  0  0  0  0  0  0  0  0  0
    9.2443  -12.4241   17.8194 N   0  0  0  0  0  0  0  0  0  0  0  0
    8.2735  -14.5029   17.5353 N   0  0  0  0  0  0  0  0  0  0  0  0
    8.4730  -15.7613   18.2211 C   0  0  0  0  0  0  0  0  0  0  0  0
    7.2154  -16.4714   18.5663 C   0  0  0  0  0  0  0  0  0  0  0  0
    6.7706  -16.5513   19.9544 C   0  0  0  0  0  0  0  0  0  0  0  0
    7.8493  -16.9792   20.9276 C   0  0  2  0  0  0  0  0  0  0  0  0
    8.2419  -18.3250   20.8152 N   0  0  0  0  0  0  0  0  0  0  0  0
    7.4272  -16.6226   22.3129 C   0  0  0  0  0  0  0  0  0  0  0  0
    6.8521  -15.5353   22.5255 O   0  0  0  0  0  0  0  0  0  0  0  0
   10.0193  -12.5690   17.1543 N   0  0  0  0  0  0  0  0  0  0  0  0
    5.8980  -19.3592   23.9533 C   0  0  0  0  0  0  0  0  0  0  0  0
    6.5818  -19.4831   25.2154 O   0  0  0  0  0  0  0  0  0  0  0  0
    6.5554  -20.5253   25.8871 C   0  0  0  0  0  0  0  0  0  0  0  0
    7.3173  -18.2937   25.6615 C   0  0  2  0  0  0  0  0  0  0  0  0
    7.1682  -17.0823   24.7654 N   0  0  0  0  0  0  0  0  0  0  0  0
    7.6488  -17.4756   23.4057 C   0  0  0  0  0  0  0  0  0  0  0  0
    7.9648  -15.9724   25.2785 O   0  0  0  0  0  0  0  0  0  0  0  0
    9.1961  -15.8890   24.9383 C   0  0  0  0  0  0  0  0  0  0  0  0
    6.5858  -12.3093   25.5312 C   0  0  2  0  0  0  0  0  0  0  0  0
    7.3078  -12.6820   26.7849 C   0  0  0  0  0  0  0  0  0  0  0  0
    6.3424  -12.9279   27.8958 C   0  0  2  0  0  0  0  0  0  0  0  0
    8.2855  -13.8462   26.5866 N   0  0  0  0  0  0  0  0  0  0  0  0
    7.4995  -14.9667   26.1229 C   0  0  0  0  0  0  0  0  0  0  0  0
    9.1104  -14.0723   27.7561 O   0  0  0  0  0  0  0  0  0  0  0  0
   10.0452  -13.1247   28.1293 O   0  0  0  0  0  0  0  0  0  0  0  0
  2  1  1  0
  3  2  2  0
  4  2  1  0
  5  6  1  0
  5  4  1  0
  7  6  1  0
  8  7  1  0
  8  9  1  1
 10 17  1  0
 10  8  1  0
 11 10  2  0
 13 12  1  0
 14 13  2  0
 15 13  1  0
 16 15  1  6
 16 17  1  0
 18 19  2  0
 18 16  1  0
 21 20  1  1
 21 22  1  0
 23 24  1  1
 23 21  1  0
 24 18  1  0
 25 23  1  0
 26 25  1  0
 27 25  2  0
M  END
$$$$
