RNV.pdb
     RDKit          3D

 27 26  0  0  1  0  0  0  0  0999 V2000
    7.3578  -14.2533   15.9386 N   0  0  0  0  0  0  0  0  0  0  0  0
    8.6073  -14.0603   16.6227 C   0  0  0  0  0  0  0  0  0  0  0  0
    9.6040  -14.7525   16.2563 N   0  0  0  0  0  0  0  0  0  0  0  0
    8.7375  -13.1297   17.6564 N   0  0  0  0  0  0  0  0  0  0  0  0
    8.6300  -13.4049   19.0729 C   0  0  0  0  0  0  0  0  0  0  0  0
    8.1494  -14.7733   19.3913 C   0  0  0  0  0  0  0  0  0  0  0  0
    7.0247  -14.9669   20.3016 C   0  0  0  0  0  0  0  0  0  0  0  0
    6.7103  -16.4183   20.5990 C   0  0  2  0  0  0  0  0  0  0  0  0
    5.6268  -16.9455   19.8736 N   0  0  0  0  0  0  0  0  0  0  0  0
    6.5483  -16.5916   22.0715 C   0  0  0  0  0  0  0  0  0  0  0  0
    5.5078  -16.1906   22.6324 O   0  0  0  0  0  0  0  0  0  0  0  0
   10.5723  -14.7010   16.6080 N   0  0  0  0  0  0  0  0  0  0  0  0
    7.0920  -17.9170   26.9920 C   0  0  0  0  0  0  0  0  0  0  0  0
    7.8254  -18.8919   26.2256 O   0  0  0  0  0  0  0  0  0  0  0  0
    8.2952  -19.9212   26.7333 C   0  0  0  0  0  0  0  0  0  0  0  0
    7.9840  -18.5921   24.7974 C   0  0  2  0  0  0  0  0  0  0  0  0
    7.3381  -17.2995   24.3449 N   0  0  0  0  0  0  0  0  0  0  0  0
    7.5319  -17.2019   22.8659 C   0  0  0  0  0  0  0  0  0  0  0  0
    7.9639  -16.1612   25.0100 O   0  0  0  0  0  0  0  0  0  0  0  0
    9.1498  -15.8230   24.6666 C   0  0  0  0  0  0  0  0  0  0  0  0
    7.5008  -12.2066   27.9728 C   0  0  2  0  0  0  0  0  0  0  0  0
    6.9829  -13.2971   27.0928 C   0  0  0  0  0  0  0  0  0  0  0  0
    6.3261  -12.7281   25.8797 C   0  0  1  0  0  0  0  0  0  0  0  0
    8.0495  -14.3431   26.7484 N   0  0  0  0  0  0  0  0  0  0  0  0
    7.3766  -15.3853   26.0070 C   0  0  0  0  0  0  0  0  0  0  0  0
    8.8031  -14.7593   27.9137 O   0  0  0  0  0  0  0  0  0  0  0  0
    9.8521  -13.9806   28.3657 O   0  0  0  0  0  0  0  0  0  0  0  0
  2  1  1  0
  3  2  2  0
  4  2  1  0
  5  6  1  0
  5  4  1  0
  7  6  1  0
  8  7  1  0
  8  9  1  6
 10 17  1  0
 10  8  1  0
 11 10  2  0
 13 12  1  0
 14 13  2  0
 15 13  1  0
 16 15  1  6
 16 17  1  0
 18 19  2  0
 18 16  1  0
 21 20  1  1
 21 22  1  0
 23 24  1  1
 23 21  1  0
 24 18  1  0
 25 23  1  0
 26 25  1  0
 27 25  2  0
M  END
$$$$
