RNV.pdb
     RDKit          3D

 27 26  0  0  1  0  0  0  0  0999 V2000
    8.6217  -13.8429   16.9777 N   0  0  0  0  0  0  0  0  0  0  0  0
    8.2170  -13.0324   18.0939 C   0  0  0  0  0  0  0  0  0  0  0  0
    7.2751  -12.2019   17.9208 N   0  0  0  0  0  0  0  0  0  0  0  0
    8.8274  -13.1549   19.3444 N   0  0  0  0  0  0  0  0  0  0  0  0
    9.9639  -13.9922   19.6625 C   0  0  0  0  0  0  0  0  0  0  0  0
    9.6026  -15.3410   20.1676 C   0  0  0  0  0  0  0  0  0  0  0  0
    8.4195  -16.0272   19.6571 C   0  0  0  0  0  0  0  0  0  0  0  0
    8.2175  -17.4181   20.2216 C   0  0  2  0  0  0  0  0  0  0  0  0
    7.5234  -18.3009   19.3748 N   0  0  0  0  0  0  0  0  0  0  0  0
    7.5906  -17.3117   21.5707 C   0  0  0  0  0  0  0  0  0  0  0  0
    6.3474  -17.2728   21.6756 O   0  0  0  0  0  0  0  0  0  0  0  0
    6.9134  -11.5080   18.5929 N   0  0  0  0  0  0  0  0  0  0  0  0
    6.5010  -17.5906   26.5467 C   0  0  0  0  0  0  0  0  0  0  0  0
    7.4748  -18.5819   26.1662 O   0  0  0  0  0  0  0  0  0  0  0  0
    7.8967  -19.4384   26.9576 C   0  0  0  0  0  0  0  0  0  0  0  0
    7.9405  -18.5174   24.7757 C   0  0  1  0  0  0  0  0  0  0  0  0
    7.6685  -17.2025   24.0758 N   0  0  0  0  0  0  0  0  0  0  0  0
    8.3533  -17.2577   22.7482 C   0  0  0  0  0  0  0  0  0  0  0  0
    8.1910  -16.0917   24.8650 O   0  0  0  0  0  0  0  0  0  0  0  0
    9.4592  -15.9420   24.9536 C   0  0  0  0  0  0  0  0  0  0  0  0
    7.1366  -12.0809   27.6641 C   0  0  2  0  0  0  0  0  0  0  0  0
    6.7540  -13.2140   26.7688 C   0  0  0  0  0  0  0  0  0  0  0  0
    5.9827  -12.7182   25.5916 C   0  0  1  0  0  0  0  0  0  0  0  0
    7.9494  -14.0848   26.3646 N   0  0  0  0  0  0  0  0  0  0  0  0
    7.4204  -15.1520   25.5462 C   0  0  0  0  0  0  0  0  0  0  0  0
    8.7495  -14.4786   27.5064 O   0  0  0  0  0  0  0  0  0  0  0  0
    9.7948  -13.6746   27.9210 O   0  0  0  0  0  0  0  0  0  0  0  0
  2  1  1  0
  3  2  2  0
  4  2  1  0
  5  6  1  0
  5  4  1  0
  7  6  1  0
  8  7  1  0
  8  9  1  6
 10 17  1  0
 10  8  1  0
 11 10  2  0
 13 12  1  0
 14 13  2  0
 15 13  1  0
 16 15  1  6
 16 17  1  0
 18 19  2  0
 18 16  1  0
 21 20  1  1
 21 22  1  0
 23 24  1  1
 23 21  1  0
 24 18  1  0
 25 23  1  0
 26 25  1  0
 27 25  2  0
M  END
$$$$
