RNV.pdb
     RDKit          3D

 27 26  0  0  1  0  0  0  0  0999 V2000
   11.1828  -13.7220   19.4083 N   0  0  0  0  0  0  0  0  0  0  0  0
   10.6146  -13.7642   18.0885 C   0  0  0  0  0  0  0  0  0  0  0  0
   11.2853  -14.3156   17.1649 N   0  0  0  0  0  0  0  0  0  0  0  0
    9.3531  -13.2278   17.8192 N   0  0  0  0  0  0  0  0  0  0  0  0
    8.1135  -13.9675   17.7186 C   0  0  0  0  0  0  0  0  0  0  0  0
    8.2753  -15.4404   17.8140 C   0  0  0  0  0  0  0  0  0  0  0  0
    7.7658  -16.1648   18.9745 C   0  0  0  0  0  0  0  0  0  0  0  0
    7.3448  -15.2747   20.1253 C   0  0  2  0  0  0  0  0  0  0  0  0
    7.9333  -13.9973   20.1259 N   0  0  0  0  0  0  0  0  0  0  0  0
    7.5601  -16.0017   21.4097 C   0  0  0  0  0  0  0  0  0  0  0  0
    7.3372  -17.2283   21.4729 O   0  0  0  0  0  0  0  0  0  0  0  0
   11.1062  -14.2846   16.1495 N   0  0  0  0  0  0  0  0  0  0  0  0
    9.8485  -18.9591   24.6524 C   0  0  0  0  0  0  0  0  0  0  0  0
   10.4163  -17.6785   24.3152 O   0  0  0  0  0  0  0  0  0  0  0  0
   11.4288  -17.2314   24.8746 C   0  0  0  0  0  0  0  0  0  0  0  0
    9.7200  -16.9297   23.2621 C   0  0  1  0  0  0  0  0  0  0  0  0
    8.5019  -16.1613   23.7293 N   0  0  0  0  0  0  0  0  0  0  0  0
    8.0156  -15.3541   22.5690 C   0  0  0  0  0  0  0  0  0  0  0  0
    8.8533  -15.2829   24.8405 O   0  0  0  0  0  0  0  0  0  0  0  0
   10.0822  -14.9680   25.0117 C   0  0  0  0  0  0  0  0  0  0  0  0
    7.0339  -12.0115   25.7026 C   0  0  2  0  0  0  0  0  0  0  0  0
    7.1957  -12.8170   26.9504 C   0  0  0  0  0  0  0  0  0  0  0  0
    5.8923  -13.4134   27.3652 C   0  0  2  0  0  0  0  0  0  0  0  0
    8.3137  -13.8609   26.8458 N   0  0  0  0  0  0  0  0  0  0  0  0
    7.9545  -14.7377   25.7547 C   0  0  0  0  0  0  0  0  0  0  0  0
    8.5932  -14.4916   28.1198 O   0  0  0  0  0  0  0  0  0  0  0  0
    9.1689  -13.7547   29.1380 O   0  0  0  0  0  0  0  0  0  0  0  0
  2  1  1  0
  3  2  2  0
  4  2  1  0
  5  6  1  0
  5  4  1  0
  7  6  1  0
  8  7  1  0
  8  9  1  1
 10 17  1  0
 10  8  1  0
 11 10  2  0
 13 12  1  0
 14 13  2  0
 15 13  1  0
 16 15  1  6
 16 17  1  0
 18 19  2  0
 18 16  1  0
 21 20  1  1
 21 22  1  0
 23 24  1  1
 23 21  1  0
 24 18  1  0
 25 23  1  0
 26 25  1  0
 27 25  2  0
M  END
$$$$
