RNV.pdb
     RDKit          3D

 27 26  0  0  1  0  0  0  0  0999 V2000
    7.7321  -15.4940   16.6602 N   0  0  0  0  0  0  0  0  0  0  0  0
    8.3474  -14.1975   16.5757 C   0  0  0  0  0  0  0  0  0  0  0  0
    8.1166  -13.4907   15.5490 N   0  0  0  0  0  0  0  0  0  0  0  0
    9.1692  -13.7115   17.5954 N   0  0  0  0  0  0  0  0  0  0  0  0
    8.7312  -13.2071   18.8790 C   0  0  0  0  0  0  0  0  0  0  0  0
    7.3204  -13.5313   19.2100 C   0  0  0  0  0  0  0  0  0  0  0  0
    7.0127  -14.5365   20.2228 C   0  0  0  0  0  0  0  0  0  0  0  0
    8.2293  -15.0975   20.9294 C   0  0  2  0  0  0  0  0  0  0  0  0
    8.8481  -16.1741   20.2689 N   0  0  0  0  0  0  0  0  0  0  0  0
    7.8680  -15.4256   22.3388 C   0  0  0  0  0  0  0  0  0  0  0  0
    7.3120  -14.5657   23.0527 O   0  0  0  0  0  0  0  0  0  0  0  0
    8.5287  -12.5770   15.3056 N   0  0  0  0  0  0  0  0  0  0  0  0
    5.2643  -19.0822   24.1066 C   0  0  0  0  0  0  0  0  0  0  0  0
    6.6140  -19.0646   23.6028 O   0  0  0  0  0  0  0  0  0  0  0  0
    6.9180  -19.5370   22.4972 C   0  0  0  0  0  0  0  0  0  0  0  0
    7.6149  -18.4490   24.4825 C   0  0  2  0  0  0  0  0  0  0  0  0
    7.7588  -16.9496   24.3284 N   0  0  0  0  0  0  0  0  0  0  0  0
    8.1270  -16.6842   22.9042 C   0  0  0  0  0  0  0  0  0  0  0  0
    8.8003  -16.4471   25.2187 O   0  0  0  0  0  0  0  0  0  0  0  0
   10.0252  -16.6681   24.9200 C   0  0  0  0  0  0  0  0  0  0  0  0
   10.0480  -13.3398   28.8707 C   0  0  2  0  0  0  0  0  0  0  0  0
    9.0582  -13.9992   27.9666 C   0  0  0  0  0  0  0  0  0  0  0  0
    8.4865  -13.0137   27.0030 C   0  0  1  0  0  0  0  0  0  0  0  0
    9.6222  -15.2434   27.2706 N   0  0  0  0  0  0  0  0  0  0  0  0
    8.5823  -15.7280   26.3919 C   0  0  0  0  0  0  0  0  0  0  0  0
   10.1701  -16.1963   28.2144 O   0  0  0  0  0  0  0  0  0  0  0  0
   11.4607  -16.0332   28.6824 O   0  0  0  0  0  0  0  0  0  0  0  0
  2  1  1  0
  3  2  2  0
  4  2  1  0
  5  6  1  0
  5  4  1  0
  7  6  1  0
  8  7  1  0
  8  9  1  6
 10 17  1  0
 10  8  1  0
 11 10  2  0
 13 12  1  0
 14 13  2  0
 15 13  1  0
 16 15  1  6
 16 17  1  0
 18 19  2  0
 18 16  1  0
 21 20  1  1
 21 22  1  0
 23 24  1  1
 23 21  1  0
 24 18  1  0
 25 23  1  0
 26 25  1  0
 27 25  2  0
M  END
$$$$
