RNV.pdb
     RDKit          3D

 27 26  0  0  1  0  0  0  0  0999 V2000
    8.1898  -13.2074   16.6310 N   0  0  0  0  0  0  0  0  0  0  0  0
    8.6995  -13.7019   17.8808 C   0  0  0  0  0  0  0  0  0  0  0  0
    8.9703  -12.8627   18.7915 N   0  0  0  0  0  0  0  0  0  0  0  0
    8.8843  -15.0684   18.1045 N   0  0  0  0  0  0  0  0  0  0  0  0
    7.8646  -16.0151   18.5018 C   0  0  0  0  0  0  0  0  0  0  0  0
    7.5986  -16.0444   19.9623 C   0  0  0  0  0  0  0  0  0  0  0  0
    8.0814  -17.1547   20.7779 C   0  0  0  0  0  0  0  0  0  0  0  0
    6.9831  -18.0187   21.3619 C   0  0  2  0  0  0  0  0  0  0  0  0
    5.8397  -18.1426   20.5523 N   0  0  0  0  0  0  0  0  0  0  0  0
    6.6590  -17.5354   22.7352 C   0  0  0  0  0  0  0  0  0  0  0  0
    5.6477  -16.8278   22.9211 O   0  0  0  0  0  0  0  0  0  0  0  0
    9.4393  -13.0385   19.6932 N   0  0  0  0  0  0  0  0  0  0  0  0
    5.8721  -19.7478   24.9845 C   0  0  0  0  0  0  0  0  0  0  0  0
    6.8032  -19.6502   26.0797 O   0  0  0  0  0  0  0  0  0  0  0  0
    7.0120  -20.5899   26.8616 C   0  0  0  0  0  0  0  0  0  0  0  0
    7.4954  -18.3629   26.2152 C   0  0  2  0  0  0  0  0  0  0  0  0
    7.0955  -17.3170   25.1959 N   0  0  0  0  0  0  0  0  0  0  0  0
    7.4547  -17.8529   23.8475 C   0  0  0  0  0  0  0  0  0  0  0  0
    7.8077  -16.0681   25.4464 O   0  0  0  0  0  0  0  0  0  0  0  0
    8.9991  -15.9376   24.9967 C   0  0  0  0  0  0  0  0  0  0  0  0
    6.3232  -12.4290   25.2581 C   0  0  2  0  0  0  0  0  0  0  0  0
    7.0464  -12.6362   26.5488 C   0  0  0  0  0  0  0  0  0  0  0  0
    6.0803  -12.7761   27.6774 C   0  0  2  0  0  0  0  0  0  0  0  0
    8.0533  -13.7908   26.4898 N   0  0  0  0  0  0  0  0  0  0  0  0
    7.2996  -14.9743   26.1439 C   0  0  0  0  0  0  0  0  0  0  0  0
    8.8679  -13.8671   27.6855 O   0  0  0  0  0  0  0  0  0  0  0  0
    9.8348  -12.9070   27.9187 O   0  0  0  0  0  0  0  0  0  0  0  0
  2  1  1  0
  3  2  2  0
  4  2  1  0
  5  6  1  0
  5  4  1  0
  7  6  1  0
  8  7  1  0
  8  9  1  6
 10 17  1  0
 10  8  1  0
 11 10  2  0
 13 12  1  0
 14 13  2  0
 15 13  1  0
 16 15  1  6
 16 17  1  0
 18 19  2  0
 18 16  1  0
 21 20  1  1
 21 22  1  0
 23 24  1  1
 23 21  1  0
 24 18  1  0
 25 23  1  0
 26 25  1  0
 27 25  2  0
M  END
$$$$
