RNV.pdb
     RDKit          3D

 27 26  0  0  1  0  0  0  0  0999 V2000
    7.0438  -12.7338   17.7984 N   0  0  0  0  0  0  0  0  0  0  0  0
    7.7872  -13.8696   17.3253 C   0  0  0  0  0  0  0  0  0  0  0  0
    8.4469  -13.7480   16.2497 N   0  0  0  0  0  0  0  0  0  0  0  0
    7.8018  -15.0769   18.0281 N   0  0  0  0  0  0  0  0  0  0  0  0
    7.2650  -15.3012   19.3530 C   0  0  0  0  0  0  0  0  0  0  0  0
    7.5481  -16.6511   19.9028 C   0  0  0  0  0  0  0  0  0  0  0  0
    8.4433  -16.8095   21.0450 C   0  0  0  0  0  0  0  0  0  0  0  0
    9.3899  -15.6463   21.2569 C   0  0  2  0  0  0  0  0  0  0  0  0
   10.7134  -15.8828   20.8438 N   0  0  0  0  0  0  0  0  0  0  0  0
    9.3076  -15.2018   22.6783 C   0  0  0  0  0  0  0  0  0  0  0  0
   10.3259  -15.2379   23.3993 O   0  0  0  0  0  0  0  0  0  0  0  0
    8.9923  -14.4724   15.7580 N   0  0  0  0  0  0  0  0  0  0  0  0
    7.6716  -13.1939   27.1439 C   0  0  0  0  0  0  0  0  0  0  0  0
    6.5272  -13.1269   26.2712 O   0  0  0  0  0  0  0  0  0  0  0  0
    5.4515  -12.6193   26.6220 C   0  0  0  0  0  0  0  0  0  0  0  0
    6.7122  -13.6991   24.9321 C   0  0  2  0  0  0  0  0  0  0  0  0
    8.1252  -14.1469   24.6231 N   0  0  0  0  0  0  0  0  0  0  0  0
    8.1135  -14.7315   23.2474 C   0  0  0  0  0  0  0  0  0  0  0  0
    8.5617  -15.1482   25.5910 O   0  0  0  0  0  0  0  0  0  0  0  0
    8.3631  -16.3854   25.3292 C   0  0  0  0  0  0  0  0  0  0  0  0
   10.0461  -14.1863   29.4418 C   0  0  2  0  0  0  0  0  0  0  0  0
   10.9023  -14.9281   28.4679 C   0  0  0  0  0  0  0  0  0  0  0  0
   11.9502  -15.7157   29.1808 C   0  0  1  0  0  0  0  0  0  0  0  0
   10.0890  -15.7822   27.4883 N   0  0  0  0  0  0  0  0  0  0  0  0
    9.1934  -14.8785   26.8031 C   0  0  0  0  0  0  0  0  0  0  0  0
    9.4839  -16.9288   28.1351 O   0  0  0  0  0  0  0  0  0  0  0  0
   10.2678  -18.0135   28.4815 O   0  0  0  0  0  0  0  0  0  0  0  0
  2  1  1  0
  3  2  2  0
  4  2  1  0
  5  6  1  0
  5  4  1  0
  7  6  1  0
  8  7  1  0
  8  9  1  1
 10 17  1  0
 10  8  1  0
 11 10  2  0
 13 12  1  0
 14 13  2  0
 15 13  1  0
 16 15  1  6
 16 17  1  0
 18 19  2  0
 18 16  1  0
 21 20  1  6
 21 22  1  0
 23 24  1  6
 23 21  1  0
 24 18  1  0
 25 23  1  0
 26 25  1  0
 27 25  2  0
M  END
$$$$
