RNV.pdb
     RDKit          3D

 27 26  0  0  1  0  0  0  0  0999 V2000
    9.7016  -12.4372   18.8622 N   0  0  0  0  0  0  0  0  0  0  0  0
    8.6078  -12.8958   18.0499 C   0  0  0  0  0  0  0  0  0  0  0  0
    8.7930  -13.0022   16.8004 N   0  0  0  0  0  0  0  0  0  0  0  0
    7.3728  -13.2310   18.6102 N   0  0  0  0  0  0  0  0  0  0  0  0
    7.1547  -13.7865   19.9284 C   0  0  0  0  0  0  0  0  0  0  0  0
    7.7670  -15.1237   20.1332 C   0  0  0  0  0  0  0  0  0  0  0  0
    7.5417  -15.8556   21.3761 C   0  0  0  0  0  0  0  0  0  0  0  0
    8.1425  -17.2457   21.3947 C   0  0  2  0  0  0  0  0  0  0  0  0
    7.3624  -18.2316   20.7642 N   0  0  0  0  0  0  0  0  0  0  0  0
    8.4927  -17.6081   22.7985 C   0  0  0  0  0  0  0  0  0  0  0  0
    7.5916  -17.9362   23.5976 O   0  0  0  0  0  0  0  0  0  0  0  0
    8.1046  -13.2695   16.0804 N   0  0  0  0  0  0  0  0  0  0  0  0
   11.6970  -20.6266   23.2544 C   0  0  0  0  0  0  0  0  0  0  0  0
   10.9804  -20.1483   24.4091 O   0  0  0  0  0  0  0  0  0  0  0  0
   10.1692  -20.8531   25.0281 C   0  0  0  0  0  0  0  0  0  0  0  0
   11.2705  -18.7670   24.8124 C   0  0  2  0  0  0  0  0  0  0  0  0
   10.0943  -17.8181   24.7179 N   0  0  0  0  0  0  0  0  0  0  0  0
    9.8167  -17.6004   23.2653 C   0  0  0  0  0  0  0  0  0  0  0  0
   10.4147  -16.5494   25.3640 O   0  0  0  0  0  0  0  0  0  0  0  0
   11.4667  -15.9194   24.9965 C   0  0  0  0  0  0  0  0  0  0  0  0
    9.3228  -12.4796   27.7460 C   0  0  2  0  0  0  0  0  0  0  0  0
    9.0209  -13.7258   26.9794 C   0  0  0  0  0  0  0  0  0  0  0  0
    8.7508  -13.4105   25.5462 C   0  0  1  0  0  0  0  0  0  0  0  0
   10.0942  -14.8070   27.1518 N   0  0  0  0  0  0  0  0  0  0  0  0
    9.6628  -15.9411   26.3668 C   0  0  0  0  0  0  0  0  0  0  0  0
   10.3958  -15.0602   28.5461 O   0  0  0  0  0  0  0  0  0  0  0  0
   11.2507  -14.2139   29.2272 O   0  0  0  0  0  0  0  0  0  0  0  0
  2  1  1  0
  3  2  2  0
  4  2  1  0
  5  6  1  0
  5  4  1  0
  7  6  1  0
  8  7  1  0
  8  9  1  1
 10 17  1  0
 10  8  1  0
 11 10  2  0
 13 12  1  0
 14 13  2  0
 15 13  1  0
 16 15  1  1
 16 17  1  0
 18 19  2  0
 18 16  1  0
 21 20  1  1
 21 22  1  0
 23 24  1  1
 23 21  1  0
 24 18  1  0
 25 23  1  0
 26 25  1  0
 27 25  2  0
M  END
$$$$
