RNV.pdb
     RDKit          3D

 27 26  0  0  1  0  0  0  0  0999 V2000
    6.9913  -12.7964   18.9648 N   0  0  0  0  0  0  0  0  0  0  0  0
    8.4282  -12.8365   18.9797 C   0  0  0  0  0  0  0  0  0  0  0  0
    9.0498  -11.8526   19.4822 N   0  0  0  0  0  0  0  0  0  0  0  0
    9.1334  -13.9292   18.4695 N   0  0  0  0  0  0  0  0  0  0  0  0
    8.6332  -15.2798   18.3304 C   0  0  0  0  0  0  0  0  0  0  0  0
    8.6069  -16.0517   19.5985 C   0  0  0  0  0  0  0  0  0  0  0  0
    9.7544  -16.8639   19.9916 C   0  0  0  0  0  0  0  0  0  0  0  0
    9.5669  -17.6129   21.2946 C   0  0  2  0  0  0  0  0  0  0  0  0
    8.4778  -18.5026   21.3095 N   0  0  0  0  0  0  0  0  0  0  0  0
    9.5180  -16.6337   22.4186 C   0  0  0  0  0  0  0  0  0  0  0  0
   10.4541  -15.8230   22.5760 O   0  0  0  0  0  0  0  0  0  0  0  0
   10.0702  -11.7123   19.5387 N   0  0  0  0  0  0  0  0  0  0  0  0
    5.4615  -14.2498   26.4081 C   0  0  0  0  0  0  0  0  0  0  0  0
    6.7562  -14.2771   25.7766 O   0  0  0  0  0  0  0  0  0  0  0  0
    7.6209  -13.4150   25.9937 C   0  0  0  0  0  0  0  0  0  0  0  0
    6.9926  -15.3948   24.8548 C   0  0  2  0  0  0  0  0  0  0  0  0
    8.4291  -15.5513   24.4025 N   0  0  0  0  0  0  0  0  0  0  0  0
    8.4424  -16.5812   23.3192 C   0  0  0  0  0  0  0  0  0  0  0  0
    9.2663  -15.9833   25.5170 O   0  0  0  0  0  0  0  0  0  0  0  0
    9.4828  -17.2350   25.6756 C   0  0  0  0  0  0  0  0  0  0  0  0
   11.3186  -13.1509   27.7475 C   0  0  2  0  0  0  0  0  0  0  0  0
   10.8488  -14.3646   28.4810 C   0  0  0  0  0  0  0  0  0  0  0  0
    9.6219  -14.0593   29.2737 C   0  0  2  0  0  0  0  0  0  0  0  0
   10.6706  -15.5825   27.5669 N   0  0  0  0  0  0  0  0  0  0  0  0
    9.8707  -15.1406   26.4473 C   0  0  0  0  0  0  0  0  0  0  0  0
   10.1901  -16.7426   28.2896 O   0  0  0  0  0  0  0  0  0  0  0  0
   11.0707  -17.4908   29.0484 O   0  0  0  0  0  0  0  0  0  0  0  0
  2  1  1  0
  3  2  2  0
  4  2  1  0
  5  6  1  0
  5  4  1  0
  7  6  1  0
  8  7  1  0
  8  9  1  6
 10 17  1  0
 10  8  1  0
 11 10  2  0
 13 12  1  0
 14 13  2  0
 15 13  1  0
 16 15  1  6
 16 17  1  0
 18 19  2  0
 18 16  1  0
 21 20  1  1
 21 22  1  0
 23 24  1  1
 23 21  1  0
 24 18  1  0
 25 23  1  0
 26 25  1  0
 27 25  2  0
M  END
$$$$
