RNV.pdb
     RDKit          3D

 27 26  0  0  1  0  0  0  0  0999 V2000
    8.3554  -12.6727   16.5692 N   0  0  0  0  0  0  0  0  0  0  0  0
    7.9129  -13.7880   15.7776 C   0  0  0  0  0  0  0  0  0  0  0  0
    7.9035  -13.6612   14.5163 N   0  0  0  0  0  0  0  0  0  0  0  0
    7.5136  -14.9895   16.3679 N   0  0  0  0  0  0  0  0  0  0  0  0
    7.7112  -15.3701   17.7499 C   0  0  0  0  0  0  0  0  0  0  0  0
    6.8761  -14.6106   18.7147 C   0  0  0  0  0  0  0  0  0  0  0  0
    6.8671  -14.9743   20.1284 C   0  0  0  0  0  0  0  0  0  0  0  0
    8.2273  -14.9175   20.7920 C   0  0  2  0  0  0  0  0  0  0  0  0
    9.2203  -15.6907   20.1640 N   0  0  0  0  0  0  0  0  0  0  0  0
    8.0793  -15.2468   22.2392 C   0  0  0  0  0  0  0  0  0  0  0  0
    7.1828  -14.6972   22.9117 O   0  0  0  0  0  0  0  0  0  0  0  0
    7.6629  -14.3749   13.8116 N   0  0  0  0  0  0  0  0  0  0  0  0
   10.3883  -18.9598   26.4390 C   0  0  0  0  0  0  0  0  0  0  0  0
    9.1620  -18.4579   25.8734 O   0  0  0  0  0  0  0  0  0  0  0  0
    8.0911  -18.4593   26.4988 C   0  0  0  0  0  0  0  0  0  0  0  0
    9.2567  -17.9405   24.5030 C   0  0  2  0  0  0  0  0  0  0  0  0
    8.6223  -16.5818   24.2924 N   0  0  0  0  0  0  0  0  0  0  0  0
    8.9172  -16.1686   22.8865 C   0  0  0  0  0  0  0  0  0  0  0  0
    9.1811  -15.6120   25.2289 O   0  0  0  0  0  0  0  0  0  0  0  0
   10.4222  -15.3119   25.1374 C   0  0  0  0  0  0  0  0  0  0  0  0
    8.5006  -12.1272   25.7048 C   0  0  2  0  0  0  0  0  0  0  0  0
    8.3318  -12.7275   27.0624 C   0  0  0  0  0  0  0  0  0  0  0  0
    6.8870  -12.8102   27.4261 C   0  0  2  0  0  0  0  0  0  0  0  0
    9.0547  -14.0709   27.2148 N   0  0  0  0  0  0  0  0  0  0  0  0
    8.4728  -14.9622   26.2374 C   0  0  0  0  0  0  0  0  0  0  0  0
    9.0662  -14.5326   28.5881 O   0  0  0  0  0  0  0  0  0  0  0  0
    9.8239  -13.8624   29.5304 O   0  0  0  0  0  0  0  0  0  0  0  0
  2  1  1  0
  3  2  2  0
  4  2  1  0
  5  6  1  0
  5  4  1  0
  7  6  1  0
  8  7  1  0
  8  9  1  6
 10 17  1  0
 10  8  1  0
 11 10  2  0
 13 12  1  0
 14 13  2  0
 15 13  1  0
 16 15  1  6
 16 17  1  0
 18 19  2  0
 18 16  1  0
 21 20  1  1
 21 22  1  0
 23 24  1  1
 23 21  1  0
 24 18  1  0
 25 23  1  0
 26 25  1  0
 27 25  2  0
M  END
$$$$
