RHQ.pdb
     RDKit          3D

 31 31  0  0  1  0  0  0  0  0999 V2000
    8.4296  -13.0339   15.4614 N   0  0  0  0  0  0  0  0  0  0  0  0
    8.0781  -14.3314   14.9904 C   0  0  0  0  0  0  0  0  0  0  0  0
    7.8215  -14.5174   13.7602 N   0  0  0  0  0  0  0  0  0  0  0  0
    8.0146  -15.4079   15.8888 N   0  0  0  0  0  0  0  0  0  0  0  0
    8.3249  -15.2658   17.2892 C   0  0  0  0  0  0  0  0  0  0  0  0
    9.5817  -14.5515   17.5744 C   0  0  0  0  0  0  0  0  0  0  0  0
    9.7951  -14.3643   19.0466 C   0  0  0  0  0  0  0  0  0  0  0  0
   10.4877  -15.4521   19.7765 C   0  0  2  0  0  0  0  0  0  0  0  0
   10.0831  -16.7574   19.3535 N   0  0  0  0  0  0  0  0  0  0  0  0
   10.4214  -15.2922   21.2628 C   0  0  0  0  0  0  0  0  0  0  0  0
   11.1846  -14.4094   21.7663 O   0  0  0  0  0  0  0  0  0  0  0  0
    7.6066  -15.4806   13.4025 N   0  0  0  0  0  0  0  0  0  0  0  0
    9.5568  -16.0774   22.0617 C   0  0  1  0  0  0  0  0  0  0  0  0
    9.3562  -15.8111   23.4537 C   0  0  0  0  0  0  0  0  0  0  0  0
    7.9651  -16.2408   23.9078 C   0  0  0  0  0  0  0  0  0  0  0  0
    6.9875  -15.4094   23.1573 C   0  0  0  0  0  0  0  0  0  0  0  0
    6.5405  -14.1778   23.5989 N   0  0  0  0  0  0  0  0  0  0  0  0
    5.6793  -13.7352   22.6767 C   0  0  0  0  0  0  0  0  0  0  0  0
    5.5891  -14.6518   21.6961 N   0  0  0  0  0  0  0  0  0  0  0  0
    6.3928  -15.6798   21.9917 C   0  0  0  0  0  0  0  0  0  0  0  0
   10.3122  -16.5917   24.2828 O   0  0  0  0  0  0  0  0  0  0  0  0
   10.7917  -17.6941   23.8662 N   0  0  0  0  0  0  0  0  0  0  0  0
   12.0264  -14.6611   30.2203 C   0  0  0  0  0  0  0  0  0  0  0  0
   10.7219  -15.0368   29.7345 O   0  0  0  0  0  0  0  0  0  0  0  0
    9.7580  -14.6971   30.4478 C   0  0  0  0  0  0  0  0  0  0  0  0
   10.5866  -15.7706   28.4785 C   0  0  0  0  0  0  0  0  0  0  0  0
   11.8345  -15.9617   27.6842 C   0  0  1  0  0  0  0  0  0  0  0  0
   11.5831  -16.7641   26.4505 N   0  0  0  0  0  0  0  0  0  0  0  0
   10.6710  -16.0704   25.5461 C   0  0  0  0  0  0  0  0  0  0  0  0
   11.0514  -18.1076   26.6909 O   0  0  0  0  0  0  0  0  0  0  0  0
    9.6941  -18.3471   26.7246 O   0  0  0  0  0  0  0  0  0  0  0  0
  2  3  2  0
  2  1  1  0
  4  2  1  0
  5  4  1  0
  6  5  1  0
  7  6  1  0
  8 10  1  0
  8  7  1  0
  8  9  1  1
 10 11  2  0
 12 13  1  0
 12 10  1  0
 13 14  1  1
 14 15  1  0
 15 19  1  0
 15 16  2  0
 16 17  1  0
 18 17  1  0
 19 18  2  0
 20 13  1  0
 21 20  2  0
 22 23  1  0
 23 25  1  0
 23 24  2  0
 25 26  1  0
 27 26  1  6
 27 28  1  0
 28 20  1  0
 29 27  1  0
 29 30  1  0
 31 29  2  0
M  END
$$$$
