RHQ.pdb
     RDKit          3D

 31 31  0  0  1  0  0  0  0  0999 V2000
    9.1328  -13.2653   17.2429 N   0  0  0  0  0  0  0  0  0  0  0  0
    8.2387  -12.8523   18.2721 C   0  0  0  0  0  0  0  0  0  0  0  0
    8.5148  -11.8426   18.9918 N   0  0  0  0  0  0  0  0  0  0  0  0
    7.0490  -13.5639   18.4918 N   0  0  0  0  0  0  0  0  0  0  0  0
    7.0388  -14.9361   18.9328 C   0  0  0  0  0  0  0  0  0  0  0  0
    7.5316  -15.1479   20.3052 C   0  0  0  0  0  0  0  0  0  0  0  0
    8.8544  -15.8535   20.3201 C   0  0  0  0  0  0  0  0  0  0  0  0
    9.0329  -16.9417   21.3099 C   0  0  2  0  0  0  0  0  0  0  0  0
    7.8766  -17.7731   21.4439 N   0  0  0  0  0  0  0  0  0  0  0  0
    9.5351  -16.4520   22.6317 C   0  0  0  0  0  0  0  0  0  0  0  0
   10.6495  -15.8411   22.6167 O   0  0  0  0  0  0  0  0  0  0  0  0
    7.8592  -11.5382   19.7531 N   0  0  0  0  0  0  0  0  0  0  0  0
    8.8096  -16.6556   23.8294 C   0  0  1  0  0  0  0  0  0  0  0  0
    9.2936  -16.2030   25.0981 C   0  0  0  0  0  0  0  0  0  0  0  0
    8.2332  -15.4000   25.8442 C   0  0  0  0  0  0  0  0  0  0  0  0
    8.8619  -14.9127   27.1002 C   0  0  0  0  0  0  0  0  0  0  0  0
    9.1786  -13.5859   27.3264 N   0  0  0  0  0  0  0  0  0  0  0  0
    9.7237  -13.5298   28.5460 C   0  0  0  0  0  0  0  0  0  0  0  0
    9.7486  -14.7709   29.0645 N   0  0  0  0  0  0  0  0  0  0  0  0
    9.2191  -15.6198   28.1762 C   0  0  0  0  0  0  0  0  0  0  0  0
    9.6229  -17.3553   25.9782 O   0  0  0  0  0  0  0  0  0  0  0  0
    8.8262  -18.3407   26.0924 N   0  0  0  0  0  0  0  0  0  0  0  0
   14.8046  -20.0665   24.8838 C   0  0  0  0  0  0  0  0  0  0  0  0
   14.4370  -20.6763   26.1376 O   0  0  0  0  0  0  0  0  0  0  0  0
   15.1379  -21.6416   26.4984 C   0  0  0  0  0  0  0  0  0  0  0  0
   13.3047  -20.1609   26.9036 C   0  0  0  0  0  0  0  0  0  0  0  0
   12.6035  -18.9742   26.3336 C   0  0  1  0  0  0  0  0  0  0  0  0
   11.4820  -18.5249   27.2110 N   0  0  0  0  0  0  0  0  0  0  0  0
   10.8475  -17.3212   26.6822 C   0  0  0  0  0  0  0  0  0  0  0  0
   11.8582  -18.2672   28.6029 O   0  0  0  0  0  0  0  0  0  0  0  0
   12.2140  -19.2933   29.4523 O   0  0  0  0  0  0  0  0  0  0  0  0
  2  3  2  0
  2  1  1  0
  4  2  1  0
  5  4  1  0
  6  5  1  0
  7  6  1  0
  8 10  1  0
  8  7  1  0
  8  9  1  1
 10 11  2  0
 12 13  1  0
 12 10  1  0
 13 14  1  6
 14 15  1  0
 15 19  1  0
 15 16  2  0
 16 17  1  0
 18 17  1  0
 19 18  2  0
 20 13  1  0
 21 20  2  0
 22 23  1  0
 23 25  1  0
 23 24  2  0
 25 26  1  0
 27 26  1  6
 27 28  1  0
 28 20  1  0
 29 27  1  0
 29 30  1  0
 31 29  2  0
M  END
$$$$
