RHQ.pdb
     RDKit          3D

 31 31  0  0  1  0  0  0  0  0999 V2000
    7.0906  -13.6284   15.5024 N   0  0  0  0  0  0  0  0  0  0  0  0
    8.0621  -14.0145   16.4699 C   0  0  0  0  0  0  0  0  0  0  0  0
    9.0636  -14.7162   16.1257 N   0  0  0  0  0  0  0  0  0  0  0  0
    7.9118  -13.6189   17.8081 N   0  0  0  0  0  0  0  0  0  0  0  0
    8.8828  -13.9408   18.8235 C   0  0  0  0  0  0  0  0  0  0  0  0
    8.6654  -15.2319   19.4994 C   0  0  0  0  0  0  0  0  0  0  0  0
    8.8518  -15.1232   20.9831 C   0  0  0  0  0  0  0  0  0  0  0  0
    8.6148  -16.3438   21.7890 C   0  0  2  0  0  0  0  0  0  0  0  0
    7.4112  -17.0281   21.4297 N   0  0  0  0  0  0  0  0  0  0  0  0
    8.7088  -16.0980   23.2621 C   0  0  0  0  0  0  0  0  0  0  0  0
    9.8352  -15.6968   23.6929 O   0  0  0  0  0  0  0  0  0  0  0  0
    9.7423  -15.0628   16.8477 N   0  0  0  0  0  0  0  0  0  0  0  0
    7.6060  -16.2989   24.1257 C   0  0  1  0  0  0  0  0  0  0  0  0
    7.7152  -16.1532   25.5454 C   0  0  0  0  0  0  0  0  0  0  0  0
    6.5159  -15.4084   26.1225 C   0  0  0  0  0  0  0  0  0  0  0  0
    6.8988  -13.9749   26.2152 C   0  0  0  0  0  0  0  0  0  0  0  0
    6.1582  -12.9526   25.6511 N   0  0  0  0  0  0  0  0  0  0  0  0
    6.8045  -11.8168   25.9342 C   0  0  0  0  0  0  0  0  0  0  0  0
    7.9062  -12.1138   26.6467 N   0  0  0  0  0  0  0  0  0  0  0  0
    7.9637  -13.4393   26.8191 C   0  0  0  0  0  0  0  0  0  0  0  0
    7.7262  -17.4820   26.2123 O   0  0  0  0  0  0  0  0  0  0  0  0
    7.0464  -18.4527   25.7492 N   0  0  0  0  0  0  0  0  0  0  0  0
   12.0884  -20.0347   24.4688 C   0  0  0  0  0  0  0  0  0  0  0  0
   11.2513  -20.9980   25.1397 O   0  0  0  0  0  0  0  0  0  0  0  0
   11.4439  -22.1909   24.8347 C   0  0  0  0  0  0  0  0  0  0  0  0
   10.2517  -20.5567   26.1095 C   0  0  0  0  0  0  0  0  0  0  0  0
   10.1959  -19.0917   26.3845 C   0  0  2  0  0  0  0  0  0  0  0  0
    9.3752  -18.7908   27.5949 N   0  0  0  0  0  0  0  0  0  0  0  0
    8.5149  -17.6321   27.3750 C   0  0  0  0  0  0  0  0  0  0  0  0
   10.1481  -18.5584   28.8172 O   0  0  0  0  0  0  0  0  0  0  0  0
   10.2901  -19.5404   29.7745 O   0  0  0  0  0  0  0  0  0  0  0  0
  2  3  2  0
  2  1  1  0
  4  2  1  0
  5  4  1  0
  6  5  1  0
  7  6  1  0
  8 10  1  0
  8  7  1  0
  8  9  1  1
 10 11  2  0
 12 13  1  0
 12 10  1  0
 13 14  1  1
 14 15  1  0
 15 19  1  0
 15 16  2  0
 16 17  1  0
 18 17  1  0
 19 18  2  0
 20 13  1  0
 21 20  2  0
 22 23  1  0
 23 25  1  0
 23 24  2  0
 25 26  1  0
 27 26  1  6
 27 28  1  0
 28 20  1  0
 29 27  1  0
 29 30  1  0
 31 29  2  0
M  END
$$$$
