RHQ.pdb
     RDKit          3D

 31 31  0  0  1  0  0  0  0  0999 V2000
    2.8623  -26.5855   20.7181 N   0  0  0  0  0  0  0  0  0  0  0  0
    3.4524  -27.4761   19.7759 C   0  0  0  0  0  0  0  0  0  0  0  0
    2.8379  -28.5293   19.4197 N   0  0  0  0  0  0  0  0  0  0  0  0
    4.7175  -27.1891   19.2400 N   0  0  0  0  0  0  0  0  0  0  0  0
    5.5305  -26.0989   19.7175 C   0  0  0  0  0  0  0  0  0  0  0  0
    6.8533  -25.9882   19.0778 C   0  0  0  0  0  0  0  0  0  0  0  0
    7.6310  -24.8191   19.6036 C   0  0  0  0  0  0  0  0  0  0  0  0
    7.0982  -23.4658   19.3202 C   0  0  2  0  0  0  0  0  0  0  0  0
    7.5378  -22.9418   18.0638 N   0  0  0  0  0  0  0  0  0  0  0  0
    7.3206  -22.5037   20.4445 C   0  0  0  0  0  0  0  0  0  0  0  0
    8.4827  -22.5017   20.9591 O   0  0  0  0  0  0  0  0  0  0  0  0
    3.2700  -29.1865   18.7246 N   0  0  0  0  0  0  0  0  0  0  0  0
    6.2962  -21.6439   20.9069 C   0  0  2  0  0  0  0  0  0  0  0  0
    6.4900  -20.7555   22.0123 C   0  0  0  0  0  0  0  0  0  0  0  0
    5.6170  -19.5114   21.8863 C   0  0  0  0  0  0  0  0  0  0  0  0
    6.0066  -18.8340   20.6216 C   0  0  0  0  0  0  0  0  0  0  0  0
    5.3443  -19.0236   19.4228 N   0  0  0  0  0  0  0  0  0  0  0  0
    5.9713  -18.2625   18.5199 C   0  0  0  0  0  0  0  0  0  0  0  0
    6.9863  -17.6213   19.1269 N   0  0  0  0  0  0  0  0  0  0  0  0
    7.0075  -17.9726   20.4177 C   0  0  0  0  0  0  0  0  0  0  0  0
    6.0878  -21.4054   23.2876 O   0  0  0  0  0  0  0  0  0  0  0  0
    5.0010  -22.0613   23.3739 N   0  0  0  0  0  0  0  0  0  0  0  0
    6.6481  -26.2326   23.9004 C   0  0  0  0  0  0  0  0  0  0  0  0
    7.2586  -26.0579   25.1948 O   0  0  0  0  0  0  0  0  0  0  0  0
    7.3314  -27.0803   25.9037 C   0  0  0  0  0  0  0  0  0  0  0  0
    7.7471  -24.7444   25.6077 C   0  0  0  0  0  0  0  0  0  0  0  0
    7.5334  -23.6247   24.6457 C   0  0  2  0  0  0  0  0  0  0  0  0
    7.1789  -22.3563   25.3490 N   0  0  0  0  0  0  0  0  0  0  0  0
    6.9502  -21.2718   24.3989 C   0  0  0  0  0  0  0  0  0  0  0  0
    8.1680  -21.9017   26.3290 O   0  0  0  0  0  0  0  0  0  0  0  0
    8.3846  -22.5910   27.5032 O   0  0  0  0  0  0  0  0  0  0  0  0
  2  3  2  0
  2  1  1  0
  4  2  1  0
  5  4  1  0
  6  5  1  0
  7  6  1  0
  8 10  1  0
  8  7  1  0
  8  9  1  6
 10 11  2  0
 12 13  1  0
 12 10  1  0
 13 14  1  6
 14 15  1  0
 15 19  1  0
 15 16  2  0
 16 17  1  0
 18 17  1  0
 19 18  2  0
 20 13  1  0
 21 20  2  0
 22 23  1  0
 23 25  1  0
 23 24  2  0
 25 26  1  0
 27 26  1  6
 27 28  1  0
 28 20  1  0
 29 27  1  0
 29 30  1  0
 31 29  2  0
M  END
$$$$
