RHQ.pdb
     RDKit          3D

 31 31  0  0  1  0  0  0  0  0999 V2000
    8.3859  -12.7351   15.0381 N   0  0  0  0  0  0  0  0  0  0  0  0
    7.9596  -14.0361   14.6449 C   0  0  0  0  0  0  0  0  0  0  0  0
    7.0087  -14.1734   13.8138 N   0  0  0  0  0  0  0  0  0  0  0  0
    8.5919  -15.1700   15.1781 N   0  0  0  0  0  0  0  0  0  0  0  0
    9.2563  -15.1554   16.4571 C   0  0  0  0  0  0  0  0  0  0  0  0
    8.4507  -14.6141   17.5658 C   0  0  0  0  0  0  0  0  0  0  0  0
    9.1765  -14.6972   18.8750 C   0  0  0  0  0  0  0  0  0  0  0  0
    8.5921  -15.5680   19.9220 C   0  0  2  0  0  0  0  0  0  0  0  0
    7.2308  -15.9218   19.6614 N   0  0  0  0  0  0  0  0  0  0  0  0
    8.7826  -15.0273   21.3042 C   0  0  0  0  0  0  0  0  0  0  0  0
    9.9800  -14.7742   21.6472 O   0  0  0  0  0  0  0  0  0  0  0  0
    6.6965  -15.1309   13.5178 N   0  0  0  0  0  0  0  0  0  0  0  0
    7.6918  -14.8084   22.1786 C   0  0  1  0  0  0  0  0  0  0  0  0
    7.8774  -14.4297   23.5463 C   0  0  0  0  0  0  0  0  0  0  0  0
    6.6474  -13.7167   24.0984 C   0  0  0  0  0  0  0  0  0  0  0  0
    7.0019  -13.2295   25.4575 C   0  0  0  0  0  0  0  0  0  0  0  0
    7.6103  -12.0104   25.6930 N   0  0  0  0  0  0  0  0  0  0  0  0
    7.7740  -11.9190   27.0169 C   0  0  0  0  0  0  0  0  0  0  0  0
    7.2885  -13.0353   27.5894 N   0  0  0  0  0  0  0  0  0  0  0  0
    6.8142  -13.8398   26.6313 C   0  0  0  0  0  0  0  0  0  0  0  0
    8.0694  -15.6291   24.4038 O   0  0  0  0  0  0  0  0  0  0  0  0
    7.2942  -16.6334   24.3081 N   0  0  0  0  0  0  0  0  0  0  0  0
   12.5815  -18.9317   23.4306 C   0  0  0  0  0  0  0  0  0  0  0  0
   12.3023  -19.3755   24.7736 O   0  0  0  0  0  0  0  0  0  0  0  0
   12.9381  -20.3760   25.1584 C   0  0  0  0  0  0  0  0  0  0  0  0
   11.3259  -18.6654   25.5963 C   0  0  0  0  0  0  0  0  0  0  0  0
   10.6666  -17.4827   24.9707 C   0  0  1  0  0  0  0  0  0  0  0  0
    9.6918  -16.8407   25.9018 N   0  0  0  0  0  0  0  0  0  0  0  0
    9.1392  -15.6179   25.3269 C   0  0  0  0  0  0  0  0  0  0  0  0
   10.2296  -16.5186   27.2256 O   0  0  0  0  0  0  0  0  0  0  0  0
   10.5244  -17.5068   28.1407 O   0  0  0  0  0  0  0  0  0  0  0  0
  2  3  2  0
  2  1  1  0
  4  2  1  0
  5  4  1  0
  6  5  1  0
  7  6  1  0
  8 10  1  0
  8  7  1  0
  8  9  1  6
 10 11  2  0
 12 13  1  0
 12 10  1  0
 13 14  1  6
 14 15  1  0
 15 19  1  0
 15 16  2  0
 16 17  1  0
 18 17  1  0
 19 18  2  0
 20 13  1  0
 21 20  2  0
 22 23  1  0
 23 25  1  0
 23 24  2  0
 25 26  1  0
 27 26  1  6
 27 28  1  0
 28 20  1  0
 29 27  1  0
 29 30  1  0
 31 29  2  0
M  END
$$$$
