RHQ.pdb
     RDKit          3D

 31 31  0  0  1  0  0  0  0  0999 V2000
    8.2493  -12.5506   20.0370 N   0  0  0  0  0  0  0  0  0  0  0  0
    8.5189  -12.8780   18.6772 C   0  0  0  0  0  0  0  0  0  0  0  0
    8.3663  -12.0052   17.7669 N   0  0  0  0  0  0  0  0  0  0  0  0
    8.9542  -14.1696   18.3421 N   0  0  0  0  0  0  0  0  0  0  0  0
    8.2172  -15.3532   18.7077 C   0  0  0  0  0  0  0  0  0  0  0  0
    8.8033  -16.6181   18.2305 C   0  0  0  0  0  0  0  0  0  0  0  0
   10.2066  -16.8040   18.7246 C   0  0  0  0  0  0  0  0  0  0  0  0
   10.3875  -17.5494   19.9924 C   0  0  2  0  0  0  0  0  0  0  0  0
    9.7462  -18.8281   19.9875 N   0  0  0  0  0  0  0  0  0  0  0  0
   10.0312  -16.7414   21.2005 C   0  0  0  0  0  0  0  0  0  0  0  0
   10.6609  -15.6474   21.3490 O   0  0  0  0  0  0  0  0  0  0  0  0
    8.5031  -12.2609   16.7580 N   0  0  0  0  0  0  0  0  0  0  0  0
    9.0482  -17.1699   22.1237 C   0  0  1  0  0  0  0  0  0  0  0  0
    8.7123  -16.4061   23.2866 C   0  0  0  0  0  0  0  0  0  0  0  0
    7.2107  -16.4279   23.5525 C   0  0  0  0  0  0  0  0  0  0  0  0
    6.9399  -15.4042   24.5960 C   0  0  0  0  0  0  0  0  0  0  0  0
    7.0453  -14.0440   24.3716 N   0  0  0  0  0  0  0  0  0  0  0  0
    6.7329  -13.4450   25.5255 C   0  0  0  0  0  0  0  0  0  0  0  0
    6.4435  -14.3906   26.4375 N   0  0  0  0  0  0  0  0  0  0  0  0
    6.5707  -15.5937   25.8662 C   0  0  0  0  0  0  0  0  0  0  0  0
    9.3471  -16.9861   24.4996 O   0  0  0  0  0  0  0  0  0  0  0  0
    9.7570  -18.1905   24.5118 N   0  0  0  0  0  0  0  0  0  0  0  0
   10.0293  -13.3037   29.6738 C   0  0  0  0  0  0  0  0  0  0  0  0
   10.8611  -13.2225   28.4990 O   0  0  0  0  0  0  0  0  0  0  0  0
   11.4444  -12.1357   28.3203 C   0  0  0  0  0  0  0  0  0  0  0  0
   10.9824  -14.3688   27.6014 C   0  0  0  0  0  0  0  0  0  0  0  0
   10.1177  -15.5451   27.9072 C   0  0  2  0  0  0  0  0  0  0  0  0
   10.1995  -16.5807   26.8348 N   0  0  0  0  0  0  0  0  0  0  0  0
    9.4808  -16.1578   25.6365 C   0  0  0  0  0  0  0  0  0  0  0  0
    9.7023  -17.9033   27.2207 O   0  0  0  0  0  0  0  0  0  0  0  0
    8.6511  -18.4975   26.5551 O   0  0  0  0  0  0  0  0  0  0  0  0
  2  3  2  0
  2  1  1  0
  4  2  1  0
  5  4  1  0
  6  5  1  0
  7  6  1  0
  8 10  1  0
  8  7  1  0
  8  9  1  6
 10 11  2  0
 12 13  1  0
 12 10  1  0
 13 14  1  1
 14 15  1  0
 15 19  1  0
 15 16  2  0
 16 17  1  0
 18 17  1  0
 19 18  2  0
 20 13  1  0
 21 20  2  0
 22 23  1  0
 23 25  1  0
 23 24  2  0
 25 26  1  0
 27 26  1  6
 27 28  1  0
 28 20  1  0
 29 27  1  0
 29 30  1  0
 31 29  2  0
M  END
$$$$
