RHQ.pdb
     RDKit          3D

 31 31  0  0  1  0  0  0  0  0999 V2000
    7.8561  -19.0088   16.1942 N   0  0  0  0  0  0  0  0  0  0  0  0
    6.5216  -19.2753   16.6152 C   0  0  0  0  0  0  0  0  0  0  0  0
    5.5602  -19.1826   15.7900 N   0  0  0  0  0  0  0  0  0  0  0  0
    6.2682  -19.6408   17.9464 N   0  0  0  0  0  0  0  0  0  0  0  0
    7.3067  -19.6954   18.9445 C   0  0  0  0  0  0  0  0  0  0  0  0
    8.1680  -18.5015   19.0061 C   0  0  0  0  0  0  0  0  0  0  0  0
    7.5328  -17.3954   19.7941 C   0  0  0  0  0  0  0  0  0  0  0  0
    8.2843  -16.1234   19.9075 C   0  0  2  0  0  0  0  0  0  0  0  0
    9.4754  -16.1033   19.1156 N   0  0  0  0  0  0  0  0  0  0  0  0
    8.5398  -15.7208   21.3258 C   0  0  0  0  0  0  0  0  0  0  0  0
    9.6569  -16.0763   21.8170 O   0  0  0  0  0  0  0  0  0  0  0  0
    4.5690  -19.3009   16.1145 N   0  0  0  0  0  0  0  0  0  0  0  0
    7.5928  -14.9847   22.0767 C   0  0  2  0  0  0  0  0  0  0  0  0
    7.8219  -14.6199   23.4416 C   0  0  0  0  0  0  0  0  0  0  0  0
    6.5755  -14.0061   24.0706 C   0  0  0  0  0  0  0  0  0  0  0  0
    6.9898  -13.4211   25.3730 C   0  0  0  0  0  0  0  0  0  0  0  0
    8.2676  -13.5405   25.8875 N   0  0  0  0  0  0  0  0  0  0  0  0
    8.2644  -12.8987   27.0605 C   0  0  0  0  0  0  0  0  0  0  0  0
    7.0346  -12.3971   27.2740 N   0  0  0  0  0  0  0  0  0  0  0  0
    6.2521  -12.7181   26.2374 C   0  0  0  0  0  0  0  0  0  0  0  0
    8.1409  -15.8187   24.2612 O   0  0  0  0  0  0  0  0  0  0  0  0
    7.3080  -16.7735   24.3766 N   0  0  0  0  0  0  0  0  0  0  0  0
   13.5451  -18.9409   24.6734 C   0  0  0  0  0  0  0  0  0  0  0  0
   12.4169  -19.0080   23.7783 O   0  0  0  0  0  0  0  0  0  0  0  0
   12.5682  -19.7187   22.7657 C   0  0  0  0  0  0  0  0  0  0  0  0
   11.1920  -18.2710   24.0800 C   0  0  0  0  0  0  0  0  0  0  0  0
   11.2040  -17.4448   25.3218 C   0  0  2  0  0  0  0  0  0  0  0  0
    9.8285  -17.0077   25.7042 N   0  0  0  0  0  0  0  0  0  0  0  0
    9.3971  -15.8637   24.9065 C   0  0  0  0  0  0  0  0  0  0  0  0
    9.6657  -16.6636   27.1186 O   0  0  0  0  0  0  0  0  0  0  0  0
    9.3779  -17.6260   28.0630 O   0  0  0  0  0  0  0  0  0  0  0  0
  2  3  2  0
  2  1  1  0
  4  2  1  0
  5  4  1  0
  6  5  1  0
  7  6  1  0
  8 10  1  0
  8  7  1  0
  8  9  1  6
 10 11  2  0
 12 13  1  0
 12 10  1  0
 13 14  1  6
 14 15  1  0
 15 19  1  0
 15 16  2  0
 16 17  1  0
 18 17  1  0
 19 18  2  0
 20 13  1  0
 21 20  2  0
 22 23  1  0
 23 25  1  0
 23 24  2  0
 25 26  1  0
 27 26  1  6
 27 28  1  0
 28 20  1  0
 29 27  1  0
 29 30  1  0
 31 29  2  0
M  END
$$$$
