EQP.pdb
     RDKit          3D

 26 26  0  0  1  0  0  0  0  0999 V2000
    6.8497  -16.1943   19.5132 N   0  0  0  0  0  0  0  0  0  0  0  0
    7.4009  -15.0398   20.2518 C   0  0  1  0  0  0  0  0  0  0  0  0
    7.0130  -13.8312   19.4773 C   0  0  0  0  0  0  0  0  0  0  0  0
    8.1842  -12.9502   19.2054 C   0  0  0  0  0  0  0  0  0  0  0  0
    9.1045  -13.4354   18.1612 C   0  0  0  0  0  0  0  0  0  0  0  0
    8.8786  -13.3892   16.9459 O   0  0  0  0  0  0  0  0  0  0  0  0
    6.9080  -15.0877   21.6409 C   0  0  0  0  0  0  0  0  0  0  0  0
    5.7769  -14.6559   21.9901 O   0  0  0  0  0  0  0  0  0  0  0  0
   10.3330  -13.9953   18.5425 O   0  0  0  0  0  0  0  0  0  0  0  0
    7.5366  -19.7322   25.2037 N   0  0  0  0  0  0  0  0  0  0  0  0
    7.1580  -18.8183   26.2410 C   0  0  0  0  0  0  0  0  0  0  0  0
    6.9150  -19.2420   27.3930 O   0  0  0  0  0  0  0  0  0  0  0  0
    7.0598  -17.3695   25.9270 C   0  0  0  0  0  0  0  0  0  0  0  0
    7.3563  -17.1850   24.4571 C   0  0  0  0  0  0  0  0  0  0  0  0
    7.2821  -15.7047   24.0531 C   0  0  2  0  0  0  0  0  0  0  0  0
    7.7330  -15.6439   22.6491 N   0  0  0  0  0  0  0  0  0  0  0  0
    8.2789  -14.9888   24.8713 C   0  0  0  0  0  0  0  0  0  0  0  0
    9.4971  -15.0523   24.4646 O   0  0  0  0  0  0  0  0  0  0  0  0
    8.0218  -14.2485   26.0438 N   0  0  0  0  0  0  0  0  0  0  0  0
    6.6713  -14.1211   26.6389 C   0  0  0  0  0  0  0  0  0  0  0  0
    6.5732  -12.6768   27.0626 C   0  0  0  0  0  0  0  0  0  0  0  0
    8.0158  -12.2648   27.2976 C   0  0  0  0  0  0  0  0  0  0  0  0
    8.8451  -13.5046   26.9398 C   0  0  1  0  0  0  0  0  0  0  0  0
    9.0750  -14.2472   28.2308 C   0  0  0  0  0  0  0  0  0  0  0  0
   10.0020  -13.7397   29.1298 O   0  0  0  0  0  0  0  0  0  0  0  0
    8.4522  -15.2970   28.4989 O   0  0  0  0  0  0  0  0  0  0  0  0
  2  1  1  6
  2  3  1  0
  3  4  1  0
  4  5  1  0
  5  6  2  0
  5  9  1  0
  7 16  1  0
  7  2  1  0
  8  7  2  0
 10 11  1  0
 11 12  2  0
 11 13  1  0
 13 14  1  0
 15 14  1  1
 15 16  1  0
 17 15  1  0
 17 18  2  0
 19 17  1  0
 20 19  1  0
 21 20  1  0
 21 22  1  0
 23 22  1  0
 23 19  1  0
 23 24  1  1
 25 24  1  0
 26 24  2  0
M  END
$$$$
