EQP.pdb
     RDKit          3D

 26 26  0  0  1  0  0  0  0  0999 V2000
    9.8884  -17.4579   20.9830 N   0  0  0  0  0  0  0  0  0  0  0  0
    9.4717  -16.0830   20.6387 C   0  0  1  0  0  0  0  0  0  0  0  0
    8.9875  -16.1383   19.2340 C   0  0  0  0  0  0  0  0  0  0  0  0
    8.4034  -17.4691   18.9031 C   0  0  0  0  0  0  0  0  0  0  0  0
    7.8319  -17.5836   17.5492 C   0  0  0  0  0  0  0  0  0  0  0  0
    6.6241  -17.5295   17.2873 O   0  0  0  0  0  0  0  0  0  0  0  0
    8.4830  -15.6254   21.6326 C   0  0  0  0  0  0  0  0  0  0  0  0
    7.8834  -14.5198   21.5552 O   0  0  0  0  0  0  0  0  0  0  0  0
    8.6950  -17.7679   16.4587 O   0  0  0  0  0  0  0  0  0  0  0  0
    6.1651  -19.4501   25.8838 N   0  0  0  0  0  0  0  0  0  0  0  0
    7.3412  -18.8036   26.3874 C   0  0  0  0  0  0  0  0  0  0  0  0
    7.9181  -19.2524   27.4030 O   0  0  0  0  0  0  0  0  0  0  0  0
    7.8597  -17.6000   25.6877 C   0  0  0  0  0  0  0  0  0  0  0  0
    6.8724  -17.2206   24.6087 C   0  0  0  0  0  0  0  0  0  0  0  0
    7.3318  -15.9692   23.8453 C   0  0  2  0  0  0  0  0  0  0  0  0
    8.1776  -16.4565   22.7383 N   0  0  0  0  0  0  0  0  0  0  0  0
    8.1974  -15.2040   24.7623 C   0  0  0  0  0  0  0  0  0  0  0  0
    9.4644  -15.3619   24.6097 O   0  0  0  0  0  0  0  0  0  0  0  0
    7.7686  -14.3244   25.7778 N   0  0  0  0  0  0  0  0  0  0  0  0
    6.3640  -14.2500   26.2422 C   0  0  0  0  0  0  0  0  0  0  0  0
    6.0956  -12.7763   26.4193 C   0  0  0  0  0  0  0  0  0  0  0  0
    7.4672  -12.1842   26.6918 C   0  0  0  0  0  0  0  0  0  0  0  0
    8.4358  -13.3701   26.6012 C   0  0  1  0  0  0  0  0  0  0  0  0
    8.6156  -13.8785   28.0085 C   0  0  0  0  0  0  0  0  0  0  0  0
    8.0575  -15.1032   28.3457 O   0  0  0  0  0  0  0  0  0  0  0  0
    9.2501  -13.2229   28.8625 O   0  0  0  0  0  0  0  0  0  0  0  0
  2  1  1  1
  2  3  1  0
  3  4  1  0
  4  5  1  0
  5  6  2  0
  5  9  1  0
  7 16  1  0
  7  2  1  0
  8  7  2  0
 10 11  1  0
 11 12  2  0
 11 13  1  0
 13 14  1  0
 15 14  1  1
 15 16  1  0
 17 15  1  0
 17 18  2  0
 19 17  1  0
 20 19  1  0
 21 20  1  0
 21 22  1  0
 23 22  1  0
 23 19  1  0
 23 24  1  1
 25 24  1  0
 26 24  2  0
M  END
$$$$
