EQP.pdb
     RDKit          3D

 26 26  0  0  1  0  0  0  0  0999 V2000
    7.9287  -13.2446   18.9275 N   0  0  0  0  0  0  0  0  0  0  0  0
    8.7470  -13.9569   19.9301 C   0  0  1  0  0  0  0  0  0  0  0  0
   10.0356  -13.2193   20.0104 C   0  0  0  0  0  0  0  0  0  0  0  0
   11.0945  -13.8662   19.1846 C   0  0  0  0  0  0  0  0  0  0  0  0
   12.3767  -14.0931   19.8754 C   0  0  0  0  0  0  0  0  0  0  0  0
   12.8674  -13.3321   20.7182 O   0  0  0  0  0  0  0  0  0  0  0  0
    7.9848  -14.0406   21.1899 C   0  0  0  0  0  0  0  0  0  0  0  0
    7.2121  -13.1309   21.5939 O   0  0  0  0  0  0  0  0  0  0  0  0
   13.1168  -15.2469   19.5764 O   0  0  0  0  0  0  0  0  0  0  0  0
    6.8045  -19.3923   23.9492 N   0  0  0  0  0  0  0  0  0  0  0  0
    6.6191  -18.5531   25.0964 C   0  0  0  0  0  0  0  0  0  0  0  0
    6.2924  -19.0550   26.1950 O   0  0  0  0  0  0  0  0  0  0  0  0
    6.8202  -17.0875   24.9595 C   0  0  0  0  0  0  0  0  0  0  0  0
    7.1315  -16.7880   23.5117 C   0  0  0  0  0  0  0  0  0  0  0  0
    7.4166  -15.2936   23.2985 C   0  0  2  0  0  0  0  0  0  0  0  0
    8.1139  -15.1943   22.0015 N   0  0  0  0  0  0  0  0  0  0  0  0
    8.3703  -14.8875   24.3479 C   0  0  0  0  0  0  0  0  0  0  0  0
    9.5964  -15.2271   24.1617 O   0  0  0  0  0  0  0  0  0  0  0  0
    8.0652  -14.1680   25.5218 N   0  0  0  0  0  0  0  0  0  0  0  0
    6.6830  -13.8014   25.9084 C   0  0  0  0  0  0  0  0  0  0  0  0
    6.7909  -12.3888   26.4262 C   0  0  0  0  0  0  0  0  0  0  0  0
    8.2252  -12.2860   26.9144 C   0  0  0  0  0  0  0  0  0  0  0  0
    8.8523  -13.6481   26.5914 C   0  0  1  0  0  0  0  0  0  0  0  0
    8.7169  -14.4829   27.8387 C   0  0  0  0  0  0  0  0  0  0  0  0
    9.5493  -14.2058   28.9137 O   0  0  0  0  0  0  0  0  0  0  0  0
    7.8788  -15.4066   27.9173 O   0  0  0  0  0  0  0  0  0  0  0  0
  2  1  1  6
  2  3  1  0
  3  4  1  0
  4  5  1  0
  5  6  2  0
  5  9  1  0
  7 16  1  0
  7  2  1  0
  8  7  2  0
 10 11  1  0
 11 12  2  0
 11 13  1  0
 13 14  1  0
 15 14  1  1
 15 16  1  0
 17 15  1  0
 17 18  2  0
 19 17  1  0
 20 19  1  0
 21 20  1  0
 21 22  1  0
 23 22  1  0
 23 19  1  0
 23 24  1  1
 25 24  1  0
 26 24  2  0
M  END
$$$$
