EQP.pdb
     RDKit          3D

 26 26  0  0  1  0  0  0  0  0999 V2000
    6.9718  -16.9160   19.4589 N   0  0  0  0  0  0  0  0  0  0  0  0
    7.9847  -16.9750   20.5327 C   0  0  1  0  0  0  0  0  0  0  0  0
    9.1473  -16.1854   20.0470 C   0  0  0  0  0  0  0  0  0  0  0  0
    9.6781  -16.7186   18.7602 C   0  0  0  0  0  0  0  0  0  0  0  0
   10.8032  -15.9602   18.1843 C   0  0  0  0  0  0  0  0  0  0  0  0
   11.1021  -15.9457   16.9839 O   0  0  0  0  0  0  0  0  0  0  0  0
    7.3732  -16.4972   21.7867 C   0  0  0  0  0  0  0  0  0  0  0  0
    6.5773  -15.5219   21.8418 O   0  0  0  0  0  0  0  0  0  0  0  0
   11.6115  -15.1900   19.0337 O   0  0  0  0  0  0  0  0  0  0  0  0
    7.0063  -20.0052   26.8354 N   0  0  0  0  0  0  0  0  0  0  0  0
    6.6480  -18.7547   27.4376 C   0  0  0  0  0  0  0  0  0  0  0  0
    6.3084  -18.7120   28.6411 O   0  0  0  0  0  0  0  0  0  0  0  0
    6.6865  -17.5189   26.6138 C   0  0  0  0  0  0  0  0  0  0  0  0
    7.0706  -17.9041   25.2043 C   0  0  0  0  0  0  0  0  0  0  0  0
    7.1404  -16.6735   24.2875 C   0  0  2  0  0  0  0  0  0  0  0  0
    7.6834  -17.1549   23.0023 N   0  0  0  0  0  0  0  0  0  0  0  0
    8.1368  -15.7590   24.8762 C   0  0  0  0  0  0  0  0  0  0  0  0
    9.3610  -15.9618   24.5393 O   0  0  0  0  0  0  0  0  0  0  0  0
    7.8734  -14.6943   25.7628 N   0  0  0  0  0  0  0  0  0  0  0  0
    6.5159  -14.3772   26.2638 C   0  0  0  0  0  0  0  0  0  0  0  0
    6.4348  -12.8715   26.2263 C   0  0  0  0  0  0  0  0  0  0  0  0
    7.8801  -12.4233   26.3537 C   0  0  0  0  0  0  0  0  0  0  0  0
    8.6945  -13.7220   26.4064 C   0  0  1  0  0  0  0  0  0  0  0  0
    8.8917  -14.0391   27.8665 C   0  0  0  0  0  0  0  0  0  0  0  0
    8.2207  -15.1285   28.4034 O   0  0  0  0  0  0  0  0  0  0  0  0
    9.6393  -13.3456   28.5890 O   0  0  0  0  0  0  0  0  0  0  0  0
  2  1  1  6
  2  3  1  0
  3  4  1  0
  4  5  1  0
  5  6  2  0
  5  9  1  0
  7 16  1  0
  7  2  1  0
  8  7  2  0
 10 11  1  0
 11 12  2  0
 11 13  1  0
 13 14  1  0
 15 14  1  1
 15 16  1  0
 17 15  1  0
 17 18  2  0
 19 17  1  0
 20 19  1  0
 21 20  1  0
 21 22  1  0
 23 22  1  0
 23 19  1  0
 23 24  1  1
 25 24  1  0
 26 24  2  0
M  END
$$$$
