EQP.pdb
     RDKit          3D

 26 26  0  0  1  0  0  0  0  0999 V2000
   10.5031  -16.6235   20.5940 N   0  0  0  0  0  0  0  0  0  0  0  0
    9.8387  -15.3208   20.3839 C   0  0  1  0  0  0  0  0  0  0  0  0
    9.2547  -15.3712   19.0174 C   0  0  0  0  0  0  0  0  0  0  0  0
    8.5428  -14.1074   18.6742 C   0  0  0  0  0  0  0  0  0  0  0  0
    7.8858  -14.0967   17.3547 C   0  0  0  0  0  0  0  0  0  0  0  0
    8.3963  -13.6580   16.3169 O   0  0  0  0  0  0  0  0  0  0  0  0
    8.8746  -15.0996   21.4777 C   0  0  0  0  0  0  0  0  0  0  0  0
    8.1272  -14.0875   21.5483 O   0  0  0  0  0  0  0  0  0  0  0  0
    6.5875  -14.6148   17.2359 O   0  0  0  0  0  0  0  0  0  0  0  0
    7.1977  -19.7405   23.5571 N   0  0  0  0  0  0  0  0  0  0  0  0
    6.0526  -19.0114   24.0172 C   0  0  0  0  0  0  0  0  0  0  0  0
    4.9302  -19.5633   24.0539 O   0  0  0  0  0  0  0  0  0  0  0  0
    6.2201  -17.5991   24.4469 C   0  0  0  0  0  0  0  0  0  0  0  0
    7.6797  -17.2345   24.3078 C   0  0  0  0  0  0  0  0  0  0  0  0
    7.8517  -15.8569   23.6501 C   0  0  2  0  0  0  0  0  0  0  0  0
    8.7679  -16.0622   22.5113 N   0  0  0  0  0  0  0  0  0  0  0  0
    8.5458  -15.0002   24.6299 C   0  0  0  0  0  0  0  0  0  0  0  0
    9.8244  -14.9280   24.5142 O   0  0  0  0  0  0  0  0  0  0  0  0
    7.9434  -14.2606   25.6686 N   0  0  0  0  0  0  0  0  0  0  0  0
    6.4851  -14.2730   25.9284 C   0  0  0  0  0  0  0  0  0  0  0  0
    6.1378  -12.8379   26.2371 C   0  0  0  0  0  0  0  0  0  0  0  0
    7.4328  -12.2549   26.7748 C   0  0  0  0  0  0  0  0  0  0  0  0
    8.4493  -13.4003   26.6873 C   0  0  1  0  0  0  0  0  0  0  0  0
    8.4463  -14.0730   28.0358 C   0  0  0  0  0  0  0  0  0  0  0  0
    7.8182  -15.3041   28.1595 O   0  0  0  0  0  0  0  0  0  0  0  0
    8.9928  -13.5461   29.0285 O   0  0  0  0  0  0  0  0  0  0  0  0
  2  1  1  1
  2  3  1  0
  3  4  1  0
  4  5  1  0
  5  6  2  0
  5  9  1  0
  7 16  1  0
  7  2  1  0
  8  7  2  0
 10 11  1  0
 11 12  2  0
 11 13  1  0
 13 14  1  0
 15 14  1  1
 15 16  1  0
 17 15  1  0
 17 18  2  0
 19 17  1  0
 20 19  1  0
 21 20  1  0
 21 22  1  0
 23 22  1  0
 23 19  1  0
 23 24  1  1
 25 24  1  0
 26 24  2  0
M  END
$$$$
