EQP.pdb
     RDKit          3D

 26 26  0  0  1  0  0  0  0  0999 V2000
    9.1793  -16.0333   19.8527 N   0  0  0  0  0  0  0  0  0  0  0  0
    8.6674  -14.6960   20.2161 C   0  0  1  0  0  0  0  0  0  0  0  0
    7.9491  -14.1893   19.0169 C   0  0  0  0  0  0  0  0  0  0  0  0
    8.6862  -14.5003   17.7592 C   0  0  0  0  0  0  0  0  0  0  0  0
    8.0312  -14.0444   16.5199 C   0  0  0  0  0  0  0  0  0  0  0  0
    7.0100  -13.3475   16.4779 O   0  0  0  0  0  0  0  0  0  0  0  0
    7.8523  -14.8177   21.4390 C   0  0  0  0  0  0  0  0  0  0  0  0
    6.7883  -14.1701   21.6299 O   0  0  0  0  0  0  0  0  0  0  0  0
    8.5827  -14.4111   15.2832 O   0  0  0  0  0  0  0  0  0  0  0  0
    7.7551  -19.7505   25.0343 N   0  0  0  0  0  0  0  0  0  0  0  0
    7.0952  -18.8488   25.9321 C   0  0  0  0  0  0  0  0  0  0  0  0
    6.6248  -19.2705   27.0121 O   0  0  0  0  0  0  0  0  0  0  0  0
    6.9802  -17.4148   25.5608 C   0  0  0  0  0  0  0  0  0  0  0  0
    7.5895  -17.2329   24.1903 C   0  0  0  0  0  0  0  0  0  0  0  0
    7.5579  -15.7599   23.7553 C   0  0  2  0  0  0  0  0  0  0  0  0
    8.2694  -15.7026   22.4635 N   0  0  0  0  0  0  0  0  0  0  0  0
    8.3603  -15.0077   24.7382 C   0  0  0  0  0  0  0  0  0  0  0  0
    9.6345  -15.0317   24.5669 O   0  0  0  0  0  0  0  0  0  0  0  0
    7.8646  -14.2719   25.8344 N   0  0  0  0  0  0  0  0  0  0  0  0
    6.4357  -14.2680   26.2249 C   0  0  0  0  0  0  0  0  0  0  0  0
    6.1380  -12.8321   26.5780 C   0  0  0  0  0  0  0  0  0  0  0  0
    7.4843  -12.2722   27.0023 C   0  0  0  0  0  0  0  0  0  0  0  0
    8.4725  -13.4298   26.8117 C   0  0  1  0  0  0  0  0  0  0  0  0
    8.5817  -14.1176   28.1483 C   0  0  0  0  0  0  0  0  0  0  0  0
    8.0051  -15.3709   28.2963 O   0  0  0  0  0  0  0  0  0  0  0  0
    9.1750  -13.5835   29.1098 O   0  0  0  0  0  0  0  0  0  0  0  0
  2  1  1  6
  2  3  1  0
  3  4  1  0
  4  5  1  0
  5  6  2  0
  5  9  1  0
  7 16  1  0
  7  2  1  0
  8  7  2  0
 10 11  1  0
 11 12  2  0
 11 13  1  0
 13 14  1  0
 15 14  1  1
 15 16  1  0
 17 15  1  0
 17 18  2  0
 19 17  1  0
 20 19  1  0
 21 20  1  0
 21 22  1  0
 23 22  1  0
 23 19  1  0
 23 24  1  1
 25 24  1  0
 26 24  2  0
M  END
$$$$
