FMH.pdb
     RDKit          3D

 30 31  0  0  1  0  0  0  0  0999 V2000
    5.9789  -16.4320   19.7447 N   0  0  0  0  0  0  0  0  0  0  0  0
    6.7059  -17.2695   20.7181 C   0  0  1  0  0  0  0  0  0  0  0  0
    7.6699  -18.1387   19.9359 C   0  0  0  0  0  0  0  0  0  0  0  0
    8.4394  -19.0835   20.7566 C   0  0  0  0  0  0  0  0  0  0  0  0
    9.8102  -18.9288   20.8197 C   0  0  0  0  0  0  0  0  0  0  0  0
   10.6187  -19.7677   21.5786 C   0  0  0  0  0  0  0  0  0  0  0  0
    9.9918  -20.7697   22.2723 C   0  0  0  0  0  0  0  0  0  0  0  0
    8.6154  -20.9566   22.2330 C   0  0  0  0  0  0  0  0  0  0  0  0
    7.8401  -20.1078   21.4708 C   0  0  0  0  0  0  0  0  0  0  0  0
    7.4206  -16.4003   21.6841 C   0  0  0  0  0  0  0  0  0  0  0  0
    8.2815  -15.5958   21.2058 O   0  0  0  0  0  0  0  0  0  0  0  0
    6.9947  -11.7388   27.7746 C   0  0  0  0  0  0  0  0  0  0  0  0
    6.1989  -12.7740   26.5045 S   0  0  0  0  0  0  0  0  0  0  0  0
    7.4908  -13.8977   25.8582 C   0  0  0  0  0  0  0  0  0  0  0  0
    6.8580  -14.7360   24.7941 C   0  0  0  0  0  0  0  0  0  0  0  0
    7.9100  -15.4638   23.9964 C   0  0  2  0  0  0  0  0  0  0  0  0
    7.2253  -16.3914   23.0681 N   0  0  0  0  0  0  0  0  0  0  0  0
    8.8937  -16.2142   24.7690 C   0  0  0  0  0  0  0  0  0  0  0  0
    8.5159  -17.2202   25.4884 O   0  0  0  0  0  0  0  0  0  0  0  0
   10.2894  -15.9572   24.8192 N   0  0  0  0  0  0  0  0  0  0  0  0
   11.1778  -16.7571   25.6627 C   0  0  1  0  0  0  0  0  0  0  0  0
   12.6188  -16.4880   25.3444 C   0  0  0  0  0  0  0  0  0  0  0  0
   12.8476  -16.6707   23.8942 C   0  0  0  0  0  0  0  0  0  0  0  0
   12.3186  -17.6586   23.0692 C   0  0  0  0  0  0  0  0  0  0  0  0
   12.7633  -17.4921   21.8087 N   0  0  0  0  0  0  0  0  0  0  0  0
   13.5760  -16.4065   21.8086 C   0  0  0  0  0  0  0  0  0  0  0  0
   13.6091  -15.9360   23.0586 N   0  0  0  0  0  0  0  0  0  0  0  0
   10.8988  -16.4340   27.0671 C   0  0  0  0  0  0  0  0  0  0  0  0
   11.5322  -17.0385   27.9712 O   0  0  0  0  0  0  0  0  0  0  0  0
    9.9785  -15.4972   27.5138 O   0  0  0  0  0  0  0  0  0  0  0  0
  2  1  1  6
  3  4  1  0
  3  2  1  0
  4  5  2  0
  5  6  1  0
  7  6  2  0
  8  7  1  0
  9  4  1  0
  9  8  2  0
 10  2  1  0
 10 17  1  0
 11 10  2  0
 13 12  1  0
 14 13  1  0
 15 14  1  0
 16 15  1  1
 16 17  1  0
 18 16  1  0
 19 18  2  0
 20 18  1  0
 21 20  1  0
 21 28  1  0
 22 23  1  0
 21 22  1  6
 23 27  1  0
 24 23  2  0
 24 25  1  0
 25 26  1  0
 27 26  2  0
 28 30  1  0
 29 28  2  0
M  END
$$$$
