FMH.pdb
     RDKit          3D

 30 31  0  0  1  0  0  0  0  0999 V2000
    7.2900  -18.0832   21.0712 N   0  0  0  0  0  0  0  0  0  0  0  0
    7.8823  -16.7601   20.7952 C   0  0  1  0  0  0  0  0  0  0  0  0
    6.7833  -15.8809   20.2334 C   0  0  0  0  0  0  0  0  0  0  0  0
    7.2041  -14.5091   19.9177 C   0  0  0  0  0  0  0  0  0  0  0  0
    7.0063  -13.5291   20.8703 C   0  0  0  0  0  0  0  0  0  0  0  0
    7.3822  -12.2062   20.6648 C   0  0  0  0  0  0  0  0  0  0  0  0
    7.9658  -11.9088   19.4609 C   0  0  0  0  0  0  0  0  0  0  0  0
    8.1807  -12.8677   18.4784 C   0  0  0  0  0  0  0  0  0  0  0  0
    7.7966  -14.1718   18.7121 C   0  0  0  0  0  0  0  0  0  0  0  0
    8.4415  -16.1961   22.0477 C   0  0  0  0  0  0  0  0  0  0  0  0
    9.6676  -15.8590   22.0291 O   0  0  0  0  0  0  0  0  0  0  0  0
    7.1245  -11.9658   28.4365 C   0  0  0  0  0  0  0  0  0  0  0  0
    6.4643  -12.7366   26.9238 S   0  0  0  0  0  0  0  0  0  0  0  0
    7.6606  -14.0303   26.4289 C   0  0  0  0  0  0  0  0  0  0  0  0
    7.1838  -14.6032   25.1329 C   0  0  0  0  0  0  0  0  0  0  0  0
    8.2977  -15.3454   24.4391 C   0  0  2  0  0  0  0  0  0  0  0  0
    7.7355  -16.0039   23.2385 N   0  0  0  0  0  0  0  0  0  0  0  0
    8.9959  -16.3453   25.2393 C   0  0  0  0  0  0  0  0  0  0  0  0
    8.3884  -17.4343   25.5820 O   0  0  0  0  0  0  0  0  0  0  0  0
   10.3352  -16.2580   25.7030 N   0  0  0  0  0  0  0  0  0  0  0  0
   11.1260  -17.4603   25.9672 C   0  0  1  0  0  0  0  0  0  0  0  0
   12.5092  -17.3377   25.3997 C   0  0  0  0  0  0  0  0  0  0  0  0
   13.3118  -18.5165   25.7936 C   0  0  0  0  0  0  0  0  0  0  0  0
   13.9483  -18.7419   27.0102 C   0  0  0  0  0  0  0  0  0  0  0  0
   14.5818  -19.9305   26.9848 N   0  0  0  0  0  0  0  0  0  0  0  0
   14.3627  -20.4773   25.7633 C   0  0  0  0  0  0  0  0  0  0  0  0
   13.6051  -19.6189   25.0747 N   0  0  0  0  0  0  0  0  0  0  0  0
   11.1889  -17.6640   27.4195 C   0  0  0  0  0  0  0  0  0  0  0  0
   11.4280  -18.8164   27.8655 O   0  0  0  0  0  0  0  0  0  0  0  0
   11.0075  -16.6821   28.3823 O   0  0  0  0  0  0  0  0  0  0  0  0
  2  1  1  1
  3  4  1  0
  3  2  1  0
  4  5  2  0
  5  6  1  0
  7  6  2  0
  8  7  1  0
  9  4  1  0
  9  8  2  0
 10  2  1  0
 10 17  1  0
 11 10  2  0
 13 12  1  0
 14 13  1  0
 15 14  1  0
 16 15  1  1
 16 17  1  0
 18 16  1  0
 19 18  2  0
 20 18  1  0
 21 20  1  0
 21 28  1  0
 22 23  1  0
 21 22  1  1
 23 27  1  0
 24 23  2  0
 24 25  1  0
 25 26  1  0
 27 26  2  0
 28 30  1  0
 29 28  2  0
M  END
$$$$
