FMH.pdb
     RDKit          3D

 30 31  0  0  1  0  0  0  0  0999 V2000
    6.6719  -17.4915   26.1266 N   0  0  0  0  0  0  0  0  0  0  0  0
    6.9963  -16.2906   25.3328 C   0  0  1  0  0  0  0  0  0  0  0  0
    8.0518  -15.5157   26.0956 C   0  0  0  0  0  0  0  0  0  0  0  0
    7.7472  -14.0898   26.2761 C   0  0  0  0  0  0  0  0  0  0  0  0
    6.4411  -13.7290   26.5425 C   0  0  0  0  0  0  0  0  0  0  0  0
    6.0608  -12.4060   26.7386 C   0  0  0  0  0  0  0  0  0  0  0  0
    7.0486  -11.4596   26.6558 C   0  0  0  0  0  0  0  0  0  0  0  0
    8.3731  -11.7845   26.3892 C   0  0  0  0  0  0  0  0  0  0  0  0
    8.7191  -13.1061   26.1993 C   0  0  0  0  0  0  0  0  0  0  0  0
    7.4849  -16.6986   23.9933 C   0  0  0  0  0  0  0  0  0  0  0  0
    8.0450  -17.8371   23.9080 O   0  0  0  0  0  0  0  0  0  0  0  0
    8.4873  -11.7257   20.1988 C   0  0  0  0  0  0  0  0  0  0  0  0
    7.3863  -12.9969   20.8988 S   0  0  0  0  0  0  0  0  0  0  0  0
    7.7079  -14.5397   19.9684 C   0  0  0  0  0  0  0  0  0  0  0  0
    6.7824  -15.5834   20.5064 C   0  0  0  0  0  0  0  0  0  0  0  0
    7.5101  -16.4977   21.4591 C   0  0  2  0  0  0  0  0  0  0  0  0
    7.3791  -15.9401   22.8241 N   0  0  0  0  0  0  0  0  0  0  0  0
    8.9236  -16.7215   21.1772 C   0  0  0  0  0  0  0  0  0  0  0  0
    9.2833  -17.2040   20.0326 O   0  0  0  0  0  0  0  0  0  0  0  0
   10.0043  -16.4506   22.0576 N   0  0  0  0  0  0  0  0  0  0  0  0
   11.3740  -16.3216   21.5596 C   0  0  1  0  0  0  0  0  0  0  0  0
   11.6105  -14.9663   20.9618 C   0  0  0  0  0  0  0  0  0  0  0  0
   12.9675  -14.9146   20.3746 C   0  0  0  0  0  0  0  0  0  0  0  0
   14.1842  -15.0514   21.0356 C   0  0  0  0  0  0  0  0  0  0  0  0
   15.1998  -14.9425   20.1574 N   0  0  0  0  0  0  0  0  0  0  0  0
   14.6532  -14.7356   18.9337 C   0  0  0  0  0  0  0  0  0  0  0  0
   13.3263  -14.7241   19.0889 N   0  0  0  0  0  0  0  0  0  0  0  0
   12.2972  -16.5520   22.6772 C   0  0  0  0  0  0  0  0  0  0  0  0
   13.5371  -16.5004   22.4669 O   0  0  0  0  0  0  0  0  0  0  0  0
   11.9296  -16.8281   23.9859 O   0  0  0  0  0  0  0  0  0  0  0  0
  2  1  1  1
  3  4  1  0
  3  2  1  0
  4  5  2  0
  5  6  1  0
  7  6  2  0
  8  7  1  0
  9  4  1  0
  9  8  2  0
 10  2  1  0
 10 17  1  0
 11 10  2  0
 13 12  1  0
 14 13  1  0
 15 14  1  0
 16 15  1  6
 16 17  1  0
 18 16  1  0
 19 18  2  0
 20 18  1  0
 21 20  1  0
 21 28  1  0
 22 23  1  0
 21 22  1  1
 23 27  1  0
 24 23  2  0
 24 25  1  0
 25 26  1  0
 27 26  2  0
 28 30  1  0
 29 28  2  0
M  END
$$$$
