FMH.pdb
     RDKit          3D

 30 31  0  0  1  0  0  0  0  0999 V2000
    6.0940  -18.1344   25.7408 N   0  0  0  0  0  0  0  0  0  0  0  0
    6.3975  -16.7213   25.4431 C   0  0  1  0  0  0  0  0  0  0  0  0
    7.0995  -16.1443   26.6559 C   0  0  0  0  0  0  0  0  0  0  0  0
    7.2155  -14.6797   26.6514 C   0  0  0  0  0  0  0  0  0  0  0  0
    8.4795  -14.1240   26.6717 C   0  0  0  0  0  0  0  0  0  0  0  0
    8.6872  -12.7492   26.6584 C   0  0  0  0  0  0  0  0  0  0  0  0
    7.5707  -11.9551   26.6239 C   0  0  0  0  0  0  0  0  0  0  0  0
    6.2834  -12.4779   26.6031 C   0  0  0  0  0  0  0  0  0  0  0  0
    6.1099  -13.8462   26.6171 C   0  0  0  0  0  0  0  0  0  0  0  0
    7.2513  -16.6417   24.2331 C   0  0  0  0  0  0  0  0  0  0  0  0
    8.1674  -17.5161   24.1174 O   0  0  0  0  0  0  0  0  0  0  0  0
    7.6710  -11.6687   19.5868 C   0  0  0  0  0  0  0  0  0  0  0  0
    7.4987  -13.2799   18.7547 S   0  0  0  0  0  0  0  0  0  0  0  0
    8.2856  -14.5208   19.8457 C   0  0  0  0  0  0  0  0  0  0  0  0
    7.5305  -14.5197   21.1361 C   0  0  0  0  0  0  0  0  0  0  0  0
    8.0406  -15.6045   22.0503 C   0  0  2  0  0  0  0  0  0  0  0  0
    7.1310  -15.6918   23.2149 N   0  0  0  0  0  0  0  0  0  0  0  0
    9.4075  -15.4437   22.5335 C   0  0  0  0  0  0  0  0  0  0  0  0
    9.6217  -15.1627   23.7774 O   0  0  0  0  0  0  0  0  0  0  0  0
   10.5890  -15.5731   21.7565 N   0  0  0  0  0  0  0  0  0  0  0  0
   11.7518  -16.3041   22.2606 C   0  0  1  0  0  0  0  0  0  0  0  0
   11.4218  -17.7459   22.5109 C   0  0  0  0  0  0  0  0  0  0  0  0
   11.3183  -17.9841   23.9674 C   0  0  0  0  0  0  0  0  0  0  0  0
   11.4696  -17.0552   24.9923 C   0  0  0  0  0  0  0  0  0  0  0  0
   11.3043  -17.6565   26.1863 N   0  0  0  0  0  0  0  0  0  0  0  0
   11.0480  -18.9662   25.9453 C   0  0  0  0  0  0  0  0  0  0  0  0
   11.0608  -19.1354   24.6201 N   0  0  0  0  0  0  0  0  0  0  0  0
   12.8323  -16.1942   21.2732 C   0  0  0  0  0  0  0  0  0  0  0  0
   14.0229  -16.1224   21.6750 O   0  0  0  0  0  0  0  0  0  0  0  0
   12.6691  -16.1623   19.8962 O   0  0  0  0  0  0  0  0  0  0  0  0
  2  1  1  1
  3  4  1  0
  3  2  1  0
  4  5  2  0
  5  6  1  0
  7  6  2  0
  8  7  1  0
  9  4  1  0
  9  8  2  0
 10  2  1  0
 10 17  1  0
 11 10  2  0
 13 12  1  0
 14 13  1  0
 15 14  1  0
 16 15  1  6
 16 17  1  0
 18 16  1  0
 19 18  2  0
 20 18  1  0
 21 20  1  0
 21 28  1  0
 22 23  1  0
 21 22  1  6
 23 27  1  0
 24 23  2  0
 24 25  1  0
 25 26  1  0
 27 26  2  0
 28 30  1  0
 29 28  2  0
M  END
$$$$
