FMH.pdb
     RDKit          3D

 30 31  0  0  1  0  0  0  0  0999 V2000
    8.1736  -16.6398   26.1878 N   0  0  0  0  0  0  0  0  0  0  0  0
    7.0889  -16.9382   25.2329 C   0  0  1  0  0  0  0  0  0  0  0  0
    5.9702  -15.9504   25.4960 C   0  0  0  0  0  0  0  0  0  0  0  0
    6.4221  -14.6226   25.9332 C   0  0  0  0  0  0  0  0  0  0  0  0
    5.5930  -13.5420   25.7052 C   0  0  0  0  0  0  0  0  0  0  0  0
    5.9316  -12.2505   26.0935 C   0  0  0  0  0  0  0  0  0  0  0  0
    7.1394  -12.0897   26.7211 C   0  0  0  0  0  0  0  0  0  0  0  0
    7.9999  -13.1527   26.9673 C   0  0  0  0  0  0  0  0  0  0  0  0
    7.6357  -14.4224   26.5699 C   0  0  0  0  0  0  0  0  0  0  0  0
    7.6023  -16.8199   23.8465 C   0  0  0  0  0  0  0  0  0  0  0  0
    7.5012  -17.8491   23.1064 O   0  0  0  0  0  0  0  0  0  0  0  0
    5.8479  -11.6667   19.6126 C   0  0  0  0  0  0  0  0  0  0  0  0
    7.4995  -12.1093   20.2405 S   0  0  0  0  0  0  0  0  0  0  0  0
    7.3713  -13.8115   20.9005 C   0  0  0  0  0  0  0  0  0  0  0  0
    8.7060  -14.1675   21.4723 C   0  0  0  0  0  0  0  0  0  0  0  0
    8.7265  -15.6086   21.9147 C   0  0  2  0  0  0  0  0  0  0  0  0
    8.1825  -15.6768   23.2897 N   0  0  0  0  0  0  0  0  0  0  0  0
   10.0281  -16.2665   21.8917 C   0  0  0  0  0  0  0  0  0  0  0  0
   10.5650  -16.5922   20.7613 O   0  0  0  0  0  0  0  0  0  0  0  0
   10.8152  -16.6013   23.0252 N   0  0  0  0  0  0  0  0  0  0  0  0
   12.2323  -16.9399   22.8912 C   0  0  1  0  0  0  0  0  0  0  0  0
   13.0679  -15.7121   22.6813 C   0  0  0  0  0  0  0  0  0  0  0  0
   13.2600  -15.4862   21.2318 C   0  0  0  0  0  0  0  0  0  0  0  0
   12.7034  -16.2064   20.1794 C   0  0  0  0  0  0  0  0  0  0  0  0
   13.1187  -15.6977   19.0032 N   0  0  0  0  0  0  0  0  0  0  0  0
   13.9397  -14.6553   19.2830 C   0  0  0  0  0  0  0  0  0  0  0  0
   14.0068  -14.5494   20.6132 N   0  0  0  0  0  0  0  0  0  0  0  0
   12.6581  -17.6425   24.1075 C   0  0  0  0  0  0  0  0  0  0  0  0
   13.8698  -17.9561   24.2401 O   0  0  0  0  0  0  0  0  0  0  0  0
   11.8335  -18.0063   25.1619 O   0  0  0  0  0  0  0  0  0  0  0  0
  2  1  1  1
  3  4  1  0
  3  2  1  0
  4  5  2  0
  5  6  1  0
  7  6  2  0
  8  7  1  0
  9  4  1  0
  9  8  2  0
 10  2  1  0
 10 17  1  0
 11 10  2  0
 13 12  1  0
 14 13  1  0
 15 14  1  0
 16 15  1  1
 16 17  1  0
 18 16  1  0
 19 18  2  0
 20 18  1  0
 21 20  1  0
 21 28  1  0
 22 23  1  0
 21 22  1  1
 23 27  1  0
 24 23  2  0
 24 25  1  0
 25 26  1  0
 27 26  2  0
 28 30  1  0
 29 28  2  0
M  END
$$$$
