FMH.pdb
     RDKit          3D

 30 31  0  0  1  0  0  0  0  0999 V2000
    8.0307  -17.0384   20.5224 N   0  0  0  0  0  0  0  0  0  0  0  0
    9.4280  -16.6347   20.7715 C   0  0  1  0  0  0  0  0  0  0  0  0
    9.7659  -15.5393   19.7802 C   0  0  0  0  0  0  0  0  0  0  0  0
    8.8932  -14.3599   19.8568 C   0  0  0  0  0  0  0  0  0  0  0  0
    7.7970  -14.4112   20.6950 C   0  0  0  0  0  0  0  0  0  0  0  0
    6.9219  -13.3403   20.8404 C   0  0  0  0  0  0  0  0  0  0  0  0
    7.1945  -12.2147   20.1077 C   0  0  0  0  0  0  0  0  0  0  0  0
    8.2874  -12.1263   19.2540 C   0  0  0  0  0  0  0  0  0  0  0  0
    9.1373  -13.2057   19.1312 C   0  0  0  0  0  0  0  0  0  0  0  0
    9.5657  -16.1618   22.1704 C   0  0  0  0  0  0  0  0  0  0  0  0
   10.7050  -15.7157   22.5169 O   0  0  0  0  0  0  0  0  0  0  0  0
    6.8360  -12.0047   27.9894 C   0  0  0  0  0  0  0  0  0  0  0  0
    6.5636  -12.7516   26.3505 S   0  0  0  0  0  0  0  0  0  0  0  0
    7.8070  -14.0819   26.1669 C   0  0  0  0  0  0  0  0  0  0  0  0
    7.6729  -14.6264   24.7810 C   0  0  0  0  0  0  0  0  0  0  0  0
    8.7232  -15.6760   24.5193 C   0  0  2  0  0  0  0  0  0  0  0  0
    8.5517  -16.1643   23.1325 N   0  0  0  0  0  0  0  0  0  0  0  0
    8.7229  -16.8207   25.4234 C   0  0  0  0  0  0  0  0  0  0  0  0
    7.9349  -17.8206   25.1959 O   0  0  0  0  0  0  0  0  0  0  0  0
    9.5339  -16.9729   26.5790 N   0  0  0  0  0  0  0  0  0  0  0  0
   10.4549  -18.1015   26.7157 C   0  0  1  0  0  0  0  0  0  0  0  0
   11.4114  -18.1664   25.5620 C   0  0  0  0  0  0  0  0  0  0  0  0
   10.9843  -19.2282   24.6244 C   0  0  0  0  0  0  0  0  0  0  0  0
    9.8660  -20.0501   24.7251 C   0  0  0  0  0  0  0  0  0  0  0  0
    9.8196  -20.8944   23.6765 N   0  0  0  0  0  0  0  0  0  0  0  0
   10.8973  -20.6283   22.8976 C   0  0  0  0  0  0  0  0  0  0  0  0
   11.5727  -19.6343   23.4813 N   0  0  0  0  0  0  0  0  0  0  0  0
   11.1899  -17.9499   27.9772 C   0  0  0  0  0  0  0  0  0  0  0  0
   11.5543  -18.9809   28.6003 O   0  0  0  0  0  0  0  0  0  0  0  0
   11.5370  -16.7454   28.5710 O   0  0  0  0  0  0  0  0  0  0  0  0
  2  1  1  6
  3  4  1  0
  3  2  1  0
  4  5  2  0
  5  6  1  0
  7  6  2  0
  8  7  1  0
  9  4  1  0
  9  8  2  0
 10  2  1  0
 10 17  1  0
 11 10  2  0
 13 12  1  0
 14 13  1  0
 15 14  1  0
 16 15  1  1
 16 17  1  0
 18 16  1  0
 19 18  2  0
 20 18  1  0
 21 20  1  0
 21 28  1  0
 22 23  1  0
 21 22  1  6
 23 27  1  0
 24 23  2  0
 24 25  1  0
 25 26  1  0
 27 26  2  0
 28 30  1  0
 29 28  2  0
M  END
$$$$
