FMH.pdb
     RDKit          3D

 30 31  0  0  1  0  0  0  0  0999 V2000
    7.8231  -18.0014   21.5266 N   0  0  0  0  0  0  0  0  0  0  0  0
    8.2669  -16.6264   21.2268 C   0  0  1  0  0  0  0  0  0  0  0  0
    7.1889  -15.9773   20.3823 C   0  0  0  0  0  0  0  0  0  0  0  0
    7.4460  -14.5708   20.0445 C   0  0  0  0  0  0  0  0  0  0  0  0
    8.1302  -14.2934   18.8775 C   0  0  0  0  0  0  0  0  0  0  0  0
    8.4096  -12.9933   18.4709 C   0  0  0  0  0  0  0  0  0  0  0  0
    7.9725  -11.9826   19.2867 C   0  0  0  0  0  0  0  0  0  0  0  0
    7.2816  -12.2229   20.4682 C   0  0  0  0  0  0  0  0  0  0  0  0
    7.0197  -13.5238   20.8446 C   0  0  0  0  0  0  0  0  0  0  0  0
    8.4817  -15.8872   22.4944 C   0  0  0  0  0  0  0  0  0  0  0  0
    9.3607  -14.9682   22.4820 O   0  0  0  0  0  0  0  0  0  0  0  0
    7.8394  -11.6351   27.5956 C   0  0  0  0  0  0  0  0  0  0  0  0
    6.7164  -12.5044   26.4549 S   0  0  0  0  0  0  0  0  0  0  0  0
    6.8592  -14.2887   26.8361 C   0  0  0  0  0  0  0  0  0  0  0  0
    6.6890  -15.0322   25.5501 C   0  0  0  0  0  0  0  0  0  0  0  0
    8.0302  -15.3456   24.9369 C   0  0  2  0  0  0  0  0  0  0  0  0
    7.8003  -16.1148   23.6933 N   0  0  0  0  0  0  0  0  0  0  0  0
    8.9624  -16.0850   25.7807 C   0  0  0  0  0  0  0  0  0  0  0  0
    9.4850  -15.5140   26.8166 O   0  0  0  0  0  0  0  0  0  0  0  0
    9.3775  -17.4293   25.5885 N   0  0  0  0  0  0  0  0  0  0  0  0
   10.4044  -18.0345   26.4370 C   0  0  1  0  0  0  0  0  0  0  0  0
   10.1318  -19.4916   26.6662 C   0  0  0  0  0  0  0  0  0  0  0  0
    8.7076  -19.6788   27.0204 C   0  0  0  0  0  0  0  0  0  0  0  0
    7.9105  -18.8469   27.8007 C   0  0  0  0  0  0  0  0  0  0  0  0
    6.6679  -19.3579   27.8967 N   0  0  0  0  0  0  0  0  0  0  0  0
    6.6519  -20.5133   27.1870 C   0  0  0  0  0  0  0  0  0  0  0  0
    7.8747  -20.6814   26.6755 N   0  0  0  0  0  0  0  0  0  0  0  0
   11.7076  -17.8578   25.7851 C   0  0  0  0  0  0  0  0  0  0  0  0
   12.7362  -18.3288   26.3369 O   0  0  0  0  0  0  0  0  0  0  0  0
   11.9277  -17.2043   24.5816 O   0  0  0  0  0  0  0  0  0  0  0  0
  2  1  1  1
  3  4  1  0
  3  2  1  0
  4  5  2  0
  5  6  1  0
  7  6  2  0
  8  7  1  0
  9  4  1  0
  9  8  2  0
 10  2  1  0
 10 17  1  0
 11 10  2  0
 13 12  1  0
 14 13  1  0
 15 14  1  0
 16 15  1  1
 16 17  1  0
 18 16  1  0
 19 18  2  0
 20 18  1  0
 21 20  1  0
 21 28  1  0
 22 23  1  0
 21 22  1  6
 23 27  1  0
 24 23  2  0
 24 25  1  0
 25 26  1  0
 27 26  2  0
 28 30  1  0
 29 28  2  0
M  END
$$$$
