FMH.pdb
     RDKit          3D

 30 31  0  0  1  0  0  0  0  0999 V2000
    6.3684  -18.2502   25.5136 N   0  0  0  0  0  0  0  0  0  0  0  0
    6.6001  -16.8227   25.2203 C   0  0  1  0  0  0  0  0  0  0  0  0
    7.3896  -16.2454   26.3778 C   0  0  0  0  0  0  0  0  0  0  0  0
    7.4616  -14.7781   26.3926 C   0  0  0  0  0  0  0  0  0  0  0  0
    8.7079  -14.1853   26.4415 C   0  0  0  0  0  0  0  0  0  0  0  0
    8.8744  -12.8048   26.4480 C   0  0  0  0  0  0  0  0  0  0  0  0
    7.7354  -12.0440   26.4035 C   0  0  0  0  0  0  0  0  0  0  0  0
    6.4648  -12.6046   26.3540 C   0  0  0  0  0  0  0  0  0  0  0  0
    6.3323  -13.9776   26.3488 C   0  0  0  0  0  0  0  0  0  0  0  0
    7.3392  -16.6928   23.9411 C   0  0  0  0  0  0  0  0  0  0  0  0
    8.0617  -17.6794   23.5919 O   0  0  0  0  0  0  0  0  0  0  0  0
    7.8941  -11.3704   20.5405 C   0  0  0  0  0  0  0  0  0  0  0  0
    7.7778  -12.4651   19.0892 S   0  0  0  0  0  0  0  0  0  0  0  0
    8.0518  -14.1703   19.6947 C   0  0  0  0  0  0  0  0  0  0  0  0
    7.5838  -14.2178   21.1139 C   0  0  0  0  0  0  0  0  0  0  0  0
    7.8389  -15.5783   21.7115 C   0  0  2  0  0  0  0  0  0  0  0  0
    7.3054  -15.5829   23.0922 N   0  0  0  0  0  0  0  0  0  0  0  0
    9.2313  -16.0115   21.7448 C   0  0  0  0  0  0  0  0  0  0  0  0
    9.8359  -16.3208   20.6443 O   0  0  0  0  0  0  0  0  0  0  0  0
   10.0412  -16.1326   22.9050 N   0  0  0  0  0  0  0  0  0  0  0  0
   11.5004  -16.1792   22.8096 C   0  0  1  0  0  0  0  0  0  0  0  0
   12.0646  -14.8405   22.4358 C   0  0  0  0  0  0  0  0  0  0  0  0
   12.5416  -14.8781   21.0358 C   0  0  0  0  0  0  0  0  0  0  0  0
   12.5028  -15.9542   20.1544 C   0  0  0  0  0  0  0  0  0  0  0  0
   13.0345  -15.5976   18.9693 N   0  0  0  0  0  0  0  0  0  0  0  0
   13.4184  -14.3012   19.0741 C   0  0  0  0  0  0  0  0  0  0  0  0
   13.1141  -13.8963   20.3104 N   0  0  0  0  0  0  0  0  0  0  0  0
   12.0361  -16.6124   24.1057 C   0  0  0  0  0  0  0  0  0  0  0  0
   13.2832  -16.6417   24.2731 O   0  0  0  0  0  0  0  0  0  0  0  0
   11.2821  -17.0039   25.2022 O   0  0  0  0  0  0  0  0  0  0  0  0
  2  1  1  1
  3  4  1  0
  3  2  1  0
  4  5  2  0
  5  6  1  0
  7  6  2  0
  8  7  1  0
  9  4  1  0
  9  8  2  0
 10  2  1  0
 10 17  1  0
 11 10  2  0
 13 12  1  0
 14 13  1  0
 15 14  1  0
 16 15  1  1
 16 17  1  0
 18 16  1  0
 19 18  2  0
 20 18  1  0
 21 20  1  0
 21 28  1  0
 22 23  1  0
 21 22  1  1
 23 27  1  0
 24 23  2  0
 24 25  1  0
 25 26  1  0
 27 26  2  0
 28 30  1  0
 29 28  2  0
M  END
$$$$
