FMH.pdb
     RDKit          3D

 30 31  0  0  1  0  0  0  0  0999 V2000
    8.7343  -16.8134   21.3794 N   0  0  0  0  0  0  0  0  0  0  0  0
    9.9527  -16.1804   21.9200 C   0  0  1  0  0  0  0  0  0  0  0  0
   10.2741  -14.9909   21.0377 C   0  0  0  0  0  0  0  0  0  0  0  0
    9.1097  -14.1728   20.6726 C   0  0  0  0  0  0  0  0  0  0  0  0
    8.6603  -13.2336   21.5797 C   0  0  0  0  0  0  0  0  0  0  0  0
    7.5732  -12.4073   21.3171 C   0  0  0  0  0  0  0  0  0  0  0  0
    6.9558  -12.5643   20.1037 C   0  0  0  0  0  0  0  0  0  0  0  0
    7.3791  -13.4984   19.1660 C   0  0  0  0  0  0  0  0  0  0  0  0
    8.4608  -14.3038   19.4561 C   0  0  0  0  0  0  0  0  0  0  0  0
    9.7149  -15.7659   23.3240 C   0  0  0  0  0  0  0  0  0  0  0  0
   10.6859  -15.2150   23.9330 O   0  0  0  0  0  0  0  0  0  0  0  0
    7.1186  -11.6244   26.8446 C   0  0  0  0  0  0  0  0  0  0  0  0
    5.9107  -12.5733   25.8655 S   0  0  0  0  0  0  0  0  0  0  0  0
    6.8691  -13.7715   24.8679 C   0  0  0  0  0  0  0  0  0  0  0  0
    7.0046  -15.0184   25.6817 C   0  0  0  0  0  0  0  0  0  0  0  0
    8.3600  -15.6444   25.4717 C   0  0  2  0  0  0  0  0  0  0  0  0
    8.5182  -15.9284   24.0276 N   0  0  0  0  0  0  0  0  0  0  0  0
    8.6231  -16.8672   26.2221 C   0  0  0  0  0  0  0  0  0  0  0  0
    8.5371  -16.8619   27.5124 O   0  0  0  0  0  0  0  0  0  0  0  0
    8.9744  -18.1273   25.6697 N   0  0  0  0  0  0  0  0  0  0  0  0
    9.2934  -19.2689   26.5274 C   0  0  1  0  0  0  0  0  0  0  0  0
    8.9514  -20.5662   25.8565 C   0  0  0  0  0  0  0  0  0  0  0  0
    7.6351  -20.4475   25.1916 C   0  0  0  0  0  0  0  0  0  0  0  0
    6.4922  -19.8198   25.6776 C   0  0  0  0  0  0  0  0  0  0  0  0
    5.4925  -19.9259   24.7809 N   0  0  0  0  0  0  0  0  0  0  0  0
    5.9761  -20.6167   23.7189 C   0  0  0  0  0  0  0  0  0  0  0  0
    7.2507  -20.9143   23.9866 N   0  0  0  0  0  0  0  0  0  0  0  0
   10.7255  -19.2236   26.8459 C   0  0  0  0  0  0  0  0  0  0  0  0
   11.2098  -20.0978   27.6110 O   0  0  0  0  0  0  0  0  0  0  0  0
   11.6300  -18.2850   26.3717 O   0  0  0  0  0  0  0  0  0  0  0  0
  2  1  1  6
  3  4  1  0
  3  2  1  0
  4  5  2  0
  5  6  1  0
  7  6  2  0
  8  7  1  0
  9  4  1  0
  9  8  2  0
 10  2  1  0
 10 17  1  0
 11 10  2  0
 13 12  1  0
 14 13  1  0
 15 14  1  0
 16 15  1  6
 16 17  1  0
 18 16  1  0
 19 18  2  0
 20 18  1  0
 21 20  1  0
 21 28  1  0
 22 23  1  0
 21 22  1  6
 23 27  1  0
 24 23  2  0
 24 25  1  0
 25 26  1  0
 27 26  2  0
 28 30  1  0
 29 28  2  0
M  END
$$$$
