WPY.pdb
     RDKit          3D

 34 37  0  0  1  0  0  0  0  0999 V2000
   25.3656  -19.5729  -19.9093 N   0  0  0  0  0  0  0  0  0  0  0  0
   24.2556  -18.9769  -19.2544 C   0  0  1  0  0  0  0  0  0  0  0  0
   22.9953  -19.4876  -19.9206 C   0  0  0  0  0  0  0  0  0  0  0  0
   22.9076  -19.0504  -21.3339 C   0  0  0  0  0  0  0  0  0  0  0  0
   23.6234  -19.5823  -22.3852 C   0  0  0  0  0  0  0  0  0  0  0  0
   23.3170  -18.9688  -23.5264 N   0  0  0  0  0  0  0  0  0  0  0  0
   22.4007  -18.0333  -23.2305 C   0  0  0  0  0  0  0  0  0  0  0  0
   21.7531  -17.1293  -24.0216 C   0  0  0  0  0  0  0  0  0  0  0  0
   20.8405  -16.2596  -23.4705 C   0  0  0  0  0  0  0  0  0  0  0  0
   20.5785  -16.2978  -22.1250 C   0  0  0  0  0  0  0  0  0  0  0  0
   21.2130  -17.1985  -21.2882 C   0  0  0  0  0  0  0  0  0  0  0  0
   22.1199  -18.0521  -21.8801 C   0  0  0  0  0  0  0  0  0  0  0  0
   24.2142  -19.0710  -17.7987 C   0  0  0  0  0  0  0  0  0  0  0  0
   25.0112  -19.9322  -17.2813 O   0  0  0  0  0  0  0  0  0  0  0  0
   23.4046  -18.3293  -16.9076 N   0  0  0  0  0  0  0  0  0  0  0  0
   22.4895  -17.2476  -17.1624 C   0  0  0  0  0  0  0  0  0  0  0  0
   22.5577  -16.4215  -15.8986 C   0  0  0  0  0  0  0  0  0  0  0  0
   23.4509  -17.1475  -14.9510 C   0  0  0  0  0  0  0  0  0  0  0  0
   23.3552  -18.5629  -15.4837 C   0  0  1  0  0  0  0  0  0  0  0  0
   22.0813  -19.2304  -15.1539 C   0  0  0  0  0  0  0  0  0  0  0  0
   21.0961  -19.0739  -15.8910 O   0  0  0  0  0  0  0  0  0  0  0  0
   25.2268  -25.3013  -15.2729 O   0  0  0  0  0  0  0  0  0  0  0  0
   24.1277  -24.4570  -15.2021 C   0  0  0  0  0  0  0  0  0  0  0  0
   23.9531  -23.3721  -16.0422 C   0  0  0  0  0  0  0  0  0  0  0  0
   22.8484  -22.5546  -15.9432 C   0  0  0  0  0  0  0  0  0  0  0  0
   21.8705  -22.7865  -14.9997 C   0  0  0  0  0  0  0  0  0  0  0  0
   20.7185  -21.8684  -14.9465 C   0  0  0  0  0  0  0  0  0  0  0  0
   20.7673  -20.9066  -13.7696 C   0  0  2  0  0  0  0  0  0  0  0  0
   21.9196  -20.0628  -14.0093 N   0  0  0  0  0  0  0  0  0  0  0  0
   20.9945  -21.6180  -12.4858 C   0  0  0  0  0  0  0  0  0  0  0  0
   22.0843  -21.4941  -11.8293 O   0  0  0  0  0  0  0  0  0  0  0  0
   22.0209  -23.8584  -14.1531 C   0  0  0  0  0  0  0  0  0  0  0  0
   23.1247  -24.6542  -14.2709 C   0  0  0  0  0  0  0  0  0  0  0  0
   20.0594  -22.4637  -11.8975 O   0  0  0  0  0  0  0  0  0  0  0  0
  2  1  1  6
  2 13  1  0
  2  3  1  0
  4  3  1  0
  4  5  2  0
  6  5  1  0
  7  6  1  0
  8  7  2  0
  9  8  1  0
 10  9  2  0
 10 11  1  0
 11 12  2  0
 12  7  1  0
 12  4  1  0
 13 14  2  0
 15 13  1  0
 15 16  1  0
 17 16  1  0
 18 19  1  0
 18 17  1  0
 19 15  1  0
 19 20  1  6
 21 20  2  0
 22 23  1  0
 23 24  2  0
 24 25  1  0
 26 27  1  0
 26 25  2  0
 28 27  1  6
 28 29  1  0
 29 20  1  0
 30 28  1  0
 31 30  2  0
 32 26  1  0
 33 32  2  0
 33 23  1  0
 34 30  1  0
M  END
$$$$
