WPY.pdb
     RDKit          3D

 34 37  0  0  1  0  0  0  0  0999 V2000
   24.6119  -20.0958  -17.1978 N   0  0  0  0  0  0  0  0  0  0  0  0
   25.1650  -19.5091  -16.0289 C   0  0  1  0  0  0  0  0  0  0  0  0
   24.1243  -18.5807  -15.4393 C   0  0  0  0  0  0  0  0  0  0  0  0
   23.8943  -17.3979  -16.3020 C   0  0  0  0  0  0  0  0  0  0  0  0
   22.9482  -17.3034  -17.3003 C   0  0  0  0  0  0  0  0  0  0  0  0
   22.9980  -16.1109  -17.8899 N   0  0  0  0  0  0  0  0  0  0  0  0
   23.9748  -15.4181  -17.2830 C   0  0  0  0  0  0  0  0  0  0  0  0
   24.4422  -14.1533  -17.4935 C   0  0  0  0  0  0  0  0  0  0  0  0
   25.4724  -13.6620  -16.7254 C   0  0  0  0  0  0  0  0  0  0  0  0
   26.0332  -14.4410  -15.7460 C   0  0  0  0  0  0  0  0  0  0  0  0
   25.5890  -15.7281  -15.5003 C   0  0  0  0  0  0  0  0  0  0  0  0
   24.5553  -16.1820  -16.2920 C   0  0  0  0  0  0  0  0  0  0  0  0
   25.7509  -20.4138  -15.0451 C   0  0  0  0  0  0  0  0  0  0  0  0
   25.2152  -21.5772  -14.9816 O   0  0  0  0  0  0  0  0  0  0  0  0
   26.8279  -20.1543  -14.1663 N   0  0  0  0  0  0  0  0  0  0  0  0
   27.7374  -19.0398  -14.1123 C   0  0  0  0  0  0  0  0  0  0  0  0
   29.0137  -19.6501  -13.5805 C   0  0  0  0  0  0  0  0  0  0  0  0
   28.7179  -21.0783  -13.2710 C   0  0  0  0  0  0  0  0  0  0  0  0
   27.2143  -21.0335  -13.0881 C   0  0  1  0  0  0  0  0  0  0  0  0
   26.7954  -20.4309  -11.8080 C   0  0  0  0  0  0  0  0  0  0  0  0
   27.1615  -19.2813  -11.5205 O   0  0  0  0  0  0  0  0  0  0  0  0
   20.1025  -21.7525  -13.2627 O   0  0  0  0  0  0  0  0  0  0  0  0
   21.1538  -21.1870  -12.5552 C   0  0  0  0  0  0  0  0  0  0  0  0
   22.2925  -20.6897  -13.1628 C   0  0  0  0  0  0  0  0  0  0  0  0
   23.3174  -20.1346  -12.4280 C   0  0  0  0  0  0  0  0  0  0  0  0
   23.2482  -20.0531  -11.0537 C   0  0  0  0  0  0  0  0  0  0  0  0
   24.3836  -19.4522  -10.3308 C   0  0  0  0  0  0  0  0  0  0  0  0
   25.3309  -20.4809   -9.7332 C   0  0  2  0  0  0  0  0  0  0  0  0
   25.9753  -21.1143  -10.8649 N   0  0  0  0  0  0  0  0  0  0  0  0
   24.5987  -21.5367   -8.9882 C   0  0  0  0  0  0  0  0  0  0  0  0
   23.9487  -21.2799   -7.9178 O   0  0  0  0  0  0  0  0  0  0  0  0
   22.1270  -20.5405  -10.4262 C   0  0  0  0  0  0  0  0  0  0  0  0
   21.1243  -21.0860  -11.1763 C   0  0  0  0  0  0  0  0  0  0  0  0
   24.5567  -22.8701   -9.3829 O   0  0  0  0  0  0  0  0  0  0  0  0
  2  1  1  6
  2 13  1  0
  2  3  1  0
  4  3  1  0
  4  5  2  0
  6  5  1  0
  7  6  1  0
  8  7  2  0
  9  8  1  0
 10  9  2  0
 10 11  1  0
 11 12  2  0
 12  7  1  0
 12  4  1  0
 13 14  2  0
 15 13  1  0
 15 16  1  0
 17 16  1  0
 18 19  1  0
 18 17  1  0
 19 15  1  0
 19 20  1  1
 21 20  2  0
 22 23  1  0
 23 24  2  0
 24 25  1  0
 26 27  1  0
 26 25  2  0
 28 27  1  6
 28 29  1  0
 29 20  1  0
 30 28  1  0
 31 30  2  0
 32 26  1  0
 33 32  2  0
 33 23  1  0
 34 30  1  0
M  END
$$$$
