WPY.pdb
     RDKit          3D

 34 37  0  0  1  0  0  0  0  0999 V2000
   23.4059  -19.2640  -18.1415 N   0  0  0  0  0  0  0  0  0  0  0  0
   24.3565  -18.7306  -17.2314 C   0  0  1  0  0  0  0  0  0  0  0  0
   23.7238  -17.5374  -16.5466 C   0  0  0  0  0  0  0  0  0  0  0  0
   23.7403  -16.3361  -17.4141 C   0  0  0  0  0  0  0  0  0  0  0  0
   24.7422  -15.9975  -18.2985 C   0  0  0  0  0  0  0  0  0  0  0  0
   24.4565  -14.8586  -18.9258 N   0  0  0  0  0  0  0  0  0  0  0  0
   23.2683  -14.4448  -18.4574 C   0  0  0  0  0  0  0  0  0  0  0  0
   22.5185  -13.3449  -18.7585 C   0  0  0  0  0  0  0  0  0  0  0  0
   21.3121  -13.1395  -18.1298 C   0  0  0  0  0  0  0  0  0  0  0  0
   20.8589  -14.0386  -17.1987 C   0  0  0  0  0  0  0  0  0  0  0  0
   21.5881  -15.1659  -16.8647 C   0  0  0  0  0  0  0  0  0  0  0  0
   22.7909  -15.3344  -17.5176 C   0  0  0  0  0  0  0  0  0  0  0  0
   24.9797  -19.6642  -16.2988 C   0  0  0  0  0  0  0  0  0  0  0  0
   24.2575  -20.6694  -15.9633 O   0  0  0  0  0  0  0  0  0  0  0  0
   26.2727  -19.5850  -15.7317 N   0  0  0  0  0  0  0  0  0  0  0  0
   27.3166  -18.6131  -15.9265 C   0  0  0  0  0  0  0  0  0  0  0  0
   28.5847  -19.4134  -15.7373 C   0  0  0  0  0  0  0  0  0  0  0  0
   28.1754  -20.7929  -15.3473 C   0  0  0  0  0  0  0  0  0  0  0  0
   26.7926  -20.5397  -14.7815 C   0  0  1  0  0  0  0  0  0  0  0  0
   26.8095  -19.9194  -13.4428 C   0  0  0  0  0  0  0  0  0  0  0  0
   27.0340  -18.7048  -13.3307 O   0  0  0  0  0  0  0  0  0  0  0  0
   20.3744  -21.6994  -12.0663 O   0  0  0  0  0  0  0  0  0  0  0  0
   21.5817  -21.0636  -11.8135 C   0  0  0  0  0  0  0  0  0  0  0  0
   22.3896  -20.5513  -12.8126 C   0  0  0  0  0  0  0  0  0  0  0  0
   23.5829  -19.9256  -12.5244 C   0  0  0  0  0  0  0  0  0  0  0  0
   24.0202  -19.7853  -11.2247 C   0  0  0  0  0  0  0  0  0  0  0  0
   25.3093  -19.1102  -10.9898 C   0  0  0  0  0  0  0  0  0  0  0  0
   26.4892  -20.0676  -10.9273 C   0  0  2  0  0  0  0  0  0  0  0  0
   26.5768  -20.6576  -12.2470 N   0  0  0  0  0  0  0  0  0  0  0  0
   26.2535  -21.1700   -9.9604 C   0  0  0  0  0  0  0  0  0  0  0  0
   26.1132  -22.3824  -10.3404 O   0  0  0  0  0  0  0  0  0  0  0  0
   23.2353  -20.2859  -10.2140 C   0  0  0  0  0  0  0  0  0  0  0  0
   22.0566  -20.9019  -10.5248 C   0  0  0  0  0  0  0  0  0  0  0  0
   26.1673  -20.9829   -8.5844 O   0  0  0  0  0  0  0  0  0  0  0  0
  2  1  1  1
  2 13  1  0
  2  3  1  0
  4  3  1  0
  4  5  2  0
  6  5  1  0
  7  6  1  0
  8  7  2  0
  9  8  1  0
 10  9  2  0
 10 11  1  0
 11 12  2  0
 12  7  1  0
 12  4  1  0
 13 14  2  0
 15 13  1  0
 15 16  1  0
 17 16  1  0
 18 19  1  0
 18 17  1  0
 19 15  1  0
 19 20  1  1
 21 20  2  0
 22 23  1  0
 23 24  2  0
 24 25  1  0
 26 27  1  0
 26 25  2  0
 28 27  1  6
 28 29  1  0
 29 20  1  0
 30 28  1  0
 31 30  2  0
 32 26  1  0
 33 32  2  0
 33 23  1  0
 34 30  1  0
M  END
$$$$
