WPY.pdb
     RDKit          3D

 34 37  0  0  1  0  0  0  0  0999 V2000
   24.4631  -17.5110  -17.6710 N   0  0  0  0  0  0  0  0  0  0  0  0
   25.5407  -17.6070  -16.7513 C   0  0  1  0  0  0  0  0  0  0  0  0
   25.6075  -16.3069  -15.9780 C   0  0  0  0  0  0  0  0  0  0  0  0
   26.0071  -15.1739  -16.8457 C   0  0  0  0  0  0  0  0  0  0  0  0
   25.2254  -14.0796  -17.1489 C   0  0  0  0  0  0  0  0  0  0  0  0
   25.8744  -13.2414  -17.9542 N   0  0  0  0  0  0  0  0  0  0  0  0
   27.0826  -13.7802  -18.1833 C   0  0  0  0  0  0  0  0  0  0  0  0
   28.1342  -13.3397  -18.9333 C   0  0  0  0  0  0  0  0  0  0  0  0
   29.2868  -14.0868  -19.0109 C   0  0  0  0  0  0  0  0  0  0  0  0
   29.3832  -15.2763  -18.3352 C   0  0  0  0  0  0  0  0  0  0  0  0
   28.3406  -15.7585  -17.5642 C   0  0  0  0  0  0  0  0  0  0  0  0
   27.2039  -14.9796  -17.5131 C   0  0  0  0  0  0  0  0  0  0  0  0
   25.5792  -18.7876  -15.8942 C   0  0  0  0  0  0  0  0  0  0  0  0
   24.4702  -19.4216  -15.7828 O   0  0  0  0  0  0  0  0  0  0  0  0
   26.6874  -19.3029  -15.1827 N   0  0  0  0  0  0  0  0  0  0  0  0
   28.0308  -18.8001  -15.0609 C   0  0  0  0  0  0  0  0  0  0  0  0
   28.8631  -20.0509  -14.8969 C   0  0  0  0  0  0  0  0  0  0  0  0
   27.9156  -21.2007  -14.8403 C   0  0  0  0  0  0  0  0  0  0  0  0
   26.6432  -20.5103  -14.3923 C   0  0  1  0  0  0  0  0  0  0  0  0
   26.6445  -20.1448  -12.9627 C   0  0  0  0  0  0  0  0  0  0  0  0
   27.4151  -19.2630  -12.5542 O   0  0  0  0  0  0  0  0  0  0  0  0
   23.7365  -21.0673   -4.5028 O   0  0  0  0  0  0  0  0  0  0  0  0
   23.8908  -20.9353   -5.8755 C   0  0  0  0  0  0  0  0  0  0  0  0
   23.1111  -21.6168   -6.7924 C   0  0  0  0  0  0  0  0  0  0  0  0
   23.2925  -21.4610   -8.1494 C   0  0  0  0  0  0  0  0  0  0  0  0
   24.2616  -20.6171   -8.6483 C   0  0  0  0  0  0  0  0  0  0  0  0
   24.4039  -20.5031  -10.1110 C   0  0  0  0  0  0  0  0  0  0  0  0
   25.8504  -20.5239  -10.5799 C   0  0  2  0  0  0  0  0  0  0  0  0
   25.7893  -20.7643  -12.0067 N   0  0  0  0  0  0  0  0  0  0  0  0
   26.6108  -21.6449   -9.9707 C   0  0  0  0  0  0  0  0  0  0  0  0
   27.4285  -21.4598   -9.0057 O   0  0  0  0  0  0  0  0  0  0  0  0
   25.0494  -19.9285   -7.7575 C   0  0  0  0  0  0  0  0  0  0  0  0
   24.8503  -20.0996   -6.4171 C   0  0  0  0  0  0  0  0  0  0  0  0
   26.5012  -22.9674  -10.3885 O   0  0  0  0  0  0  0  0  0  0  0  0
  2  1  1  1
  2 13  1  0
  2  3  1  0
  4  3  1  0
  4  5  2  0
  6  5  1  0
  7  6  1  0
  8  7  2  0
  9  8  1  0
 10  9  2  0
 10 11  1  0
 11 12  2  0
 12  7  1  0
 12  4  1  0
 13 14  2  0
 15 13  1  0
 15 16  1  0
 17 16  1  0
 18 19  1  0
 18 17  1  0
 19 15  1  0
 19 20  1  1
 21 20  2  0
 22 23  1  0
 23 24  2  0
 24 25  1  0
 26 27  1  0
 26 25  2  0
 28 27  1  1
 28 29  1  0
 29 20  1  0
 30 28  1  0
 31 30  2  0
 32 26  1  0
 33 32  2  0
 33 23  1  0
 34 30  1  0
M  END
$$$$
