WPY.pdb
     RDKit          3D

 34 37  0  0  1  0  0  0  0  0999 V2000
   22.7647  -18.9398  -18.6686 N   0  0  0  0  0  0  0  0  0  0  0  0
   23.4498  -18.0790  -17.7709 C   0  0  1  0  0  0  0  0  0  0  0  0
   22.8368  -18.2582  -16.3979 C   0  0  0  0  0  0  0  0  0  0  0  0
   21.4011  -17.8909  -16.3873 C   0  0  0  0  0  0  0  0  0  0  0  0
   20.8394  -16.8258  -17.0584 C   0  0  0  0  0  0  0  0  0  0  0  0
   19.5269  -16.7682  -16.8432 N   0  0  0  0  0  0  0  0  0  0  0  0
   19.2212  -17.7930  -16.0315 C   0  0  0  0  0  0  0  0  0  0  0  0
   18.0288  -18.1944  -15.5028 C   0  0  0  0  0  0  0  0  0  0  0  0
   17.9745  -19.2976  -14.6826 C   0  0  0  0  0  0  0  0  0  0  0  0
   19.1178  -19.9976  -14.3934 C   0  0  0  0  0  0  0  0  0  0  0  0
   20.3463  -19.6241  -14.9086 C   0  0  0  0  0  0  0  0  0  0  0  0
   20.3569  -18.5135  -15.7258 C   0  0  0  0  0  0  0  0  0  0  0  0
   24.9073  -18.1516  -17.7630 C   0  0  0  0  0  0  0  0  0  0  0  0
   25.4068  -19.2163  -18.2742 O   0  0  0  0  0  0  0  0  0  0  0  0
   25.8174  -17.1925  -17.2614 N   0  0  0  0  0  0  0  0  0  0  0  0
   25.5783  -15.8979  -16.6790 C   0  0  0  0  0  0  0  0  0  0  0  0
   26.8050  -15.1041  -17.0658 C   0  0  0  0  0  0  0  0  0  0  0  0
   27.7236  -16.0396  -17.7756 C   0  0  0  0  0  0  0  0  0  0  0  0
   27.2493  -17.3768  -17.2432 C   0  0  1  0  0  0  0  0  0  0  0  0
   27.6783  -17.6434  -15.8568 C   0  0  0  0  0  0  0  0  0  0  0  0
   27.8607  -16.6965  -15.0768 O   0  0  0  0  0  0  0  0  0  0  0  0
   24.7322  -21.1385   -8.5792 O   0  0  0  0  0  0  0  0  0  0  0  0
   25.1086  -20.6407   -9.8187 C   0  0  0  0  0  0  0  0  0  0  0  0
   24.9477  -21.3468  -10.9971 C   0  0  0  0  0  0  0  0  0  0  0  0
   25.3332  -20.8206  -12.2108 C   0  0  0  0  0  0  0  0  0  0  0  0
   25.8967  -19.5656  -12.2986 C   0  0  0  0  0  0  0  0  0  0  0  0
   26.2908  -19.0677  -13.6288 C   0  0  0  0  0  0  0  0  0  0  0  0
   27.7483  -19.3395  -13.9673 C   0  0  2  0  0  0  0  0  0  0  0  0
   27.8987  -18.9586  -15.3563 N   0  0  0  0  0  0  0  0  0  0  0  0
   28.0782  -20.7838  -13.8623 C   0  0  0  0  0  0  0  0  0  0  0  0
   28.5401  -21.2939  -12.7850 O   0  0  0  0  0  0  0  0  0  0  0  0
   26.0672  -18.8440  -11.1417 C   0  0  0  0  0  0  0  0  0  0  0  0
   25.6771  -19.3870   -9.9507 C   0  0  0  0  0  0  0  0  0  0  0  0
   27.9158  -21.6892  -14.9061 O   0  0  0  0  0  0  0  0  0  0  0  0
  2  1  1  6
  2 13  1  0
  2  3  1  0
  4  3  1  0
  4  5  2  0
  6  5  1  0
  7  6  1  0
  8  7  2  0
  9  8  1  0
 10  9  2  0
 10 11  1  0
 11 12  2  0
 12  7  1  0
 12  4  1  0
 13 14  2  0
 15 13  1  0
 15 16  1  0
 17 16  1  0
 18 19  1  0
 18 17  1  0
 19 15  1  0
 19 20  1  1
 21 20  2  0
 22 23  1  0
 23 24  2  0
 24 25  1  0
 26 27  1  0
 26 25  2  0
 28 27  1  6
 28 29  1  0
 29 20  1  0
 30 28  1  0
 31 30  2  0
 32 26  1  0
 33 32  2  0
 33 23  1  0
 34 30  1  0
M  END
$$$$
