TWF.pdb
     RDKit          3D

 33 35  0  0  1  0  0  0  0  0999 V2000
   34.0643  -29.4577  -20.2472 C   0  0  0  0  0  0  0  0  0  0  0  0
   32.9495  -30.1339  -19.5244 C   0  0  1  0  0  0  0  0  0  0  0  0
   33.3624  -31.3888  -19.0368 O   0  0  0  0  0  0  0  0  0  0  0  0
   32.3260  -29.3019  -18.4363 C   0  0  2  0  0  0  0  0  0  0  0  0
   33.3496  -29.0563  -17.4394 N   0  0  0  0  0  0  0  0  0  0  0  0
   31.1626  -29.9248  -17.7999 C   0  0  0  0  0  0  0  0  0  0  0  0
   31.2180  -30.2975  -16.5884 O   0  0  0  0  0  0  0  0  0  0  0  0
   29.9242  -30.1555  -18.4564 N   0  0  0  0  0  0  0  0  0  0  0  0
   28.7408  -30.6597  -17.7688 C   0  0  1  0  0  0  0  0  0  0  0  0
   27.5460  -29.7992  -18.1075 C   0  0  0  0  0  0  0  0  0  0  0  0
   27.6098  -28.4191  -17.6279 C   0  0  0  0  0  0  0  0  0  0  0  0
   27.7492  -28.1407  -16.2582 C   0  0  0  0  0  0  0  0  0  0  0  0
   27.8085  -26.8078  -16.1347 N   0  0  0  0  0  0  0  0  0  0  0  0
   27.7160  -26.2038  -17.3362 C   0  0  0  0  0  0  0  0  0  0  0  0
   27.7223  -24.8729  -17.7075 C   0  0  0  0  0  0  0  0  0  0  0  0
   27.5994  -24.5682  -19.0400 C   0  0  0  0  0  0  0  0  0  0  0  0
   27.4715  -25.5471  -20.0013 C   0  0  0  0  0  0  0  0  0  0  0  0
   27.4682  -26.8631  -19.6083 C   0  0  0  0  0  0  0  0  0  0  0  0
   27.5891  -27.2254  -18.2860 C   0  0  0  0  0  0  0  0  0  0  0  0
   28.4799  -32.0810  -17.9745 C   0  0  0  0  0  0  0  0  0  0  0  0
   28.4640  -32.6333  -19.1214 O   0  0  0  0  0  0  0  0  0  0  0  0
   28.2235  -32.9899  -16.8836 N   0  0  0  0  0  0  0  0  0  0  0  0
   28.0580  -34.4239  -17.1132 C   0  0  1  0  0  0  0  0  0  0  0  0
   29.0470  -35.0544  -16.1100 C   0  0  0  0  0  0  0  0  0  0  0  0
   30.4174  -35.0980  -16.5886 C   0  0  0  0  0  0  0  0  0  0  0  0
   31.4078  -34.4363  -15.9061 C   0  0  0  0  0  0  0  0  0  0  0  0
   32.7242  -34.4432  -16.2946 C   0  0  0  0  0  0  0  0  0  0  0  0
   33.0609  -35.1517  -17.4272 C   0  0  0  0  0  0  0  0  0  0  0  0
   32.0734  -35.8193  -18.1191 C   0  0  0  0  0  0  0  0  0  0  0  0
   30.7474  -35.8046  -17.7160 C   0  0  0  0  0  0  0  0  0  0  0  0
   26.7164  -34.9052  -16.7164 C   0  0  0  0  0  0  0  0  0  0  0  0
   25.8857  -33.9794  -16.0543 O   0  0  0  0  0  0  0  0  0  0  0  0
   26.3124  -36.0697  -16.9428 O   0  0  0  0  0  0  0  0  0  0  0  0
  2  3  1  0
  2  1  1  1
  4  2  1  0
  4  5  1  1
  6  4  1  0
  6  7  2  0
  8  6  1  0
  9  8  1  0
  9 10  1  6
 11 10  1  0
 12 11  2  0
 13 14  1  0
 13 12  1  0
 14 19  2  0
 15 14  1  0
 15 16  2  0
 16 17  1  0
 17 18  2  0
 19 11  1  0
 19 18  1  0
 20  9  1  0
 21 20  2  0
 22 20  1  0
 23 31  1  0
 23 22  1  0
 24 25  1  0
 23 24  1  1
 25 26  2  0
 26 27  1  0
 28 27  2  0
 29 28  1  0
 30 25  1  0
 30 29  2  0
 31 32  1  0
 33 31  2  0
M  END
$$$$
