TWF.pdb
     RDKit          3D

 33 35  0  0  1  0  0  0  0  0999 V2000
   28.8249  -19.9987  -17.4361 C   0  0  0  0  0  0  0  0  0  0  0  0
   27.8350  -20.3765  -16.3874 C   0  0  1  0  0  0  0  0  0  0  0  0
   26.6375  -20.8287  -16.9744 O   0  0  0  0  0  0  0  0  0  0  0  0
   28.3547  -21.3616  -15.3754 C   0  0  2  0  0  0  0  0  0  0  0  0
   28.6780  -22.5827  -16.0870 N   0  0  0  0  0  0  0  0  0  0  0  0
   27.4130  -21.6603  -14.2935 C   0  0  0  0  0  0  0  0  0  0  0  0
   26.7875  -22.7640  -14.2751 O   0  0  0  0  0  0  0  0  0  0  0  0
   27.1306  -20.7774  -13.2172 N   0  0  0  0  0  0  0  0  0  0  0  0
   26.0715  -21.0216  -12.2445 C   0  0  1  0  0  0  0  0  0  0  0  0
   26.3309  -20.2173  -10.9920 C   0  0  0  0  0  0  0  0  0  0  0  0
   27.3809  -20.7381  -10.1174 C   0  0  0  0  0  0  0  0  0  0  0  0
   28.4424  -21.4941  -10.6414 C   0  0  0  0  0  0  0  0  0  0  0  0
   29.2486  -21.7988   -9.6154 N   0  0  0  0  0  0  0  0  0  0  0  0
   28.7778  -21.2895   -8.4595 C   0  0  0  0  0  0  0  0  0  0  0  0
   29.2503  -21.3438   -7.1623 C   0  0  0  0  0  0  0  0  0  0  0  0
   28.5256  -20.7186   -6.1787 C   0  0  0  0  0  0  0  0  0  0  0  0
   27.3537  -20.0479   -6.4535 C   0  0  0  0  0  0  0  0  0  0  0  0
   26.9039  -20.0072   -7.7506 C   0  0  0  0  0  0  0  0  0  0  0  0
   27.5913  -20.6159   -8.7760 C   0  0  0  0  0  0  0  0  0  0  0  0
   24.7194  -20.8297  -12.7598 C   0  0  0  0  0  0  0  0  0  0  0  0
   24.3750  -19.8341  -13.4745 O   0  0  0  0  0  0  0  0  0  0  0  0
   23.6511  -21.7658  -12.5064 N   0  0  0  0  0  0  0  0  0  0  0  0
   22.2946  -21.5191  -12.9918 C   0  0  1  0  0  0  0  0  0  0  0  0
   21.5627  -22.8387  -12.6676 C   0  0  0  0  0  0  0  0  0  0  0  0
   20.1869  -22.8737  -13.1314 C   0  0  0  0  0  0  0  0  0  0  0  0
   19.1540  -22.7393  -12.2374 C   0  0  0  0  0  0  0  0  0  0  0  0
   17.8319  -22.7523  -12.6063 C   0  0  0  0  0  0  0  0  0  0  0  0
   17.5345  -22.9084  -13.9425 C   0  0  0  0  0  0  0  0  0  0  0  0
   18.5650  -23.0441  -14.8477 C   0  0  0  0  0  0  0  0  0  0  0  0
   19.8962  -23.0291  -14.4620 C   0  0  0  0  0  0  0  0  0  0  0  0
   21.6015  -20.4694  -12.2130 C   0  0  0  0  0  0  0  0  0  0  0  0
   20.6185  -19.7249  -12.8949 O   0  0  0  0  0  0  0  0  0  0  0  0
   21.8546  -20.2309  -11.0090 O   0  0  0  0  0  0  0  0  0  0  0  0
  2  3  1  0
  2  1  1  6
  4  2  1  0
  4  5  1  6
  6  4  1  0
  6  7  2  0
  8  6  1  0
  9  8  1  0
  9 10  1  1
 11 10  1  0
 12 11  2  0
 13 14  1  0
 13 12  1  0
 14 19  2  0
 15 14  1  0
 15 16  2  0
 16 17  1  0
 17 18  2  0
 19 11  1  0
 19 18  1  0
 20  9  1  0
 21 20  2  0
 22 20  1  0
 23 31  1  0
 23 22  1  0
 24 25  1  0
 23 24  1  1
 25 26  2  0
 26 27  1  0
 28 27  2  0
 29 28  1  0
 30 25  1  0
 30 29  2  0
 31 32  1  0
 33 31  2  0
M  END
$$$$
