TWF.pdb
     RDKit          3D

 33 35  0  0  1  0  0  0  0  0999 V2000
   33.6833  -31.7825  -17.2568 C   0  0  0  0  0  0  0  0  0  0  0  0
   32.4463  -31.1688  -16.6949 C   0  0  1  0  0  0  0  0  0  0  0  0
   31.9711  -30.1468  -17.5389 O   0  0  0  0  0  0  0  0  0  0  0  0
   31.3606  -32.1586  -16.3686 C   0  0  2  0  0  0  0  0  0  0  0  0
   30.2046  -31.4027  -15.9279 N   0  0  0  0  0  0  0  0  0  0  0  0
   31.7297  -33.1332  -15.3388 C   0  0  0  0  0  0  0  0  0  0  0  0
   31.8617  -32.7695  -14.1305 O   0  0  0  0  0  0  0  0  0  0  0  0
   31.9620  -34.5112  -15.5933 N   0  0  0  0  0  0  0  0  0  0  0  0
   32.2351  -35.4804  -14.5380 C   0  0  1  0  0  0  0  0  0  0  0  0
   31.2884  -36.6516  -14.6606 C   0  0  0  0  0  0  0  0  0  0  0  0
   29.8995  -36.3776  -14.2936 C   0  0  0  0  0  0  0  0  0  0  0  0
   29.4892  -36.4235  -12.9511 C   0  0  0  0  0  0  0  0  0  0  0  0
   28.1887  -36.1017  -12.9289 N   0  0  0  0  0  0  0  0  0  0  0  0
   27.7291  -35.8505  -14.1710 C   0  0  0  0  0  0  0  0  0  0  0  0
   26.4803  -35.4935  -14.6426 C   0  0  0  0  0  0  0  0  0  0  0  0
   26.3219  -35.3129  -15.9938 C   0  0  0  0  0  0  0  0  0  0  0  0
   27.3665  -35.4779  -16.8772 C   0  0  0  0  0  0  0  0  0  0  0  0
   28.5987  -35.8328  -16.3850 C   0  0  0  0  0  0  0  0  0  0  0  0
   28.8140  -36.0257  -15.0394 C   0  0  0  0  0  0  0  0  0  0  0  0
   33.6303  -35.8990  -14.4459 C   0  0  0  0  0  0  0  0  0  0  0  0
   34.3416  -36.1997  -15.4581 O   0  0  0  0  0  0  0  0  0  0  0  0
   34.3298  -36.0007  -13.1881 N   0  0  0  0  0  0  0  0  0  0  0  0
   35.7284  -36.4214  -13.1290 C   0  0  1  0  0  0  0  0  0  0  0  0
   36.3953  -35.3005  -12.3038 C   0  0  0  0  0  0  0  0  0  0  0  0
   37.8070  -35.5242  -12.0469 C   0  0  0  0  0  0  0  0  0  0  0  0
   38.7296  -35.3244  -13.0435 C   0  0  0  0  0  0  0  0  0  0  0  0
   40.0789  -35.5061  -12.8685 C   0  0  0  0  0  0  0  0  0  0  0  0
   40.5218  -35.9095  -11.6278 C   0  0  0  0  0  0  0  0  0  0  0  0
   39.6030  -36.1126  -10.6208 C   0  0  0  0  0  0  0  0  0  0  0  0
   38.2428  -35.9253  -10.8106 C   0  0  0  0  0  0  0  0  0  0  0  0
   35.9088  -37.6635  -12.3457 C   0  0  0  0  0  0  0  0  0  0  0  0
   36.8370  -38.5963  -12.8492 O   0  0  0  0  0  0  0  0  0  0  0  0
   35.2823  -37.9018  -11.2868 O   0  0  0  0  0  0  0  0  0  0  0  0
  2  3  1  0
  2  1  1  6
  4  2  1  0
  4  5  1  1
  6  4  1  0
  6  7  2  0
  8  6  1  0
  9  8  1  0
  9 10  1  6
 11 10  1  0
 12 11  2  0
 13 14  1  0
 13 12  1  0
 14 19  2  0
 15 14  1  0
 15 16  2  0
 16 17  1  0
 17 18  2  0
 19 11  1  0
 19 18  1  0
 20  9  1  0
 21 20  2  0
 22 20  1  0
 23 31  1  0
 23 22  1  0
 24 25  1  0
 23 24  1  1
 25 26  2  0
 26 27  1  0
 28 27  2  0
 29 28  1  0
 30 25  1  0
 30 29  2  0
 31 32  1  0
 33 31  2  0
M  END
$$$$
