TWF.pdb
     RDKit          3D

 33 35  0  0  1  0  0  0  0  0999 V2000
   19.3318   -9.9048  -19.8958 C   0  0  0  0  0  0  0  0  0  0  0  0
   20.4024  -10.5186  -20.7320 C   0  0  1  0  0  0  0  0  0  0  0  0
   19.8519  -11.4298  -21.6537 O   0  0  0  0  0  0  0  0  0  0  0  0
   21.2979   -9.5213  -21.4163 C   0  0  2  0  0  0  0  0  0  0  0  0
   22.2732  -10.2711  -22.1836 N   0  0  0  0  0  0  0  0  0  0  0  0
   21.9906   -8.6121  -20.4997 C   0  0  0  0  0  0  0  0  0  0  0  0
   22.9325   -9.0385  -19.7645 O   0  0  0  0  0  0  0  0  0  0  0  0
   21.6804   -7.2329  -20.3608 N   0  0  0  0  0  0  0  0  0  0  0  0
   22.2404   -6.3936  -19.3074 C   0  0  1  0  0  0  0  0  0  0  0  0
   22.0586   -4.9363  -19.6626 C   0  0  0  0  0  0  0  0  0  0  0  0
   22.5072   -3.9821  -18.6493 C   0  0  0  0  0  0  0  0  0  0  0  0
   23.8712   -3.8507  -18.3407 C   0  0  0  0  0  0  0  0  0  0  0  0
   23.9707   -2.8906  -17.4113 N   0  0  0  0  0  0  0  0  0  0  0  0
   22.7587   -2.3913  -17.0968 C   0  0  0  0  0  0  0  0  0  0  0  0
   22.3625   -1.4116  -16.2067 C   0  0  0  0  0  0  0  0  0  0  0  0
   21.0236   -1.1276  -16.1047 C   0  0  0  0  0  0  0  0  0  0  0  0
   20.0800   -1.7894  -16.8600 C   0  0  0  0  0  0  0  0  0  0  0  0
   20.4978   -2.7592  -17.7383 C   0  0  0  0  0  0  0  0  0  0  0  0
   21.8277   -3.0835  -17.8816 C   0  0  0  0  0  0  0  0  0  0  0  0
   21.7589   -6.7040  -17.9649 C   0  0  0  0  0  0  0  0  0  0  0  0
   20.5249   -6.7866  -17.6631 O   0  0  0  0  0  0  0  0  0  0  0  0
   22.6501   -6.9535  -16.8580 N   0  0  0  0  0  0  0  0  0  0  0  0
   22.1404   -7.1496  -15.5022 C   0  0  1  0  0  0  0  0  0  0  0  0
   22.4362   -8.6397  -15.2304 C   0  0  0  0  0  0  0  0  0  0  0  0
   23.8164   -9.0168  -15.4786 C   0  0  0  0  0  0  0  0  0  0  0  0
   24.2569   -9.2151  -16.7636 C   0  0  0  0  0  0  0  0  0  0  0  0
   25.5487   -9.5620  -17.0720 C   0  0  0  0  0  0  0  0  0  0  0  0
   26.4422   -9.7171  -16.0348 C   0  0  0  0  0  0  0  0  0  0  0  0
   26.0093   -9.5201  -14.7412 C   0  0  0  0  0  0  0  0  0  0  0  0
   24.7017   -9.1698  -14.4432 C   0  0  0  0  0  0  0  0  0  0  0  0
   22.9162   -6.3922  -14.4954 C   0  0  0  0  0  0  0  0  0  0  0  0
   22.3576   -6.3057  -13.2047 O   0  0  0  0  0  0  0  0  0  0  0  0
   24.0147   -5.8446  -14.7481 O   0  0  0  0  0  0  0  0  0  0  0  0
  2  3  1  0
  2  1  1  6
  4  2  1  0
  4  5  1  1
  6  4  1  0
  6  7  2  0
  8  6  1  0
  9  8  1  0
  9 10  1  6
 11 10  1  0
 12 11  2  0
 13 14  1  0
 13 12  1  0
 14 19  2  0
 15 14  1  0
 15 16  2  0
 16 17  1  0
 17 18  2  0
 19 11  1  0
 19 18  1  0
 20  9  1  0
 21 20  2  0
 22 20  1  0
 23 31  1  0
 23 22  1  0
 24 25  1  0
 23 24  1  1
 25 26  2  0
 26 27  1  0
 28 27  2  0
 29 28  1  0
 30 25  1  0
 30 29  2  0
 31 32  1  0
 33 31  2  0
M  END
$$$$
