TWF.pdb
     RDKit          3D

 33 35  0  0  1  0  0  0  0  0999 V2000
   26.3508  -26.2657  -19.6417 C   0  0  0  0  0  0  0  0  0  0  0  0
   26.1595  -25.2972  -18.5247 C   0  0  1  0  0  0  0  0  0  0  0  0
   25.3807  -25.8683  -17.4998 O   0  0  0  0  0  0  0  0  0  0  0  0
   27.4396  -24.7204  -17.9829 C   0  0  2  0  0  0  0  0  0  0  0  0
   28.1853  -25.8098  -17.3838 N   0  0  0  0  0  0  0  0  0  0  0  0
   27.2447  -23.6580  -16.9929 C   0  0  0  0  0  0  0  0  0  0  0  0
   27.3929  -23.8997  -15.7563 O   0  0  0  0  0  0  0  0  0  0  0  0
   26.8881  -22.3221  -17.3183 N   0  0  0  0  0  0  0  0  0  0  0  0
   26.6551  -21.2929  -16.3113 C   0  0  1  0  0  0  0  0  0  0  0  0
   26.8386  -19.9247  -16.9253 C   0  0  0  0  0  0  0  0  0  0  0  0
   26.6271  -18.7962  -16.0195 C   0  0  0  0  0  0  0  0  0  0  0  0
   27.4694  -18.5957  -14.9135 C   0  0  0  0  0  0  0  0  0  0  0  0
   27.0499  -17.4806  -14.3002 N   0  0  0  0  0  0  0  0  0  0  0  0
   25.9891  -16.9455  -14.9370 C   0  0  0  0  0  0  0  0  0  0  0  0
   25.2238  -15.8239  -14.6815 C   0  0  0  0  0  0  0  0  0  0  0  0
   24.1810  -15.5407  -15.5276 C   0  0  0  0  0  0  0  0  0  0  0  0
   23.8853  -16.3398  -16.6105 C   0  0  0  0  0  0  0  0  0  0  0  0
   24.6603  -17.4493  -16.8445 C   0  0  0  0  0  0  0  0  0  0  0  0
   25.7186  -17.7799  -16.0290 C   0  0  0  0  0  0  0  0  0  0  0  0
   25.3875  -21.4183  -15.5986 C   0  0  0  0  0  0  0  0  0  0  0  0
   24.2709  -21.6086  -16.1798 O   0  0  0  0  0  0  0  0  0  0  0  0
   25.2938  -21.3442  -14.1607 N   0  0  0  0  0  0  0  0  0  0  0  0
   24.0011  -21.3973  -13.4805 C   0  0  1  0  0  0  0  0  0  0  0  0
   24.3527  -22.0157  -12.1108 C   0  0  0  0  0  0  0  0  0  0  0  0
   25.2587  -21.2037  -11.3178 C   0  0  0  0  0  0  0  0  0  0  0  0
   24.7753  -20.4392  -10.2851 C   0  0  0  0  0  0  0  0  0  0  0  0
   25.5743  -19.6572   -9.4887 C   0  0  0  0  0  0  0  0  0  0  0  0
   26.9280  -19.6440   -9.7445 C   0  0  0  0  0  0  0  0  0  0  0  0
   27.4227  -20.4085  -10.7791 C   0  0  0  0  0  0  0  0  0  0  0  0
   26.6049  -21.1942  -11.5761 C   0  0  0  0  0  0  0  0  0  0  0  0
   23.4632  -20.0498  -13.1907 C   0  0  0  0  0  0  0  0  0  0  0  0
   22.0746  -19.9606  -12.9683 O   0  0  0  0  0  0  0  0  0  0  0  0
   24.1799  -19.0231  -13.1403 O   0  0  0  0  0  0  0  0  0  0  0  0
  2  3  1  0
  2  1  1  6
  4  2  1  0
  4  5  1  1
  6  4  1  0
  6  7  2  0
  8  6  1  0
  9  8  1  0
  9 10  1  6
 11 10  1  0
 12 11  2  0
 13 14  1  0
 13 12  1  0
 14 19  2  0
 15 14  1  0
 15 16  2  0
 16 17  1  0
 17 18  2  0
 19 11  1  0
 19 18  1  0
 20  9  1  0
 21 20  2  0
 22 20  1  0
 23 31  1  0
 23 22  1  0
 24 25  1  0
 23 24  1  1
 25 26  2  0
 26 27  1  0
 28 27  2  0
 29 28  1  0
 30 25  1  0
 30 29  2  0
 31 32  1  0
 33 31  2  0
M  END
$$$$
