TWF.pdb
     RDKit          3D

 33 35  0  0  1  0  0  0  0  0999 V2000
   29.1316  -20.4520  -16.0632 C   0  0  0  0  0  0  0  0  0  0  0  0
   28.5648  -20.2696  -14.6966 C   0  0  1  0  0  0  0  0  0  0  0  0
   29.2409  -19.2419  -14.0113 O   0  0  0  0  0  0  0  0  0  0  0  0
   27.0751  -20.0572  -14.6703 C   0  0  2  0  0  0  0  0  0  0  0  0
   26.7882  -18.9031  -15.4996 N   0  0  0  0  0  0  0  0  0  0  0  0
   26.5250  -19.8449  -13.3291 C   0  0  0  0  0  0  0  0  0  0  0  0
   26.2932  -18.6699  -12.9103 O   0  0  0  0  0  0  0  0  0  0  0  0
   26.2168  -20.8920  -12.4200 N   0  0  0  0  0  0  0  0  0  0  0  0
   25.6857  -20.6540  -11.0825 C   0  0  1  0  0  0  0  0  0  0  0  0
   24.3781  -21.3916  -10.9119 C   0  0  0  0  0  0  0  0  0  0  0  0
   23.2156  -20.7621  -11.5372 C   0  0  0  0  0  0  0  0  0  0  0  0
   23.0945  -20.7069  -12.9355 C   0  0  0  0  0  0  0  0  0  0  0  0
   21.9264  -20.1072  -13.2029 N   0  0  0  0  0  0  0  0  0  0  0  0
   21.2825  -19.7695  -12.0678 C   0  0  0  0  0  0  0  0  0  0  0  0
   20.0740  -19.1396  -11.8402 C   0  0  0  0  0  0  0  0  0  0  0  0
   19.6863  -18.9248  -10.5413 C   0  0  0  0  0  0  0  0  0  0  0  0
   20.4655  -19.3181   -9.4750 C   0  0  0  0  0  0  0  0  0  0  0  0
   21.6627  -19.9426   -9.7261 C   0  0  0  0  0  0  0  0  0  0  0  0
   22.0999  -20.1841  -11.0087 C   0  0  0  0  0  0  0  0  0  0  0  0
   26.6253  -20.9279   -9.9997 C   0  0  0  0  0  0  0  0  0  0  0  0
   27.3833  -21.9503   -9.9695 O   0  0  0  0  0  0  0  0  0  0  0  0
   26.7811  -20.0501   -8.8653 N   0  0  0  0  0  0  0  0  0  0  0  0
   27.5723  -20.4462   -7.7019 C   0  0  1  0  0  0  0  0  0  0  0  0
   27.9501  -19.0944   -7.0601 C   0  0  0  0  0  0  0  0  0  0  0  0
   28.6586  -19.2234   -5.7990 C   0  0  0  0  0  0  0  0  0  0  0  0
   29.9058  -19.7957   -5.7638 C   0  0  0  0  0  0  0  0  0  0  0  0
   30.6361  -19.9401   -4.6107 C   0  0  0  0  0  0  0  0  0  0  0  0
   30.0833  -19.4854   -3.4334 C   0  0  0  0  0  0  0  0  0  0  0  0
   28.8316  -18.9092   -3.4587 C   0  0  0  0  0  0  0  0  0  0  0  0
   28.1043  -18.7692   -4.6303 C   0  0  0  0  0  0  0  0  0  0  0  0
   26.7643  -21.1632   -6.6908 C   0  0  0  0  0  0  0  0  0  0  0  0
   27.4756  -21.9064   -5.7279 O   0  0  0  0  0  0  0  0  0  0  0  0
   25.5118  -21.1307   -6.6673 O   0  0  0  0  0  0  0  0  0  0  0  0
  2  3  1  0
  2  1  1  6
  4  2  1  0
  4  5  1  6
  6  4  1  0
  6  7  2  0
  8  6  1  0
  9  8  1  0
  9 10  1  1
 11 10  1  0
 12 11  2  0
 13 14  1  0
 13 12  1  0
 14 19  2  0
 15 14  1  0
 15 16  2  0
 16 17  1  0
 17 18  2  0
 19 11  1  0
 19 18  1  0
 20  9  1  0
 21 20  2  0
 22 20  1  0
 23 31  1  0
 23 22  1  0
 24 25  1  0
 23 24  1  1
 25 26  2  0
 26 27  1  0
 28 27  2  0
 29 28  1  0
 30 25  1  0
 30 29  2  0
 31 32  1  0
 33 31  2  0
M  END
$$$$
