TWF.pdb
     RDKit          3D

 33 35  0  0  1  0  0  0  0  0999 V2000
   28.2031  -21.6410  -18.4123 C   0  0  0  0  0  0  0  0  0  0  0  0
   27.5062  -21.9634  -17.1346 C   0  0  1  0  0  0  0  0  0  0  0  0
   27.8708  -23.2451  -16.6794 O   0  0  0  0  0  0  0  0  0  0  0  0
   27.6848  -20.9283  -16.0568 C   0  0  2  0  0  0  0  0  0  0  0  0
   29.1017  -20.8548  -15.7585 N   0  0  0  0  0  0  0  0  0  0  0  0
   26.9399  -21.2108  -14.8272 C   0  0  0  0  0  0  0  0  0  0  0  0
   25.6968  -21.4600  -14.8742 O   0  0  0  0  0  0  0  0  0  0  0  0
   27.5205  -21.2294  -13.5309 N   0  0  0  0  0  0  0  0  0  0  0  0
   26.7365  -21.3772  -12.3099 C   0  0  1  0  0  0  0  0  0  0  0  0
   27.6470  -21.3145  -11.1058 C   0  0  0  0  0  0  0  0  0  0  0  0
   27.0150  -20.8740   -9.8627 C   0  0  0  0  0  0  0  0  0  0  0  0
   25.6161  -20.8346   -9.7433 C   0  0  0  0  0  0  0  0  0  0  0  0
   25.3419  -20.4254   -8.4971 N   0  0  0  0  0  0  0  0  0  0  0  0
   26.4732  -20.1964   -7.8009 C   0  0  0  0  0  0  0  0  0  0  0  0
   26.6938  -19.7651   -6.5069 C   0  0  0  0  0  0  0  0  0  0  0  0
   27.9905  -19.6176   -6.0820 C   0  0  0  0  0  0  0  0  0  0  0  0
   29.0613  -19.8863   -6.9066 C   0  0  0  0  0  0  0  0  0  0  0  0
   28.8171  -20.3141   -8.1888 C   0  0  0  0  0  0  0  0  0  0  0  0
   27.5371  -20.4802   -8.6666 C   0  0  0  0  0  0  0  0  0  0  0  0
   25.6054  -20.4611  -12.2014 C   0  0  0  0  0  0  0  0  0  0  0  0
   25.7300  -19.1957  -12.1396 O   0  0  0  0  0  0  0  0  0  0  0  0
   24.2370  -20.9171  -12.1625 N   0  0  0  0  0  0  0  0  0  0  0  0
   23.1246  -19.9732  -12.0733 C   0  0  1  0  0  0  0  0  0  0  0  0
   23.0972  -19.3325  -13.4772 C   0  0  0  0  0  0  0  0  0  0  0  0
   22.7108  -20.2524  -14.5325 C   0  0  0  0  0  0  0  0  0  0  0  0
   23.6602  -20.7701  -15.3781 C   0  0  0  0  0  0  0  0  0  0  0  0
   23.3683  -21.6514  -16.3891 C   0  0  0  0  0  0  0  0  0  0  0  0
   22.0545  -22.0309  -16.5575 C   0  0  0  0  0  0  0  0  0  0  0  0
   21.0943  -21.5165  -15.7132 C   0  0  0  0  0  0  0  0  0  0  0  0
   21.4023  -20.6270  -14.6958 C   0  0  0  0  0  0  0  0  0  0  0  0
   21.8211  -20.6546  -11.9134 C   0  0  0  0  0  0  0  0  0  0  0  0
   21.8527  -22.0602  -11.8186 O   0  0  0  0  0  0  0  0  0  0  0  0
   20.7296  -20.0409  -11.8628 O   0  0  0  0  0  0  0  0  0  0  0  0
  2  3  1  0
  2  1  1  6
  4  2  1  0
  4  5  1  1
  6  4  1  0
  6  7  2  0
  8  6  1  0
  9  8  1  0
  9 10  1  1
 11 10  1  0
 12 11  2  0
 13 14  1  0
 13 12  1  0
 14 19  2  0
 15 14  1  0
 15 16  2  0
 16 17  1  0
 17 18  2  0
 19 11  1  0
 19 18  1  0
 20  9  1  0
 21 20  2  0
 22 20  1  0
 23 31  1  0
 23 22  1  0
 24 25  1  0
 23 24  1  6
 25 26  2  0
 26 27  1  0
 28 27  2  0
 29 28  1  0
 30 25  1  0
 30 29  2  0
 31 32  1  0
 33 31  2  0
M  END
$$$$
