TWF.pdb
     RDKit          3D

 33 35  0  0  1  0  0  0  0  0999 V2000
   23.4107  -20.3026  -13.8551 C   0  0  0  0  0  0  0  0  0  0  0  0
   23.7806  -21.4084  -14.7839 C   0  0  1  0  0  0  0  0  0  0  0  0
   23.1148  -21.2657  -16.0165 O   0  0  0  0  0  0  0  0  0  0  0  0
   25.2630  -21.5797  -14.9790 C   0  0  2  0  0  0  0  0  0  0  0  0
   25.4541  -22.6997  -15.8794 N   0  0  0  0  0  0  0  0  0  0  0  0
   26.0058  -21.8167  -13.7385 C   0  0  0  0  0  0  0  0  0  0  0  0
   25.9336  -22.9401  -13.1533 O   0  0  0  0  0  0  0  0  0  0  0  0
   26.8359  -20.8502  -13.1104 N   0  0  0  0  0  0  0  0  0  0  0  0
   27.3973  -21.0299  -11.7762 C   0  0  1  0  0  0  0  0  0  0  0  0
   28.7187  -20.3044  -11.6745 C   0  0  0  0  0  0  0  0  0  0  0  0
   29.8738  -21.1444  -11.3601 C   0  0  0  0  0  0  0  0  0  0  0  0
   30.5781  -21.8071  -12.3788 C   0  0  0  0  0  0  0  0  0  0  0  0
   31.5883  -22.4634  -11.7919 N   0  0  0  0  0  0  0  0  0  0  0  0
   31.5840  -22.2692  -10.4580 C   0  0  0  0  0  0  0  0  0  0  0  0
   32.4071  -22.7356   -9.4509 C   0  0  0  0  0  0  0  0  0  0  0  0
   32.1334  -22.3592   -8.1598 C   0  0  0  0  0  0  0  0  0  0  0  0
   31.0707  -21.5382   -7.8511 C   0  0  0  0  0  0  0  0  0  0  0  0
   30.2666  -21.0868   -8.8690 C   0  0  0  0  0  0  0  0  0  0  0  0
   30.4955  -21.4322  -10.1816 C   0  0  0  0  0  0  0  0  0  0  0  0
   26.4891  -20.6888  -10.6857 C   0  0  0  0  0  0  0  0  0  0  0  0
   25.6625  -19.7219  -10.7365 O   0  0  0  0  0  0  0  0  0  0  0  0
   26.4461  -21.4311   -9.4492 N   0  0  0  0  0  0  0  0  0  0  0  0
   25.5142  -21.0739   -8.3813 C   0  0  1  0  0  0  0  0  0  0  0  0
   26.1886  -21.6554   -7.1207 C   0  0  0  0  0  0  0  0  0  0  0  0
   26.9172  -20.6711   -6.3402 C   0  0  0  0  0  0  0  0  0  0  0  0
   27.4987  -21.0282   -5.1491 C   0  0  0  0  0  0  0  0  0  0  0  0
   28.2100  -20.1537   -4.3660 C   0  0  0  0  0  0  0  0  0  0  0  0
   28.3429  -18.8541   -4.8038 C   0  0  0  0  0  0  0  0  0  0  0  0
   27.7626  -18.4861   -5.9986 C   0  0  0  0  0  0  0  0  0  0  0  0
   27.0467  -19.3792   -6.7803 C   0  0  0  0  0  0  0  0  0  0  0  0
   25.4421  -19.6121   -8.1644 C   0  0  0  0  0  0  0  0  0  0  0  0
   24.1879  -19.0926   -7.7869 O   0  0  0  0  0  0  0  0  0  0  0  0
   26.4275  -18.8503   -8.3028 O   0  0  0  0  0  0  0  0  0  0  0  0
  2  3  1  0
  2  1  1  1
  4  2  1  0
  4  5  1  6
  6  4  1  0
  6  7  2  0
  8  6  1  0
  9  8  1  0
  9 10  1  6
 11 10  1  0
 12 11  2  0
 13 14  1  0
 13 12  1  0
 14 19  2  0
 15 14  1  0
 15 16  2  0
 16 17  1  0
 17 18  2  0
 19 11  1  0
 19 18  1  0
 20  9  1  0
 21 20  2  0
 22 20  1  0
 23 31  1  0
 23 22  1  0
 24 25  1  0
 23 24  1  1
 25 26  2  0
 26 27  1  0
 28 27  2  0
 29 28  1  0
 30 25  1  0
 30 29  2  0
 31 32  1  0
 33 31  2  0
M  END
$$$$
