LCM.pdb
     RDKit          3D

 23 22  0  0  1  0  0  0  0  0999 V2000
    9.5670  -13.2382   19.0584 C   0  0  0  0  0  0  0  0  0  0  0  0
    8.0622  -13.4229   18.9992 C   0  0  2  0  0  0  0  0  0  0  0  0
    7.4202  -12.0540   19.1748 C   0  0  0  0  0  0  0  0  0  0  0  0
    7.5656  -14.3642   20.0599 C   0  0  0  0  0  0  0  0  0  0  0  0
    8.2150  -15.7052   19.9061 C   0  0  2  0  0  0  0  0  0  0  0  0
    7.4283  -16.4933   18.9775 N   0  0  0  0  0  0  0  0  0  0  0  0
    8.3957  -16.3974   21.2029 C   0  0  0  0  0  0  0  0  0  0  0  0
    7.4384  -16.4356   22.0286 O   0  0  0  0  0  0  0  0  0  0  0  0
    9.5955  -17.0431   21.6089 N   0  0  0  0  0  0  0  0  0  0  0  0
    9.7608  -17.7107   22.8793 C   0  0  1  0  0  0  0  0  0  0  0  0
   10.3607  -19.0657   22.6884 C   0  0  0  0  0  0  0  0  0  0  0  0
   10.7248  -19.8778   24.2685 S   0  0  0  0  0  0  0  0  0  0  0  0
   10.4143  -16.8867   23.8908 C   0  0  0  0  0  0  0  0  0  0  0  0
   11.5687  -16.4125   23.6268 O   0  0  0  0  0  0  0  0  0  0  0  0
    8.5038  -12.2783   27.9075 C   0  0  0  0  0  0  0  0  0  0  0  0
    9.4952  -13.2249   29.1077 S   0  0  0  0  0  0  0  0  0  0  0  0
   10.6038  -14.2961   28.1085 C   0  0  0  0  0  0  0  0  0  0  0  0
    9.7973  -15.0105   27.0642 C   0  0  0  0  0  0  0  0  0  0  0  0
   10.6309  -15.8396   26.1898 C   0  0  2  0  0  0  0  0  0  0  0  0
    9.8849  -16.5551   25.1588 N   0  0  0  0  0  0  0  0  0  0  0  0
   11.5688  -16.7145   26.8913 C   0  0  0  0  0  0  0  0  0  0  0  0
   12.7526  -16.4324   27.0857 O   0  0  0  0  0  0  0  0  0  0  0  0
   11.1434  -17.9626   27.3930 O   0  0  0  0  0  0  0  0  0  0  0  0
  2  1  1  1
  2  3  1  0
  4  2  1  0
  5  6  1  6
  5  4  1  0
  7  5  1  0
  8  7  2  0
  9  7  1  0
 10 13  1  0
 10  9  1  0
 10 11  1  6
 12 11  1  0
 13 20  1  0
 14 13  2  0
 15 16  1  0
 16 17  1  0
 19 18  1  1
 18 17  1  0
 19 21  1  0
 20 19  1  0
 21 22  2  0
 21 23  1  0
M  END
$$$$
