LCM.pdb
     RDKit          3D

 23 22  0  0  1  0  0  0  0  0999 V2000
    8.1922  -12.7851   17.7620 C   0  0  0  0  0  0  0  0  0  0  0  0
    8.1096  -13.9850   18.6869 C   0  0  2  0  0  0  0  0  0  0  0  0
    6.6543  -14.1517   19.1006 C   0  0  0  0  0  0  0  0  0  0  0  0
    8.9753  -13.8215   19.9042 C   0  0  0  0  0  0  0  0  0  0  0  0
    8.9346  -15.0650   20.7381 C   0  0  2  0  0  0  0  0  0  0  0  0
    7.7797  -15.8470   20.3419 N   0  0  0  0  0  0  0  0  0  0  0  0
    8.9315  -14.7718   22.1898 C   0  0  0  0  0  0  0  0  0  0  0  0
    9.8715  -14.0897   22.6907 O   0  0  0  0  0  0  0  0  0  0  0  0
    7.9264  -15.2083   23.0958 N   0  0  0  0  0  0  0  0  0  0  0  0
    7.9167  -14.8865   24.5041 C   0  0  1  0  0  0  0  0  0  0  0  0
    6.6162  -15.2801   25.1256 C   0  0  0  0  0  0  0  0  0  0  0  0
    6.1064  -14.1248   26.4272 S   0  0  0  0  0  0  0  0  0  0  0  0
    9.1030  -15.3495   25.2166 C   0  0  0  0  0  0  0  0  0  0  0  0
   10.0913  -14.5499   25.3230 O   0  0  0  0  0  0  0  0  0  0  0  0
   10.0917  -12.4586   29.0808 C   0  0  0  0  0  0  0  0  0  0  0  0
   10.4614  -14.1977   29.4787 S   0  0  0  0  0  0  0  0  0  0  0  0
   10.9258  -14.9886   27.8869 C   0  0  0  0  0  0  0  0  0  0  0  0
   10.5240  -16.4340   27.9133 C   0  0  0  0  0  0  0  0  0  0  0  0
   10.4529  -17.0151   26.5702 C   0  0  2  0  0  0  0  0  0  0  0  0
    9.2691  -16.6205   25.8123 N   0  0  0  0  0  0  0  0  0  0  0  0
   10.6789  -18.4585   26.5172 C   0  0  0  0  0  0  0  0  0  0  0  0
   11.6862  -19.0099   26.9643 O   0  0  0  0  0  0  0  0  0  0  0  0
    9.7197  -19.3111   25.9312 O   0  0  0  0  0  0  0  0  0  0  0  0
  2  1  1  6
  2  3  1  0
  4  2  1  0
  5  6  1  6
  5  4  1  0
  7  5  1  0
  8  7  2  0
  9  7  1  0
 10 13  1  0
 10  9  1  0
 10 11  1  1
 12 11  1  0
 13 20  1  0
 14 13  2  0
 15 16  1  0
 16 17  1  0
 19 18  1  1
 18 17  1  0
 19 21  1  0
 20 19  1  0
 21 22  2  0
 21 23  1  0
M  END
$$$$
