LCM.pdb
     RDKit          3D

 23 22  0  0  1  0  0  0  0  0999 V2000
    8.7447  -15.1357   18.1258 C   0  0  0  0  0  0  0  0  0  0  0  0
    7.6139  -14.2912   18.6826 C   0  0  2  0  0  0  0  0  0  0  0  0
    7.2919  -13.2137   17.6567 C   0  0  0  0  0  0  0  0  0  0  0  0
    7.9743  -13.6591   19.9972 C   0  0  0  0  0  0  0  0  0  0  0  0
    8.2080  -14.7163   21.0322 C   0  0  2  0  0  0  0  0  0  0  0  0
    7.0834  -15.6313   21.0172 N   0  0  0  0  0  0  0  0  0  0  0  0
    8.4385  -14.1465   22.3797 C   0  0  0  0  0  0  0  0  0  0  0  0
    9.4980  -13.4948   22.6088 O   0  0  0  0  0  0  0  0  0  0  0  0
    7.5377  -14.2761   23.4720 N   0  0  0  0  0  0  0  0  0  0  0  0
    7.7809  -13.7277   24.7862 C   0  0  1  0  0  0  0  0  0  0  0  0
    6.5083  -13.6390   25.5640 C   0  0  0  0  0  0  0  0  0  0  0  0
    5.9099  -15.2716   26.0790 S   0  0  0  0  0  0  0  0  0  0  0  0
    8.8875  -14.3678   25.4898 C   0  0  0  0  0  0  0  0  0  0  0  0
    9.4079  -13.7526   26.4788 O   0  0  0  0  0  0  0  0  0  0  0  0
   10.5762  -13.2243   28.6837 C   0  0  0  0  0  0  0  0  0  0  0  0
    9.7918  -14.7974   29.1626 S   0  0  0  0  0  0  0  0  0  0  0  0
   10.8164  -16.1201   28.4039 C   0  0  0  0  0  0  0  0  0  0  0  0
   10.0575  -16.7512   27.2739 C   0  0  0  0  0  0  0  0  0  0  0  0
   10.5023  -16.2637   25.9657 C   0  0  2  0  0  0  0  0  0  0  0  0
    9.4510  -15.6262   25.1785 N   0  0  0  0  0  0  0  0  0  0  0  0
   11.2610  -17.2344   25.1787 C   0  0  0  0  0  0  0  0  0  0  0  0
   10.9292  -17.6113   24.0533 O   0  0  0  0  0  0  0  0  0  0  0  0
   12.4467  -17.8008   25.6924 O   0  0  0  0  0  0  0  0  0  0  0  0
  2  1  1  6
  2  3  1  0
  4  2  1  0
  5  6  1  1
  5  4  1  0
  7  5  1  0
  8  7  2  0
  9  7  1  0
 10 13  1  0
 10  9  1  0
 10 11  1  1
 12 11  1  0
 13 20  1  0
 14 13  2  0
 15 16  1  0
 16 17  1  0
 19 18  1  1
 18 17  1  0
 19 21  1  0
 20 19  1  0
 21 22  2  0
 21 23  1  0
M  END
$$$$
