LCM.pdb
     RDKit          3D

 23 22  0  0  1  0  0  0  0  0999 V2000
    9.0302  -12.4626   19.3074 C   0  0  0  0  0  0  0  0  0  0  0  0
    7.9934  -13.5084   18.9423 C   0  0  2  0  0  0  0  0  0  0  0  0
    6.7253  -12.7774   18.5245 C   0  0  0  0  0  0  0  0  0  0  0  0
    7.6992  -14.4368   20.0866 C   0  0  0  0  0  0  0  0  0  0  0  0
    8.9706  -15.0299   20.6111 C   0  0  2  0  0  0  0  0  0  0  0  0
    9.3770  -16.1035   19.7254 N   0  0  0  0  0  0  0  0  0  0  0  0
    8.8434  -15.4890   22.0134 C   0  0  0  0  0  0  0  0  0  0  0  0
    8.1944  -14.7886   22.8429 O   0  0  0  0  0  0  0  0  0  0  0  0
    9.4092  -16.6908   22.5201 N   0  0  0  0  0  0  0  0  0  0  0  0
    9.3185  -17.1041   23.9014 C   0  0  1  0  0  0  0  0  0  0  0  0
    9.8174  -18.5027   24.0669 C   0  0  0  0  0  0  0  0  0  0  0  0
   11.6287  -18.5869   24.0414 S   0  0  0  0  0  0  0  0  0  0  0  0
    9.8807  -16.1366   24.8380 C   0  0  0  0  0  0  0  0  0  0  0  0
   10.8672  -15.4268   24.4502 O   0  0  0  0  0  0  0  0  0  0  0  0
    6.2981  -12.1676   25.9083 C   0  0  0  0  0  0  0  0  0  0  0  0
    7.2249  -12.0276   27.4706 S   0  0  0  0  0  0  0  0  0  0  0  0
    8.0491  -13.6516   27.7121 C   0  0  0  0  0  0  0  0  0  0  0  0
    9.4035  -13.6234   27.0669 C   0  0  0  0  0  0  0  0  0  0  0  0
   10.0462  -14.9401   27.0673 C   0  0  2  0  0  0  0  0  0  0  0  0
    9.4320  -15.9030   26.1579 N   0  0  0  0  0  0  0  0  0  0  0  0
   10.2701  -15.5092   28.3951 C   0  0  0  0  0  0  0  0  0  0  0  0
    9.8835  -16.6296   28.7331 O   0  0  0  0  0  0  0  0  0  0  0  0
   10.9623  -14.7742   29.3805 O   0  0  0  0  0  0  0  0  0  0  0  0
  2  1  1  1
  2  3  1  0
  4  2  1  0
  5  6  1  6
  5  4  1  0
  7  5  1  0
  8  7  2  0
  9  7  1  0
 10 13  1  0
 10  9  1  0
 10 11  1  6
 12 11  1  0
 13 20  1  0
 14 13  2  0
 15 16  1  0
 16 17  1  0
 19 18  1  1
 18 17  1  0
 19 21  1  0
 20 19  1  0
 21 22  2  0
 21 23  1  0
M  END
$$$$
