LCM.pdb
     RDKit          3D

 23 22  0  0  1  0  0  0  0  0999 V2000
    9.3866  -13.2718   18.9124 C   0  0  0  0  0  0  0  0  0  0  0  0
    7.9152  -13.6405   18.9441 C   0  0  2  0  0  0  0  0  0  0  0  0
    7.1175  -12.3515   19.0819 C   0  0  0  0  0  0  0  0  0  0  0  0
    7.5895  -14.5711   20.0780 C   0  0  0  0  0  0  0  0  0  0  0  0
    8.3733  -15.8406   19.9462 C   0  0  2  0  0  0  0  0  0  0  0  0
    7.6791  -16.7159   19.0221 N   0  0  0  0  0  0  0  0  0  0  0  0
    8.6124  -16.4952   21.2531 C   0  0  0  0  0  0  0  0  0  0  0  0
    7.6492  -17.0450   21.8610 O   0  0  0  0  0  0  0  0  0  0  0  0
    9.8762  -16.5581   21.9012 N   0  0  0  0  0  0  0  0  0  0  0  0
   10.0846  -17.1450   23.2047 C   0  0  1  0  0  0  0  0  0  0  0  0
   11.1621  -18.1787   23.1511 C   0  0  0  0  0  0  0  0  0  0  0  0
   12.3326  -17.8727   21.8001 S   0  0  0  0  0  0  0  0  0  0  0  0
   10.2310  -16.1601   24.2714 C   0  0  0  0  0  0  0  0  0  0  0  0
   10.4978  -14.9558   23.9461 O   0  0  0  0  0  0  0  0  0  0  0  0
    6.6278  -11.1909   27.6885 C   0  0  0  0  0  0  0  0  0  0  0  0
    7.0169  -12.4147   26.3961 S   0  0  0  0  0  0  0  0  0  0  0  0
    7.8989  -13.7819   27.2492 C   0  0  0  0  0  0  0  0  0  0  0  0
    8.3578  -14.7878   26.2348 C   0  0  0  0  0  0  0  0  0  0  0  0
    9.6164  -15.4310   26.6208 C   0  0  2  0  0  0  0  0  0  0  0  0
   10.1039  -16.4127   25.6564 N   0  0  0  0  0  0  0  0  0  0  0  0
    9.6427  -15.9489   27.9876 C   0  0  0  0  0  0  0  0  0  0  0  0
    9.6846  -15.2328   28.9897 O   0  0  0  0  0  0  0  0  0  0  0  0
    9.6207  -17.3394   28.2257 O   0  0  0  0  0  0  0  0  0  0  0  0
  2  1  1  1
  2  3  1  0
  4  2  1  0
  5  6  1  6
  5  4  1  0
  7  5  1  0
  8  7  2  0
  9  7  1  0
 10 13  1  0
 10  9  1  0
 10 11  1  6
 12 11  1  0
 13 20  1  0
 14 13  2  0
 15 16  1  0
 16 17  1  0
 19 18  1  6
 18 17  1  0
 19 21  1  0
 20 19  1  0
 21 22  2  0
 21 23  1  0
M  END
$$$$
