LCM.pdb
     RDKit          3D

 23 22  0  0  1  0  0  0  0  0999 V2000
    9.1811  -13.2882   20.3810 C   0  0  0  0  0  0  0  0  0  0  0  0
    7.9830  -13.3201   19.4507 C   0  0  2  0  0  0  0  0  0  0  0  0
    7.2985  -11.9629   19.5303 C   0  0  0  0  0  0  0  0  0  0  0  0
    7.0128  -14.4081   19.8149 C   0  0  0  0  0  0  0  0  0  0  0  0
    7.7513  -15.6635   20.1644 C   0  0  2  0  0  0  0  0  0  0  0  0
    7.4560  -16.6658   19.1592 N   0  0  0  0  0  0  0  0  0  0  0  0
    7.4372  -16.1420   21.5303 C   0  0  0  0  0  0  0  0  0  0  0  0
    6.2478  -16.0781   21.9558 O   0  0  0  0  0  0  0  0  0  0  0  0
    8.3936  -16.6844   22.4317 N   0  0  0  0  0  0  0  0  0  0  0  0
    8.0898  -17.0769   23.7883 C   0  0  1  0  0  0  0  0  0  0  0  0
    8.1486  -18.5628   23.9328 C   0  0  0  0  0  0  0  0  0  0  0  0
    7.9723  -19.0864   25.6601 S   0  0  0  0  0  0  0  0  0  0  0  0
    8.8411  -16.3319   24.7933 C   0  0  0  0  0  0  0  0  0  0  0  0
   10.1147  -16.3425   24.7228 O   0  0  0  0  0  0  0  0  0  0  0  0
    6.0066  -10.6022   26.1172 C   0  0  0  0  0  0  0  0  0  0  0  0
    6.7953  -11.6101   27.4139 S   0  0  0  0  0  0  0  0  0  0  0  0
    7.7032  -12.9414   26.5317 C   0  0  0  0  0  0  0  0  0  0  0  0
    8.4304  -13.7938   27.5296 C   0  0  0  0  0  0  0  0  0  0  0  0
    9.0811  -14.9481   26.9043 C   0  0  2  0  0  0  0  0  0  0  0  0
    8.2870  -15.5850   25.8579 N   0  0  0  0  0  0  0  0  0  0  0  0
    9.6275  -15.9243   27.8454 C   0  0  0  0  0  0  0  0  0  0  0  0
    9.1656  -17.0561   28.0019 O   0  0  0  0  0  0  0  0  0  0  0  0
   10.7458  -15.6006   28.6423 O   0  0  0  0  0  0  0  0  0  0  0  0
  2  1  1  1
  2  3  1  0
  4  2  1  0
  5  6  1  6
  5  4  1  0
  7  5  1  0
  8  7  2  0
  9  7  1  0
 10 13  1  0
 10  9  1  0
 10 11  1  6
 12 11  1  0
 13 20  1  0
 14 13  2  0
 15 16  1  0
 16 17  1  0
 19 18  1  1
 18 17  1  0
 19 21  1  0
 20 19  1  0
 21 22  2  0
 21 23  1  0
M  END
$$$$
