MEI.pdb
     RDKit          3D

 26 25  0  0  1  0  0  0  0  0999 V2000
    5.3950  -13.1794   18.0684 C   0  0  0  0  0  0  0  0  0  0  0  0
    6.9486  -12.6617   17.2767 S   0  0  0  0  0  0  0  0  0  0  0  0
    8.2986  -13.1741   18.3555 C   0  0  0  0  0  0  0  0  0  0  0  0
    7.7926  -13.8553   19.6136 C   0  0  0  0  0  0  0  0  0  0  0  0
    8.9869  -14.0307   20.5201 C   0  0  2  0  0  0  0  0  0  0  0  0
   10.0439  -14.6538   19.7583 N   0  0  0  0  0  0  0  0  0  0  0  0
    8.7124  -14.8187   21.7144 C   0  0  0  0  0  0  0  0  0  0  0  0
    7.7399  -14.5854   22.4417 O   0  0  0  0  0  0  0  0  0  0  0  0
    9.5781  -15.8811   22.0580 N   0  0  0  0  0  0  0  0  0  0  0  0
    9.4009  -16.7391   23.2300 C   0  0  1  0  0  0  0  0  0  0  0  0
   10.1619  -18.0053   23.0931 C   0  0  0  0  0  0  0  0  0  0  0  0
   10.0150  -18.8595   24.3151 C   0  0  0  0  0  0  0  0  0  0  0  0
   10.8692  -20.0771   24.1743 C   0  0  0  0  0  0  0  0  0  0  0  0
   11.0276  -20.8224   25.1549 O   0  0  0  0  0  0  0  0  0  0  0  0
    9.7564  -15.9031   24.3895 C   0  0  0  0  0  0  0  0  0  0  0  0
   10.8403  -15.2831   24.4388 O   0  0  0  0  0  0  0  0  0  0  0  0
   11.4610  -20.3467   22.9660 O   0  0  0  0  0  0  0  0  0  0  0  0
    6.4357  -12.2607   26.1918 C   0  0  0  0  0  0  0  0  0  0  0  0
    7.6864  -13.0694   25.8213 C   0  0  0  0  0  0  0  0  0  0  0  0
    8.1258  -13.9209   26.9536 C   0  0  2  0  0  0  0  0  0  0  0  0
    8.5972  -13.0017   28.0894 C   0  0  0  0  0  0  0  0  0  0  0  0
    9.2528  -14.8734   26.6594 C   0  0  2  0  0  0  0  0  0  0  0  0
    8.8939  -15.7471   25.5258 N   0  0  0  0  0  0  0  0  0  0  0  0
    9.6763  -15.6667   27.8144 C   0  0  0  0  0  0  0  0  0  0  0  0
   10.2854  -15.1610   28.7725 O   0  0  0  0  0  0  0  0  0  0  0  0
    9.3957  -17.0184   27.8505 O   0  0  0  0  0  0  0  0  0  0  0  0
  2  1  1  0
  3  4  1  0
  3  2  1  0
  4  5  1  0
  5  6  1  6
  7  5  1  0
  7  8  2  0
  9  7  1  0
 10  9  1  0
 11 12  1  0
 10 11  1  6
 12 13  1  0
 13 14  2  0
 15 10  1  0
 16 15  2  0
 17 13  1  0
 19 18  1  0
 20 19  1  0
 20 21  1  1
 22 20  1  0
 22 23  1  6
 23 15  1  0
 24 22  1  0
 25 24  2  0
 26 24  1  0
M  END
$$$$
