MEI.pdb
     RDKit          3D

 26 25  0  0  1  0  0  0  0  0999 V2000
    8.2018  -11.5853   18.7295 C   0  0  0  0  0  0  0  0  0  0  0  0
    8.1825  -13.1141   19.7146 S   0  0  0  0  0  0  0  0  0  0  0  0
    6.4928  -13.7413   19.7012 C   0  0  0  0  0  0  0  0  0  0  0  0
    6.3114  -14.9045   20.6589 C   0  0  0  0  0  0  0  0  0  0  0  0
    7.3428  -15.9400   20.2811 C   0  0  2  0  0  0  0  0  0  0  0  0
    6.7004  -16.9368   19.4566 N   0  0  0  0  0  0  0  0  0  0  0  0
    7.9804  -16.5836   21.4221 C   0  0  0  0  0  0  0  0  0  0  0  0
    7.3956  -17.4340   22.1034 O   0  0  0  0  0  0  0  0  0  0  0  0
    9.3045  -16.2307   21.7664 N   0  0  0  0  0  0  0  0  0  0  0  0
   10.0524  -16.8275   22.8735 C   0  0  1  0  0  0  0  0  0  0  0  0
   11.4218  -17.2148   22.4541 C   0  0  0  0  0  0  0  0  0  0  0  0
   12.1878  -17.8131   23.5943 C   0  0  0  0  0  0  0  0  0  0  0  0
   13.5895  -18.0905   23.1582 C   0  0  0  0  0  0  0  0  0  0  0  0
   14.4659  -17.2328   23.3547 O   0  0  0  0  0  0  0  0  0  0  0  0
    9.9740  -15.8524   23.9747 C   0  0  0  0  0  0  0  0  0  0  0  0
   10.2405  -14.6445   23.7967 O   0  0  0  0  0  0  0  0  0  0  0  0
   13.8799  -19.2857   22.5498 O   0  0  0  0  0  0  0  0  0  0  0  0
    6.5416  -12.6966   26.8612 C   0  0  0  0  0  0  0  0  0  0  0  0
    7.9409  -13.2874   27.0812 C   0  0  0  0  0  0  0  0  0  0  0  0
    8.2429  -14.3330   26.0733 C   0  0  2  0  0  0  0  0  0  0  0  0
    7.0183  -15.2514   25.9542 C   0  0  0  0  0  0  0  0  0  0  0  0
    9.4267  -15.2117   26.3739 C   0  0  2  0  0  0  0  0  0  0  0  0
    9.5925  -16.2191   25.3087 N   0  0  0  0  0  0  0  0  0  0  0  0
    9.3733  -15.8497   27.6902 C   0  0  0  0  0  0  0  0  0  0  0  0
    9.3314  -15.1878   28.7413 O   0  0  0  0  0  0  0  0  0  0  0  0
    9.3689  -17.2279   27.7780 O   0  0  0  0  0  0  0  0  0  0  0  0
  2  1  1  0
  3  4  1  0
  3  2  1  0
  4  5  1  0
  5  6  1  6
  7  5  1  0
  7  8  2  0
  9  7  1  0
 10  9  1  0
 11 12  1  0
 10 11  1  6
 12 13  1  0
 13 14  2  0
 15 10  1  0
 16 15  2  0
 17 13  1  0
 19 18  1  0
 20 19  1  0
 20 21  1  1
 22 20  1  0
 22 23  1  6
 23 15  1  0
 24 22  1  0
 25 24  2  0
 26 24  1  0
M  END
$$$$
