MEI.pdb
     RDKit          3D

 26 25  0  0  1  0  0  0  0  0999 V2000
    8.2154  -11.4195   20.7667 C   0  0  0  0  0  0  0  0  0  0  0  0
    7.6398  -12.0035   19.1431 S   0  0  0  0  0  0  0  0  0  0  0  0
    7.9757  -13.7723   19.0578 C   0  0  0  0  0  0  0  0  0  0  0  0
    7.1792  -14.5516   20.0880 C   0  0  0  0  0  0  0  0  0  0  0  0
    7.6298  -15.9887   19.9857 C   0  0  2  0  0  0  0  0  0  0  0  0
    6.5244  -16.7740   19.4882 N   0  0  0  0  0  0  0  0  0  0  0  0
    8.1045  -16.5508   21.2432 C   0  0  0  0  0  0  0  0  0  0  0  0
    7.3366  -17.0896   22.0490 O   0  0  0  0  0  0  0  0  0  0  0  0
    9.4801  -16.4816   21.5581 N   0  0  0  0  0  0  0  0  0  0  0  0
   10.0681  -17.0061   22.7911 C   0  0  1  0  0  0  0  0  0  0  0  0
   11.4475  -17.5025   22.5637 C   0  0  0  0  0  0  0  0  0  0  0  0
   12.1211  -17.8405   23.8586 C   0  0  0  0  0  0  0  0  0  0  0  0
   12.3917  -19.3090   23.9079 C   0  0  0  0  0  0  0  0  0  0  0  0
   12.7843  -19.8872   22.8813 O   0  0  0  0  0  0  0  0  0  0  0  0
    9.9342  -15.9259   23.7836 C   0  0  0  0  0  0  0  0  0  0  0  0
   10.5950  -14.8693   23.6910 O   0  0  0  0  0  0  0  0  0  0  0  0
   12.2009  -19.9883   25.0847 O   0  0  0  0  0  0  0  0  0  0  0  0
    6.8046  -11.9096   26.3612 C   0  0  0  0  0  0  0  0  0  0  0  0
    7.7000  -13.0471   26.8710 C   0  0  0  0  0  0  0  0  0  0  0  0
    7.8302  -14.1197   25.8547 C   0  0  2  0  0  0  0  0  0  0  0  0
    6.6026  -15.0351   25.9644 C   0  0  0  0  0  0  0  0  0  0  0  0
    9.0473  -14.9959   25.9778 C   0  0  2  0  0  0  0  0  0  0  0  0
    9.0483  -16.0133   24.9093 N   0  0  0  0  0  0  0  0  0  0  0  0
    9.1977  -15.6215   27.2926 C   0  0  0  0  0  0  0  0  0  0  0  0
    9.3300  -14.9498   28.3299 O   0  0  0  0  0  0  0  0  0  0  0  0
    9.1939  -16.9988   27.3946 O   0  0  0  0  0  0  0  0  0  0  0  0
  2  1  1  0
  3  4  1  0
  3  2  1  0
  4  5  1  0
  5  6  1  1
  7  5  1  0
  7  8  2  0
  9  7  1  0
 10  9  1  0
 11 12  1  0
 10 11  1  6
 12 13  1  0
 13 14  2  0
 15 10  1  0
 16 15  2  0
 17 13  1  0
 19 18  1  0
 20 19  1  0
 20 21  1  1
 22 20  1  0
 22 23  1  6
 23 15  1  0
 24 22  1  0
 25 24  2  0
 26 24  1  0
M  END
$$$$
