MEI.pdb
     RDKit          3D

 26 25  0  0  1  0  0  0  0  0999 V2000
    8.8852  -12.4576   18.2284 C   0  0  0  0  0  0  0  0  0  0  0  0
    7.4069  -12.4532   19.2882 S   0  0  0  0  0  0  0  0  0  0  0  0
    6.5936  -14.0486   19.0832 C   0  0  0  0  0  0  0  0  0  0  0  0
    6.5746  -14.8460   20.3743 C   0  0  0  0  0  0  0  0  0  0  0  0
    7.9805  -14.8134   20.9229 C   0  0  2  0  0  0  0  0  0  0  0  0
    8.8596  -15.4148   19.9473 N   0  0  0  0  0  0  0  0  0  0  0  0
    8.1317  -15.4914   22.2036 C   0  0  0  0  0  0  0  0  0  0  0  0
    7.3425  -15.3067   23.1376 O   0  0  0  0  0  0  0  0  0  0  0  0
    9.2086  -16.3865   22.3913 N   0  0  0  0  0  0  0  0  0  0  0  0
    9.4730  -17.1034   23.6392 C   0  0  1  0  0  0  0  0  0  0  0  0
   10.4586  -18.1939   23.4377 C   0  0  0  0  0  0  0  0  0  0  0  0
   10.7773  -18.8808   24.7305 C   0  0  0  0  0  0  0  0  0  0  0  0
   11.7524  -19.9841   24.4783 C   0  0  0  0  0  0  0  0  0  0  0  0
   12.7834  -20.0504   25.1676 O   0  0  0  0  0  0  0  0  0  0  0  0
    9.8562  -16.0694   24.6157 C   0  0  0  0  0  0  0  0  0  0  0  0
   10.7780  -15.2592   24.3801 O   0  0  0  0  0  0  0  0  0  0  0  0
   11.4899  -20.9005   23.4913 O   0  0  0  0  0  0  0  0  0  0  0  0
    6.3953  -12.7167   26.5112 C   0  0  0  0  0  0  0  0  0  0  0  0
    7.6997  -13.3843   26.0549 C   0  0  0  0  0  0  0  0  0  0  0  0
    8.3961  -14.0289   27.1950 C   0  0  2  0  0  0  0  0  0  0  0  0
    8.8840  -12.9252   28.1443 C   0  0  0  0  0  0  0  0  0  0  0  0
    9.5932  -14.8694   26.8422 C   0  0  2  0  0  0  0  0  0  0  0  0
    9.2062  -15.9253   25.8870 N   0  0  0  0  0  0  0  0  0  0  0  0
   10.2789  -15.4421   28.0017 C   0  0  0  0  0  0  0  0  0  0  0  0
   10.9709  -14.7481   28.7662 O   0  0  0  0  0  0  0  0  0  0  0  0
   10.1602  -16.7929   28.2630 O   0  0  0  0  0  0  0  0  0  0  0  0
  2  1  1  0
  3  4  1  0
  3  2  1  0
  4  5  1  0
  5  6  1  6
  7  5  1  0
  7  8  2  0
  9  7  1  0
 10  9  1  0
 11 12  1  0
 10 11  1  6
 12 13  1  0
 13 14  2  0
 15 10  1  0
 16 15  2  0
 17 13  1  0
 19 18  1  0
 20 19  1  0
 20 21  1  1
 22 20  1  0
 22 23  1  6
 23 15  1  0
 24 22  1  0
 25 24  2  0
 26 24  1  0
M  END
$$$$
