MEI.pdb
     RDKit          3D

 26 25  0  0  1  0  0  0  0  0999 V2000
    8.1909  -11.2473   19.1754 C   0  0  0  0  0  0  0  0  0  0  0  0
    8.3239  -13.0580   19.2853 S   0  0  0  0  0  0  0  0  0  0  0  0
    6.8017  -13.6642   20.0366 C   0  0  0  0  0  0  0  0  0  0  0  0
    6.8446  -15.1621   20.2764 C   0  0  0  0  0  0  0  0  0  0  0  0
    8.2418  -15.4842   20.7487 C   0  0  2  0  0  0  0  0  0  0  0  0
    8.7799  -16.5173   19.8947 N   0  0  0  0  0  0  0  0  0  0  0  0
    8.3123  -15.9112   22.1399 C   0  0  0  0  0  0  0  0  0  0  0  0
    7.5683  -15.4380   23.0070 O   0  0  0  0  0  0  0  0  0  0  0  0
    9.2556  -16.8933   22.5166 N   0  0  0  0  0  0  0  0  0  0  0  0
    9.3512  -17.4686   23.8586 C   0  0  1  0  0  0  0  0  0  0  0  0
   10.2443  -18.6532   23.8765 C   0  0  0  0  0  0  0  0  0  0  0  0
   10.3772  -19.2095   25.2613 C   0  0  0  0  0  0  0  0  0  0  0  0
   11.3193  -20.3687   25.2413 C   0  0  0  0  0  0  0  0  0  0  0  0
   12.0706  -20.5218   24.2643 O   0  0  0  0  0  0  0  0  0  0  0  0
    9.7490  -16.3562   24.7383 C   0  0  0  0  0  0  0  0  0  0  0  0
   10.7809  -15.6868   24.5175 O   0  0  0  0  0  0  0  0  0  0  0  0
   11.3354  -21.2401   26.3012 O   0  0  0  0  0  0  0  0  0  0  0  0
    6.7089  -12.3572   26.1441 C   0  0  0  0  0  0  0  0  0  0  0  0
    7.9429  -13.2170   25.8384 C   0  0  0  0  0  0  0  0  0  0  0  0
    8.4331  -13.9001   27.0604 C   0  0  2  0  0  0  0  0  0  0  0  0
    9.0449  -12.8409   27.9885 C   0  0  0  0  0  0  0  0  0  0  0  0
    9.4815  -14.9577   26.8451 C   0  0  2  0  0  0  0  0  0  0  0  0
    8.9890  -15.9719   25.8934 N   0  0  0  0  0  0  0  0  0  0  0  0
    9.9517  -15.5874   28.0800 C   0  0  0  0  0  0  0  0  0  0  0  0
    9.6102  -16.7378   28.4036 O   0  0  0  0  0  0  0  0  0  0  0  0
   10.8005  -14.8910   28.9178 O   0  0  0  0  0  0  0  0  0  0  0  0
  2  1  1  0
  3  4  1  0
  3  2  1  0
  4  5  1  0
  5  6  1  6
  7  5  1  0
  7  8  2  0
  9  7  1  0
 10  9  1  0
 11 12  1  0
 10 11  1  6
 12 13  1  0
 13 14  2  0
 15 10  1  0
 16 15  2  0
 17 13  1  0
 19 18  1  0
 20 19  1  0
 20 21  1  1
 22 20  1  0
 22 23  1  6
 23 15  1  0
 24 22  1  0
 25 24  2  0
 26 24  1  0
M  END
$$$$
