MEI.pdb
     RDKit          3D

 26 25  0  0  1  0  0  0  0  0999 V2000
    7.6752  -11.4255   19.9949 C   0  0  0  0  0  0  0  0  0  0  0  0
    7.7303  -12.1640   18.3336 S   0  0  0  0  0  0  0  0  0  0  0  0
    7.8166  -13.9522   18.5426 C   0  0  0  0  0  0  0  0  0  0  0  0
    7.9524  -14.3472   20.0016 C   0  0  0  0  0  0  0  0  0  0  0  0
    7.9872  -15.8559   20.0392 C   0  0  2  0  0  0  0  0  0  0  0  0
    6.7360  -16.3494   19.5127 N   0  0  0  0  0  0  0  0  0  0  0  0
    8.2130  -16.4095   21.3678 C   0  0  0  0  0  0  0  0  0  0  0  0
    7.2793  -16.6561   22.1401 O   0  0  0  0  0  0  0  0  0  0  0  0
    9.5341  -16.6743   21.7931 N   0  0  0  0  0  0  0  0  0  0  0  0
    9.8829  -17.1931   23.1160 C   0  0  1  0  0  0  0  0  0  0  0  0
   11.1577  -17.9513   23.0806 C   0  0  0  0  0  0  0  0  0  0  0  0
   11.4966  -18.5031   24.4316 C   0  0  0  0  0  0  0  0  0  0  0  0
   12.7749  -19.2716   24.3466 C   0  0  0  0  0  0  0  0  0  0  0  0
   13.8401  -18.7107   24.6518 O   0  0  0  0  0  0  0  0  0  0  0  0
    9.8584  -16.0278   24.0167 C   0  0  0  0  0  0  0  0  0  0  0  0
   10.6225  -15.0540   23.8446 O   0  0  0  0  0  0  0  0  0  0  0  0
   12.7465  -20.5797   23.9332 O   0  0  0  0  0  0  0  0  0  0  0  0
    6.7819  -11.6837   26.3120 C   0  0  0  0  0  0  0  0  0  0  0  0
    7.8084  -12.7154   26.7992 C   0  0  0  0  0  0  0  0  0  0  0  0
    7.8939  -13.8647   25.8653 C   0  0  2  0  0  0  0  0  0  0  0  0
    6.6001  -14.6816   25.9912 C   0  0  0  0  0  0  0  0  0  0  0  0
    9.0394  -14.8130   26.0951 C   0  0  2  0  0  0  0  0  0  0  0  0
    8.9680  -15.9338   25.1382 N   0  0  0  0  0  0  0  0  0  0  0  0
    9.1342  -15.3072   27.4697 C   0  0  0  0  0  0  0  0  0  0  0  0
    9.2778  -14.5396   28.4367 O   0  0  0  0  0  0  0  0  0  0  0  0
    9.0632  -16.6652   27.7104 O   0  0  0  0  0  0  0  0  0  0  0  0
  2  1  1  0
  3  4  1  0
  3  2  1  0
  4  5  1  0
  5  6  1  1
  7  5  1  0
  7  8  2  0
  9  7  1  0
 10  9  1  0
 11 12  1  0
 10 11  1  6
 12 13  1  0
 13 14  2  0
 15 10  1  0
 16 15  2  0
 17 13  1  0
 19 18  1  0
 20 19  1  0
 20 21  1  1
 22 20  1  0
 22 23  1  6
 23 15  1  0
 24 22  1  0
 25 24  2  0
 26 24  1  0
M  END
$$$$
