MEI.pdb
     RDKit          3D

 26 25  0  0  1  0  0  0  0  0999 V2000
    8.3182  -12.1190   19.2719 C   0  0  0  0  0  0  0  0  0  0  0  0
    6.8449  -13.0493   18.7498 S   0  0  0  0  0  0  0  0  0  0  0  0
    6.5070  -14.2799   20.0226 C   0  0  0  0  0  0  0  0  0  0  0  0
    7.7774  -14.9413   20.5243 C   0  0  0  0  0  0  0  0  0  0  0  0
    7.3490  -16.0456   21.4600 C   0  0  2  0  0  0  0  0  0  0  0  0
    6.4592  -15.4806   22.4474 N   0  0  0  0  0  0  0  0  0  0  0  0
    8.4560  -16.7198   22.1255 C   0  0  0  0  0  0  0  0  0  0  0  0
    8.5362  -17.9529   22.1730 O   0  0  0  0  0  0  0  0  0  0  0  0
    9.4703  -15.9492   22.7367 N   0  0  0  0  0  0  0  0  0  0  0  0
   10.6771  -16.5121   23.3430 C   0  0  1  0  0  0  0  0  0  0  0  0
   11.8796  -16.2218   22.5239 C   0  0  0  0  0  0  0  0  0  0  0  0
   11.9833  -17.1631   21.3629 C   0  0  0  0  0  0  0  0  0  0  0  0
   13.3821  -17.6789   21.2666 C   0  0  0  0  0  0  0  0  0  0  0  0
   13.7035  -18.6836   21.9222 O   0  0  0  0  0  0  0  0  0  0  0  0
   10.7046  -15.9956   24.7222 C   0  0  0  0  0  0  0  0  0  0  0  0
   11.7817  -15.8134   25.3292 O   0  0  0  0  0  0  0  0  0  0  0  0
   14.2824  -17.0330   20.4572 O   0  0  0  0  0  0  0  0  0  0  0  0
    6.9857  -12.3140   26.0337 C   0  0  0  0  0  0  0  0  0  0  0  0
    8.2806  -13.1203   25.8647 C   0  0  0  0  0  0  0  0  0  0  0  0
    8.4585  -14.0835   26.9786 C   0  0  2  0  0  0  0  0  0  0  0  0
    8.7664  -13.2879   28.2551 C   0  0  0  0  0  0  0  0  0  0  0  0
    9.5649  -15.0886   26.8066 C   0  0  2  0  0  0  0  0  0  0  0  0
    9.5123  -15.6720   25.4524 N   0  0  0  0  0  0  0  0  0  0  0  0
    9.5764  -16.1390   27.8259 C   0  0  0  0  0  0  0  0  0  0  0  0
    9.8946  -15.9084   29.0051 O   0  0  0  0  0  0  0  0  0  0  0  0
    9.2250  -17.4283   27.4776 O   0  0  0  0  0  0  0  0  0  0  0  0
  2  1  1  0
  3  4  1  0
  3  2  1  0
  4  5  1  0
  5  6  1  1
  7  5  1  0
  7  8  2  0
  9  7  1  0
 10  9  1  0
 11 12  1  0
 10 11  1  6
 12 13  1  0
 13 14  2  0
 15 10  1  0
 16 15  2  0
 17 13  1  0
 19 18  1  0
 20 19  1  0
 20 21  1  1
 22 20  1  0
 22 23  1  6
 23 15  1  0
 24 22  1  0
 25 24  2  0
 26 24  1  0
M  END
$$$$
