MEI.pdb
     RDKit          3D

 26 25  0  0  1  0  0  0  0  0999 V2000
    8.6570  -11.3378   20.4835 C   0  0  0  0  0  0  0  0  0  0  0  0
    7.7753  -12.1051   19.0898 S   0  0  0  0  0  0  0  0  0  0  0  0
    8.1255  -13.8726   19.1396 C   0  0  0  0  0  0  0  0  0  0  0  0
    8.1078  -14.4149   20.5569 C   0  0  0  0  0  0  0  0  0  0  0  0
    8.5367  -15.8598   20.4718 C   0  0  2  0  0  0  0  0  0  0  0  0
    7.6733  -16.5320   19.5290 N   0  0  0  0  0  0  0  0  0  0  0  0
    8.5096  -16.5611   21.7486 C   0  0  0  0  0  0  0  0  0  0  0  0
    7.4981  -17.1487   22.1498 O   0  0  0  0  0  0  0  0  0  0  0  0
    9.6681  -16.5741   22.5571 N   0  0  0  0  0  0  0  0  0  0  0  0
    9.7504  -17.2261   23.8645 C   0  0  1  0  0  0  0  0  0  0  0  0
   10.7137  -18.3543   23.8463 C   0  0  0  0  0  0  0  0  0  0  0  0
   12.0904  -17.8843   23.4877 C   0  0  0  0  0  0  0  0  0  0  0  0
   13.0323  -19.0437   23.5137 C   0  0  0  0  0  0  0  0  0  0  0  0
   14.0091  -19.0133   24.2801 O   0  0  0  0  0  0  0  0  0  0  0  0
   10.0465  -16.1496   24.8253 C   0  0  0  0  0  0  0  0  0  0  0  0
   11.0120  -15.3739   24.6587 O   0  0  0  0  0  0  0  0  0  0  0  0
   12.7997  -20.1171   22.6912 O   0  0  0  0  0  0  0  0  0  0  0  0
    6.3401  -12.8734   26.3502 C   0  0  0  0  0  0  0  0  0  0  0  0
    7.7475  -13.3937   26.0280 C   0  0  0  0  0  0  0  0  0  0  0  0
    8.3790  -14.0003   27.2253 C   0  0  2  0  0  0  0  0  0  0  0  0
    8.8210  -12.8656   28.1604 C   0  0  0  0  0  0  0  0  0  0  0  0
    9.5890  -14.8562   26.9664 C   0  0  2  0  0  0  0  0  0  0  0  0
    9.2573  -15.9227   26.0022 N   0  0  0  0  0  0  0  0  0  0  0  0
   10.1892  -15.4176   28.1776 C   0  0  0  0  0  0  0  0  0  0  0  0
   10.0325  -16.6080   28.4990 O   0  0  0  0  0  0  0  0  0  0  0  0
   10.9543  -14.6090   28.9949 O   0  0  0  0  0  0  0  0  0  0  0  0
  2  1  1  0
  3  4  1  0
  3  2  1  0
  4  5  1  0
  5  6  1  6
  7  5  1  0
  7  8  2  0
  9  7  1  0
 10  9  1  0
 11 12  1  0
 10 11  1  6
 12 13  1  0
 13 14  2  0
 15 10  1  0
 16 15  2  0
 17 13  1  0
 19 18  1  0
 20 19  1  0
 20 21  1  1
 22 20  1  0
 22 23  1  6
 23 15  1  0
 24 22  1  0
 25 24  2  0
 26 24  1  0
M  END
$$$$
