MEI.pdb
     RDKit          3D

 26 25  0  0  1  0  0  0  0  0999 V2000
    8.2438  -11.5088   20.3766 C   0  0  0  0  0  0  0  0  0  0  0  0
    8.2893  -12.4330   18.8106 S   0  0  0  0  0  0  0  0  0  0  0  0
    7.2625  -13.8992   19.0216 C   0  0  0  0  0  0  0  0  0  0  0  0
    7.2102  -14.3522   20.4690 C   0  0  0  0  0  0  0  0  0  0  0  0
    7.5910  -15.8129   20.4786 C   0  0  2  0  0  0  0  0  0  0  0  0
    6.5404  -16.5574   19.8244 N   0  0  0  0  0  0  0  0  0  0  0  0
    7.8207  -16.3557   21.8110 C   0  0  0  0  0  0  0  0  0  0  0  0
    6.8894  -16.5926   22.5893 O   0  0  0  0  0  0  0  0  0  0  0  0
    9.1427  -16.6211   22.2330 N   0  0  0  0  0  0  0  0  0  0  0  0
    9.4960  -17.1234   23.5611 C   0  0  1  0  0  0  0  0  0  0  0  0
   10.6017  -18.1100   23.4895 C   0  0  0  0  0  0  0  0  0  0  0  0
   11.0060  -18.5696   24.8570 C   0  0  0  0  0  0  0  0  0  0  0  0
   12.1991  -19.4620   24.7472 C   0  0  0  0  0  0  0  0  0  0  0  0
   13.1597  -19.2859   25.5144 O   0  0  0  0  0  0  0  0  0  0  0  0
    9.7602  -15.9271   24.3789 C   0  0  0  0  0  0  0  0  0  0  0  0
   10.8169  -15.2718   24.2539 O   0  0  0  0  0  0  0  0  0  0  0  0
   12.2096  -20.4567   23.8021 O   0  0  0  0  0  0  0  0  0  0  0  0
    6.1199  -12.0671   26.4128 C   0  0  0  0  0  0  0  0  0  0  0  0
    6.8772  -13.4011   26.3621 C   0  0  0  0  0  0  0  0  0  0  0  0
    8.3278  -13.1828   26.1422 C   0  0  2  0  0  0  0  0  0  0  0  0
    8.5258  -12.6970   24.6993 C   0  0  0  0  0  0  0  0  0  0  0  0
    9.2081  -14.3890   26.3272 C   0  0  2  0  0  0  0  0  0  0  0  0
    8.8347  -15.4406   25.3620 N   0  0  0  0  0  0  0  0  0  0  0  0
    9.2153  -14.9148   27.6932 C   0  0  0  0  0  0  0  0  0  0  0  0
    9.5735  -14.2241   28.6625 O   0  0  0  0  0  0  0  0  0  0  0  0
    8.8139  -16.2160   27.9230 O   0  0  0  0  0  0  0  0  0  0  0  0
  2  1  1  0
  3  4  1  0
  3  2  1  0
  4  5  1  0
  5  6  1  1
  7  5  1  0
  7  8  2  0
  9  7  1  0
 10  9  1  0
 11 12  1  0
 10 11  1  6
 12 13  1  0
 13 14  2  0
 15 10  1  0
 16 15  2  0
 17 13  1  0
 19 18  1  0
 20 19  1  0
 20 21  1  6
 22 20  1  0
 22 23  1  6
 23 15  1  0
 24 22  1  0
 25 24  2  0
 26 24  1  0
M  END
$$$$
