ARA.pdb
     RDKit          3D

 22 21  0  0  1  0  0  0  0  0999 V2000
    5.8138  -21.5304   24.6315 C   0  0  0  0  0  0  0  0  0  0  0  0
    6.1087  -21.1181   23.2217 C   0  0  2  0  0  0  0  0  0  0  0  0
    6.5641  -22.2064   22.4218 N   0  0  0  0  0  0  0  0  0  0  0  0
    6.9602  -19.9110   23.1145 C   0  0  0  0  0  0  0  0  0  0  0  0
    8.2142  -20.0239   23.3227 O   0  0  0  0  0  0  0  0  0  0  0  0
    9.3448  -11.5911   19.6017 N   0  0  0  0  0  0  0  0  0  0  0  0
    8.5877  -12.7802   19.8565 C   0  0  0  0  0  0  0  0  0  0  0  0
    8.6577  -13.7660   19.0523 N   0  0  0  0  0  0  0  0  0  0  0  0
    7.7677  -12.8282   21.0196 N   0  0  0  0  0  0  0  0  0  0  0  0
    6.8888  -13.9708   21.2393 C   0  0  0  0  0  0  0  0  0  0  0  0
    7.6388  -15.1228   21.8585 C   0  0  0  0  0  0  0  0  0  0  0  0
    6.6859  -16.2792   22.0689 C   0  0  0  0  0  0  0  0  0  0  0  0
    7.3825  -17.4705   22.6871 C   0  0  2  0  0  0  0  0  0  0  0  0
    6.4921  -18.6128   22.7942 N   0  0  0  0  0  0  0  0  0  0  0  0
    7.9255  -17.1262   24.0022 C   0  0  0  0  0  0  0  0  0  0  0  0
    7.1604  -16.8242   24.9396 O   0  0  0  0  0  0  0  0  0  0  0  0
    8.0993  -14.6103   19.2196 C   0  0  0  0  0  0  0  0  0  0  0  0
    9.6869  -17.9722   26.4579 C   0  0  2  0  0  0  0  0  0  0  0  0
    9.8665  -16.7766   25.5192 N   0  0  0  0  0  0  0  0  0  0  0  0
    9.3211  -17.1349   24.2193 C   0  0  0  0  0  0  0  0  0  0  0  0
   11.3025  -16.4604   25.3447 O   0  0  0  0  0  0  0  0  0  0  0  0
   11.8355  -16.6061   24.2147 O   0  0  0  0  0  0  0  0  0  0  0  0
  2  1  1  1
  2  3  1  0
  4  2  1  0
  4  5  2  0
  7  6  1  0
  7  8  2  0
  9 10  1  0
  9  7  1  0
 11 12  1  0
 11 10  1  0
 13 14  1  0
 13 12  1  1
 14  4  1  0
 15 13  1  0
 16 15  2  0
 18 17  1  1
 18 19  1  0
 19 15  1  0
 20 18  1  0
 20 22  1  0
 21 20  2  0
M  END
$$$$
