ARA.pdb
     RDKit          3D

 22 21  0  0  1  0  0  0  0  0999 V2000
    8.3082  -12.5640   19.4921 C   0  0  0  0  0  0  0  0  0  0  0  0
    8.1498  -14.0500   19.5990 C   0  0  2  0  0  0  0  0  0  0  0  0
    7.4067  -14.5962   18.5122 N   0  0  0  0  0  0  0  0  0  0  0  0
    7.6785  -14.5100   20.9256 C   0  0  0  0  0  0  0  0  0  0  0  0
    6.4355  -14.4198   21.2005 O   0  0  0  0  0  0  0  0  0  0  0  0
    6.8381  -18.8795   28.3307 N   0  0  0  0  0  0  0  0  0  0  0  0
    7.2349  -19.6003   27.1580 C   0  0  0  0  0  0  0  0  0  0  0  0
    6.5600  -20.6089   26.7699 N   0  0  0  0  0  0  0  0  0  0  0  0
    8.3884  -19.1615   26.4479 N   0  0  0  0  0  0  0  0  0  0  0  0
    8.2935  -18.8694   25.0223 C   0  0  0  0  0  0  0  0  0  0  0  0
    7.8178  -17.4583   24.7868 C   0  0  0  0  0  0  0  0  0  0  0  0
    8.4382  -16.9322   23.5108 C   0  0  0  0  0  0  0  0  0  0  0  0
    7.9770  -15.5249   23.2054 C   0  0  2  0  0  0  0  0  0  0  0  0
    8.5070  -15.0530   21.9383 N   0  0  0  0  0  0  0  0  0  0  0  0
    8.3559  -14.6116   24.2848 C   0  0  0  0  0  0  0  0  0  0  0  0
    9.5535  -14.3154   24.4674 O   0  0  0  0  0  0  0  0  0  0  0  0
    6.8078  -21.0930   25.8999 C   0  0  0  0  0  0  0  0  0  0  0  0
    6.4616  -12.3000   26.5191 C   0  0  1  0  0  0  0  0  0  0  0  0
    7.7255  -13.0742   26.1369 N   0  0  0  0  0  0  0  0  0  0  0  0
    7.3667  -14.0576   25.1270 C   0  0  0  0  0  0  0  0  0  0  0  0
    8.2707  -13.7960   27.3092 O   0  0  0  0  0  0  0  0  0  0  0  0
    8.7163  -13.1415   28.2866 O   0  0  0  0  0  0  0  0  0  0  0  0
  2  1  1  1
  2  3  1  0
  4  2  1  0
  4  5  2  0
  7  6  1  0
  7  8  2  0
  9 10  1  0
  9  7  1  0
 11 12  1  0
 11 10  1  0
 13 14  1  0
 13 12  1  1
 14  4  1  0
 15 13  1  0
 16 15  2  0
 18 17  1  6
 18 19  1  0
 19 15  1  0
 20 18  1  0
 20 22  1  0
 21 20  2  0
M  END
$$$$
