ARA.pdb
     RDKit          3D

 22 21  0  0  1  0  0  0  0  0999 V2000
    8.1628  -12.0460   19.6770 C   0  0  0  0  0  0  0  0  0  0  0  0
    8.1242  -13.5427   19.6224 C   0  0  2  0  0  0  0  0  0  0  0  0
    7.3839  -14.0262   18.5044 N   0  0  0  0  0  0  0  0  0  0  0  0
    7.7418  -14.1808   20.9031 C   0  0  0  0  0  0  0  0  0  0  0  0
    6.5024  -14.3197   21.1736 O   0  0  0  0  0  0  0  0  0  0  0  0
   11.7721  -19.2364   23.9059 N   0  0  0  0  0  0  0  0  0  0  0  0
   11.5073  -19.0388   25.2998 C   0  0  0  0  0  0  0  0  0  0  0  0
   12.4346  -19.2112   26.1563 N   0  0  0  0  0  0  0  0  0  0  0  0
   10.1962  -18.6478   25.6942 N   0  0  0  0  0  0  0  0  0  0  0  0
    9.1164  -18.6431   24.7141 C   0  0  0  0  0  0  0  0  0  0  0  0
    8.4807  -17.2799   24.6117 C   0  0  0  0  0  0  0  0  0  0  0  0
    8.8904  -16.6385   23.3039 C   0  0  0  0  0  0  0  0  0  0  0  0
    8.2146  -15.3008   23.1028 C   0  0  2  0  0  0  0  0  0  0  0  0
    8.6535  -14.6604   21.8755 N   0  0  0  0  0  0  0  0  0  0  0  0
    8.4577  -14.4220   24.2480 C   0  0  0  0  0  0  0  0  0  0  0  0
    9.6095  -14.0114   24.4929 O   0  0  0  0  0  0  0  0  0  0  0  0
   12.2453  -19.0817   27.1564 C   0  0  0  0  0  0  0  0  0  0  0  0
    6.2798  -12.4847   26.5754 C   0  0  1  0  0  0  0  0  0  0  0  0
    7.6175  -13.1265   26.1991 N   0  0  0  0  0  0  0  0  0  0  0  0
    7.3882  -14.0315   25.0838 C   0  0  0  0  0  0  0  0  0  0  0  0
    8.1544  -13.9166   27.3304 O   0  0  0  0  0  0  0  0  0  0  0  0
    7.9347  -15.1541   27.3804 O   0  0  0  0  0  0  0  0  0  0  0  0
  2  1  1  1
  2  3  1  0
  4  2  1  0
  4  5  2  0
  7  6  1  0
  7  8  2  0
  9 10  1  0
  9  7  1  0
 11 12  1  0
 11 10  1  0
 13 14  1  0
 13 12  1  1
 14  4  1  0
 15 13  1  0
 16 15  2  0
 18 17  1  6
 18 19  1  0
 19 15  1  0
 20 18  1  0
 20 22  1  0
 21 20  2  0
M  END
$$$$
