ARA.pdb
     RDKit          3D

 22 21  0  0  1  0  0  0  0  0999 V2000
    7.3649  -12.9614   19.1186 C   0  0  0  0  0  0  0  0  0  0  0  0
    8.3645  -13.6249   20.0160 C   0  0  2  0  0  0  0  0  0  0  0  0
    9.0344  -14.7077   19.3755 N   0  0  0  0  0  0  0  0  0  0  0  0
    7.8338  -13.9694   21.3552 C   0  0  0  0  0  0  0  0  0  0  0  0
    7.1852  -13.0830   22.0051 O   0  0  0  0  0  0  0  0  0  0  0  0
    9.0349  -20.1063   27.3877 N   0  0  0  0  0  0  0  0  0  0  0  0
    7.6101  -19.9947   27.4856 C   0  0  0  0  0  0  0  0  0  0  0  0
    6.9669  -20.7308   28.3028 N   0  0  0  0  0  0  0  0  0  0  0  0
    6.9435  -19.0489   26.6558 N   0  0  0  0  0  0  0  0  0  0  0  0
    7.6912  -18.3327   25.6290 C   0  0  0  0  0  0  0  0  0  0  0  0
    6.8212  -17.3190   24.9300 C   0  0  0  0  0  0  0  0  0  0  0  0
    7.4138  -17.0085   23.5728 C   0  0  0  0  0  0  0  0  0  0  0  0
    7.3796  -15.5263   23.2752 C   0  0  2  0  0  0  0  0  0  0  0  0
    7.9882  -15.2258   21.9913 N   0  0  0  0  0  0  0  0  0  0  0  0
    8.0423  -14.7704   24.3394 C   0  0  0  0  0  0  0  0  0  0  0  0
    9.2726  -14.8756   24.5138 O   0  0  0  0  0  0  0  0  0  0  0  0
    5.9461  -20.6552   28.3734 C   0  0  0  0  0  0  0  0  0  0  0  0
    7.0040  -12.0029   26.6281 C   0  0  1  0  0  0  0  0  0  0  0  0
    7.9521  -13.1284   26.2066 N   0  0  0  0  0  0  0  0  0  0  0  0
    7.2923  -13.9148   25.1762 C   0  0  0  0  0  0  0  0  0  0  0  0
    8.2442  -14.0214   27.3510 O   0  0  0  0  0  0  0  0  0  0  0  0
    7.7803  -15.1905   27.3579 O   0  0  0  0  0  0  0  0  0  0  0  0
  2  1  1  6
  2  3  1  0
  4  2  1  0
  4  5  2  0
  7  6  1  0
  7  8  2  0
  9 10  1  0
  9  7  1  0
 11 12  1  0
 11 10  1  0
 13 14  1  0
 13 12  1  1
 14  4  1  0
 15 13  1  0
 16 15  2  0
 18 17  1  6
 18 19  1  0
 19 15  1  0
 20 18  1  0
 20 22  1  0
 21 20  2  0
M  END
$$$$
