ARA.pdb
     RDKit          3D

 22 21  0  0  1  0  0  0  0  0999 V2000
    7.3405  -12.9351   18.9305 C   0  0  0  0  0  0  0  0  0  0  0  0
    8.3716  -13.2846   19.9597 C   0  0  2  0  0  0  0  0  0  0  0  0
    9.3631  -14.1750   19.4541 N   0  0  0  0  0  0  0  0  0  0  0  0
    7.8030  -13.7118   21.2588 C   0  0  0  0  0  0  0  0  0  0  0  0
    6.9341  -12.9668   21.8232 O   0  0  0  0  0  0  0  0  0  0  0  0
   11.6892  -18.9779   23.8466 N   0  0  0  0  0  0  0  0  0  0  0  0
   11.4243  -18.9384   25.2538 C   0  0  0  0  0  0  0  0  0  0  0  0
   12.3737  -19.1051   26.0869 N   0  0  0  0  0  0  0  0  0  0  0  0
   10.0878  -18.7085   25.6880 N   0  0  0  0  0  0  0  0  0  0  0  0
    9.0417  -18.4498   24.7055 C   0  0  0  0  0  0  0  0  0  0  0  0
    8.8435  -16.9695   24.4991 C   0  0  0  0  0  0  0  0  0  0  0  0
    7.7309  -16.7531   23.4966 C   0  0  0  0  0  0  0  0  0  0  0  0
    7.5258  -15.2848   23.1994 C   0  0  2  0  0  0  0  0  0  0  0  0
    8.1487  -14.9023   21.9445 N   0  0  0  0  0  0  0  0  0  0  0  0
    8.0411  -14.4595   24.2931 C   0  0  0  0  0  0  0  0  0  0  0  0
    9.2686  -14.2821   24.4233 O   0  0  0  0  0  0  0  0  0  0  0  0
   12.1830  -19.1039   27.0951 C   0  0  0  0  0  0  0  0  0  0  0  0
    6.5238  -11.9977   26.6223 C   0  0  1  0  0  0  0  0  0  0  0  0
    7.6499  -12.9620   26.2414 N   0  0  0  0  0  0  0  0  0  0  0  0
    7.1507  -13.8566   25.2089 C   0  0  0  0  0  0  0  0  0  0  0  0
    8.0517  -13.7824   27.4067 O   0  0  0  0  0  0  0  0  0  0  0  0
    7.7476  -15.0025   27.4389 O   0  0  0  0  0  0  0  0  0  0  0  0
  2  1  1  6
  2  3  1  0
  4  2  1  0
  4  5  2  0
  7  6  1  0
  7  8  2  0
  9 10  1  0
  9  7  1  0
 11 12  1  0
 11 10  1  0
 13 14  1  0
 13 12  1  1
 14  4  1  0
 15 13  1  0
 16 15  2  0
 18 17  1  6
 18 19  1  0
 19 15  1  0
 20 18  1  0
 20 22  1  0
 21 20  2  0
M  END
$$$$
