ARA.pdb
     RDKit          3D

 22 21  0  0  1  0  0  0  0  0999 V2000
    7.7979  -12.1361   19.3099 C   0  0  0  0  0  0  0  0  0  0  0  0
    7.9503  -13.3654   18.4672 C   0  0  2  0  0  0  0  0  0  0  0  0
    6.8821  -13.5215   17.5365 N   0  0  0  0  0  0  0  0  0  0  0  0
    8.2402  -14.5933   19.2430 C   0  0  0  0  0  0  0  0  0  0  0  0
    7.2632  -15.2937   19.6715 O   0  0  0  0  0  0  0  0  0  0  0  0
   11.5203  -20.3556   22.2042 N   0  0  0  0  0  0  0  0  0  0  0  0
   12.7983  -20.1300   21.5976 C   0  0  0  0  0  0  0  0  0  0  0  0
   13.8597  -20.2065   22.2981 N   0  0  0  0  0  0  0  0  0  0  0  0
   12.8468  -19.8239   20.2078 N   0  0  0  0  0  0  0  0  0  0  0  0
   11.6150  -19.5152   19.4910 C   0  0  0  0  0  0  0  0  0  0  0  0
   10.7384  -18.5855   20.2912 C   0  0  0  0  0  0  0  0  0  0  0  0
   10.6424  -17.2557   19.5755 C   0  0  0  0  0  0  0  0  0  0  0  0
    9.7558  -16.2838   20.3210 C   0  0  2  0  0  0  0  0  0  0  0  0
    9.5374  -15.0676   19.5580 N   0  0  0  0  0  0  0  0  0  0  0  0
   10.3262  -15.9647   21.6309 C   0  0  0  0  0  0  0  0  0  0  0  0
   11.4088  -15.3513   21.7133 O   0  0  0  0  0  0  0  0  0  0  0  0
   14.7767  -20.0468   21.8664 C   0  0  0  0  0  0  0  0  0  0  0  0
    9.0713  -15.5631   25.0232 C   0  0  1  0  0  0  0  0  0  0  0  0
   10.2126  -16.0286   24.1157 N   0  0  0  0  0  0  0  0  0  0  0  0
    9.6531  -16.3485   22.8117 C   0  0  0  0  0  0  0  0  0  0  0  0
   10.8454  -17.2525   24.6580 O   0  0  0  0  0  0  0  0  0  0  0  0
   11.5196  -17.1831   25.7176 O   0  0  0  0  0  0  0  0  0  0  0  0
  2  1  1  1
  2  3  1  0
  4  2  1  0
  4  5  2  0
  7  6  1  0
  7  8  2  0
  9 10  1  0
  9  7  1  0
 11 12  1  0
 11 10  1  0
 13 14  1  0
 13 12  1  6
 14  4  1  0
 15 13  1  0
 16 15  2  0
 18 17  1  6
 18 19  1  0
 19 15  1  0
 20 18  1  0
 20 22  1  0
 21 20  2  0
M  END
$$$$
