ARA.pdb
     RDKit          3D

 22 21  0  0  1  0  0  0  0  0999 V2000
   11.9069  -19.2589   17.7627 C   0  0  0  0  0  0  0  0  0  0  0  0
   10.9648  -19.5386   18.8935 C   0  0  2  0  0  0  0  0  0  0  0  0
    9.6064  -19.5990   18.4661 N   0  0  0  0  0  0  0  0  0  0  0  0
   11.1725  -18.6722   20.0767 C   0  0  0  0  0  0  0  0  0  0  0  0
   12.3557  -18.5302   20.5333 O   0  0  0  0  0  0  0  0  0  0  0  0
    8.0879  -12.8390   17.6269 N   0  0  0  0  0  0  0  0  0  0  0  0
    8.3296  -13.0346   19.0253 C   0  0  0  0  0  0  0  0  0  0  0  0
    9.3863  -12.5669   19.5620 N   0  0  0  0  0  0  0  0  0  0  0  0
    7.3667  -13.7553   19.7875 N   0  0  0  0  0  0  0  0  0  0  0  0
    7.7717  -14.4266   21.0170 C   0  0  0  0  0  0  0  0  0  0  0  0
    9.0131  -15.2546   20.8011 C   0  0  0  0  0  0  0  0  0  0  0  0
    9.2878  -16.0704   22.0456 C   0  0  0  0  0  0  0  0  0  0  0  0
   10.4302  -17.0388   21.8367 C   0  0  2  0  0  0  0  0  0  0  0  0
   10.1481  -17.9726   20.7608 N   0  0  0  0  0  0  0  0  0  0  0  0
   10.7245  -17.7647   23.0734 C   0  0  0  0  0  0  0  0  0  0  0  0
    9.8103  -18.3346   23.7015 O   0  0  0  0  0  0  0  0  0  0  0  0
    9.5388  -12.6622   20.5721 C   0  0  0  0  0  0  0  0  0  0  0  0
   12.9362  -19.9287   24.3608 C   0  0  2  0  0  0  0  0  0  0  0  0
   12.3513  -18.5755   24.7727 N   0  0  0  0  0  0  0  0  0  0  0  0
   12.0477  -17.8260   23.5637 C   0  0  0  0  0  0  0  0  0  0  0  0
   13.3353  -17.7991   25.5609 O   0  0  0  0  0  0  0  0  0  0  0  0
   13.7087  -18.2302   26.6820 O   0  0  0  0  0  0  0  0  0  0  0  0
  2  1  1  6
  2  3  1  0
  4  2  1  0
  4  5  2  0
  7  6  1  0
  7  8  2  0
  9 10  1  0
  9  7  1  0
 11 12  1  0
 11 10  1  0
 13 14  1  0
 13 12  1  1
 14  4  1  0
 15 13  1  0
 16 15  2  0
 18 17  1  6
 18 19  1  0
 19 15  1  0
 20 18  1  0
 20 22  1  0
 21 20  2  0
M  END
$$$$
