HRN.pdb
     RDKit          3D

 30 30  0  0  1  0  0  0  0  0999 V2000
   22.9249  -20.5561   -9.6741 N   0  0  0  0  0  0  0  0  0  0  0  0
   23.0064  -20.8990  -11.0671 C   0  0  1  0  0  0  0  0  0  0  0  0
   21.7702  -20.4535  -11.8160 C   0  0  0  0  0  0  0  0  0  0  0  0
   20.6676  -21.3645  -11.4817 C   0  0  0  0  0  0  0  0  0  0  0  0
   19.7242  -21.2387  -10.4886 C   0  0  0  0  0  0  0  0  0  0  0  0
   18.8818  -22.2870  -10.5082 N   0  0  0  0  0  0  0  0  0  0  0  0
   19.2983  -23.0653  -11.5111 C   0  0  0  0  0  0  0  0  0  0  0  0
   20.3742  -22.5272  -12.1114 N   0  0  0  0  0  0  0  0  0  0  0  0
   24.1687  -20.2214  -11.7342 C   0  0  0  0  0  0  0  0  0  0  0  0
   24.3138  -18.9886  -11.6028 O   0  0  0  0  0  0  0  0  0  0  0  0
   31.8334  -20.9196   -9.6394 N   0  0  0  0  0  0  0  0  0  0  0  0
   31.0435  -22.0880   -9.7697 C   0  0  0  0  0  0  0  0  0  0  0  0
   31.3600  -23.1944   -9.2087 N   0  0  0  0  0  0  0  0  0  0  0  0
   29.8523  -22.0382  -10.5517 N   0  0  0  0  0  0  0  0  0  0  0  0
   29.3486  -20.7582  -10.9978 C   0  0  0  0  0  0  0  0  0  0  0  0
   27.8310  -20.9173  -11.1674 C   0  0  0  0  0  0  0  0  0  0  0  0
   27.4920  -21.0199  -12.6214 C   0  0  0  0  0  0  0  0  0  0  0  0
   26.2722  -20.2869  -13.0702 C   0  0  2  0  0  0  0  0  0  0  0  0
   25.0844  -20.9485  -12.4952 N   0  0  0  0  0  0  0  0  0  0  0  0
   26.1338  -20.2909  -14.5198 C   0  0  0  0  0  0  0  0  0  0  0  0
   25.1563  -20.8825  -15.0466 O   0  0  0  0  0  0  0  0  0  0  0  0
   30.7619  -24.0291   -9.3318 N   0  0  0  0  0  0  0  0  0  0  0  0
   25.5398  -17.2714  -18.6341 C   0  0  0  0  0  0  0  0  0  0  0  0
   25.1269  -17.0336  -17.2912 O   0  0  0  0  0  0  0  0  0  0  0  0
   24.3314  -16.0769  -17.1138 C   0  0  0  0  0  0  0  0  0  0  0  0
   25.5920  -17.8497  -16.1527 C   0  0  1  0  0  0  0  0  0  0  0  0
   26.5892  -18.9270  -16.5685 N   0  0  0  0  0  0  0  0  0  0  0  0
   27.0578  -19.6407  -15.3769 C   0  0  0  0  0  0  0  0  0  0  0  0
   27.7330  -18.3370  -17.2620 O   0  0  0  0  0  0  0  0  0  0  0  0
   28.6419  -17.6911  -16.6567 O   0  0  0  0  0  0  0  0  0  0  0  0
  2  1  1  1
  2  3  1  0
  3  4  1  0
  4  8  1  0
  5  6  1  0
  5  4  2  0
  6  7  1  0
  7  8  2  0
  9  2  1  0
  9 10  2  0
 12 11  1  0
 13 12  2  0
 14 12  1  0
 15 14  1  0
 15 16  1  0
 17 16  1  0
 18 17  1  6
 18 19  1  0
 19  9  1  0
 20 18  1  0
 21 20  2  0
 23 24  2  0
 23 22  1  0
 26 25  1  6
 25 23  1  0
 26 27  1  0
 27 20  1  0
 28 26  1  0
 29 28  2  0
 30 28  1  0
M  END
$$$$
