HRN.pdb
     RDKit          3D

 30 30  0  0  1  0  0  0  0  0999 V2000
   25.0541  -21.2017  -16.6962 N   0  0  0  0  0  0  0  0  0  0  0  0
   24.6949  -20.3705  -15.5806 C   0  0  1  0  0  0  0  0  0  0  0  0
   24.9807  -18.9131  -15.8666 C   0  0  0  0  0  0  0  0  0  0  0  0
   26.4215  -18.7574  -16.1060 C   0  0  0  0  0  0  0  0  0  0  0  0
   27.0717  -18.5275  -17.2961 C   0  0  0  0  0  0  0  0  0  0  0  0
   28.3992  -18.4464  -17.0958 N   0  0  0  0  0  0  0  0  0  0  0  0
   28.5772  -18.6252  -15.7837 C   0  0  0  0  0  0  0  0  0  0  0  0
   27.3970  -18.8145  -15.1682 N   0  0  0  0  0  0  0  0  0  0  0  0
   23.2268  -20.4591  -15.2776 C   0  0  0  0  0  0  0  0  0  0  0  0
   22.4114  -20.5150  -16.2209 O   0  0  0  0  0  0  0  0  0  0  0  0
   19.9456  -24.4342   -8.7732 N   0  0  0  0  0  0  0  0  0  0  0  0
   19.6044  -24.7501  -10.1110 C   0  0  0  0  0  0  0  0  0  0  0  0
   19.3476  -25.9464  -10.4877 N   0  0  0  0  0  0  0  0  0  0  0  0
   19.5429  -23.7044  -11.0783 N   0  0  0  0  0  0  0  0  0  0  0  0
   19.6915  -22.3312  -10.6500 C   0  0  0  0  0  0  0  0  0  0  0  0
   19.7193  -21.4736  -11.9231 C   0  0  0  0  0  0  0  0  0  0  0  0
   21.1289  -21.3268  -12.4041 C   0  0  0  0  0  0  0  0  0  0  0  0
   21.3189  -20.5720  -13.6772 C   0  0  2  0  0  0  0  0  0  0  0  0
   22.7646  -20.4801  -13.9614 N   0  0  0  0  0  0  0  0  0  0  0  0
   20.7880  -19.2185  -13.5953 C   0  0  0  0  0  0  0  0  0  0  0  0
   21.5152  -18.2944  -13.1479 O   0  0  0  0  0  0  0  0  0  0  0  0
   19.1285  -26.1431  -11.4791 N   0  0  0  0  0  0  0  0  0  0  0  0
   18.7025  -14.8567  -15.3179 C   0  0  0  0  0  0  0  0  0  0  0  0
   19.7120  -15.6546  -15.9300 O   0  0  0  0  0  0  0  0  0  0  0  0
   20.3126  -15.1406  -16.9071 C   0  0  0  0  0  0  0  0  0  0  0  0
   20.0538  -17.0124  -15.4630 C   0  0  1  0  0  0  0  0  0  0  0  0
   19.1295  -17.5039  -14.3531 N   0  0  0  0  0  0  0  0  0  0  0  0
   19.4735  -18.8874  -14.0119 C   0  0  0  0  0  0  0  0  0  0  0  0
   17.7312  -17.4413  -14.7751 O   0  0  0  0  0  0  0  0  0  0  0  0
   17.2125  -18.2969  -15.5552 O   0  0  0  0  0  0  0  0  0  0  0  0
  2  1  1  6
  2  3  1  0
  3  4  1  0
  4  8  1  0
  5  6  1  0
  5  4  2  0
  6  7  1  0
  7  8  2  0
  9  2  1  0
  9 10  2  0
 12 11  1  0
 13 12  2  0
 14 12  1  0
 15 14  1  0
 15 16  1  0
 17 16  1  0
 18 17  1  1
 18 19  1  0
 19  9  1  0
 20 18  1  0
 21 20  2  0
 23 24  2  0
 23 22  1  0
 26 25  1  1
 25 23  1  0
 26 27  1  0
 27 20  1  0
 28 26  1  0
 29 28  2  0
 30 28  1  0
M  END
$$$$
