HRN.pdb
     RDKit          3D

 30 30  0  0  1  0  0  0  0  0999 V2000
   17.5199  -29.4720   -9.7218 N   0  0  0  0  0  0  0  0  0  0  0  0
   17.2020  -29.6697   -8.3345 C   0  0  1  0  0  0  0  0  0  0  0  0
   17.8920  -30.8969   -7.7820 C   0  0  0  0  0  0  0  0  0  0  0  0
   17.2547  -32.0896   -8.3555 C   0  0  0  0  0  0  0  0  0  0  0  0
   15.9507  -32.2516   -8.7624 C   0  0  0  0  0  0  0  0  0  0  0  0
   15.7590  -33.4969   -9.2331 N   0  0  0  0  0  0  0  0  0  0  0  0
   16.9404  -34.1107   -9.1203 C   0  0  0  0  0  0  0  0  0  0  0  0
   17.8562  -33.2795   -8.5932 N   0  0  0  0  0  0  0  0  0  0  0  0
   17.6630  -28.5141   -7.4936 C   0  0  0  0  0  0  0  0  0  0  0  0
   18.7649  -27.9818   -7.7394 O   0  0  0  0  0  0  0  0  0  0  0  0
   14.0297  -21.7820   -8.6092 N   0  0  0  0  0  0  0  0  0  0  0  0
   14.9594  -22.4067   -9.4760 C   0  0  0  0  0  0  0  0  0  0  0  0
   15.0725  -22.0800  -10.7087 N   0  0  0  0  0  0  0  0  0  0  0  0
   15.8026  -23.4368   -8.9653 N   0  0  0  0  0  0  0  0  0  0  0  0
   15.5676  -23.9525   -7.6348 C   0  0  0  0  0  0  0  0  0  0  0  0
   16.5222  -25.1403   -7.4483 C   0  0  0  0  0  0  0  0  0  0  0  0
   16.3672  -25.7030   -6.0702 C   0  0  0  0  0  0  0  0  0  0  0  0
   17.2860  -26.8202   -5.7039 C   0  0  2  0  0  0  0  0  0  0  0  0
   16.8791  -28.0298   -6.4460 N   0  0  0  0  0  0  0  0  0  0  0  0
   17.2364  -27.1254   -4.2810 C   0  0  0  0  0  0  0  0  0  0  0  0
   16.4023  -27.9667   -3.8571 O   0  0  0  0  0  0  0  0  0  0  0  0
   15.7715  -22.5501  -11.3087 N   0  0  0  0  0  0  0  0  0  0  0  0
   18.1544  -27.2008    0.9061 C   0  0  0  0  0  0  0  0  0  0  0  0
   19.2884  -26.6643    0.2304 O   0  0  0  0  0  0  0  0  0  0  0  0
   20.2655  -26.3406    0.9518 C   0  0  0  0  0  0  0  0  0  0  0  0
   19.3399  -26.4875   -1.2340 C   0  0  1  0  0  0  0  0  0  0  0  0
   18.0379  -26.8869   -1.9219 N   0  0  0  0  0  0  0  0  0  0  0  0
   18.1041  -26.5169   -3.3388 C   0  0  0  0  0  0  0  0  0  0  0  0
   16.8952  -26.2207   -1.2991 O   0  0  0  0  0  0  0  0  0  0  0  0
   16.4139  -26.5867   -0.1837 O   0  0  0  0  0  0  0  0  0  0  0  0
  2  1  1  6
  2  3  1  0
  3  4  1  0
  4  8  1  0
  5  6  1  0
  5  4  2  0
  6  7  1  0
  7  8  2  0
  9  2  1  0
  9 10  2  0
 12 11  1  0
 13 12  2  0
 14 12  1  0
 15 14  1  0
 15 16  1  0
 17 16  1  0
 18 17  1  1
 18 19  1  0
 19  9  1  0
 20 18  1  0
 21 20  2  0
 23 24  2  0
 23 22  1  0
 26 25  1  6
 25 23  1  0
 26 27  1  0
 27 20  1  0
 28 26  1  0
 29 28  2  0
 30 28  1  0
M  END
$$$$
