HRN.pdb
     RDKit          3D

 30 30  0  0  1  0  0  0  0  0999 V2000
   27.9511  -17.2343  -19.1035 N   0  0  0  0  0  0  0  0  0  0  0  0
   26.8938  -17.0536  -18.1474 C   0  0  1  0  0  0  0  0  0  0  0  0
   26.0356  -15.8581  -18.4965 C   0  0  0  0  0  0  0  0  0  0  0  0
   26.8964  -14.6701  -18.5696 C   0  0  0  0  0  0  0  0  0  0  0  0
   27.1131  -13.8345  -19.6404 C   0  0  0  0  0  0  0  0  0  0  0  0
   27.9731  -12.8566  -19.3040 N   0  0  0  0  0  0  0  0  0  0  0  0
   28.2924  -13.0813  -18.0262 C   0  0  0  0  0  0  0  0  0  0  0  0
   27.6538  -14.1704  -17.5641 N   0  0  0  0  0  0  0  0  0  0  0  0
   25.9713  -18.2380  -18.1158 C   0  0  0  0  0  0  0  0  0  0  0  0
   24.9940  -18.2713  -18.8916 O   0  0  0  0  0  0  0  0  0  0  0  0
   30.5622  -23.9303  -16.3272 N   0  0  0  0  0  0  0  0  0  0  0  0
   30.3504  -23.9317  -17.7276 C   0  0  0  0  0  0  0  0  0  0  0  0
   31.2829  -24.2069  -18.5606 N   0  0  0  0  0  0  0  0  0  0  0  0
   29.0559  -23.6167  -18.2354 N   0  0  0  0  0  0  0  0  0  0  0  0
   27.9796  -23.3358  -17.3113 C   0  0  0  0  0  0  0  0  0  0  0  0
   27.2291  -22.1172  -17.8670 C   0  0  0  0  0  0  0  0  0  0  0  0
   26.1757  -21.6851  -16.8957 C   0  0  0  0  0  0  0  0  0  0  0  0
   25.3496  -20.5083  -17.2951 C   0  0  2  0  0  0  0  0  0  0  0  0
   26.1914  -19.2971  -17.2346 N   0  0  0  0  0  0  0  0  0  0  0  0
   24.2118  -20.3121  -16.4079 C   0  0  0  0  0  0  0  0  0  0  0  0
   24.2964  -19.4806  -15.4674 O   0  0  0  0  0  0  0  0  0  0  0  0
   31.0938  -24.1872  -19.5772 N   0  0  0  0  0  0  0  0  0  0  0  0
   19.8888  -19.9530  -13.7703 C   0  0  0  0  0  0  0  0  0  0  0  0
   21.2362  -19.5289  -13.5830 O   0  0  0  0  0  0  0  0  0  0  0  0
   21.4487  -18.7601  -12.6117 C   0  0  0  0  0  0  0  0  0  0  0  0
   22.3405  -19.9536  -14.4654 C   0  0  1  0  0  0  0  0  0  0  0  0
   21.8555  -20.7397  -15.6798 N   0  0  0  0  0  0  0  0  0  0  0  0
   22.9916  -21.0179  -16.5633 C   0  0  0  0  0  0  0  0  0  0  0  0
   20.8413  -19.9865  -16.4156 O   0  0  0  0  0  0  0  0  0  0  0  0
   19.6008  -20.0879  -16.1698 O   0  0  0  0  0  0  0  0  0  0  0  0
  2  1  1  6
  2  3  1  0
  3  4  1  0
  4  8  1  0
  5  6  1  0
  5  4  2  0
  6  7  1  0
  7  8  2  0
  9  2  1  0
  9 10  2  0
 12 11  1  0
 13 12  2  0
 14 12  1  0
 15 14  1  0
 15 16  1  0
 17 16  1  0
 18 17  1  1
 18 19  1  0
 19  9  1  0
 20 18  1  0
 21 20  2  0
 23 24  2  0
 23 22  1  0
 26 25  1  1
 25 23  1  0
 26 27  1  0
 27 20  1  0
 28 26  1  0
 29 28  2  0
 30 28  1  0
M  END
$$$$
