HRN.pdb
     RDKit          3D

 30 30  0  0  1  0  0  0  0  0999 V2000
   28.0322  -22.1814  -16.9614 N   0  0  0  0  0  0  0  0  0  0  0  0
   27.3669  -21.0366  -16.4035 C   0  0  1  0  0  0  0  0  0  0  0  0
   26.6669  -20.2312  -17.4753 C   0  0  0  0  0  0  0  0  0  0  0  0
   27.6794  -19.4916  -18.2404 C   0  0  0  0  0  0  0  0  0  0  0  0
   28.1275  -18.2055  -18.0477 C   0  0  0  0  0  0  0  0  0  0  0  0
   29.0637  -17.8944  -18.9620 N   0  0  0  0  0  0  0  0  0  0  0  0
   29.1996  -18.9838  -19.7235 C   0  0  0  0  0  0  0  0  0  0  0  0
   28.3737  -19.9587  -19.3053 N   0  0  0  0  0  0  0  0  0  0  0  0
   26.3054  -21.4407  -15.4212 C   0  0  0  0  0  0  0  0  0  0  0  0
   25.5479  -22.3932  -15.6988 O   0  0  0  0  0  0  0  0  0  0  0  0
   22.7317  -21.3127   -8.1325 N   0  0  0  0  0  0  0  0  0  0  0  0
   24.0944  -21.3220   -7.7466 C   0  0  0  0  0  0  0  0  0  0  0  0
   24.4805  -21.7623   -6.6081 N   0  0  0  0  0  0  0  0  0  0  0  0
   25.0770  -20.8251   -8.6524 N   0  0  0  0  0  0  0  0  0  0  0  0
   24.6949  -19.8502   -9.6499 C   0  0  0  0  0  0  0  0  0  0  0  0
   24.2973  -20.6385  -10.9060 C   0  0  0  0  0  0  0  0  0  0  0  0
   25.3724  -20.5189  -11.9402 C   0  0  0  0  0  0  0  0  0  0  0  0
   25.1009  -21.1689  -13.2557 C   0  0  2  0  0  0  0  0  0  0  0  0
   26.1557  -20.7687  -14.2077 N   0  0  0  0  0  0  0  0  0  0  0  0
   23.8159  -20.7664  -13.8100 C   0  0  0  0  0  0  0  0  0  0  0  0
   23.6692  -19.5951  -14.2454 O   0  0  0  0  0  0  0  0  0  0  0  0
   25.4696  -21.6658   -6.3220 N   0  0  0  0  0  0  0  0  0  0  0  0
   18.8730  -20.6875  -15.5884 C   0  0  0  0  0  0  0  0  0  0  0  0
   19.5783  -21.8633  -15.9762 O   0  0  0  0  0  0  0  0  0  0  0  0
   19.0180  -22.5922  -16.8332 C   0  0  0  0  0  0  0  0  0  0  0  0
   20.8950  -22.2292  -15.4187 C   0  0  1  0  0  0  0  0  0  0  0  0
   21.4306  -21.1880  -14.4404 N   0  0  0  0  0  0  0  0  0  0  0  0
   22.7094  -21.6495  -13.8922 C   0  0  0  0  0  0  0  0  0  0  0  0
   20.4854  -20.9667  -13.3474 O   0  0  0  0  0  0  0  0  0  0  0  0
   20.7163  -21.3389  -12.1567 O   0  0  0  0  0  0  0  0  0  0  0  0
  2  1  1  6
  2  3  1  0
  3  4  1  0
  4  8  1  0
  5  6  1  0
  5  4  2  0
  6  7  1  0
  7  8  2  0
  9  2  1  0
  9 10  2  0
 12 11  1  0
 13 12  2  0
 14 12  1  0
 15 14  1  0
 15 16  1  0
 17 16  1  0
 18 17  1  1
 18 19  1  0
 19  9  1  0
 20 18  1  0
 21 20  2  0
 23 24  2  0
 23 22  1  0
 26 25  1  6
 25 23  1  0
 26 27  1  0
 27 20  1  0
 28 26  1  0
 29 28  2  0
 30 28  1  0
M  END
$$$$
