HRN.pdb
     RDKit          3D

 30 30  0  0  1  0  0  0  0  0999 V2000
   22.5445  -22.1364  -14.0901 N   0  0  0  0  0  0  0  0  0  0  0  0
   22.2819  -20.9317  -13.3524 C   0  0  1  0  0  0  0  0  0  0  0  0
   21.6304  -21.2333  -12.0212 C   0  0  0  0  0  0  0  0  0  0  0  0
   20.3209  -21.8502  -12.2708 C   0  0  0  0  0  0  0  0  0  0  0  0
   19.9779  -23.1812  -12.2195 C   0  0  0  0  0  0  0  0  0  0  0  0
   18.6750  -23.3401  -12.5134 N   0  0  0  0  0  0  0  0  0  0  0  0
   18.2060  -22.1112  -12.7476 C   0  0  0  0  0  0  0  0  0  0  0  0
   19.1825  -21.1979  -12.6066 N   0  0  0  0  0  0  0  0  0  0  0  0
   23.5494  -20.1890  -13.0410 C   0  0  0  0  0  0  0  0  0  0  0  0
   23.5088  -19.2099  -12.2678 O   0  0  0  0  0  0  0  0  0  0  0  0
   31.1968  -22.9724  -10.7997 N   0  0  0  0  0  0  0  0  0  0  0  0
   30.5119  -22.1722   -9.8529 C   0  0  0  0  0  0  0  0  0  0  0  0
   30.9429  -22.0044   -8.6590 N   0  0  0  0  0  0  0  0  0  0  0  0
   29.2991  -21.5274  -10.2350 N   0  0  0  0  0  0  0  0  0  0  0  0
   28.8797  -21.5658  -11.6185 C   0  0  0  0  0  0  0  0  0  0  0  0
   27.5632  -20.7804  -11.7012 C   0  0  0  0  0  0  0  0  0  0  0  0
   27.1298  -20.6674  -13.1293 C   0  0  0  0  0  0  0  0  0  0  0  0
   25.9781  -19.7586  -13.4018 C   0  0  2  0  0  0  0  0  0  0  0  0
   24.7663  -20.5775  -13.6019 N   0  0  0  0  0  0  0  0  0  0  0  0
   26.1848  -18.9577  -14.6002 C   0  0  0  0  0  0  0  0  0  0  0  0
   25.9735  -19.4688  -15.7303 O   0  0  0  0  0  0  0  0  0  0  0  0
   30.4245  -21.3992   -7.9998 N   0  0  0  0  0  0  0  0  0  0  0  0
   27.1577  -15.0236  -17.9494 C   0  0  0  0  0  0  0  0  0  0  0  0
   27.2786  -14.5292  -16.6185 O   0  0  0  0  0  0  0  0  0  0  0  0
   27.5895  -13.3172  -16.5002 C   0  0  0  0  0  0  0  0  0  0  0  0
   27.0565  -15.3714  -15.4269 C   0  0  1  0  0  0  0  0  0  0  0  0
   26.7139  -16.8153  -15.7813 N   0  0  0  0  0  0  0  0  0  0  0  0
   26.6098  -17.6056  -14.5511 C   0  0  0  0  0  0  0  0  0  0  0  0
   27.7397  -17.3960  -16.6460 O   0  0  0  0  0  0  0  0  0  0  0  0
   28.9118  -17.6578  -16.2371 O   0  0  0  0  0  0  0  0  0  0  0  0
  2  1  1  1
  2  3  1  0
  3  4  1  0
  4  8  1  0
  5  6  1  0
  5  4  2  0
  6  7  1  0
  7  8  2  0
  9  2  1  0
  9 10  2  0
 12 11  1  0
 13 12  2  0
 14 12  1  0
 15 14  1  0
 15 16  1  0
 17 16  1  0
 18 17  1  6
 18 19  1  0
 19  9  1  0
 20 18  1  0
 21 20  2  0
 23 24  2  0
 23 22  1  0
 26 25  1  1
 25 23  1  0
 26 27  1  0
 27 20  1  0
 28 26  1  0
 29 28  2  0
 30 28  1  0
M  END
$$$$
