HRN.pdb
     RDKit          3D

 30 30  0  0  1  0  0  0  0  0999 V2000
   20.7803  -20.4516   -9.7139 N   0  0  0  0  0  0  0  0  0  0  0  0
   21.0027  -21.0148  -11.0170 C   0  0  1  0  0  0  0  0  0  0  0  0
   19.7014  -21.4334  -11.6642 C   0  0  0  0  0  0  0  0  0  0  0  0
   19.2479  -22.6819  -11.0374 C   0  0  0  0  0  0  0  0  0  0  0  0
   18.4033  -22.8433   -9.9638 C   0  0  0  0  0  0  0  0  0  0  0  0
   18.2345  -24.1501   -9.6938 N   0  0  0  0  0  0  0  0  0  0  0  0
   18.9720  -24.8028  -10.5967 C   0  0  0  0  0  0  0  0  0  0  0  0
   19.5914  -23.9359  -11.4167 N   0  0  0  0  0  0  0  0  0  0  0  0
   21.6335  -20.0190  -11.9473 C   0  0  0  0  0  0  0  0  0  0  0  0
   21.1313  -18.8813  -12.0549 O   0  0  0  0  0  0  0  0  0  0  0  0
   28.3512  -21.5443  -15.3997 N   0  0  0  0  0  0  0  0  0  0  0  0
   28.0549  -20.4828  -16.2892 C   0  0  0  0  0  0  0  0  0  0  0  0
   28.1403  -20.6107  -17.5602 N   0  0  0  0  0  0  0  0  0  0  0  0
   27.6465  -19.2242  -15.7583 N   0  0  0  0  0  0  0  0  0  0  0  0
   27.1835  -19.1470  -14.3904 C   0  0  0  0  0  0  0  0  0  0  0  0
   25.7114  -18.7151  -14.4479 C   0  0  0  0  0  0  0  0  0  0  0  0
   24.8762  -19.6534  -13.6342 C   0  0  0  0  0  0  0  0  0  0  0  0
   23.4206  -19.3373  -13.5459 C   0  0  2  0  0  0  0  0  0  0  0  0
   22.7684  -20.3473  -12.6894 N   0  0  0  0  0  0  0  0  0  0  0  0
   22.7742  -19.3663  -14.8504 C   0  0  0  0  0  0  0  0  0  0  0  0
   22.3188  -20.4530  -15.2915 O   0  0  0  0  0  0  0  0  0  0  0  0
   27.9680  -19.7985  -18.1769 N   0  0  0  0  0  0  0  0  0  0  0  0
   24.0745  -20.1329  -19.4733 C   0  0  0  0  0  0  0  0  0  0  0  0
   23.2424  -19.1710  -18.8312 O   0  0  0  0  0  0  0  0  0  0  0  0
   23.3000  -17.9975  -19.2775 C   0  0  0  0  0  0  0  0  0  0  0  0
   22.3524  -19.5065  -17.7025 C   0  0  2  0  0  0  0  0  0  0  0  0
   21.8968  -18.2752  -16.9251 N   0  0  0  0  0  0  0  0  0  0  0  0
   22.6233  -18.2074  -15.6538 C   0  0  0  0  0  0  0  0  0  0  0  0
   20.4599  -18.3293  -16.6608 O   0  0  0  0  0  0  0  0  0  0  0  0
   19.6731  -17.3793  -16.9572 O   0  0  0  0  0  0  0  0  0  0  0  0
  2  1  1  1
  2  3  1  0
  3  4  1  0
  4  8  1  0
  5  6  1  0
  5  4  2  0
  6  7  1  0
  7  8  2  0
  9  2  1  0
  9 10  2  0
 12 11  1  0
 13 12  2  0
 14 12  1  0
 15 14  1  0
 15 16  1  0
 17 16  1  0
 18 17  1  6
 18 19  1  0
 19  9  1  0
 20 18  1  0
 21 20  2  0
 23 24  2  0
 23 22  1  0
 26 25  1  6
 25 23  1  0
 26 27  1  0
 27 20  1  0
 28 26  1  0
 29 28  2  0
 30 28  1  0
M  END
$$$$
