HRN.pdb
     RDKit          3D

 30 30  0  0  1  0  0  0  0  0999 V2000
   24.0732  -19.5770  -19.2961 N   0  0  0  0  0  0  0  0  0  0  0  0
   24.6817  -18.9882  -18.1352 C   0  0  1  0  0  0  0  0  0  0  0  0
   23.8092  -17.9007  -17.5491 C   0  0  0  0  0  0  0  0  0  0  0  0
   23.8681  -16.7278  -18.4314 C   0  0  0  0  0  0  0  0  0  0  0  0
   24.8824  -15.8087  -18.5671 C   0  0  0  0  0  0  0  0  0  0  0  0
   24.5524  -14.8797  -19.4820 N   0  0  0  0  0  0  0  0  0  0  0  0
   23.3350  -15.2180  -19.9163 C   0  0  0  0  0  0  0  0  0  0  0  0
   22.9040  -16.3299  -19.2953 N   0  0  0  0  0  0  0  0  0  0  0  0
   24.8807  -20.0007  -17.0441 C   0  0  0  0  0  0  0  0  0  0  0  0
   23.9262  -20.7314  -16.7082 O   0  0  0  0  0  0  0  0  0  0  0  0
   29.1996  -25.8210  -16.1033 N   0  0  0  0  0  0  0  0  0  0  0  0
   29.4986  -25.2893  -17.3815 C   0  0  0  0  0  0  0  0  0  0  0  0
   29.4998  -26.0101  -18.4395 N   0  0  0  0  0  0  0  0  0  0  0  0
   29.8103  -23.9033  -17.5024 N   0  0  0  0  0  0  0  0  0  0  0  0
   29.5461  -23.0164  -16.3912 C   0  0  0  0  0  0  0  0  0  0  0  0
   28.0481  -22.6835  -16.4403 C   0  0  0  0  0  0  0  0  0  0  0  0
   27.7293  -21.6327  -15.4235 C   0  0  0  0  0  0  0  0  0  0  0  0
   26.3114  -21.1706  -15.3712 C   0  0  2  0  0  0  0  0  0  0  0  0
   26.1132  -20.1347  -16.4041 N   0  0  0  0  0  0  0  0  0  0  0  0
   25.9722  -20.5906  -14.0793 C   0  0  0  0  0  0  0  0  0  0  0  0
   26.4074  -19.4487  -13.7800 O   0  0  0  0  0  0  0  0  0  0  0  0
   29.7461  -25.5919  -19.3528 N   0  0  0  0  0  0  0  0  0  0  0  0
   24.1582  -19.9397   -9.1665 C   0  0  0  0  0  0  0  0  0  0  0  0
   23.1516  -20.3944  -10.0666 O   0  0  0  0  0  0  0  0  0  0  0  0
   21.9796  -20.4407   -9.6150 C   0  0  0  0  0  0  0  0  0  0  0  0
   23.4411  -20.7951  -11.4574 C   0  0  1  0  0  0  0  0  0  0  0  0
   24.9208  -20.6746  -11.8095 N   0  0  0  0  0  0  0  0  0  0  0  0
   25.1539  -21.2591  -13.1334 C   0  0  0  0  0  0  0  0  0  0  0  0
   25.7482  -21.3650  -10.8215 O   0  0  0  0  0  0  0  0  0  0  0  0
   25.9818  -20.8868   -9.6698 O   0  0  0  0  0  0  0  0  0  0  0  0
  2  1  1  6
  2  3  1  0
  3  4  1  0
  4  8  1  0
  5  6  1  0
  5  4  2  0
  6  7  1  0
  7  8  2  0
  9  2  1  0
  9 10  2  0
 12 11  1  0
 13 12  2  0
 14 12  1  0
 15 14  1  0
 15 16  1  0
 17 16  1  0
 18 17  1  1
 18 19  1  0
 19  9  1  0
 20 18  1  0
 21 20  2  0
 23 24  2  0
 23 22  1  0
 26 25  1  6
 25 23  1  0
 26 27  1  0
 27 20  1  0
 28 26  1  0
 29 28  2  0
 30 28  1  0
M  END
$$$$
