HRN.pdb
     RDKit          3D

 30 30  0  0  1  0  0  0  0  0999 V2000
   26.8545  -18.6960  -18.2601 N   0  0  0  0  0  0  0  0  0  0  0  0
   26.0509  -18.0046  -17.2902 C   0  0  1  0  0  0  0  0  0  0  0  0
   24.9858  -17.1637  -17.9580 C   0  0  0  0  0  0  0  0  0  0  0  0
   25.6440  -16.0927  -18.7179 C   0  0  0  0  0  0  0  0  0  0  0  0
   25.7526  -15.9531  -20.0819 C   0  0  0  0  0  0  0  0  0  0  0  0
   26.4324  -14.8327  -20.3847 N   0  0  0  0  0  0  0  0  0  0  0  0
   26.7474  -14.2744  -19.2125 C   0  0  0  0  0  0  0  0  0  0  0  0
   26.2812  -15.0184  -18.1943 N   0  0  0  0  0  0  0  0  0  0  0  0
   25.3260  -18.9639  -16.3907 C   0  0  0  0  0  0  0  0  0  0  0  0
   24.7262  -19.9366  -16.8928 O   0  0  0  0  0  0  0  0  0  0  0  0
   30.0315  -21.6321  -12.5547 N   0  0  0  0  0  0  0  0  0  0  0  0
   29.5428  -21.3218  -13.8473 C   0  0  0  0  0  0  0  0  0  0  0  0
   29.8119  -22.0408  -14.8718 N   0  0  0  0  0  0  0  0  0  0  0  0
   28.7214  -20.1695  -14.0219 N   0  0  0  0  0  0  0  0  0  0  0  0
   27.9290  -19.6875  -12.9124 C   0  0  0  0  0  0  0  0  0  0  0  0
   26.7145  -20.6200  -12.8011 C   0  0  0  0  0  0  0  0  0  0  0  0
   25.4533  -19.8149  -12.8316 C   0  0  0  0  0  0  0  0  0  0  0  0
   24.7087  -19.7996  -14.1247 C   0  0  2  0  0  0  0  0  0  0  0  0
   25.3145  -18.7831  -15.0073 N   0  0  0  0  0  0  0  0  0  0  0  0
   23.3042  -19.4607  -13.9433 C   0  0  0  0  0  0  0  0  0  0  0  0
   22.9377  -18.2620  -14.0516 O   0  0  0  0  0  0  0  0  0  0  0  0
   29.4690  -21.7619  -15.8068 N   0  0  0  0  0  0  0  0  0  0  0  0
   18.4016  -18.1583  -14.0006 C   0  0  0  0  0  0  0  0  0  0  0  0
   19.0392  -19.0586  -14.9024 O   0  0  0  0  0  0  0  0  0  0  0  0
   18.3005  -19.6050  -15.7599 C   0  0  0  0  0  0  0  0  0  0  0  0
   20.4851  -19.3515  -14.8548 C   0  0  1  0  0  0  0  0  0  0  0  0
   20.9019  -20.0538  -13.5661 N   0  0  0  0  0  0  0  0  0  0  0  0
   22.3145  -20.4349  -13.6560 C   0  0  0  0  0  0  0  0  0  0  0  0
   20.0903  -21.2483  -13.3388 O   0  0  0  0  0  0  0  0  0  0  0  0
   20.3859  -22.3803  -13.8295 O   0  0  0  0  0  0  0  0  0  0  0  0
  2  1  1  6
  2  3  1  0
  3  4  1  0
  4  8  1  0
  5  6  1  0
  5  4  2  0
  6  7  1  0
  7  8  2  0
  9  2  1  0
  9 10  2  0
 12 11  1  0
 13 12  2  0
 14 12  1  0
 15 14  1  0
 15 16  1  0
 17 16  1  0
 18 17  1  1
 18 19  1  0
 19  9  1  0
 20 18  1  0
 21 20  2  0
 23 24  2  0
 23 22  1  0
 26 25  1  1
 25 23  1  0
 26 27  1  0
 27 20  1  0
 28 26  1  0
 29 28  2  0
 30 28  1  0
M  END
$$$$
