RDA.pdb
     RDKit          3D

 25 24  0  0  1  0  0  0  0  0999 V2000
    7.7691  -12.3627   21.1754 N   0  0  0  0  0  0  0  0  0  0  0  0
    8.0808  -12.6260   19.8162 C   0  0  0  0  0  0  0  0  0  0  0  0
    8.8239  -11.7551   19.1784 N   0  0  0  0  0  0  0  0  0  0  0  0
    7.6022  -13.7939   19.1630 N   0  0  0  0  0  0  0  0  0  0  0  0
    7.1367  -14.9371   19.9206 C   0  0  0  0  0  0  0  0  0  0  0  0
    7.9275  -16.1762   19.6303 C   0  0  0  0  0  0  0  0  0  0  0  0
    8.9049  -16.4484   20.7239 C   0  0  0  0  0  0  0  0  0  0  0  0
    9.6802  -17.6971   20.4859 C   0  0  2  0  0  0  0  0  0  0  0  0
    8.7588  -18.8137   20.4710 N   0  0  0  0  0  0  0  0  0  0  0  0
   10.6617  -17.9480   21.5936 C   0  0  0  0  0  0  0  0  0  0  0  0
   10.3912  -18.7789   22.4917 O   0  0  0  0  0  0  0  0  0  0  0  0
    9.0227  -11.8605   18.1602 N   0  0  0  0  0  0  0  0  0  0  0  0
   11.9015  -17.2693   21.6637 C   0  0  2  0  0  0  0  0  0  0  0  0
   12.8538  -17.4320   22.7330 C   0  0  0  0  0  0  0  0  0  0  0  0
   14.0044  -16.4561   22.4783 C   0  0  0  0  0  0  0  0  0  0  0  0
   15.0897  -16.7171   23.4544 O   0  0  0  0  0  0  0  0  0  0  0  0
   14.9198  -17.6324   24.3048 C   0  0  0  0  0  0  0  0  0  0  0  0
   12.2112  -17.1559   24.0326 O   0  0  0  0  0  0  0  0  0  0  0  0
   11.9425  -15.9630   24.4073 O   0  0  0  0  0  0  0  0  0  0  0  0
   16.2909  -16.0120   23.4935 C   0  0  0  0  0  0  0  0  0  0  0  0
    9.8591  -18.3658   26.3103 C   0  0  2  0  0  0  0  0  0  0  0  0
   11.2970  -17.8516   26.2465 N   0  0  0  0  0  0  0  0  0  0  0  0
   11.8543  -18.1879   24.9393 C   0  0  0  0  0  0  0  0  0  0  0  0
   12.0683  -18.5687   27.2858 O   0  0  0  0  0  0  0  0  0  0  0  0
   11.8492  -18.3588   28.6463 O   0  0  0  0  0  0  0  0  0  0  0  0
  2  3  2  0
  2  1  1  0
  4  2  1  0
  5  4  1  0
  6  5  1  0
  7  6  1  0
  8  7  1  0
  8 10  1  0
  8  9  1  1
 10 12  1  0
 11 10  2  0
 12 13  1  0
 13 14  1  6
 14 15  1  0
 15 19  1  0
 16 15  2  0
 17 13  1  0
 17 18  2  0
 21 20  1  6
 21 22  1  0
 21 23  1  0
 22 17  1  0
 23 25  2  0
 23 24  1  0
M  END
$$$$
