RDA.pdb
     RDKit          3D

 25 24  0  0  1  0  0  0  0  0999 V2000
   14.8331  -12.3460   12.6540 N   0  0  0  0  0  0  0  0  0  0  0  0
   14.0769  -13.1308   11.7452 C   0  0  0  0  0  0  0  0  0  0  0  0
   13.6796  -12.5659   10.6314 N   0  0  0  0  0  0  0  0  0  0  0  0
   13.7560  -14.4855   12.0310 N   0  0  0  0  0  0  0  0  0  0  0  0
   14.0846  -15.0781   13.3110 C   0  0  0  0  0  0  0  0  0  0  0  0
   13.4260  -14.3697   14.4553 C   0  0  0  0  0  0  0  0  0  0  0  0
   13.7335  -15.0504   15.7466 C   0  0  0  0  0  0  0  0  0  0  0  0
   13.0816  -14.3786   16.9045 C   0  0  2  0  0  0  0  0  0  0  0  0
   13.4753  -12.9853   16.9080 N   0  0  0  0  0  0  0  0  0  0  0  0
   13.5391  -14.9710   18.2057 C   0  0  0  0  0  0  0  0  0  0  0  0
   13.4137  -16.2008   18.4107 O   0  0  0  0  0  0  0  0  0  0  0  0
   13.0259  -13.0554    9.9830 N   0  0  0  0  0  0  0  0  0  0  0  0
   14.1157  -14.1794   19.2273 C   0  0  1  0  0  0  0  0  0  0  0  0
   14.7567  -14.7151   20.4015 C   0  0  0  0  0  0  0  0  0  0  0  0
   15.8862  -13.7577   20.7876 C   0  0  0  0  0  0  0  0  0  0  0  0
   17.0921  -14.0789   19.9868 O   0  0  0  0  0  0  0  0  0  0  0  0
   17.1753  -15.2245   19.4669 C   0  0  0  0  0  0  0  0  0  0  0  0
   13.7801  -14.8425   21.5006 O   0  0  0  0  0  0  0  0  0  0  0  0
   12.7155  -14.1347   21.5365 O   0  0  0  0  0  0  0  0  0  0  0  0
   18.1453  -13.1923   19.7715 C   0  0  0  0  0  0  0  0  0  0  0  0
   11.6123  -16.1481   23.0500 C   0  0  2  0  0  0  0  0  0  0  0  0
   12.9755  -15.8113   23.6536 N   0  0  0  0  0  0  0  0  0  0  0  0
   13.9597  -15.7507   22.5764 C   0  0  0  0  0  0  0  0  0  0  0  0
   13.3410  -16.9194   24.5635 O   0  0  0  0  0  0  0  0  0  0  0  0
   14.4450  -17.7368   24.3274 O   0  0  0  0  0  0  0  0  0  0  0  0
  2  3  2  0
  2  1  1  0
  4  2  1  0
  5  4  1  0
  6  5  1  0
  7  6  1  0
  8  7  1  0
  8 10  1  0
  8  9  1  1
 10 12  1  0
 11 10  2  0
 12 13  1  0
 13 14  1  6
 14 15  1  0
 15 19  1  0
 16 15  2  0
 17 13  1  0
 17 18  2  0
 21 20  1  6
 21 22  1  0
 21 23  1  0
 22 17  1  0
 23 25  2  0
 23 24  1  0
M  END
$$$$
