RDA.pdb
     RDKit          3D

 25 24  0  0  1  0  0  0  0  0999 V2000
   10.3891  -13.2939   20.0807 N   0  0  0  0  0  0  0  0  0  0  0  0
    9.2726  -13.0884   19.2292 C   0  0  0  0  0  0  0  0  0  0  0  0
    9.0935  -11.8889   18.7327 N   0  0  0  0  0  0  0  0  0  0  0  0
    8.3735  -14.1460   18.9242 N   0  0  0  0  0  0  0  0  0  0  0  0
    7.8326  -14.9922   19.9676 C   0  0  0  0  0  0  0  0  0  0  0  0
    7.2361  -14.2027   21.0927 C   0  0  0  0  0  0  0  0  0  0  0  0
    6.6765  -15.1093   22.1369 C   0  0  0  0  0  0  0  0  0  0  0  0
    7.3145  -16.4544   22.1130 C   0  0  2  0  0  0  0  0  0  0  0  0
    6.2934  -17.4419   21.8334 N   0  0  0  0  0  0  0  0  0  0  0  0
    7.9093  -16.7985   23.4476 C   0  0  0  0  0  0  0  0  0  0  0  0
    7.1800  -16.8352   24.4659 O   0  0  0  0  0  0  0  0  0  0  0  0
    8.3486  -11.7043   18.0267 N   0  0  0  0  0  0  0  0  0  0  0  0
    9.2862  -17.0871   23.6019 C   0  0  2  0  0  0  0  0  0  0  0  0
    9.9176  -17.3662   24.8669 C   0  0  0  0  0  0  0  0  0  0  0  0
   11.2939  -17.9666   24.5727 C   0  0  0  0  0  0  0  0  0  0  0  0
   11.8625  -18.5187   25.8259 O   0  0  0  0  0  0  0  0  0  0  0  0
   11.1510  -18.4917   26.8665 C   0  0  0  0  0  0  0  0  0  0  0  0
   10.0455  -16.1256   25.6560 O   0  0  0  0  0  0  0  0  0  0  0  0
   10.8942  -15.2199   25.3479 O   0  0  0  0  0  0  0  0  0  0  0  0
   13.1393  -19.0672   25.9288 C   0  0  0  0  0  0  0  0  0  0  0  0
    8.0488  -14.0382   27.8639 C   0  0  1  0  0  0  0  0  0  0  0  0
    9.4245  -14.6253   27.5493 N   0  0  0  0  0  0  0  0  0  0  0  0
    9.2415  -15.8627   26.7957 C   0  0  0  0  0  0  0  0  0  0  0  0
   10.0706  -14.9512   28.8399 O   0  0  0  0  0  0  0  0  0  0  0  0
   10.3931  -16.2596   29.1960 O   0  0  0  0  0  0  0  0  0  0  0  0
  2  3  2  0
  2  1  1  0
  4  2  1  0
  5  4  1  0
  6  5  1  0
  7  6  1  0
  8  7  1  0
  8 10  1  0
  8  9  1  1
 10 12  1  0
 11 10  2  0
 12 13  1  0
 13 14  1  6
 14 15  1  0
 15 19  1  0
 16 15  2  0
 17 13  1  0
 17 18  2  0
 21 20  1  6
 21 22  1  0
 21 23  1  0
 22 17  1  0
 23 25  2  0
 23 24  1  0
M  END
$$$$
