RDA.pdb
     RDKit          3D

 25 24  0  0  1  0  0  0  0  0999 V2000
    7.8349  -12.1335   20.6947 N   0  0  0  0  0  0  0  0  0  0  0  0
    8.1674  -13.1668   19.7806 C   0  0  0  0  0  0  0  0  0  0  0  0
    8.8139  -12.8351   18.6900 N   0  0  0  0  0  0  0  0  0  0  0  0
    7.8103  -14.5188   20.0345 N   0  0  0  0  0  0  0  0  0  0  0  0
    7.0505  -14.8833   21.2124 C   0  0  0  0  0  0  0  0  0  0  0  0
    7.7503  -14.5083   22.4831 C   0  0  0  0  0  0  0  0  0  0  0  0
    7.6913  -15.6261   23.4693 C   0  0  0  0  0  0  0  0  0  0  0  0
    8.5521  -16.7734   23.0696 C   0  0  2  0  0  0  0  0  0  0  0  0
    7.7391  -17.9712   23.0471 N   0  0  0  0  0  0  0  0  0  0  0  0
    9.6507  -17.0028   24.0666 C   0  0  0  0  0  0  0  0  0  0  0  0
    9.5120  -17.8698   24.9606 O   0  0  0  0  0  0  0  0  0  0  0  0
    9.0648  -13.5508   17.9744 N   0  0  0  0  0  0  0  0  0  0  0  0
   10.8572  -16.2638   24.0349 C   0  0  2  0  0  0  0  0  0  0  0  0
   11.9517  -16.4619   24.9510 C   0  0  0  0  0  0  0  0  0  0  0  0
   13.2089  -15.8813   24.3000 C   0  0  0  0  0  0  0  0  0  0  0  0
   13.5706  -16.7035   23.1203 O   0  0  0  0  0  0  0  0  0  0  0  0
   13.3938  -17.9502   23.1851 C   0  0  0  0  0  0  0  0  0  0  0  0
   11.6688  -15.7898   26.2341 O   0  0  0  0  0  0  0  0  0  0  0  0
   12.5059  -15.8112   27.2007 O   0  0  0  0  0  0  0  0  0  0  0  0
   14.0971  -16.1850   21.9390 C   0  0  0  0  0  0  0  0  0  0  0  0
    9.0265  -13.5232   27.6560 C   0  0  2  0  0  0  0  0  0  0  0  0
   10.2158  -14.4755   27.7778 N   0  0  0  0  0  0  0  0  0  0  0  0
   10.4609  -15.0838   26.4730 C   0  0  0  0  0  0  0  0  0  0  0  0
    9.8318  -15.5414   28.7296 O   0  0  0  0  0  0  0  0  0  0  0  0
    9.6277  -16.8585   28.3220 O   0  0  0  0  0  0  0  0  0  0  0  0
  2  3  2  0
  2  1  1  0
  4  2  1  0
  5  4  1  0
  6  5  1  0
  7  6  1  0
  8  7  1  0
  8 10  1  0
  8  9  1  1
 10 12  1  0
 11 10  2  0
 12 13  1  0
 13 14  1  6
 14 15  1  0
 15 19  1  0
 16 15  2  0
 17 13  1  0
 17 18  2  0
 21 20  1  6
 21 22  1  0
 21 23  1  0
 22 17  1  0
 23 25  2  0
 23 24  1  0
M  END
$$$$
