RDA.pdb
     RDKit          3D

 25 24  0  0  1  0  0  0  0  0999 V2000
    9.1101  -13.3447   17.7550 N   0  0  0  0  0  0  0  0  0  0  0  0
    8.0406  -13.6041   18.6509 C   0  0  0  0  0  0  0  0  0  0  0  0
    7.7139  -12.6637   19.5032 N   0  0  0  0  0  0  0  0  0  0  0  0
    7.3453  -14.8434   18.6298 N   0  0  0  0  0  0  0  0  0  0  0  0
    6.4136  -15.1964   19.6809 C   0  0  0  0  0  0  0  0  0  0  0  0
    6.8017  -14.6176   21.0074 C   0  0  0  0  0  0  0  0  0  0  0  0
    7.2160  -15.6940   21.9536 C   0  0  0  0  0  0  0  0  0  0  0  0
    7.6160  -15.1510   23.2811 C   0  0  2  0  0  0  0  0  0  0  0  0
    8.1201  -13.8067   23.0942 N   0  0  0  0  0  0  0  0  0  0  0  0
    8.7258  -15.9595   23.8879 C   0  0  0  0  0  0  0  0  0  0  0  0
    8.4860  -17.0960   24.3579 O   0  0  0  0  0  0  0  0  0  0  0  0
    6.9210  -12.7919   20.1683 N   0  0  0  0  0  0  0  0  0  0  0  0
   10.0551  -15.4779   23.9511 C   0  0  2  0  0  0  0  0  0  0  0  0
   11.1646  -16.2316   24.4779 C   0  0  0  0  0  0  0  0  0  0  0  0
   12.4088  -15.8411   23.6775 C   0  0  0  0  0  0  0  0  0  0  0  0
   13.5603  -16.6525   24.1404 O   0  0  0  0  0  0  0  0  0  0  0  0
   13.4065  -17.8993   24.2486 C   0  0  0  0  0  0  0  0  0  0  0  0
   11.3485  -15.9311   25.9111 O   0  0  0  0  0  0  0  0  0  0  0  0
   12.3593  -16.3662   26.5626 O   0  0  0  0  0  0  0  0  0  0  0  0
   14.8075  -16.1235   24.4664 C   0  0  0  0  0  0  0  0  0  0  0  0
    9.7060  -13.7868   28.5268 C   0  0  2  0  0  0  0  0  0  0  0  0
   10.6415  -14.9069   28.0727 N   0  0  0  0  0  0  0  0  0  0  0  0
   10.4235  -15.1472   26.6489 C   0  0  0  0  0  0  0  0  0  0  0  0
   10.2636  -16.1272   28.8194 O   0  0  0  0  0  0  0  0  0  0  0  0
   10.5136  -16.2667   30.1835 O   0  0  0  0  0  0  0  0  0  0  0  0
  2  3  2  0
  2  1  1  0
  4  2  1  0
  5  4  1  0
  6  5  1  0
  7  6  1  0
  8  7  1  0
  8 10  1  0
  8  9  1  6
 10 12  1  0
 11 10  2  0
 12 13  1  0
 13 14  1  6
 14 15  1  0
 15 19  1  0
 16 15  2  0
 17 13  1  0
 17 18  2  0
 21 20  1  6
 21 22  1  0
 21 23  1  0
 22 17  1  0
 23 25  2  0
 23 24  1  0
M  END
$$$$
