RDA.pdb
     RDKit          3D

 25 24  0  0  1  0  0  0  0  0999 V2000
    8.6838  -14.3481   17.7050 N   0  0  0  0  0  0  0  0  0  0  0  0
    8.0901  -13.3072   18.4652 C   0  0  0  0  0  0  0  0  0  0  0  0
    8.3059  -12.0717   18.0853 N   0  0  0  0  0  0  0  0  0  0  0  0
    7.2888  -13.5910   19.6042 N   0  0  0  0  0  0  0  0  0  0  0  0
    7.8848  -14.0438   20.8440 C   0  0  0  0  0  0  0  0  0  0  0  0
    6.8601  -14.3435   21.8953 C   0  0  0  0  0  0  0  0  0  0  0  0
    7.5051  -14.9033   23.1185 C   0  0  0  0  0  0  0  0  0  0  0  0
    8.1871  -16.1994   22.8502 C   0  0  2  0  0  0  0  0  0  0  0  0
    7.1775  -17.2241   22.6868 N   0  0  0  0  0  0  0  0  0  0  0  0
    9.0508  -16.6097   24.0074 C   0  0  0  0  0  0  0  0  0  0  0  0
    8.5227  -17.0311   25.0627 O   0  0  0  0  0  0  0  0  0  0  0  0
    7.8823  -11.2689   18.5987 N   0  0  0  0  0  0  0  0  0  0  0  0
   10.4630  -16.5364   23.9509 C   0  0  2  0  0  0  0  0  0  0  0  0
   11.3368  -16.9161   25.0320 C   0  0  0  0  0  0  0  0  0  0  0  0
   12.7597  -16.9826   24.4732 C   0  0  0  0  0  0  0  0  0  0  0  0
   12.8731  -18.1507   23.5670 O   0  0  0  0  0  0  0  0  0  0  0  0
   12.0901  -19.1226   23.7456 C   0  0  0  0  0  0  0  0  0  0  0  0
   11.2499  -15.9298   26.1265 O   0  0  0  0  0  0  0  0  0  0  0  0
   11.5380  -14.6975   25.9425 O   0  0  0  0  0  0  0  0  0  0  0  0
   13.7945  -18.2447   22.5260 C   0  0  0  0  0  0  0  0  0  0  0  0
    9.6609  -14.2859   28.1449 C   0  0  2  0  0  0  0  0  0  0  0  0
   10.7827  -15.2667   28.4851 N   0  0  0  0  0  0  0  0  0  0  0  0
   10.8445  -16.2843   27.4396 C   0  0  0  0  0  0  0  0  0  0  0  0
   10.4223  -15.9236   29.7610 O   0  0  0  0  0  0  0  0  0  0  0  0
   10.4289  -15.2372   30.9741 O   0  0  0  0  0  0  0  0  0  0  0  0
  2  3  2  0
  2  1  1  0
  4  2  1  0
  5  4  1  0
  6  5  1  0
  7  6  1  0
  8  7  1  0
  8 10  1  0
  8  9  1  1
 10 12  1  0
 11 10  2  0
 12 13  1  0
 13 14  1  6
 14 15  1  0
 15 19  1  0
 16 15  2  0
 17 13  1  0
 17 18  2  0
 21 20  1  6
 21 22  1  0
 21 23  1  0
 22 17  1  0
 23 25  2  0
 23 24  1  0
M  END
$$$$
