RDA.pdb
     RDKit          3D

 25 24  0  0  1  0  0  0  0  0999 V2000
    9.2445  -11.6111   19.5559 N   0  0  0  0  0  0  0  0  0  0  0  0
    8.9189  -12.8336   18.9131 C   0  0  0  0  0  0  0  0  0  0  0  0
    9.8171  -13.3683   18.1227 N   0  0  0  0  0  0  0  0  0  0  0  0
    7.6593  -13.4601   19.1151 N   0  0  0  0  0  0  0  0  0  0  0  0
    7.5138  -14.5670   20.0376 C   0  0  0  0  0  0  0  0  0  0  0  0
    6.9727  -14.1366   21.3669 C   0  0  0  0  0  0  0  0  0  0  0  0
    6.7663  -15.3133   22.2603 C   0  0  0  0  0  0  0  0  0  0  0  0
    7.8813  -16.2951   22.1621 C   0  0  2  0  0  0  0  0  0  0  0  0
    7.3967  -17.4728   21.4733 N   0  0  0  0  0  0  0  0  0  0  0  0
    8.3404  -16.7353   23.5218 C   0  0  0  0  0  0  0  0  0  0  0  0
    7.5015  -16.9268   24.4328 O   0  0  0  0  0  0  0  0  0  0  0  0
    9.6411  -14.2789   17.6462 N   0  0  0  0  0  0  0  0  0  0  0  0
    9.7080  -16.9447   23.8191 C   0  0  2  0  0  0  0  0  0  0  0  0
   10.1978  -17.4046   25.0940 C   0  0  0  0  0  0  0  0  0  0  0  0
   11.4445  -18.2519   24.8307 C   0  0  0  0  0  0  0  0  0  0  0  0
   12.0046  -18.7096   26.1250 O   0  0  0  0  0  0  0  0  0  0  0  0
   11.2038  -19.1024   27.0162 C   0  0  0  0  0  0  0  0  0  0  0  0
   10.5203  -16.2539   25.9600 O   0  0  0  0  0  0  0  0  0  0  0  0
   11.4033  -15.3910   25.6265 O   0  0  0  0  0  0  0  0  0  0  0  0
   13.3658  -18.7330   26.4221 C   0  0  0  0  0  0  0  0  0  0  0  0
    9.1843  -13.9158   28.1659 C   0  0  2  0  0  0  0  0  0  0  0  0
   10.3120  -14.9432   28.0718 N   0  0  0  0  0  0  0  0  0  0  0  0
    9.8761  -16.0351   27.2056 C   0  0  0  0  0  0  0  0  0  0  0  0
   10.5332  -15.4811   29.4324 O   0  0  0  0  0  0  0  0  0  0  0  0
   11.0423  -14.6951   30.4647 O   0  0  0  0  0  0  0  0  0  0  0  0
  2  3  2  0
  2  1  1  0
  4  2  1  0
  5  4  1  0
  6  5  1  0
  7  6  1  0
  8  7  1  0
  8 10  1  0
  8  9  1  6
 10 12  1  0
 11 10  2  0
 12 13  1  0
 13 14  1  6
 14 15  1  0
 15 19  1  0
 16 15  2  0
 17 13  1  0
 17 18  2  0
 21 20  1  6
 21 22  1  0
 21 23  1  0
 22 17  1  0
 23 25  2  0
 23 24  1  0
M  END
$$$$
