RDA.pdb
     RDKit          3D

 25 24  0  0  1  0  0  0  0  0999 V2000
    8.0815  -11.8634   19.0390 N   0  0  0  0  0  0  0  0  0  0  0  0
    8.5225  -13.1343   18.5873 C   0  0  0  0  0  0  0  0  0  0  0  0
    8.8294  -13.2611   17.3195 N   0  0  0  0  0  0  0  0  0  0  0  0
    8.6268  -14.2376   19.4770 N   0  0  0  0  0  0  0  0  0  0  0  0
    7.4554  -14.9897   19.8766 C   0  0  0  0  0  0  0  0  0  0  0  0
    6.7427  -14.3646   21.0370 C   0  0  0  0  0  0  0  0  0  0  0  0
    7.3268  -14.8286   22.3289 C   0  0  0  0  0  0  0  0  0  0  0  0
    7.9068  -16.1959   22.2238 C   0  0  2  0  0  0  0  0  0  0  0  0
    6.8293  -17.1351   21.9932 N   0  0  0  0  0  0  0  0  0  0  0  0
    8.5809  -16.6010   23.5024 C   0  0  0  0  0  0  0  0  0  0  0  0
    7.8953  -16.8198   24.5281 O   0  0  0  0  0  0  0  0  0  0  0  0
    9.1186  -14.1821   16.9252 N   0  0  0  0  0  0  0  0  0  0  0  0
    9.9856  -16.7468   23.5949 C   0  0  2  0  0  0  0  0  0  0  0  0
   10.6832  -17.1147   24.8009 C   0  0  0  0  0  0  0  0  0  0  0  0
   12.0351  -17.7024   24.3907 C   0  0  0  0  0  0  0  0  0  0  0  0
   11.8199  -19.0298   23.7661 O   0  0  0  0  0  0  0  0  0  0  0  0
   10.9407  -19.7863   24.2605 C   0  0  0  0  0  0  0  0  0  0  0  0
   10.8670  -15.9311   25.6632 O   0  0  0  0  0  0  0  0  0  0  0  0
   11.7963  -15.0802   25.4442 O   0  0  0  0  0  0  0  0  0  0  0  0
   12.5310  -19.4983   22.6632 C   0  0  0  0  0  0  0  0  0  0  0  0
    9.0536  -13.6856   27.7873 C   0  0  2  0  0  0  0  0  0  0  0  0
   10.3189  -14.5328   27.6546 N   0  0  0  0  0  0  0  0  0  0  0  0
   10.0311  -15.6656   26.7791 C   0  0  0  0  0  0  0  0  0  0  0  0
   10.6466  -15.0501   29.0016 O   0  0  0  0  0  0  0  0  0  0  0  0
   10.6072  -16.4108   29.3011 O   0  0  0  0  0  0  0  0  0  0  0  0
  2  3  2  0
  2  1  1  0
  4  2  1  0
  5  4  1  0
  6  5  1  0
  7  6  1  0
  8  7  1  0
  8 10  1  0
  8  9  1  1
 10 12  1  0
 11 10  2  0
 12 13  1  0
 13 14  1  1
 14 15  1  0
 15 19  1  0
 16 15  2  0
 17 13  1  0
 17 18  2  0
 21 20  1  6
 21 22  1  0
 21 23  1  0
 22 17  1  0
 23 25  2  0
 23 24  1  0
M  END
$$$$
