RDA.pdb
     RDKit          3D

 25 24  0  0  1  0  0  0  0  0999 V2000
    7.4149  -12.2012   17.9052 N   0  0  0  0  0  0  0  0  0  0  0  0
    8.4570  -13.1602   17.8140 C   0  0  0  0  0  0  0  0  0  0  0  0
    8.5613  -13.8476   16.7032 N   0  0  0  0  0  0  0  0  0  0  0  0
    9.3590  -13.3734   18.8914 N   0  0  0  0  0  0  0  0  0  0  0  0
    8.9174  -13.9881   20.1262 C   0  0  0  0  0  0  0  0  0  0  0  0
    7.4344  -13.8892   20.3160 C   0  0  0  0  0  0  0  0  0  0  0  0
    7.0296  -14.4670   21.6305 C   0  0  0  0  0  0  0  0  0  0  0  0
    7.2532  -15.9378   21.6898 C   0  0  2  0  0  0  0  0  0  0  0  0
    6.0018  -16.6045   21.3967 N   0  0  0  0  0  0  0  0  0  0  0  0
    7.6731  -16.3695   23.0648 C   0  0  0  0  0  0  0  0  0  0  0  0
    6.8938  -16.2141   24.0337 O   0  0  0  0  0  0  0  0  0  0  0  0
    9.3320  -14.5367   16.5670 N   0  0  0  0  0  0  0  0  0  0  0  0
    8.9377  -16.9544   23.3126 C   0  0  2  0  0  0  0  0  0  0  0  0
    9.4308  -17.2904   24.6243 C   0  0  0  0  0  0  0  0  0  0  0  0
   10.5668  -18.2997   24.4453 C   0  0  0  0  0  0  0  0  0  0  0  0
   10.9590  -18.8322   25.7724 O   0  0  0  0  0  0  0  0  0  0  0  0
   10.3048  -18.4570   26.7829 C   0  0  0  0  0  0  0  0  0  0  0  0
    9.9124  -16.0771   25.3128 O   0  0  0  0  0  0  0  0  0  0  0  0
   10.8916  -15.3922   24.8573 O   0  0  0  0  0  0  0  0  0  0  0  0
   12.0098  -19.7243   25.9763 C   0  0  0  0  0  0  0  0  0  0  0  0
    8.7191  -13.3916   27.3220 C   0  0  1  0  0  0  0  0  0  0  0  0
    9.8542  -14.4024   27.1604 N   0  0  0  0  0  0  0  0  0  0  0  0
    9.3236  -15.5987   26.5124 C   0  0  0  0  0  0  0  0  0  0  0  0
   10.3161  -14.7677   28.5178 O   0  0  0  0  0  0  0  0  0  0  0  0
   10.9672  -13.8565   29.3476 O   0  0  0  0  0  0  0  0  0  0  0  0
  2  3  2  0
  2  1  1  0
  4  2  1  0
  5  4  1  0
  6  5  1  0
  7  6  1  0
  8  7  1  0
  8 10  1  0
  8  9  1  1
 10 12  1  0
 11 10  2  0
 12 13  1  0
 13 14  1  6
 14 15  1  0
 15 19  1  0
 16 15  2  0
 17 13  1  0
 17 18  2  0
 21 20  1  6
 21 22  1  0
 21 23  1  0
 22 17  1  0
 23 25  2  0
 23 24  1  0
M  END
$$$$
