RDA.pdb
     RDKit          3D

 25 24  0  0  1  0  0  0  0  0999 V2000
    8.8839  -11.6974   19.1323 N   0  0  0  0  0  0  0  0  0  0  0  0
    8.3505  -12.6406   20.0486 C   0  0  0  0  0  0  0  0  0  0  0  0
    8.2539  -12.2856   21.3064 N   0  0  0  0  0  0  0  0  0  0  0  0
    7.9358  -13.9309   19.6208 N   0  0  0  0  0  0  0  0  0  0  0  0
    7.1858  -14.8049   20.4989 C   0  0  0  0  0  0  0  0  0  0  0  0
    8.0724  -15.6010   21.4073 C   0  0  0  0  0  0  0  0  0  0  0  0
    9.0029  -16.4601   20.6190 C   0  0  0  0  0  0  0  0  0  0  0  0
    9.0781  -17.8466   21.1566 C   0  0  2  0  0  0  0  0  0  0  0  0
    7.8833  -18.5596   20.7562 N   0  0  0  0  0  0  0  0  0  0  0  0
    9.1119  -17.8474   22.6573 C   0  0  0  0  0  0  0  0  0  0  0  0
    8.0403  -17.8731   23.3064 O   0  0  0  0  0  0  0  0  0  0  0  0
    7.9274  -12.9592   22.0323 N   0  0  0  0  0  0  0  0  0  0  0  0
   10.3288  -17.8188   23.3791 C   0  0  1  0  0  0  0  0  0  0  0  0
   10.4160  -17.7687   24.8167 C   0  0  0  0  0  0  0  0  0  0  0  0
   11.7705  -18.3570   25.2173 C   0  0  0  0  0  0  0  0  0  0  0  0
   11.8473  -18.4406   26.6957 O   0  0  0  0  0  0  0  0  0  0  0  0
   10.7730  -18.5722   27.3424 C   0  0  0  0  0  0  0  0  0  0  0  0
   10.2916  -16.3748   25.2853 O   0  0  0  0  0  0  0  0  0  0  0  0
   11.1110  -15.4666   24.9120 O   0  0  0  0  0  0  0  0  0  0  0  0
   13.0359  -18.3816   27.4204 C   0  0  0  0  0  0  0  0  0  0  0  0
    7.7631  -14.0963   26.5846 C   0  0  1  0  0  0  0  0  0  0  0  0
    9.2138  -14.5750   26.6345 N   0  0  0  0  0  0  0  0  0  0  0  0
    9.2637  -15.9590   26.1713 C   0  0  0  0  0  0  0  0  0  0  0  0
    9.6425  -14.5364   28.0501 O   0  0  0  0  0  0  0  0  0  0  0  0
    9.7931  -13.3375   28.7449 O   0  0  0  0  0  0  0  0  0  0  0  0
  2  3  2  0
  2  1  1  0
  4  2  1  0
  5  4  1  0
  6  5  1  0
  7  6  1  0
  8  7  1  0
  8 10  1  0
  8  9  1  1
 10 12  1  0
 11 10  2  0
 12 13  1  0
 13 14  1  6
 14 15  1  0
 15 19  1  0
 16 15  2  0
 17 13  1  0
 17 18  2  0
 21 20  1  6
 21 22  1  0
 21 23  1  0
 22 17  1  0
 23 25  2  0
 23 24  1  0
M  END
$$$$
