NRT.pdb
     RDKit          3D

 27 26  0  0  1  0  0  0  0  0999 V2000
   15.3550  -16.4137   19.4590 N   0  0  0  0  0  0  0  0  0  0  0  0
   14.9718  -15.0336   19.5766 C   0  0  0  0  0  0  0  0  0  0  0  0
   15.5764  -14.2311   18.8477 O   0  0  0  0  0  0  0  0  0  0  0  0
   13.9099  -14.7221   20.5429 C   0  0  0  0  0  0  0  0  0  0  0  0
   13.4282  -15.8702   21.3644 C   0  0  2  0  0  0  0  0  0  0  0  0
   12.7242  -16.8053   20.5348 N   0  0  0  0  0  0  0  0  0  0  0  0
   12.5918  -15.3428   22.4613 C   0  0  0  0  0  0  0  0  0  0  0  0
   13.0548  -14.4383   23.2286 O   0  0  0  0  0  0  0  0  0  0  0  0
    8.0955  -14.9574   19.0568 N   0  0  0  0  0  0  0  0  0  0  0  0
    7.4833  -13.6916   19.3069 C   0  0  0  0  0  0  0  0  0  0  0  0
    7.4019  -12.8037   18.3956 N   0  0  0  0  0  0  0  0  0  0  0  0
    6.9337  -13.3625   20.5945 N   0  0  0  0  0  0  0  0  0  0  0  0
    7.3064  -14.1237   21.7495 C   0  0  0  0  0  0  0  0  0  0  0  0
    8.7792  -14.1023   22.0632 C   0  0  0  0  0  0  0  0  0  0  0  0
    9.0033  -14.9752   23.2779 C   0  0  0  0  0  0  0  0  0  0  0  0
   10.4338  -15.0622   23.6965 C   0  0  2  0  0  0  0  0  0  0  0  0
   11.2657  -15.7689   22.7499 N   0  0  0  0  0  0  0  0  0  0  0  0
   10.4908  -15.6332   25.0533 C   0  0  0  0  0  0  0  0  0  0  0  0
   10.8432  -16.8308   25.1664 O   0  0  0  0  0  0  0  0  0  0  0  0
    6.9919  -11.8554   18.5176 C   0  0  0  0  0  0  0  0  0  0  0  0
   10.5412  -15.2709   29.9888 C   0  0  2  0  0  0  0  0  0  0  0  0
   10.1277  -14.6523   28.6799 O   0  0  0  0  0  0  0  0  0  0  0  0
   10.9006  -13.5049   28.4971 C   0  0  1  0  0  0  0  0  0  0  0  0
   10.3708  -15.5612   27.5087 N   0  0  0  0  0  0  0  0  0  0  0  0
   10.1763  -14.9265   26.2366 C   0  0  0  0  0  0  0  0  0  0  0  0
    9.4711  -16.7337   27.6278 O   0  0  0  0  0  0  0  0  0  0  0  0
    9.6737  -17.5739   28.5137 O   0  0  0  0  0  0  0  0  0  0  0  0
  2  1  1  0
  3  2  2  0
  4  2  1  0
  5  4  1  0
  5  6  1  6
  7  5  1  0
  7  8  2  0
  9 10  1  0
 10 11  2  0
 12 10  1  0
 12 13  1  0
 13 14  1  0
 14 15  1  0
 16 15  1  6
 16 17  1  0
 17  7  1  0
 18 16  1  0
 19 18  2  0
 21 20  1  1
 22 21  1  0
 23 21  1  0
 23 24  1  1
 24 18  1  0
 25 27  1  0
 25 23  1  0
 26 25  2  0
M  END
$$$$
