NRT.pdb
     RDKit          3D

 27 26  0  0  1  0  0  0  0  0999 V2000
   15.1941  -13.7136   17.4034 N   0  0  0  0  0  0  0  0  0  0  0  0
   15.2065  -14.7252   18.4241 C   0  0  0  0  0  0  0  0  0  0  0  0
   16.0265  -15.6454   18.2761 O   0  0  0  0  0  0  0  0  0  0  0  0
   14.2513  -14.5624   19.5283 C   0  0  0  0  0  0  0  0  0  0  0  0
   13.4260  -15.7626   19.8497 C   0  0  2  0  0  0  0  0  0  0  0  0
   12.8001  -16.2605   18.6587 N   0  0  0  0  0  0  0  0  0  0  0  0
   12.4481  -15.3929   20.8928 C   0  0  0  0  0  0  0  0  0  0  0  0
   12.8590  -15.0239   22.0400 O   0  0  0  0  0  0  0  0  0  0  0  0
    9.3537  -14.7821   17.9321 N   0  0  0  0  0  0  0  0  0  0  0  0
    8.2430  -13.9346   17.6360 C   0  0  0  0  0  0  0  0  0  0  0  0
    8.1362  -13.3533   16.5062 N   0  0  0  0  0  0  0  0  0  0  0  0
    7.1989  -13.6988   18.5965 N   0  0  0  0  0  0  0  0  0  0  0  0
    7.5191  -13.1718   19.8895 C   0  0  0  0  0  0  0  0  0  0  0  0
    8.9144  -13.4835   20.3631 C   0  0  0  0  0  0  0  0  0  0  0  0
    8.8158  -14.5949   21.3843 C   0  0  0  0  0  0  0  0  0  0  0  0
   10.1414  -15.1226   21.8241 C   0  0  2  0  0  0  0  0  0  0  0  0
   11.0356  -15.4120   20.7267 N   0  0  0  0  0  0  0  0  0  0  0  0
    9.9153  -16.2815   22.7049 C   0  0  0  0  0  0  0  0  0  0  0  0
    9.3987  -17.3052   22.1987 O   0  0  0  0  0  0  0  0  0  0  0  0
    7.3882  -12.6779   16.2480 C   0  0  0  0  0  0  0  0  0  0  0  0
   12.7313  -17.9288   24.2761 C   0  0  1  0  0  0  0  0  0  0  0  0
   11.3457  -18.5135   24.2053 O   0  0  0  0  0  0  0  0  0  0  0  0
   11.3404  -19.6716   24.9839 C   0  0  1  0  0  0  0  0  0  0  0  0
   10.2984  -17.5866   24.7540 N   0  0  0  0  0  0  0  0  0  0  0  0
   10.2393  -16.3209   24.0805 C   0  0  0  0  0  0  0  0  0  0  0  0
   10.5657  -17.3757   26.1970 O   0  0  0  0  0  0  0  0  0  0  0  0
   10.7879  -16.2333   26.6184 O   0  0  0  0  0  0  0  0  0  0  0  0
  2  1  1  0
  3  2  2  0
  4  2  1  0
  5  4  1  0
  5  6  1  6
  7  5  1  0
  7  8  2  0
  9 10  1  0
 10 11  2  0
 12 10  1  0
 12 13  1  0
 13 14  1  0
 14 15  1  0
 16 15  1  6
 16 17  1  0
 17  7  1  0
 18 16  1  0
 19 18  2  0
 21 20  1  6
 22 21  1  0
 23 21  1  0
 23 24  1  6
 24 18  1  0
 25 27  1  0
 25 23  1  0
 26 25  2  0
M  END
$$$$
