NRT.pdb
     RDKit          3D

 27 26  0  0  1  0  0  0  0  0999 V2000
   14.3064  -18.1934   16.8767 N   0  0  0  0  0  0  0  0  0  0  0  0
   13.4951  -17.0227   16.6854 C   0  0  0  0  0  0  0  0  0  0  0  0
   13.9089  -16.1966   15.8564 O   0  0  0  0  0  0  0  0  0  0  0  0
   12.2682  -16.9299   17.4881 C   0  0  0  0  0  0  0  0  0  0  0  0
   12.0522  -18.0350   18.4664 C   0  0  2  0  0  0  0  0  0  0  0  0
   11.0604  -18.9440   17.9682 N   0  0  0  0  0  0  0  0  0  0  0  0
   11.6777  -17.4431   19.7665 C   0  0  0  0  0  0  0  0  0  0  0  0
   12.5835  -16.9851   20.5352 O   0  0  0  0  0  0  0  0  0  0  0  0
    8.3678  -13.1192   18.1312 N   0  0  0  0  0  0  0  0  0  0  0  0
    8.1185  -12.4840   19.3857 C   0  0  0  0  0  0  0  0  0  0  0  0
    8.7292  -11.4161   19.7204 N   0  0  0  0  0  0  0  0  0  0  0  0
    7.1707  -13.0197   20.3254 N   0  0  0  0  0  0  0  0  0  0  0  0
    7.5603  -14.0711   21.2171 C   0  0  0  0  0  0  0  0  0  0  0  0
    8.2699  -15.2220   20.5536 C   0  0  0  0  0  0  0  0  0  0  0  0
    8.6523  -16.2101   21.6330 C   0  0  0  0  0  0  0  0  0  0  0  0
   10.0580  -16.7013   21.5236 C   0  0  2  0  0  0  0  0  0  0  0  0
   10.3471  -17.3334   20.2570 N   0  0  0  0  0  0  0  0  0  0  0  0
   10.3421  -17.5691   22.6796 C   0  0  0  0  0  0  0  0  0  0  0  0
    9.8387  -18.7170   22.6831 O   0  0  0  0  0  0  0  0  0  0  0  0
    8.6057  -10.9124   20.6222 C   0  0  0  0  0  0  0  0  0  0  0  0
   13.8152  -17.3167   25.0555 C   0  0  2  0  0  0  0  0  0  0  0  0
   12.9506  -18.5221   24.7979 O   0  0  0  0  0  0  0  0  0  0  0  0
   13.1610  -19.4191   25.8460 C   0  0  1  0  0  0  0  0  0  0  0  0
   11.4864  -18.1873   24.7669 N   0  0  0  0  0  0  0  0  0  0  0  0
   11.1419  -17.1992   23.7850 C   0  0  0  0  0  0  0  0  0  0  0  0
   11.0819  -17.7188   26.1142 O   0  0  0  0  0  0  0  0  0  0  0  0
   11.1937  -18.4775   27.0857 O   0  0  0  0  0  0  0  0  0  0  0  0
  2  1  1  0
  3  2  2  0
  4  2  1  0
  5  4  1  0
  5  6  1  6
  7  5  1  0
  7  8  2  0
  9 10  1  0
 10 11  2  0
 12 10  1  0
 12 13  1  0
 13 14  1  0
 14 15  1  0
 16 15  1  6
 16 17  1  0
 17  7  1  0
 18 16  1  0
 19 18  2  0
 21 20  1  6
 22 21  1  0
 23 21  1  0
 23 24  1  6
 24 18  1  0
 25 27  1  0
 25 23  1  0
 26 25  2  0
M  END
$$$$
