NRT.pdb
     RDKit          3D

 27 26  0  0  1  0  0  0  0  0999 V2000
   12.9492  -18.0545   16.4077 N   0  0  0  0  0  0  0  0  0  0  0  0
   13.5613  -18.2648   17.6909 C   0  0  0  0  0  0  0  0  0  0  0  0
   14.5731  -18.9838   17.7060 O   0  0  0  0  0  0  0  0  0  0  0  0
   12.9265  -17.6088   18.8420 C   0  0  0  0  0  0  0  0  0  0  0  0
   11.6105  -16.9613   18.5705 C   0  0  2  0  0  0  0  0  0  0  0  0
   11.7137  -16.1018   17.4265 N   0  0  0  0  0  0  0  0  0  0  0  0
   11.1841  -16.2395   19.7862 C   0  0  0  0  0  0  0  0  0  0  0  0
   12.0413  -15.9540   20.6834 O   0  0  0  0  0  0  0  0  0  0  0  0
    7.4209  -12.8836   16.2489 N   0  0  0  0  0  0  0  0  0  0  0  0
    7.9441  -14.1010   16.7814 C   0  0  0  0  0  0  0  0  0  0  0  0
    8.4322  -15.0007   16.0211 N   0  0  0  0  0  0  0  0  0  0  0  0
    7.9428  -14.3664   18.1949 N   0  0  0  0  0  0  0  0  0  0  0  0
    7.4756  -13.3696   19.1116 C   0  0  0  0  0  0  0  0  0  0  0  0
    8.3734  -13.1434   20.2994 C   0  0  0  0  0  0  0  0  0  0  0  0
    8.2529  -14.3503   21.2031 C   0  0  0  0  0  0  0  0  0  0  0  0
    9.5058  -15.1571   21.2940 C   0  0  2  0  0  0  0  0  0  0  0  0
    9.8529  -15.8178   20.0568 N   0  0  0  0  0  0  0  0  0  0  0  0
    9.3826  -16.0872   22.4297 C   0  0  0  0  0  0  0  0  0  0  0  0
    8.3638  -16.8160   22.4772 O   0  0  0  0  0  0  0  0  0  0  0  0
    8.8858  -15.8786   16.3461 C   0  0  0  0  0  0  0  0  0  0  0  0
   10.8423  -19.1486   23.0109 C   0  0  2  0  0  0  0  0  0  0  0  0
   11.0717  -18.4086   24.3018 O   0  0  0  0  0  0  0  0  0  0  0  0
   12.3806  -17.9251   24.2797 C   0  0  2  0  0  0  0  0  0  0  0  0
   10.1507  -17.2331   24.4658 N   0  0  0  0  0  0  0  0  0  0  0  0
   10.3314  -16.2162   23.4697 C   0  0  0  0  0  0  0  0  0  0  0  0
   10.3588  -16.6565   25.8158 O   0  0  0  0  0  0  0  0  0  0  0  0
   10.7267  -15.4803   25.9296 O   0  0  0  0  0  0  0  0  0  0  0  0
  2  1  1  0
  3  2  2  0
  4  2  1  0
  5  4  1  0
  5  6  1  6
  7  5  1  0
  7  8  2  0
  9 10  1  0
 10 11  2  0
 12 10  1  0
 12 13  1  0
 13 14  1  0
 14 15  1  0
 16 15  1  6
 16 17  1  0
 17  7  1  0
 18 16  1  0
 19 18  2  0
 21 20  1  1
 22 21  1  0
 23 21  1  0
 23 24  1  1
 24 18  1  0
 25 27  1  0
 25 23  1  0
 26 25  2  0
M  END
$$$$
