NRT.pdb
     RDKit          3D

 27 26  0  0  1  0  0  0  0  0999 V2000
    7.4612  -12.6067   16.9150 N   0  0  0  0  0  0  0  0  0  0  0  0
    8.1966  -13.5604   17.6992 C   0  0  0  0  0  0  0  0  0  0  0  0
    9.0225  -14.2557   17.0865 O   0  0  0  0  0  0  0  0  0  0  0  0
    7.8932  -13.6097   19.1358 C   0  0  0  0  0  0  0  0  0  0  0  0
    8.7980  -14.4649   19.9573 C   0  0  2  0  0  0  0  0  0  0  0  0
    9.1518  -15.6476   19.2265 N   0  0  0  0  0  0  0  0  0  0  0  0
    8.1232  -14.7680   21.2354 C   0  0  0  0  0  0  0  0  0  0  0  0
    7.3012  -13.9301   21.7287 O   0  0  0  0  0  0  0  0  0  0  0  0
    6.3098  -21.2857   28.5224 N   0  0  0  0  0  0  0  0  0  0  0  0
    7.0684  -20.8036   27.4127 C   0  0  0  0  0  0  0  0  0  0  0  0
    7.9853  -21.5113   26.8796 N   0  0  0  0  0  0  0  0  0  0  0  0
    6.8334  -19.5015   26.8490 N   0  0  0  0  0  0  0  0  0  0  0  0
    7.4919  -19.1150   25.6368 C   0  0  0  0  0  0  0  0  0  0  0  0
    7.1506  -17.7295   25.1549 C   0  0  0  0  0  0  0  0  0  0  0  0
    7.8613  -17.5129   23.8375 C   0  0  0  0  0  0  0  0  0  0  0  0
    7.6926  -16.1358   23.2861 C   0  0  2  0  0  0  0  0  0  0  0  0
    8.3145  -15.9556   21.9944 N   0  0  0  0  0  0  0  0  0  0  0  0
    8.1620  -15.1676   24.2923 C   0  0  0  0  0  0  0  0  0  0  0  0
    9.3995  -15.0163   24.4215 O   0  0  0  0  0  0  0  0  0  0  0  0
    8.5714  -21.2222   26.0703 C   0  0  0  0  0  0  0  0  0  0  0  0
    6.4492  -11.4595   25.4010 C   0  0  2  0  0  0  0  0  0  0  0  0
    6.9054  -12.3946   26.4892 O   0  0  0  0  0  0  0  0  0  0  0  0
    5.7799  -13.0765   26.9536 C   0  0  2  0  0  0  0  0  0  0  0  0
    7.8910  -13.4164   25.9977 N   0  0  0  0  0  0  0  0  0  0  0  0
    7.3158  -14.3974   25.1226 C   0  0  0  0  0  0  0  0  0  0  0  0
    8.5000  -14.0862   27.1719 O   0  0  0  0  0  0  0  0  0  0  0  0
    8.3403  -15.3027   27.3343 O   0  0  0  0  0  0  0  0  0  0  0  0
  2  1  1  0
  3  2  2  0
  4  2  1  0
  5  4  1  0
  5  6  1  6
  7  5  1  0
  7  8  2  0
  9 10  1  0
 10 11  2  0
 12 10  1  0
 12 13  1  0
 13 14  1  0
 14 15  1  0
 16 15  1  1
 16 17  1  0
 17  7  1  0
 18 16  1  0
 19 18  2  0
 21 20  1  1
 22 21  1  0
 23 21  1  0
 23 24  1  1
 24 18  1  0
 25 27  1  0
 25 23  1  0
 26 25  2  0
M  END
$$$$
