NRT.pdb
     RDKit          3D

 27 26  0  0  1  0  0  0  0  0999 V2000
   14.4256  -17.6437   15.2798 N   0  0  0  0  0  0  0  0  0  0  0  0
   13.1175  -18.0656   15.6998 C   0  0  0  0  0  0  0  0  0  0  0  0
   12.5561  -18.9101   14.9838 O   0  0  0  0  0  0  0  0  0  0  0  0
   12.5876  -17.4546   16.9262 C   0  0  0  0  0  0  0  0  0  0  0  0
   12.3286  -18.3944   18.0552 C   0  0  2  0  0  0  0  0  0  0  0  0
   11.2927  -19.3194   17.6954 N   0  0  0  0  0  0  0  0  0  0  0  0
   11.9910  -17.6029   19.2553 C   0  0  0  0  0  0  0  0  0  0  0  0
   12.8680  -16.8398   19.7748 O   0  0  0  0  0  0  0  0  0  0  0  0
    8.8924  -12.2768   19.1448 N   0  0  0  0  0  0  0  0  0  0  0  0
    8.0560  -12.3406   20.3005 C   0  0  0  0  0  0  0  0  0  0  0  0
    7.8628  -11.3169   21.0356 N   0  0  0  0  0  0  0  0  0  0  0  0
    7.3969  -13.5593   20.6865 N   0  0  0  0  0  0  0  0  0  0  0  0
    7.5278  -14.7334   19.8763 C   0  0  0  0  0  0  0  0  0  0  0  0
    8.9246  -15.2923   19.8073 C   0  0  0  0  0  0  0  0  0  0  0  0
    9.1500  -16.1214   21.0521 C   0  0  0  0  0  0  0  0  0  0  0  0
   10.4748  -16.8093   21.0810 C   0  0  2  0  0  0  0  0  0  0  0  0
   10.7276  -17.6153   19.9088 N   0  0  0  0  0  0  0  0  0  0  0  0
   10.5801  -17.5702   22.3380 C   0  0  0  0  0  0  0  0  0  0  0  0
    9.8947  -18.6141   22.4455 O   0  0  0  0  0  0  0  0  0  0  0  0
    7.2089  -11.2740   21.8436 C   0  0  0  0  0  0  0  0  0  0  0  0
   14.2403  -17.3288   24.2781 C   0  0  2  0  0  0  0  0  0  0  0  0
   13.3600  -18.5358   24.0911 O   0  0  0  0  0  0  0  0  0  0  0  0
   13.7393  -19.4816   25.0446 C   0  0  1  0  0  0  0  0  0  0  0  0
   11.9048  -18.2283   24.3028 N   0  0  0  0  0  0  0  0  0  0  0  0
   11.3991  -17.2066   23.4315 C   0  0  0  0  0  0  0  0  0  0  0  0
   11.7095  -17.8250   25.7162 O   0  0  0  0  0  0  0  0  0  0  0  0
   11.9751  -18.6238   26.6235 O   0  0  0  0  0  0  0  0  0  0  0  0
  2  1  1  0
  3  2  2  0
  4  2  1  0
  5  4  1  0
  5  6  1  6
  7  5  1  0
  7  8  2  0
  9 10  1  0
 10 11  2  0
 12 10  1  0
 12 13  1  0
 13 14  1  0
 14 15  1  0
 16 15  1  6
 16 17  1  0
 17  7  1  0
 18 16  1  0
 19 18  2  0
 21 20  1  6
 22 21  1  0
 23 21  1  0
 23 24  1  6
 24 18  1  0
 25 27  1  0
 25 23  1  0
 26 25  2  0
M  END
$$$$
