WAK.pdb
     RDKit          3D

 29 30  0  0  1  0  0  0  0  0999 V2000
    6.1906  -17.2601   23.4844 N   0  0  0  0  0  0  0  0  0  0  0  0
    7.2772  -16.3453   23.2867 C   0  0  1  0  0  0  0  0  0  0  0  0
    7.8907  -15.8806   24.5873 C   0  0  0  0  0  0  0  0  0  0  0  0
    7.0445  -14.9310   25.3282 C   0  0  0  0  0  0  0  0  0  0  0  0
    5.9255  -15.1638   26.1004 C   0  0  0  0  0  0  0  0  0  0  0  0
    5.4819  -13.9975   26.5838 N   0  0  0  0  0  0  0  0  0  0  0  0
    6.2576  -12.9830   26.1685 C   0  0  0  0  0  0  0  0  0  0  0  0
    6.2207  -11.6219   26.3868 C   0  0  0  0  0  0  0  0  0  0  0  0
    7.1890  -10.8356   25.8008 C   0  0  0  0  0  0  0  0  0  0  0  0
    8.1682  -11.3824   25.0195 C   0  0  0  0  0  0  0  0  0  0  0  0
    8.1844  -12.7502   24.8153 C   0  0  0  0  0  0  0  0  0  0  0  0
    7.2399  -13.5523   25.3817 C   0  0  0  0  0  0  0  0  0  0  0  0
    8.3667  -16.9699   22.4917 C   0  0  0  0  0  0  0  0  0  0  0  0
    8.6985  -18.1809   22.6540 O   0  0  0  0  0  0  0  0  0  0  0  0
   10.7999  -15.5733   19.9532 C   0  0  0  0  0  0  0  0  0  0  0  0
   10.3198  -16.6438   20.9188 C   0  0  2  0  0  0  0  0  0  0  0  0
    9.0741  -16.2343   21.5234 N   0  0  0  0  0  0  0  0  0  0  0  0
   11.3638  -16.9432   21.9024 C   0  0  0  0  0  0  0  0  0  0  0  0
   11.5058  -16.1775   22.8894 O   0  0  0  0  0  0  0  0  0  0  0  0
   12.2338  -18.0561   21.8090 N   0  0  0  0  0  0  0  0  0  0  0  0
   13.1067  -18.5010   22.8962 C   0  0  1  0  0  0  0  0  0  0  0  0
   12.4912  -19.7329   23.4802 C   0  0  0  0  0  0  0  0  0  0  0  0
   13.2929  -20.4352   24.5170 C   0  0  0  0  0  0  0  0  0  0  0  0
   12.5621  -21.6182   25.1033 C   0  0  0  0  0  0  0  0  0  0  0  0
   13.3375  -22.2635   26.2299 C   0  0  0  0  0  0  0  0  0  0  0  0
   14.4603  -23.0303   25.7867 N   0  0  0  0  0  0  0  0  0  0  0  0
   14.4939  -18.6514   22.4309 C   0  0  0  0  0  0  0  0  0  0  0  0
   15.5417  -18.3701   23.2834 O   0  0  0  0  0  0  0  0  0  0  0  0
   14.7708  -19.0379   21.2473 O   0  0  0  0  0  0  0  0  0  0  0  0
  2  1  1  1
  2 13  1  0
  3  2  1  0
  3  4  1  0
  4 12  1  0
  5  4  2  0
  5  6  1  0
  6  7  1  0
  7  8  1  0
  8  9  2  0
 10  9  1  0
 11 10  2  0
 12  7  2  0
 12 11  1  0
 13 17  1  0
 13 14  2  0
 16 15  1  6
 16 18  1  0
 17 16  1  0
 18 19  2  0
 20 21  1  0
 20 18  1  0
 22 23  1  0
 21 22  1  6
 24 23  1  0
 25 24  1  0
 26 25  1  0
 27 28  1  0
 27 21  1  0
 29 27  2  0
M  END
$$$$
