WAK.pdb
     RDKit          3D

 29 30  0  0  1  0  0  0  0  0999 V2000
    7.0462  -15.0106   20.4674 N   0  0  0  0  0  0  0  0  0  0  0  0
    7.5427  -15.3330   21.7736 C   0  0  1  0  0  0  0  0  0  0  0  0
    6.4604  -15.8392   22.6990 C   0  0  0  0  0  0  0  0  0  0  0  0
    6.5970  -15.3532   24.0817 C   0  0  0  0  0  0  0  0  0  0  0  0
    6.4556  -16.0331   25.2735 C   0  0  0  0  0  0  0  0  0  0  0  0
    6.6733  -15.1848   26.2853 N   0  0  0  0  0  0  0  0  0  0  0  0
    6.9568  -13.9556   25.8246 C   0  0  0  0  0  0  0  0  0  0  0  0
    7.2498  -12.7622   26.4504 C   0  0  0  0  0  0  0  0  0  0  0  0
    7.4993  -11.6544   25.6697 C   0  0  0  0  0  0  0  0  0  0  0  0
    7.4597  -11.7260   24.3053 C   0  0  0  0  0  0  0  0  0  0  0  0
    7.1636  -12.9341   23.7006 C   0  0  0  0  0  0  0  0  0  0  0  0
    6.9126  -14.0459   24.4469 C   0  0  0  0  0  0  0  0  0  0  0  0
    8.5850  -16.3904   21.7056 C   0  0  0  0  0  0  0  0  0  0  0  0
    8.3979  -17.4690   21.0696 O   0  0  0  0  0  0  0  0  0  0  0  0
   11.6210  -16.9091   20.8667 C   0  0  0  0  0  0  0  0  0  0  0  0
   10.9506  -17.1261   22.2129 C   0  0  2  0  0  0  0  0  0  0  0  0
    9.8257  -16.2312   22.3493 N   0  0  0  0  0  0  0  0  0  0  0  0
   11.9295  -16.9860   23.2942 C   0  0  0  0  0  0  0  0  0  0  0  0
   12.3384  -15.8366   23.5982 O   0  0  0  0  0  0  0  0  0  0  0  0
   12.4503  -18.0792   24.0276 N   0  0  0  0  0  0  0  0  0  0  0  0
   13.4533  -17.9467   25.0851 C   0  0  1  0  0  0  0  0  0  0  0  0
   13.2611  -19.0966   26.0222 C   0  0  0  0  0  0  0  0  0  0  0  0
   11.9412  -19.1711   26.7028 C   0  0  0  0  0  0  0  0  0  0  0  0
   11.7264  -20.4951   27.3944 C   0  0  0  0  0  0  0  0  0  0  0  0
   10.3759  -20.5702   28.0707 C   0  0  0  0  0  0  0  0  0  0  0  0
   10.1354  -21.8146   28.7328 N   0  0  0  0  0  0  0  0  0  0  0  0
   14.8042  -17.8172   24.5176 C   0  0  0  0  0  0  0  0  0  0  0  0
   15.8186  -17.2631   25.2709 O   0  0  0  0  0  0  0  0  0  0  0  0
   15.0787  -18.2037   23.3334 O   0  0  0  0  0  0  0  0  0  0  0  0
  2  1  1  6
  2 13  1  0
  3  2  1  0
  3  4  1  0
  4 12  1  0
  5  4  2  0
  5  6  1  0
  6  7  1  0
  7  8  1  0
  8  9  2  0
 10  9  1  0
 11 10  2  0
 12  7  2  0
 12 11  1  0
 13 17  1  0
 13 14  2  0
 16 15  1  6
 16 18  1  0
 17 16  1  0
 18 19  2  0
 20 21  1  0
 20 18  1  0
 22 23  1  0
 21 22  1  1
 24 23  1  0
 25 24  1  0
 26 25  1  0
 27 28  1  0
 27 21  1  0
 29 27  2  0
M  END
$$$$
