WAK.pdb
     RDKit          3D

 29 30  0  0  1  0  0  0  0  0999 V2000
    6.1556  -18.0427   24.8526 N   0  0  0  0  0  0  0  0  0  0  0  0
    6.5242  -16.7224   24.4313 C   0  0  1  0  0  0  0  0  0  0  0  0
    7.2835  -15.9629   25.4947 C   0  0  0  0  0  0  0  0  0  0  0  0
    6.5439  -14.8089   26.0314 C   0  0  0  0  0  0  0  0  0  0  0  0
    5.2495  -14.7323   26.5018 C   0  0  0  0  0  0  0  0  0  0  0  0
    5.0036  -13.4762   26.8924 N   0  0  0  0  0  0  0  0  0  0  0  0
    6.0822  -12.6985   26.7045 C   0  0  0  0  0  0  0  0  0  0  0  0
    6.3301  -11.3629   26.9420 C   0  0  0  0  0  0  0  0  0  0  0  0
    7.5744  -10.8596   26.6296 C   0  0  0  0  0  0  0  0  0  0  0  0
    8.5477  -11.6575   26.0963 C   0  0  0  0  0  0  0  0  0  0  0  0
    8.2752  -12.9939   25.8673 C   0  0  0  0  0  0  0  0  0  0  0  0
    7.0542  -13.5191   26.1661 C   0  0  0  0  0  0  0  0  0  0  0  0
    7.3927  -16.7666   23.2261 C   0  0  0  0  0  0  0  0  0  0  0  0
    8.2505  -17.6824   23.0573 O   0  0  0  0  0  0  0  0  0  0  0  0
    7.8841  -14.3477   20.3611 C   0  0  0  0  0  0  0  0  0  0  0  0
    8.2589  -15.5793   21.1681 C   0  0  2  0  0  0  0  0  0  0  0  0
    7.2936  -15.7865   22.2218 N   0  0  0  0  0  0  0  0  0  0  0  0
    9.6327  -15.4608   21.6638 C   0  0  0  0  0  0  0  0  0  0  0  0
    9.9699  -14.4146   22.2741 O   0  0  0  0  0  0  0  0  0  0  0  0
   10.6167  -16.4646   21.4959 N   0  0  0  0  0  0  0  0  0  0  0  0
   11.9936  -16.3440   21.9772 C   0  0  1  0  0  0  0  0  0  0  0  0
   12.0360  -16.9417   23.3477 C   0  0  0  0  0  0  0  0  0  0  0  0
   11.2799  -18.2087   23.5315 C   0  0  0  0  0  0  0  0  0  0  0  0
   11.5405  -18.8422   24.8761 C   0  0  0  0  0  0  0  0  0  0  0  0
   10.6555  -20.0442   25.1188 C   0  0  0  0  0  0  0  0  0  0  0  0
   10.9243  -20.7134   26.3536 N   0  0  0  0  0  0  0  0  0  0  0  0
   12.9423  -16.9187   21.0111 C   0  0  0  0  0  0  0  0  0  0  0  0
   12.4740  -17.5828   19.8961 O   0  0  0  0  0  0  0  0  0  0  0  0
   14.2048  -16.8259   21.1679 O   0  0  0  0  0  0  0  0  0  0  0  0
  2  1  1  1
  2 13  1  0
  3  2  1  0
  3  4  1  0
  4 12  1  0
  5  4  2  0
  5  6  1  0
  6  7  1  0
  7  8  1  0
  8  9  2  0
 10  9  1  0
 11 10  2  0
 12  7  2  0
 12 11  1  0
 13 17  1  0
 13 14  2  0
 16 15  1  1
 16 18  1  0
 17 16  1  0
 18 19  2  0
 20 21  1  0
 20 18  1  0
 22 23  1  0
 21 22  1  1
 24 23  1  0
 25 24  1  0
 26 25  1  0
 27 28  1  0
 27 21  1  0
 29 27  2  0
M  END
$$$$
