WAK.pdb
     RDKit          3D

 29 30  0  0  1  0  0  0  0  0999 V2000
    4.9655  -18.3257   24.0435 N   0  0  0  0  0  0  0  0  0  0  0  0
    6.2903  -18.5965   23.5657 C   0  0  1  0  0  0  0  0  0  0  0  0
    7.0921  -17.3375   23.3288 C   0  0  0  0  0  0  0  0  0  0  0  0
    6.8430  -16.2871   24.3294 C   0  0  0  0  0  0  0  0  0  0  0  0
    6.4607  -16.3999   25.6499 C   0  0  0  0  0  0  0  0  0  0  0  0
    6.3551  -15.1745   26.1771 N   0  0  0  0  0  0  0  0  0  0  0  0
    6.6512  -14.2353   25.2641 C   0  0  0  0  0  0  0  0  0  0  0  0
    6.6885  -12.8576   25.3116 C   0  0  0  0  0  0  0  0  0  0  0  0
    7.0407  -12.1697   24.1705 C   0  0  0  0  0  0  0  0  0  0  0  0
    7.3479  -12.8284   23.0129 C   0  0  0  0  0  0  0  0  0  0  0  0
    7.3034  -14.2105   22.9899 C   0  0  0  0  0  0  0  0  0  0  0  0
    6.9586  -14.9170   24.1026 C   0  0  0  0  0  0  0  0  0  0  0  0
    7.0538  -19.4205   24.5389 C   0  0  0  0  0  0  0  0  0  0  0  0
    7.0338  -19.1729   25.7803 O   0  0  0  0  0  0  0  0  0  0  0  0
    8.7604  -22.7240   24.4748 C   0  0  0  0  0  0  0  0  0  0  0  0
    8.7075  -21.2861   24.9631 C   0  0  2  0  0  0  0  0  0  0  0  0
    7.8320  -20.5128   24.1143 N   0  0  0  0  0  0  0  0  0  0  0  0
   10.0606  -20.7307   25.0494 C   0  0  0  0  0  0  0  0  0  0  0  0
   10.8815  -20.9862   24.1320 O   0  0  0  0  0  0  0  0  0  0  0  0
   10.5069  -19.9134   26.1157 N   0  0  0  0  0  0  0  0  0  0  0  0
   11.8877  -19.4523   26.2657 C   0  0  1  0  0  0  0  0  0  0  0  0
   11.9440  -18.0512   25.7450 C   0  0  0  0  0  0  0  0  0  0  0  0
   11.5894  -17.8720   24.3122 C   0  0  0  0  0  0  0  0  0  0  0  0
   11.7624  -16.4451   23.8526 C   0  0  0  0  0  0  0  0  0  0  0  0
   11.3493  -16.2590   22.4098 C   0  0  0  0  0  0  0  0  0  0  0  0
   11.5226  -14.9223   21.9323 N   0  0  0  0  0  0  0  0  0  0  0  0
   12.3551  -19.6280   27.6493 C   0  0  0  0  0  0  0  0  0  0  0  0
   13.6886  -19.4488   27.9549 O   0  0  0  0  0  0  0  0  0  0  0  0
   11.5606  -19.9467   28.5949 O   0  0  0  0  0  0  0  0  0  0  0  0
  2  1  1  1
  2 13  1  0
  3  2  1  0
  3  4  1  0
  4 12  1  0
  5  4  2  0
  5  6  1  0
  6  7  1  0
  7  8  1  0
  8  9  2  0
 10  9  1  0
 11 10  2  0
 12  7  2  0
 12 11  1  0
 13 17  1  0
 13 14  2  0
 16 15  1  6
 16 18  1  0
 17 16  1  0
 18 19  2  0
 20 21  1  0
 20 18  1  0
 22 23  1  0
 21 22  1  1
 24 23  1  0
 25 24  1  0
 26 25  1  0
 27 28  1  0
 27 21  1  0
 29 27  2  0
M  END
$$$$
