RMR.pdb
     RDKit          3D

 31 30  0  0  1  0  0  0  0  0999 V2000
   28.0896  -25.4520  -17.2072 N   0  0  0  0  0  0  0  0  0  0  0  0
   26.7375  -25.8476  -17.1192 C   0  0  0  0  0  0  0  0  0  0  0  0
   26.4258  -26.9555  -16.4991 N   0  0  0  0  0  0  0  0  0  0  0  0
   25.7356  -25.0329  -17.7071 N   0  0  0  0  0  0  0  0  0  0  0  0
   26.1240  -23.7568  -18.2580 C   0  0  0  0  0  0  0  0  0  0  0  0
   26.0962  -22.6561  -17.2280 C   0  0  0  0  0  0  0  0  0  0  0  0
   24.7197  -22.3392  -16.7419 C   0  0  0  0  0  0  0  0  0  0  0  0
   24.6687  -21.2826  -15.6642 C   0  0  2  0  0  0  0  0  0  0  0  0
   26.0608  -21.1160  -15.2122 N   0  0  0  0  0  0  0  0  0  0  0  0
   23.8222  -21.7806  -14.5614 C   0  0  0  0  0  0  0  0  0  0  0  0
   23.9138  -22.9430  -14.0940 O   0  0  0  0  0  0  0  0  0  0  0  0
   25.4264  -27.2132  -16.4403 C   0  0  0  0  0  0  0  0  0  0  0  0
   25.7567  -21.0243   -9.1429 S   0  0  0  0  0  0  0  0  0  0  0  0
   24.0644  -20.5460   -9.5732 C   0  0  0  0  0  0  0  0  0  0  0  0
   23.6202  -21.3440  -11.1275 C   0  0  0  0  0  0  0  0  0  0  0  0
   22.2599  -20.9029  -11.6050 C   0  0  2  0  0  0  0  0  0  0  0  0
   21.9207  -21.5061  -12.9420 N   0  0  0  0  0  0  0  0  0  0  0  0
   22.8157  -20.9551  -13.9345 C   0  0  0  0  0  0  0  0  0  0  0  0
   20.4937  -21.3095  -13.2978 O   0  0  0  0  0  0  0  0  0  0  0  0
   20.0378  -20.1489  -13.4545 N   0  0  0  0  0  0  0  0  0  0  0  0
   18.2210  -25.1675   -6.6315 C   0  0  0  0  0  0  0  0  0  0  0  0
   17.2583  -25.7389   -7.5128 N   0  0  0  0  0  0  0  0  0  0  0  0
   16.1427  -26.2072   -7.0578 N   0  0  0  0  0  0  0  0  0  0  0  0
   17.4886  -25.8186   -8.9149 C   0  0  0  0  0  0  0  0  0  0  0  0
   18.6276  -25.2473   -9.5817 C   0  0  0  0  0  0  0  0  0  0  0  0
   18.3971  -23.8706  -10.1249 C   0  0  0  0  0  0  0  0  0  0  0  0
   19.3065  -23.5286  -11.2562 C   0  0  1  0  0  0  0  0  0  0  0  0
   18.7295  -22.9323  -12.4632 N   0  0  0  0  0  0  0  0  0  0  0  0
   19.5746  -22.4037  -13.4792 C   0  0  0  0  0  0  0  0  0  0  0  0
   17.6124  -21.9624  -12.1288 O   0  0  0  0  0  0  0  0  0  0  0  0
   16.3685  -22.2389  -12.6274 O   0  0  0  0  0  0  0  0  0  0  0  0
  2  3  2  0
  2  1  1  0
  4  2  1  0
  5  6  1  0
  5  4  1  0
  7  8  1  0
  7  6  1  0
  8  9  1  1
 10  8  1  0
 10 17  1  0
 11 10  2  0
 13 12  1  0
 13 14  1  0
 14 15  1  0
 16 15  1  1
 16 17  1  0
 18 16  1  0
 19 18  2  0
 20 21  1  0
 21 23  1  0
 21 22  2  0
 23 24  1  0
 24 25  1  0
 25 26  1  0
 27 26  1  6
 27 28  1  0
 27 29  1  0
 28 18  1  0
 29 31  2  0
 29 30  1  0
M  END
$$$$
