RMR.pdb
     RDKit          3D

 31 30  0  0  1  0  0  0  0  0999 V2000
   18.9926  -21.8179  -15.0103 N   0  0  0  0  0  0  0  0  0  0  0  0
   18.4263  -22.1464  -13.7598 C   0  0  0  0  0  0  0  0  0  0  0  0
   17.9449  -21.1995  -12.9978 N   0  0  0  0  0  0  0  0  0  0  0  0
   18.3887  -23.5041  -13.3493 N   0  0  0  0  0  0  0  0  0  0  0  0
   17.8207  -23.8162  -12.0599 C   0  0  0  0  0  0  0  0  0  0  0  0
   18.8570  -23.8263  -10.9649 C   0  0  0  0  0  0  0  0  0  0  0  0
   18.3041  -24.2208   -9.6345 C   0  0  0  0  0  0  0  0  0  0  0  0
   18.9360  -25.4568   -9.0402 C   0  0  2  0  0  0  0  0  0  0  0  0
   18.8437  -26.4873  -10.0888 N   0  0  0  0  0  0  0  0  0  0  0  0
   18.1551  -25.8556   -7.8519 C   0  0  0  0  0  0  0  0  0  0  0  0
   16.9734  -26.2773   -7.9144 O   0  0  0  0  0  0  0  0  0  0  0  0
   17.5296  -21.4713  -12.0910 C   0  0  0  0  0  0  0  0  0  0  0  0
   17.8473  -27.6545   -0.1990 S   0  0  0  0  0  0  0  0  0  0  0  0
   18.8925  -27.4428   -1.6621 C   0  0  0  0  0  0  0  0  0  0  0  0
   17.8842  -26.7665   -2.9947 C   0  0  0  0  0  0  0  0  0  0  0  0
   18.7044  -26.5165   -4.2346 C   0  0  2  0  0  0  0  0  0  0  0  0
   17.8574  -25.9856   -5.3604 N   0  0  0  0  0  0  0  0  0  0  0  0
   18.7023  -25.7876   -6.5165 C   0  0  0  0  0  0  0  0  0  0  0  0
   17.1276  -24.7521   -4.9768 O   0  0  0  0  0  0  0  0  0  0  0  0
   17.6219  -23.6241   -5.2272 N   0  0  0  0  0  0  0  0  0  0  0  0
    9.7004  -21.8365   -7.3969 C   0  0  0  0  0  0  0  0  0  0  0  0
   10.2998  -23.0050   -7.9493 N   0  0  0  0  0  0  0  0  0  0  0  0
    9.7057  -23.6737   -8.8823 N   0  0  0  0  0  0  0  0  0  0  0  0
   11.5629  -23.4782   -7.4955 C   0  0  0  0  0  0  0  0  0  0  0  0
   12.3441  -22.8423   -6.4688 C   0  0  0  0  0  0  0  0  0  0  0  0
   13.5723  -23.6013   -6.0702 C   0  0  0  0  0  0  0  0  0  0  0  0
   14.4225  -22.8648   -5.0911 C   0  0  1  0  0  0  0  0  0  0  0  0
   15.0683  -23.6212   -4.0159 N   0  0  0  0  0  0  0  0  0  0  0  0
   15.8483  -24.7736   -4.3150 C   0  0  0  0  0  0  0  0  0  0  0  0
   14.1104  -23.8971   -2.8727 O   0  0  0  0  0  0  0  0  0  0  0  0
   13.5216  -22.8185   -2.2708 O   0  0  0  0  0  0  0  0  0  0  0  0
  2  3  2  0
  2  1  1  0
  4  2  1  0
  5  6  1  0
  5  4  1  0
  7  8  1  0
  7  6  1  0
  8  9  1  6
 10  8  1  0
 10 17  1  0
 11 10  2  0
 13 12  1  0
 13 14  1  0
 14 15  1  0
 16 15  1  6
 16 17  1  0
 18 16  1  0
 19 18  2  0
 20 21  1  0
 21 23  1  0
 21 22  2  0
 23 24  1  0
 24 25  1  0
 25 26  1  0
 27 26  1  6
 27 28  1  0
 27 29  1  0
 28 18  1  0
 29 31  2  0
 29 30  1  0
M  END
$$$$
