RMR.pdb
     RDKit          3D

 31 30  0  0  1  0  0  0  0  0999 V2000
   23.4173  -13.2995  -18.2695 N   0  0  0  0  0  0  0  0  0  0  0  0
   22.9245  -12.7691  -17.0579 C   0  0  0  0  0  0  0  0  0  0  0  0
   22.0719  -11.7784  -17.0837 N   0  0  0  0  0  0  0  0  0  0  0  0
   23.3644  -13.3222  -15.8275 N   0  0  0  0  0  0  0  0  0  0  0  0
   24.6124  -12.8564  -15.2723 C   0  0  0  0  0  0  0  0  0  0  0  0
   25.8054  -13.5357  -15.8955 C   0  0  0  0  0  0  0  0  0  0  0  0
   25.6694  -15.0218  -15.9604 C   0  0  0  0  0  0  0  0  0  0  0  0
   26.8923  -15.7359  -16.4847 C   0  0  2  0  0  0  0  0  0  0  0  0
   26.9123  -15.4674  -17.9330 N   0  0  0  0  0  0  0  0  0  0  0  0
   26.7352  -17.1817  -16.2281 C   0  0  0  0  0  0  0  0  0  0  0  0
   27.0666  -18.0676  -17.0547 O   0  0  0  0  0  0  0  0  0  0  0  0
   21.7273  -11.4120  -16.1806 C   0  0  0  0  0  0  0  0  0  0  0  0
   29.8173  -23.1194  -13.8256 S   0  0  0  0  0  0  0  0  0  0  0  0
   29.6794  -21.3770  -14.2974 C   0  0  0  0  0  0  0  0  0  0  0  0
   27.9329  -20.9336  -14.3516 C   0  0  0  0  0  0  0  0  0  0  0  0
   27.7449  -19.4678  -14.6497 C   0  0  2  0  0  0  0  0  0  0  0  0
   26.2886  -19.0859  -14.6508 N   0  0  0  0  0  0  0  0  0  0  0  0
   26.1816  -17.6853  -14.9922 C   0  0  0  0  0  0  0  0  0  0  0  0
   25.6264  -19.4048  -13.3619 O   0  0  0  0  0  0  0  0  0  0  0  0
   26.2632  -19.2995  -12.2837 N   0  0  0  0  0  0  0  0  0  0  0  0
   20.4525  -26.2134  -14.4784 C   0  0  0  0  0  0  0  0  0  0  0  0
   20.4045  -24.8140  -14.7419 N   0  0  0  0  0  0  0  0  0  0  0  0
   19.7062  -24.3511  -15.7261 N   0  0  0  0  0  0  0  0  0  0  0  0
   21.1210  -23.8815  -13.9403 C   0  0  0  0  0  0  0  0  0  0  0  0
   21.9329  -24.2423  -12.8094 C   0  0  0  0  0  0  0  0  0  0  0  0
   22.5395  -23.0771  -12.0898 C   0  0  0  0  0  0  0  0  0  0  0  0
   23.1090  -22.0527  -13.0119 C   0  0  2  0  0  0  0  0  0  0  0  0
   23.7904  -20.8918  -12.4344 N   0  0  0  0  0  0  0  0  0  0  0  0
   24.2562  -19.8404  -13.2729 C   0  0  0  0  0  0  0  0  0  0  0  0
   24.8594  -21.3073  -11.4419 O   0  0  0  0  0  0  0  0  0  0  0  0
   24.5092  -21.3473  -10.1197 O   0  0  0  0  0  0  0  0  0  0  0  0
  2  3  2  0
  2  1  1  0
  4  2  1  0
  5  6  1  0
  5  4  1  0
  7  8  1  0
  7  6  1  0
  8  9  1  6
 10  8  1  0
 10 17  1  0
 11 10  2  0
 13 12  1  0
 13 14  1  0
 14 15  1  0
 16 15  1  6
 16 17  1  0
 18 16  1  0
 19 18  2  0
 20 21  1  0
 21 23  1  0
 21 22  2  0
 23 24  1  0
 24 25  1  0
 25 26  1  0
 27 26  1  1
 27 28  1  0
 27 29  1  0
 28 18  1  0
 29 31  2  0
 29 30  1  0
M  END
$$$$
