RMR.pdb
     RDKit          3D

 31 30  0  0  1  0  0  0  0  0999 V2000
   37.9674  -12.7001  -14.7788 N   0  0  0  0  0  0  0  0  0  0  0  0
   38.4404  -11.5818  -14.0591 C   0  0  0  0  0  0  0  0  0  0  0  0
   39.3976  -11.7337  -13.1816 N   0  0  0  0  0  0  0  0  0  0  0  0
   37.8670  -10.3067  -14.3010 N   0  0  0  0  0  0  0  0  0  0  0  0
   36.5833  -10.2444  -14.9576 C   0  0  0  0  0  0  0  0  0  0  0  0
   36.1486   -8.8271  -15.2318 C   0  0  0  0  0  0  0  0  0  0  0  0
   34.8878   -8.7415  -16.0282 C   0  0  0  0  0  0  0  0  0  0  0  0
   34.3840   -7.3347  -16.2458 C   0  0  2  0  0  0  0  0  0  0  0  0
   34.6743   -6.6160  -14.9931 N   0  0  0  0  0  0  0  0  0  0  0  0
   32.9277   -7.3915  -16.4846 C   0  0  0  0  0  0  0  0  0  0  0  0
   32.0759   -7.3221  -15.5640 O   0  0  0  0  0  0  0  0  0  0  0  0
   39.6443  -10.9238  -12.5886 C   0  0  0  0  0  0  0  0  0  0  0  0
   29.6721   -3.2024  -19.9118 S   0  0  0  0  0  0  0  0  0  0  0  0
   28.9991   -4.7701  -20.5180 C   0  0  0  0  0  0  0  0  0  0  0  0
   29.2620   -6.0327  -19.2583 C   0  0  0  0  0  0  0  0  0  0  0  0
   30.7304   -6.2848  -19.0281 C   0  0  2  0  0  0  0  0  0  0  0  0
   30.9521   -7.3963  -18.0370 N   0  0  0  0  0  0  0  0  0  0  0  0
   32.3733   -7.5333  -17.8112 C   0  0  0  0  0  0  0  0  0  0  0  0
   30.3249   -8.6679  -18.4741 O   0  0  0  0  0  0  0  0  0  0  0  0
   30.9511   -9.4513  -19.2314 N   0  0  0  0  0  0  0  0  0  0  0  0
   23.1488  -13.7640  -15.9272 C   0  0  0  0  0  0  0  0  0  0  0  0
   23.5444  -14.1748  -17.2328 N   0  0  0  0  0  0  0  0  0  0  0  0
   22.9117  -15.1193  -17.8478 N   0  0  0  0  0  0  0  0  0  0  0  0
   24.6445  -13.5683  -17.9016 C   0  0  0  0  0  0  0  0  0  0  0  0
   25.4098  -12.4722  -17.3711 C   0  0  0  0  0  0  0  0  0  0  0  0
   26.5153  -12.0026  -18.2659 C   0  0  0  0  0  0  0  0  0  0  0  0
   27.1782  -10.7607  -17.7738 C   0  0  1  0  0  0  0  0  0  0  0  0
   28.3406  -10.2503  -18.5043 N   0  0  0  0  0  0  0  0  0  0  0  0
   29.0018   -9.0677  -18.0686 C   0  0  0  0  0  0  0  0  0  0  0  0
   28.0882  -10.2104  -19.9994 O   0  0  0  0  0  0  0  0  0  0  0  0
   28.6064  -11.2286  -20.7525 O   0  0  0  0  0  0  0  0  0  0  0  0
  2  3  2  0
  2  1  1  0
  4  2  1  0
  5  6  1  0
  5  4  1  0
  7  8  1  0
  7  6  1  0
  8  9  1  1
 10  8  1  0
 10 17  1  0
 11 10  2  0
 13 12  1  0
 13 14  1  0
 14 15  1  0
 16 15  1  1
 16 17  1  0
 18 16  1  0
 19 18  2  0
 20 21  1  0
 21 23  1  0
 21 22  2  0
 23 24  1  0
 24 25  1  0
 25 26  1  0
 27 26  1  1
 27 28  1  0
 27 29  1  0
 28 18  1  0
 29 31  2  0
 29 30  1  0
M  END
$$$$
