RMR.pdb
     RDKit          3D

 31 30  0  0  1  0  0  0  0  0999 V2000
   30.5517  -21.8777   -8.3047 N   0  0  0  0  0  0  0  0  0  0  0  0
   30.8807  -22.1854   -9.6424 C   0  0  0  0  0  0  0  0  0  0  0  0
   31.8841  -22.9842   -9.8955 N   0  0  0  0  0  0  0  0  0  0  0  0
   30.1136  -21.6205  -10.6940 N   0  0  0  0  0  0  0  0  0  0  0  0
   28.9050  -20.9078  -10.3561 C   0  0  0  0  0  0  0  0  0  0  0  0
   27.6815  -21.5253  -10.9844 C   0  0  0  0  0  0  0  0  0  0  0  0
   26.9878  -20.6134  -11.9429 C   0  0  0  0  0  0  0  0  0  0  0  0
   26.7074  -21.2278  -13.2935 C   0  0  2  0  0  0  0  0  0  0  0  0
   27.8973  -20.9365  -14.1116 N   0  0  0  0  0  0  0  0  0  0  0  0
   25.5130  -20.5739  -13.8653 C   0  0  0  0  0  0  0  0  0  0  0  0
   25.5640  -19.5145  -14.5384 O   0  0  0  0  0  0  0  0  0  0  0  0
   32.0819  -23.2158  -10.8833 C   0  0  0  0  0  0  0  0  0  0  0  0
   21.7126  -19.9071  -19.7349 S   0  0  0  0  0  0  0  0  0  0  0  0
   23.0693  -20.4159  -18.6495 C   0  0  0  0  0  0  0  0  0  0  0  0
   22.4972  -20.3395  -16.9416 C   0  0  0  0  0  0  0  0  0  0  0  0
   23.5794  -20.7560  -15.9782 C   0  0  2  0  0  0  0  0  0  0  0  0
   23.0997  -20.7059  -14.5520 N   0  0  0  0  0  0  0  0  0  0  0  0
   24.1847  -21.1137  -13.6882 C   0  0  0  0  0  0  0  0  0  0  0  0
   21.8768  -21.5203  -14.3450 O   0  0  0  0  0  0  0  0  0  0  0  0
   21.9476  -22.7750  -14.3487 N   0  0  0  0  0  0  0  0  0  0  0  0
   13.1425  -20.0770  -15.0397 C   0  0  0  0  0  0  0  0  0  0  0  0
   13.1922  -21.2913  -14.2961 N   0  0  0  0  0  0  0  0  0  0  0  0
   12.1545  -22.0575  -14.2131 N   0  0  0  0  0  0  0  0  0  0  0  0
   14.3751  -21.7007  -13.6189 C   0  0  0  0  0  0  0  0  0  0  0  0
   15.6041  -20.9537  -13.6133 C   0  0  0  0  0  0  0  0  0  0  0  0
   16.8320  -21.7863  -13.8200 C   0  0  0  0  0  0  0  0  0  0  0  0
   18.0844  -20.9783  -13.8707 C   0  0  1  0  0  0  0  0  0  0  0  0
   19.3604  -21.6745  -14.0511 N   0  0  0  0  0  0  0  0  0  0  0  0
   20.5760  -20.9388  -14.1337 C   0  0  0  0  0  0  0  0  0  0  0  0
   19.2798  -22.7134  -15.1533 O   0  0  0  0  0  0  0  0  0  0  0  0
   19.0007  -24.0013  -14.7849 O   0  0  0  0  0  0  0  0  0  0  0  0
  2  3  2  0
  2  1  1  0
  4  2  1  0
  5  6  1  0
  5  4  1  0
  7  8  1  0
  7  6  1  0
  8  9  1  6
 10  8  1  0
 10 17  1  0
 11 10  2  0
 13 12  1  0
 13 14  1  0
 14 15  1  0
 16 15  1  1
 16 17  1  0
 18 16  1  0
 19 18  2  0
 20 21  1  0
 21 23  1  0
 21 22  2  0
 23 24  1  0
 24 25  1  0
 25 26  1  0
 27 26  1  1
 27 28  1  0
 27 29  1  0
 28 18  1  0
 29 31  2  0
 29 30  1  0
M  END
$$$$
