RMR.pdb
     RDKit          3D

 31 30  0  0  1  0  0  0  0  0999 V2000
   20.3025  -25.3169  -12.4647 N   0  0  0  0  0  0  0  0  0  0  0  0
   19.4016  -24.2793  -12.1419 C   0  0  0  0  0  0  0  0  0  0  0  0
   19.3207  -23.2279  -12.9146 N   0  0  0  0  0  0  0  0  0  0  0  0
   18.5957  -24.3954  -10.9799 N   0  0  0  0  0  0  0  0  0  0  0  0
   18.7159  -25.5888  -10.1773 C   0  0  0  0  0  0  0  0  0  0  0  0
   19.2099  -25.2943   -8.7836 C   0  0  0  0  0  0  0  0  0  0  0  0
   18.1698  -25.5080   -7.7329 C   0  0  0  0  0  0  0  0  0  0  0  0
   17.8879  -26.9588   -7.4229 C   0  0  2  0  0  0  0  0  0  0  0  0
   16.9861  -27.4202   -8.4924 N   0  0  0  0  0  0  0  0  0  0  0  0
   17.2156  -27.0340   -6.1102 C   0  0  0  0  0  0  0  0  0  0  0  0
   15.9977  -26.7748   -5.9446 O   0  0  0  0  0  0  0  0  0  0  0  0
   18.6901  -22.4615  -12.6255 C   0  0  0  0  0  0  0  0  0  0  0  0
   17.9932  -28.2590    1.6745 S   0  0  0  0  0  0  0  0  0  0  0  0
   18.8158  -28.3074    0.0624 C   0  0  0  0  0  0  0  0  0  0  0  0
   17.6855  -27.6497   -1.1785 C   0  0  0  0  0  0  0  0  0  0  0  0
   18.2082  -27.8737   -2.5747 C   0  0  1  0  0  0  0  0  0  0  0  0
   17.3123  -27.2448   -3.6083 N   0  0  0  0  0  0  0  0  0  0  0  0
   17.9208  -27.4156   -4.9083 C   0  0  0  0  0  0  0  0  0  0  0  0
   17.0211  -25.8220   -3.3040 O   0  0  0  0  0  0  0  0  0  0  0  0
   17.9069  -24.9473   -3.4756 N   0  0  0  0  0  0  0  0  0  0  0  0
    9.9658  -20.8561   -4.9474 C   0  0  0  0  0  0  0  0  0  0  0  0
   10.7216  -20.0836   -4.0190 N   0  0  0  0  0  0  0  0  0  0  0  0
   10.3609  -18.8808   -3.7129 N   0  0  0  0  0  0  0  0  0  0  0  0
   11.8948  -20.6017   -3.4021 C   0  0  0  0  0  0  0  0  0  0  0  0
   12.8023  -21.5217   -4.0334 C   0  0  0  0  0  0  0  0  0  0  0  0
   13.9067  -22.0053   -3.1446 C   0  0  0  0  0  0  0  0  0  0  0  0
   14.2846  -23.4248   -3.4014 C   0  0  1  0  0  0  0  0  0  0  0  0
   15.3790  -24.0102   -2.6235 N   0  0  0  0  0  0  0  0  0  0  0  0
   15.7450  -25.3730   -2.8092 C   0  0  0  0  0  0  0  0  0  0  0  0
   15.2568  -23.6781   -1.1486 O   0  0  0  0  0  0  0  0  0  0  0  0
   15.5140  -22.3885   -0.7705 O   0  0  0  0  0  0  0  0  0  0  0  0
  2  3  2  0
  2  1  1  0
  4  2  1  0
  5  6  1  0
  5  4  1  0
  7  8  1  0
  7  6  1  0
  8  9  1  6
 10  8  1  0
 10 17  1  0
 11 10  2  0
 13 12  1  0
 13 14  1  0
 14 15  1  0
 16 15  1  6
 16 17  1  0
 18 16  1  0
 19 18  2  0
 20 21  1  0
 21 23  1  0
 21 22  2  0
 23 24  1  0
 24 25  1  0
 25 26  1  0
 27 26  1  6
 27 28  1  0
 27 29  1  0
 28 18  1  0
 29 31  2  0
 29 30  1  0
M  END
$$$$
