RMR.pdb
     RDKit          3D

 31 30  0  0  1  0  0  0  0  0999 V2000
   26.3182  -25.3565  -15.0229 N   0  0  0  0  0  0  0  0  0  0  0  0
   26.0299  -24.5179  -16.1211 C   0  0  0  0  0  0  0  0  0  0  0  0
   26.1394  -24.9834  -17.3379 N   0  0  0  0  0  0  0  0  0  0  0  0
   25.6243  -23.1789  -15.8851 N   0  0  0  0  0  0  0  0  0  0  0  0
   24.6272  -22.9319  -14.8715 C   0  0  0  0  0  0  0  0  0  0  0  0
   23.3529  -22.3682  -15.4472 C   0  0  0  0  0  0  0  0  0  0  0  0
   22.2824  -22.1687  -14.4247 C   0  0  0  0  0  0  0  0  0  0  0  0
   21.1531  -23.1681  -14.5034 C   0  0  2  0  0  0  0  0  0  0  0  0
   20.5351  -22.9583  -15.8240 N   0  0  0  0  0  0  0  0  0  0  0  0
   20.1881  -22.8686  -13.4265 C   0  0  0  0  0  0  0  0  0  0  0  0
   19.4129  -21.8805  -13.4519 O   0  0  0  0  0  0  0  0  0  0  0  0
   25.9473  -24.3384  -18.1225 C   0  0  0  0  0  0  0  0  0  0  0  0
   15.2797  -24.7547  -14.0044 S   0  0  0  0  0  0  0  0  0  0  0  0
   15.4616  -22.9770  -13.7137 C   0  0  0  0  0  0  0  0  0  0  0  0
   16.8293  -22.7200  -12.5677 C   0  0  0  0  0  0  0  0  0  0  0  0
   17.6925  -23.9507  -12.4541 C   0  0  2  0  0  0  0  0  0  0  0  0
   18.8348  -23.7387  -11.4966 N   0  0  0  0  0  0  0  0  0  0  0  0
   20.0664  -23.7017  -12.2524 C   0  0  0  0  0  0  0  0  0  0  0  0
   18.8617  -24.7631  -10.4235 O   0  0  0  0  0  0  0  0  0  0  0  0
   19.0322  -25.9741  -10.7129 N   0  0  0  0  0  0  0  0  0  0  0  0
   14.6234  -24.8218   -2.4838 C   0  0  0  0  0  0  0  0  0  0  0  0
   15.5453  -24.0097   -3.2053 N   0  0  0  0  0  0  0  0  0  0  0  0
   15.4793  -22.7204   -3.1421 N   0  0  0  0  0  0  0  0  0  0  0  0
   16.5625  -24.5829   -4.0191 C   0  0  0  0  0  0  0  0  0  0  0  0
   16.3905  -25.7692   -4.8138 C   0  0  0  0  0  0  0  0  0  0  0  0
   17.5326  -26.0631   -5.7371 C   0  0  0  0  0  0  0  0  0  0  0  0
   17.6830  -25.0506   -6.8216 C   0  0  2  0  0  0  0  0  0  0  0  0
   18.4936  -25.3933   -7.9924 N   0  0  0  0  0  0  0  0  0  0  0  0
   18.6992  -24.4400   -9.0291 C   0  0  0  0  0  0  0  0  0  0  0  0
   18.1051  -26.7425   -8.5663 O   0  0  0  0  0  0  0  0  0  0  0  0
   18.7601  -27.8433   -8.0851 O   0  0  0  0  0  0  0  0  0  0  0  0
  2  3  2  0
  2  1  1  0
  4  2  1  0
  5  6  1  0
  5  4  1  0
  7  8  1  0
  7  6  1  0
  8  9  1  6
 10  8  1  0
 10 17  1  0
 11 10  2  0
 13 12  1  0
 13 14  1  0
 14 15  1  0
 16 15  1  6
 16 17  1  0
 18 16  1  0
 19 18  2  0
 20 21  1  0
 21 23  1  0
 21 22  2  0
 23 24  1  0
 24 25  1  0
 25 26  1  0
 27 26  1  1
 27 28  1  0
 27 29  1  0
 28 18  1  0
 29 31  2  0
 29 30  1  0
M  END
$$$$
