RMR.pdb
     RDKit          3D

 31 30  0  0  1  0  0  0  0  0999 V2000
   21.9233  -17.4742  -15.3838 N   0  0  0  0  0  0  0  0  0  0  0  0
   22.7233  -18.0690  -16.3830 C   0  0  0  0  0  0  0  0  0  0  0  0
   23.0709  -17.3734  -17.4340 N   0  0  0  0  0  0  0  0  0  0  0  0
   23.1386  -19.4170  -16.2294 N   0  0  0  0  0  0  0  0  0  0  0  0
   22.6849  -20.1475  -15.0704 C   0  0  0  0  0  0  0  0  0  0  0  0
   23.8062  -20.8847  -14.3831 C   0  0  0  0  0  0  0  0  0  0  0  0
   25.0457  -20.0645  -14.2338 C   0  0  0  0  0  0  0  0  0  0  0  0
   26.1790  -20.7726  -13.5306 C   0  0  2  0  0  0  0  0  0  0  0  0
   26.4067  -22.0082  -14.2997 N   0  0  0  0  0  0  0  0  0  0  0  0
   25.7487  -21.0911  -12.1543 C   0  0  0  0  0  0  0  0  0  0  0  0
   25.2358  -22.1912  -11.8305 O   0  0  0  0  0  0  0  0  0  0  0  0
   23.6313  -17.8448  -18.1635 C   0  0  0  0  0  0  0  0  0  0  0  0
   26.7588  -19.5563   -4.5312 S   0  0  0  0  0  0  0  0  0  0  0  0
   26.8664  -18.8719   -6.2039 C   0  0  0  0  0  0  0  0  0  0  0  0
   26.0106  -19.9845   -7.3352 C   0  0  0  0  0  0  0  0  0  0  0  0
   26.1710  -19.5445   -8.7682 C   0  0  2  0  0  0  0  0  0  0  0  0
   25.5194  -20.5119   -9.7201 N   0  0  0  0  0  0  0  0  0  0  0  0
   25.8888  -20.1474  -11.0693 C   0  0  0  0  0  0  0  0  0  0  0  0
   24.0486  -20.5732   -9.5346 O   0  0  0  0  0  0  0  0  0  0  0  0
   23.2912  -19.9041  -10.2816 N   0  0  0  0  0  0  0  0  0  0  0  0
   18.3500  -25.5669   -4.3217 C   0  0  0  0  0  0  0  0  0  0  0  0
   17.6020  -24.9503   -5.3659 N   0  0  0  0  0  0  0  0  0  0  0  0
   16.3332  -25.1662   -5.4853 N   0  0  0  0  0  0  0  0  0  0  0  0
   18.2194  -24.0840   -6.3112 C   0  0  0  0  0  0  0  0  0  0  0  0
   19.6094  -23.7153   -6.2840 C   0  0  0  0  0  0  0  0  0  0  0  0
   20.0401  -22.8514   -7.4291 C   0  0  0  0  0  0  0  0  0  0  0  0
   21.4890  -22.5009   -7.3843 C   0  0  2  0  0  0  0  0  0  0  0  0
   22.0173  -21.5757   -8.3894 N   0  0  0  0  0  0  0  0  0  0  0  0
   23.4210  -21.3787   -8.5186 C   0  0  0  0  0  0  0  0  0  0  0  0
   21.2836  -20.2484   -8.3683 O   0  0  0  0  0  0  0  0  0  0  0  0
   20.1139  -20.1646   -9.0735 O   0  0  0  0  0  0  0  0  0  0  0  0
  2  3  2  0
  2  1  1  0
  4  2  1  0
  5  6  1  0
  5  4  1  0
  7  8  1  0
  7  6  1  0
  8  9  1  6
 10  8  1  0
 10 17  1  0
 11 10  2  0
 13 12  1  0
 13 14  1  0
 14 15  1  0
 16 15  1  1
 16 17  1  0
 18 16  1  0
 19 18  2  0
 20 21  1  0
 21 23  1  0
 21 22  2  0
 23 24  1  0
 24 25  1  0
 25 26  1  0
 27 26  1  6
 27 28  1  0
 27 29  1  0
 28 18  1  0
 29 31  2  0
 29 30  1  0
M  END
$$$$
