RMR.pdb
     RDKit          3D

 31 30  0  0  1  0  0  0  0  0999 V2000
   19.0923  -24.3385   -6.2530 N   0  0  0  0  0  0  0  0  0  0  0  0
   17.8795  -24.2745   -6.9722 C   0  0  0  0  0  0  0  0  0  0  0  0
   16.7422  -24.2945   -6.3277 N   0  0  0  0  0  0  0  0  0  0  0  0
   17.9151  -24.1889   -8.3880 N   0  0  0  0  0  0  0  0  0  0  0  0
   18.9178  -23.3508   -9.0003 C   0  0  0  0  0  0  0  0  0  0  0  0
   18.9174  -21.9525   -8.4367 C   0  0  0  0  0  0  0  0  0  0  0  0
   19.8964  -21.0464   -9.1088 C   0  0  0  0  0  0  0  0  0  0  0  0
   21.0737  -21.7565   -9.7334 C   0  0  2  0  0  0  0  0  0  0  0  0
   21.2674  -22.9760   -8.9300 N   0  0  0  0  0  0  0  0  0  0  0  0
   22.2562  -20.8775   -9.6338 C   0  0  0  0  0  0  0  0  0  0  0  0
   22.2807  -19.7033  -10.0796 O   0  0  0  0  0  0  0  0  0  0  0  0
   15.8714  -24.3398   -6.8827 C   0  0  0  0  0  0  0  0  0  0  0  0
   28.8928  -18.7311   -6.1535 S   0  0  0  0  0  0  0  0  0  0  0  0
   27.4948  -19.8815   -6.1473 C   0  0  0  0  0  0  0  0  0  0  0  0
   26.6417  -19.7562   -7.7305 C   0  0  0  0  0  0  0  0  0  0  0  0
   25.4265  -20.6474   -7.7742 C   0  0  2  0  0  0  0  0  0  0  0  0
   24.6744  -20.4940   -9.0694 N   0  0  0  0  0  0  0  0  0  0  0  0
   23.4841  -21.3120   -9.0086 C   0  0  0  0  0  0  0  0  0  0  0  0
   25.5188  -20.8128  -10.2470 O   0  0  0  0  0  0  0  0  0  0  0  0
   25.6877  -22.0083  -10.5957 N   0  0  0  0  0  0  0  0  0  0  0  0
   27.0828  -15.2761  -17.0814 C   0  0  0  0  0  0  0  0  0  0  0  0
   26.1752  -16.3403  -17.3531 N   0  0  0  0  0  0  0  0  0  0  0  0
   25.4471  -16.3306  -18.4209 N   0  0  0  0  0  0  0  0  0  0  0  0
   26.0346  -17.4428  -16.4641 C   0  0  0  0  0  0  0  0  0  0  0  0
   26.7273  -17.5643  -15.2096 C   0  0  0  0  0  0  0  0  0  0  0  0
   26.4623  -18.8460  -14.4812 C   0  0  0  0  0  0  0  0  0  0  0  0
   27.1616  -18.9266  -13.1666 C   0  0  2  0  0  0  0  0  0  0  0  0
   26.8424  -20.0403  -12.2703 N   0  0  0  0  0  0  0  0  0  0  0  0
   26.1749  -19.8019  -11.0361 C   0  0  0  0  0  0  0  0  0  0  0  0
   28.0331  -20.9591  -12.0738 O   0  0  0  0  0  0  0  0  0  0  0  0
   28.3749  -21.2800  -10.7882 O   0  0  0  0  0  0  0  0  0  0  0  0
  2  3  2  0
  2  1  1  0
  4  2  1  0
  5  6  1  0
  5  4  1  0
  7  8  1  0
  7  6  1  0
  8  9  1  1
 10  8  1  0
 10 17  1  0
 11 10  2  0
 13 12  1  0
 13 14  1  0
 14 15  1  0
 16 15  1  1
 16 17  1  0
 18 16  1  0
 19 18  2  0
 20 21  1  0
 21 23  1  0
 21 22  2  0
 23 24  1  0
 24 25  1  0
 25 26  1  0
 27 26  1  6
 27 28  1  0
 27 29  1  0
 28 18  1  0
 29 31  2  0
 29 30  1  0
M  END
$$$$
