RMR.pdb
     RDKit          3D

 31 30  0  0  1  0  0  0  0  0999 V2000
   24.6297  -16.7835  -18.1950 N   0  0  0  0  0  0  0  0  0  0  0  0
   24.1096  -17.9406  -18.8137 C   0  0  0  0  0  0  0  0  0  0  0  0
   23.9085  -17.9498  -20.1054 N   0  0  0  0  0  0  0  0  0  0  0  0
   23.8129  -19.0789  -18.0203 N   0  0  0  0  0  0  0  0  0  0  0  0
   22.9241  -18.9185  -16.8946 C   0  0  0  0  0  0  0  0  0  0  0  0
   23.6592  -18.9302  -15.5784 C   0  0  0  0  0  0  0  0  0  0  0  0
   23.4786  -20.2009  -14.8142 C   0  0  0  0  0  0  0  0  0  0  0  0
   22.2194  -20.2528  -13.9824 C   0  0  2  0  0  0  0  0  0  0  0  0
   21.8934  -18.8491  -13.6765 N   0  0  0  0  0  0  0  0  0  0  0  0
   22.5093  -20.9994  -12.7417 C   0  0  0  0  0  0  0  0  0  0  0  0
   22.8472  -22.2092  -12.7292 O   0  0  0  0  0  0  0  0  0  0  0  0
   23.5403  -18.8162  -20.5324 C   0  0  0  0  0  0  0  0  0  0  0  0
   26.3358  -19.7723   -7.8564 S   0  0  0  0  0  0  0  0  0  0  0  0
   24.8638  -20.2673   -6.9258 C   0  0  0  0  0  0  0  0  0  0  0  0
   23.7636  -21.1718   -8.0308 C   0  0  0  0  0  0  0  0  0  0  0  0
   23.4785  -20.3892   -9.2874 C   0  0  2  0  0  0  0  0  0  0  0  0
   22.6049  -21.1657  -10.2364 N   0  0  0  0  0  0  0  0  0  0  0  0
   22.4232  -20.3828  -11.4380 C   0  0  0  0  0  0  0  0  0  0  0  0
   21.3146  -21.5554   -9.6163 O   0  0  0  0  0  0  0  0  0  0  0  0
   20.4081  -20.6996   -9.4578 N   0  0  0  0  0  0  0  0  0  0  0  0
   18.8755  -26.6924   -2.9980 C   0  0  0  0  0  0  0  0  0  0  0  0
   18.7362  -27.0660   -4.3658 N   0  0  0  0  0  0  0  0  0  0  0  0
   18.6811  -28.3113   -4.7078 N   0  0  0  0  0  0  0  0  0  0  0  0
   18.6573  -26.0902   -5.3988 C   0  0  0  0  0  0  0  0  0  0  0  0
   18.6887  -24.6699   -5.1747 C   0  0  0  0  0  0  0  0  0  0  0  0
   18.5196  -23.8467   -6.4144 C   0  0  0  0  0  0  0  0  0  0  0  0
   19.8147  -23.5020   -7.0685 C   0  0  1  0  0  0  0  0  0  0  0  0
   19.8355  -23.3023   -8.5194 N   0  0  0  0  0  0  0  0  0  0  0  0
   21.0331  -22.8967   -9.1727 C   0  0  0  0  0  0  0  0  0  0  0  0
   18.6554  -22.4718   -8.9866 O   0  0  0  0  0  0  0  0  0  0  0  0
   17.5190  -23.1416   -9.3500 O   0  0  0  0  0  0  0  0  0  0  0  0
  2  3  2  0
  2  1  1  0
  4  2  1  0
  5  6  1  0
  5  4  1  0
  7  8  1  0
  7  6  1  0
  8  9  1  1
 10  8  1  0
 10 17  1  0
 11 10  2  0
 13 12  1  0
 13 14  1  0
 14 15  1  0
 16 15  1  6
 16 17  1  0
 18 16  1  0
 19 18  2  0
 20 21  1  0
 21 23  1  0
 21 22  2  0
 23 24  1  0
 24 25  1  0
 25 26  1  0
 27 26  1  6
 27 28  1  0
 27 29  1  0
 28 18  1  0
 29 31  2  0
 29 30  1  0
M  END
$$$$
