CVH.pdb
     RDKit          3D

 24 24  0  0  1  0  0  0  0  0999 V2000
   20.6890  -15.9093  -17.0135 N   0  0  0  0  0  0  0  0  0  0  0  0
   20.8377  -14.5910  -17.5710 C   0  0  1  0  0  0  0  0  0  0  0  0
   19.6279  -14.1413  -18.3641 C   0  0  0  0  0  0  0  0  0  0  0  0
   19.2801  -15.4400  -19.5960 S   0  0  0  0  0  0  0  0  0  0  0  0
   21.2126  -13.5891  -16.5349 C   0  0  0  0  0  0  0  0  0  0  0  0
   20.5901  -13.4911  -15.4505 O   0  0  0  0  0  0  0  0  0  0  0  0
   25.1887  -11.7693  -16.3101 C   0  0  0  0  0  0  0  0  0  0  0  0
   24.1360  -11.9772  -15.2444 C   0  0  2  0  0  0  0  0  0  0  0  0
   24.2497  -13.3942  -14.7329 C   0  0  0  0  0  0  0  0  0  0  0  0
   22.7501  -11.7550  -15.7419 C   0  0  2  0  0  0  0  0  0  0  0  0
   22.3016  -12.6892  -16.7300 N   0  0  0  0  0  0  0  0  0  0  0  0
   22.5291  -10.3335  -16.1878 C   0  0  0  0  0  0  0  0  0  0  0  0
   22.7636  -10.0482  -17.3808 O   0  0  0  0  0  0  0  0  0  0  0  0
   22.0732   -9.3121  -15.3326 N   0  0  0  0  0  0  0  0  0  0  0  0
   21.7760   -7.9722  -15.7201 C   0  0  1  0  0  0  0  0  0  0  0  0
   20.7807   -7.7968  -16.8105 C   0  0  0  0  0  0  0  0  0  0  0  0
   19.4666   -8.3837  -16.4596 C   0  0  0  0  0  0  0  0  0  0  0  0
   19.0425   -9.6327  -16.8274 C   0  0  0  0  0  0  0  0  0  0  0  0
   17.8159   -9.7986  -16.3111 N   0  0  0  0  0  0  0  0  0  0  0  0
   17.4768   -8.6934  -15.6408 C   0  0  0  0  0  0  0  0  0  0  0  0
   18.5110   -7.7982  -15.7298 N   0  0  0  0  0  0  0  0  0  0  0  0
   21.3457   -7.1309  -14.5632 C   0  0  0  0  0  0  0  0  0  0  0  0
   21.2155   -5.8975  -14.7515 O   0  0  0  0  0  0  0  0  0  0  0  0
   21.0889   -7.6533  -13.3067 O   0  0  0  0  0  0  0  0  0  0  0  0
  2  5  1  0
  2  1  1  1
  3  2  1  0
  4  3  1  0
  5  6  2  0
  8  7  1  6
  8  9  1  0
  8 10  1  0
 10 11  1  6
 11  5  1  0
 12 13  2  0
 12 10  1  0
 14 12  1  0
 15 14  1  0
 15 22  1  0
 15 16  1  6
 17 21  1  0
 17 16  1  0
 18 17  2  0
 19 18  1  0
 19 20  1  0
 20 21  2  0
 22 24  1  0
 23 22  2  0
M  END
$$$$
