CVH.pdb
     RDKit          3D

 24 24  0  0  1  0  0  0  0  0999 V2000
   16.4946  -16.1263  -15.4777 N   0  0  0  0  0  0  0  0  0  0  0  0
   16.9481  -14.9995  -14.7059 C   0  0  1  0  0  0  0  0  0  0  0  0
   18.3696  -15.1551  -14.2060 C   0  0  0  0  0  0  0  0  0  0  0  0
   18.2983  -16.1663  -12.6902 S   0  0  0  0  0  0  0  0  0  0  0  0
   16.7660  -13.7156  -15.4382 C   0  0  0  0  0  0  0  0  0  0  0  0
   17.0813  -13.5897  -16.6456 O   0  0  0  0  0  0  0  0  0  0  0  0
   13.9209  -11.6039  -16.7145 C   0  0  0  0  0  0  0  0  0  0  0  0
   14.6428  -10.8575  -15.6150 C   0  0  2  0  0  0  0  0  0  0  0  0
   14.6273   -9.3845  -15.9500 C   0  0  0  0  0  0  0  0  0  0  0  0
   16.0552  -11.2966  -15.4416 C   0  0  2  0  0  0  0  0  0  0  0  0
   16.2233  -12.5635  -14.7961 N   0  0  0  0  0  0  0  0  0  0  0  0
   16.9041  -10.2331  -14.7962 C   0  0  0  0  0  0  0  0  0  0  0  0
   16.7934  -10.0594  -13.5645 O   0  0  0  0  0  0  0  0  0  0  0  0
   17.8135   -9.4264  -15.5067 N   0  0  0  0  0  0  0  0  0  0  0  0
   18.6759   -8.4435  -14.9374 C   0  0  1  0  0  0  0  0  0  0  0  0
   19.6823   -7.8313  -15.8444 C   0  0  0  0  0  0  0  0  0  0  0  0
   20.5567   -6.8705  -15.1324 C   0  0  0  0  0  0  0  0  0  0  0  0
   21.7745   -7.1754  -14.5855 C   0  0  0  0  0  0  0  0  0  0  0  0
   22.2560   -6.0461  -14.0457 N   0  0  0  0  0  0  0  0  0  0  0  0
   21.3736   -5.0624  -14.2443 C   0  0  0  0  0  0  0  0  0  0  0  0
   20.3012   -5.5738  -14.9279 N   0  0  0  0  0  0  0  0  0  0  0  0
   17.9170   -7.3388  -14.2779 C   0  0  0  0  0  0  0  0  0  0  0  0
   17.0023   -6.7836  -14.9324 O   0  0  0  0  0  0  0  0  0  0  0  0
   18.1815   -6.9091  -12.9883 O   0  0  0  0  0  0  0  0  0  0  0  0
  2  5  1  0
  2  1  1  6
  3  2  1  0
  4  3  1  0
  5  6  2  0
  8  7  1  6
  8  9  1  0
  8 10  1  0
 10 11  1  1
 11  5  1  0
 12 13  2  0
 12 10  1  0
 14 12  1  0
 15 14  1  0
 15 22  1  0
 15 16  1  6
 17 21  1  0
 17 16  1  0
 18 17  2  0
 19 18  1  0
 19 20  1  0
 20 21  2  0
 22 24  1  0
 23 22  2  0
M  END
$$$$
