CVH.pdb
     RDKit          3D

 24 24  0  0  1  0  0  0  0  0999 V2000
   22.2339  -11.7992  -19.7873 N   0  0  0  0  0  0  0  0  0  0  0  0
   22.3127  -10.4369  -19.3302 C   0  0  1  0  0  0  0  0  0  0  0  0
   21.7904   -9.4391  -20.3434 C   0  0  0  0  0  0  0  0  0  0  0  0
   22.9299   -9.4721  -21.7666 S   0  0  0  0  0  0  0  0  0  0  0  0
   21.6604  -10.2577  -18.0035 C   0  0  0  0  0  0  0  0  0  0  0  0
   20.5176  -10.7129  -17.7590 O   0  0  0  0  0  0  0  0  0  0  0  0
   22.8593  -11.0718  -14.4057 C   0  0  0  0  0  0  0  0  0  0  0  0
   22.5077   -9.6032  -14.4879 C   0  0  2  0  0  0  0  0  0  0  0  0
   21.7318   -9.2293  -13.2467 C   0  0  0  0  0  0  0  0  0  0  0  0
   21.6907   -9.2650  -15.6861 C   0  0  2  0  0  0  0  0  0  0  0  0
   22.3082   -9.5552  -16.9449 N   0  0  0  0  0  0  0  0  0  0  0  0
   21.1744   -7.8509  -15.6393 C   0  0  0  0  0  0  0  0  0  0  0  0
   22.0070   -6.9230  -15.5667 O   0  0  0  0  0  0  0  0  0  0  0  0
   19.8060   -7.5211  -15.6728 N   0  0  0  0  0  0  0  0  0  0  0  0
   19.2659   -6.2018  -15.6292 C   0  0  1  0  0  0  0  0  0  0  0  0
   18.7941   -5.6297  -16.9177 C   0  0  0  0  0  0  0  0  0  0  0  0
   19.8993   -5.4757  -17.8921 C   0  0  0  0  0  0  0  0  0  0  0  0
   20.7693   -4.4190  -17.9302 C   0  0  0  0  0  0  0  0  0  0  0  0
   21.6244   -4.6507  -18.9370 N   0  0  0  0  0  0  0  0  0  0  0  0
   21.3059   -5.8127  -19.5149 C   0  0  0  0  0  0  0  0  0  0  0  0
   20.2208   -6.3380  -18.8626 N   0  0  0  0  0  0  0  0  0  0  0  0
   18.1574   -6.0769  -14.6357 C   0  0  0  0  0  0  0  0  0  0  0  0
   17.7328   -4.9262  -14.3726 O   0  0  0  0  0  0  0  0  0  0  0  0
   17.5881   -7.1684  -14.0016 O   0  0  0  0  0  0  0  0  0  0  0  0
  2  5  1  0
  2  1  1  6
  3  2  1  0
  4  3  1  0
  5  6  2  0
  8  7  1  1
  8  9  1  0
  8 10  1  0
 10 11  1  6
 11  5  1  0
 12 13  2  0
 12 10  1  0
 14 12  1  0
 15 14  1  0
 15 22  1  0
 15 16  1  6
 17 21  1  0
 17 16  1  0
 18 17  2  0
 19 18  1  0
 19 20  1  0
 20 21  2  0
 22 24  1  0
 23 22  2  0
M  END
$$$$
