CVH.pdb
     RDKit          3D

 24 24  0  0  1  0  0  0  0  0999 V2000
   24.5303  -15.1349  -17.7926 N   0  0  0  0  0  0  0  0  0  0  0  0
   24.5530  -13.6971  -17.8481 C   0  0  1  0  0  0  0  0  0  0  0  0
   24.5370  -13.1569  -19.2633 C   0  0  0  0  0  0  0  0  0  0  0  0
   25.9418  -13.9160  -20.1441 S   0  0  0  0  0  0  0  0  0  0  0  0
   23.4713  -13.0924  -17.0223 C   0  0  0  0  0  0  0  0  0  0  0  0
   22.2949  -13.5264  -17.0486 O   0  0  0  0  0  0  0  0  0  0  0  0
   24.0809  -10.8998  -13.3516 C   0  0  0  0  0  0  0  0  0  0  0  0
   22.8078  -11.4776  -13.9282 C   0  0  2  0  0  0  0  0  0  0  0  0
   22.7602  -12.9506  -13.5958 C   0  0  0  0  0  0  0  0  0  0  0  0
   22.7094  -11.3144  -15.4052 C   0  0  2  0  0  0  0  0  0  0  0  0
   23.7246  -11.9850  -16.1600 N   0  0  0  0  0  0  0  0  0  0  0  0
   22.5880   -9.8685  -15.8088 C   0  0  0  0  0  0  0  0  0  0  0  0
   23.4626   -9.3930  -16.5629 O   0  0  0  0  0  0  0  0  0  0  0  0
   21.5433   -9.0268  -15.3816 N   0  0  0  0  0  0  0  0  0  0  0  0
   21.2867   -7.7085  -15.8613 C   0  0  1  0  0  0  0  0  0  0  0  0
   21.2970   -7.5198  -17.3359 C   0  0  0  0  0  0  0  0  0  0  0  0
   21.1174   -6.0985  -17.7129 C   0  0  0  0  0  0  0  0  0  0  0  0
   21.8623   -5.0580  -17.2255 C   0  0  0  0  0  0  0  0  0  0  0  0
   21.4075   -3.9410  -17.8122 N   0  0  0  0  0  0  0  0  0  0  0  0
   20.4103   -4.2643  -18.6410 C   0  0  0  0  0  0  0  0  0  0  0  0
   20.2219   -5.6208  -18.5839 N   0  0  0  0  0  0  0  0  0  0  0  0
   20.0034   -7.1546  -15.3344 C   0  0  0  0  0  0  0  0  0  0  0  0
   19.2753   -7.9121  -14.6491 O   0  0  0  0  0  0  0  0  0  0  0  0
   19.5914   -5.8537  -15.5708 O   0  0  0  0  0  0  0  0  0  0  0  0
  2  5  1  0
  2  1  1  6
  3  2  1  0
  4  3  1  0
  5  6  2  0
  8  7  1  6
  8  9  1  0
  8 10  1  0
 10 11  1  6
 11  5  1  0
 12 13  2  0
 12 10  1  0
 14 12  1  0
 15 14  1  0
 15 22  1  0
 15 16  1  6
 17 21  1  0
 17 16  1  0
 18 17  2  0
 19 18  1  0
 19 20  1  0
 20 21  2  0
 22 24  1  0
 23 22  2  0
M  END
$$$$
