CVH.pdb
     RDKit          3D

 24 24  0  0  1  0  0  0  0  0999 V2000
   25.3581  -30.3537    3.5877 N   0  0  0  0  0  0  0  0  0  0  0  0
   26.1109  -31.3189    2.8310 C   0  0  1  0  0  0  0  0  0  0  0  0
   26.8408  -32.3195    3.7034 C   0  0  0  0  0  0  0  0  0  0  0  0
   28.2574  -31.4478    4.4509 S   0  0  0  0  0  0  0  0  0  0  0  0
   25.2704  -32.0001    1.8077 C   0  0  0  0  0  0  0  0  0  0  0  0
   24.0719  -32.2990    2.0253 O   0  0  0  0  0  0  0  0  0  0  0  0
   26.6846  -32.3401   -2.2547 C   0  0  0  0  0  0  0  0  0  0  0  0
   25.2274  -32.4660   -1.8700 C   0  0  2  0  0  0  0  0  0  0  0  0
   24.5921  -31.0981   -1.9571 C   0  0  0  0  0  0  0  0  0  0  0  0
   25.0312  -33.0008   -0.4941 C   0  0  2  0  0  0  0  0  0  0  0  0
   25.7929  -32.3470    0.5268 N   0  0  0  0  0  0  0  0  0  0  0  0
   25.2036  -34.4959   -0.4372 C   0  0  0  0  0  0  0  0  0  0  0  0
   26.3216  -34.9470   -0.1113 O   0  0  0  0  0  0  0  0  0  0  0  0
   24.1733  -35.4093   -0.7315 N   0  0  0  0  0  0  0  0  0  0  0  0
   24.3080  -36.8282   -0.7844 C   0  0  1  0  0  0  0  0  0  0  0  0
   23.2176  -37.6268   -0.1652 C   0  0  0  0  0  0  0  0  0  0  0  0
   23.5303  -39.0748   -0.1541 C   0  0  0  0  0  0  0  0  0  0  0  0
   24.7797  -39.6056    0.0258 C   0  0  0  0  0  0  0  0  0  0  0  0
   24.6490  -40.9397   -0.0159 N   0  0  0  0  0  0  0  0  0  0  0  0
   23.3625  -41.2412   -0.2152 C   0  0  0  0  0  0  0  0  0  0  0  0
   22.6521  -40.0724   -0.3032 N   0  0  0  0  0  0  0  0  0  0  0  0
   24.5098  -37.3257   -2.1783 C   0  0  0  0  0  0  0  0  0  0  0  0
   23.9557  -36.6964   -3.1114 O   0  0  0  0  0  0  0  0  0  0  0  0
   25.2746  -38.4409   -2.4764 O   0  0  0  0  0  0  0  0  0  0  0  0
  2  5  1  0
  2  1  1  1
  3  2  1  0
  4  3  1  0
  5  6  2  0
  8  7  1  1
  8  9  1  0
  8 10  1  0
 10 11  1  1
 11  5  1  0
 12 13  2  0
 12 10  1  0
 14 12  1  0
 15 14  1  0
 15 22  1  0
 15 16  1  6
 17 21  1  0
 17 16  1  0
 18 17  2  0
 19 18  1  0
 19 20  1  0
 20 21  2  0
 22 24  1  0
 23 22  2  0
M  END
$$$$
