CVH.pdb
     RDKit          3D

 24 24  0  0  1  0  0  0  0  0999 V2000
   24.6143  -15.2029  -15.1080 N   0  0  0  0  0  0  0  0  0  0  0  0
   23.7535  -14.3195  -15.8493 C   0  0  1  0  0  0  0  0  0  0  0  0
   22.3076  -14.7714  -15.8622 C   0  0  0  0  0  0  0  0  0  0  0  0
   22.2814  -16.4695  -16.5264 S   0  0  0  0  0  0  0  0  0  0  0  0
   23.8786  -12.9082  -15.3906 C   0  0  0  0  0  0  0  0  0  0  0  0
   23.6729  -12.5771  -14.1985 O   0  0  0  0  0  0  0  0  0  0  0  0
   26.8834  -10.5899  -15.6541 C   0  0  0  0  0  0  0  0  0  0  0  0
   25.6987   -9.8760  -16.2657 C   0  0  2  0  0  0  0  0  0  0  0  0
   25.7098   -8.4420  -15.7903 C   0  0  0  0  0  0  0  0  0  0  0  0
   24.3934  -10.4935  -15.9014 C   0  0  2  0  0  0  0  0  0  0  0  0
   24.2386  -11.8625  -16.2911 N   0  0  0  0  0  0  0  0  0  0  0  0
   23.2252   -9.6571  -16.3528 C   0  0  0  0  0  0  0  0  0  0  0  0
   23.0694   -9.4775  -17.5788 O   0  0  0  0  0  0  0  0  0  0  0  0
   22.3018   -9.0686  -15.4677 N   0  0  0  0  0  0  0  0  0  0  0  0
   21.1666   -8.2916  -15.8436 C   0  0  1  0  0  0  0  0  0  0  0  0
   20.0702   -8.1835  -14.8454 C   0  0  0  0  0  0  0  0  0  0  0  0
   18.9221   -7.4059  -15.3668 C   0  0  0  0  0  0  0  0  0  0  0  0
   18.8268   -6.9056  -16.6380 C   0  0  0  0  0  0  0  0  0  0  0  0
   17.6441   -6.2791  -16.7254 N   0  0  0  0  0  0  0  0  0  0  0  0
   17.0145   -6.3799  -15.5510 C   0  0  0  0  0  0  0  0  0  0  0  0
   17.8128   -7.0879  -14.6907 N   0  0  0  0  0  0  0  0  0  0  0  0
   21.5423   -6.9094  -16.2675 C   0  0  0  0  0  0  0  0  0  0  0  0
   20.7447   -6.2860  -17.0083 O   0  0  0  0  0  0  0  0  0  0  0  0
   22.7225   -6.2976  -15.8795 O   0  0  0  0  0  0  0  0  0  0  0  0
  2  5  1  0
  2  1  1  1
  3  2  1  0
  4  3  1  0
  5  6  2  0
  8  7  1  1
  8  9  1  0
  8 10  1  0
 10 11  1  6
 11  5  1  0
 12 13  2  0
 12 10  1  0
 14 12  1  0
 15 14  1  0
 15 22  1  0
 15 16  1  1
 17 21  1  0
 17 16  1  0
 18 17  2  0
 19 18  1  0
 19 20  1  0
 20 21  2  0
 22 24  1  0
 23 22  2  0
M  END
$$$$
