CVH.pdb
     RDKit          3D

 24 24  0  0  1  0  0  0  0  0999 V2000
   28.7989  -20.3144  -15.7914 N   0  0  0  0  0  0  0  0  0  0  0  0
   27.9678  -19.5701  -14.8825 C   0  0  1  0  0  0  0  0  0  0  0  0
   27.3800  -18.3195  -15.5034 C   0  0  0  0  0  0  0  0  0  0  0  0
   28.7713  -17.2035  -15.8832 S   0  0  0  0  0  0  0  0  0  0  0  0
   26.9109  -20.4229  -14.2714 C   0  0  0  0  0  0  0  0  0  0  0  0
   26.4668  -21.4445  -14.8478 O   0  0  0  0  0  0  0  0  0  0  0  0
   24.9689  -19.6573  -10.2202 C   0  0  0  0  0  0  0  0  0  0  0  0
   25.2301  -20.9476  -10.9646 C   0  0  2  0  0  0  0  0  0  0  0  0
   26.5854  -21.4705  -10.5496 C   0  0  0  0  0  0  0  0  0  0  0  0
   25.2109  -20.7818  -12.4444 C   0  0  2  0  0  0  0  0  0  0  0  0
   26.3511  -20.1145  -12.9964 N   0  0  0  0  0  0  0  0  0  0  0  0
   23.9247  -20.1661  -12.9290 C   0  0  0  0  0  0  0  0  0  0  0  0
   23.9853  -19.0708  -13.5259 O   0  0  0  0  0  0  0  0  0  0  0  0
   22.6609  -20.7588  -12.7449 N   0  0  0  0  0  0  0  0  0  0  0  0
   21.6760  -20.9522  -13.7581 C   0  0  1  0  0  0  0  0  0  0  0  0
   22.0949  -21.7214  -14.9594 C   0  0  0  0  0  0  0  0  0  0  0  0
   22.6664  -20.8434  -16.0068 C   0  0  0  0  0  0  0  0  0  0  0  0
   22.7589  -19.4798  -15.9220 C   0  0  0  0  0  0  0  0  0  0  0  0
   23.3398  -19.0547  -17.0537 N   0  0  0  0  0  0  0  0  0  0  0  0
   23.6049  -20.1123  -17.8263 C   0  0  0  0  0  0  0  0  0  0  0  0
   23.1839  -21.2419  -17.1739 N   0  0  0  0  0  0  0  0  0  0  0  0
   20.4287  -21.5759  -13.2230 C   0  0  0  0  0  0  0  0  0  0  0  0
   20.5121  -22.7287  -12.7354 O   0  0  0  0  0  0  0  0  0  0  0  0
   19.1993  -20.9390  -13.2446 O   0  0  0  0  0  0  0  0  0  0  0  0
  2  5  1  0
  2  1  1  6
  3  2  1  0
  4  3  1  0
  5  6  2  0
  8  7  1  1
  8  9  1  0
  8 10  1  0
 10 11  1  1
 11  5  1  0
 12 13  2  0
 12 10  1  0
 14 12  1  0
 15 14  1  0
 15 22  1  0
 15 16  1  6
 17 21  1  0
 17 16  1  0
 18 17  2  0
 19 18  1  0
 19 20  1  0
 20 21  2  0
 22 24  1  0
 23 22  2  0
M  END
$$$$
