CVH.pdb
     RDKit          3D

 24 24  0  0  1  0  0  0  0  0999 V2000
   22.1725  -14.5299  -16.9701 N   0  0  0  0  0  0  0  0  0  0  0  0
   21.5302  -14.3698  -18.2479 C   0  0  1  0  0  0  0  0  0  0  0  0
   20.7384  -15.5898  -18.6719 C   0  0  0  0  0  0  0  0  0  0  0  0
   21.8715  -17.0168  -18.6013 S   0  0  0  0  0  0  0  0  0  0  0  0
   20.6983  -13.1357  -18.3004 C   0  0  0  0  0  0  0  0  0  0  0  0
   20.0918  -12.7879  -19.3417 O   0  0  0  0  0  0  0  0  0  0  0  0
   18.5163  -11.4077  -14.9480 C   0  0  0  0  0  0  0  0  0  0  0  0
   18.3968  -11.3263  -16.4534 C   0  0  2  0  0  0  0  0  0  0  0  0
   17.7736  -12.6092  -16.9516 C   0  0  0  0  0  0  0  0  0  0  0  0
   19.7076  -11.1325  -17.1332 C   0  0  2  0  0  0  0  0  0  0  0  0
   20.5536  -12.2873  -17.1632 N   0  0  0  0  0  0  0  0  0  0  0  0
   20.4425   -9.9250  -16.6134 C   0  0  0  0  0  0  0  0  0  0  0  0
   21.3501  -10.1050  -15.7746 O   0  0  0  0  0  0  0  0  0  0  0  0
   20.1608   -8.6075  -17.0223 N   0  0  0  0  0  0  0  0  0  0  0  0
   20.7946   -7.4289  -16.5293 C   0  0  1  0  0  0  0  0  0  0  0  0
   20.5166   -6.1646  -17.2604 C   0  0  0  0  0  0  0  0  0  0  0  0
   21.3179   -5.0345  -16.7357 C   0  0  0  0  0  0  0  0  0  0  0  0
   20.9617   -4.2477  -15.6731 C   0  0  0  0  0  0  0  0  0  0  0  0
   21.9446   -3.3515  -15.5014 N   0  0  0  0  0  0  0  0  0  0  0  0
   22.8885   -3.5645  -16.4231 C   0  0  0  0  0  0  0  0  0  0  0  0
   22.5011   -4.6224  -17.2037 N   0  0  0  0  0  0  0  0  0  0  0  0
   20.5095   -7.1966  -15.0815 C   0  0  0  0  0  0  0  0  0  0  0  0
   19.3269   -7.3366  -14.6870 O   0  0  0  0  0  0  0  0  0  0  0  0
   21.4877   -6.8369  -14.1697 O   0  0  0  0  0  0  0  0  0  0  0  0
  2  5  1  0
  2  1  1  1
  3  2  1  0
  4  3  1  0
  5  6  2  0
  8  7  1  1
  8  9  1  0
  8 10  1  0
 10 11  1  1
 11  5  1  0
 12 13  2  0
 12 10  1  0
 14 12  1  0
 15 14  1  0
 15 22  1  0
 15 16  1  6
 17 21  1  0
 17 16  1  0
 18 17  2  0
 19 18  1  0
 19 20  1  0
 20 21  2  0
 22 24  1  0
 23 22  2  0
M  END
$$$$
