YCT.pdb
     RDKit          3D

 26 26  0  0  1  0  0  0  0  0999 V2000
   19.4870  -18.8435  -16.0278 O   0  0  0  0  0  0  0  0  0  0  0  0
   19.8202  -17.4939  -16.0795 C   0  0  0  0  0  0  0  0  0  0  0  0
   20.9011  -16.9935  -15.3852 C   0  0  0  0  0  0  0  0  0  0  0  0
   21.2460  -15.6610  -15.4244 C   0  0  0  0  0  0  0  0  0  0  0  0
   20.5059  -14.7491  -16.1784 C   0  0  0  0  0  0  0  0  0  0  0  0
   20.9017  -13.3209  -16.1998 C   0  0  0  0  0  0  0  0  0  0  0  0
   21.3353  -13.0001  -17.6092 C   0  0  2  0  0  0  0  0  0  0  0  0
   22.6082  -13.6216  -17.9210 N   0  0  0  0  0  0  0  0  0  0  0  0
   21.5119  -11.5304  -17.7372 C   0  0  0  0  0  0  0  0  0  0  0  0
   22.6052  -10.9632  -17.4834 O   0  0  0  0  0  0  0  0  0  0  0  0
   19.4270  -15.2472  -16.8718 C   0  0  0  0  0  0  0  0  0  0  0  0
   19.0808  -16.5990  -16.8294 C   0  0  0  0  0  0  0  0  0  0  0  0
   20.4272  -10.6844  -18.1623 N   0  0  0  0  0  0  0  0  0  0  0  0
   20.6255   -9.2677  -18.4065 C   0  0  1  0  0  0  0  0  0  0  0  0
   19.8850   -8.9014  -19.6851 C   0  0  0  0  0  0  0  0  0  0  0  0
   20.8308   -9.6038  -21.0616 S   0  0  0  0  0  0  0  0  0  0  0  0
   20.0285   -8.4869  -17.2740 C   0  0  0  0  0  0  0  0  0  0  0  0
   18.8183   -8.6665  -16.9702 O   0  0  0  0  0  0  0  0  0  0  0  0
   21.1397   -8.7414  -13.9046 C   0  0  0  0  0  0  0  0  0  0  0  0
   21.0455   -7.2683  -14.1740 C   0  0  1  0  0  0  0  0  0  0  0  0
   22.2910   -6.6860  -14.3922 O   0  0  0  0  0  0  0  0  0  0  0  0
   20.1857   -6.9339  -15.3708 C   0  0  2  0  0  0  0  0  0  0  0  0
   20.7590   -7.5514  -16.5230 N   0  0  0  0  0  0  0  0  0  0  0  0
   19.9351   -5.5022  -15.5183 C   0  0  0  0  0  0  0  0  0  0  0  0
   19.1747   -4.8299  -14.5824 O   0  0  0  0  0  0  0  0  0  0  0  0
   20.4071   -4.8713  -16.4938 O   0  0  0  0  0  0  0  0  0  0  0  0
  2  3  2  0
  2  1  1  0
  4  3  1  0
  5  4  2  0
  6  5  1  0
  7  6  1  0
  7  9  1  0
  7  8  1  1
  9 10  2  0
 11  5  1  0
 11 12  2  0
 12  2  1  0
 13  9  1  0
 13 14  1  0
 14 15  1  6
 15 16  1  0
 17 14  1  0
 17 23  1  0
 18 17  2  0
 20 19  1  6
 21 20  1  0
 22 24  1  0
 22 23  1  6
 22 20  1  0
 24 25  1  0
 26 24  2  0
M  END
$$$$
