YCT.pdb
     RDKit          3D

 26 26  0  0  1  0  0  0  0  0999 V2000
   20.5539  -16.6660  -17.6796 O   0  0  0  0  0  0  0  0  0  0  0  0
   21.2659  -17.4430  -16.7717 C   0  0  0  0  0  0  0  0  0  0  0  0
   20.6856  -18.5217  -16.1388 C   0  0  0  0  0  0  0  0  0  0  0  0
   21.3746  -19.3021  -15.2375 C   0  0  0  0  0  0  0  0  0  0  0  0
   22.7068  -19.0300  -14.9226 C   0  0  0  0  0  0  0  0  0  0  0  0
   23.4213  -19.8879  -13.9478 C   0  0  0  0  0  0  0  0  0  0  0  0
   24.6332  -20.4476  -14.6516 C   0  0  2  0  0  0  0  0  0  0  0  0
   24.2507  -21.3887  -15.6868 N   0  0  0  0  0  0  0  0  0  0  0  0
   25.4678  -21.1818  -13.6658 C   0  0  0  0  0  0  0  0  0  0  0  0
   25.0108  -22.1286  -12.9755 O   0  0  0  0  0  0  0  0  0  0  0  0
   23.2870  -17.9539  -15.5535 C   0  0  0  0  0  0  0  0  0  0  0  0
   22.5849  -17.1652  -16.4668 C   0  0  0  0  0  0  0  0  0  0  0  0
   26.8501  -20.8371  -13.4571 N   0  0  0  0  0  0  0  0  0  0  0  0
   27.5530  -21.2322  -12.2504 C   0  0  1  0  0  0  0  0  0  0  0  0
   29.0083  -20.8090  -12.3926 C   0  0  0  0  0  0  0  0  0  0  0  0
   29.8507  -21.2968  -10.8645 S   0  0  0  0  0  0  0  0  0  0  0  0
   26.9617  -20.5064  -11.0790 C   0  0  0  0  0  0  0  0  0  0  0  0
   26.6986  -19.2780  -11.1821 O   0  0  0  0  0  0  0  0  0  0  0  0
   23.8482  -20.7017   -9.3115 C   0  0  0  0  0  0  0  0  0  0  0  0
   24.9176  -20.8733   -8.2731 C   0  0  1  0  0  0  0  0  0  0  0  0
   25.0826  -22.2024   -7.8931 O   0  0  0  0  0  0  0  0  0  0  0  0
   26.2705  -20.3705   -8.7204 C   0  0  2  0  0  0  0  0  0  0  0  0
   26.6818  -21.1343   -9.8540 N   0  0  0  0  0  0  0  0  0  0  0  0
   27.2530  -20.3215   -7.6403 C   0  0  0  0  0  0  0  0  0  0  0  0
   27.0332  -19.5211   -6.5370 O   0  0  0  0  0  0  0  0  0  0  0  0
   28.3029  -21.0041   -7.7043 O   0  0  0  0  0  0  0  0  0  0  0  0
  2  3  2  0
  2  1  1  0
  4  3  1  0
  5  4  2  0
  6  5  1  0
  7  6  1  0
  7  9  1  0
  7  8  1  6
  9 10  2  0
 11  5  1  0
 11 12  2  0
 12  2  1  0
 13  9  1  0
 13 14  1  0
 14 15  1  6
 15 16  1  0
 17 14  1  0
 17 23  1  0
 18 17  2  0
 20 19  1  6
 21 20  1  0
 22 24  1  0
 22 23  1  6
 22 20  1  0
 24 25  1  0
 26 24  2  0
M  END
$$$$
