YCT.pdb
     RDKit          3D

 26 26  0  0  1  0  0  0  0  0999 V2000
   25.2475  -36.0779  -14.1575 O   0  0  0  0  0  0  0  0  0  0  0  0
   25.3741  -35.2388  -13.0554 C   0  0  0  0  0  0  0  0  0  0  0  0
   25.7910  -35.7178  -11.8316 C   0  0  0  0  0  0  0  0  0  0  0  0
   25.9222  -34.9023  -10.7298 C   0  0  0  0  0  0  0  0  0  0  0  0
   25.6345  -33.5388  -10.8067 C   0  0  0  0  0  0  0  0  0  0  0  0
   25.7846  -32.6872   -9.6029 C   0  0  0  0  0  0  0  0  0  0  0  0
   24.5646  -32.9120   -8.7436 C   0  0  2  0  0  0  0  0  0  0  0  0
   23.5058  -31.9801   -9.0815 N   0  0  0  0  0  0  0  0  0  0  0  0
   24.9268  -32.6808   -7.3213 C   0  0  0  0  0  0  0  0  0  0  0  0
   24.8359  -31.5477   -6.7832 O   0  0  0  0  0  0  0  0  0  0  0  0
   25.2184  -33.0595  -12.0273 C   0  0  0  0  0  0  0  0  0  0  0  0
   25.0868  -33.8897  -13.1420 C   0  0  0  0  0  0  0  0  0  0  0  0
   25.4019  -33.7558   -6.4897 N   0  0  0  0  0  0  0  0  0  0  0  0
   25.6260  -33.5685   -5.0681 C   0  0  1  0  0  0  0  0  0  0  0  0
   24.2710  -33.3979   -4.3956 C   0  0  0  0  0  0  0  0  0  0  0  0
   24.5887  -33.1154   -2.6344 S   0  0  0  0  0  0  0  0  0  0  0  0
   26.2802  -34.7966   -4.5091 C   0  0  0  0  0  0  0  0  0  0  0  0
   25.6978  -35.9095   -4.6154 O   0  0  0  0  0  0  0  0  0  0  0  0
   29.7739  -36.0160   -5.2959 C   0  0  0  0  0  0  0  0  0  0  0  0
   29.5827  -35.9753   -3.8082 C   0  0  1  0  0  0  0  0  0  0  0  0
   30.1723  -34.8567   -3.2259 O   0  0  0  0  0  0  0  0  0  0  0  0
   28.1300  -35.9758   -3.3925 C   0  0  2  0  0  0  0  0  0  0  0  0
   27.5272  -34.7705   -3.8631 N   0  0  0  0  0  0  0  0  0  0  0  0
   27.9388  -36.2260   -1.9660 C   0  0  0  0  0  0  0  0  0  0  0  0
   28.2652  -37.4542   -1.4262 O   0  0  0  0  0  0  0  0  0  0  0  0
   27.4778  -35.3302   -1.2194 O   0  0  0  0  0  0  0  0  0  0  0  0
  2  3  2  0
  2  1  1  0
  4  3  1  0
  5  4  2  0
  6  5  1  0
  7  6  1  0
  7  9  1  0
  7  8  1  6
  9 10  2  0
 11  5  1  0
 11 12  2  0
 12  2  1  0
 13  9  1  0
 13 14  1  0
 14 15  1  1
 15 16  1  0
 17 14  1  0
 17 23  1  0
 18 17  2  0
 20 19  1  6
 21 20  1  0
 22 24  1  0
 22 23  1  1
 22 20  1  0
 24 25  1  0
 26 24  2  0
M  END
$$$$
