YCT.pdb
     RDKit          3D

 26 26  0  0  1  0  0  0  0  0999 V2000
   29.7849  -15.0870  -17.9363 O   0  0  0  0  0  0  0  0  0  0  0  0
   28.9593  -16.0564  -17.3762 C   0  0  0  0  0  0  0  0  0  0  0  0
   28.7451  -17.2664  -18.0013 C   0  0  0  0  0  0  0  0  0  0  0  0
   27.9315  -18.2377  -17.4621 C   0  0  0  0  0  0  0  0  0  0  0  0
   27.2808  -18.0351  -16.2442 C   0  0  0  0  0  0  0  0  0  0  0  0
   26.4108  -19.0994  -15.6900 C   0  0  0  0  0  0  0  0  0  0  0  0
   27.1998  -19.8041  -14.6139 C   0  0  2  0  0  0  0  0  0  0  0  0
   28.1776  -20.7089  -15.1875 N   0  0  0  0  0  0  0  0  0  0  0  0
   26.2700  -20.6163  -13.7871 C   0  0  0  0  0  0  0  0  0  0  0  0
   25.8786  -21.7566  -14.1448 O   0  0  0  0  0  0  0  0  0  0  0  0
   27.4937  -16.8281  -15.6192 C   0  0  0  0  0  0  0  0  0  0  0  0
   28.3196  -15.8460  -16.1693 C   0  0  0  0  0  0  0  0  0  0  0  0
   25.7728  -20.1270  -12.5276 N   0  0  0  0  0  0  0  0  0  0  0  0
   24.8902  -20.9294  -11.7010 C   0  0  1  0  0  0  0  0  0  0  0  0
   25.1026  -20.5211  -10.2500 C   0  0  0  0  0  0  0  0  0  0  0  0
   26.6847  -21.2333   -9.7281 S   0  0  0  0  0  0  0  0  0  0  0  0
   23.4678  -20.6336  -12.0722 C   0  0  0  0  0  0  0  0  0  0  0  0
   23.0417  -19.4500  -11.9918 O   0  0  0  0  0  0  0  0  0  0  0  0
   21.8870  -21.8546  -15.3430 C   0  0  0  0  0  0  0  0  0  0  0  0
   20.9558  -22.1083  -14.1942 C   0  0  1  0  0  0  0  0  0  0  0  0
   20.9633  -23.4394  -13.7864 O   0  0  0  0  0  0  0  0  0  0  0  0
   21.2686  -21.2712  -12.9757 C   0  0  2  0  0  0  0  0  0  0  0  0
   22.5720  -21.6224  -12.5114 N   0  0  0  0  0  0  0  0  0  0  0  0
   20.2288  -21.3334  -11.9514 C   0  0  0  0  0  0  0  0  0  0  0  0
   20.4608  -22.0013  -10.7655 O   0  0  0  0  0  0  0  0  0  0  0  0
   19.1182  -20.7822  -12.1385 O   0  0  0  0  0  0  0  0  0  0  0  0
  2  3  2  0
  2  1  1  0
  4  3  1  0
  5  4  2  0
  6  5  1  0
  7  6  1  0
  7  9  1  0
  7  8  1  6
  9 10  2  0
 11  5  1  0
 11 12  2  0
 12  2  1  0
 13  9  1  0
 13 14  1  0
 14 15  1  1
 15 16  1  0
 17 14  1  0
 17 23  1  0
 18 17  2  0
 20 19  1  6
 21 20  1  0
 22 24  1  0
 22 23  1  1
 22 20  1  0
 24 25  1  0
 26 24  2  0
M  END
$$$$
