YCT.pdb
     RDKit          3D

 26 26  0  0  1  0  0  0  0  0999 V2000
   23.7560  -13.9642  -19.8293 O   0  0  0  0  0  0  0  0  0  0  0  0
   23.2798  -15.0241  -19.0646 C   0  0  0  0  0  0  0  0  0  0  0  0
   23.0718  -16.2709  -19.6150 C   0  0  0  0  0  0  0  0  0  0  0  0
   22.6011  -17.3317  -18.8738 C   0  0  0  0  0  0  0  0  0  0  0  0
   22.3107  -17.1869  -17.5164 C   0  0  0  0  0  0  0  0  0  0  0  0
   21.8046  -18.3473  -16.7455 C   0  0  0  0  0  0  0  0  0  0  0  0
   22.8867  -18.7398  -15.7697 C   0  0  2  0  0  0  0  0  0  0  0  0
   24.0552  -19.2516  -16.4599 N   0  0  0  0  0  0  0  0  0  0  0  0
   22.3751  -19.8240  -14.8920 C   0  0  0  0  0  0  0  0  0  0  0  0
   22.4594  -21.0379  -15.2095 O   0  0  0  0  0  0  0  0  0  0  0  0
   22.5179  -15.9432  -16.9658 C   0  0  0  0  0  0  0  0  0  0  0  0
   22.9954  -14.8704  -17.7209 C   0  0  0  0  0  0  0  0  0  0  0  0
   21.7549  -19.5275  -13.6269 N   0  0  0  0  0  0  0  0  0  0  0  0
   21.2880  -20.5843  -12.7487 C   0  0  1  0  0  0  0  0  0  0  0  0
   21.2964  -20.0507  -11.3229 C   0  0  0  0  0  0  0  0  0  0  0  0
   19.9910  -18.7985  -11.2212 S   0  0  0  0  0  0  0  0  0  0  0  0
   19.8768  -20.9368  -13.1134 C   0  0  0  0  0  0  0  0  0  0  0  0
   19.1506  -20.0744  -13.6773 O   0  0  0  0  0  0  0  0  0  0  0  0
   18.7341  -23.4880  -15.4002 C   0  0  0  0  0  0  0  0  0  0  0  0
   17.9669  -23.6963  -14.1276 C   0  0  1  0  0  0  0  0  0  0  0  0
   18.4589  -24.7607  -13.3772 O   0  0  0  0  0  0  0  0  0  0  0  0
   17.9653  -22.4836  -13.2260 C   0  0  2  0  0  0  0  0  0  0  0  0
   19.3137  -22.1974  -12.8549 N   0  0  0  0  0  0  0  0  0  0  0  0
   17.0446  -22.6052  -12.0983 C   0  0  0  0  0  0  0  0  0  0  0  0
   15.6809  -22.6200  -12.3133 O   0  0  0  0  0  0  0  0  0  0  0  0
   17.4826  -22.6972  -10.9269 O   0  0  0  0  0  0  0  0  0  0  0  0
  2  3  2  0
  2  1  1  0
  4  3  1  0
  5  4  2  0
  6  5  1  0
  7  6  1  0
  7  9  1  0
  7  8  1  6
  9 10  2  0
 11  5  1  0
 11 12  2  0
 12  2  1  0
 13  9  1  0
 13 14  1  0
 14 15  1  1
 15 16  1  0
 17 14  1  0
 17 23  1  0
 18 17  2  0
 20 19  1  6
 21 20  1  0
 22 24  1  0
 22 23  1  1
 22 20  1  0
 24 25  1  0
 26 24  2  0
M  END
$$$$
