YCT.pdb
     RDKit          3D

 26 26  0  0  1  0  0  0  0  0999 V2000
   16.6105  -13.6613  -21.7761 O   0  0  0  0  0  0  0  0  0  0  0  0
   16.9625  -12.9076  -20.6612 C   0  0  0  0  0  0  0  0  0  0  0  0
   16.4073  -13.1532  -19.4234 C   0  0  0  0  0  0  0  0  0  0  0  0
   16.7436  -12.4177  -18.3088 C   0  0  0  0  0  0  0  0  0  0  0  0
   17.6725  -11.3790  -18.3867 C   0  0  0  0  0  0  0  0  0  0  0  0
   18.0130  -10.6050  -17.1695 C   0  0  0  0  0  0  0  0  0  0  0  0
   19.4226  -10.9804  -16.7829 C   0  0  2  0  0  0  0  0  0  0  0  0
   19.5072  -12.3765  -16.3988 N   0  0  0  0  0  0  0  0  0  0  0  0
   19.8339  -10.1679  -15.6089 C   0  0  0  0  0  0  0  0  0  0  0  0
   19.8675  -10.6429  -14.4450 O   0  0  0  0  0  0  0  0  0  0  0  0
   18.2273  -11.1331  -19.6214 C   0  0  0  0  0  0  0  0  0  0  0  0
   17.8838  -11.8812  -20.7489 C   0  0  0  0  0  0  0  0  0  0  0  0
   20.2157   -8.7874  -15.7558 N   0  0  0  0  0  0  0  0  0  0  0  0
   20.7030   -8.0146  -14.6282 C   0  0  1  0  0  0  0  0  0  0  0  0
   22.0159   -8.6313  -14.1661 C   0  0  0  0  0  0  0  0  0  0  0  0
   22.6083   -7.6301  -12.7771 S   0  0  0  0  0  0  0  0  0  0  0  0
   20.9726   -6.6094  -15.0770 C   0  0  0  0  0  0  0  0  0  0  0  0
   21.8239   -6.4030  -15.9834 O   0  0  0  0  0  0  0  0  0  0  0  0
   18.1216   -3.9141  -15.6694 C   0  0  0  0  0  0  0  0  0  0  0  0
   19.2800   -3.3767  -14.8817 C   0  0  1  0  0  0  0  0  0  0  0  0
   19.0148   -3.3194  -13.5162 O   0  0  0  0  0  0  0  0  0  0  0  0
   20.5449   -4.1855  -15.0524 C   0  0  2  0  0  0  0  0  0  0  0  0
   20.3156   -5.4944  -14.5311 N   0  0  0  0  0  0  0  0  0  0  0  0
   21.7299   -3.5229  -14.5129 C   0  0  0  0  0  0  0  0  0  0  0  0
   22.1741   -2.3372  -15.0635 O   0  0  0  0  0  0  0  0  0  0  0  0
   22.3536   -4.0230  -13.5469 O   0  0  0  0  0  0  0  0  0  0  0  0
  2  3  2  0
  2  1  1  0
  4  3  1  0
  5  4  2  0
  6  5  1  0
  7  6  1  0
  7  9  1  0
  7  8  1  1
  9 10  2  0
 11  5  1  0
 11 12  2  0
 12  2  1  0
 13  9  1  0
 13 14  1  0
 14 15  1  6
 15 16  1  0
 17 14  1  0
 17 23  1  0
 18 17  2  0
 20 19  1  6
 21 20  1  0
 22 24  1  0
 22 23  1  1
 22 20  1  0
 24 25  1  0
 26 24  2  0
M  END
$$$$
