GQC.pdb
     RDKit          3D

 20 19  0  0  1  0  0  0  0  0999 V2000
   26.4202  -21.2218  -10.7153 N   0  0  0  0  0  0  0  0  0  0  0  0
   26.8235  -20.9924  -12.0851 C   0  0  0  0  0  0  0  0  0  0  0  0
   25.9211  -19.9845  -12.6818 C   0  0  0  0  0  0  0  0  0  0  0  0
   24.9154  -19.6074  -12.0379 O   0  0  0  0  0  0  0  0  0  0  0  0
   27.2074  -16.0342  -17.3815 N   0  0  0  0  0  0  0  0  0  0  0  0
   27.0416  -15.5624  -16.0628 C   0  0  0  0  0  0  0  0  0  0  0  0
   27.5222  -14.4024  -15.8308 O   0  0  0  0  0  0  0  0  0  0  0  0
   26.3647  -16.3252  -14.9928 C   0  0  0  0  0  0  0  0  0  0  0  0
   25.8215  -17.6041  -15.5803 C   0  0  0  0  0  0  0  0  0  0  0  0
   25.1900  -18.4920  -14.5309 C   0  0  2  0  0  0  0  0  0  0  0  0
   26.1325  -19.4105  -13.9626 N   0  0  0  0  0  0  0  0  0  0  0  0
   24.0460  -19.1730  -15.1839 C   0  0  0  0  0  0  0  0  0  0  0  0
   24.2859  -20.2536  -15.7716 O   0  0  0  0  0  0  0  0  0  0  0  0
   22.7209  -18.6663  -15.1729 N   0  0  0  0  0  0  0  0  0  0  0  0
   21.6657  -19.4191  -15.7839 C   0  0  1  0  0  0  0  0  0  0  0  0
   20.8054  -20.1603  -14.7966 C   0  0  0  0  0  0  0  0  0  0  0  0
   19.3670  -20.9292  -15.5348 S   0  0  0  0  0  0  0  0  0  0  0  0
   20.7850  -18.4777  -16.5175 C   0  0  0  0  0  0  0  0  0  0  0  0
   19.8338  -18.9954  -17.3816 O   0  0  0  0  0  0  0  0  0  0  0  0
   20.8995  -17.2259  -16.3580 O   0  0  0  0  0  0  0  0  0  0  0  0
  2  1  1  0
  2  3  1  0
  3 11  1  0
  4  3  2  0
  6  5  1  0
  6  8  1  0
  7  6  2  0
  9  8  1  0
 10  9  1  6
 11 10  1  0
 12 10  1  0
 12 14  1  0
 13 12  2  0
 14 15  1  0
 15 18  1  0
 15 16  1  1
 16 17  1  0
 18 20  2  0
 18 19  1  0
M  END
$$$$
