GQC.pdb
     RDKit          3D

 20 19  0  0  1  0  0  0  0  0999 V2000
   24.6889  -12.0685  -15.5258 N   0  0  0  0  0  0  0  0  0  0  0  0
   25.0849  -11.0309  -16.4520 C   0  0  0  0  0  0  0  0  0  0  0  0
   24.0150  -10.0119  -16.5070 C   0  0  0  0  0  0  0  0  0  0  0  0
   24.0993   -9.0817  -17.3413 O   0  0  0  0  0  0  0  0  0  0  0  0
   18.1624  -11.0071  -16.2828 N   0  0  0  0  0  0  0  0  0  0  0  0
   18.1766   -9.5968  -16.2794 C   0  0  0  0  0  0  0  0  0  0  0  0
   17.1211   -9.0366  -16.7291 O   0  0  0  0  0  0  0  0  0  0  0  0
   19.3137   -8.7845  -15.7975 C   0  0  0  0  0  0  0  0  0  0  0  0
   20.4631   -9.7062  -15.4730 C   0  0  0  0  0  0  0  0  0  0  0  0
   21.8010   -9.1010  -15.8364 C   0  0  2  0  0  0  0  0  0  0  0  0
   22.8797  -10.0274  -15.6551 N   0  0  0  0  0  0  0  0  0  0  0  0
   21.9504   -7.8766  -15.0134 C   0  0  0  0  0  0  0  0  0  0  0  0
   22.1705   -8.0357  -13.7899 O   0  0  0  0  0  0  0  0  0  0  0  0
   21.8573   -6.5619  -15.5383 N   0  0  0  0  0  0  0  0  0  0  0  0
   22.0179   -5.4348  -14.6681 C   0  0  1  0  0  0  0  0  0  0  0  0
   22.6779   -4.2543  -15.3279 C   0  0  0  0  0  0  0  0  0  0  0  0
   22.7483   -2.7988  -14.2879 S   0  0  0  0  0  0  0  0  0  0  0  0
   20.6739   -4.9957  -14.2200 C   0  0  0  0  0  0  0  0  0  0  0  0
   20.5213   -4.5512  -12.9168 O   0  0  0  0  0  0  0  0  0  0  0  0
   19.6852   -5.0261  -15.0120 O   0  0  0  0  0  0  0  0  0  0  0  0
  2  1  1  0
  2  3  1  0
  3 11  1  0
  4  3  2  0
  6  5  1  0
  6  8  1  0
  7  6  2  0
  9  8  1  0
 10  9  1  1
 11 10  1  0
 12 10  1  0
 12 14  1  0
 13 12  2  0
 14 15  1  0
 15 18  1  0
 15 16  1  6
 16 17  1  0
 18 20  2  0
 18 19  1  0
M  END
$$$$
