GQC.pdb
     RDKit          3D

 20 19  0  0  1  0  0  0  0  0999 V2000
   23.9272   -9.2940  -20.5614 N   0  0  0  0  0  0  0  0  0  0  0  0
   23.8142   -7.8746  -20.3082 C   0  0  0  0  0  0  0  0  0  0  0  0
   22.7111   -7.6512  -19.3494 C   0  0  0  0  0  0  0  0  0  0  0  0
   21.5297   -7.8288  -19.7249 O   0  0  0  0  0  0  0  0  0  0  0  0
   21.2948   -9.8508  -14.8444 N   0  0  0  0  0  0  0  0  0  0  0  0
   20.5673   -8.7091  -14.4490 C   0  0  0  0  0  0  0  0  0  0  0  0
   19.5083   -8.9402  -13.7742 O   0  0  0  0  0  0  0  0  0  0  0  0
   20.9674   -7.3233  -14.7720 C   0  0  0  0  0  0  0  0  0  0  0  0
   22.1697   -7.3670  -15.6823 C   0  0  0  0  0  0  0  0  0  0  0  0
   21.8146   -7.0331  -17.1143 C   0  0  2  0  0  0  0  0  0  0  0  0
   22.9173   -7.2404  -18.0064 N   0  0  0  0  0  0  0  0  0  0  0  0
   21.3299   -5.6317  -17.1156 C   0  0  0  0  0  0  0  0  0  0  0  0
   22.1682   -4.7385  -16.8507 O   0  0  0  0  0  0  0  0  0  0  0  0
   19.9886   -5.2653  -17.3972 N   0  0  0  0  0  0  0  0  0  0  0  0
   19.6200   -3.8809  -17.4274 C   0  0  1  0  0  0  0  0  0  0  0  0
   18.3707   -3.6079  -18.2205 C   0  0  0  0  0  0  0  0  0  0  0  0
   18.4960   -4.0843  -19.9417 S   0  0  0  0  0  0  0  0  0  0  0  0
   19.3656   -3.4352  -16.0357 C   0  0  0  0  0  0  0  0  0  0  0  0
   19.1037   -2.0944  -15.8058 O   0  0  0  0  0  0  0  0  0  0  0  0
   19.3872   -4.2628  -15.0764 O   0  0  0  0  0  0  0  0  0  0  0  0
  2  1  1  0
  2  3  1  0
  3 11  1  0
  4  3  2  0
  6  5  1  0
  6  8  1  0
  7  6  2  0
  9  8  1  0
 10  9  1  1
 11 10  1  0
 12 10  1  0
 12 14  1  0
 13 12  2  0
 14 15  1  0
 15 18  1  0
 15 16  1  6
 16 17  1  0
 18 20  2  0
 18 19  1  0
M  END
$$$$
