GQC.pdb
     RDKit          3D

 20 19  0  0  1  0  0  0  0  0999 V2000
   13.2692  -13.0721  -10.5532 N   0  0  0  0  0  0  0  0  0  0  0  0
   13.2752  -11.9625  -11.4807 C   0  0  0  0  0  0  0  0  0  0  0  0
   14.3974  -11.0637  -11.1362 C   0  0  0  0  0  0  0  0  0  0  0  0
   14.5972  -10.7681   -9.9357 O   0  0  0  0  0  0  0  0  0  0  0  0
   18.9955   -8.8563  -14.9795 N   0  0  0  0  0  0  0  0  0  0  0  0
   18.7355  -10.1908  -14.6045 C   0  0  0  0  0  0  0  0  0  0  0  0
   19.3377  -11.0814  -15.2933 O   0  0  0  0  0  0  0  0  0  0  0  0
   17.8352  -10.5760  -13.4972 C   0  0  0  0  0  0  0  0  0  0  0  0
   17.2692   -9.3230  -12.8761 C   0  0  0  0  0  0  0  0  0  0  0  0
   16.3402   -9.6270  -11.7217 C   0  0  2  0  0  0  0  0  0  0  0  0
   15.2753  -10.5076  -12.1031 N   0  0  0  0  0  0  0  0  0  0  0  0
   15.8527   -8.3216  -11.2144 C   0  0  0  0  0  0  0  0  0  0  0  0
   14.8280   -7.8459  -11.7571 O   0  0  0  0  0  0  0  0  0  0  0  0
   16.4811   -7.6031  -10.1649 N   0  0  0  0  0  0  0  0  0  0  0  0
   15.8856   -6.3967   -9.6717 C   0  0  1  0  0  0  0  0  0  0  0  0
   15.8116   -6.3323   -8.1701 C   0  0  0  0  0  0  0  0  0  0  0  0
   14.8350   -7.6451   -7.4436 S   0  0  0  0  0  0  0  0  0  0  0  0
   16.7116   -5.2502  -10.1226 C   0  0  0  0  0  0  0  0  0  0  0  0
   17.9096   -5.5088  -10.7684 O   0  0  0  0  0  0  0  0  0  0  0  0
   16.3302   -4.0586   -9.9218 O   0  0  0  0  0  0  0  0  0  0  0  0
  2  1  1  0
  2  3  1  0
  3 11  1  0
  4  3  2  0
  6  5  1  0
  6  8  1  0
  7  6  2  0
  9  8  1  0
 10  9  1  6
 11 10  1  0
 12 10  1  0
 12 14  1  0
 13 12  2  0
 14 15  1  0
 15 18  1  0
 15 16  1  1
 16 17  1  0
 18 20  2  0
 18 19  1  0
M  END
$$$$
