GQC.pdb
     RDKit          3D

 20 19  0  0  1  0  0  0  0  0999 V2000
   12.6919  -12.2321  -10.5597 N   0  0  0  0  0  0  0  0  0  0  0  0
   13.6981  -11.8776  -11.5362 C   0  0  0  0  0  0  0  0  0  0  0  0
   14.6753  -10.9684  -10.9002 C   0  0  0  0  0  0  0  0  0  0  0  0
   14.5934  -10.7469   -9.6703 O   0  0  0  0  0  0  0  0  0  0  0  0
   19.9667   -8.3089  -13.3645 N   0  0  0  0  0  0  0  0  0  0  0  0
   19.9102   -7.8845  -12.0207 C   0  0  0  0  0  0  0  0  0  0  0  0
   20.9324   -7.2422  -11.6050 O   0  0  0  0  0  0  0  0  0  0  0  0
   18.7664   -8.1440  -11.1212 C   0  0  0  0  0  0  0  0  0  0  0  0
   17.7655   -9.0074  -11.8484 C   0  0  0  0  0  0  0  0  0  0  0  0
   16.5969   -9.3923  -10.9683 C   0  0  2  0  0  0  0  0  0  0  0  0
   15.7175  -10.3218  -11.6146 N   0  0  0  0  0  0  0  0  0  0  0  0
   15.9190   -8.1298  -10.5871 C   0  0  0  0  0  0  0  0  0  0  0  0
   15.1796   -7.5975  -11.4477 O   0  0  0  0  0  0  0  0  0  0  0  0
   16.0673   -7.5113   -9.3189 N   0  0  0  0  0  0  0  0  0  0  0  0
   15.2510   -6.3843   -8.9766 C   0  0  1  0  0  0  0  0  0  0  0  0
   14.8084   -6.3766   -7.5384 C   0  0  0  0  0  0  0  0  0  0  0  0
   13.9082   -4.9006   -7.0735 S   0  0  0  0  0  0  0  0  0  0  0  0
   16.0416   -5.1497   -9.2019 C   0  0  0  0  0  0  0  0  0  0  0  0
   15.3697   -3.9793   -9.5145 O   0  0  0  0  0  0  0  0  0  0  0  0
   17.3054   -5.1642   -9.1105 O   0  0  0  0  0  0  0  0  0  0  0  0
  2  1  1  0
  2  3  1  0
  3 11  1  0
  4  3  2  0
  6  5  1  0
  6  8  1  0
  7  6  2  0
  9  8  1  0
 10  9  1  6
 11 10  1  0
 12 10  1  0
 12 14  1  0
 13 12  2  0
 14 15  1  0
 15 18  1  0
 15 16  1  1
 16 17  1  0
 18 20  2  0
 18 19  1  0
M  END
$$$$
