ADE.pdb
     RDKit          3D

 23 22  0  0  1  0  0  0  0  0999 V2000
    8.5376  -12.4374   21.2239 C   0  0  0  0  0  0  0  0  0  0  0  0
    8.2096  -13.5085   20.1794 C   0  0  2  0  0  0  0  0  0  0  0  0
    6.9632  -13.2604   19.5289 N   0  0  0  0  0  0  0  0  0  0  0  0
    8.2596  -14.8194   20.8757 C   0  0  0  0  0  0  0  0  0  0  0  0
    7.1958  -15.4118   21.0947 O   0  0  0  0  0  0  0  0  0  0  0  0
    9.4536  -15.4382   21.3075 N   0  0  0  0  0  0  0  0  0  0  0  0
    9.5656  -16.8071   21.7001 C   0  0  1  0  0  0  0  0  0  0  0  0
   10.1783  -17.7019   20.6580 C   0  0  0  0  0  0  0  0  0  0  0  0
   10.1489  -19.1154   21.0627 C   0  0  0  0  0  0  0  0  0  0  0  0
    9.3721  -19.4913   21.9629 O   0  0  0  0  0  0  0  0  0  0  0  0
   10.2554  -16.9659   23.0158 C   0  0  0  0  0  0  0  0  0  0  0  0
   10.5361  -18.1224   23.4043 O   0  0  0  0  0  0  0  0  0  0  0  0
   10.9842  -20.0200   20.4415 O   0  0  0  0  0  0  0  0  0  0  0  0
   10.6047  -15.8747   23.8400 N   0  0  0  0  0  0  0  0  0  0  0  0
   10.8716  -15.9908   25.2774 C   0  0  1  0  0  0  0  0  0  0  0  0
    9.7810  -15.4252   26.1033 C   0  0  0  0  0  0  0  0  0  0  0  0
   10.0697  -15.5074   27.5556 C   0  0  0  0  0  0  0  0  0  0  0  0
    9.8245  -14.3042   28.3438 C   0  0  0  0  0  0  0  0  0  0  0  0
   10.4627  -14.2186   29.4448 O   0  0  0  0  0  0  0  0  0  0  0  0
   11.2863  -17.3681   25.6214 C   0  0  0  0  0  0  0  0  0  0  0  0
   12.2489  -17.7238   26.5331 O   0  0  0  0  0  0  0  0  0  0  0  0
    8.9967  -13.2546   28.0534 O   0  0  0  0  0  0  0  0  0  0  0  0
   10.7050  -18.3192   25.0229 O   0  0  0  0  0  0  0  0  0  0  0  0
  2  4  1  0
  2  3  1  0
  2  1  1  1
  4  5  2  0
  6  7  1  0
  6  4  1  0
  7 11  1  0
  8  9  1  0
  7  8  1  6
  9 10  2  0
 11 12  2  0
 11 14  1  0
 13  9  1  0
 14 15  1  0
 15 16  1  1
 16 17  1  0
 17 18  1  0
 18 22  1  0
 19 18  2  0
 20 21  1  0
 20 15  1  0
 23 20  2  0
M  END
$$$$
