ADE.pdb
     RDKit          3D

 23 22  0  0  1  0  0  0  0  0999 V2000
    8.3776  -11.9457   19.9201 C   0  0  0  0  0  0  0  0  0  0  0  0
    8.1964  -13.1068   18.9378 C   0  0  2  0  0  0  0  0  0  0  0  0
    6.9314  -13.7500   19.0940 N   0  0  0  0  0  0  0  0  0  0  0  0
    9.3500  -14.0214   19.1339 C   0  0  0  0  0  0  0  0  0  0  0  0
    9.2131  -14.9892   19.8922 O   0  0  0  0  0  0  0  0  0  0  0  0
   10.6038  -13.8558   18.5048 N   0  0  0  0  0  0  0  0  0  0  0  0
   11.7102  -14.7480   18.6464 C   0  0  1  0  0  0  0  0  0  0  0  0
   12.7579  -14.6100   17.5763 C   0  0  0  0  0  0  0  0  0  0  0  0
   13.6862  -15.7505   17.5668 C   0  0  0  0  0  0  0  0  0  0  0  0
   14.0015  -16.3080   18.6369 O   0  0  0  0  0  0  0  0  0  0  0  0
   12.3223  -14.6819   20.0078 C   0  0  0  0  0  0  0  0  0  0  0  0
   12.8150  -13.5950   20.3860 O   0  0  0  0  0  0  0  0  0  0  0  0
   14.2043  -16.1981   16.3698 O   0  0  0  0  0  0  0  0  0  0  0  0
   12.3710  -15.7858   20.8858 N   0  0  0  0  0  0  0  0  0  0  0  0
   12.7994  -15.6965   22.2855 C   0  0  1  0  0  0  0  0  0  0  0  0
   11.8893  -16.4181   23.2034 C   0  0  0  0  0  0  0  0  0  0  0  0
   12.4084  -16.4686   24.5916 C   0  0  0  0  0  0  0  0  0  0  0  0
   11.7036  -17.3401   25.5258 C   0  0  0  0  0  0  0  0  0  0  0  0
   10.7872  -18.0715   25.0239 O   0  0  0  0  0  0  0  0  0  0  0  0
   14.2344  -16.0301   22.4143 C   0  0  0  0  0  0  0  0  0  0  0  0
   15.0975  -15.5543   23.3698 O   0  0  0  0  0  0  0  0  0  0  0  0
   11.8996  -17.4737   26.8731 O   0  0  0  0  0  0  0  0  0  0  0  0
   14.7258  -16.8302   21.5663 O   0  0  0  0  0  0  0  0  0  0  0  0
  2  4  1  0
  2  3  1  0
  2  1  1  1
  4  5  2  0
  6  7  1  0
  6  4  1  0
  7 11  1  0
  8  9  1  0
  7  8  1  6
  9 10  2  0
 11 12  2  0
 11 14  1  0
 13  9  1  0
 14 15  1  0
 15 16  1  1
 16 17  1  0
 17 18  1  0
 18 22  1  0
 19 18  2  0
 20 21  1  0
 20 15  1  0
 23 20  2  0
M  END
$$$$
