ADE.pdb
     RDKit          3D

 23 22  0  0  1  0  0  0  0  0999 V2000
   10.1996  -22.3488   16.7323 C   0  0  0  0  0  0  0  0  0  0  0  0
   10.4132  -22.9919   18.1059 C   0  0  2  0  0  0  0  0  0  0  0  0
    9.1862  -23.1629   18.8154 N   0  0  0  0  0  0  0  0  0  0  0  0
   11.3984  -22.1478   18.8286 C   0  0  0  0  0  0  0  0  0  0  0  0
   12.5885  -22.4854   18.8125 O   0  0  0  0  0  0  0  0  0  0  0  0
   11.0611  -20.9744   19.5388 N   0  0  0  0  0  0  0  0  0  0  0  0
   12.0014  -20.1149   20.1850 C   0  0  1  0  0  0  0  0  0  0  0  0
   11.5913  -18.6685   20.2266 C   0  0  0  0  0  0  0  0  0  0  0  0
   11.5644  -18.0669   18.8850 C   0  0  0  0  0  0  0  0  0  0  0  0
   12.5338  -18.2152   18.1146 O   0  0  0  0  0  0  0  0  0  0  0  0
   12.3772  -20.6050   21.5454 C   0  0  0  0  0  0  0  0  0  0  0  0
   11.4605  -20.8988   22.3458 O   0  0  0  0  0  0  0  0  0  0  0  0
   10.4629  -17.3394   18.4858 O   0  0  0  0  0  0  0  0  0  0  0  0
   13.7152  -20.7519   21.9698 N   0  0  0  0  0  0  0  0  0  0  0  0
   14.1008  -21.1962   23.3131 C   0  0  1  0  0  0  0  0  0  0  0  0
   15.5387  -21.5356   23.4063 C   0  0  0  0  0  0  0  0  0  0  0  0
   15.8803  -22.2071   24.6836 C   0  0  0  0  0  0  0  0  0  0  0  0
   17.2776  -22.5800   24.8773 C   0  0  0  0  0  0  0  0  0  0  0  0
   17.7260  -23.4871   24.1008 O   0  0  0  0  0  0  0  0  0  0  0  0
   13.5976  -20.2562   24.3379 C   0  0  0  0  0  0  0  0  0  0  0  0
   13.4105  -18.9054   24.1807 O   0  0  0  0  0  0  0  0  0  0  0  0
   18.1700  -22.0812   25.7863 O   0  0  0  0  0  0  0  0  0  0  0  0
   13.3092  -20.7314   25.4744 O   0  0  0  0  0  0  0  0  0  0  0  0
  2  4  1  0
  2  3  1  0
  2  1  1  6
  4  5  2  0
  6  7  1  0
  6  4  1  0
  7 11  1  0
  8  9  1  0
  7  8  1  1
  9 10  2  0
 11 12  2  0
 11 14  1  0
 13  9  1  0
 14 15  1  0
 15 16  1  6
 16 17  1  0
 17 18  1  0
 18 22  1  0
 19 18  2  0
 20 21  1  0
 20 15  1  0
 23 20  2  0
M  END
$$$$
