ADE.pdb
     RDKit          3D

 23 22  0  0  1  0  0  0  0  0999 V2000
    7.7090  -12.1822   19.1390 C   0  0  0  0  0  0  0  0  0  0  0  0
    8.7053  -13.2891   18.7809 C   0  0  2  0  0  0  0  0  0  0  0  0
    8.3951  -13.9074   17.5320 N   0  0  0  0  0  0  0  0  0  0  0  0
    8.7206  -14.2406   19.9212 C   0  0  0  0  0  0  0  0  0  0  0  0
    9.0030  -13.8090   21.0457 O   0  0  0  0  0  0  0  0  0  0  0  0
    8.4308  -15.6180   19.8031 N   0  0  0  0  0  0  0  0  0  0  0  0
    8.4077  -16.5416   20.8925 C   0  0  1  0  0  0  0  0  0  0  0  0
    7.5314  -17.7430   20.6672 C   0  0  0  0  0  0  0  0  0  0  0  0
    7.7787  -18.3647   19.3576 C   0  0  0  0  0  0  0  0  0  0  0  0
    8.7661  -18.0193   18.6788 O   0  0  0  0  0  0  0  0  0  0  0  0
    9.7799  -16.9512   21.3188 C   0  0  0  0  0  0  0  0  0  0  0  0
   10.5505  -17.4340   20.4583 O   0  0  0  0  0  0  0  0  0  0  0  0
    6.9133  -19.3296   18.8867 O   0  0  0  0  0  0  0  0  0  0  0  0
   10.2471  -16.8196   22.6440 N   0  0  0  0  0  0  0  0  0  0  0  0
   11.6654  -16.7163   23.0024 C   0  0  1  0  0  0  0  0  0  0  0  0
   12.3931  -15.7416   22.1586 C   0  0  0  0  0  0  0  0  0  0  0  0
   13.8407  -15.6878   22.4758 C   0  0  0  0  0  0  0  0  0  0  0  0
   14.7509  -15.4624   21.3579 C   0  0  0  0  0  0  0  0  0  0  0  0
   14.5914  -14.3695   20.7200 O   0  0  0  0  0  0  0  0  0  0  0  0
   11.8232  -16.5417   24.4625 C   0  0  0  0  0  0  0  0  0  0  0  0
   10.8251  -16.2527   25.3596 O   0  0  0  0  0  0  0  0  0  0  0  0
   15.7548  -16.2739   20.9051 O   0  0  0  0  0  0  0  0  0  0  0  0
   12.9868  -16.6675   24.9428 O   0  0  0  0  0  0  0  0  0  0  0  0
  2  4  1  0
  2  3  1  0
  2  1  1  1
  4  5  2  0
  6  7  1  0
  6  4  1  0
  7 11  1  0
  8  9  1  0
  7  8  1  6
  9 10  2  0
 11 12  2  0
 11 14  1  0
 13  9  1  0
 14 15  1  0
 15 16  1  6
 16 17  1  0
 17 18  1  0
 18 22  1  0
 19 18  2  0
 20 21  1  0
 20 15  1  0
 23 20  2  0
M  END
$$$$
