ADE.pdb
     RDKit          3D

 23 22  0  0  1  0  0  0  0  0999 V2000
    7.7577  -12.4382   19.4476 C   0  0  0  0  0  0  0  0  0  0  0  0
    8.0235  -13.3539   18.2489 C   0  0  2  0  0  0  0  0  0  0  0  0
    6.9863  -13.2732   17.2712 N   0  0  0  0  0  0  0  0  0  0  0  0
    8.2192  -14.7238   18.7880 C   0  0  0  0  0  0  0  0  0  0  0  0
    7.2930  -15.5371   18.6822 O   0  0  0  0  0  0  0  0  0  0  0  0
    9.4048  -15.1614   19.4188 N   0  0  0  0  0  0  0  0  0  0  0  0
    9.6473  -16.4984   19.8592 C   0  0  1  0  0  0  0  0  0  0  0  0
   10.4630  -17.3264   18.9047 C   0  0  0  0  0  0  0  0  0  0  0  0
   10.5629  -18.7273   19.3407 C   0  0  0  0  0  0  0  0  0  0  0  0
   11.3793  -19.0488   20.2269 O   0  0  0  0  0  0  0  0  0  0  0  0
   10.2224  -16.5468   21.2373 C   0  0  0  0  0  0  0  0  0  0  0  0
    9.5935  -17.1701   22.1224 O   0  0  0  0  0  0  0  0  0  0  0  0
    9.7499  -19.6805   18.7643 O   0  0  0  0  0  0  0  0  0  0  0  0
   11.4393  -15.9237   21.5875 N   0  0  0  0  0  0  0  0  0  0  0  0
   12.0544  -16.0234   22.9150 C   0  0  1  0  0  0  0  0  0  0  0  0
   11.3204  -16.9450   23.8114 C   0  0  0  0  0  0  0  0  0  0  0  0
   11.9394  -17.0400   25.1556 C   0  0  0  0  0  0  0  0  0  0  0  0
   11.6313  -18.2321   25.9386 C   0  0  0  0  0  0  0  0  0  0  0  0
   12.1851  -19.3134   25.5503 O   0  0  0  0  0  0  0  0  0  0  0  0
   13.5086  -16.2665   22.7993 C   0  0  0  0  0  0  0  0  0  0  0  0
   14.4753  -15.8510   23.6809 O   0  0  0  0  0  0  0  0  0  0  0  0
   10.8233  -18.3393   27.0372 O   0  0  0  0  0  0  0  0  0  0  0  0
   13.9130  -16.9189   21.7936 O   0  0  0  0  0  0  0  0  0  0  0  0
  2  4  1  0
  2  3  1  0
  2  1  1  1
  4  5  2  0
  6  7  1  0
  6  4  1  0
  7 11  1  0
  8  9  1  0
  7  8  1  6
  9 10  2  0
 11 12  2  0
 11 14  1  0
 13  9  1  0
 14 15  1  0
 15 16  1  1
 16 17  1  0
 17 18  1  0
 18 22  1  0
 19 18  2  0
 20 21  1  0
 20 15  1  0
 23 20  2  0
M  END
$$$$
