ADE.pdb
     RDKit          3D

 23 22  0  0  1  0  0  0  0  0999 V2000
    7.3164  -19.7081   18.4692 C   0  0  0  0  0  0  0  0  0  0  0  0
    7.9893  -19.4590   19.8223 C   0  0  2  0  0  0  0  0  0  0  0  0
    7.4231  -18.3408   20.5059 N   0  0  0  0  0  0  0  0  0  0  0  0
    9.4439  -19.3139   19.5602 C   0  0  0  0  0  0  0  0  0  0  0  0
   10.0549  -20.2750   19.0771 O   0  0  0  0  0  0  0  0  0  0  0  0
   10.1805  -18.1390   19.8291 N   0  0  0  0  0  0  0  0  0  0  0  0
   11.5670  -17.9618   19.5347 C   0  0  1  0  0  0  0  0  0  0  0  0
   11.8395  -17.2963   18.2138 C   0  0  0  0  0  0  0  0  0  0  0  0
   13.2743  -17.2830   17.8917 C   0  0  0  0  0  0  0  0  0  0  0  0
   14.0934  -16.8173   18.7086 O   0  0  0  0  0  0  0  0  0  0  0  0
   12.2994  -17.2761   20.6418 C   0  0  0  0  0  0  0  0  0  0  0  0
   13.4565  -16.8540   20.4173 O   0  0  0  0  0  0  0  0  0  0  0  0
   13.7065  -17.7875   16.6832 O   0  0  0  0  0  0  0  0  0  0  0  0
   11.7487  -17.0821   21.9267 N   0  0  0  0  0  0  0  0  0  0  0  0
   12.4449  -16.3908   23.0167 C   0  0  1  0  0  0  0  0  0  0  0  0
   11.5261  -15.9696   24.0982 C   0  0  0  0  0  0  0  0  0  0  0  0
   10.1169  -15.8869   23.6439 C   0  0  0  0  0  0  0  0  0  0  0  0
    9.1212  -15.5337   24.6502 C   0  0  0  0  0  0  0  0  0  0  0  0
    8.9422  -16.3865   25.5816 O   0  0  0  0  0  0  0  0  0  0  0  0
   13.6315  -17.1605   23.4489 C   0  0  0  0  0  0  0  0  0  0  0  0
   13.9519  -18.4409   23.0719 O   0  0  0  0  0  0  0  0  0  0  0  0
    8.3534  -14.4039   24.7233 O   0  0  0  0  0  0  0  0  0  0  0  0
   14.4363  -16.5944   24.2442 O   0  0  0  0  0  0  0  0  0  0  0  0
  2  4  1  0
  2  3  1  0
  2  1  1  6
  4  5  2  0
  6  7  1  0
  6  4  1  0
  7 11  1  0
  8  9  1  0
  7  8  1  6
  9 10  2  0
 11 12  2  0
 11 14  1  0
 13  9  1  0
 14 15  1  0
 15 16  1  1
 16 17  1  0
 17 18  1  0
 18 22  1  0
 19 18  2  0
 20 21  1  0
 20 15  1  0
 23 20  2  0
M  END
$$$$
