ADE.pdb
     RDKit          3D

 23 22  0  0  1  0  0  0  0  0999 V2000
    8.7336  -16.8564   15.8972 C   0  0  0  0  0  0  0  0  0  0  0  0
    8.8187  -16.8453   17.4264 C   0  0  2  0  0  0  0  0  0  0  0  0
    8.0367  -15.7977   18.0002 N   0  0  0  0  0  0  0  0  0  0  0  0
   10.2595  -16.7645   17.7775 C   0  0  0  0  0  0  0  0  0  0  0  0
   11.0168  -17.6532   17.3687 O   0  0  0  0  0  0  0  0  0  0  0  0
   10.8252  -15.7293   18.5543 N   0  0  0  0  0  0  0  0  0  0  0  0
   12.2111  -15.6223   18.8832 C   0  0  1  0  0  0  0  0  0  0  0  0
   12.8936  -14.4140   18.3034 C   0  0  0  0  0  0  0  0  0  0  0  0
   14.3463  -14.4424   18.5307 C   0  0  0  0  0  0  0  0  0  0  0  0
   14.9280  -15.5297   18.7171 O   0  0  0  0  0  0  0  0  0  0  0  0
   12.4551  -15.7218   20.3539 C   0  0  0  0  0  0  0  0  0  0  0  0
   12.3508  -14.6835   21.0454 O   0  0  0  0  0  0  0  0  0  0  0  0
   15.0588  -13.2617   18.5365 O   0  0  0  0  0  0  0  0  0  0  0  0
   12.7970  -16.9297   20.9988 N   0  0  0  0  0  0  0  0  0  0  0  0
   13.3740  -17.0005   22.3453 C   0  0  1  0  0  0  0  0  0  0  0  0
   14.5555  -16.1224   22.5019 C   0  0  0  0  0  0  0  0  0  0  0  0
   15.7723  -16.8748   22.8922 C   0  0  0  0  0  0  0  0  0  0  0  0
   17.0556  -16.2345   22.6238 C   0  0  0  0  0  0  0  0  0  0  0  0
   18.0570  -17.0164   22.5118 O   0  0  0  0  0  0  0  0  0  0  0  0
   12.3214  -16.8461   23.3726 C   0  0  0  0  0  0  0  0  0  0  0  0
   11.7920  -17.8450   24.1512 O   0  0  0  0  0  0  0  0  0  0  0  0
   17.3234  -14.9010   22.4769 O   0  0  0  0  0  0  0  0  0  0  0  0
   11.8551  -15.6850   23.5603 O   0  0  0  0  0  0  0  0  0  0  0  0
  2  4  1  0
  2  3  1  0
  2  1  1  6
  4  5  2  0
  6  7  1  0
  6  4  1  0
  7 11  1  0
  8  9  1  0
  7  8  1  1
  9 10  2  0
 11 12  2  0
 11 14  1  0
 13  9  1  0
 14 15  1  0
 15 16  1  6
 16 17  1  0
 17 18  1  0
 18 22  1  0
 19 18  2  0
 20 21  1  0
 20 15  1  0
 23 20  2  0
M  END
$$$$
