ADE.pdb
     RDKit          3D

 23 22  0  0  1  0  0  0  0  0999 V2000
   12.4801  -13.4420   18.3144 C   0  0  0  0  0  0  0  0  0  0  0  0
   13.2682  -14.6577   18.8112 C   0  0  2  0  0  0  0  0  0  0  0  0
   13.5629  -15.5741   17.7569 N   0  0  0  0  0  0  0  0  0  0  0  0
   12.4777  -15.2628   19.9134 C   0  0  0  0  0  0  0  0  0  0  0  0
   12.5694  -14.7700   21.0444 O   0  0  0  0  0  0  0  0  0  0  0  0
   11.6207  -16.3739   19.7517 N   0  0  0  0  0  0  0  0  0  0  0  0
   10.8325  -16.9527   20.7929 C   0  0  1  0  0  0  0  0  0  0  0  0
    9.7906  -17.9254   20.3128 C   0  0  0  0  0  0  0  0  0  0  0  0
    9.2152  -17.5202   19.0216 C   0  0  0  0  0  0  0  0  0  0  0  0
    9.9209  -16.9265   18.1821 O   0  0  0  0  0  0  0  0  0  0  0  0
   11.6716  -17.5552   21.8723 C   0  0  0  0  0  0  0  0  0  0  0  0
   12.2801  -18.6215   21.6270 O   0  0  0  0  0  0  0  0  0  0  0  0
    7.8932  -17.8003   18.7463 O   0  0  0  0  0  0  0  0  0  0  0  0
   11.8102  -16.9795   23.1533 N   0  0  0  0  0  0  0  0  0  0  0  0
   12.6101  -17.5705   24.2311 C   0  0  1  0  0  0  0  0  0  0  0  0
   14.0577  -17.5808   23.9214 C   0  0  0  0  0  0  0  0  0  0  0  0
   14.6070  -16.2158   23.7367 C   0  0  0  0  0  0  0  0  0  0  0  0
   16.0295  -16.1157   23.4277 C   0  0  0  0  0  0  0  0  0  0  0  0
   16.3449  -16.2531   22.1995 O   0  0  0  0  0  0  0  0  0  0  0  0
   12.2395  -16.9845   25.5374 C   0  0  0  0  0  0  0  0  0  0  0  0
   11.3712  -15.9416   25.7440 O   0  0  0  0  0  0  0  0  0  0  0  0
   17.0702  -15.8933   24.2873 O   0  0  0  0  0  0  0  0  0  0  0  0
   12.7688  -17.4841   26.5722 O   0  0  0  0  0  0  0  0  0  0  0  0
  2  4  1  0
  2  3  1  0
  2  1  1  6
  4  5  2  0
  6  7  1  0
  6  4  1  0
  7 11  1  0
  8  9  1  0
  7  8  1  6
  9 10  2  0
 11 12  2  0
 11 14  1  0
 13  9  1  0
 14 15  1  0
 15 16  1  6
 16 17  1  0
 17 18  1  0
 18 22  1  0
 19 18  2  0
 20 21  1  0
 20 15  1  0
 23 20  2  0
M  END
$$$$
