ADE.pdb
     RDKit          3D

 23 22  0  0  1  0  0  0  0  0999 V2000
    8.7274  -11.9576   19.7506 C   0  0  0  0  0  0  0  0  0  0  0  0
    8.1621  -12.9278   18.7088 C   0  0  2  0  0  0  0  0  0  0  0  0
    6.7434  -13.0538   18.8066 N   0  0  0  0  0  0  0  0  0  0  0  0
    8.8810  -14.2154   18.8841 C   0  0  0  0  0  0  0  0  0  0  0  0
    8.4167  -15.2281   18.3461 O   0  0  0  0  0  0  0  0  0  0  0  0
   10.0708  -14.3592   19.6317 N   0  0  0  0  0  0  0  0  0  0  0  0
   10.9577  -15.4755   19.5442 C   0  0  1  0  0  0  0  0  0  0  0  0
   11.3213  -15.8688   18.1388 C   0  0  0  0  0  0  0  0  0  0  0  0
   12.1425  -17.0883   18.1053 C   0  0  0  0  0  0  0  0  0  0  0  0
   13.3862  -17.0028   18.0698 O   0  0  0  0  0  0  0  0  0  0  0  0
   12.1803  -15.2966   20.3841 C   0  0  0  0  0  0  0  0  0  0  0  0
   13.0317  -14.4529   20.0227 O   0  0  0  0  0  0  0  0  0  0  0  0
   11.5296  -18.3236   18.1132 O   0  0  0  0  0  0  0  0  0  0  0  0
   12.4198  -16.0330   21.5640 N   0  0  0  0  0  0  0  0  0  0  0  0
   13.2343  -15.5424   22.6806 C   0  0  1  0  0  0  0  0  0  0  0  0
   12.6199  -15.8263   23.9972 C   0  0  0  0  0  0  0  0  0  0  0  0
   12.5215  -17.2797   24.2746 C   0  0  0  0  0  0  0  0  0  0  0  0
   11.8625  -17.6689   25.5169 C   0  0  0  0  0  0  0  0  0  0  0  0
   11.6110  -16.7235   26.3352 O   0  0  0  0  0  0  0  0  0  0  0  0
   14.6419  -15.9688   22.5263 C   0  0  0  0  0  0  0  0  0  0  0  0
   15.7203  -15.4814   23.2220 O   0  0  0  0  0  0  0  0  0  0  0  0
   11.4793  -18.9195   25.9175 O   0  0  0  0  0  0  0  0  0  0  0  0
   14.8888  -16.8690   21.6723 O   0  0  0  0  0  0  0  0  0  0  0  0
  2  4  1  0
  2  3  1  0
  2  1  1  1
  4  5  2  0
  6  7  1  0
  6  4  1  0
  7 11  1  0
  8  9  1  0
  7  8  1  6
  9 10  2  0
 11 12  2  0
 11 14  1  0
 13  9  1  0
 14 15  1  0
 15 16  1  1
 16 17  1  0
 17 18  1  0
 18 22  1  0
 19 18  2  0
 20 21  1  0
 20 15  1  0
 23 20  2  0
M  END
$$$$
