VCI.pdb
     RDKit          3D

 22 21  0  0  1  0  0  0  0  0999 V2000
   11.7175  -16.4962   19.1142 C   0  0  0  0  0  0  0  0  0  0  0  0
   10.9406  -16.3251   20.3821 C   0  0  2  0  0  0  0  0  0  0  0  0
   11.8718  -16.1573   21.5538 C   0  0  0  0  0  0  0  0  0  0  0  0
    9.9998  -17.4767   20.6556 C   0  0  2  0  0  0  0  0  0  0  0  0
    9.1509  -17.6635   19.5003 N   0  0  0  0  0  0  0  0  0  0  0  0
    9.1558  -17.2447   21.8378 C   0  0  0  0  0  0  0  0  0  0  0  0
    8.2166  -16.3784   21.8161 O   0  0  0  0  0  0  0  0  0  0  0  0
    9.3095  -17.9436   23.0667 N   0  0  0  0  0  0  0  0  0  0  0  0
    8.5707  -17.6106   24.2675 C   0  0  1  0  0  0  0  0  0  0  0  0
    7.8589  -18.8737   24.7144 C   0  0  0  0  0  0  0  0  0  0  0  0
    6.8855  -18.5501   26.1981 S   0  0  0  0  0  0  0  0  0  0  0  0
    9.4828  -17.1587   25.3642 C   0  0  0  0  0  0  0  0  0  0  0  0
   10.6074  -17.7205   25.4237 O   0  0  0  0  0  0  0  0  0  0  0  0
    8.4744  -12.3360   27.8879 C   0  0  0  0  0  0  0  0  0  0  0  0
    9.2335  -13.3810   27.1020 C   0  0  0  0  0  0  0  0  0  0  0  0
    9.6312  -14.5113   28.0290 C   0  0  2  0  0  0  0  0  0  0  0  0
   10.7810  -14.0948   28.9198 C   0  0  0  0  0  0  0  0  0  0  0  0
   10.0821  -15.7316   27.2620 C   0  0  2  0  0  0  0  0  0  0  0  0
    9.1023  -16.1516   26.2882 N   0  0  0  0  0  0  0  0  0  0  0  0
   10.2624  -16.8387   28.2332 C   0  0  0  0  0  0  0  0  0  0  0  0
   11.3656  -17.0668   28.8015 O   0  0  0  0  0  0  0  0  0  0  0  0
    9.1451  -17.6469   28.5111 O   0  0  0  0  0  0  0  0  0  0  0  0
  2  1  1  6
  2  4  1  0
  2  3  1  0
  4  5  1  6
  6  4  1  0
  7  6  2  0
  8  6  1  0
  9 12  1  0
  9  8  1  0
  9 10  1  1
 11 10  1  0
 12 19  1  0
 13 12  2  0
 15 14  1  0
 16 17  1  1
 16 15  1  0
 18 16  1  0
 18 19  1  6
 20 22  1  0
 20 18  1  0
 21 20  2  0
M  END
$$$$
