VCI.pdb
     RDKit          3D

 22 21  0  0  1  0  0  0  0  0999 V2000
    8.2827  -12.8736   17.8632 C   0  0  0  0  0  0  0  0  0  0  0  0
    7.8995  -13.4853   19.1745 C   0  0  2  0  0  0  0  0  0  0  0  0
    8.5597  -12.7522   20.3125 C   0  0  0  0  0  0  0  0  0  0  0  0
    8.2458  -14.9545   19.2621 C   0  0  2  0  0  0  0  0  0  0  0  0
    7.6014  -15.6465   18.1685 N   0  0  0  0  0  0  0  0  0  0  0  0
    7.8149  -15.5591   20.5319 C   0  0  0  0  0  0  0  0  0  0  0  0
    6.5795  -15.7864   20.7668 O   0  0  0  0  0  0  0  0  0  0  0  0
    8.7096  -15.9301   21.5731 N   0  0  0  0  0  0  0  0  0  0  0  0
    8.2689  -16.4532   22.8502 C   0  0  1  0  0  0  0  0  0  0  0  0
    8.8464  -17.8501   22.9800 C   0  0  0  0  0  0  0  0  0  0  0  0
    8.4764  -18.5297   24.6094 S   0  0  0  0  0  0  0  0  0  0  0  0
    8.7695  -15.6181   23.9863 C   0  0  0  0  0  0  0  0  0  0  0  0
    9.9512  -15.1954   23.8918 O   0  0  0  0  0  0  0  0  0  0  0  0
    5.6049  -11.9668   26.3380 C   0  0  0  0  0  0  0  0  0  0  0  0
    6.7507  -12.7103   25.6897 C   0  0  0  0  0  0  0  0  0  0  0  0
    7.4520  -13.5546   26.7339 C   0  0  2  0  0  0  0  0  0  0  0  0
    8.1460  -12.6788   27.7540 C   0  0  0  0  0  0  0  0  0  0  0  0
    8.5072  -14.4427   26.1188 C   0  0  2  0  0  0  0  0  0  0  0  0
    7.9577  -15.3180   25.1104 N   0  0  0  0  0  0  0  0  0  0  0  0
    9.0744  -15.2897   27.1969 C   0  0  0  0  0  0  0  0  0  0  0  0
    9.8720  -14.8370   28.0636 O   0  0  0  0  0  0  0  0  0  0  0  0
    8.6910  -16.6427   27.2291 O   0  0  0  0  0  0  0  0  0  0  0  0
  2  1  1  6
  2  4  1  0
  2  3  1  0
  4  5  1  6
  6  4  1  0
  7  6  2  0
  8  6  1  0
  9 12  1  0
  9  8  1  0
  9 10  1  1
 11 10  1  0
 12 19  1  0
 13 12  2  0
 15 14  1  0
 16 17  1  1
 16 15  1  0
 18 16  1  0
 18 19  1  6
 20 22  1  0
 20 18  1  0
 21 20  2  0
M  END
$$$$
