VCI.pdb
     RDKit          3D

 22 21  0  0  1  0  0  0  0  0999 V2000
    8.2024  -12.9045   17.7257 C   0  0  0  0  0  0  0  0  0  0  0  0
    7.8379  -13.4600   19.0671 C   0  0  2  0  0  0  0  0  0  0  0  0
    8.4278  -12.6163   20.1664 C   0  0  0  0  0  0  0  0  0  0  0  0
    8.2796  -14.8944   19.2497 C   0  0  2  0  0  0  0  0  0  0  0  0
    7.7389  -15.6852   18.1669 N   0  0  0  0  0  0  0  0  0  0  0  0
    7.8293  -15.4629   20.5295 C   0  0  0  0  0  0  0  0  0  0  0  0
    6.5894  -15.6741   20.7557 O   0  0  0  0  0  0  0  0  0  0  0  0
    8.7090  -15.8144   21.5900 N   0  0  0  0  0  0  0  0  0  0  0  0
    8.2521  -16.3477   22.8571 C   0  0  1  0  0  0  0  0  0  0  0  0
    8.7867  -17.7638   22.9605 C   0  0  0  0  0  0  0  0  0  0  0  0
    7.5918  -18.9332   22.2834 S   0  0  0  0  0  0  0  0  0  0  0  0
    8.7776  -15.5499   24.0087 C   0  0  0  0  0  0  0  0  0  0  0  0
    9.9752  -15.1715   23.9270 O   0  0  0  0  0  0  0  0  0  0  0  0
    5.7450  -11.8740   26.5760 C   0  0  0  0  0  0  0  0  0  0  0  0
    6.8587  -12.6148   25.8711 C   0  0  0  0  0  0  0  0  0  0  0  0
    7.5378  -13.5469   26.8534 C   0  0  2  0  0  0  0  0  0  0  0  0
    8.2660  -12.7616   27.9222 C   0  0  0  0  0  0  0  0  0  0  0  0
    8.5598  -14.4272   26.1742 C   0  0  2  0  0  0  0  0  0  0  0  0
    7.9712  -15.2359   25.1329 N   0  0  0  0  0  0  0  0  0  0  0  0
    9.1242  -15.3419   27.1970 C   0  0  0  0  0  0  0  0  0  0  0  0
    8.6424  -16.4865   27.4204 O   0  0  0  0  0  0  0  0  0  0  0  0
   10.2372  -14.8897   27.9290 O   0  0  0  0  0  0  0  0  0  0  0  0
  2  1  1  6
  2  4  1  0
  2  3  1  0
  4  5  1  6
  6  4  1  0
  7  6  2  0
  8  6  1  0
  9 12  1  0
  9  8  1  0
  9 10  1  1
 11 10  1  0
 12 19  1  0
 13 12  2  0
 15 14  1  0
 16 17  1  1
 16 15  1  0
 18 16  1  0
 18 19  1  6
 20 22  1  0
 20 18  1  0
 21 20  2  0
M  END
$$$$
