VCI.pdb
     RDKit          3D

 22 21  0  0  1  0  0  0  0  0999 V2000
    8.4725  -13.1029   17.7789 C   0  0  0  0  0  0  0  0  0  0  0  0
    7.9029  -13.6103   19.0668 C   0  0  2  0  0  0  0  0  0  0  0  0
    8.4374  -12.8167   20.2299 C   0  0  0  0  0  0  0  0  0  0  0  0
    8.1828  -15.0783   19.2960 C   0  0  2  0  0  0  0  0  0  0  0  0
    7.6794  -15.8261   18.1657 N   0  0  0  0  0  0  0  0  0  0  0  0
    7.5531  -15.5856   20.5248 C   0  0  0  0  0  0  0  0  0  0  0  0
    6.2818  -15.6051   20.6531 O   0  0  0  0  0  0  0  0  0  0  0  0
    8.2839  -16.0819   21.6393 N   0  0  0  0  0  0  0  0  0  0  0  0
    7.6638  -16.4478   22.8964 C   0  0  1  0  0  0  0  0  0  0  0  0
    7.8741  -17.9394   23.0766 C   0  0  0  0  0  0  0  0  0  0  0  0
    7.2952  -18.4595   24.7039 S   0  0  0  0  0  0  0  0  0  0  0  0
    8.2951  -15.7305   24.0478 C   0  0  0  0  0  0  0  0  0  0  0  0
    9.5510  -15.6502   24.0363 O   0  0  0  0  0  0  0  0  0  0  0  0
    5.5553  -11.7817   26.7473 C   0  0  0  0  0  0  0  0  0  0  0  0
    6.6026  -12.5428   25.9663 C   0  0  0  0  0  0  0  0  0  0  0  0
    7.3048  -13.5161   26.8907 C   0  0  2  0  0  0  0  0  0  0  0  0
    8.1561  -12.7779   27.9003 C   0  0  0  0  0  0  0  0  0  0  0  0
    8.2211  -14.4464   26.1318 C   0  0  2  0  0  0  0  0  0  0  0  0
    7.5214  -15.1703   25.0968 N   0  0  0  0  0  0  0  0  0  0  0  0
    8.7623  -15.4374   27.0943 C   0  0  0  0  0  0  0  0  0  0  0  0
    8.1915  -16.5392   27.3234 O   0  0  0  0  0  0  0  0  0  0  0  0
    9.9567  -15.1094   27.7611 O   0  0  0  0  0  0  0  0  0  0  0  0
  2  1  1  6
  2  4  1  0
  2  3  1  0
  4  5  1  6
  6  4  1  0
  7  6  2  0
  8  6  1  0
  9 12  1  0
  9  8  1  0
  9 10  1  1
 11 10  1  0
 12 19  1  0
 13 12  2  0
 15 14  1  0
 16 17  1  1
 16 15  1  0
 18 16  1  0
 18 19  1  6
 20 22  1  0
 20 18  1  0
 21 20  2  0
M  END
$$$$
