VCI.pdb
     RDKit          3D

 22 21  0  0  1  0  0  0  0  0999 V2000
    8.8722  -16.1266   18.6955 C   0  0  0  0  0  0  0  0  0  0  0  0
    9.0135  -15.6693   20.1137 C   0  0  2  0  0  0  0  0  0  0  0  0
    8.9782  -16.8453   21.0541 C   0  0  0  0  0  0  0  0  0  0  0  0
    7.9492  -14.6754   20.5203 C   0  0  2  0  0  0  0  0  0  0  0  0
    8.0257  -13.5313   19.6399 N   0  0  0  0  0  0  0  0  0  0  0  0
    8.1055  -14.2213   21.9107 C   0  0  0  0  0  0  0  0  0  0  0  0
    9.0113  -13.3782   22.2297 O   0  0  0  0  0  0  0  0  0  0  0  0
    7.2868  -14.6687   22.9839 N   0  0  0  0  0  0  0  0  0  0  0  0
    7.4792  -14.2504   24.3575 C   0  0  1  0  0  0  0  0  0  0  0  0
    6.1245  -14.3223   25.0365 C   0  0  0  0  0  0  0  0  0  0  0  0
    6.2085  -13.5787   26.6777 S   0  0  0  0  0  0  0  0  0  0  0  0
    8.4273  -15.1562   25.0782 C   0  0  0  0  0  0  0  0  0  0  0  0
    8.6029  -16.2966   24.5757 O   0  0  0  0  0  0  0  0  0  0  0  0
   10.9527  -13.1061   29.4570 C   0  0  0  0  0  0  0  0  0  0  0  0
   11.0292  -13.7305   28.0822 C   0  0  0  0  0  0  0  0  0  0  0  0
   10.5806  -15.1751   28.1646 C   0  0  2  0  0  0  0  0  0  0  0  0
   11.7363  -16.0748   28.5441 C   0  0  0  0  0  0  0  0  0  0  0  0
   10.0463  -15.6713   26.8421 C   0  0  2  0  0  0  0  0  0  0  0  0
    9.0934  -14.7531   26.2643 N   0  0  0  0  0  0  0  0  0  0  0  0
    9.3485  -16.9576   27.0868 C   0  0  0  0  0  0  0  0  0  0  0  0
    8.1402  -17.0138   27.4461 O   0  0  0  0  0  0  0  0  0  0  0  0
   10.0860  -18.1413   26.9036 O   0  0  0  0  0  0  0  0  0  0  0  0
  2  1  1  6
  2  4  1  0
  2  3  1  0
  4  5  1  6
  6  4  1  0
  7  6  2  0
  8  6  1  0
  9 12  1  0
  9  8  1  0
  9 10  1  1
 11 10  1  0
 12 19  1  0
 13 12  2  0
 15 14  1  0
 16 17  1  6
 16 15  1  0
 18 16  1  0
 18 19  1  1
 20 22  1  0
 20 18  1  0
 21 20  2  0
M  END
$$$$
