VCI.pdb
     RDKit          3D

 22 21  0  0  1  0  0  0  0  0999 V2000
    6.8698  -13.1554   19.7209 C   0  0  0  0  0  0  0  0  0  0  0  0
    8.3249  -13.2866   19.3953 C   0  0  2  0  0  0  0  0  0  0  0  0
    8.6568  -12.5218   18.1410 C   0  0  0  0  0  0  0  0  0  0  0  0
    8.7640  -14.7241   19.2319 C   0  0  2  0  0  0  0  0  0  0  0  0
    8.1798  -15.2501   18.0186 N   0  0  0  0  0  0  0  0  0  0  0  0
    8.3565  -15.5689   20.3651 C   0  0  0  0  0  0  0  0  0  0  0  0
    7.6026  -16.5857   20.1901 O   0  0  0  0  0  0  0  0  0  0  0  0
    8.7551  -15.3321   21.7095 N   0  0  0  0  0  0  0  0  0  0  0  0
    8.3533  -16.1749   22.8171 C   0  0  1  0  0  0  0  0  0  0  0  0
    8.8720  -17.5700   22.5233 C   0  0  0  0  0  0  0  0  0  0  0  0
    8.7516  -18.6040   23.9965 S   0  0  0  0  0  0  0  0  0  0  0  0
    8.9460  -15.7032   24.1075 C   0  0  0  0  0  0  0  0  0  0  0  0
   10.1929  -15.5331   24.1214 O   0  0  0  0  0  0  0  0  0  0  0  0
    5.9517  -12.0581   26.5696 C   0  0  0  0  0  0  0  0  0  0  0  0
    7.0771  -12.8306   25.9193 C   0  0  0  0  0  0  0  0  0  0  0  0
    7.7153  -13.7426   26.9469 C   0  0  2  0  0  0  0  0  0  0  0  0
    8.4460  -12.9370   27.9986 C   0  0  0  0  0  0  0  0  0  0  0  0
    8.7250  -14.6733   26.3184 C   0  0  2  0  0  0  0  0  0  0  0  0
    8.1472  -15.4603   25.2546 N   0  0  0  0  0  0  0  0  0  0  0  0
    9.1994  -15.6068   27.3694 C   0  0  0  0  0  0  0  0  0  0  0  0
    8.6165  -16.6980   27.6181 O   0  0  0  0  0  0  0  0  0  0  0  0
   10.3433  -15.2356   28.0992 O   0  0  0  0  0  0  0  0  0  0  0  0
  2  1  1  6
  2  4  1  0
  2  3  1  0
  4  5  1  6
  6  4  1  0
  7  6  2  0
  8  6  1  0
  9 12  1  0
  9  8  1  0
  9 10  1  6
 11 10  1  0
 12 19  1  0
 13 12  2  0
 15 14  1  0
 16 17  1  1
 16 15  1  0
 18 16  1  0
 18 19  1  6
 20 22  1  0
 20 18  1  0
 21 20  2  0
M  END
$$$$
