VCI.pdb
     RDKit          3D

 22 21  0  0  1  0  0  0  0  0999 V2000
    7.9890  -12.9505   18.2907 C   0  0  0  0  0  0  0  0  0  0  0  0
    7.8829  -13.5072   19.6761 C   0  0  2  0  0  0  0  0  0  0  0  0
    8.7282  -12.7082   20.6328 C   0  0  0  0  0  0  0  0  0  0  0  0
    8.2817  -14.9634   19.7572 C   0  0  2  0  0  0  0  0  0  0  0  0
    7.4955  -15.7111   18.8017 N   0  0  0  0  0  0  0  0  0  0  0  0
    8.0718  -15.5301   21.0983 C   0  0  0  0  0  0  0  0  0  0  0  0
    6.8959  -15.6582   21.5819 O   0  0  0  0  0  0  0  0  0  0  0  0
    9.1275  -15.9695   21.9436 N   0  0  0  0  0  0  0  0  0  0  0  0
    8.9068  -16.5682   23.2442 C   0  0  1  0  0  0  0  0  0  0  0  0
    9.6713  -17.8785   23.2644 C   0  0  0  0  0  0  0  0  0  0  0  0
    8.8381  -19.1034   22.2353 S   0  0  0  0  0  0  0  0  0  0  0  0
    9.4215  -15.6940   24.3441 C   0  0  0  0  0  0  0  0  0  0  0  0
   10.5273  -15.1291   24.1388 O   0  0  0  0  0  0  0  0  0  0  0  0
    6.0582  -12.4746   26.8067 C   0  0  0  0  0  0  0  0  0  0  0  0
    7.2989  -13.0188   26.1354 C   0  0  0  0  0  0  0  0  0  0  0  0
    8.1415  -13.7491   27.1609 C   0  0  2  0  0  0  0  0  0  0  0  0
    8.8165  -12.7698   28.0960 C   0  0  0  0  0  0  0  0  0  0  0  0
    9.2319  -14.5660   26.5096 C   0  0  2  0  0  0  0  0  0  0  0  0
    8.7034  -15.5105   25.5538 N   0  0  0  0  0  0  0  0  0  0  0  0
    9.9230  -15.3341   27.5744 C   0  0  0  0  0  0  0  0  0  0  0  0
    9.6294  -16.5315   27.8435 O   0  0  0  0  0  0  0  0  0  0  0  0
   10.9382  -14.6777   28.2936 O   0  0  0  0  0  0  0  0  0  0  0  0
  2  1  1  6
  2  4  1  0
  2  3  1  0
  4  5  1  6
  6  4  1  0
  7  6  2  0
  8  6  1  0
  9 12  1  0
  9  8  1  0
  9 10  1  6
 11 10  1  0
 12 19  1  0
 13 12  2  0
 15 14  1  0
 16 17  1  1
 16 15  1  0
 18 16  1  0
 18 19  1  6
 20 22  1  0
 20 18  1  0
 21 20  2  0
M  END
$$$$
