VCI.pdb
     RDKit          3D

 22 21  0  0  1  0  0  0  0  0999 V2000
    8.3627  -13.1316   17.8374 C   0  0  0  0  0  0  0  0  0  0  0  0
    7.7517  -13.6327   19.1086 C   0  0  2  0  0  0  0  0  0  0  0  0
    8.2011  -12.7953   20.2769 C   0  0  0  0  0  0  0  0  0  0  0  0
    8.0737  -15.0841   19.3840 C   0  0  2  0  0  0  0  0  0  0  0  0
    7.5345  -15.8883   18.3104 N   0  0  0  0  0  0  0  0  0  0  0  0
    7.5133  -15.5519   20.6611 C   0  0  0  0  0  0  0  0  0  0  0  0
    6.3601  -16.1002   20.7121 O   0  0  0  0  0  0  0  0  0  0  0  0
    8.1871  -15.4368   21.9081 N   0  0  0  0  0  0  0  0  0  0  0  0
    7.6419  -15.9351   23.1543 C   0  0  1  0  0  0  0  0  0  0  0  0
    7.5935  -17.4474   23.0435 C   0  0  0  0  0  0  0  0  0  0  0  0
    9.2621  -18.1163   22.8955 S   0  0  0  0  0  0  0  0  0  0  0  0
    8.5075  -15.5655   24.3175 C   0  0  0  0  0  0  0  0  0  0  0  0
    9.7299  -15.3928   24.0727 O   0  0  0  0  0  0  0  0  0  0  0  0
    5.9603  -12.0511   26.9787 C   0  0  0  0  0  0  0  0  0  0  0  0
    7.1900  -12.6419   26.3270 C   0  0  0  0  0  0  0  0  0  0  0  0
    7.8413  -13.6190   27.2842 C   0  0  2  0  0  0  0  0  0  0  0  0
    8.7121  -12.8904   28.2842 C   0  0  0  0  0  0  0  0  0  0  0  0
    8.7257  -14.6060   26.5602 C   0  0  2  0  0  0  0  0  0  0  0  0
    7.9807  -15.4171   25.6264 N   0  0  0  0  0  0  0  0  0  0  0  0
    9.3230  -15.5104   27.5734 C   0  0  0  0  0  0  0  0  0  0  0  0
   10.1771  -15.1145   28.4137 O   0  0  0  0  0  0  0  0  0  0  0  0
    8.9028  -16.8529   27.5735 O   0  0  0  0  0  0  0  0  0  0  0  0
  2  1  1  6
  2  4  1  0
  2  3  1  0
  4  5  1  6
  6  4  1  0
  7  6  2  0
  8  6  1  0
  9 12  1  0
  9  8  1  0
  9 10  1  6
 11 10  1  0
 12 19  1  0
 13 12  2  0
 15 14  1  0
 16 17  1  1
 16 15  1  0
 18 16  1  0
 18 19  1  6
 20 22  1  0
 20 18  1  0
 21 20  2  0
M  END
$$$$
