VCI.pdb
     RDKit          3D

 22 21  0  0  1  0  0  0  0  0999 V2000
    9.7143  -17.5064   19.0551 C   0  0  0  0  0  0  0  0  0  0  0  0
    9.7205  -16.9016   20.4243 C   0  0  2  0  0  0  0  0  0  0  0  0
    9.3978  -17.9430   21.4634 C   0  0  0  0  0  0  0  0  0  0  0  0
    8.7549  -15.7463   20.5616 C   0  0  2  0  0  0  0  0  0  0  0  0
    9.0986  -14.7387   19.5834 N   0  0  0  0  0  0  0  0  0  0  0  0
    8.7872  -15.1427   21.9027 C   0  0  0  0  0  0  0  0  0  0  0  0
    9.7738  -14.4214   22.2761 O   0  0  0  0  0  0  0  0  0  0  0  0
    7.7548  -15.3063   22.8669 N   0  0  0  0  0  0  0  0  0  0  0  0
    7.7943  -14.7021   24.1830 C   0  0  1  0  0  0  0  0  0  0  0  0
    6.3745  -14.7114   24.7176 C   0  0  0  0  0  0  0  0  0  0  0  0
    6.2934  -13.8301   26.2893 S   0  0  0  0  0  0  0  0  0  0  0  0
    8.6652  -15.4813   25.1175 C   0  0  0  0  0  0  0  0  0  0  0  0
    8.8992  -16.6762   24.7990 O   0  0  0  0  0  0  0  0  0  0  0  0
   10.9539  -12.8063   29.3779 C   0  0  0  0  0  0  0  0  0  0  0  0
   10.9917  -13.5952   28.0887 C   0  0  0  0  0  0  0  0  0  0  0  0
   10.5251  -15.0114   28.3565 C   0  0  2  0  0  0  0  0  0  0  0  0
   11.6357  -15.8348   28.9712 C   0  0  0  0  0  0  0  0  0  0  0  0
   10.1034  -15.7111   27.0863 C   0  0  2  0  0  0  0  0  0  0  0  0
    9.1994  -14.9060   26.2992 N   0  0  0  0  0  0  0  0  0  0  0  0
    9.3909  -16.9555   27.4672 C   0  0  0  0  0  0  0  0  0  0  0  0
    8.1420  -16.9928   27.6434 O   0  0  0  0  0  0  0  0  0  0  0  0
   10.1617  -18.1208   27.6308 O   0  0  0  0  0  0  0  0  0  0  0  0
  2  1  1  6
  2  4  1  0
  2  3  1  0
  4  5  1  6
  6  4  1  0
  7  6  2  0
  8  6  1  0
  9 12  1  0
  9  8  1  0
  9 10  1  1
 11 10  1  0
 12 19  1  0
 13 12  2  0
 15 14  1  0
 16 17  1  6
 16 15  1  0
 18 16  1  0
 18 19  1  1
 20 22  1  0
 20 18  1  0
 21 20  2  0
M  END
$$$$
