VCI.pdb
     RDKit          3D

 22 21  0  0  1  0  0  0  0  0999 V2000
    8.4526  -13.0102   17.7996 C   0  0  0  0  0  0  0  0  0  0  0  0
    7.8348  -13.6039   19.0268 C   0  0  2  0  0  0  0  0  0  0  0  0
    8.2319  -12.8205   20.2503 C   0  0  0  0  0  0  0  0  0  0  0  0
    8.2017  -15.0571   19.2262 C   0  0  2  0  0  0  0  0  0  0  0  0
    7.7375  -15.8113   18.0835 N   0  0  0  0  0  0  0  0  0  0  0  0
    7.6094  -15.6242   20.4474 C   0  0  0  0  0  0  0  0  0  0  0  0
    6.3489  -15.8125   20.5411 O   0  0  0  0  0  0  0  0  0  0  0  0
    8.3665  -15.9993   21.5912 N   0  0  0  0  0  0  0  0  0  0  0  0
    7.7639  -16.4223   22.8388 C   0  0  1  0  0  0  0  0  0  0  0  0
    8.0693  -17.8996   22.9999 C   0  0  0  0  0  0  0  0  0  0  0  0
    7.4764  -18.4890   24.5982 S   0  0  0  0  0  0  0  0  0  0  0  0
    8.3404  -15.6820   24.0043 C   0  0  0  0  0  0  0  0  0  0  0  0
    9.5879  -15.5157   23.9999 O   0  0  0  0  0  0  0  0  0  0  0  0
    5.5407  -11.7166   26.5452 C   0  0  0  0  0  0  0  0  0  0  0  0
    6.6109  -12.5147   25.8355 C   0  0  0  0  0  0  0  0  0  0  0  0
    7.2218  -13.5041   26.8064 C   0  0  2  0  0  0  0  0  0  0  0  0
    8.0098  -12.7856   27.8797 C   0  0  0  0  0  0  0  0  0  0  0  0
    8.1732  -14.4515   26.1151 C   0  0  2  0  0  0  0  0  0  0  0  0
    7.5264  -15.1931   25.0585 N   0  0  0  0  0  0  0  0  0  0  0  0
    8.6588  -15.4254   27.1237 C   0  0  0  0  0  0  0  0  0  0  0  0
    7.9918  -16.4435   27.4566 O   0  0  0  0  0  0  0  0  0  0  0  0
    9.9118  -15.1789   27.7134 O   0  0  0  0  0  0  0  0  0  0  0  0
  2  1  1  6
  2  4  1  0
  2  3  1  0
  4  5  1  6
  6  4  1  0
  7  6  2  0
  8  6  1  0
  9 12  1  0
  9  8  1  0
  9 10  1  1
 11 10  1  0
 12 19  1  0
 13 12  2  0
 15 14  1  0
 16 17  1  1
 16 15  1  0
 18 16  1  0
 18 19  1  6
 20 22  1  0
 20 18  1  0
 21 20  2  0
M  END
$$$$
