TKK.pdb
     RDKit          3D

 26 25  0  0  1  0  0  0  0  0999 V2000
   14.8546  -12.7166    4.8092 C   0  0  0  0  0  0  0  0  0  0  0  0
   16.0690  -12.8330    5.7057 C   0  0  1  0  0  0  0  0  0  0  0  0
   15.9785  -14.0275    6.4056 O   0  0  0  0  0  0  0  0  0  0  0  0
   17.2891  -12.7768    4.8203 C   0  0  2  0  0  0  0  0  0  0  0  0
   17.2712  -13.7448    3.7621 N   0  0  0  0  0  0  0  0  0  0  0  0
   18.5518  -12.8588    5.5526 C   0  0  0  0  0  0  0  0  0  0  0  0
   19.2445  -13.9025    5.4420 O   0  0  0  0  0  0  0  0  0  0  0  0
   19.0667  -11.8360    6.3932 N   0  0  0  0  0  0  0  0  0  0  0  0
   20.2843  -11.9425    7.1708 C   0  0  1  0  0  0  0  0  0  0  0  0
   20.8393  -10.5910    7.5417 C   0  0  0  0  0  0  0  0  0  0  0  0
   22.1331  -10.6344    8.2507 C   0  0  0  0  0  0  0  0  0  0  0  0
   22.7490   -9.3321    8.5948 C   0  0  0  0  0  0  0  0  0  0  0  0
   24.0836   -9.4553    9.2943 C   0  0  0  0  0  0  0  0  0  0  0  0
   24.5588   -8.0800    9.4993 N   0  0  0  0  0  0  0  0  0  0  0  0
   20.0730  -12.7892    8.3852 C   0  0  0  0  0  0  0  0  0  0  0  0
   18.9765  -12.6905    9.0215 O   0  0  0  0  0  0  0  0  0  0  0  0
   21.0273  -13.6994    8.8713 N   0  0  0  0  0  0  0  0  0  0  0  0
   20.7377  -14.6837    9.9245 C   0  0  1  0  0  0  0  0  0  0  0  0
   20.2376  -15.9558    9.3296 C   0  0  0  0  0  0  0  0  0  0  0  0
   19.7781  -16.9045   10.3917 C   0  0  0  0  0  0  0  0  0  0  0  0
   19.1841  -18.1761    9.8052 C   0  0  0  0  0  0  0  0  0  0  0  0
   18.6643  -19.0904   10.8761 C   0  0  0  0  0  0  0  0  0  0  0  0
   18.2215  -20.3145   10.1928 N   0  0  0  0  0  0  0  0  0  0  0  0
   21.8930  -14.8750   10.7982 C   0  0  0  0  0  0  0  0  0  0  0  0
   21.9242  -14.9366   12.1609 O   0  0  0  0  0  0  0  0  0  0  0  0
   23.0297  -14.9987   10.2064 O   0  0  0  0  0  0  0  0  0  0  0  0
  2  1  1  6
  2  4  1  0
  2  3  1  0
  4  5  1  6
  6  4  1  0
  7  6  2  0
  8  6  1  0
  9  8  1  0
  9 10  1  1
 10 11  1  0
 11 12  1  0
 12 13  1  0
 13 14  1  0
 15  9  1  0
 16 15  2  0
 17 15  1  0
 18 24  1  0
 18 17  1  0
 18 19  1  6
 20 19  1  0
 21 22  1  0
 21 20  1  0
 23 22  1  0
 24 25  1  0
 26 24  2  0
M  END
$$$$
