TKK.pdb
     RDKit          3D

 26 25  0  0  1  0  0  0  0  0999 V2000
   13.9166  -12.3112  -15.2011 C   0  0  0  0  0  0  0  0  0  0  0  0
   15.1997  -12.7009  -14.4982 C   0  0  1  0  0  0  0  0  0  0  0  0
   14.8706  -13.4593  -13.3840 O   0  0  0  0  0  0  0  0  0  0  0  0
   16.0399  -13.4688  -15.4882 C   0  0  2  0  0  0  0  0  0  0  0  0
   16.1859  -14.8566  -15.1571 N   0  0  0  0  0  0  0  0  0  0  0  0
   17.3516  -12.8721  -15.7345 C   0  0  0  0  0  0  0  0  0  0  0  0
   17.9508  -12.3203  -14.7765 O   0  0  0  0  0  0  0  0  0  0  0  0
   18.0138  -12.8657  -16.9912 N   0  0  0  0  0  0  0  0  0  0  0  0
   19.3621  -12.3838  -17.2106 C   0  0  1  0  0  0  0  0  0  0  0  0
   20.0359  -13.0898  -18.3595 C   0  0  0  0  0  0  0  0  0  0  0  0
   20.6725  -14.3722  -18.0008 C   0  0  0  0  0  0  0  0  0  0  0  0
   21.2549  -15.1611  -19.1108 C   0  0  0  0  0  0  0  0  0  0  0  0
   21.9090  -16.4491  -18.6651 C   0  0  0  0  0  0  0  0  0  0  0  0
   22.5017  -17.0386  -19.8736 N   0  0  0  0  0  0  0  0  0  0  0  0
   19.3766  -10.9014  -17.4072 C   0  0  0  0  0  0  0  0  0  0  0  0
   18.4877  -10.3693  -18.1446 O   0  0  0  0  0  0  0  0  0  0  0  0
   20.3272  -10.0504  -16.8177 N   0  0  0  0  0  0  0  0  0  0  0  0
   20.2977   -8.5875  -16.9625 C   0  0  1  0  0  0  0  0  0  0  0  0
   21.2089   -7.9445  -15.9733 C   0  0  0  0  0  0  0  0  0  0  0  0
   21.1123   -6.4528  -16.0402 C   0  0  0  0  0  0  0  0  0  0  0  0
   22.0551   -5.7735  -15.0588 C   0  0  0  0  0  0  0  0  0  0  0  0
   21.9585   -4.2779  -15.1417 C   0  0  0  0  0  0  0  0  0  0  0  0
   23.0663   -3.7486  -14.3328 N   0  0  0  0  0  0  0  0  0  0  0  0
   20.5753   -8.1893  -18.3405 C   0  0  0  0  0  0  0  0  0  0  0  0
   21.4442   -8.7549  -19.2276 O   0  0  0  0  0  0  0  0  0  0  0  0
   19.9172   -7.1710  -18.7738 O   0  0  0  0  0  0  0  0  0  0  0  0
  2  1  1  6
  2  4  1  0
  2  3  1  0
  4  5  1  1
  6  4  1  0
  7  6  2  0
  8  6  1  0
  9  8  1  0
  9 10  1  6
 10 11  1  0
 11 12  1  0
 12 13  1  0
 13 14  1  0
 15  9  1  0
 16 15  2  0
 17 15  1  0
 18 24  1  0
 18 17  1  0
 18 19  1  1
 20 19  1  0
 21 22  1  0
 21 20  1  0
 23 22  1  0
 24 25  1  0
 26 24  2  0
M  END
$$$$
