TKK.pdb
     RDKit          3D

 26 25  0  0  1  0  0  0  0  0999 V2000
   33.2531  -27.9055  -21.4025 C   0  0  0  0  0  0  0  0  0  0  0  0
   34.2400  -27.9261  -20.2545 C   0  0  1  0  0  0  0  0  0  0  0  0
   35.2871  -27.0713  -20.5675 O   0  0  0  0  0  0  0  0  0  0  0  0
   33.4971  -27.4946  -19.0145 C   0  0  2  0  0  0  0  0  0  0  0  0
   34.3420  -27.3500  -17.8646 N   0  0  0  0  0  0  0  0  0  0  0  0
   32.3510  -28.3424  -18.6903 C   0  0  0  0  0  0  0  0  0  0  0  0
   32.5214  -29.3095  -17.9047 O   0  0  0  0  0  0  0  0  0  0  0  0
   31.0384  -28.1574  -19.2009 N   0  0  0  0  0  0  0  0  0  0  0  0
   29.8980  -28.9844  -18.8636 C   0  0  1  0  0  0  0  0  0  0  0  0
   28.6182  -28.1897  -18.8103 C   0  0  0  0  0  0  0  0  0  0  0  0
   28.4853  -27.3226  -17.6234 C   0  0  0  0  0  0  0  0  0  0  0  0
   27.2591  -26.4966  -17.5348 C   0  0  0  0  0  0  0  0  0  0  0  0
   27.1387  -25.7216  -16.2424 C   0  0  0  0  0  0  0  0  0  0  0  0
   25.8486  -25.0216  -16.3117 N   0  0  0  0  0  0  0  0  0  0  0  0
   29.7754  -30.1393  -19.8057 C   0  0  0  0  0  0  0  0  0  0  0  0
   29.7509  -29.9135  -21.0568 O   0  0  0  0  0  0  0  0  0  0  0  0
   29.6841  -31.4771  -19.3845 N   0  0  0  0  0  0  0  0  0  0  0  0
   29.6209  -32.6122  -20.3169 C   0  0  1  0  0  0  0  0  0  0  0  0
   30.0198  -33.8751  -19.6328 C   0  0  0  0  0  0  0  0  0  0  0  0
   30.1299  -35.0055  -20.6071 C   0  0  0  0  0  0  0  0  0  0  0  0
   30.3859  -36.3353  -19.9146 C   0  0  0  0  0  0  0  0  0  0  0  0
   30.5583  -37.4513  -20.9034 C   0  0  0  0  0  0  0  0  0  0  0  0
   30.7419  -38.6770  -20.1125 N   0  0  0  0  0  0  0  0  0  0  0  0
   28.3097  -32.6961  -20.9558 C   0  0  0  0  0  0  0  0  0  0  0  0
   27.0773  -32.6177  -20.3754 O   0  0  0  0  0  0  0  0  0  0  0  0
   28.3172  -32.8693  -22.2316 O   0  0  0  0  0  0  0  0  0  0  0  0
  2  1  1  6
  2  4  1  0
  2  3  1  0
  4  5  1  1
  6  4  1  0
  7  6  2  0
  8  6  1  0
  9  8  1  0
  9 10  1  6
 10 11  1  0
 11 12  1  0
 12 13  1  0
 13 14  1  0
 15  9  1  0
 16 15  2  0
 17 15  1  0
 18 24  1  0
 18 17  1  0
 18 19  1  1
 20 19  1  0
 21 22  1  0
 21 20  1  0
 23 22  1  0
 24 25  1  0
 26 24  2  0
M  END
$$$$
