TKK.pdb
     RDKit          3D

 26 25  0  0  1  0  0  0  0  0999 V2000
   25.7953  -13.3546  -14.9882 C   0  0  0  0  0  0  0  0  0  0  0  0
   25.7404  -14.3534  -16.1247 C   0  0  1  0  0  0  0  0  0  0  0  0
   26.6636  -15.3562  -15.8657 O   0  0  0  0  0  0  0  0  0  0  0  0
   24.3276  -14.8775  -16.1955 C   0  0  2  0  0  0  0  0  0  0  0  0
   24.1785  -15.9985  -17.0776 N   0  0  0  0  0  0  0  0  0  0  0  0
   23.3352  -13.8528  -16.5159 C   0  0  0  0  0  0  0  0  0  0  0  0
   23.3544  -13.3343  -17.6613 O   0  0  0  0  0  0  0  0  0  0  0  0
   22.3346  -13.3886  -15.6209 N   0  0  0  0  0  0  0  0  0  0  0  0
   21.3325  -12.3949  -15.9475 C   0  0  1  0  0  0  0  0  0  0  0  0
   19.9824  -12.7424  -15.3739 C   0  0  0  0  0  0  0  0  0  0  0  0
   19.2275  -13.7453  -16.1502 C   0  0  0  0  0  0  0  0  0  0  0  0
   17.9386  -14.1989  -15.5787 C   0  0  0  0  0  0  0  0  0  0  0  0
   17.1928  -15.1766  -16.4581 C   0  0  0  0  0  0  0  0  0  0  0  0
   17.9236  -16.4474  -16.3567 N   0  0  0  0  0  0  0  0  0  0  0  0
   21.7672  -11.0317  -15.5127 C   0  0  0  0  0  0  0  0  0  0  0  0
   22.3226  -10.8955  -14.3770 O   0  0  0  0  0  0  0  0  0  0  0  0
   21.5954   -9.8769  -16.2952 N   0  0  0  0  0  0  0  0  0  0  0  0
   21.9097   -8.5238  -15.8134 C   0  0  1  0  0  0  0  0  0  0  0  0
   21.8896   -7.5484  -16.9405 C   0  0  0  0  0  0  0  0  0  0  0  0
   20.4945   -7.0971  -17.2393 C   0  0  0  0  0  0  0  0  0  0  0  0
   20.4636   -5.9723  -18.2627 C   0  0  0  0  0  0  0  0  0  0  0  0
   19.0578   -5.5803  -18.6134 C   0  0  0  0  0  0  0  0  0  0  0  0
   19.1671   -4.4857  -19.5889 N   0  0  0  0  0  0  0  0  0  0  0  0
   21.0329   -8.1415  -14.7091 C   0  0  0  0  0  0  0  0  0  0  0  0
   21.2464   -7.2012  -13.7436 O   0  0  0  0  0  0  0  0  0  0  0  0
   19.9148   -8.7755  -14.6350 O   0  0  0  0  0  0  0  0  0  0  0  0
  2  1  1  1
  2  4  1  0
  2  3  1  0
  4  5  1  6
  6  4  1  0
  7  6  2  0
  8  6  1  0
  9  8  1  0
  9 10  1  1
 10 11  1  0
 11 12  1  0
 12 13  1  0
 13 14  1  0
 15  9  1  0
 16 15  2  0
 17 15  1  0
 18 24  1  0
 18 17  1  0
 18 19  1  6
 20 19  1  0
 21 22  1  0
 21 20  1  0
 23 22  1  0
 24 25  1  0
 26 24  2  0
M  END
$$$$
