TKK.pdb
     RDKit          3D

 26 25  0  0  1  0  0  0  0  0999 V2000
   13.6466  -12.6125  -17.9271 C   0  0  0  0  0  0  0  0  0  0  0  0
   14.0198  -13.7323  -16.9790 C   0  0  1  0  0  0  0  0  0  0  0  0
   13.1561  -14.7950  -17.2016 O   0  0  0  0  0  0  0  0  0  0  0  0
   15.4584  -14.0939  -17.2535 C   0  0  2  0  0  0  0  0  0  0  0  0
   15.8805  -15.2955  -16.5940 N   0  0  0  0  0  0  0  0  0  0  0  0
   16.4009  -13.0117  -16.9740 C   0  0  0  0  0  0  0  0  0  0  0  0
   16.4372  -12.5308  -15.8126 O   0  0  0  0  0  0  0  0  0  0  0  0
   17.2935  -12.4509  -17.9261 N   0  0  0  0  0  0  0  0  0  0  0  0
   18.1324  -11.2940  -17.6888 C   0  0  1  0  0  0  0  0  0  0  0  0
   19.3835  -11.3198  -18.5293 C   0  0  0  0  0  0  0  0  0  0  0  0
   20.2623  -10.1471  -18.3545 C   0  0  0  0  0  0  0  0  0  0  0  0
   21.5143  -10.1280  -19.1457 C   0  0  0  0  0  0  0  0  0  0  0  0
   22.3816   -8.9176  -18.8846 C   0  0  0  0  0  0  0  0  0  0  0  0
   23.4901   -9.0021  -19.8455 N   0  0  0  0  0  0  0  0  0  0  0  0
   17.3689  -10.0255  -17.8993 C   0  0  0  0  0  0  0  0  0  0  0  0
   16.7717   -9.8427  -19.0069 O   0  0  0  0  0  0  0  0  0  0  0  0
   17.2713   -9.0099  -16.9326 N   0  0  0  0  0  0  0  0  0  0  0  0
   16.5749   -7.7369  -17.1697 C   0  0  1  0  0  0  0  0  0  0  0  0
   15.6808   -7.4072  -16.0234 C   0  0  0  0  0  0  0  0  0  0  0  0
   14.9575   -6.1181  -16.2562 C   0  0  0  0  0  0  0  0  0  0  0  0
   14.1392   -5.6943  -15.0461 C   0  0  0  0  0  0  0  0  0  0  0  0
   13.4082   -4.4071  -15.2943 C   0  0  0  0  0  0  0  0  0  0  0  0
   12.6184   -4.1422  -14.0827 N   0  0  0  0  0  0  0  0  0  0  0  0
   17.5219   -6.6694  -17.4833 C   0  0  0  0  0  0  0  0  0  0  0  0
   18.7193   -6.3968  -16.8886 O   0  0  0  0  0  0  0  0  0  0  0  0
   17.1818   -5.8817  -18.4432 O   0  0  0  0  0  0  0  0  0  0  0  0
  2  1  1  6
  2  4  1  0
  2  3  1  0
  4  5  1  1
  6  4  1  0
  7  6  2  0
  8  6  1  0
  9  8  1  0
  9 10  1  6
 10 11  1  0
 11 12  1  0
 12 13  1  0
 13 14  1  0
 15  9  1  0
 16 15  2  0
 17 15  1  0
 18 24  1  0
 18 17  1  0
 18 19  1  1
 20 19  1  0
 21 22  1  0
 21 20  1  0
 23 22  1  0
 24 25  1  0
 26 24  2  0
M  END
$$$$
