TKK.pdb
     RDKit          3D

 26 25  0  0  1  0  0  0  0  0999 V2000
   27.1954  -18.5594  -16.5551 C   0  0  0  0  0  0  0  0  0  0  0  0
   27.4916  -19.8067  -17.3604 C   0  0  1  0  0  0  0  0  0  0  0  0
   28.4492  -19.4904  -18.3133 O   0  0  0  0  0  0  0  0  0  0  0  0
   27.9687  -20.8631  -16.3950 C   0  0  2  0  0  0  0  0  0  0  0  0
   28.3895  -22.0746  -17.0372 N   0  0  0  0  0  0  0  0  0  0  0  0
   27.0104  -21.1659  -15.3332 C   0  0  0  0  0  0  0  0  0  0  0  0
   26.0396  -21.9206  -15.5965 O   0  0  0  0  0  0  0  0  0  0  0  0
   27.0902  -20.6668  -14.0057 N   0  0  0  0  0  0  0  0  0  0  0  0
   26.0726  -20.8534  -12.9918 C   0  0  1  0  0  0  0  0  0  0  0  0
   26.5946  -20.5689  -11.6065 C   0  0  0  0  0  0  0  0  0  0  0  0
   25.6130  -20.7866  -10.5261 C   0  0  0  0  0  0  0  0  0  0  0  0
   26.0550  -20.4666   -9.1491 C   0  0  0  0  0  0  0  0  0  0  0  0
   25.0253  -20.7857   -8.0892 C   0  0  0  0  0  0  0  0  0  0  0  0
   25.6530  -20.4488   -6.8040 N   0  0  0  0  0  0  0  0  0  0  0  0
   24.8608  -20.0295  -13.2899 C   0  0  0  0  0  0  0  0  0  0  0  0
   25.0136  -18.8410  -13.7154 O   0  0  0  0  0  0  0  0  0  0  0  0
   23.5456  -20.4971  -13.1251 N   0  0  0  0  0  0  0  0  0  0  0  0
   22.4334  -20.0974  -13.9998 C   0  0  1  0  0  0  0  0  0  0  0  0
   22.7988  -20.2881  -15.4324 C   0  0  0  0  0  0  0  0  0  0  0  0
   21.7115  -19.7989  -16.3367 C   0  0  0  0  0  0  0  0  0  0  0  0
   22.0549  -19.9988  -17.8049 C   0  0  0  0  0  0  0  0  0  0  0  0
   21.0065  -19.4119  -18.7044 C   0  0  0  0  0  0  0  0  0  0  0  0
   21.4344  -19.7039  -20.0803 N   0  0  0  0  0  0  0  0  0  0  0  0
   21.1983  -20.7830  -13.6273 C   0  0  0  0  0  0  0  0  0  0  0  0
   21.0195  -22.1004  -13.3203 O   0  0  0  0  0  0  0  0  0  0  0  0
   20.1403  -20.0504  -13.5858 O   0  0  0  0  0  0  0  0  0  0  0  0
  2  1  1  1
  2  4  1  0
  2  3  1  0
  4  5  1  6
  6  4  1  0
  7  6  2  0
  8  6  1  0
  9  8  1  0
  9 10  1  1
 10 11  1  0
 11 12  1  0
 12 13  1  0
 13 14  1  0
 15  9  1  0
 16 15  2  0
 17 15  1  0
 18 24  1  0
 18 17  1  0
 18 19  1  6
 20 19  1  0
 21 22  1  0
 21 20  1  0
 23 22  1  0
 24 25  1  0
 26 24  2  0
M  END
$$$$
