LGG.pdb
     RDKit          3D

 17 16  0  0  1  0  0  0  0  0999 V2000
   16.7965  -12.1743  -17.2547 C   0  0  0  0  0  0  0  0  0  0  0  0
   17.6441  -11.7915  -16.0775 C   0  0  1  0  0  0  0  0  0  0  0  0
   18.6554  -12.8870  -15.8559 C   0  0  0  0  0  0  0  0  0  0  0  0
   18.3258  -10.4586  -16.2368 C   0  0  0  0  0  0  0  0  0  0  0  0
   19.1470  -10.1452  -15.0105 C   0  0  2  0  0  0  0  0  0  0  0  0
   18.2310   -9.8231  -13.9317 N   0  0  0  0  0  0  0  0  0  0  0  0
   19.9921   -8.9399  -15.2932 C   0  0  0  0  0  0  0  0  0  0  0  0
   19.4799   -7.9050  -15.7914 O   0  0  0  0  0  0  0  0  0  0  0  0
   21.3816   -8.9161  -15.0156 N   0  0  0  0  0  0  0  0  0  0  0  0
   22.1935   -7.7221  -15.2624 C   0  0  0  0  0  0  0  0  0  0  0  0
   21.9286   -6.6868  -14.2348 C   0  0  0  0  0  0  0  0  0  0  0  0
   21.6916   -7.0309  -13.0487 O   0  0  0  0  0  0  0  0  0  0  0  0
   21.9294   -5.2996  -14.5294 N   0  0  0  0  0  0  0  0  0  0  0  0
   21.6987   -4.2785  -13.5268 C   0  0  0  0  0  0  0  0  0  0  0  0
   21.8590   -2.9379  -14.1187 C   0  0  0  0  0  0  0  0  0  0  0  0
   22.0794   -2.8216  -15.3526 O   0  0  0  0  0  0  0  0  0  0  0  0
   21.7660   -1.8103  -13.3126 O   0  0  0  0  0  0  0  0  0  0  0  0
  2  1  1  6
  2  3  1  0
  4  5  1  0
  4  2  1  0
  5  6  1  1
  7  5  1  0
  7  8  2  0
  9  7  1  0
 10  9  1  0
 10 11  1  0
 11 13  1  0
 11 12  2  0
 13 14  1  0
 14 15  1  0
 15 16  2  0
 15 17  1  0
M  END
$$$$
