LGG.pdb
     RDKit          3D

 17 16  0  0  1  0  0  0  0  0999 V2000
   25.2286  -33.4434  -11.5421 C   0  0  0  0  0  0  0  0  0  0  0  0
   24.8802  -33.1954  -10.1041 C   0  0  1  0  0  0  0  0  0  0  0  0
   23.5969  -33.9265   -9.8031 C   0  0  0  0  0  0  0  0  0  0  0  0
   25.9660  -33.6037   -9.1444 C   0  0  0  0  0  0  0  0  0  0  0  0
   25.5094  -33.3911   -7.7222 C   0  0  2  0  0  0  0  0  0  0  0  0
   25.5426  -31.9653   -7.4524 N   0  0  0  0  0  0  0  0  0  0  0  0
   26.4752  -34.0726   -6.8004 C   0  0  0  0  0  0  0  0  0  0  0  0
   26.6228  -35.3208   -6.8415 O   0  0  0  0  0  0  0  0  0  0  0  0
   27.2503  -33.3506   -5.8589 N   0  0  0  0  0  0  0  0  0  0  0  0
   28.2075  -34.0219   -4.9764 C   0  0  0  0  0  0  0  0  0  0  0  0
   27.5229  -34.5695   -3.7807 C   0  0  0  0  0  0  0  0  0  0  0  0
   26.3815  -34.1456   -3.4661 O   0  0  0  0  0  0  0  0  0  0  0  0
   28.1034  -35.5677   -2.9577 N   0  0  0  0  0  0  0  0  0  0  0  0
   27.4287  -36.1341   -1.8066 C   0  0  0  0  0  0  0  0  0  0  0  0
   27.4919  -35.1996   -0.6682 C   0  0  0  0  0  0  0  0  0  0  0  0
   28.0021  -34.0594   -0.8230 O   0  0  0  0  0  0  0  0  0  0  0  0
   26.9884  -35.5816    0.5689 O   0  0  0  0  0  0  0  0  0  0  0  0
  2  1  1  6
  2  3  1  0
  4  5  1  0
  4  2  1  0
  5  6  1  1
  7  5  1  0
  7  8  2  0
  9  7  1  0
 10  9  1  0
 10 11  1  0
 11 13  1  0
 11 12  2  0
 13 14  1  0
 14 15  1  0
 15 16  2  0
 15 17  1  0
M  END
$$$$
