LGG.pdb
     RDKit          3D

 17 16  0  0  1  0  0  0  0  0999 V2000
   22.2805  -19.4962  -14.0937 C   0  0  0  0  0  0  0  0  0  0  0  0
   21.6798  -20.7280  -14.7043 C   0  0  1  0  0  0  0  0  0  0  0  0
   21.0075  -20.3286  -15.9929 C   0  0  0  0  0  0  0  0  0  0  0  0
   22.6791  -21.8288  -14.9413 C   0  0  0  0  0  0  0  0  0  0  0  0
   22.0462  -22.9421  -15.7390 C   0  0  2  0  0  0  0  0  0  0  0  0
   21.2436  -23.7402  -14.8304 N   0  0  0  0  0  0  0  0  0  0  0  0
   23.1328  -23.8087  -16.3006 C   0  0  0  0  0  0  0  0  0  0  0  0
   23.5591  -24.7975  -15.6511 O   0  0  0  0  0  0  0  0  0  0  0  0
   23.7161  -23.5542  -17.5669 N   0  0  0  0  0  0  0  0  0  0  0  0
   24.7606  -24.4201  -18.1189 C   0  0  0  0  0  0  0  0  0  0  0  0
   26.0702  -24.1293  -17.4875 C   0  0  0  0  0  0  0  0  0  0  0  0
   26.6949  -23.0834  -17.7993 O   0  0  0  0  0  0  0  0  0  0  0  0
   26.6650  -24.9897  -16.5300 N   0  0  0  0  0  0  0  0  0  0  0  0
   27.9852  -24.7634  -15.9760 C   0  0  0  0  0  0  0  0  0  0  0  0
   28.9839  -24.6795  -17.0570 C   0  0  0  0  0  0  0  0  0  0  0  0
   28.6246  -24.8337  -18.2535 O   0  0  0  0  0  0  0  0  0  0  0  0
   30.3159  -24.4309  -16.7503 O   0  0  0  0  0  0  0  0  0  0  0  0
  2  1  1  6
  2  3  1  0
  4  5  1  0
  4  2  1  0
  5  6  1  1
  7  5  1  0
  7  8  2  0
  9  7  1  0
 10  9  1  0
 10 11  1  0
 11 13  1  0
 11 12  2  0
 13 14  1  0
 14 15  1  0
 15 16  2  0
 15 17  1  0
M  END
$$$$
