LGG.pdb
     RDKit          3D

 17 16  0  0  1  0  0  0  0  0999 V2000
   28.8131  -19.1355   -4.0566 C   0  0  0  0  0  0  0  0  0  0  0  0
   28.8859  -19.7423   -5.4267 C   0  0  1  0  0  0  0  0  0  0  0  0
   29.8953  -20.8610   -5.3875 C   0  0  0  0  0  0  0  0  0  0  0  0
   27.5582  -20.2376   -5.9351 C   0  0  0  0  0  0  0  0  0  0  0  0
   27.6845  -20.6807   -7.3718 C   0  0  2  0  0  0  0  0  0  0  0  0
   28.8777  -20.0659   -7.9241 N   0  0  0  0  0  0  0  0  0  0  0  0
   26.4949  -20.1812   -8.1350 C   0  0  0  0  0  0  0  0  0  0  0  0
   26.3886  -18.9617   -8.4229 O   0  0  0  0  0  0  0  0  0  0  0  0
   25.4567  -21.0483   -8.5576 N   0  0  0  0  0  0  0  0  0  0  0  0
   24.2945  -20.5510   -9.2976 C   0  0  0  0  0  0  0  0  0  0  0  0
   24.5811  -20.5013  -10.7514 C   0  0  0  0  0  0  0  0  0  0  0  0
   23.7111  -20.0586  -11.5443 O   0  0  0  0  0  0  0  0  0  0  0  0
   25.8127  -20.9370  -11.3030 N   0  0  0  0  0  0  0  0  0  0  0  0
   26.0641  -20.9931  -12.7294 C   0  0  0  0  0  0  0  0  0  0  0  0
   25.1785  -21.9860  -13.3643 C   0  0  0  0  0  0  0  0  0  0  0  0
   24.6782  -21.7457  -14.4940 O   0  0  0  0  0  0  0  0  0  0  0  0
   24.9006  -23.1813  -12.7131 O   0  0  0  0  0  0  0  0  0  0  0  0
  2  1  1  1
  2  3  1  0
  4  5  1  0
  4  2  1  0
  5  6  1  6
  7  5  1  0
  7  8  2  0
  9  7  1  0
 10  9  1  0
 10 11  1  0
 11 13  1  0
 11 12  2  0
 13 14  1  0
 14 15  1  0
 15 16  2  0
 15 17  1  0
M  END
$$$$
