LGG.pdb
     RDKit          3D

 17 16  0  0  1  0  0  0  0  0999 V2000
   24.1223  -15.4958  -17.1680 C   0  0  0  0  0  0  0  0  0  0  0  0
   23.5408  -14.6299  -16.0895 C   0  0  1  0  0  0  0  0  0  0  0  0
   24.2330  -14.9709  -14.7947 C   0  0  0  0  0  0  0  0  0  0  0  0
   23.6465  -13.1565  -16.3805 C   0  0  0  0  0  0  0  0  0  0  0  0
   22.9580  -12.3625  -15.2981 C   0  0  2  0  0  0  0  0  0  0  0  0
   21.5631  -12.7630  -15.2709 N   0  0  0  0  0  0  0  0  0  0  0  0
   23.0285  -10.9073  -15.6510 C   0  0  0  0  0  0  0  0  0  0  0  0
   24.1398  -10.3244  -15.7324 O   0  0  0  0  0  0  0  0  0  0  0  0
   21.8645  -10.1394  -15.9036 N   0  0  0  0  0  0  0  0  0  0  0  0
   21.9437   -8.7259  -16.2792 C   0  0  0  0  0  0  0  0  0  0  0  0
   21.8004   -7.8578  -15.0859 C   0  0  0  0  0  0  0  0  0  0  0  0
   21.7185   -8.3762  -13.9431 O   0  0  0  0  0  0  0  0  0  0  0  0
   21.7502   -6.4432  -15.1713 N   0  0  0  0  0  0  0  0  0  0  0  0
   21.5246   -5.5893  -14.0220 C   0  0  0  0  0  0  0  0  0  0  0  0
   21.7001   -4.1743  -14.3961 C   0  0  0  0  0  0  0  0  0  0  0  0
   21.5678   -3.2761  -13.5243 O   0  0  0  0  0  0  0  0  0  0  0  0
   22.0105   -3.8392  -15.7082 O   0  0  0  0  0  0  0  0  0  0  0  0
  2  1  1  6
  2  3  1  0
  4  5  1  0
  4  2  1  0
  5  6  1  6
  7  5  1  0
  7  8  2  0
  9  7  1  0
 10  9  1  0
 10 11  1  0
 11 13  1  0
 11 12  2  0
 13 14  1  0
 14 15  1  0
 15 16  2  0
 15 17  1  0
M  END
$$$$
