LGG.pdb
     RDKit          3D

 17 16  0  0  1  0  0  0  0  0999 V2000
   17.6083  -11.1000  -17.4603 C   0  0  0  0  0  0  0  0  0  0  0  0
   19.0686  -11.4434  -17.4834 C   0  0  1  0  0  0  0  0  0  0  0  0
   19.2709  -12.5499  -18.4867 C   0  0  0  0  0  0  0  0  0  0  0  0
   19.9566  -10.2686  -17.7966 C   0  0  0  0  0  0  0  0  0  0  0  0
   21.3898  -10.5958  -17.4576 C   0  0  2  0  0  0  0  0  0  0  0  0
   21.3878  -11.4194  -16.2624 N   0  0  0  0  0  0  0  0  0  0  0  0
   22.1154   -9.3195  -17.1548 C   0  0  0  0  0  0  0  0  0  0  0  0
   22.2951   -8.4597  -18.0547 O   0  0  0  0  0  0  0  0  0  0  0  0
   22.6214   -9.0327  -15.8625 N   0  0  0  0  0  0  0  0  0  0  0  0
   23.2635   -7.7523  -15.5561 C   0  0  0  0  0  0  0  0  0  0  0  0
   22.3751   -6.9068  -14.7229 C   0  0  0  0  0  0  0  0  0  0  0  0
   21.2032   -7.2890  -14.4739 O   0  0  0  0  0  0  0  0  0  0  0  0
   22.7901   -5.6633  -14.1821 N   0  0  0  0  0  0  0  0  0  0  0  0
   21.9804   -4.8932  -13.2589 C   0  0  0  0  0  0  0  0  0  0  0  0
   21.0591   -4.0134  -14.0007 C   0  0  0  0  0  0  0  0  0  0  0  0
   21.0453   -4.0414  -15.2590 O   0  0  0  0  0  0  0  0  0  0  0  0
   20.2113   -3.1582  -13.3079 O   0  0  0  0  0  0  0  0  0  0  0  0
  2  1  1  6
  2  3  1  0
  4  5  1  0
  4  2  1  0
  5  6  1  1
  7  5  1  0
  7  8  2  0
  9  7  1  0
 10  9  1  0
 10 11  1  0
 11 13  1  0
 11 12  2  0
 13 14  1  0
 14 15  1  0
 15 16  2  0
 15 17  1  0
M  END
$$$$
