LGG.pdb
     RDKit          3D

 17 16  0  0  1  0  0  0  0  0999 V2000
   20.0337  -13.7133  -15.2121 C   0  0  0  0  0  0  0  0  0  0  0  0
   19.4077  -12.8584  -16.2743 C   0  0  1  0  0  0  0  0  0  0  0  0
   18.2112  -13.5950  -16.8198 C   0  0  0  0  0  0  0  0  0  0  0  0
   19.0163  -11.4881  -15.7885 C   0  0  0  0  0  0  0  0  0  0  0  0
   18.5815  -10.6296  -16.9504 C   0  0  2  0  0  0  0  0  0  0  0  0
   19.7271  -10.4479  -17.8229 N   0  0  0  0  0  0  0  0  0  0  0  0
   18.1643   -9.2883  -16.4271 C   0  0  0  0  0  0  0  0  0  0  0  0
   17.2495   -9.1953  -15.5693 O   0  0  0  0  0  0  0  0  0  0  0  0
   18.7734   -8.0877  -16.8699 N   0  0  0  0  0  0  0  0  0  0  0  0
   18.3415   -6.7792  -16.3732 C   0  0  0  0  0  0  0  0  0  0  0  0
   19.4974   -6.0070  -15.8574 C   0  0  0  0  0  0  0  0  0  0  0  0
   19.3562   -4.7918  -15.5660 O   0  0  0  0  0  0  0  0  0  0  0  0
   20.7801   -6.5827  -15.6728 N   0  0  0  0  0  0  0  0  0  0  0  0
   21.9154   -5.8377  -15.1659 C   0  0  0  0  0  0  0  0  0  0  0  0
   21.8943   -5.8170  -13.6920 C   0  0  0  0  0  0  0  0  0  0  0  0
   22.8741   -5.3435  -13.0593 O   0  0  0  0  0  0  0  0  0  0  0  0
   20.7941   -6.3198  -13.0089 O   0  0  0  0  0  0  0  0  0  0  0  0
  2  1  1  1
  2  3  1  0
  4  5  1  0
  4  2  1  0
  5  6  1  6
  7  5  1  0
  7  8  2  0
  9  7  1  0
 10  9  1  0
 10 11  1  0
 11 13  1  0
 11 12  2  0
 13 14  1  0
 14 15  1  0
 15 16  2  0
 15 17  1  0
M  END
$$$$
