LGG.pdb
     RDKit          3D

 17 16  0  0  1  0  0  0  0  0999 V2000
   25.7287  -13.7642  -15.7307 C   0  0  0  0  0  0  0  0  0  0  0  0
   24.8005  -12.7970  -16.4042 C   0  0  1  0  0  0  0  0  0  0  0  0
   23.9722  -13.5646  -17.4025 C   0  0  0  0  0  0  0  0  0  0  0  0
   23.9185  -12.0439  -15.4441 C   0  0  0  0  0  0  0  0  0  0  0  0
   22.9797  -11.1383  -16.2021 C   0  0  2  0  0  0  0  0  0  0  0  0
   23.7825  -10.1638  -16.9183 N   0  0  0  0  0  0  0  0  0  0  0  0
   22.1143  -10.4109  -15.2178 C   0  0  0  0  0  0  0  0  0  0  0  0
   21.3485  -11.0476  -14.4500 O   0  0  0  0  0  0  0  0  0  0  0  0
   22.1226   -8.9976  -15.1125 N   0  0  0  0  0  0  0  0  0  0  0  0
   21.4305   -8.3048  -14.0232 C   0  0  0  0  0  0  0  0  0  0  0  0
   21.7280   -6.8526  -14.0533 C   0  0  0  0  0  0  0  0  0  0  0  0
   21.2424   -6.0977  -13.1725 O   0  0  0  0  0  0  0  0  0  0  0  0
   22.5496   -6.2611  -15.0461 N   0  0  0  0  0  0  0  0  0  0  0  0
   22.9631   -4.8724  -15.0056 C   0  0  0  0  0  0  0  0  0  0  0  0
   21.9204   -4.0129  -15.5947 C   0  0  0  0  0  0  0  0  0  0  0  0
   20.8450   -4.5246  -16.0024 O   0  0  0  0  0  0  0  0  0  0  0  0
   22.1294   -2.6433  -15.6972 O   0  0  0  0  0  0  0  0  0  0  0  0
  2  1  1  1
  2  3  1  0
  4  5  1  0
  4  2  1  0
  5  6  1  1
  7  5  1  0
  7  8  2  0
  9  7  1  0
 10  9  1  0
 10 11  1  0
 11 13  1  0
 11 12  2  0
 13 14  1  0
 14 15  1  0
 15 16  2  0
 15 17  1  0
M  END
$$$$
