LGG.pdb
     RDKit          3D

 17 16  0  0  1  0  0  0  0  0999 V2000
   26.0046  -20.3621  -18.8997 C   0  0  0  0  0  0  0  0  0  0  0  0
   26.3880  -21.2801  -17.7767 C   0  0  1  0  0  0  0  0  0  0  0  0
   26.7566  -22.6151  -18.3716 C   0  0  0  0  0  0  0  0  0  0  0  0
   27.5076  -20.7480  -16.9222 C   0  0  0  0  0  0  0  0  0  0  0  0
   27.7299  -21.6521  -15.7350 C   0  0  2  0  0  0  0  0  0  0  0  0
   27.2605  -22.9786  -16.0915 N   0  0  0  0  0  0  0  0  0  0  0  0
   26.9077  -21.1488  -14.5871 C   0  0  0  0  0  0  0  0  0  0  0  0
   27.0431  -19.9683  -14.1756 O   0  0  0  0  0  0  0  0  0  0  0  0
   25.9585  -21.9690  -13.9277 N   0  0  0  0  0  0  0  0  0  0  0  0
   25.1179  -21.4524  -12.8452 C   0  0  0  0  0  0  0  0  0  0  0  0
   23.8642  -20.8742  -13.3858 C   0  0  0  0  0  0  0  0  0  0  0  0
   23.6035  -19.6591  -13.1933 O   0  0  0  0  0  0  0  0  0  0  0  0
   22.9257  -21.6391  -14.1240 N   0  0  0  0  0  0  0  0  0  0  0  0
   21.7269  -21.0705  -14.7076 C   0  0  0  0  0  0  0  0  0  0  0  0
   20.5539  -21.3884  -13.8733 C   0  0  0  0  0  0  0  0  0  0  0  0
   20.6995  -22.0648  -12.8218 O   0  0  0  0  0  0  0  0  0  0  0  0
   19.2944  -20.9404  -14.2514 O   0  0  0  0  0  0  0  0  0  0  0  0
  2  1  1  6
  2  3  1  0
  4  5  1  0
  4  2  1  0
  5  6  1  6
  7  5  1  0
  7  8  2  0
  9  7  1  0
 10  9  1  0
 10 11  1  0
 11 13  1  0
 11 12  2  0
 13 14  1  0
 14 15  1  0
 15 16  2  0
 15 17  1  0
M  END
$$$$
