LGG.pdb
     RDKit          3D

 17 16  0  0  1  0  0  0  0  0999 V2000
   27.4849   -9.7471  -16.2535 C   0  0  0  0  0  0  0  0  0  0  0  0
   26.1347  -10.3963  -16.3330 C   0  0  1  0  0  0  0  0  0  0  0  0
   26.3392  -11.8642  -16.6072 C   0  0  0  0  0  0  0  0  0  0  0  0
   25.2980  -10.1946  -15.0977 C   0  0  0  0  0  0  0  0  0  0  0  0
   23.8711  -10.6063  -15.3637 C   0  0  2  0  0  0  0  0  0  0  0  0
   23.7251  -10.8079  -16.7936 N   0  0  0  0  0  0  0  0  0  0  0  0
   22.9628   -9.4898  -14.9451 C   0  0  0  0  0  0  0  0  0  0  0  0
   22.9809   -9.0628  -13.7624 O   0  0  0  0  0  0  0  0  0  0  0  0
   22.0598   -8.8781  -15.8500 N   0  0  0  0  0  0  0  0  0  0  0  0
   21.1167   -7.8459  -15.4135 C   0  0  0  0  0  0  0  0  0  0  0  0
   21.8006   -6.5382  -15.2702 C   0  0  0  0  0  0  0  0  0  0  0  0
   22.4668   -6.0737  -16.2303 O   0  0  0  0  0  0  0  0  0  0  0  0
   21.7392   -5.7700  -14.0798 N   0  0  0  0  0  0  0  0  0  0  0  0
   22.4586   -4.5237  -13.9053 C   0  0  0  0  0  0  0  0  0  0  0  0
   21.5914   -3.3823  -14.2494 C   0  0  0  0  0  0  0  0  0  0  0  0
   20.4317   -3.5896  -14.6926 O   0  0  0  0  0  0  0  0  0  0  0  0
   22.0580   -2.0844  -14.0829 O   0  0  0  0  0  0  0  0  0  0  0  0
  2  1  1  1
  2  3  1  0
  4  5  1  0
  4  2  1  0
  5  6  1  6
  7  5  1  0
  7  8  2  0
  9  7  1  0
 10  9  1  0
 10 11  1  0
 11 13  1  0
 11 12  2  0
 13 14  1  0
 14 15  1  0
 15 16  2  0
 15 17  1  0
M  END
$$$$
