PNR.pdb
     RDKit          3D

 27 27  0  0  1  0  0  0  0  0999 V2000
    6.8697  -21.8409   18.6206 N   0  0  0  0  0  0  0  0  0  0  0  0
    5.9650  -22.3962   17.6604 C   0  0  0  0  0  0  0  0  0  0  0  0
    5.4921  -21.1687   16.8905 C   0  0  0  0  0  0  0  0  0  0  0  0
    5.1525  -20.2618   18.0863 C   0  0  0  0  0  0  0  0  0  0  0  0
    6.2880  -20.5975   19.0529 C   0  0  1  0  0  0  0  0  0  0  0  0
    5.7395  -20.7313   20.4239 C   0  0  0  0  0  0  0  0  0  0  0  0
    5.1920  -19.7246   20.9750 O   0  0  0  0  0  0  0  0  0  0  0  0
    2.7391  -22.3448   24.4174 N   0  0  0  0  0  0  0  0  0  0  0  0
    3.8552  -23.1601   24.0971 C   0  0  0  0  0  0  0  0  0  0  0  0
    4.3211  -23.8488   25.0389 O   0  0  0  0  0  0  0  0  0  0  0  0
    4.3754  -23.1401   22.7145 C   0  0  0  0  0  0  0  0  0  0  0  0
    5.2696  -21.9414   22.5426 C   0  0  2  0  0  0  0  0  0  0  0  0
    5.7848  -21.9409   21.1871 N   0  0  0  0  0  0  0  0  0  0  0  0
    6.3891  -22.1054   23.5065 C   0  0  0  0  0  0  0  0  0  0  0  0
    7.2948  -22.9552   23.2034 O   0  0  0  0  0  0  0  0  0  0  0  0
   10.4187  -18.4929   30.7821 N   0  0  0  0  0  0  0  0  0  0  0  0
    9.9527  -19.8316   30.7452 C   0  0  0  0  0  0  0  0  0  0  0  0
   10.5105  -20.7046   31.4839 N   0  0  0  0  0  0  0  0  0  0  0  0
    8.8833  -20.1650   29.8896 N   0  0  0  0  0  0  0  0  0  0  0  0
    9.0351  -20.0353   28.4639 C   0  0  0  0  0  0  0  0  0  0  0  0
    7.7002  -20.3137   27.7540 C   0  0  0  0  0  0  0  0  0  0  0  0
    7.9542  -20.2744   26.2712 C   0  0  0  0  0  0  0  0  0  0  0  0
    7.6830  -21.5925   25.5998 C   0  0  2  0  0  0  0  0  0  0  0  0
    6.5323  -21.4097   24.7109 N   0  0  0  0  0  0  0  0  0  0  0  0
    7.3839  -22.6326   26.5872 C   0  0  0  0  0  0  0  0  0  0  0  0
    8.3176  -23.2562   27.3934 O   0  0  0  0  0  0  0  0  0  0  0  0
    6.1915  -23.0186   26.7428 O   0  0  0  0  0  0  0  0  0  0  0  0
  1  2  1  0
  3  2  1  0
  4  5  1  0
  4  3  1  0
  5  1  1  0
  5  6  1  1
  6  7  2  0
  8  9  1  0
  9 11  1  0
 10  9  2  0
 12 11  1  6
 12 13  1  0
 13  6  1  0
 14 12  1  0
 15 14  2  0
 16 17  1  0
 17 19  1  0
 18 17  2  0
 19 20  1  0
 21 20  1  0
 22 21  1  0
 23 22  1  1
 23 24  1  0
 24 14  1  0
 25 23  1  0
 26 25  1  0
 27 25  2  0
M  END
$$$$
