PNR.pdb
     RDKit          3D

 27 27  0  0  1  0  0  0  0  0999 V2000
   10.4948  -15.9242   15.9377 N   0  0  0  0  0  0  0  0  0  0  0  0
    9.9355  -16.7850   14.9403 C   0  0  0  0  0  0  0  0  0  0  0  0
    8.4536  -16.4300   14.9782 C   0  0  0  0  0  0  0  0  0  0  0  0
    8.2392  -16.4927   16.5007 C   0  0  0  0  0  0  0  0  0  0  0  0
    9.5418  -15.8805   17.0153 C   0  0  1  0  0  0  0  0  0  0  0  0
   10.0303  -16.6704   18.1710 C   0  0  0  0  0  0  0  0  0  0  0  0
    9.3030  -16.7665   19.2097 O   0  0  0  0  0  0  0  0  0  0  0  0
   14.7113  -19.9249   20.5347 N   0  0  0  0  0  0  0  0  0  0  0  0
   13.3599  -19.5913   20.2605 C   0  0  0  0  0  0  0  0  0  0  0  0
   12.4962  -20.1781   20.9592 O   0  0  0  0  0  0  0  0  0  0  0  0
   13.0736  -18.6036   19.1998 C   0  0  0  0  0  0  0  0  0  0  0  0
   11.6891  -18.0494   19.4043 C   0  0  2  0  0  0  0  0  0  0  0  0
   11.2910  -17.3467   18.1998 N   0  0  0  0  0  0  0  0  0  0  0  0
   11.7782  -17.0931   20.5386 C   0  0  0  0  0  0  0  0  0  0  0  0
   12.5587  -16.0913   20.3920 O   0  0  0  0  0  0  0  0  0  0  0  0
    6.6167  -12.9469   19.1757 N   0  0  0  0  0  0  0  0  0  0  0  0
    7.0706  -13.1323   20.5062 C   0  0  0  0  0  0  0  0  0  0  0  0
    7.0990  -12.1366   21.2977 N   0  0  0  0  0  0  0  0  0  0  0  0
    7.4815  -14.4153   20.9209 N   0  0  0  0  0  0  0  0  0  0  0  0
    7.7940  -14.6583   22.3050 C   0  0  0  0  0  0  0  0  0  0  0  0
    8.8053  -15.8091   22.4335 C   0  0  0  0  0  0  0  0  0  0  0  0
   10.1569  -15.2023   22.6980 C   0  0  0  0  0  0  0  0  0  0  0  0
   11.2402  -16.2356   22.8397 C   0  0  2  0  0  0  0  0  0  0  0  0
   11.0814  -17.1985   21.7464 N   0  0  0  0  0  0  0  0  0  0  0  0
   11.1394  -16.9285   24.1265 C   0  0  0  0  0  0  0  0  0  0  0  0
   11.4047  -16.3609   25.3586 O   0  0  0  0  0  0  0  0  0  0  0  0
   10.7873  -18.1411   24.1545 O   0  0  0  0  0  0  0  0  0  0  0  0
  1  2  1  0
  3  2  1  0
  4  5  1  0
  4  3  1  0
  5  1  1  0
  5  6  1  1
  6  7  2  0
  8  9  1  0
  9 11  1  0
 10  9  2  0
 12 11  1  6
 12 13  1  0
 13  6  1  0
 14 12  1  0
 15 14  2  0
 16 17  1  0
 17 19  1  0
 18 17  2  0
 19 20  1  0
 21 20  1  0
 22 21  1  0
 23 22  1  1
 23 24  1  0
 24 14  1  0
 25 23  1  0
 26 25  1  0
 27 25  2  0
M  END
$$$$
