PNR.pdb
     RDKit          3D

 27 27  0  0  1  0  0  0  0  0999 V2000
   10.7214  -15.9694   16.4418 N   0  0  0  0  0  0  0  0  0  0  0  0
   10.5623  -17.0029   15.4645 C   0  0  0  0  0  0  0  0  0  0  0  0
    9.0696  -16.9547   15.1599 C   0  0  0  0  0  0  0  0  0  0  0  0
    8.5389  -16.9378   16.6042 C   0  0  0  0  0  0  0  0  0  0  0  0
    9.5621  -16.0343   17.2921 C   0  0  1  0  0  0  0  0  0  0  0  0
    9.9180  -16.6134   18.6097 C   0  0  0  0  0  0  0  0  0  0  0  0
    9.0003  -16.8224   19.4649 O   0  0  0  0  0  0  0  0  0  0  0  0
   13.4334  -20.2134   21.4706 N   0  0  0  0  0  0  0  0  0  0  0  0
   13.1115  -18.8361   21.5801 C   0  0  0  0  0  0  0  0  0  0  0  0
   13.0230  -18.3834   22.7487 O   0  0  0  0  0  0  0  0  0  0  0  0
   12.9082  -18.0540   20.3433 C   0  0  0  0  0  0  0  0  0  0  0  0
   11.4725  -17.6068   20.2743 C   0  0  2  0  0  0  0  0  0  0  0  0
   11.2517  -16.9608   18.9949 N   0  0  0  0  0  0  0  0  0  0  0  0
   11.2807  -16.6250   21.3736 C   0  0  0  0  0  0  0  0  0  0  0  0
   12.0424  -15.5982   21.3729 O   0  0  0  0  0  0  0  0  0  0  0  0
    9.7691  -12.9937   19.6910 N   0  0  0  0  0  0  0  0  0  0  0  0
    8.3720  -12.8997   19.4674 C   0  0  0  0  0  0  0  0  0  0  0  0
    7.9489  -12.5106   18.3323 N   0  0  0  0  0  0  0  0  0  0  0  0
    7.4838  -13.2379   20.5085 N   0  0  0  0  0  0  0  0  0  0  0  0
    7.9908  -13.4995   21.8302 C   0  0  0  0  0  0  0  0  0  0  0  0
    8.2959  -14.9964   22.0021 C   0  0  0  0  0  0  0  0  0  0  0  0
    8.7910  -15.2035   23.4081 C   0  0  0  0  0  0  0  0  0  0  0  0
   10.2013  -15.7233   23.4571 C   0  0  2  0  0  0  0  0  0  0  0  0
   10.3400  -16.7314   22.4026 N   0  0  0  0  0  0  0  0  0  0  0  0
   10.4928  -16.3275   24.7594 C   0  0  0  0  0  0  0  0  0  0  0  0
   10.7808  -15.6262   25.9152 O   0  0  0  0  0  0  0  0  0  0  0  0
   10.4926  -17.5851   24.8761 O   0  0  0  0  0  0  0  0  0  0  0  0
  1  2  1  0
  3  2  1  0
  4  5  1  0
  4  3  1  0
  5  1  1  0
  5  6  1  1
  6  7  2  0
  8  9  1  0
  9 11  1  0
 10  9  2  0
 12 11  1  6
 12 13  1  0
 13  6  1  0
 14 12  1  0
 15 14  2  0
 16 17  1  0
 17 19  1  0
 18 17  2  0
 19 20  1  0
 21 20  1  0
 22 21  1  0
 23 22  1  1
 23 24  1  0
 24 14  1  0
 25 23  1  0
 26 25  1  0
 27 25  2  0
M  END
$$$$
