PNR.pdb
     RDKit          3D

 27 27  0  0  1  0  0  0  0  0999 V2000
    8.3207  -13.8723   17.3792 N   0  0  0  0  0  0  0  0  0  0  0  0
    8.3202  -13.1621   16.1365 C   0  0  0  0  0  0  0  0  0  0  0  0
    7.7825  -14.1967   15.1548 C   0  0  0  0  0  0  0  0  0  0  0  0
    8.6745  -15.3840   15.5578 C   0  0  0  0  0  0  0  0  0  0  0  0
    8.7318  -15.2178   17.0762 C   0  0  1  0  0  0  0  0  0  0  0  0
   10.1198  -15.4525   17.5418 C   0  0  0  0  0  0  0  0  0  0  0  0
   10.5940  -16.6321   17.5119 O   0  0  0  0  0  0  0  0  0  0  0  0
   15.6227  -13.1318   18.5895 N   0  0  0  0  0  0  0  0  0  0  0  0
   14.6548  -14.1353   18.3268 C   0  0  0  0  0  0  0  0  0  0  0  0
   15.0595  -15.3224   18.4022 O   0  0  0  0  0  0  0  0  0  0  0  0
   13.2766  -13.7221   17.9917 C   0  0  0  0  0  0  0  0  0  0  0  0
   12.3151  -14.7702   18.4846 C   0  0  2  0  0  0  0  0  0  0  0  0
   10.9818  -14.4216   18.0335 N   0  0  0  0  0  0  0  0  0  0  0  0
   12.3702  -14.7318   19.9694 C   0  0  0  0  0  0  0  0  0  0  0  0
   11.6910  -13.8182   20.5510 O   0  0  0  0  0  0  0  0  0  0  0  0
    6.6136  -16.7754   24.6256 N   0  0  0  0  0  0  0  0  0  0  0  0
    7.6687  -16.3082   25.4497 C   0  0  0  0  0  0  0  0  0  0  0  0
    7.3919  -15.6204   26.4838 N   0  0  0  0  0  0  0  0  0  0  0  0
    9.0003  -16.6150   25.1036 N   0  0  0  0  0  0  0  0  0  0  0  0
    9.4760  -16.3522   23.7706 C   0  0  0  0  0  0  0  0  0  0  0  0
   10.9454  -16.7819   23.6300 C   0  0  0  0  0  0  0  0  0  0  0  0
   11.3877  -16.4471   22.2311 C   0  0  0  0  0  0  0  0  0  0  0  0
   12.7679  -15.8517   22.1846 C   0  0  2  0  0  0  0  0  0  0  0  0
   13.0997  -15.6089   20.7780 N   0  0  0  0  0  0  0  0  0  0  0  0
   13.7524  -16.7624   22.7742 C   0  0  0  0  0  0  0  0  0  0  0  0
   14.1507  -16.7547   24.0977 O   0  0  0  0  0  0  0  0  0  0  0  0
   14.3045  -17.6364   22.0486 O   0  0  0  0  0  0  0  0  0  0  0  0
  1  2  1  0
  3  2  1  0
  4  5  1  0
  4  3  1  0
  5  1  1  0
  5  6  1  6
  6  7  2  0
  8  9  1  0
  9 11  1  0
 10  9  2  0
 12 11  1  6
 12 13  1  0
 13  6  1  0
 14 12  1  0
 15 14  2  0
 16 17  1  0
 17 19  1  0
 18 17  2  0
 19 20  1  0
 21 20  1  0
 22 21  1  0
 23 22  1  6
 23 24  1  0
 24 14  1  0
 25 23  1  0
 26 25  1  0
 27 25  2  0
M  END
$$$$
