PNR.pdb
     RDKit          3D

 27 27  0  0  1  0  0  0  0  0999 V2000
    9.2361  -17.0160   15.0483 N   0  0  0  0  0  0  0  0  0  0  0  0
    8.8042  -17.4726   13.7624 C   0  0  0  0  0  0  0  0  0  0  0  0
    7.5289  -18.2421   14.0865 C   0  0  0  0  0  0  0  0  0  0  0  0
    8.0609  -19.0906   15.2547 C   0  0  0  0  0  0  0  0  0  0  0  0
    8.9653  -18.0874   15.9703 C   0  0  1  0  0  0  0  0  0  0  0  0
   10.2254  -18.7609   16.3662 C   0  0  0  0  0  0  0  0  0  0  0  0
   10.1826  -19.7151   17.2057 O   0  0  0  0  0  0  0  0  0  0  0  0
   13.8254  -18.6176   12.8644 N   0  0  0  0  0  0  0  0  0  0  0  0
   13.5764  -19.4144   14.0115 C   0  0  0  0  0  0  0  0  0  0  0  0
   13.1587  -20.5788   13.7919 O   0  0  0  0  0  0  0  0  0  0  0  0
   13.8197  -18.8317   15.3471 C   0  0  0  0  0  0  0  0  0  0  0  0
   12.6713  -19.1841   16.2543 C   0  0  2  0  0  0  0  0  0  0  0  0
   11.5148  -18.4037   15.8588 N   0  0  0  0  0  0  0  0  0  0  0  0
   13.0865  -18.8065   17.6306 C   0  0  0  0  0  0  0  0  0  0  0  0
   12.8859  -17.5945   17.9843 O   0  0  0  0  0  0  0  0  0  0  0  0
   11.1345  -23.0859   24.5273 N   0  0  0  0  0  0  0  0  0  0  0  0
   12.5359  -23.0047   24.7278 C   0  0  0  0  0  0  0  0  0  0  0  0
   13.0541  -23.5823   25.7361 N   0  0  0  0  0  0  0  0  0  0  0  0
   13.3227  -22.2845   23.8062 N   0  0  0  0  0  0  0  0  0  0  0  0
   12.6897  -21.4816   22.7928 C   0  0  0  0  0  0  0  0  0  0  0  0
   13.7472  -20.7749   21.9291 C   0  0  0  0  0  0  0  0  0  0  0  0
   13.0236  -20.0244   20.8438 C   0  0  0  0  0  0  0  0  0  0  0  0
   13.9558  -19.2591   19.9455 C   0  0  2  0  0  0  0  0  0  0  0  0
   13.6748  -19.6640   18.5654 N   0  0  0  0  0  0  0  0  0  0  0  0
   15.3543  -19.5500   20.2705 C   0  0  0  0  0  0  0  0  0  0  0  0
   16.0370  -19.0520   21.3645 O   0  0  0  0  0  0  0  0  0  0  0  0
   16.0237  -20.3096   19.5156 O   0  0  0  0  0  0  0  0  0  0  0  0
  1  2  1  0
  3  2  1  0
  4  5  1  0
  4  3  1  0
  5  1  1  0
  5  6  1  6
  6  7  2  0
  8  9  1  0
  9 11  1  0
 10  9  2  0
 12 11  1  6
 12 13  1  0
 13  6  1  0
 14 12  1  0
 15 14  2  0
 16 17  1  0
 17 19  1  0
 18 17  2  0
 19 20  1  0
 21 20  1  0
 22 21  1  0
 23 22  1  1
 23 24  1  0
 24 14  1  0
 25 23  1  0
 26 25  1  0
 27 25  2  0
M  END
$$$$
