PNR.pdb
     RDKit          3D

 27 27  0  0  1  0  0  0  0  0999 V2000
    7.6547  -14.9675   18.5916 N   0  0  0  0  0  0  0  0  0  0  0  0
    6.4006  -14.3376   18.3103 C   0  0  0  0  0  0  0  0  0  0  0  0
    6.7843  -12.8701   18.1598 C   0  0  0  0  0  0  0  0  0  0  0  0
    7.6451  -12.7247   19.4269 C   0  0  0  0  0  0  0  0  0  0  0  0
    8.3758  -14.0671   19.4522 C   0  0  1  0  0  0  0  0  0  0  0  0
    8.3986  -14.5852   20.8412 C   0  0  0  0  0  0  0  0  0  0  0  0
    9.0572  -13.9557   21.7284 O   0  0  0  0  0  0  0  0  0  0  0  0
    7.0529  -19.0806   24.6040 N   0  0  0  0  0  0  0  0  0  0  0  0
    6.9247  -17.6970   24.3177 C   0  0  0  0  0  0  0  0  0  0  0  0
    6.9091  -16.9291   25.3120 O   0  0  0  0  0  0  0  0  0  0  0  0
    6.8210  -17.2705   22.9071 C   0  0  0  0  0  0  0  0  0  0  0  0
    7.8688  -16.2257   22.6307 C   0  0  2  0  0  0  0  0  0  0  0  0
    7.7165  -15.7706   21.2622 N   0  0  0  0  0  0  0  0  0  0  0  0
    9.1868  -16.8927   22.7956 C   0  0  0  0  0  0  0  0  0  0  0  0
    9.3295  -18.0379   22.2457 O   0  0  0  0  0  0  0  0  0  0  0  0
   16.0803  -14.1680   19.4428 N   0  0  0  0  0  0  0  0  0  0  0  0
   16.6380  -15.2826   20.1190 C   0  0  0  0  0  0  0  0  0  0  0  0
   17.8308  -15.6375   19.8538 N   0  0  0  0  0  0  0  0  0  0  0  0
   15.8577  -15.9731   21.0684 N   0  0  0  0  0  0  0  0  0  0  0  0
   14.4978  -15.5690   21.3128 C   0  0  0  0  0  0  0  0  0  0  0  0
   13.8979  -16.3767   22.4752 C   0  0  0  0  0  0  0  0  0  0  0  0
   12.4795  -15.9133   22.6698 C   0  0  0  0  0  0  0  0  0  0  0  0
   11.6300  -16.9264   23.3864 C   0  0  2  0  0  0  0  0  0  0  0  0
   10.2779  -16.3726   23.4986 N   0  0  0  0  0  0  0  0  0  0  0  0
   12.1617  -17.2060   24.7225 C   0  0  0  0  0  0  0  0  0  0  0  0
   11.5246  -16.9039   25.9114 O   0  0  0  0  0  0  0  0  0  0  0  0
   13.2885  -17.7642   24.8397 O   0  0  0  0  0  0  0  0  0  0  0  0
  1  2  1  0
  3  2  1  0
  4  5  1  0
  4  3  1  0
  5  1  1  0
  5  6  1  1
  6  7  2  0
  8  9  1  0
  9 11  1  0
 10  9  2  0
 12 11  1  6
 12 13  1  0
 13  6  1  0
 14 12  1  0
 15 14  2  0
 16 17  1  0
 17 19  1  0
 18 17  2  0
 19 20  1  0
 21 20  1  0
 22 21  1  0
 23 22  1  1
 23 24  1  0
 24 14  1  0
 25 23  1  0
 26 25  1  0
 27 25  2  0
M  END
$$$$
