PNR.pdb
     RDKit          3D

 27 27  0  0  1  0  0  0  0  0999 V2000
    7.9120  -14.8619   19.1352 N   0  0  0  0  0  0  0  0  0  0  0  0
    6.8622  -13.9750   19.5354 C   0  0  0  0  0  0  0  0  0  0  0  0
    7.2896  -12.6459   18.9238 C   0  0  0  0  0  0  0  0  0  0  0  0
    8.7558  -12.6369   19.3904 C   0  0  0  0  0  0  0  0  0  0  0  0
    9.1349  -14.1085   19.2258 C   0  0  1  0  0  0  0  0  0  0  0  0
    9.9257  -14.5443   20.4019 C   0  0  0  0  0  0  0  0  0  0  0  0
   11.0496  -13.9960   20.6325 O   0  0  0  0  0  0  0  0  0  0  0  0
   11.5623  -16.4240   24.7553 N   0  0  0  0  0  0  0  0  0  0  0  0
   10.5229  -17.3226   24.4017 C   0  0  0  0  0  0  0  0  0  0  0  0
   10.3452  -18.2917   25.1812 O   0  0  0  0  0  0  0  0  0  0  0  0
    9.7451  -17.0603   23.1733 C   0  0  0  0  0  0  0  0  0  0  0  0
   10.3352  -15.8724   22.4616 C   0  0  2  0  0  0  0  0  0  0  0  0
    9.5031  -15.5614   21.3153 N   0  0  0  0  0  0  0  0  0  0  0  0
   11.6892  -16.2811   22.0045 C   0  0  0  0  0  0  0  0  0  0  0  0
   11.7486  -17.2023   21.1201 O   0  0  0  0  0  0  0  0  0  0  0  0
   17.5225  -12.8448   16.9583 N   0  0  0  0  0  0  0  0  0  0  0  0
   16.7702  -14.0403   16.8336 C   0  0  0  0  0  0  0  0  0  0  0  0
   17.0407  -14.8493   15.8895 N   0  0  0  0  0  0  0  0  0  0  0  0
   15.7389  -14.3044   17.7575 N   0  0  0  0  0  0  0  0  0  0  0  0
   15.8602  -13.8542   19.1194 C   0  0  0  0  0  0  0  0  0  0  0  0
   15.7327  -15.0393   20.0904 C   0  0  0  0  0  0  0  0  0  0  0  0
   14.4203  -14.8987   20.8134 C   0  0  0  0  0  0  0  0  0  0  0  0
   14.1797  -16.0060   21.8020 C   0  0  2  0  0  0  0  0  0  0  0  0
   12.8968  -15.7431   22.4598 N   0  0  0  0  0  0  0  0  0  0  0  0
   15.2473  -16.0561   22.8039 C   0  0  0  0  0  0  0  0  0  0  0  0
   16.5135  -16.5684   22.5921 O   0  0  0  0  0  0  0  0  0  0  0  0
   15.0329  -15.6076   23.9649 O   0  0  0  0  0  0  0  0  0  0  0  0
  1  2  1  0
  3  2  1  0
  4  5  1  0
  4  3  1  0
  5  1  1  0
  5  6  1  1
  6  7  2  0
  8  9  1  0
  9 11  1  0
 10  9  2  0
 12 11  1  6
 12 13  1  0
 13  6  1  0
 14 12  1  0
 15 14  2  0
 16 17  1  0
 17 19  1  0
 18 17  2  0
 19 20  1  0
 21 20  1  0
 22 21  1  0
 23 22  1  6
 23 24  1  0
 24 14  1  0
 25 23  1  0
 26 25  1  0
 27 25  2  0
M  END
$$$$
