PNR.pdb
     RDKit          3D

 27 27  0  0  1  0  0  0  0  0999 V2000
    6.5118  -22.4356   22.6471 N   0  0  0  0  0  0  0  0  0  0  0  0
    7.6927  -22.9930   22.0611 C   0  0  0  0  0  0  0  0  0  0  0  0
    7.7453  -24.3903   22.6677 C   0  0  0  0  0  0  0  0  0  0  0  0
    7.5169  -24.0117   24.1416 C   0  0  0  0  0  0  0  0  0  0  0  0
    6.4805  -22.8958   24.0104 C   0  0  1  0  0  0  0  0  0  0  0  0
    6.8297  -21.7927   24.9375 C   0  0  0  0  0  0  0  0  0  0  0  0
    6.5981  -21.9290   26.1804 O   0  0  0  0  0  0  0  0  0  0  0  0
   10.5808  -18.9501   27.7117 N   0  0  0  0  0  0  0  0  0  0  0  0
    9.2019  -19.1373   27.4354 C   0  0  0  0  0  0  0  0  0  0  0  0
    8.4082  -18.4061   28.0787 O   0  0  0  0  0  0  0  0  0  0  0  0
    8.8094  -20.1530   26.4370 C   0  0  0  0  0  0  0  0  0  0  0  0
    7.7668  -19.5671   25.5228 C   0  0  2  0  0  0  0  0  0  0  0  0
    7.4217  -20.5580   24.5219 N   0  0  0  0  0  0  0  0  0  0  0  0
    8.3907  -18.3872   24.8689 C   0  0  0  0  0  0  0  0  0  0  0  0
    9.5248  -18.5682   24.3073 O   0  0  0  0  0  0  0  0  0  0  0  0
    7.7951  -14.7431   18.7499 N   0  0  0  0  0  0  0  0  0  0  0  0
    8.0009  -13.4319   19.2491 C   0  0  0  0  0  0  0  0  0  0  0  0
    8.2374  -12.4857   18.4320 N   0  0  0  0  0  0  0  0  0  0  0  0
    7.9405  -13.2071   20.6393 N   0  0  0  0  0  0  0  0  0  0  0  0
    7.5789  -14.2812   21.5269 C   0  0  0  0  0  0  0  0  0  0  0  0
    7.6645  -13.8203   22.9910 C   0  0  0  0  0  0  0  0  0  0  0  0
    7.2646  -14.9820   23.8601 C   0  0  0  0  0  0  0  0  0  0  0  0
    8.2804  -16.0908   23.8520 C   0  0  2  0  0  0  0  0  0  0  0  0
    7.8415  -17.1023   24.8173 N   0  0  0  0  0  0  0  0  0  0  0  0
    9.6053  -15.5915   24.2279 C   0  0  0  0  0  0  0  0  0  0  0  0
   10.6009  -15.2305   23.3396 O   0  0  0  0  0  0  0  0  0  0  0  0
    9.9004  -15.4685   25.4498 O   0  0  0  0  0  0  0  0  0  0  0  0
  1  2  1  0
  3  2  1  0
  4  5  1  0
  4  3  1  0
  5  1  1  0
  5  6  1  1
  6  7  2  0
  8  9  1  0
  9 11  1  0
 10  9  2  0
 12 11  1  1
 12 13  1  0
 13  6  1  0
 14 12  1  0
 15 14  2  0
 16 17  1  0
 17 19  1  0
 18 17  2  0
 19 20  1  0
 21 20  1  0
 22 21  1  0
 23 22  1  1
 23 24  1  0
 24 14  1  0
 25 23  1  0
 26 25  1  0
 27 25  2  0
M  END
$$$$
