PNR.pdb
     RDKit          3D

 27 27  0  0  1  0  0  0  0  0999 V2000
    9.4670  -14.1445   17.7597 N   0  0  0  0  0  0  0  0  0  0  0  0
    8.3765  -14.3169   16.8488 C   0  0  0  0  0  0  0  0  0  0  0  0
    7.4290  -13.1876   17.2364 C   0  0  0  0  0  0  0  0  0  0  0  0
    7.4232  -13.4027   18.7600 C   0  0  0  0  0  0  0  0  0  0  0  0
    8.8853  -13.7648   19.0202 C   0  0  1  0  0  0  0  0  0  0  0  0
    8.9463  -14.8935   19.9796 C   0  0  0  0  0  0  0  0  0  0  0  0
    8.3848  -14.7753   21.1144 O   0  0  0  0  0  0  0  0  0  0  0  0
    9.2923  -19.4504   22.0670 N   0  0  0  0  0  0  0  0  0  0  0  0
   10.4101  -19.4140   21.1942 C   0  0  0  0  0  0  0  0  0  0  0  0
   11.1775  -20.4077   21.2421 O   0  0  0  0  0  0  0  0  0  0  0  0
   10.5865  -18.2399   20.3151 C   0  0  0  0  0  0  0  0  0  0  0  0
    9.6225  -17.1623   20.7340 C   0  0  2  0  0  0  0  0  0  0  0  0
    9.6079  -16.1338   19.7119 N   0  0  0  0  0  0  0  0  0  0  0  0
   10.1428  -16.5992   22.0073 C   0  0  0  0  0  0  0  0  0  0  0  0
   11.2992  -16.0554   21.9706 O   0  0  0  0  0  0  0  0  0  0  0  0
    6.5188  -10.9043   26.4293 N   0  0  0  0  0  0  0  0  0  0  0  0
    6.3251  -12.2279   26.8996 C   0  0  0  0  0  0  0  0  0  0  0  0
    5.2130  -12.5419   27.4320 N   0  0  0  0  0  0  0  0  0  0  0  0
    7.3698  -13.1651   26.7681 N   0  0  0  0  0  0  0  0  0  0  0  0
    8.5832  -12.7989   26.0856 C   0  0  0  0  0  0  0  0  0  0  0  0
    9.5140  -14.0154   25.9545 C   0  0  0  0  0  0  0  0  0  0  0  0
    9.0692  -14.8039   24.7523 C   0  0  0  0  0  0  0  0  0  0  0  0
    9.9951  -15.9441   24.4298 C   0  0  2  0  0  0  0  0  0  0  0  0
    9.4745  -16.6149   23.2354 N   0  0  0  0  0  0  0  0  0  0  0  0
   10.0621  -16.8961   25.5413 C   0  0  0  0  0  0  0  0  0  0  0  0
   10.9161  -16.7968   26.6235 O   0  0  0  0  0  0  0  0  0  0  0  0
    9.2968  -17.9009   25.5470 O   0  0  0  0  0  0  0  0  0  0  0  0
  1  2  1  0
  3  2  1  0
  4  5  1  0
  4  3  1  0
  5  1  1  0
  5  6  1  1
  6  7  2  0
  8  9  1  0
  9 11  1  0
 10  9  2  0
 12 11  1  6
 12 13  1  0
 13  6  1  0
 14 12  1  0
 15 14  2  0
 16 17  1  0
 17 19  1  0
 18 17  2  0
 19 20  1  0
 21 20  1  0
 22 21  1  0
 23 22  1  1
 23 24  1  0
 24 14  1  0
 25 23  1  0
 26 25  1  0
 27 25  2  0
M  END
$$$$
