PNR.pdb
     RDKit          3D

 27 27  0  0  1  0  0  0  0  0999 V2000
    7.7699  -15.0306   19.9356 N   0  0  0  0  0  0  0  0  0  0  0  0
    6.7541  -14.2035   19.3587 C   0  0  0  0  0  0  0  0  0  0  0  0
    7.5531  -13.2486   18.4795 C   0  0  0  0  0  0  0  0  0  0  0  0
    8.6298  -12.8400   19.5001 C   0  0  0  0  0  0  0  0  0  0  0  0
    8.8845  -14.1650   20.2183 C   0  0  1  0  0  0  0  0  0  0  0  0
    8.9916  -13.9182   21.6763 C   0  0  0  0  0  0  0  0  0  0  0  0
   10.1432  -13.8175   22.2064 O   0  0  0  0  0  0  0  0  0  0  0  0
    6.0486  -12.2451   26.8086 N   0  0  0  0  0  0  0  0  0  0  0  0
    7.1084  -12.7464   26.0097 C   0  0  0  0  0  0  0  0  0  0  0  0
    8.2239  -12.8501   26.5784 O   0  0  0  0  0  0  0  0  0  0  0  0
    6.8304  -13.1008   24.6027 C   0  0  0  0  0  0  0  0  0  0  0  0
    8.0870  -13.6409   23.9739 C   0  0  2  0  0  0  0  0  0  0  0  0
    7.8648  -13.7830   22.5479 N   0  0  0  0  0  0  0  0  0  0  0  0
    8.3255  -14.9762   24.5817 C   0  0  0  0  0  0  0  0  0  0  0  0
    7.3168  -15.7550   24.6834 O   0  0  0  0  0  0  0  0  0  0  0  0
   13.4086  -21.5565   27.4052 N   0  0  0  0  0  0  0  0  0  0  0  0
   13.4390  -20.9491   26.1243 C   0  0  0  0  0  0  0  0  0  0  0  0
   14.5460  -20.5214   25.6653 N   0  0  0  0  0  0  0  0  0  0  0  0
   12.2419  -20.8314   25.3895 N   0  0  0  0  0  0  0  0  0  0  0  0
   11.8701  -19.5635   24.8179 C   0  0  0  0  0  0  0  0  0  0  0  0
   11.4393  -18.5828   25.9205 C   0  0  0  0  0  0  0  0  0  0  0  0
   11.0920  -17.2760   25.2598 C   0  0  0  0  0  0  0  0  0  0  0  0
    9.7232  -16.7799   25.6363 C   0  0  2  0  0  0  0  0  0  0  0  0
    9.5562  -15.4480   25.0482 N   0  0  0  0  0  0  0  0  0  0  0  0
    9.5762  -16.6992   27.0916 C   0  0  0  0  0  0  0  0  0  0  0  0
    9.6031  -15.5313   27.8303 O   0  0  0  0  0  0  0  0  0  0  0  0
    9.4120  -17.7581   27.7602 O   0  0  0  0  0  0  0  0  0  0  0  0
  1  2  1  0
  3  2  1  0
  4  5  1  0
  4  3  1  0
  5  1  1  0
  5  6  1  1
  6  7  2  0
  8  9  1  0
  9 11  1  0
 10  9  2  0
 12 11  1  1
 12 13  1  0
 13  6  1  0
 14 12  1  0
 15 14  2  0
 16 17  1  0
 17 19  1  0
 18 17  2  0
 19 20  1  0
 21 20  1  0
 22 21  1  0
 23 22  1  1
 23 24  1  0
 24 14  1  0
 25 23  1  0
 26 25  1  0
 27 25  2  0
M  END
$$$$
