PNR.pdb
     RDKit          3D

 27 27  0  0  1  0  0  0  0  0999 V2000
    7.8052  -14.7365   18.7667 N   0  0  0  0  0  0  0  0  0  0  0  0
    6.6110  -14.0088   19.0718 C   0  0  0  0  0  0  0  0  0  0  0  0
    6.9642  -12.5865   18.6527 C   0  0  0  0  0  0  0  0  0  0  0  0
    8.3346  -12.4749   19.3436 C   0  0  0  0  0  0  0  0  0  0  0  0
    8.9043  -13.8746   19.1138 C   0  0  1  0  0  0  0  0  0  0  0  0
    9.5593  -14.3461   20.3575 C   0  0  0  0  0  0  0  0  0  0  0  0
   10.6217  -13.7721   20.7562 O   0  0  0  0  0  0  0  0  0  0  0  0
   11.0508  -16.7280   24.5103 N   0  0  0  0  0  0  0  0  0  0  0  0
    9.8373  -17.3918   24.1949 C   0  0  0  0  0  0  0  0  0  0  0  0
    9.4734  -18.2844   25.0007 O   0  0  0  0  0  0  0  0  0  0  0  0
    9.1083  -16.9955   22.9725 C   0  0  0  0  0  0  0  0  0  0  0  0
    9.8086  -15.8224   22.3406 C   0  0  2  0  0  0  0  0  0  0  0  0
    9.0689  -15.4261   21.1579 N   0  0  0  0  0  0  0  0  0  0  0  0
   11.1629  -16.2956   21.9521 C   0  0  0  0  0  0  0  0  0  0  0  0
   11.2245  -17.3597   21.2462 O   0  0  0  0  0  0  0  0  0  0  0  0
   16.7483  -13.1606   16.8451 N   0  0  0  0  0  0  0  0  0  0  0  0
   17.6104  -14.1038   17.4597 C   0  0  0  0  0  0  0  0  0  0  0  0
   18.7702  -14.2957   16.9729 N   0  0  0  0  0  0  0  0  0  0  0  0
   17.1620  -14.8086   18.5952 N   0  0  0  0  0  0  0  0  0  0  0  0
   15.8089  -14.6422   19.0575 C   0  0  0  0  0  0  0  0  0  0  0  0
   15.5802  -15.4436   20.3493 C   0  0  0  0  0  0  0  0  0  0  0  0
   14.2012  -15.1137   20.8538 C   0  0  0  0  0  0  0  0  0  0  0  0
   13.6682  -16.1474   21.8071 C   0  0  2  0  0  0  0  0  0  0  0  0
   12.3688  -15.6753   22.2931 N   0  0  0  0  0  0  0  0  0  0  0  0
   14.5794  -16.3372   22.9384 C   0  0  0  0  0  0  0  0  0  0  0  0
   14.3151  -15.9667   24.2436 O   0  0  0  0  0  0  0  0  0  0  0  0
   15.7052  -16.8766   22.7471 O   0  0  0  0  0  0  0  0  0  0  0  0
  1  2  1  0
  3  2  1  0
  4  5  1  0
  4  3  1  0
  5  1  1  0
  5  6  1  1
  6  7  2  0
  8  9  1  0
  9 11  1  0
 10  9  2  0
 12 11  1  6
 12 13  1  0
 13  6  1  0
 14 12  1  0
 15 14  2  0
 16 17  1  0
 17 19  1  0
 18 17  2  0
 19 20  1  0
 21 20  1  0
 22 21  1  0
 23 22  1  6
 23 24  1  0
 24 14  1  0
 25 23  1  0
 26 25  1  0
 27 25  2  0
M  END
$$$$
