LRD.pdb
     RDKit          3D

 28 27  0  0  1  0  0  0  0  0999 V2000
   25.3273  -15.6389  -17.7060 C   0  0  0  0  0  0  0  0  0  0  0  0
   24.0618  -16.3990  -17.4977 C   0  0  2  0  0  0  0  0  0  0  0  0
   22.9218  -15.4978  -17.0795 C   0  0  0  0  0  0  0  0  0  0  0  0
   24.2550  -17.5743  -16.5812 C   0  0  0  0  0  0  0  0  0  0  0  0
   25.4567  -18.3484  -17.0757 C   0  0  2  0  0  0  0  0  0  0  0  0
   25.0164  -19.0796  -18.2441 N   0  0  0  0  0  0  0  0  0  0  0  0
   25.9225  -19.3426  -16.0728 C   0  0  0  0  0  0  0  0  0  0  0  0
   25.3692  -20.4679  -16.0516 O   0  0  0  0  0  0  0  0  0  0  0  0
   30.8728  -23.1367  -12.3856 N   0  0  0  0  0  0  0  0  0  0  0  0
   31.7244  -22.1846  -11.6887 C   0  0  0  0  0  0  0  0  0  0  0  0
   32.3432  -22.5906  -10.6924 N   0  0  0  0  0  0  0  0  0  0  0  0
   31.8240  -20.8562  -12.1519 N   0  0  0  0  0  0  0  0  0  0  0  0
   30.7741  -19.9112  -12.3027 C   0  0  0  0  0  0  0  0  0  0  0  0
   29.3939  -20.3989  -12.5409 C   0  0  0  0  0  0  0  0  0  0  0  0
   28.7975  -19.6326  -13.6955 C   0  0  0  0  0  0  0  0  0  0  0  0
   27.4195  -19.9978  -14.1110 C   0  0  2  0  0  0  0  0  0  0  0  0
   26.9640  -19.0490  -15.1534 N   0  0  0  0  0  0  0  0  0  0  0  0
   26.4103  -20.0291  -13.0253 C   0  0  0  0  0  0  0  0  0  0  0  0
   26.1020  -18.8694  -12.5439 O   0  0  0  0  0  0  0  0  0  0  0  0
   33.0032  -22.2751  -10.0388 N   0  0  0  0  0  0  0  0  0  0  0  0
   25.7772  -21.1564  -12.4917 C   0  0  2  0  0  0  0  0  0  0  0  0
   24.7740  -20.9432  -11.4510 C   0  0  0  0  0  0  0  0  0  0  0  0
   23.5352  -21.7590  -11.6509 C   0  0  0  0  0  0  0  0  0  0  0  0
   22.3089  -20.9360  -11.6954 O   0  0  0  0  0  0  0  0  0  0  0  0
   21.1588  -21.4067  -11.9181 C   0  0  0  0  0  0  0  0  0  0  0  0
   25.3737  -21.4011  -10.1530 O   0  0  0  0  0  0  0  0  0  0  0  0
   26.3201  -22.2172  -10.1432 O   0  0  0  0  0  0  0  0  0  0  0  0
   22.3940  -19.5620  -11.4838 O   0  0  0  0  0  0  0  0  0  0  0  0
  2  1  1  1
  3  2  1  0
  4  5  1  0
  4  2  1  0
  5  6  1  6
  7  8  2  0
  7  5  1  0
  9 10  1  0
 10 11  2  0
 12 10  1  0
 12 13  1  0
 13 14  1  0
 14 15  1  0
 16 15  1  1
 16 17  1  0
 17  7  1  0
 18 16  1  0
 19 18  2  0
 20 18  1  0
 21 25  1  0
 21 20  1  0
 21 22  1  6
 23 24  2  0
 23 22  1  0
 25 28  1  0
 26 25  2  0
 27 23  1  0
M  END
$$$$
