LRD.pdb
     RDKit          3D

 28 27  0  0  1  0  0  0  0  0999 V2000
   29.7729  -19.1578  -14.4468 C   0  0  0  0  0  0  0  0  0  0  0  0
   29.7757  -20.2756  -13.4603 C   0  0  2  0  0  0  0  0  0  0  0  0
   30.9010  -21.2531  -13.7148 C   0  0  0  0  0  0  0  0  0  0  0  0
   28.4299  -20.9359  -13.3536 C   0  0  0  0  0  0  0  0  0  0  0  0
   27.4089  -19.8541  -13.0797 C   0  0  2  0  0  0  0  0  0  0  0  0
   27.8080  -19.2231  -11.8402 N   0  0  0  0  0  0  0  0  0  0  0  0
   26.0481  -20.4188  -12.8785 C   0  0  0  0  0  0  0  0  0  0  0  0
   25.5710  -21.1518  -13.7773 O   0  0  0  0  0  0  0  0  0  0  0  0
   19.3089  -21.0340   -8.9896 N   0  0  0  0  0  0  0  0  0  0  0  0
   19.7867  -21.7716   -7.8298 C   0  0  0  0  0  0  0  0  0  0  0  0
   18.9819  -22.5222   -7.2559 N   0  0  0  0  0  0  0  0  0  0  0  0
   21.1205  -21.6198   -7.3974 N   0  0  0  0  0  0  0  0  0  0  0  0
   22.1905  -20.9967   -8.0938 C   0  0  0  0  0  0  0  0  0  0  0  0
   22.3310  -21.2246   -9.5526 C   0  0  0  0  0  0  0  0  0  0  0  0
   23.6256  -20.6078  -10.0209 C   0  0  0  0  0  0  0  0  0  0  0  0
   23.9391  -20.7085  -11.4687 C   0  0  2  0  0  0  0  0  0  0  0  0
   25.2898  -20.1494  -11.7086 N   0  0  0  0  0  0  0  0  0  0  0  0
   22.9804  -20.0386  -12.3799 C   0  0  0  0  0  0  0  0  0  0  0  0
   23.1006  -18.7525  -12.4360 O   0  0  0  0  0  0  0  0  0  0  0  0
   18.9416  -23.1352   -6.4910 N   0  0  0  0  0  0  0  0  0  0  0  0
   21.9925  -20.6454  -13.1623 C   0  0  2  0  0  0  0  0  0  0  0  0
   21.2001  -19.7880  -14.0409 C   0  0  0  0  0  0  0  0  0  0  0  0
   21.6229  -19.8625  -15.4747 C   0  0  0  0  0  0  0  0  0  0  0  0
   20.7335  -19.0992  -16.3742 O   0  0  0  0  0  0  0  0  0  0  0  0
   19.7669  -18.3952  -15.9694 C   0  0  0  0  0  0  0  0  0  0  0  0
   19.7850  -20.2876  -13.9938 O   0  0  0  0  0  0  0  0  0  0  0  0
   18.8380  -19.4962  -13.7974 O   0  0  0  0  0  0  0  0  0  0  0  0
   20.9478  -19.1384  -17.7500 O   0  0  0  0  0  0  0  0  0  0  0  0
  2  1  1  6
  3  2  1  0
  4  5  1  0
  4  2  1  0
  5  6  1  1
  7  8  2  0
  7  5  1  0
  9 10  1  0
 10 11  2  0
 12 10  1  0
 12 13  1  0
 13 14  1  0
 14 15  1  0
 16 15  1  1
 16 17  1  0
 17  7  1  0
 18 16  1  0
 19 18  2  0
 20 18  1  0
 21 25  1  0
 21 20  1  0
 21 22  1  6
 23 24  2  0
 23 22  1  0
 25 28  1  0
 26 25  2  0
 27 23  1  0
M  END
$$$$
