LRD.pdb
     RDKit          3D

 28 27  0  0  1  0  0  0  0  0999 V2000
   27.5050  -13.8532  -15.9795 C   0  0  0  0  0  0  0  0  0  0  0  0
   26.1063  -13.7607  -16.4871 C   0  0  2  0  0  0  0  0  0  0  0  0
   25.2999  -12.7224  -15.7400 C   0  0  0  0  0  0  0  0  0  0  0  0
   25.4366  -15.1051  -16.5409 C   0  0  0  0  0  0  0  0  0  0  0  0
   26.3706  -16.0540  -17.2586 C   0  0  2  0  0  0  0  0  0  0  0  0
   26.3334  -15.6812  -18.6563 N   0  0  0  0  0  0  0  0  0  0  0  0
   25.9085  -17.4638  -17.1574 C   0  0  0  0  0  0  0  0  0  0  0  0
   24.9401  -17.8233  -17.8686 O   0  0  0  0  0  0  0  0  0  0  0  0
   30.8306  -24.4639  -15.4289 N   0  0  0  0  0  0  0  0  0  0  0  0
   30.0731  -24.2587  -16.6542 C   0  0  0  0  0  0  0  0  0  0  0  0
   30.5089  -24.7810  -17.6923 N   0  0  0  0  0  0  0  0  0  0  0  0
   28.8905  -23.4905  -16.6325 N   0  0  0  0  0  0  0  0  0  0  0  0
   28.3087  -22.8286  -15.5183 C   0  0  0  0  0  0  0  0  0  0  0  0
   27.0085  -22.1358  -15.6896 C   0  0  0  0  0  0  0  0  0  0  0  0
   27.2642  -20.6667  -15.9178 C   0  0  0  0  0  0  0  0  0  0  0  0
   26.0796  -19.7997  -16.1409 C   0  0  2  0  0  0  0  0  0  0  0  0
   26.5310  -18.3963  -16.2862 N   0  0  0  0  0  0  0  0  0  0  0  0
   25.0375  -19.8556  -15.0879 C   0  0  0  0  0  0  0  0  0  0  0  0
   25.3904  -19.3439  -13.9542 O   0  0  0  0  0  0  0  0  0  0  0  0
   30.2745  -24.8763  -18.6401 N   0  0  0  0  0  0  0  0  0  0  0  0
   23.7491  -20.3884  -15.2007 C   0  0  2  0  0  0  0  0  0  0  0  0
   22.8766  -20.3094  -14.0314 C   0  0  0  0  0  0  0  0  0  0  0  0
   21.5632  -19.6521  -14.3196 C   0  0  0  0  0  0  0  0  0  0  0  0
   20.4875  -20.6236  -14.6058 O   0  0  0  0  0  0  0  0  0  0  0  0
   20.6319  -21.8743  -14.5121 C   0  0  0  0  0  0  0  0  0  0  0  0
   22.5597  -21.7168  -13.6156 O   0  0  0  0  0  0  0  0  0  0  0  0
   21.8606  -21.9383  -12.6036 O   0  0  0  0  0  0  0  0  0  0  0  0
   19.2336  -20.1651  -15.0029 O   0  0  0  0  0  0  0  0  0  0  0  0
  2  1  1  1
  3  2  1  0
  4  5  1  0
  4  2  1  0
  5  6  1  6
  7  8  2  0
  7  5  1  0
  9 10  1  0
 10 11  2  0
 12 10  1  0
 12 13  1  0
 13 14  1  0
 14 15  1  0
 16 15  1  1
 16 17  1  0
 17  7  1  0
 18 16  1  0
 19 18  2  0
 20 18  1  0
 21 25  1  0
 21 20  1  0
 21 22  1  6
 23 24  2  0
 23 22  1  0
 25 28  1  0
 26 25  2  0
 27 23  1  0
M  END
$$$$
