LRD.pdb
     RDKit          3D

 28 27  0  0  1  0  0  0  0  0999 V2000
   28.6726  -20.5857  -12.0626 C   0  0  0  0  0  0  0  0  0  0  0  0
   27.6881  -20.9746  -13.1124 C   0  0  2  0  0  0  0  0  0  0  0  0
   28.2592  -20.8326  -14.5053 C   0  0  0  0  0  0  0  0  0  0  0  0
   26.3712  -20.2719  -12.9374 C   0  0  0  0  0  0  0  0  0  0  0  0
   25.3248  -21.3249  -12.6474 C   0  0  2  0  0  0  0  0  0  0  0  0
   25.3330  -22.2283  -13.7778 N   0  0  0  0  0  0  0  0  0  0  0  0
   23.9624  -20.7366  -12.5525 C   0  0  0  0  0  0  0  0  0  0  0  0
   23.7496  -19.8721  -11.6692 O   0  0  0  0  0  0  0  0  0  0  0  0
   21.8166  -16.7698  -18.9109 N   0  0  0  0  0  0  0  0  0  0  0  0
   21.7394  -18.1913  -18.6096 C   0  0  0  0  0  0  0  0  0  0  0  0
   21.4558  -18.9606  -19.5415 N   0  0  0  0  0  0  0  0  0  0  0  0
   21.9835  -18.6490  -17.2982 N   0  0  0  0  0  0  0  0  0  0  0  0
   22.2984  -17.8686  -16.1537 C   0  0  0  0  0  0  0  0  0  0  0  0
   22.5335  -18.5512  -14.8581 C   0  0  0  0  0  0  0  0  0  0  0  0
   21.4935  -19.6291  -14.6780 C   0  0  0  0  0  0  0  0  0  0  0  0
   21.5894  -20.4652  -13.4547 C   0  0  2  0  0  0  0  0  0  0  0  0
   22.9142  -21.1273  -13.4271 N   0  0  0  0  0  0  0  0  0  0  0  0
   20.5391  -21.5005  -13.3025 C   0  0  0  0  0  0  0  0  0  0  0  0
   20.6196  -22.4765  -14.1467 O   0  0  0  0  0  0  0  0  0  0  0  0
   21.2662  -19.9100  -19.6997 N   0  0  0  0  0  0  0  0  0  0  0  0
   19.5049  -21.5238  -12.3611 C   0  0  1  0  0  0  0  0  0  0  0  0
   18.5518  -22.6294  -12.4263 C   0  0  0  0  0  0  0  0  0  0  0  0
   17.9127  -22.9347  -11.1078 C   0  0  0  0  0  0  0  0  0  0  0  0
   18.6630  -23.9401  -10.3272 O   0  0  0  0  0  0  0  0  0  0  0  0
   19.7199  -24.4965  -10.7363 C   0  0  0  0  0  0  0  0  0  0  0  0
   17.4409  -22.2070  -13.3437 O   0  0  0  0  0  0  0  0  0  0  0  0
   17.1075  -21.0055  -13.4267 O   0  0  0  0  0  0  0  0  0  0  0  0
   18.2041  -24.3155   -9.0668 O   0  0  0  0  0  0  0  0  0  0  0  0
  2  1  1  1
  3  2  1  0
  4  5  1  0
  4  2  1  0
  5  6  1  6
  7  8  2  0
  7  5  1  0
  9 10  1  0
 10 11  2  0
 12 10  1  0
 12 13  1  0
 13 14  1  0
 14 15  1  0
 16 15  1  6
 16 17  1  0
 17  7  1  0
 18 16  1  0
 19 18  2  0
 20 18  1  0
 21 25  1  0
 21 20  1  0
 21 22  1  6
 23 24  2  0
 23 22  1  0
 25 28  1  0
 26 25  2  0
 27 23  1  0
M  END
$$$$
