LRD.pdb
     RDKit          3D

 28 27  0  0  1  0  0  0  0  0999 V2000
   17.9298  -20.8697  -14.5079 C   0  0  0  0  0  0  0  0  0  0  0  0
   18.4919  -21.0694  -13.1417 C   0  0  2  0  0  0  0  0  0  0  0  0
   17.4428  -20.8965  -12.0665 C   0  0  0  0  0  0  0  0  0  0  0  0
   19.7204  -20.2352  -12.9106 C   0  0  0  0  0  0  0  0  0  0  0  0
   20.7482  -20.6364  -13.9452 C   0  0  2  0  0  0  0  0  0  0  0  0
   20.7418  -22.0829  -13.9849 N   0  0  0  0  0  0  0  0  0  0  0  0
   22.1174  -20.2038  -13.5586 C   0  0  0  0  0  0  0  0  0  0  0  0
   22.3364  -18.9760  -13.4261 O   0  0  0  0  0  0  0  0  0  0  0  0
   27.0757  -19.1791   -8.1082 N   0  0  0  0  0  0  0  0  0  0  0  0
   27.6020  -20.4689   -8.5288 C   0  0  0  0  0  0  0  0  0  0  0  0
   28.8326  -20.5735   -8.6525 N   0  0  0  0  0  0  0  0  0  0  0  0
   26.7223  -21.5425   -8.7787 N   0  0  0  0  0  0  0  0  0  0  0  0
   26.4376  -22.1553  -10.0283 C   0  0  0  0  0  0  0  0  0  0  0  0
   26.3236  -21.3056  -11.2386 C   0  0  0  0  0  0  0  0  0  0  0  0
   25.0946  -21.7174  -12.0105 C   0  0  0  0  0  0  0  0  0  0  0  0
   24.5468  -20.7390  -12.9839 C   0  0  2  0  0  0  0  0  0  0  0  0
   23.1651  -21.1369  -13.3400 N   0  0  0  0  0  0  0  0  0  0  0  0
   25.3283  -20.5715  -14.2325 C   0  0  0  0  0  0  0  0  0  0  0  0
   25.3742  -21.6229  -14.9836 O   0  0  0  0  0  0  0  0  0  0  0  0
   29.5097  -21.2470   -8.8767 N   0  0  0  0  0  0  0  0  0  0  0  0
   25.9963  -19.4208  -14.6640 C   0  0  2  0  0  0  0  0  0  0  0  0
   26.5686  -19.4314  -16.0084 C   0  0  0  0  0  0  0  0  0  0  0  0
   25.8959  -18.4749  -16.9425 C   0  0  0  0  0  0  0  0  0  0  0  0
   26.5408  -18.4230  -18.2709 O   0  0  0  0  0  0  0  0  0  0  0  0
   27.5196  -19.1484  -18.6017 C   0  0  0  0  0  0  0  0  0  0  0  0
   27.9930  -18.9718  -15.8904 O   0  0  0  0  0  0  0  0  0  0  0  0
   28.3279  -18.1632  -14.9983 O   0  0  0  0  0  0  0  0  0  0  0  0
   26.0651  -17.5348  -19.2326 O   0  0  0  0  0  0  0  0  0  0  0  0
  2  1  1  6
  3  2  1  0
  4  5  1  0
  4  2  1  0
  5  6  1  1
  7  8  2  0
  7  5  1  0
  9 10  1  0
 10 11  2  0
 12 10  1  0
 12 13  1  0
 13 14  1  0
 14 15  1  0
 16 15  1  1
 16 17  1  0
 17  7  1  0
 18 16  1  0
 19 18  2  0
 20 18  1  0
 21 25  1  0
 21 20  1  0
 21 22  1  1
 23 24  2  0
 23 22  1  0
 25 28  1  0
 26 25  2  0
 27 23  1  0
M  END
$$$$
