LRD.pdb
     RDKit          3D

 28 27  0  0  1  0  0  0  0  0999 V2000
   25.0691  -12.9087  -14.9746 C   0  0  0  0  0  0  0  0  0  0  0  0
   24.4346  -12.8941  -16.3236 C   0  0  2  0  0  0  0  0  0  0  0  0
   23.5422  -11.6888  -16.5169 C   0  0  0  0  0  0  0  0  0  0  0  0
   23.7504  -14.1947  -16.6383 C   0  0  0  0  0  0  0  0  0  0  0  0
   24.7295  -15.3100  -16.3463 C   0  0  2  0  0  0  0  0  0  0  0  0
   25.7610  -15.2204  -17.3571 N   0  0  0  0  0  0  0  0  0  0  0  0
   24.0934  -16.6484  -16.4711 C   0  0  0  0  0  0  0  0  0  0  0  0
   23.7038  -17.0168  -17.6048 O   0  0  0  0  0  0  0  0  0  0  0  0
   26.0099  -22.6283  -11.8501 N   0  0  0  0  0  0  0  0  0  0  0  0
   25.5898  -23.0430  -13.1801 C   0  0  0  0  0  0  0  0  0  0  0  0
   24.9742  -24.1162  -13.2786 N   0  0  0  0  0  0  0  0  0  0  0  0
   25.8847  -22.2344  -14.2974 N   0  0  0  0  0  0  0  0  0  0  0  0
   26.3871  -20.9057  -14.2958 C   0  0  0  0  0  0  0  0  0  0  0  0
   25.4312  -19.7736  -14.2277 C   0  0  0  0  0  0  0  0  0  0  0  0
   24.5029  -19.8461  -15.4146 C   0  0  0  0  0  0  0  0  0  0  0  0
   23.3775  -18.8783  -15.4543 C   0  0  2  0  0  0  0  0  0  0  0  0
   23.9209  -17.5040  -15.3512 N   0  0  0  0  0  0  0  0  0  0  0  0
   22.3413  -19.0576  -14.4092 C   0  0  0  0  0  0  0  0  0  0  0  0
   22.7032  -18.6889  -13.2240 O   0  0  0  0  0  0  0  0  0  0  0  0
   24.5808  -24.6954  -13.9657 N   0  0  0  0  0  0  0  0  0  0  0  0
   21.0498  -19.5677  -14.5777 C   0  0  2  0  0  0  0  0  0  0  0  0
   20.1962  -19.6597  -13.3954 C   0  0  0  0  0  0  0  0  0  0  0  0
   18.7439  -19.8047  -13.7272 C   0  0  0  0  0  0  0  0  0  0  0  0
   18.1730  -18.5884  -14.3417 O   0  0  0  0  0  0  0  0  0  0  0  0
   18.7627  -17.4723  -14.3615 C   0  0  0  0  0  0  0  0  0  0  0  0
   20.5859  -20.9094  -12.6602 O   0  0  0  0  0  0  0  0  0  0  0  0
   21.3531  -21.7435  -13.1870 O   0  0  0  0  0  0  0  0  0  0  0  0
   16.9165  -18.6445  -14.9402 O   0  0  0  0  0  0  0  0  0  0  0  0
  2  1  1  1
  3  2  1  0
  4  5  1  0
  4  2  1  0
  5  6  1  6
  7  8  2  0
  7  5  1  0
  9 10  1  0
 10 11  2  0
 12 10  1  0
 12 13  1  0
 13 14  1  0
 14 15  1  0
 16 15  1  1
 16 17  1  0
 17  7  1  0
 18 16  1  0
 19 18  2  0
 20 18  1  0
 21 25  1  0
 21 20  1  0
 21 22  1  6
 23 24  2  0
 23 22  1  0
 25 28  1  0
 26 25  2  0
 27 23  1  0
M  END
$$$$
