FIE.pdb
     RDKit          3D

 29 29  0  0  1  0  0  0  0  0999 V2000
   18.3298  -10.8493  -17.7770 N   0  0  0  0  0  0  0  0  0  0  0  0
   19.2373   -9.7437  -17.8068 C   0  0  1  0  0  0  0  0  0  0  0  0
   18.4698   -8.4412  -17.7263 C   0  0  0  0  0  0  0  0  0  0  0  0
   17.6014   -8.2553  -18.8884 C   0  0  0  0  0  0  0  0  0  0  0  0
   16.2422   -8.4797  -18.8502 C   0  0  0  0  0  0  0  0  0  0  0  0
   15.4234   -8.3060  -19.9493 C   0  0  0  0  0  0  0  0  0  0  0  0
   15.9686   -7.8913  -21.1441 C   0  0  0  0  0  0  0  0  0  0  0  0
   17.3135   -7.6628  -21.2057 C   0  0  0  0  0  0  0  0  0  0  0  0
   18.1155   -7.8392  -20.1064 C   0  0  0  0  0  0  0  0  0  0  0  0
   20.2368   -9.8026  -16.6586 C   0  0  0  0  0  0  0  0  0  0  0  0
   19.8253  -10.1427  -15.5307 O   0  0  0  0  0  0  0  0  0  0  0  0
   25.1314  -11.3548  -14.4275 C   0  0  0  0  0  0  0  0  0  0  0  0
   25.0682  -10.1826  -15.4241 C   0  0  0  0  0  0  0  0  0  0  0  0
   23.8643  -10.2893  -16.3016 C   0  0  2  0  0  0  0  0  0  0  0  0
   24.1321  -10.6993  -17.7143 C   0  0  0  0  0  0  0  0  0  0  0  0
   22.7078   -9.4261  -16.0072 C   0  0  2  0  0  0  0  0  0  0  0  0
   21.5704   -9.4784  -16.8947 N   0  0  0  0  0  0  0  0  0  0  0  0
   22.9169   -8.0508  -15.5970 C   0  0  0  0  0  0  0  0  0  0  0  0
   23.6928   -7.7784  -14.6024 O   0  0  0  0  0  0  0  0  0  0  0  0
   22.3460   -6.8958  -16.1887 N   0  0  0  0  0  0  0  0  0  0  0  0
   22.6220   -5.5381  -15.7038 C   0  0  1  0  0  0  0  0  0  0  0  0
   22.2305   -4.5259  -16.7233 C   0  0  0  0  0  0  0  0  0  0  0  0
   20.7394   -4.4531  -16.8556 C   0  0  0  0  0  0  0  0  0  0  0  0
   20.3318   -4.2272  -18.2823 C   0  0  0  0  0  0  0  0  0  0  0  0
   21.2153   -4.1791  -19.1703 O   0  0  0  0  0  0  0  0  0  0  0  0
   21.9671   -5.2788  -14.4224 C   0  0  0  0  0  0  0  0  0  0  0  0
   21.1109   -5.9653  -13.8537 O   0  0  0  0  0  0  0  0  0  0  0  0
   18.9794   -4.0829  -18.5365 O   0  0  0  0  0  0  0  0  0  0  0  0
   22.3504   -4.1046  -13.7399 O   0  0  0  0  0  0  0  0  0  0  0  0
  2  1  1  1
  2  3  1  0
  4  3  1  0
  5  4  2  0
  6  7  2  0
  6  5  1  0
  7  8  1  0
  8  9  2  0
  9  4  1  0
 10  2  1  0
 11 10  2  0
 12 13  1  0
 13 14  1  0
 14 15  1  6
 16 14  1  0
 16 17  1  6
 17 10  1  0
 18 16  1  0
 19 18  2  0
 20 18  1  0
 21 22  1  6
 21 20  1  0
 23 22  1  0
 24 25  2  0
 24 23  1  0
 26 21  1  0
 26 29  1  0
 27 26  2  0
 28 24  1  0
M  END
$$$$
