FIE.pdb
     RDKit          3D

 29 29  0  0  1  0  0  0  0  0999 V2000
   20.4981  -20.8369  -11.5172 N   0  0  0  0  0  0  0  0  0  0  0  0
   21.4882  -21.4840  -12.3222 C   0  0  1  0  0  0  0  0  0  0  0  0
   20.9090  -21.8290  -13.6777 C   0  0  0  0  0  0  0  0  0  0  0  0
   19.8045  -22.7811  -13.5648 C   0  0  0  0  0  0  0  0  0  0  0  0
   18.4809  -22.4011  -13.6187 C   0  0  0  0  0  0  0  0  0  0  0  0
   17.4384  -23.3012  -13.5095 C   0  0  0  0  0  0  0  0  0  0  0  0
   17.7118  -24.6402  -13.3389 C   0  0  0  0  0  0  0  0  0  0  0  0
   19.0163  -25.0400  -13.2825 C   0  0  0  0  0  0  0  0  0  0  0  0
   20.0423  -24.1355  -13.3924 C   0  0  0  0  0  0  0  0  0  0  0  0
   22.7187  -20.6072  -12.5168 C   0  0  0  0  0  0  0  0  0  0  0  0
   22.5716  -19.3681  -12.5087 O   0  0  0  0  0  0  0  0  0  0  0  0
   28.8922  -20.9628  -11.9150 C   0  0  0  0  0  0  0  0  0  0  0  0
   27.7597  -20.5722  -12.8827 C   0  0  0  0  0  0  0  0  0  0  0  0
   26.4249  -20.9379  -12.3212 C   0  0  2  0  0  0  0  0  0  0  0  0
   26.4189  -22.1006  -11.3812 C   0  0  0  0  0  0  0  0  0  0  0  0
   25.2271  -20.6581  -13.1313 C   0  0  2  0  0  0  0  0  0  0  0  0
   23.9635  -21.2049  -12.6972 N   0  0  0  0  0  0  0  0  0  0  0  0
   25.2971  -20.7360  -14.5778 C   0  0  0  0  0  0  0  0  0  0  0  0
   24.6644  -21.6653  -15.2115 O   0  0  0  0  0  0  0  0  0  0  0  0
   26.0121  -19.8649  -15.4380 N   0  0  0  0  0  0  0  0  0  0  0  0
   25.5490  -19.5299  -16.7900 C   0  0  1  0  0  0  0  0  0  0  0  0
   24.1464  -19.0309  -16.7567 C   0  0  0  0  0  0  0  0  0  0  0  0
   23.6893  -18.6367  -18.1285 C   0  0  0  0  0  0  0  0  0  0  0  0
   22.2694  -18.1507  -18.1083 C   0  0  0  0  0  0  0  0  0  0  0  0
   21.3574  -18.9101  -18.5122 O   0  0  0  0  0  0  0  0  0  0  0  0
   26.4370  -18.5686  -17.4423 C   0  0  0  0  0  0  0  0  0  0  0  0
   27.1768  -17.7341  -16.9093 O   0  0  0  0  0  0  0  0  0  0  0  0
   22.0481  -16.8691  -17.6362 O   0  0  0  0  0  0  0  0  0  0  0  0
   26.4633  -18.5849  -18.8531 O   0  0  0  0  0  0  0  0  0  0  0  0
  2  1  1  1
  2  3  1  0
  4  3  1  0
  5  4  2  0
  6  7  2  0
  6  5  1  0
  7  8  1  0
  8  9  2  0
  9  4  1  0
 10  2  1  0
 11 10  2  0
 12 13  1  0
 13 14  1  0
 14 15  1  6
 16 14  1  0
 16 17  1  1
 17 10  1  0
 18 16  1  0
 19 18  2  0
 20 18  1  0
 21 22  1  1
 21 20  1  0
 23 22  1  0
 24 25  2  0
 24 23  1  0
 26 21  1  0
 26 29  1  0
 27 26  2  0
 28 24  1  0
M  END
$$$$
