FIE.pdb
     RDKit          3D

 29 29  0  0  1  0  0  0  0  0999 V2000
   29.1981  -25.3915  -16.5003 N   0  0  0  0  0  0  0  0  0  0  0  0
   28.0607  -24.6942  -17.0171 C   0  0  1  0  0  0  0  0  0  0  0  0
   26.8622  -25.6182  -17.0599 C   0  0  0  0  0  0  0  0  0  0  0  0
   26.9673  -26.5862  -18.1513 C   0  0  0  0  0  0  0  0  0  0  0  0
   26.7033  -26.2640  -19.4650 C   0  0  0  0  0  0  0  0  0  0  0  0
   26.8006  -27.1798  -20.4947 C   0  0  0  0  0  0  0  0  0  0  0  0
   27.1760  -28.4758  -20.2182 C   0  0  0  0  0  0  0  0  0  0  0  0
   27.4425  -28.8181  -18.9235 C   0  0  0  0  0  0  0  0  0  0  0  0
   27.3420  -27.8985  -17.9101 C   0  0  0  0  0  0  0  0  0  0  0  0
   27.7161  -23.4731  -16.1739 C   0  0  0  0  0  0  0  0  0  0  0  0
   28.3353  -23.2962  -15.1051 O   0  0  0  0  0  0  0  0  0  0  0  0
   29.6100  -19.2843  -17.2605 C   0  0  0  0  0  0  0  0  0  0  0  0
   28.8050  -20.4993  -16.7633 C   0  0  0  0  0  0  0  0  0  0  0  0
   27.3528  -20.1697  -16.6489 C   0  0  2  0  0  0  0  0  0  0  0  0
   27.0408  -18.7495  -16.3011 C   0  0  0  0  0  0  0  0  0  0  0  0
   26.4265  -21.2357  -16.2308 C   0  0  2  0  0  0  0  0  0  0  0  0
   26.7288  -22.5946  -16.6130 N   0  0  0  0  0  0  0  0  0  0  0  0
   24.9943  -21.0305  -16.3304 C   0  0  0  0  0  0  0  0  0  0  0  0
   24.4168  -21.0169  -17.4845 O   0  0  0  0  0  0  0  0  0  0  0  0
   24.0911  -20.8354  -15.2551 N   0  0  0  0  0  0  0  0  0  0  0  0
   22.6572  -20.5962  -15.4579 C   0  0  1  0  0  0  0  0  0  0  0  0
   21.8644  -21.1706  -14.3360 C   0  0  0  0  0  0  0  0  0  0  0  0
   20.4054  -20.8750  -14.5094 C   0  0  0  0  0  0  0  0  0  0  0  0
   19.5873  -21.5326  -13.4366 C   0  0  0  0  0  0  0  0  0  0  0  0
   20.1707  -22.1534  -12.5169 O   0  0  0  0  0  0  0  0  0  0  0  0
   22.3669  -19.1743  -15.6369 C   0  0  0  0  0  0  0  0  0  0  0  0
   22.9666  -18.2090  -15.1507 O   0  0  0  0  0  0  0  0  0  0  0  0
   18.2121  -21.4119  -13.5290 O   0  0  0  0  0  0  0  0  0  0  0  0
   21.2709  -18.8496  -16.4644 O   0  0  0  0  0  0  0  0  0  0  0  0
  2  1  1  1
  2  3  1  0
  4  3  1  0
  5  4  2  0
  6  7  2  0
  6  5  1  0
  7  8  1  0
  8  9  2  0
  9  4  1  0
 10  2  1  0
 11 10  2  0
 12 13  1  0
 13 14  1  0
 14 15  1  1
 16 14  1  0
 16 17  1  6
 17 10  1  0
 18 16  1  0
 19 18  2  0
 20 18  1  0
 21 22  1  1
 21 20  1  0
 23 22  1  0
 24 25  2  0
 24 23  1  0
 26 21  1  0
 26 29  1  0
 27 26  2  0
 28 24  1  0
M  END
$$$$
