FIE.pdb
     RDKit          3D

 29 29  0  0  1  0  0  0  0  0999 V2000
   17.3956  -12.5730    3.4917 N   0  0  0  0  0  0  0  0  0  0  0  0
   17.9054  -13.2859    4.6226 C   0  0  1  0  0  0  0  0  0  0  0  0
   18.8381  -14.3866    4.1636 C   0  0  0  0  0  0  0  0  0  0  0  0
   18.1218  -15.4261    3.4251 C   0  0  0  0  0  0  0  0  0  0  0  0
   17.3095  -16.3549    4.0388 C   0  0  0  0  0  0  0  0  0  0  0  0
   16.6353  -17.3379    3.3403 C   0  0  0  0  0  0  0  0  0  0  0  0
   16.7669  -17.4103    1.9712 C   0  0  0  0  0  0  0  0  0  0  0  0
   17.5668  -16.5004    1.3414 C   0  0  0  0  0  0  0  0  0  0  0  0
   18.2309  -15.5290    2.0473 C   0  0  0  0  0  0  0  0  0  0  0  0
   18.6552  -12.3665    5.5784 C   0  0  0  0  0  0  0  0  0  0  0  0
   19.2467  -11.3746    5.1058 O   0  0  0  0  0  0  0  0  0  0  0  0
   21.1806   -9.9203   10.2797 C   0  0  0  0  0  0  0  0  0  0  0  0
   21.0043  -11.3378    9.7044 C   0  0  0  0  0  0  0  0  0  0  0  0
   20.0452  -11.3362    8.5595 C   0  0  2  0  0  0  0  0  0  0  0  0
   19.0146  -10.2534    8.5851 C   0  0  0  0  0  0  0  0  0  0  0  0
   19.7262  -12.6216    7.9150 C   0  0  2  0  0  0  0  0  0  0  0  0
   18.6612  -12.6538    6.9410 N   0  0  0  0  0  0  0  0  0  0  0  0
   19.6706  -13.8347    8.7077 C   0  0  0  0  0  0  0  0  0  0  0  0
   18.5968  -14.5504    8.7289 O   0  0  0  0  0  0  0  0  0  0  0  0
   20.7110  -14.3704    9.5082 N   0  0  0  0  0  0  0  0  0  0  0  0
   20.6492  -15.7157   10.0920 C   0  0  1  0  0  0  0  0  0  0  0  0
   20.4062  -16.7367    9.0357 C   0  0  0  0  0  0  0  0  0  0  0  0
   20.2096  -18.0931    9.6419 C   0  0  0  0  0  0  0  0  0  0  0  0
   20.6567  -19.1764    8.7042 C   0  0  0  0  0  0  0  0  0  0  0  0
   21.0747  -18.8643    7.5643 O   0  0  0  0  0  0  0  0  0  0  0  0
   21.8534  -16.0266   10.8610 C   0  0  0  0  0  0  0  0  0  0  0  0
   22.9273  -15.4147   10.8719 O   0  0  0  0  0  0  0  0  0  0  0  0
   20.5791  -20.4794    9.1631 O   0  0  0  0  0  0  0  0  0  0  0  0
   21.7965  -17.1612   11.6982 O   0  0  0  0  0  0  0  0  0  0  0  0
  2  1  1  6
  2  3  1  0
  4  3  1  0
  5  4  2  0
  6  7  2  0
  6  5  1  0
  7  8  1  0
  8  9  2  0
  9  4  1  0
 10  2  1  0
 11 10  2  0
 12 13  1  0
 13 14  1  0
 14 15  1  1
 16 14  1  0
 16 17  1  1
 17 10  1  0
 18 16  1  0
 19 18  2  0
 20 18  1  0
 21 22  1  6
 21 20  1  0
 23 22  1  0
 24 25  2  0
 24 23  1  0
 26 21  1  0
 26 29  1  0
 27 26  2  0
 28 24  1  0
M  END
$$$$
