FIE.pdb
     RDKit          3D

 29 29  0  0  1  0  0  0  0  0999 V2000
   27.6864  -21.9337  -16.9556 N   0  0  0  0  0  0  0  0  0  0  0  0
   26.7489  -20.9996  -16.4119 C   0  0  1  0  0  0  0  0  0  0  0  0
   25.8528  -20.4667  -17.5096 C   0  0  0  0  0  0  0  0  0  0  0  0
   26.6154  -19.7297  -18.5169 C   0  0  0  0  0  0  0  0  0  0  0  0
   26.7791  -20.1803  -19.8089 C   0  0  0  0  0  0  0  0  0  0  0  0
   27.5017  -19.4843  -20.7588 C   0  0  0  0  0  0  0  0  0  0  0  0
   28.0918  -18.2867  -20.4207 C   0  0  0  0  0  0  0  0  0  0  0  0
   27.9431  -17.8205  -19.1459 C   0  0  0  0  0  0  0  0  0  0  0  0
   27.2226  -18.5218  -18.2121 C   0  0  0  0  0  0  0  0  0  0  0  0
   25.8843  -21.6329  -15.3292 C   0  0  0  0  0  0  0  0  0  0  0  0
   25.4419  -22.7838  -15.5209 O   0  0  0  0  0  0  0  0  0  0  0  0
   25.3996  -20.8097   -9.2080 C   0  0  0  0  0  0  0  0  0  0  0  0
   24.5671  -20.9061  -10.4998 C   0  0  0  0  0  0  0  0  0  0  0  0
   25.4397  -21.1801  -11.6807 C   0  0  2  0  0  0  0  0  0  0  0  0
   26.8521  -20.7045  -11.5611 C   0  0  0  0  0  0  0  0  0  0  0  0
   24.8114  -21.2500  -13.0109 C   0  0  2  0  0  0  0  0  0  0  0  0
   25.6126  -20.9184  -14.1651 N   0  0  0  0  0  0  0  0  0  0  0  0
   23.4722  -20.7291  -13.2072 C   0  0  0  0  0  0  0  0  0  0  0  0
   23.2901  -19.4748  -13.4502 O   0  0  0  0  0  0  0  0  0  0  0  0
   22.2631  -21.4686  -13.1684 N   0  0  0  0  0  0  0  0  0  0  0  0
   20.9488  -20.8502  -13.3804 C   0  0  1  0  0  0  0  0  0  0  0  0
   20.1070  -21.6964  -14.2706 C   0  0  0  0  0  0  0  0  0  0  0  0
   18.7945  -21.0302  -14.5528 C   0  0  0  0  0  0  0  0  0  0  0  0
   17.6666  -22.0200  -14.5246 C   0  0  0  0  0  0  0  0  0  0  0  0
   17.9127  -23.2201  -14.2589 O   0  0  0  0  0  0  0  0  0  0  0  0
   20.2703  -20.5765  -12.1144 C   0  0  0  0  0  0  0  0  0  0  0  0
   19.4585  -19.6782  -11.8658 O   0  0  0  0  0  0  0  0  0  0  0  0
   16.3986  -21.5390  -14.7990 O   0  0  0  0  0  0  0  0  0  0  0  0
   20.5688  -21.4359  -11.0355 O   0  0  0  0  0  0  0  0  0  0  0  0
  2  1  1  6
  2  3  1  0
  4  3  1  0
  5  4  2  0
  6  7  2  0
  6  5  1  0
  7  8  1  0
  8  9  2  0
  9  4  1  0
 10  2  1  0
 11 10  2  0
 12 13  1  0
 13 14  1  0
 14 15  1  6
 16 14  1  0
 16 17  1  6
 17 10  1  0
 18 16  1  0
 19 18  2  0
 20 18  1  0
 21 22  1  6
 21 20  1  0
 23 22  1  0
 24 25  2  0
 24 23  1  0
 26 21  1  0
 26 29  1  0
 27 26  2  0
 28 24  1  0
M  END
$$$$
