FIE.pdb
     RDKit          3D

 29 29  0  0  1  0  0  0  0  0999 V2000
   27.2872  -11.5611  -18.7626 N   0  0  0  0  0  0  0  0  0  0  0  0
   27.0008  -10.6354  -17.7100 C   0  0  1  0  0  0  0  0  0  0  0  0
   27.5699   -9.2739  -18.0484 C   0  0  0  0  0  0  0  0  0  0  0  0
   29.0072   -9.3413  -18.3111 C   0  0  0  0  0  0  0  0  0  0  0  0
   29.5969   -8.7427  -19.4034 C   0  0  0  0  0  0  0  0  0  0  0  0
   30.9543   -8.8091  -19.6517 C   0  0  0  0  0  0  0  0  0  0  0  0
   31.7711   -9.4982  -18.7829 C   0  0  0  0  0  0  0  0  0  0  0  0
   31.2088  -10.0997  -17.6936 C   0  0  0  0  0  0  0  0  0  0  0  0
   29.8589  -10.0259  -17.4587 C   0  0  0  0  0  0  0  0  0  0  0  0
   25.5026  -10.5009  -17.4685 C   0  0  0  0  0  0  0  0  0  0  0  0
   24.7201  -10.9593  -18.3256 O   0  0  0  0  0  0  0  0  0  0  0  0
   21.1330  -11.4443  -13.6207 C   0  0  0  0  0  0  0  0  0  0  0  0
   21.9314  -10.2156  -14.0942 C   0  0  0  0  0  0  0  0  0  0  0  0
   23.1159  -10.6263  -14.9060 C   0  0  2  0  0  0  0  0  0  0  0  0
   23.9863  -11.6740  -14.2895 C   0  0  0  0  0  0  0  0  0  0  0  0
   23.7132   -9.6364  -15.8184 C   0  0  2  0  0  0  0  0  0  0  0  0
   25.0495   -9.8761  -16.3093 N   0  0  0  0  0  0  0  0  0  0  0  0
   23.5624   -8.2195  -15.5485 C   0  0  0  0  0  0  0  0  0  0  0  0
   24.4805   -7.5769  -14.9084 O   0  0  0  0  0  0  0  0  0  0  0  0
   22.4697   -7.3984  -15.9254 N   0  0  0  0  0  0  0  0  0  0  0  0
   22.4414   -5.9525  -15.6746 C   0  0  1  0  0  0  0  0  0  0  0  0
   21.8853   -5.2258  -16.8493 C   0  0  0  0  0  0  0  0  0  0  0  0
   21.8516   -3.7493  -16.5944 C   0  0  0  0  0  0  0  0  0  0  0  0
   21.3170   -3.0056  -17.7835 C   0  0  0  0  0  0  0  0  0  0  0  0
   21.0159   -3.6443  -18.8193 O   0  0  0  0  0  0  0  0  0  0  0  0
   21.7020   -5.6303  -14.4549 C   0  0  0  0  0  0  0  0  0  0  0  0
   21.9088   -4.7042  -13.6629 O   0  0  0  0  0  0  0  0  0  0  0  0
   21.1861   -1.6335  -17.6625 O   0  0  0  0  0  0  0  0  0  0  0  0
   20.6160   -6.4711  -14.1303 O   0  0  0  0  0  0  0  0  0  0  0  0
  2  1  1  6
  2  3  1  0
  4  3  1  0
  5  4  2  0
  6  7  2  0
  6  5  1  0
  7  8  1  0
  8  9  2  0
  9  4  1  0
 10  2  1  0
 11 10  2  0
 12 13  1  0
 13 14  1  0
 14 15  1  1
 16 14  1  0
 16 17  1  1
 17 10  1  0
 18 16  1  0
 19 18  2  0
 20 18  1  0
 21 22  1  6
 21 20  1  0
 23 22  1  0
 24 25  2  0
 24 23  1  0
 26 21  1  0
 26 29  1  0
 27 26  2  0
 28 24  1  0
M  END
$$$$
