FCA.pdb
     RDKit          3D

 23 23  0  0  1  0  0  0  0  0999 V2000
   28.9090  -18.9350  -14.7146 N   0  0  0  0  0  0  0  0  0  0  0  0
   27.4885  -19.0405  -14.9753 C   0  0  1  0  0  0  0  0  0  0  0  0
   27.3101  -19.4732  -16.4110 C   0  0  0  0  0  0  0  0  0  0  0  0
   27.7072  -18.3394  -17.2862 C   0  0  0  0  0  0  0  0  0  0  0  0
   28.8327  -18.3774  -18.0830 C   0  0  0  0  0  0  0  0  0  0  0  0
   29.1918  -17.3301  -18.8858 C   0  0  0  0  0  0  0  0  0  0  0  0
   28.4210  -16.1708  -18.9270 C   0  0  0  0  0  0  0  0  0  0  0  0
   27.2800  -16.1064  -18.1327 C   0  0  0  0  0  0  0  0  0  0  0  0
   26.9463  -17.1791  -17.3351 C   0  0  0  0  0  0  0  0  0  0  0  0
   26.9250  -20.0204  -14.0184 C   0  0  0  0  0  0  0  0  0  0  0  0
   27.6574  -20.8864  -13.4841 O   0  0  0  0  0  0  0  0  0  0  0  0
   25.5420  -20.0342  -13.6568 N   0  0  0  0  0  0  0  0  0  0  0  0
   25.0215  -20.7182  -12.5121 C   0  0  1  0  0  0  0  0  0  0  0  0
   25.6816  -20.2176  -11.2640 C   0  0  0  0  0  0  0  0  0  0  0  0
   24.9392  -20.8319   -9.7502 S   0  0  0  0  0  0  0  0  0  0  0  0
   23.5385  -20.6833  -12.4437 C   0  0  0  0  0  0  0  0  0  0  0  0
   22.9233  -19.6015  -12.2546 O   0  0  0  0  0  0  0  0  0  0  0  0
   20.6452  -23.0406  -13.1264 C   0  0  0  0  0  0  0  0  0  0  0  0
   21.3188  -21.7537  -12.7181 C   0  0  2  0  0  0  0  0  0  0  0  0
   22.7354  -21.8688  -12.5881 N   0  0  0  0  0  0  0  0  0  0  0  0
   20.7298  -21.3176  -11.4466 C   0  0  0  0  0  0  0  0  0  0  0  0
   21.3628  -21.3183  -10.3511 O   0  0  0  0  0  0  0  0  0  0  0  0
   19.4158  -20.8809  -11.4307 O   0  0  0  0  0  0  0  0  0  0  0  0
  2  1  1  1
  2 10  1  0
  3  2  1  0
  4  3  1  0
  4  5  2  0
  6  5  1  0
  7  6  2  0
  8  9  2  0
  8  7  1  0
  9  4  1  0
 10 11  2  0
 12 10  1  0
 12 13  1  0
 13 16  1  0
 13 14  1  1
 15 14  1  0
 16 17  2  0
 19 18  1  1
 19 21  1  0
 20 19  1  0
 20 16  1  0
 21 22  2  0
 21 23  1  0
M  END
$$$$
