FCA.pdb
     RDKit          3D

 23 23  0  0  1  0  0  0  0  0999 V2000
   25.6723  -20.9012   -8.1188 N   0  0  0  0  0  0  0  0  0  0  0  0
   26.7234  -20.1570   -8.7808 C   0  0  1  0  0  0  0  0  0  0  0  0
   28.0491  -20.7005   -8.3039 C   0  0  0  0  0  0  0  0  0  0  0  0
   28.2120  -20.3279   -6.8743 C   0  0  0  0  0  0  0  0  0  0  0  0
   28.6214  -21.2310   -5.9153 C   0  0  0  0  0  0  0  0  0  0  0  0
   28.7690  -20.8809   -4.6016 C   0  0  0  0  0  0  0  0  0  0  0  0
   28.5068  -19.5795   -4.1803 C   0  0  0  0  0  0  0  0  0  0  0  0
   28.0922  -18.6483   -5.1280 C   0  0  0  0  0  0  0  0  0  0  0  0
   27.9534  -19.0337   -6.4435 C   0  0  0  0  0  0  0  0  0  0  0  0
   26.5414  -20.3199  -10.2416 C   0  0  0  0  0  0  0  0  0  0  0  0
   27.4930  -20.1138  -11.0315 O   0  0  0  0  0  0  0  0  0  0  0  0
   25.2958  -20.7135  -10.8222 N   0  0  0  0  0  0  0  0  0  0  0  0
   25.0518  -20.7663  -12.2318 C   0  0  1  0  0  0  0  0  0  0  0  0
   25.4116  -22.1171  -12.7704 C   0  0  0  0  0  0  0  0  0  0  0  0
   26.2501  -23.1738  -11.5871 S   0  0  0  0  0  0  0  0  0  0  0  0
   23.6772  -20.3385  -12.5960 C   0  0  0  0  0  0  0  0  0  0  0  0
   22.6951  -20.6155  -11.8589 O   0  0  0  0  0  0  0  0  0  0  0  0
   21.9682  -18.2297  -15.2539 C   0  0  0  0  0  0  0  0  0  0  0  0
   22.0702  -19.1371  -14.0527 C   0  0  2  0  0  0  0  0  0  0  0  0
   23.3976  -19.5940  -13.7955 N   0  0  0  0  0  0  0  0  0  0  0  0
   21.1771  -20.2808  -14.2718 C   0  0  0  0  0  0  0  0  0  0  0  0
   21.5638  -21.3800  -14.7648 O   0  0  0  0  0  0  0  0  0  0  0  0
   19.8413  -20.1648  -13.9260 O   0  0  0  0  0  0  0  0  0  0  0  0
  2  1  1  1
  2 10  1  0
  3  2  1  0
  4  3  1  0
  4  5  2  0
  6  5  1  0
  7  6  2  0
  8  9  2  0
  8  7  1  0
  9  4  1  0
 10 11  2  0
 12 10  1  0
 12 13  1  0
 13 16  1  0
 13 14  1  1
 15 14  1  0
 16 17  2  0
 19 18  1  6
 19 21  1  0
 20 19  1  0
 20 16  1  0
 21 22  2  0
 21 23  1  0
M  END
$$$$
