FCA.pdb
     RDKit          3D

 23 23  0  0  1  0  0  0  0  0999 V2000
   20.9299  -10.5155  -15.5758 N   0  0  0  0  0  0  0  0  0  0  0  0
   20.5696   -9.2979  -16.2717 C   0  0  1  0  0  0  0  0  0  0  0  0
   19.2476   -9.5315  -16.9634 C   0  0  0  0  0  0  0  0  0  0  0  0
   19.4785  -10.4688  -18.0935 C   0  0  0  0  0  0  0  0  0  0  0  0
   20.1952  -10.1124  -19.2169 C   0  0  0  0  0  0  0  0  0  0  0  0
   20.4037  -10.9804  -20.2530 C   0  0  0  0  0  0  0  0  0  0  0  0
   19.8912  -12.2747  -20.2084 C   0  0  0  0  0  0  0  0  0  0  0  0
   19.1640  -12.6600  -19.0859 C   0  0  0  0  0  0  0  0  0  0  0  0
   18.9722  -11.7611  -18.0595 C   0  0  0  0  0  0  0  0  0  0  0  0
   20.4957   -8.2096  -15.2699 C   0  0  0  0  0  0  0  0  0  0  0  0
   20.0287   -8.4238  -14.1262 O   0  0  0  0  0  0  0  0  0  0  0  0
   20.9435   -6.8801  -15.5443 N   0  0  0  0  0  0  0  0  0  0  0  0
   20.9167   -5.8141  -14.5893 C   0  0  1  0  0  0  0  0  0  0  0  0
   22.3114   -5.4367  -14.1936 C   0  0  0  0  0  0  0  0  0  0  0  0
   22.4119   -3.9279  -13.2275 S   0  0  0  0  0  0  0  0  0  0  0  0
   20.1029   -4.6564  -15.0392 C   0  0  0  0  0  0  0  0  0  0  0  0
   20.3743   -4.0490  -16.1078 O   0  0  0  0  0  0  0  0  0  0  0  0
   16.8319   -2.9731  -14.2875 C   0  0  0  0  0  0  0  0  0  0  0  0
   18.2738   -3.0111  -14.7300 C   0  0  2  0  0  0  0  0  0  0  0  0
   18.9749   -4.1728  -14.2875 N   0  0  0  0  0  0  0  0  0  0  0  0
   18.9344   -1.8013  -14.2260 C   0  0  0  0  0  0  0  0  0  0  0  0
   18.5377   -0.6301  -14.4939 O   0  0  0  0  0  0  0  0  0  0  0  0
   20.0491   -1.9338  -13.4152 O   0  0  0  0  0  0  0  0  0  0  0  0
  2  1  1  1
  2 10  1  0
  3  2  1  0
  4  3  1  0
  4  5  2  0
  6  5  1  0
  7  6  2  0
  8  9  2  0
  8  7  1  0
  9  4  1  0
 10 11  2  0
 12 10  1  0
 12 13  1  0
 13 16  1  0
 13 14  1  6
 15 14  1  0
 16 17  2  0
 19 18  1  1
 19 21  1  0
 20 19  1  0
 20 16  1  0
 21 22  2  0
 21 23  1  0
M  END
$$$$
