FCA.pdb
     RDKit          3D

 23 23  0  0  1  0  0  0  0  0999 V2000
   20.5788  -12.2793  -17.7500 N   0  0  0  0  0  0  0  0  0  0  0  0
   20.4716  -10.8574  -18.0022 C   0  0  1  0  0  0  0  0  0  0  0  0
   19.2739  -10.6322  -18.8939 C   0  0  0  0  0  0  0  0  0  0  0  0
   19.5995  -11.1607  -20.2444 C   0  0  0  0  0  0  0  0  0  0  0  0
   19.1752  -12.3998  -20.6772 C   0  0  0  0  0  0  0  0  0  0  0  0
   19.4788  -12.8795  -21.9214 C   0  0  0  0  0  0  0  0  0  0  0  0
   20.2391  -12.1210  -22.8083 C   0  0  0  0  0  0  0  0  0  0  0  0
   20.6800  -10.8668  -22.3965 C   0  0  0  0  0  0  0  0  0  0  0  0
   20.3566  -10.4131  -21.1363 C   0  0  0  0  0  0  0  0  0  0  0  0
   20.3355  -10.1755  -16.6946 C   0  0  0  0  0  0  0  0  0  0  0  0
   19.5780  -10.6371  -15.8084 O   0  0  0  0  0  0  0  0  0  0  0  0
   21.0454   -8.9766  -16.3748 N   0  0  0  0  0  0  0  0  0  0  0  0
   20.9723   -8.3182  -15.1058 C   0  0  1  0  0  0  0  0  0  0  0  0
   21.7831   -9.0610  -14.0885 C   0  0  0  0  0  0  0  0  0  0  0  0
   23.3096   -9.7488  -14.7340 S   0  0  0  0  0  0  0  0  0  0  0  0
   21.3122   -6.8748  -15.1840 C   0  0  0  0  0  0  0  0  0  0  0  0
   22.2983   -6.4763  -15.8573 O   0  0  0  0  0  0  0  0  0  0  0  0
   19.8437   -3.5362  -14.1716 C   0  0  0  0  0  0  0  0  0  0  0  0
   20.9256   -4.4958  -14.6019 C   0  0  2  0  0  0  0  0  0  0  0  0
   20.5425   -5.8671  -14.5033 N   0  0  0  0  0  0  0  0  0  0  0  0
   22.1109   -4.2428  -13.7743 C   0  0  0  0  0  0  0  0  0  0  0  0
   22.5309   -5.0514  -12.8965 O   0  0  0  0  0  0  0  0  0  0  0  0
   22.8145   -3.0636  -13.9527 O   0  0  0  0  0  0  0  0  0  0  0  0
  2  1  1  1
  2 10  1  0
  3  2  1  0
  4  3  1  0
  4  5  2  0
  6  5  1  0
  7  6  2  0
  8  9  2  0
  8  7  1  0
  9  4  1  0
 10 11  2  0
 12 10  1  0
 12 13  1  0
 13 16  1  0
 13 14  1  1
 15 14  1  0
 16 17  2  0
 19 18  1  1
 19 21  1  0
 20 19  1  0
 20 16  1  0
 21 22  2  0
 21 23  1  0
M  END
$$$$
