FCA.pdb
     RDKit          3D

 23 23  0  0  1  0  0  0  0  0999 V2000
   26.1335  -21.3740   -9.9386 N   0  0  0  0  0  0  0  0  0  0  0  0
   25.1619  -20.7873  -10.8378 C   0  0  1  0  0  0  0  0  0  0  0  0
   24.2931  -19.8485  -10.0352 C   0  0  0  0  0  0  0  0  0  0  0  0
   23.3700  -20.6691   -9.2083 C   0  0  0  0  0  0  0  0  0  0  0  0
   23.5054  -20.7848   -7.8404 C   0  0  0  0  0  0  0  0  0  0  0  0
   22.6521  -21.5419   -7.0860 C   0  0  0  0  0  0  0  0  0  0  0  0
   21.6004  -22.2329   -7.6828 C   0  0  0  0  0  0  0  0  0  0  0  0
   21.4412  -22.1331   -9.0618 C   0  0  0  0  0  0  0  0  0  0  0  0
   22.3184  -21.3620   -9.7928 C   0  0  0  0  0  0  0  0  0  0  0  0
   25.9044  -20.0873  -11.9111 C   0  0  0  0  0  0  0  0  0  0  0  0
   26.8816  -19.3509  -11.6373 O   0  0  0  0  0  0  0  0  0  0  0  0
   25.5564  -20.2088  -13.2923 N   0  0  0  0  0  0  0  0  0  0  0  0
   26.3223  -19.6459  -14.3626 C   0  0  1  0  0  0  0  0  0  0  0  0
   27.7193  -20.1864  -14.3412 C   0  0  0  0  0  0  0  0  0  0  0  0
   27.8068  -21.9779  -14.2890 S   0  0  0  0  0  0  0  0  0  0  0  0
   25.6600  -19.7889  -15.6839 C   0  0  0  0  0  0  0  0  0  0  0  0
   25.1652  -20.8885  -16.0456 O   0  0  0  0  0  0  0  0  0  0  0  0
   24.5340  -17.5684  -18.5428 C   0  0  0  0  0  0  0  0  0  0  0  0
   24.8277  -18.8649  -17.8289 C   0  0  2  0  0  0  0  0  0  0  0  0
   25.5495  -18.6928  -16.6098 N   0  0  0  0  0  0  0  0  0  0  0  0
   25.5847  -19.7253  -18.7457 C   0  0  0  0  0  0  0  0  0  0  0  0
   26.7978  -20.0359  -18.5648 O   0  0  0  0  0  0  0  0  0  0  0  0
   24.9516  -20.2296  -19.8692 O   0  0  0  0  0  0  0  0  0  0  0  0
  2  1  1  1
  2 10  1  0
  3  2  1  0
  4  3  1  0
  4  5  2  0
  6  5  1  0
  7  6  2  0
  8  9  2  0
  8  7  1  0
  9  4  1  0
 10 11  2  0
 12 10  1  0
 12 13  1  0
 13 16  1  0
 13 14  1  6
 15 14  1  0
 16 17  2  0
 19 18  1  6
 19 21  1  0
 20 19  1  0
 20 16  1  0
 21 22  2  0
 21 23  1  0
M  END
$$$$
