FCA.pdb
     RDKit          3D

 23 23  0  0  1  0  0  0  0  0999 V2000
   25.2164  -33.5118  -12.1306 N   0  0  0  0  0  0  0  0  0  0  0  0
   24.6587  -33.0420  -10.8796 C   0  0  1  0  0  0  0  0  0  0  0  0
   23.1944  -33.4105  -10.8557 C   0  0  0  0  0  0  0  0  0  0  0  0
   22.4941  -32.5797  -11.8699 C   0  0  0  0  0  0  0  0  0  0  0  0
   22.3080  -32.9992  -13.1707 C   0  0  0  0  0  0  0  0  0  0  0  0
   21.6625  -32.2292  -14.0985 C   0  0  0  0  0  0  0  0  0  0  0  0
   21.1630  -30.9750  -13.7560 C   0  0  0  0  0  0  0  0  0  0  0  0
   21.3374  -30.5277  -12.4497 C   0  0  0  0  0  0  0  0  0  0  0  0
   21.9923  -31.3281  -11.5393 C   0  0  0  0  0  0  0  0  0  0  0  0
   25.4172  -33.6797   -9.7788 C   0  0  0  0  0  0  0  0  0  0  0  0
   26.0870  -34.7198   -9.9825 O   0  0  0  0  0  0  0  0  0  0  0  0
   25.4284  -33.1564   -8.4486 N   0  0  0  0  0  0  0  0  0  0  0  0
   26.2075  -33.7044   -7.3801 C   0  0  1  0  0  0  0  0  0  0  0  0
   27.6678  -33.6086   -7.7005 C   0  0  0  0  0  0  0  0  0  0  0  0
   28.0126  -33.1917   -9.4115 S   0  0  0  0  0  0  0  0  0  0  0  0
   25.8599  -33.1269   -6.0570 C   0  0  0  0  0  0  0  0  0  0  0  0
   25.8909  -31.8833   -5.8639 O   0  0  0  0  0  0  0  0  0  0  0  0
   24.1998  -34.1479   -2.8491 C   0  0  0  0  0  0  0  0  0  0  0  0
   25.1550  -33.3363   -3.6891 C   0  0  2  0  0  0  0  0  0  0  0  0
   25.4739  -33.9468   -4.9390 N   0  0  0  0  0  0  0  0  0  0  0  0
   26.3777  -33.1227   -2.9060 C   0  0  0  0  0  0  0  0  0  0  0  0
   27.4938  -33.6376   -3.2061 O   0  0  0  0  0  0  0  0  0  0  0  0
   26.3213  -32.3194   -1.7796 O   0  0  0  0  0  0  0  0  0  0  0  0
  2  1  1  6
  2 10  1  0
  3  2  1  0
  4  3  1  0
  4  5  2  0
  6  5  1  0
  7  6  2  0
  8  9  2  0
  8  7  1  0
  9  4  1  0
 10 11  2  0
 12 10  1  0
 12 13  1  0
 13 16  1  0
 13 14  1  6
 15 14  1  0
 16 17  2  0
 19 18  1  1
 19 21  1  0
 20 19  1  0
 20 16  1  0
 21 22  2  0
 21 23  1  0
M  END
$$$$
