FCA.pdb
     RDKit          3D

 23 23  0  0  1  0  0  0  0  0999 V2000
   21.9248  -12.2624  -16.4366 N   0  0  0  0  0  0  0  0  0  0  0  0
   20.9426  -11.2181  -16.6399 C   0  0  1  0  0  0  0  0  0  0  0  0
   19.8067  -11.4533  -15.6730 C   0  0  0  0  0  0  0  0  0  0  0  0
   19.0406  -12.6375  -16.1421 C   0  0  0  0  0  0  0  0  0  0  0  0
   18.9203  -13.7875  -15.3899 C   0  0  0  0  0  0  0  0  0  0  0  0
   18.2137  -14.8733  -15.8282 C   0  0  0  0  0  0  0  0  0  0  0  0
   17.5812  -14.8546  -17.0690 C   0  0  0  0  0  0  0  0  0  0  0  0
   17.6869  -13.7062  -17.8481 C   0  0  0  0  0  0  0  0  0  0  0  0
   18.4064  -12.6297  -17.3771 C   0  0  0  0  0  0  0  0  0  0  0  0
   21.6130   -9.9169  -16.4142 C   0  0  0  0  0  0  0  0  0  0  0  0
   22.4342   -9.7746  -15.4775 O   0  0  0  0  0  0  0  0  0  0  0  0
   21.3669   -8.7724  -17.2346 N   0  0  0  0  0  0  0  0  0  0  0  0
   22.0487   -7.5222  -17.0886 C   0  0  1  0  0  0  0  0  0  0  0  0
   22.2510   -6.8820  -18.4278 C   0  0  0  0  0  0  0  0  0  0  0  0
   23.2477   -7.8561  -19.5581 S   0  0  0  0  0  0  0  0  0  0  0  0
   21.3991   -6.6222  -16.1022 C   0  0  0  0  0  0  0  0  0  0  0  0
   20.1525   -6.4471  -16.1066 O   0  0  0  0  0  0  0  0  0  0  0  0
   22.2295   -4.8185  -12.9032 C   0  0  0  0  0  0  0  0  0  0  0  0
   21.4733   -5.0473  -14.1885 C   0  0  2  0  0  0  0  0  0  0  0  0
   22.1498   -5.9111  -15.1012 N   0  0  0  0  0  0  0  0  0  0  0  0
   21.2358   -3.7407  -14.8131 C   0  0  0  0  0  0  0  0  0  0  0  0
   21.8134   -3.3619  -15.8732 O   0  0  0  0  0  0  0  0  0  0  0  0
   20.3366   -2.8685  -14.2231 O   0  0  0  0  0  0  0  0  0  0  0  0
  2  1  1  1
  2 10  1  0
  3  2  1  0
  4  3  1  0
  4  5  2  0
  6  5  1  0
  7  6  2  0
  8  9  2  0
  8  7  1  0
  9  4  1  0
 10 11  2  0
 12 10  1  0
 12 13  1  0
 13 16  1  0
 13 14  1  6
 15 14  1  0
 16 17  2  0
 19 18  1  1
 19 21  1  0
 20 19  1  0
 20 16  1  0
 21 22  2  0
 21 23  1  0
M  END
$$$$
