FCA.pdb
     RDKit          3D

 23 23  0  0  1  0  0  0  0  0999 V2000
   25.0780   -8.7061  -17.2178 N   0  0  0  0  0  0  0  0  0  0  0  0
   24.4305   -7.4437  -16.9283 C   0  0  1  0  0  0  0  0  0  0  0  0
   24.4812   -6.5976  -18.1781 C   0  0  0  0  0  0  0  0  0  0  0  0
   25.8671   -6.0823  -18.3292 C   0  0  0  0  0  0  0  0  0  0  0  0
   26.3110   -4.9491  -17.6798 C   0  0  0  0  0  0  0  0  0  0  0  0
   27.5878   -4.4808  -17.8237 C   0  0  0  0  0  0  0  0  0  0  0  0
   28.4982   -5.1427  -18.6441 C   0  0  0  0  0  0  0  0  0  0  0  0
   28.0758   -6.2890  -19.3111 C   0  0  0  0  0  0  0  0  0  0  0  0
   26.7826   -6.7342  -19.1443 C   0  0  0  0  0  0  0  0  0  0  0  0
   23.0423   -7.7350  -16.5022 C   0  0  0  0  0  0  0  0  0  0  0  0
   22.4109   -8.6992  -16.9957 O   0  0  0  0  0  0  0  0  0  0  0  0
   22.3572   -6.9493  -15.5240 N   0  0  0  0  0  0  0  0  0  0  0  0
   21.0417   -7.2422  -15.0414 C   0  0  1  0  0  0  0  0  0  0  0  0
   21.1140   -7.8509  -13.6745 C   0  0  0  0  0  0  0  0  0  0  0  0
   22.0961   -9.3506  -13.5957 S   0  0  0  0  0  0  0  0  0  0  0  0
   20.1270   -6.0747  -15.1141 C   0  0  0  0  0  0  0  0  0  0  0  0
   20.4410   -4.9715  -14.5954 O   0  0  0  0  0  0  0  0  0  0  0  0
   17.0052   -5.0375  -16.9622 C   0  0  0  0  0  0  0  0  0  0  0  0
   18.0375   -4.9702  -15.8639 C   0  0  2  0  0  0  0  0  0  0  0  0
   18.8491   -6.1406  -15.7728 N   0  0  0  0  0  0  0  0  0  0  0  0
   17.3353   -4.7438  -14.5953 C   0  0  0  0  0  0  0  0  0  0  0  0
   16.7012   -3.6810  -14.3320 O   0  0  0  0  0  0  0  0  0  0  0  0
   17.3596   -5.7351  -13.6288 O   0  0  0  0  0  0  0  0  0  0  0  0
  2  1  1  6
  2 10  1  0
  3  2  1  0
  4  3  1  0
  4  5  2  0
  6  5  1  0
  7  6  2  0
  8  9  2  0
  8  7  1  0
  9  4  1  0
 10 11  2  0
 12 10  1  0
 12 13  1  0
 13 16  1  0
 13 14  1  1
 15 14  1  0
 16 17  2  0
 19 18  1  6
 19 21  1  0
 20 19  1  0
 20 16  1  0
 21 22  2  0
 21 23  1  0
M  END
$$$$
