LSP.pdb
     RDKit          3D

 22 22  0  0  1  0  0  0  0  0999 V2000
    6.1461  -14.9944   19.5338 C   0  0  0  0  0  0  0  0  0  0  0  0
    7.3885  -15.7217   20.0259 C   0  0  2  0  0  0  0  0  0  0  0  0
    7.1475  -17.2086   19.8073 C   0  0  0  0  0  0  0  0  0  0  0  0
    7.6457  -15.4307   21.4854 C   0  0  0  0  0  0  0  0  0  0  0  0
    7.7687  -13.9621   21.7574 C   0  0  2  0  0  0  0  0  0  0  0  0
    8.7350  -13.3882   20.8529 N   0  0  0  0  0  0  0  0  0  0  0  0
    8.1617  -13.7091   23.1881 C   0  0  0  0  0  0  0  0  0  0  0  0
    9.3530  -13.4333   23.4037 O   0  0  0  0  0  0  0  0  0  0  0  0
    5.6329  -12.3971   26.3150 O   0  0  0  0  0  0  0  0  0  0  0  0
    6.2247  -13.6548   26.3934 C   0  0  0  0  0  0  0  0  0  0  0  0
    7.5351  -13.7239   25.6349 C   0  0  2  0  0  0  0  0  0  0  0  0
    7.2295  -13.7803   24.2309 N   0  0  0  0  0  0  0  0  0  0  0  0
    8.4091  -14.8201   26.0976 C   0  0  0  0  0  0  0  0  0  0  0  0
    8.2288  -16.0207   25.7443 O   0  0  0  0  0  0  0  0  0  0  0  0
    9.4913  -14.5524   26.9612 N   0  0  0  0  0  0  0  0  0  0  0  0
    9.9849  -13.1902   27.2409 C   0  0  0  0  0  0  0  0  0  0  0  0
    9.8991  -13.2066   28.7486 C   0  0  0  0  0  0  0  0  0  0  0  0
   10.4689  -14.5985   29.0675 C   0  0  0  0  0  0  0  0  0  0  0  0
   10.3555  -15.3840   27.7522 C   0  0  1  0  0  0  0  0  0  0  0  0
    9.9054  -16.7254   28.0753 C   0  0  0  0  0  0  0  0  0  0  0  0
   10.5256  -17.6697   28.8402 O   0  0  0  0  0  0  0  0  0  0  0  0
    8.7777  -17.0774   27.5768 O   0  0  0  0  0  0  0  0  0  0  0  0
  2  1  1  1
  2  3  1  0
  4  2  1  0
  4  5  1  0
  5  6  1  6
  7  5  1  0
  8  7  2  0
  9 10  1  0
 11 12  1  0
 11 10  1  1
 12  7  1  0
 13 11  1  0
 14 13  2  0
 15 13  1  0
 16 15  1  0
 17 16  1  0
 17 18  1  0
 18 19  1  0
 19 15  1  0
 20 21  1  0
 19 20  1  1
 22 20  2  0
M  END
$$$$
