LSP.pdb
     RDKit          3D

 22 22  0  0  1  0  0  0  0  0999 V2000
    9.8387  -13.4962   19.5236 C   0  0  0  0  0  0  0  0  0  0  0  0
    8.4526  -13.6766   18.9230 C   0  0  2  0  0  0  0  0  0  0  0  0
    8.0428  -12.3309   18.3417 C   0  0  0  0  0  0  0  0  0  0  0  0
    7.4624  -14.1310   19.9690 C   0  0  0  0  0  0  0  0  0  0  0  0
    7.8920  -15.3986   20.6433 C   0  0  2  0  0  0  0  0  0  0  0  0
    7.5486  -16.5237   19.8083 N   0  0  0  0  0  0  0  0  0  0  0  0
    7.2572  -15.5292   22.0017 C   0  0  0  0  0  0  0  0  0  0  0  0
    6.0278  -15.3667   22.0659 O   0  0  0  0  0  0  0  0  0  0  0  0
    5.9743  -17.5635   24.1715 O   0  0  0  0  0  0  0  0  0  0  0  0
    7.0846  -17.1444   24.8994 C   0  0  0  0  0  0  0  0  0  0  0  0
    7.5451  -15.7565   24.5008 C   0  0  2  0  0  0  0  0  0  0  0  0
    8.0147  -15.8208   23.1431 N   0  0  0  0  0  0  0  0  0  0  0  0
    8.5274  -15.1850   25.4430 C   0  0  0  0  0  0  0  0  0  0  0  0
    9.6228  -15.7595   25.7058 O   0  0  0  0  0  0  0  0  0  0  0  0
    8.2668  -13.9575   26.0867 N   0  0  0  0  0  0  0  0  0  0  0  0
    7.4060  -12.9079   25.5082 C   0  0  0  0  0  0  0  0  0  0  0  0
    6.4364  -12.7323   26.6526 C   0  0  0  0  0  0  0  0  0  0  0  0
    7.3897  -12.7391   27.8587 C   0  0  0  0  0  0  0  0  0  0  0  0
    8.6810  -13.3894   27.3396 C   0  0  1  0  0  0  0  0  0  0  0  0
    9.1690  -14.2879   28.3696 C   0  0  0  0  0  0  0  0  0  0  0  0
    9.9890  -14.0084   29.4235 O   0  0  0  0  0  0  0  0  0  0  0  0
    8.7849  -15.5081   28.2819 O   0  0  0  0  0  0  0  0  0  0  0  0
  2  1  1  1
  2  3  1  0
  4  2  1  0
  4  5  1  0
  5  6  1  6
  7  5  1  0
  8  7  2  0
  9 10  1  0
 11 12  1  0
 11 10  1  1
 12  7  1  0
 13 11  1  0
 14 13  2  0
 15 13  1  0
 16 15  1  0
 17 16  1  0
 17 18  1  0
 18 19  1  0
 19 15  1  0
 20 21  1  0
 19 20  1  1
 22 20  2  0
M  END
$$$$
