LSP.pdb
     RDKit          3D

 22 22  0  0  1  0  0  0  0  0999 V2000
    9.6298  -13.4078   19.4295 C   0  0  0  0  0  0  0  0  0  0  0  0
    8.1359  -13.4937   19.1549 C   0  0  2  0  0  0  0  0  0  0  0  0
    7.6907  -12.1144   18.6898 C   0  0  0  0  0  0  0  0  0  0  0  0
    7.3791  -13.9102   20.3937 C   0  0  0  0  0  0  0  0  0  0  0  0
    7.7457  -15.2918   20.8440 C   0  0  2  0  0  0  0  0  0  0  0  0
    7.1924  -16.2562   19.9249 N   0  0  0  0  0  0  0  0  0  0  0  0
    7.2591  -15.5499   22.2447 C   0  0  0  0  0  0  0  0  0  0  0  0
    6.0343  -15.6836   22.3989 O   0  0  0  0  0  0  0  0  0  0  0  0
    6.7263  -17.7072   25.9601 O   0  0  0  0  0  0  0  0  0  0  0  0
    7.0588  -17.2793   24.6777 C   0  0  0  0  0  0  0  0  0  0  0  0
    7.7823  -15.9475   24.6836 C   0  0  2  0  0  0  0  0  0  0  0  0
    8.1438  -15.6361   23.3270 N   0  0  0  0  0  0  0  0  0  0  0  0
    8.9199  -15.9164   25.6240 C   0  0  0  0  0  0  0  0  0  0  0  0
    9.7528  -16.8643   25.7060 O   0  0  0  0  0  0  0  0  0  0  0  0
    9.1138  -14.8059   26.4714 N   0  0  0  0  0  0  0  0  0  0  0  0
    8.4523  -13.5037   26.2619 C   0  0  0  0  0  0  0  0  0  0  0  0
    7.8061  -13.3398   27.6169 C   0  0  0  0  0  0  0  0  0  0  0  0
    8.9454  -13.7826   28.5495 C   0  0  0  0  0  0  0  0  0  0  0  0
    9.8988  -14.5892   27.6549 C   0  0  1  0  0  0  0  0  0  0  0  0
   10.3355  -15.7507   28.4078 C   0  0  0  0  0  0  0  0  0  0  0  0
   11.3172  -15.8328   29.3516 O   0  0  0  0  0  0  0  0  0  0  0  0
    9.7239  -16.8490   28.1555 O   0  0  0  0  0  0  0  0  0  0  0  0
  2  1  1  1
  2  3  1  0
  4  2  1  0
  4  5  1  0
  5  6  1  6
  7  5  1  0
  8  7  2  0
  9 10  1  0
 11 12  1  0
 11 10  1  6
 12  7  1  0
 13 11  1  0
 14 13  2  0
 15 13  1  0
 16 15  1  0
 17 16  1  0
 17 18  1  0
 18 19  1  0
 19 15  1  0
 20 21  1  0
 19 20  1  1
 22 20  2  0
M  END
$$$$
