LSP.pdb
     RDKit          3D

 22 22  0  0  1  0  0  0  0  0999 V2000
    9.7148  -13.6939   19.4169 C   0  0  0  0  0  0  0  0  0  0  0  0
    8.2008  -13.7164   19.2692 C   0  0  2  0  0  0  0  0  0  0  0  0
    7.7928  -12.3730   18.6814 C   0  0  0  0  0  0  0  0  0  0  0  0
    7.5283  -13.9429   20.6025 C   0  0  0  0  0  0  0  0  0  0  0  0
    7.8028  -15.3106   21.1505 C   0  0  2  0  0  0  0  0  0  0  0  0
    7.1359  -16.2950   20.3336 N   0  0  0  0  0  0  0  0  0  0  0  0
    7.3572  -15.4170   22.5842 C   0  0  0  0  0  0  0  0  0  0  0  0
    6.1735  -15.1318   22.8278 O   0  0  0  0  0  0  0  0  0  0  0  0
    7.3929  -18.1388   25.3630 O   0  0  0  0  0  0  0  0  0  0  0  0
    6.8725  -16.8511   25.2675 C   0  0  0  0  0  0  0  0  0  0  0  0
    7.9459  -15.8130   25.0083 C   0  0  2  0  0  0  0  0  0  0  0  0
    8.2342  -15.8190   23.5995 N   0  0  0  0  0  0  0  0  0  0  0  0
    9.1381  -15.9951   25.8597 C   0  0  0  0  0  0  0  0  0  0  0  0
    9.8342  -17.0503   25.8282 O   0  0  0  0  0  0  0  0  0  0  0  0
    9.5424  -14.9763   26.7471 N   0  0  0  0  0  0  0  0  0  0  0  0
    9.1178  -13.5697   26.6108 C   0  0  0  0  0  0  0  0  0  0  0  0
    8.5379  -13.3574   27.9890 C   0  0  0  0  0  0  0  0  0  0  0  0
    9.5993  -14.0362   28.8701 C   0  0  0  0  0  0  0  0  0  0  0  0
   10.3769  -14.9559   27.9165 C   0  0  1  0  0  0  0  0  0  0  0  0
   10.6161  -16.2095   28.6076 C   0  0  0  0  0  0  0  0  0  0  0  0
   11.5865  -16.5066   29.5193 O   0  0  0  0  0  0  0  0  0  0  0  0
    9.8146  -17.1702   28.3268 O   0  0  0  0  0  0  0  0  0  0  0  0
  2  1  1  1
  2  3  1  0
  4  2  1  0
  4  5  1  0
  5  6  1  6
  7  5  1  0
  8  7  2  0
  9 10  1  0
 11 12  1  0
 11 10  1  6
 12  7  1  0
 13 11  1  0
 14 13  2  0
 15 13  1  0
 16 15  1  0
 17 16  1  0
 17 18  1  0
 18 19  1  0
 19 15  1  0
 20 21  1  0
 19 20  1  1
 22 20  2  0
M  END
$$$$
