KDL.pdb
     RDKit          3D

 26 25  0  0  1  0  0  0  0  0999 V2000
   23.4896  -34.8743  -16.4346 N   0  0  0  0  0  0  0  0  0  0  0  0
   24.2490  -34.7432  -15.2080 C   0  0  1  0  0  0  0  0  0  0  0  0
   25.0961  -33.4923  -15.1818 C   0  0  0  0  0  0  0  0  0  0  0  0
   26.4008  -33.6236  -15.8873 C   0  0  0  0  0  0  0  0  0  0  0  0
   27.2663  -32.4048  -15.9151 C   0  0  0  0  0  0  0  0  0  0  0  0
   28.5109  -32.6758  -16.7520 C   0  0  0  0  0  0  0  0  0  0  0  0
   29.3046  -31.4743  -16.9071 N   0  0  0  0  0  0  0  0  0  0  0  0
   23.3072  -34.6326  -14.0749 C   0  0  0  0  0  0  0  0  0  0  0  0
   22.1844  -34.1399  -14.2601 O   0  0  0  0  0  0  0  0  0  0  0  0
   23.6548  -35.0734  -12.7889 N   0  0  0  0  0  0  0  0  0  0  0  0
   22.8256  -35.0270  -11.6361 C   0  0  1  0  0  0  0  0  0  0  0  0
   22.5802  -36.3335  -10.9617 C   0  0  0  0  0  0  0  0  0  0  0  0
   21.7028  -36.2088   -9.7981 C   0  0  0  0  0  0  0  0  0  0  0  0
   21.9797  -36.7965   -8.7068 O   0  0  0  0  0  0  0  0  0  0  0  0
   23.3935  -34.0806  -10.6639 C   0  0  0  0  0  0  0  0  0  0  0  0
   24.6473  -34.1087  -10.4058 O   0  0  0  0  0  0  0  0  0  0  0  0
   20.5385  -35.4595   -9.8087 O   0  0  0  0  0  0  0  0  0  0  0  0
   23.6239  -29.7366  -10.6280 C   0  0  0  0  0  0  0  0  0  0  0  0
   22.2722  -30.1420  -10.0630 C   0  0  2  0  0  0  0  0  0  0  0  0
   21.3100  -29.0279   -9.9750 C   0  0  0  0  0  0  0  0  0  0  0  0
   22.3913  -31.0124   -8.8777 C   0  0  0  0  0  0  0  0  0  0  0  0
   23.2556  -32.2213   -8.9444 C   0  0  2  0  0  0  0  0  0  0  0  0
   22.6430  -33.1097   -9.9673 N   0  0  0  0  0  0  0  0  0  0  0  0
   23.2985  -33.0236   -7.7127 C   0  0  0  0  0  0  0  0  0  0  0  0
   22.5291  -33.9783   -7.4337 O   0  0  0  0  0  0  0  0  0  0  0  0
   24.2589  -32.7606   -6.7077 O   0  0  0  0  0  0  0  0  0  0  0  0
  2  1  1  6
  2  3  1  0
  3  4  1  0
  5  4  1  0
  6  7  1  0
  6  5  1  0
  8  2  1  0
  8  9  2  0
 10  8  1  0
 11 10  1  0
 11 12  1  1
 13 12  1  0
 13 17  1  0
 14 13  2  0
 15 11  1  0
 16 15  2  0
 19 18  1  1
 19 21  1  0
 20 19  1  0
 22 21  1  1
 22 23  1  0
 23 15  1  0
 24 22  1  0
 25 24  2  0
 26 24  1  0
M  END
$$$$
