KDL.pdb
     RDKit          3D

 26 25  0  0  1  0  0  0  0  0999 V2000
   27.9212  -25.0369  -17.7612 N   0  0  0  0  0  0  0  0  0  0  0  0
   26.5038  -24.7660  -17.6350 C   0  0  1  0  0  0  0  0  0  0  0  0
   25.7577  -25.8891  -16.9528 C   0  0  0  0  0  0  0  0  0  0  0  0
   26.1411  -27.2496  -17.4210 C   0  0  0  0  0  0  0  0  0  0  0  0
   27.2455  -27.9231  -16.6712 C   0  0  0  0  0  0  0  0  0  0  0  0
   27.5004  -29.3052  -17.2611 C   0  0  0  0  0  0  0  0  0  0  0  0
   28.6742  -29.9139  -16.6700 N   0  0  0  0  0  0  0  0  0  0  0  0
   26.3217  -23.5695  -16.7874 C   0  0  0  0  0  0  0  0  0  0  0  0
   27.2100  -23.2498  -15.9835 O   0  0  0  0  0  0  0  0  0  0  0  0
   25.1624  -22.7833  -16.8709 N   0  0  0  0  0  0  0  0  0  0  0  0
   24.9565  -21.5269  -16.2403 C   0  0  1  0  0  0  0  0  0  0  0  0
   24.0008  -20.6086  -16.9225 C   0  0  0  0  0  0  0  0  0  0  0  0
   24.6607  -19.4363  -17.4965 C   0  0  0  0  0  0  0  0  0  0  0  0
   25.4341  -18.7143  -16.7939 O   0  0  0  0  0  0  0  0  0  0  0  0
   24.5135  -21.7428  -14.8545 C   0  0  0  0  0  0  0  0  0  0  0  0
   23.6278  -22.6319  -14.6006 O   0  0  0  0  0  0  0  0  0  0  0  0
   24.4899  -19.0444  -18.8134 O   0  0  0  0  0  0  0  0  0  0  0  0
   25.8759  -19.3910   -9.2873 C   0  0  0  0  0  0  0  0  0  0  0  0
   25.1152  -20.4924  -10.0080 C   0  0  2  0  0  0  0  0  0  0  0  0
   25.1227  -21.7817   -9.2923 C   0  0  0  0  0  0  0  0  0  0  0  0
   25.4100  -20.5327  -11.4531 C   0  0  0  0  0  0  0  0  0  0  0  0
   24.4763  -21.2421  -12.3684 C   0  0  2  0  0  0  0  0  0  0  0  0
   25.0017  -21.0246  -13.7423 N   0  0  0  0  0  0  0  0  0  0  0  0
   23.1051  -20.7112  -12.3914 C   0  0  0  0  0  0  0  0  0  0  0  0
   22.7471  -19.6311  -12.9267 O   0  0  0  0  0  0  0  0  0  0  0  0
   22.0423  -21.4179  -11.7810 O   0  0  0  0  0  0  0  0  0  0  0  0
  2  1  1  1
  2  3  1  0
  3  4  1  0
  5  4  1  0
  6  7  1  0
  6  5  1  0
  8  2  1  0
  8  9  2  0
 10  8  1  0
 11 10  1  0
 11 12  1  6
 13 12  1  0
 13 17  1  0
 14 13  2  0
 15 11  1  0
 16 15  2  0
 19 18  1  1
 19 21  1  0
 20 19  1  0
 22 21  1  1
 22 23  1  0
 23 15  1  0
 24 22  1  0
 25 24  2  0
 26 24  1  0
M  END
$$$$
