KDL.pdb
     RDKit          3D

 26 25  0  0  1  0  0  0  0  0999 V2000
   27.5333  -20.7540  -17.5191 N   0  0  0  0  0  0  0  0  0  0  0  0
   27.8686  -19.6781  -16.6089 C   0  0  1  0  0  0  0  0  0  0  0  0
   28.5083  -18.5031  -17.3111 C   0  0  0  0  0  0  0  0  0  0  0  0
   28.0875  -18.3368  -18.7297 C   0  0  0  0  0  0  0  0  0  0  0  0
   28.7521  -17.2375  -19.4950 C   0  0  0  0  0  0  0  0  0  0  0  0
   28.1680  -17.1625  -20.9007 C   0  0  0  0  0  0  0  0  0  0  0  0
   29.0564  -17.7764  -21.8659 N   0  0  0  0  0  0  0  0  0  0  0  0
   26.6247  -19.1696  -15.9945 C   0  0  0  0  0  0  0  0  0  0  0  0
   26.6887  -18.2806  -15.1324 O   0  0  0  0  0  0  0  0  0  0  0  0
   25.3676  -19.6711  -16.3650 N   0  0  0  0  0  0  0  0  0  0  0  0
   24.1143  -19.2604  -15.8368 C   0  0  1  0  0  0  0  0  0  0  0  0
   23.0298  -19.0436  -16.8361 C   0  0  0  0  0  0  0  0  0  0  0  0
   23.2366  -17.8372  -17.6368 C   0  0  0  0  0  0  0  0  0  0  0  0
   23.4452  -17.9125  -18.8872 O   0  0  0  0  0  0  0  0  0  0  0  0
   23.6613  -20.2394  -14.8369 C   0  0  0  0  0  0  0  0  0  0  0  0
   23.4544  -21.4544  -15.1840 O   0  0  0  0  0  0  0  0  0  0  0  0
   23.2196  -16.5622  -17.0970 O   0  0  0  0  0  0  0  0  0  0  0  0
   25.7653  -21.9566  -11.5255 C   0  0  0  0  0  0  0  0  0  0  0  0
   25.1724  -20.6193  -11.1120 C   0  0  2  0  0  0  0  0  0  0  0  0
   25.7639  -20.0662   -9.8795 C   0  0  0  0  0  0  0  0  0  0  0  0
   23.7005  -20.5970  -11.2108 C   0  0  0  0  0  0  0  0  0  0  0  0
   23.0495  -20.9843  -12.4910 C   0  0  2  0  0  0  0  0  0  0  0  0
   23.4276  -19.9388  -13.4782 N   0  0  0  0  0  0  0  0  0  0  0  0
   21.5790  -20.9787  -12.4674 C   0  0  0  0  0  0  0  0  0  0  0  0
   20.8508  -21.8944  -12.0064 O   0  0  0  0  0  0  0  0  0  0  0  0
   20.8485  -19.8851  -12.9888 O   0  0  0  0  0  0  0  0  0  0  0  0
  2  1  1  6
  2  3  1  0
  3  4  1  0
  5  4  1  0
  6  7  1  0
  6  5  1  0
  8  2  1  0
  8  9  2  0
 10  8  1  0
 11 10  1  0
 11 12  1  6
 13 12  1  0
 13 17  1  0
 14 13  2  0
 15 11  1  0
 16 15  2  0
 19 18  1  1
 19 21  1  0
 20 19  1  0
 22 21  1  1
 22 23  1  0
 23 15  1  0
 24 22  1  0
 25 24  2  0
 26 24  1  0
M  END
$$$$
