KDL.pdb
     RDKit          3D

 26 25  0  0  1  0  0  0  0  0999 V2000
   24.9901  -35.0365   -9.3794 N   0  0  0  0  0  0  0  0  0  0  0  0
   25.0774  -33.8738   -8.5196 C   0  0  1  0  0  0  0  0  0  0  0  0
   23.7965  -33.0727   -8.4965 C   0  0  0  0  0  0  0  0  0  0  0  0
   23.6006  -32.2002   -9.6872 C   0  0  0  0  0  0  0  0  0  0  0  0
   23.5724  -32.8860  -11.0155 C   0  0  0  0  0  0  0  0  0  0  0  0
   23.3432  -31.8607  -12.1197 C   0  0  0  0  0  0  0  0  0  0  0  0
   23.4559  -32.4721  -13.4279 N   0  0  0  0  0  0  0  0  0  0  0  0
   25.3121  -34.3247   -7.1322 C   0  0  0  0  0  0  0  0  0  0  0  0
   24.8267  -35.3995   -6.7492 O   0  0  0  0  0  0  0  0  0  0  0  0
   26.0741  -33.5620   -6.2341 N   0  0  0  0  0  0  0  0  0  0  0  0
   26.4712  -33.9572   -4.9285 C   0  0  1  0  0  0  0  0  0  0  0  0
   27.6857  -33.2823   -4.3886 C   0  0  0  0  0  0  0  0  0  0  0  0
   28.1621  -33.8918   -3.1473 C   0  0  0  0  0  0  0  0  0  0  0  0
   27.8675  -33.3886   -2.0190 O   0  0  0  0  0  0  0  0  0  0  0  0
   25.3519  -33.7562   -3.9957 C   0  0  0  0  0  0  0  0  0  0  0  0
   24.8371  -32.5916   -3.8608 O   0  0  0  0  0  0  0  0  0  0  0  0
   28.9481  -35.0314   -3.1203 O   0  0  0  0  0  0  0  0  0  0  0  0
   21.1496  -34.3387   -3.9506 C   0  0  0  0  0  0  0  0  0  0  0  0
   21.8683  -35.6531   -3.6925 C   0  0  2  0  0  0  0  0  0  0  0  0
   21.0182  -36.8411   -3.8940 C   0  0  0  0  0  0  0  0  0  0  0  0
   22.6849  -35.6209   -2.4641 C   0  0  0  0  0  0  0  0  0  0  0  0
   23.6600  -34.5152   -2.2654 C   0  0  2  0  0  0  0  0  0  0  0  0
   24.7785  -34.7778   -3.2092 N   0  0  0  0  0  0  0  0  0  0  0  0
   24.2823  -34.4670   -0.9338 C   0  0  0  0  0  0  0  0  0  0  0  0
   25.3898  -34.9760   -0.6244 O   0  0  0  0  0  0  0  0  0  0  0  0
   23.6425  -33.8101    0.1435 O   0  0  0  0  0  0  0  0  0  0  0  0
  2  1  1  6
  2  3  1  0
  3  4  1  0
  5  4  1  0
  6  7  1  0
  6  5  1  0
  8  2  1  0
  8  9  2  0
 10  8  1  0
 11 10  1  0
 11 12  1  1
 13 12  1  0
 13 17  1  0
 14 13  2  0
 15 11  1  0
 16 15  2  0
 19 18  1  1
 19 21  1  0
 20 19  1  0
 22 21  1  1
 22 23  1  0
 23 15  1  0
 24 22  1  0
 25 24  2  0
 26 24  1  0
M  END
$$$$
