KDL.pdb
     RDKit          3D

 26 25  0  0  1  0  0  0  0  0999 V2000
   23.8781  -18.1031  -14.3162 N   0  0  0  0  0  0  0  0  0  0  0  0
   23.1993  -19.3461  -14.0119 C   0  0  1  0  0  0  0  0  0  0  0  0
   22.3713  -19.8528  -15.1698 C   0  0  0  0  0  0  0  0  0  0  0  0
   21.3041  -18.9143  -15.6140 C   0  0  0  0  0  0  0  0  0  0  0  0
   19.9077  -19.2528  -15.2003 C   0  0  0  0  0  0  0  0  0  0  0  0
   19.2026  -19.9973  -16.3278 C   0  0  0  0  0  0  0  0  0  0  0  0
   17.8297  -20.2948  -15.9751 N   0  0  0  0  0  0  0  0  0  0  0  0
   24.2120  -20.3864  -13.7370 C   0  0  0  0  0  0  0  0  0  0  0  0
   23.8690  -21.5774  -13.6986 O   0  0  0  0  0  0  0  0  0  0  0  0
   25.5582  -20.0569  -13.5172 N   0  0  0  0  0  0  0  0  0  0  0  0
   26.6027  -20.9688  -13.2073 C   0  0  1  0  0  0  0  0  0  0  0  0
   27.9758  -20.5369  -13.5945 C   0  0  0  0  0  0  0  0  0  0  0  0
   28.0478  -20.0668  -14.9776 C   0  0  0  0  0  0  0  0  0  0  0  0
   27.0291  -20.1106  -15.7349 O   0  0  0  0  0  0  0  0  0  0  0  0
   26.5784  -21.2681  -11.7674 C   0  0  0  0  0  0  0  0  0  0  0  0
   27.3227  -22.1983  -11.2981 O   0  0  0  0  0  0  0  0  0  0  0  0
   29.2046  -19.5550  -15.5407 O   0  0  0  0  0  0  0  0  0  0  0  0
   28.4102  -21.0162   -8.2145 C   0  0  0  0  0  0  0  0  0  0  0  0
   27.6363  -19.7442   -8.5209 C   0  0  2  0  0  0  0  0  0  0  0  0
   28.1043  -18.5700   -7.7613 C   0  0  0  0  0  0  0  0  0  0  0  0
   26.1784  -19.9658   -8.5703 C   0  0  0  0  0  0  0  0  0  0  0  0
   25.6351  -21.0572   -9.4226 C   0  0  2  0  0  0  0  0  0  0  0  0
   25.7733  -20.5903  -10.8275 N   0  0  0  0  0  0  0  0  0  0  0  0
   24.2006  -21.3285   -9.2457 C   0  0  0  0  0  0  0  0  0  0  0  0
   23.3045  -21.1172  -10.1022 O   0  0  0  0  0  0  0  0  0  0  0  0
   23.7083  -21.8741   -8.0367 O   0  0  0  0  0  0  0  0  0  0  0  0
  2  1  1  6
  2  3  1  0
  3  4  1  0
  5  4  1  0
  6  7  1  0
  6  5  1  0
  8  2  1  0
  8  9  2  0
 10  8  1  0
 11 10  1  0
 11 12  1  1
 13 12  1  0
 13 17  1  0
 14 13  2  0
 15 11  1  0
 16 15  2  0
 19 18  1  1
 19 21  1  0
 20 19  1  0
 22 21  1  1
 22 23  1  0
 23 15  1  0
 24 22  1  0
 25 24  2  0
 26 24  1  0
M  END
$$$$
