KDL.pdb
     RDKit          3D

 26 25  0  0  1  0  0  0  0  0999 V2000
   22.1824  -19.2485  -18.9398 N   0  0  0  0  0  0  0  0  0  0  0  0
   23.2630  -18.6616  -18.1741 C   0  0  1  0  0  0  0  0  0  0  0  0
   22.8156  -17.4695  -17.3604 C   0  0  0  0  0  0  0  0  0  0  0  0
   21.5122  -17.6589  -16.6658 C   0  0  0  0  0  0  0  0  0  0  0  0
   20.9923  -16.4859  -15.8980 C   0  0  0  0  0  0  0  0  0  0  0  0
   19.6731  -16.8524  -15.2285 C   0  0  0  0  0  0  0  0  0  0  0  0
   19.0571  -15.6897  -14.6231 N   0  0  0  0  0  0  0  0  0  0  0  0
   23.7600  -19.6629  -17.2079 C   0  0  0  0  0  0  0  0  0  0  0  0
   22.9766  -20.5042  -16.7431 O   0  0  0  0  0  0  0  0  0  0  0  0
   25.1031  -19.6841  -16.8020 N   0  0  0  0  0  0  0  0  0  0  0  0
   25.6933  -20.6213  -15.9121 C   0  0  1  0  0  0  0  0  0  0  0  0
   27.1752  -20.7549  -16.0013 C   0  0  0  0  0  0  0  0  0  0  0  0
   27.6492  -22.0641  -15.5536 C   0  0  0  0  0  0  0  0  0  0  0  0
   26.8550  -22.8953  -15.0138 O   0  0  0  0  0  0  0  0  0  0  0  0
   25.3210  -20.2835  -14.5298 C   0  0  0  0  0  0  0  0  0  0  0  0
   25.2579  -19.0565  -14.1694 O   0  0  0  0  0  0  0  0  0  0  0  0
   28.9649  -22.4748  -15.6849 O   0  0  0  0  0  0  0  0  0  0  0  0
   22.3258  -18.9537  -11.0517 C   0  0  0  0  0  0  0  0  0  0  0  0
   22.1822  -19.8864  -12.2435 C   0  0  2  0  0  0  0  0  0  0  0  0
   20.7816  -20.1545  -12.6189 C   0  0  0  0  0  0  0  0  0  0  0  0
   23.0834  -21.0518  -12.1629 C   0  0  0  0  0  0  0  0  0  0  0  0
   24.5555  -20.8378  -12.1763 C   0  0  2  0  0  0  0  0  0  0  0  0
   25.0171  -21.2346  -13.5328 N   0  0  0  0  0  0  0  0  0  0  0  0
   25.3156  -21.6866  -11.2465 C   0  0  0  0  0  0  0  0  0  0  0  0
   25.4073  -21.5124  -10.0046 O   0  0  0  0  0  0  0  0  0  0  0  0
   26.0311  -22.8147  -11.7126 O   0  0  0  0  0  0  0  0  0  0  0  0
  2  1  1  1
  2  3  1  0
  3  4  1  0
  5  4  1  0
  6  7  1  0
  6  5  1  0
  8  2  1  0
  8  9  2  0
 10  8  1  0
 11 10  1  0
 11 12  1  1
 13 12  1  0
 13 17  1  0
 14 13  2  0
 15 11  1  0
 16 15  2  0
 19 18  1  1
 19 21  1  0
 20 19  1  0
 22 21  1  6
 22 23  1  0
 23 15  1  0
 24 22  1  0
 25 24  2  0
 26 24  1  0
M  END
$$$$
