YGQ.pdb
     RDKit          3D

 26 26  0  0  1  0  0  0  0  0999 V2000
   30.1000  -19.1074   -3.4285 O   0  0  0  0  0  0  0  0  0  0  0  0
   29.2983  -19.3231   -4.5446 C   0  0  0  0  0  0  0  0  0  0  0  0
   28.8267  -18.2798   -5.3130 C   0  0  0  0  0  0  0  0  0  0  0  0
   28.0332  -18.5191   -6.4151 C   0  0  0  0  0  0  0  0  0  0  0  0
   27.6730  -19.8149   -6.8023 C   0  0  0  0  0  0  0  0  0  0  0  0
   26.8335  -19.9940   -7.9754 C   0  0  0  0  0  0  0  0  0  0  0  0
   26.9825  -21.2587   -8.7475 C   0  0  2  0  0  0  0  0  0  0  0  0
   28.3861  -21.2360   -9.2154 N   0  0  0  0  0  0  0  0  0  0  0  0
   26.0498  -21.2794   -9.8714 C   0  0  0  0  0  0  0  0  0  0  0  0
   24.8144  -21.4706   -9.6058 O   0  0  0  0  0  0  0  0  0  0  0  0
   28.1552  -20.8414   -6.0204 C   0  0  0  0  0  0  0  0  0  0  0  0
   28.9470  -20.6027   -4.9205 C   0  0  0  0  0  0  0  0  0  0  0  0
   26.3953  -21.1042  -11.2292 N   0  0  0  0  0  0  0  0  0  0  0  0
   25.6084  -21.5588  -12.3235 C   0  0  0  0  0  0  0  0  0  0  0  0
   24.4426  -20.7084  -12.5290 C   0  0  0  0  0  0  0  0  0  0  0  0
   24.4217  -19.5341  -12.0289 O   0  0  0  0  0  0  0  0  0  0  0  0
   20.5785  -21.3674  -17.1252 N   0  0  0  0  0  0  0  0  0  0  0  0
   19.8804  -20.3046  -16.4914 C   0  0  0  0  0  0  0  0  0  0  0  0
   18.8486  -19.8550  -17.0224 O   0  0  0  0  0  0  0  0  0  0  0  0
   20.3914  -19.7444  -15.2033 C   0  0  0  0  0  0  0  0  0  0  0  0
   21.6036  -20.5278  -14.8092 C   0  0  0  0  0  0  0  0  0  0  0  0
   22.2216  -20.1253  -13.5059 C   0  0  2  0  0  0  0  0  0  0  0  0
   23.3064  -21.0976  -13.2543 N   0  0  0  0  0  0  0  0  0  0  0  0
   21.2307  -20.2538  -12.4211 C   0  0  0  0  0  0  0  0  0  0  0  0
   20.3947  -19.1903  -12.1363 O   0  0  0  0  0  0  0  0  0  0  0  0
   21.1185  -21.3005  -11.7429 O   0  0  0  0  0  0  0  0  0  0  0  0
  2  1  1  0
  3  2  2  0
  4  3  1  0
  5  4  2  0
  5 11  1  0
  6  5  1  0
  7  6  1  0
  7  8  1  6
  9  7  1  0
  9 10  2  0
 11 12  2  0
 12  2  1  0
 13  9  1  0
 14 13  1  0
 15 14  1  0
 16 15  2  0
 17 18  1  0
 18 19  2  0
 18 20  1  0
 20 21  1  0
 22 21  1  6
 22 23  1  0
 22 24  1  0
 23 15  1  0
 24 25  1  0
 26 24  2  0
M  END
$$$$
