YGQ.pdb
     RDKit          3D

 26 26  0  0  1  0  0  0  0  0999 V2000
   21.3553  -16.9307  -18.7130 O   0  0  0  0  0  0  0  0  0  0  0  0
   21.3159  -17.7388  -17.5816 C   0  0  0  0  0  0  0  0  0  0  0  0
   20.9522  -17.2435  -16.3472 C   0  0  0  0  0  0  0  0  0  0  0  0
   20.9207  -18.0648  -15.2399 C   0  0  0  0  0  0  0  0  0  0  0  0
   21.2518  -19.4226  -15.3140 C   0  0  0  0  0  0  0  0  0  0  0  0
   21.1969  -20.2300  -14.1066 C   0  0  0  0  0  0  0  0  0  0  0  0
   22.3878  -20.2213  -13.2124 C   0  0  2  0  0  0  0  0  0  0  0  0
   23.3366  -21.1532  -13.8612 N   0  0  0  0  0  0  0  0  0  0  0  0
   22.0217  -20.6834  -11.8760 C   0  0  0  0  0  0  0  0  0  0  0  0
   22.1823  -21.9251  -11.6195 O   0  0  0  0  0  0  0  0  0  0  0  0
   21.6119  -19.8956  -16.5566 C   0  0  0  0  0  0  0  0  0  0  0  0
   21.6434  -19.0762  -17.6617 C   0  0  0  0  0  0  0  0  0  0  0  0
   21.5062  -19.8748  -10.8396 N   0  0  0  0  0  0  0  0  0  0  0  0
   21.1587  -20.3522   -9.5455 C   0  0  0  0  0  0  0  0  0  0  0  0
   20.2573  -21.4948   -9.6253 C   0  0  0  0  0  0  0  0  0  0  0  0
   19.9827  -22.0042  -10.7631 O   0  0  0  0  0  0  0  0  0  0  0  0
   16.6999  -26.3171   -5.3569 N   0  0  0  0  0  0  0  0  0  0  0  0
   17.8404  -25.6723   -5.9062 C   0  0  0  0  0  0  0  0  0  0  0  0
   18.8717  -25.5730   -5.2166 O   0  0  0  0  0  0  0  0  0  0  0  0
   17.7869  -25.1252   -7.2961 C   0  0  0  0  0  0  0  0  0  0  0  0
   18.6719  -23.9202   -7.3510 C   0  0  0  0  0  0  0  0  0  0  0  0
   18.7608  -23.2604   -8.6924 C   0  0  2  0  0  0  0  0  0  0  0  0
   19.6481  -22.0919   -8.5113 N   0  0  0  0  0  0  0  0  0  0  0  0
   17.4309  -22.7673   -9.0969 C   0  0  0  0  0  0  0  0  0  0  0  0
   16.5275  -23.6436   -9.6687 O   0  0  0  0  0  0  0  0  0  0  0  0
   17.0879  -21.5733   -8.9396 O   0  0  0  0  0  0  0  0  0  0  0  0
  2  1  1  0
  3  2  2  0
  4  3  1  0
  5  4  2  0
  5 11  1  0
  6  5  1  0
  7  6  1  0
  7  8  1  6
  9  7  1  0
  9 10  2  0
 11 12  2  0
 12  2  1  0
 13  9  1  0
 14 13  1  0
 15 14  1  0
 16 15  2  0
 17 18  1  0
 18 19  2  0
 18 20  1  0
 20 21  1  0
 22 21  1  1
 22 23  1  0
 22 24  1  0
 23 15  1  0
 24 25  1  0
 26 24  2  0
M  END
$$$$
