YGQ.pdb
     RDKit          3D

 26 26  0  0  1  0  0  0  0  0999 V2000
   16.8191  -13.1348  -15.8493 O   0  0  0  0  0  0  0  0  0  0  0  0
   17.9893  -12.7288  -16.4822 C   0  0  0  0  0  0  0  0  0  0  0  0
   18.2612  -11.3986  -16.7231 C   0  0  0  0  0  0  0  0  0  0  0  0
   19.4286  -11.0208  -17.3524 C   0  0  0  0  0  0  0  0  0  0  0  0
   20.3813  -11.9564  -17.7716 C   0  0  0  0  0  0  0  0  0  0  0  0
   21.5900  -11.4877  -18.4291 C   0  0  0  0  0  0  0  0  0  0  0  0
   22.7809  -11.2148  -17.5774 C   0  0  2  0  0  0  0  0  0  0  0  0
   22.7884  -12.3230  -16.5969 N   0  0  0  0  0  0  0  0  0  0  0  0
   22.6435   -9.9210  -16.9135 C   0  0  0  0  0  0  0  0  0  0  0  0
   22.7507   -8.8744  -17.6390 O   0  0  0  0  0  0  0  0  0  0  0  0
   20.0890  -13.2790  -17.5207 C   0  0  0  0  0  0  0  0  0  0  0  0
   18.9241  -13.6561  -16.8927 C   0  0  0  0  0  0  0  0  0  0  0  0
   22.4002   -9.7259  -15.5364 N   0  0  0  0  0  0  0  0  0  0  0  0
   22.3292   -8.4529  -14.9057 C   0  0  0  0  0  0  0  0  0  0  0  0
   20.9557   -7.9695  -14.8380 C   0  0  0  0  0  0  0  0  0  0  0  0
   20.1083   -8.3509  -15.7130 O   0  0  0  0  0  0  0  0  0  0  0  0
   17.7506   -7.1105   -9.9711 N   0  0  0  0  0  0  0  0  0  0  0  0
   16.8462   -6.4198  -10.8218 C   0  0  0  0  0  0  0  0  0  0  0  0
   15.7707   -6.0040  -10.3535 O   0  0  0  0  0  0  0  0  0  0  0  0
   17.1964   -6.2033  -12.2586 C   0  0  0  0  0  0  0  0  0  0  0  0
   18.5822   -6.7225  -12.4780 C   0  0  0  0  0  0  0  0  0  0  0  0
   19.0778   -6.6286  -13.8881 C   0  0  2  0  0  0  0  0  0  0  0  0
   20.4830   -7.0868  -13.8552 N   0  0  0  0  0  0  0  0  0  0  0  0
   19.0652   -5.2216  -14.3304 C   0  0  0  0  0  0  0  0  0  0  0  0
   20.2585   -4.5307  -14.4292 O   0  0  0  0  0  0  0  0  0  0  0  0
   18.0034   -4.6254  -14.6221 O   0  0  0  0  0  0  0  0  0  0  0  0
  2  1  1  0
  3  2  2  0
  4  3  1  0
  5  4  2  0
  5 11  1  0
  6  5  1  0
  7  6  1  0
  7  8  1  1
  9  7  1  0
  9 10  2  0
 11 12  2  0
 12  2  1  0
 13  9  1  0
 14 13  1  0
 15 14  1  0
 16 15  2  0
 17 18  1  0
 18 19  2  0
 18 20  1  0
 20 21  1  0
 22 21  1  1
 22 23  1  0
 22 24  1  0
 23 15  1  0
 24 25  1  0
 26 24  2  0
M  END
$$$$
