YGQ.pdb
     RDKit          3D

 26 26  0  0  1  0  0  0  0  0999 V2000
   16.2506  -20.7099  -17.1162 O   0  0  0  0  0  0  0  0  0  0  0  0
   17.4886  -20.1026  -16.9342 C   0  0  0  0  0  0  0  0  0  0  0  0
   17.6656  -19.0672  -16.0409 C   0  0  0  0  0  0  0  0  0  0  0  0
   18.9032  -18.4810  -15.8782 C   0  0  0  0  0  0  0  0  0  0  0  0
   20.0245  -18.9028  -16.6018 C   0  0  0  0  0  0  0  0  0  0  0  0
   21.2988  -18.2397  -16.3798 C   0  0  0  0  0  0  0  0  0  0  0  0
   22.4384  -19.0709  -15.9017 C   0  0  2  0  0  0  0  0  0  0  0  0
   22.0171  -19.5278  -14.5589 N   0  0  0  0  0  0  0  0  0  0  0  0
   23.6565  -18.2679  -15.8301 C   0  0  0  0  0  0  0  0  0  0  0  0
   24.1281  -17.8170  -16.9290 O   0  0  0  0  0  0  0  0  0  0  0  0
   19.8244  -19.9381  -17.4881 C   0  0  0  0  0  0  0  0  0  0  0  0
   18.5895  -20.5231  -17.6506 C   0  0  0  0  0  0  0  0  0  0  0  0
   24.3589  -17.9443  -14.6488 N   0  0  0  0  0  0  0  0  0  0  0  0
   25.5821  -17.2190  -14.6147 C   0  0  0  0  0  0  0  0  0  0  0  0
   26.7163  -18.1015  -14.3711 C   0  0  0  0  0  0  0  0  0  0  0  0
   27.9022  -17.6309  -14.4095 O   0  0  0  0  0  0  0  0  0  0  0  0
   25.1279  -21.4349  -11.6192 N   0  0  0  0  0  0  0  0  0  0  0  0
   25.9686  -20.5321  -10.9146 C   0  0  0  0  0  0  0  0  0  0  0  0
   25.5334  -19.9697   -9.8932 O   0  0  0  0  0  0  0  0  0  0  0  0
   27.3558  -20.2715  -11.4063 C   0  0  0  0  0  0  0  0  0  0  0  0
   27.5662  -21.0855  -12.6438 C   0  0  0  0  0  0  0  0  0  0  0  0
   27.8109  -20.2918  -13.8899 C   0  0  2  0  0  0  0  0  0  0  0  0
   26.5978  -19.4716  -14.0928 N   0  0  0  0  0  0  0  0  0  0  0  0
   27.9474  -21.2006  -15.0436 C   0  0  0  0  0  0  0  0  0  0  0  0
   29.1205  -21.9125  -15.2114 O   0  0  0  0  0  0  0  0  0  0  0  0
   27.0311  -21.3517  -15.8837 O   0  0  0  0  0  0  0  0  0  0  0  0
  2  1  1  0
  3  2  2  0
  4  3  1  0
  5  4  2  0
  5 11  1  0
  6  5  1  0
  7  6  1  0
  7  8  1  1
  9  7  1  0
  9 10  2  0
 11 12  2  0
 12  2  1  0
 13  9  1  0
 14 13  1  0
 15 14  1  0
 16 15  2  0
 17 18  1  0
 18 19  2  0
 18 20  1  0
 20 21  1  0
 22 21  1  1
 22 23  1  0
 22 24  1  0
 23 15  1  0
 24 25  1  0
 26 24  2  0
M  END
$$$$
