YGQ.pdb
     RDKit          3D

 26 26  0  0  1  0  0  0  0  0999 V2000
   26.6352  -20.7595   -7.2462 O   0  0  0  0  0  0  0  0  0  0  0  0
   26.5757  -20.5777   -8.6239 C   0  0  0  0  0  0  0  0  0  0  0  0
   27.7046  -20.6341   -9.4138 C   0  0  0  0  0  0  0  0  0  0  0  0
   27.6199  -20.4505  -10.7778 C   0  0  0  0  0  0  0  0  0  0  0  0
   26.4007  -20.2013  -11.4183 C   0  0  0  0  0  0  0  0  0  0  0  0
   26.3848  -20.0174  -12.8601 C   0  0  0  0  0  0  0  0  0  0  0  0
   25.3853  -20.7924  -13.6466 C   0  0  2  0  0  0  0  0  0  0  0  0
   25.8801  -22.1858  -13.5910 N   0  0  0  0  0  0  0  0  0  0  0  0
   25.3329  -20.3033  -15.0219 C   0  0  0  0  0  0  0  0  0  0  0  0
   25.6780  -19.0899  -15.2273 O   0  0  0  0  0  0  0  0  0  0  0  0
   25.2865  -20.1492  -10.6100 C   0  0  0  0  0  0  0  0  0  0  0  0
   25.3708  -20.3324   -9.2487 C   0  0  0  0  0  0  0  0  0  0  0  0
   24.9349  -21.0572  -16.1474 N   0  0  0  0  0  0  0  0  0  0  0  0
   23.9423  -22.0758  -16.1219 C   0  0  0  0  0  0  0  0  0  0  0  0
   22.6256  -21.5270  -15.8221 C   0  0  0  0  0  0  0  0  0  0  0  0
   22.1098  -20.6601  -16.6044 O   0  0  0  0  0  0  0  0  0  0  0  0
   19.8115  -22.8868   -9.8260 N   0  0  0  0  0  0  0  0  0  0  0  0
   19.8639  -23.0360  -11.2379 C   0  0  0  0  0  0  0  0  0  0  0  0
   19.7518  -24.1727  -11.7321 O   0  0  0  0  0  0  0  0  0  0  0  0
   20.0517  -21.8334  -12.1053 C   0  0  0  0  0  0  0  0  0  0  0  0
   19.8308  -22.2506  -13.5249 C   0  0  0  0  0  0  0  0  0  0  0  0
   20.4836  -21.3765  -14.5508 C   0  0  2  0  0  0  0  0  0  0  0  0
   21.8620  -21.8890  -14.7021 N   0  0  0  0  0  0  0  0  0  0  0  0
   20.5624  -19.9911  -14.0510 C   0  0  0  0  0  0  0  0  0  0  0  0
   19.4176  -19.2171  -14.0139 O   0  0  0  0  0  0  0  0  0  0  0  0
   21.6382  -19.4865  -13.6557 O   0  0  0  0  0  0  0  0  0  0  0  0
  2  1  1  0
  3  2  2  0
  4  3  1  0
  5  4  2  0
  5 11  1  0
  6  5  1  0
  7  6  1  0
  7  8  1  6
  9  7  1  0
  9 10  2  0
 11 12  2  0
 12  2  1  0
 13  9  1  0
 14 13  1  0
 15 14  1  0
 16 15  2  0
 17 18  1  0
 18 19  2  0
 18 20  1  0
 20 21  1  0
 22 21  1  1
 22 23  1  0
 22 24  1  0
 23 15  1  0
 24 25  1  0
 26 24  2  0
M  END
$$$$
