YGQ.pdb
     RDKit          3D

 26 26  0  0  1  0  0  0  0  0999 V2000
   28.2614  -21.3924  -17.2143 O   0  0  0  0  0  0  0  0  0  0  0  0
   27.1719  -21.1629  -16.3806 C   0  0  0  0  0  0  0  0  0  0  0  0
   26.5662  -22.1837  -15.6788 C   0  0  0  0  0  0  0  0  0  0  0  0
   25.4872  -21.9309  -14.8582 C   0  0  0  0  0  0  0  0  0  0  0  0
   24.9614  -20.6436  -14.6999 C   0  0  0  0  0  0  0  0  0  0  0  0
   23.8220  -20.4494  -13.8184 C   0  0  0  0  0  0  0  0  0  0  0  0
   22.5353  -21.0973  -14.1960 C   0  0  2  0  0  0  0  0  0  0  0  0
   22.1607  -20.4463  -15.4708 N   0  0  0  0  0  0  0  0  0  0  0  0
   21.5277  -20.8624  -13.1650 C   0  0  0  0  0  0  0  0  0  0  0  0
   20.7889  -19.8271  -13.2910 O   0  0  0  0  0  0  0  0  0  0  0  0
   25.5819  -19.6396  -15.4101 C   0  0  0  0  0  0  0  0  0  0  0  0
   26.6588  -19.8917  -16.2290 C   0  0  0  0  0  0  0  0  0  0  0  0
   21.2971  -21.6829  -12.0393 N   0  0  0  0  0  0  0  0  0  0  0  0
   20.2695  -21.4617  -11.0809 C   0  0  0  0  0  0  0  0  0  0  0  0
   19.6083  -22.7078  -10.7140 C   0  0  0  0  0  0  0  0  0  0  0  0
   19.4263  -23.6102  -11.5983 O   0  0  0  0  0  0  0  0  0  0  0  0
   17.5222  -26.8152   -4.9035 N   0  0  0  0  0  0  0  0  0  0  0  0
   17.9978  -25.7046   -5.6511 C   0  0  0  0  0  0  0  0  0  0  0  0
   18.4977  -24.7373   -5.0485 O   0  0  0  0  0  0  0  0  0  0  0  0
   17.8920  -25.7129   -7.1420 C   0  0  0  0  0  0  0  0  0  0  0  0
   18.4864  -24.4385   -7.6528 C   0  0  0  0  0  0  0  0  0  0  0  0
   18.4985  -24.2983   -9.1438 C   0  0  2  0  0  0  0  0  0  0  0  0
   19.1399  -22.9960   -9.4232 N   0  0  0  0  0  0  0  0  0  0  0  0
   17.1152  -24.2461   -9.6529 C   0  0  0  0  0  0  0  0  0  0  0  0
   16.5161  -23.0185   -9.8649 O   0  0  0  0  0  0  0  0  0  0  0  0
   16.4584  -25.2828   -9.9021 O   0  0  0  0  0  0  0  0  0  0  0  0
  2  1  1  0
  3  2  2  0
  4  3  1  0
  5  4  2  0
  5 11  1  0
  6  5  1  0
  7  6  1  0
  7  8  1  6
  9  7  1  0
  9 10  2  0
 11 12  2  0
 12  2  1  0
 13  9  1  0
 14 13  1  0
 15 14  1  0
 16 15  2  0
 17 18  1  0
 18 19  2  0
 18 20  1  0
 20 21  1  0
 22 21  1  1
 22 23  1  0
 22 24  1  0
 23 15  1  0
 24 25  1  0
 26 24  2  0
M  END
$$$$
