YGQ.pdb
     RDKit          3D

 26 26  0  0  1  0  0  0  0  0999 V2000
   29.2077  -19.7913   -4.1714 O   0  0  0  0  0  0  0  0  0  0  0  0
   28.8902  -19.9177   -5.5197 C   0  0  0  0  0  0  0  0  0  0  0  0
   29.8651  -20.0284   -6.4886 C   0  0  0  0  0  0  0  0  0  0  0  0
   29.5252  -20.1526   -7.8192 C   0  0  0  0  0  0  0  0  0  0  0  0
   28.1922  -20.1722   -8.2454 C   0  0  0  0  0  0  0  0  0  0  0  0
   27.9061  -20.3059   -9.6642 C   0  0  0  0  0  0  0  0  0  0  0  0
   26.7194  -21.1147  -10.0586 C   0  0  2  0  0  0  0  0  0  0  0  0
   27.2850  -22.4267  -10.4437 N   0  0  0  0  0  0  0  0  0  0  0  0
   26.0278  -20.4859  -11.1811 C   0  0  0  0  0  0  0  0  0  0  0  0
   26.4723  -19.3589  -11.5879 O   0  0  0  0  0  0  0  0  0  0  0  0
   27.2353  -20.0602   -7.2608 C   0  0  0  0  0  0  0  0  0  0  0  0
   27.5744  -19.9362   -5.9329 C   0  0  0  0  0  0  0  0  0  0  0  0
   24.9089  -21.0176  -11.8587 N   0  0  0  0  0  0  0  0  0  0  0  0
   24.2720  -20.3962  -12.9685 C   0  0  0  0  0  0  0  0  0  0  0  0
   22.8223  -20.3956  -12.8169 C   0  0  0  0  0  0  0  0  0  0  0  0
   22.2958  -20.9198  -11.7790 O   0  0  0  0  0  0  0  0  0  0  0  0
   19.4123  -16.2993  -12.8658 N   0  0  0  0  0  0  0  0  0  0  0  0
   18.2927  -17.1000  -13.2172 C   0  0  0  0  0  0  0  0  0  0  0  0
   17.1553  -16.7424  -12.8602 O   0  0  0  0  0  0  0  0  0  0  0  0
   18.4944  -18.3535  -14.0060 C   0  0  0  0  0  0  0  0  0  0  0  0
   19.9670  -18.5779  -14.1451 C   0  0  0  0  0  0  0  0  0  0  0  0
   20.4863  -19.8100  -13.4706 C   0  0  2  0  0  0  0  0  0  0  0  0
   21.9362  -19.8484  -13.7570 N   0  0  0  0  0  0  0  0  0  0  0  0
   19.8690  -21.0074  -14.0710 C   0  0  0  0  0  0  0  0  0  0  0  0
   18.7319  -21.5446  -13.4971 O   0  0  0  0  0  0  0  0  0  0  0  0
   20.3421  -21.5596  -15.0905 O   0  0  0  0  0  0  0  0  0  0  0  0
  2  1  1  0
  3  2  2  0
  4  3  1  0
  5  4  2  0
  5 11  1  0
  6  5  1  0
  7  6  1  0
  7  8  1  6
  9  7  1  0
  9 10  2  0
 11 12  2  0
 12  2  1  0
 13  9  1  0
 14 13  1  0
 15 14  1  0
 16 15  2  0
 17 18  1  0
 18 19  2  0
 18 20  1  0
 20 21  1  0
 22 21  1  6
 22 23  1  0
 22 24  1  0
 23 15  1  0
 24 25  1  0
 26 24  2  0
M  END
$$$$
