YGQ.pdb
     RDKit          3D

 26 26  0  0  1  0  0  0  0  0999 V2000
   29.4554  -18.4518   -3.2311 O   0  0  0  0  0  0  0  0  0  0  0  0
   28.9720  -18.9659   -4.4298 C   0  0  0  0  0  0  0  0  0  0  0  0
   29.3775  -20.1932   -4.9102 C   0  0  0  0  0  0  0  0  0  0  0  0
   28.8838  -20.6815   -6.1015 C   0  0  0  0  0  0  0  0  0  0  0  0
   27.9598  -19.9651   -6.8707 C   0  0  0  0  0  0  0  0  0  0  0  0
   27.4812  -20.5402   -8.1169 C   0  0  0  0  0  0  0  0  0  0  0  0
   26.1100  -20.1736   -8.5678 C   0  0  2  0  0  0  0  0  0  0  0  0
   25.2220  -20.7369   -7.5268 N   0  0  0  0  0  0  0  0  0  0  0  0
   25.8323  -20.7614   -9.8758 C   0  0  0  0  0  0  0  0  0  0  0  0
   25.2316  -21.8893   -9.8971 O   0  0  0  0  0  0  0  0  0  0  0  0
   27.5689  -18.7420   -6.3718 C   0  0  0  0  0  0  0  0  0  0  0  0
   28.0615  -18.2546   -5.1829 C   0  0  0  0  0  0  0  0  0  0  0  0
   26.1691  -20.1894  -11.1219 N   0  0  0  0  0  0  0  0  0  0  0  0
   25.7919  -20.7302  -12.3824 C   0  0  0  0  0  0  0  0  0  0  0  0
   24.4979  -20.2170  -12.8148 C   0  0  0  0  0  0  0  0  0  0  0  0
   23.8162  -19.4791  -12.0273 O   0  0  0  0  0  0  0  0  0  0  0  0
   20.8130  -18.6217  -18.9260 N   0  0  0  0  0  0  0  0  0  0  0  0
   21.8757  -18.6598  -17.9838 C   0  0  0  0  0  0  0  0  0  0  0  0
   23.0438  -18.4945  -18.3802 O   0  0  0  0  0  0  0  0  0  0  0  0
   21.5784  -18.8965  -16.5383 C   0  0  0  0  0  0  0  0  0  0  0  0
   22.7742  -19.5529  -15.9238 C   0  0  0  0  0  0  0  0  0  0  0  0
   22.6589  -19.8333  -14.4572 C   0  0  2  0  0  0  0  0  0  0  0  0
   23.9276  -20.4850  -14.0683 N   0  0  0  0  0  0  0  0  0  0  0  0
   21.5607  -20.7875  -14.2147 C   0  0  0  0  0  0  0  0  0  0  0  0
   20.2845  -20.3088  -13.9845 O   0  0  0  0  0  0  0  0  0  0  0  0
   21.7445  -22.0262  -14.2099 O   0  0  0  0  0  0  0  0  0  0  0  0
  2  1  1  0
  3  2  2  0
  4  3  1  0
  5  4  2  0
  5 11  1  0
  6  5  1  0
  7  6  1  0
  7  8  1  1
  9  7  1  0
  9 10  2  0
 11 12  2  0
 12  2  1  0
 13  9  1  0
 14 13  1  0
 15 14  1  0
 16 15  2  0
 17 18  1  0
 18 19  2  0
 18 20  1  0
 20 21  1  0
 22 21  1  6
 22 23  1  0
 22 24  1  0
 23 15  1  0
 24 25  1  0
 26 24  2  0
M  END
$$$$
