YGQ.pdb
     RDKit          3D

 26 26  0  0  1  0  0  0  0  0999 V2000
   16.0442  -21.0502    2.2910 O   0  0  0  0  0  0  0  0  0  0  0  0
   16.2755  -19.7036    2.5514 C   0  0  0  0  0  0  0  0  0  0  0  0
   15.4477  -18.7160    2.0606 C   0  0  0  0  0  0  0  0  0  0  0  0
   15.6978  -17.3875    2.3326 C   0  0  0  0  0  0  0  0  0  0  0  0
   16.7893  -16.9823    3.1094 C   0  0  0  0  0  0  0  0  0  0  0  0
   16.9930  -15.5644    3.3564 C   0  0  0  0  0  0  0  0  0  0  0  0
   16.1154  -14.9030    4.3616 C   0  0  2  0  0  0  0  0  0  0  0  0
   14.7943  -14.8301    3.6990 N   0  0  0  0  0  0  0  0  0  0  0  0
   16.6230  -13.5707    4.6792 C   0  0  0  0  0  0  0  0  0  0  0  0
   16.0351  -12.5737    4.1371 O   0  0  0  0  0  0  0  0  0  0  0  0
   17.6025  -17.9854    3.5890 C   0  0  0  0  0  0  0  0  0  0  0  0
   17.3529  -19.3112    3.3177 C   0  0  0  0  0  0  0  0  0  0  0  0
   17.7084  -13.2879    5.5368 N   0  0  0  0  0  0  0  0  0  0  0  0
   18.1701  -11.9777    5.8429 C   0  0  0  0  0  0  0  0  0  0  0  0
   19.3285  -12.0158    6.7268 C   0  0  0  0  0  0  0  0  0  0  0  0
   19.6929  -13.1251    7.2426 O   0  0  0  0  0  0  0  0  0  0  0  0
   23.8562   -8.0574    6.5143 N   0  0  0  0  0  0  0  0  0  0  0  0
   24.3642   -8.8086    7.6079 C   0  0  0  0  0  0  0  0  0  0  0  0
   25.4962   -8.5435    8.0519 O   0  0  0  0  0  0  0  0  0  0  0  0
   23.5374   -9.9003    8.2069 C   0  0  0  0  0  0  0  0  0  0  0  0
   22.2282   -9.9358    7.4837 C   0  0  0  0  0  0  0  0  0  0  0  0
   21.3075  -11.0431    7.8948 C   0  0  2  0  0  0  0  0  0  0  0  0
   20.0932  -10.8894    7.0658 N   0  0  0  0  0  0  0  0  0  0  0  0
   20.9214  -10.8744    9.3083 C   0  0  0  0  0  0  0  0  0  0  0  0
   19.7262  -10.2514    9.6154 O   0  0  0  0  0  0  0  0  0  0  0  0
   21.6436  -11.2787   10.2480 O   0  0  0  0  0  0  0  0  0  0  0  0
  2  1  1  0
  3  2  2  0
  4  3  1  0
  5  4  2  0
  5 11  1  0
  6  5  1  0
  7  6  1  0
  7  8  1  6
  9  7  1  0
  9 10  2  0
 11 12  2  0
 12  2  1  0
 13  9  1  0
 14 13  1  0
 15 14  1  0
 16 15  2  0
 17 18  1  0
 18 19  2  0
 18 20  1  0
 20 21  1  0
 22 21  1  6
 22 23  1  0
 22 24  1  0
 23 15  1  0
 24 25  1  0
 26 24  2  0
M  END
$$$$
