QYW.pdb
     RDKit          3D

 36 38  0  0  1  0  0  0  0  0999 V2000
    7.3337  -24.5988   20.4819 N   0  0  0  0  0  0  0  0  0  0  0  0
    8.5945  -24.8520   21.1241 C   0  0  0  0  0  0  0  0  0  0  0  0
    9.0683  -26.0124   21.1224 O   0  0  0  0  0  0  0  0  0  0  0  0
    9.2847  -23.7435   21.7549 C   0  0  0  0  0  0  0  0  0  0  0  0
    8.6161  -22.4392   21.5709 C   0  0  0  0  0  0  0  0  0  0  0  0
    9.2755  -21.2330   22.1368 C   0  0  2  0  0  0  0  0  0  0  0  0
   10.3809  -21.4863   23.0137 N   0  0  0  0  0  0  0  0  0  0  0  0
    8.2902  -20.3731   22.8451 C   0  0  0  0  0  0  0  0  0  0  0  0
    7.2678  -19.9983   22.2019 O   0  0  0  0  0  0  0  0  0  0  0  0
    6.1333  -25.0573   27.1828 O   0  0  0  0  0  0  0  0  0  0  0  0
    6.4282  -23.7018   26.9479 C   0  0  0  0  0  0  0  0  0  0  0  0
    7.6982  -23.2118   27.1572 C   0  0  0  0  0  0  0  0  0  0  0  0
    7.9937  -21.8844   26.9292 C   0  0  0  0  0  0  0  0  0  0  0  0
    7.0252  -20.9900   26.4804 C   0  0  0  0  0  0  0  0  0  0  0  0
    7.3300  -19.5760   26.2920 C   0  0  0  0  0  0  0  0  0  0  0  0
    7.3752  -19.1643   24.8685 C   0  0  2  0  0  0  0  0  0  0  0  0
    8.4199  -19.9565   24.1654 N   0  0  0  0  0  0  0  0  0  0  0  0
    7.7590  -17.7719   24.6831 C   0  0  0  0  0  0  0  0  0  0  0  0
    6.9037  -16.8607   24.9588 O   0  0  0  0  0  0  0  0  0  0  0  0
    5.7615  -21.4861   26.2739 C   0  0  0  0  0  0  0  0  0  0  0  0
    5.4589  -22.8325   26.5046 C   0  0  0  0  0  0  0  0  0  0  0  0
    9.0071  -17.2746   24.2269 N   0  0  0  0  0  0  0  0  0  0  0  0
    9.3325  -15.8619   24.2384 C   0  0  1  0  0  0  0  0  0  0  0  0
    9.1709  -15.3499   25.6647 C   0  0  0  0  0  0  0  0  0  0  0  0
    7.8149  -14.8346   25.8934 C   0  0  0  0  0  0  0  0  0  0  0  0
    6.6392  -15.5490   25.9404 C   0  0  0  0  0  0  0  0  0  0  0  0
    5.6149  -14.6905   26.1745 N   0  0  0  0  0  0  0  0  0  0  0  0
    6.0832  -13.4324   26.2827 C   0  0  0  0  0  0  0  0  0  0  0  0
    5.4345  -12.2299   26.5168 C   0  0  0  0  0  0  0  0  0  0  0  0
    6.1995  -11.0863   26.5747 C   0  0  0  0  0  0  0  0  0  0  0  0
    7.5620  -11.1490   26.4042 C   0  0  0  0  0  0  0  0  0  0  0  0
    8.1867  -12.3652   26.1713 C   0  0  0  0  0  0  0  0  0  0  0  0
    7.4500  -13.5134   26.1093 C   0  0  0  0  0  0  0  0  0  0  0  0
   10.6294  -15.5230   23.6697 C   0  0  0  0  0  0  0  0  0  0  0  0
   11.1178  -14.3707   23.6148 O   0  0  0  0  0  0  0  0  0  0  0  0
   11.4570  -16.5244   23.1176 O   0  0  0  0  0  0  0  0  0  0  0  0
  2  1  1  0
  3  2  2  0
  4  2  1  0
  5  6  1  0
  5  4  1  0
  6  7  1  1
  8  9  2  0
  8  6  1  0
 10 11  1  0
 11 12  2  0
 12 13  1  0
 14 13  2  0
 14 15  1  0
 16 15  1  1
 16 17  1  0
 17  8  1  0
 18 19  2  0
 18 16  1  0
 20 14  1  0
 21 11  1  0
 21 20  2  0
 22 18  1  0
 23 24  1  1
 23 22  1  0
 25 24  1  0
 25 33  1  0
 26 27  1  0
 26 25  2  0
 27 28  1  0
 28 29  2  0
 28 33  1  0
 29 30  1  0
 30 31  2  0
 32 31  1  0
 33 32  2  0
 34 23  1  0
 35 34  2  0
 36 34  1  0
M  END
$$$$
