QYW.pdb
     RDKit          3D

 36 38  0  0  1  0  0  0  0  0999 V2000
    9.3173  -15.9843   15.2797 N   0  0  0  0  0  0  0  0  0  0  0  0
    9.0826  -17.3936   15.4377 C   0  0  0  0  0  0  0  0  0  0  0  0
    8.6857  -18.0689   14.4592 O   0  0  0  0  0  0  0  0  0  0  0  0
    9.3195  -17.9931   16.7368 C   0  0  0  0  0  0  0  0  0  0  0  0
    9.7497  -17.0302   17.7711 C   0  0  0  0  0  0  0  0  0  0  0  0
    9.9133  -17.5292   19.1618 C   0  0  2  0  0  0  0  0  0  0  0  0
    9.5533  -18.9007   19.3733 N   0  0  0  0  0  0  0  0  0  0  0  0
    9.1560  -16.6824   20.1217 C   0  0  0  0  0  0  0  0  0  0  0  0
    9.3443  -15.4325   20.0782 O   0  0  0  0  0  0  0  0  0  0  0  0
    7.1632  -20.7031   26.5531 O   0  0  0  0  0  0  0  0  0  0  0  0
    6.9136  -19.7891   25.5130 C   0  0  0  0  0  0  0  0  0  0  0  0
    7.1816  -20.1229   24.2039 C   0  0  0  0  0  0  0  0  0  0  0  0
    6.9394  -19.2316   23.1800 C   0  0  0  0  0  0  0  0  0  0  0  0
    6.4170  -17.9645   23.4266 C   0  0  0  0  0  0  0  0  0  0  0  0
    6.2129  -17.0065   22.3457 C   0  0  0  0  0  0  0  0  0  0  0  0
    7.4491  -16.2925   21.9457 C   0  0  2  0  0  0  0  0  0  0  0  0
    8.2563  -17.1747   21.0607 N   0  0  0  0  0  0  0  0  0  0  0  0
    8.3199  -15.9741   23.0686 C   0  0  0  0  0  0  0  0  0  0  0  0
    7.8829  -15.1838   23.9754 O   0  0  0  0  0  0  0  0  0  0  0  0
    6.1523  -17.6393   24.7342 C   0  0  0  0  0  0  0  0  0  0  0  0
    6.3971  -18.5416   25.7751 C   0  0  0  0  0  0  0  0  0  0  0  0
    9.6362  -16.4498   23.3012 N   0  0  0  0  0  0  0  0  0  0  0  0
   10.4470  -15.9840   24.4092 C   0  0  1  0  0  0  0  0  0  0  0  0
   10.0927  -14.5260   24.6757 C   0  0  0  0  0  0  0  0  0  0  0  0
    8.9143  -14.4163   25.5452 C   0  0  0  0  0  0  0  0  0  0  0  0
    8.4416  -15.3453   26.4443 C   0  0  0  0  0  0  0  0  0  0  0  0
    7.3297  -14.8485   27.0425 N   0  0  0  0  0  0  0  0  0  0  0  0
    7.0577  -13.6199   26.5626 C   0  0  0  0  0  0  0  0  0  0  0  0
    6.0420  -12.7243   26.8590 C   0  0  0  0  0  0  0  0  0  0  0  0
    6.0285  -11.5212   26.1891 C   0  0  0  0  0  0  0  0  0  0  0  0
    6.9974  -11.2300   25.2585 C   0  0  0  0  0  0  0  0  0  0  0  0
    8.0031  -12.1438   24.9804 C   0  0  0  0  0  0  0  0  0  0  0  0
    8.0381  -13.3438   25.6314 C   0  0  0  0  0  0  0  0  0  0  0  0
   10.3764  -16.8020   25.6117 C   0  0  0  0  0  0  0  0  0  0  0  0
   10.3958  -16.3668   26.7863 O   0  0  0  0  0  0  0  0  0  0  0  0
   10.2765  -18.2072   25.5215 O   0  0  0  0  0  0  0  0  0  0  0  0
  2  1  1  0
  3  2  2  0
  4  2  1  0
  5  6  1  0
  5  4  1  0
  6  7  1  6
  8  9  2  0
  8  6  1  0
 10 11  1  0
 11 12  2  0
 12 13  1  0
 14 13  2  0
 14 15  1  0
 16 15  1  1
 16 17  1  0
 17  8  1  0
 18 19  2  0
 18 16  1  0
 20 14  1  0
 21 11  1  0
 21 20  2  0
 22 18  1  0
 23 24  1  1
 23 22  1  0
 25 24  1  0
 25 33  1  0
 26 27  1  0
 26 25  2  0
 27 28  1  0
 28 29  2  0
 28 33  1  0
 29 30  1  0
 30 31  2  0
 32 31  1  0
 33 32  2  0
 34 23  1  0
 35 34  2  0
 36 34  1  0
M  END
$$$$
