QYW.pdb
     RDKit          3D

 36 38  0  0  1  0  0  0  0  0999 V2000
   12.3619  -16.5142   15.8980 N   0  0  0  0  0  0  0  0  0  0  0  0
   11.8102  -17.8409   15.9361 C   0  0  0  0  0  0  0  0  0  0  0  0
   11.7612  -18.5217   14.8849 O   0  0  0  0  0  0  0  0  0  0  0  0
   11.3277  -18.3535   17.2040 C   0  0  0  0  0  0  0  0  0  0  0  0
   11.5347  -17.4323   18.3400 C   0  0  0  0  0  0  0  0  0  0  0  0
   11.2171  -17.9279   19.7050 C   0  0  2  0  0  0  0  0  0  0  0  0
   10.0652  -18.7757   19.8028 N   0  0  0  0  0  0  0  0  0  0  0  0
   11.0602  -16.7961   20.6571 C   0  0  0  0  0  0  0  0  0  0  0  0
   12.0873  -16.1096   20.9282 O   0  0  0  0  0  0  0  0  0  0  0  0
    6.7863  -13.2896   16.7710 O   0  0  0  0  0  0  0  0  0  0  0  0
    7.1883  -13.6445   18.0718 C   0  0  0  0  0  0  0  0  0  0  0  0
    6.8197  -14.8547   18.6162 C   0  0  0  0  0  0  0  0  0  0  0  0
    7.2101  -15.2084   19.8906 C   0  0  0  0  0  0  0  0  0  0  0  0
    7.9887  -14.3609   20.6747 C   0  0  0  0  0  0  0  0  0  0  0  0
    8.3539  -14.7171   22.0412 C   0  0  0  0  0  0  0  0  0  0  0  0
    9.7257  -15.2661   22.1639 C   0  0  2  0  0  0  0  0  0  0  0  0
    9.8606  -16.4446   21.2660 N   0  0  0  0  0  0  0  0  0  0  0  0
   10.0306  -15.7627   23.4984 C   0  0  0  0  0  0  0  0  0  0  0  0
   11.0540  -15.2924   24.1060 O   0  0  0  0  0  0  0  0  0  0  0  0
    8.3523  -13.1563   20.1248 C   0  0  0  0  0  0  0  0  0  0  0  0
    7.9575  -12.7948   18.8321 C   0  0  0  0  0  0  0  0  0  0  0  0
    9.3095  -16.7307   24.2441 N   0  0  0  0  0  0  0  0  0  0  0  0
    9.5838  -16.9978   25.6424 C   0  0  1  0  0  0  0  0  0  0  0  0
    9.4891  -15.6812   26.4038 C   0  0  0  0  0  0  0  0  0  0  0  0
    8.1783  -15.0483   26.2090 C   0  0  0  0  0  0  0  0  0  0  0  0
    7.0186  -15.6352   25.7556 C   0  0  0  0  0  0  0  0  0  0  0  0
    6.0379  -14.6982   25.7236 N   0  0  0  0  0  0  0  0  0  0  0  0
    6.5192  -13.5123   26.1426 C   0  0  0  0  0  0  0  0  0  0  0  0
    5.9112  -12.2745   26.2837 C   0  0  0  0  0  0  0  0  0  0  0  0
    6.6792  -11.2286   26.7449 C   0  0  0  0  0  0  0  0  0  0  0  0
    8.0054  -11.4195   27.0521 C   0  0  0  0  0  0  0  0  0  0  0  0
    8.5897  -12.6684   26.9022 C   0  0  0  0  0  0  0  0  0  0  0  0
    7.8491  -13.7214   26.4464 C   0  0  0  0  0  0  0  0  0  0  0  0
    8.7700  -18.0462   26.2413 C   0  0  0  0  0  0  0  0  0  0  0  0
    7.8466  -18.6655   25.6641 O   0  0  0  0  0  0  0  0  0  0  0  0
    8.9839  -18.4487   27.5772 O   0  0  0  0  0  0  0  0  0  0  0  0
  2  1  1  0
  3  2  2  0
  4  2  1  0
  5  6  1  0
  5  4  1  0
  6  7  1  6
  8  9  2  0
  8  6  1  0
 10 11  1  0
 11 12  2  0
 12 13  1  0
 14 13  2  0
 14 15  1  0
 16 15  1  1
 16 17  1  0
 17  8  1  0
 18 19  2  0
 18 16  1  0
 20 14  1  0
 21 11  1  0
 21 20  2  0
 22 18  1  0
 23 24  1  1
 23 22  1  0
 25 24  1  0
 25 33  1  0
 26 27  1  0
 26 25  2  0
 27 28  1  0
 28 29  2  0
 28 33  1  0
 29 30  1  0
 30 31  2  0
 32 31  1  0
 33 32  2  0
 34 23  1  0
 35 34  2  0
 36 34  1  0
M  END
$$$$
