QYW.pdb
     RDKit          3D

 36 38  0  0  1  0  0  0  0  0999 V2000
    7.8368  -12.3641   18.5281 N   0  0  0  0  0  0  0  0  0  0  0  0
    7.5298  -13.5354   17.7536 C   0  0  0  0  0  0  0  0  0  0  0  0
    7.4798  -13.4558   16.5037 O   0  0  0  0  0  0  0  0  0  0  0  0
    7.2900  -14.7835   18.4520 C   0  0  0  0  0  0  0  0  0  0  0  0
    7.5216  -14.7084   19.9090 C   0  0  0  0  0  0  0  0  0  0  0  0
    8.8026  -15.2451   20.4388 C   0  0  2  0  0  0  0  0  0  0  0  0
    9.6190  -15.9454   19.4911 N   0  0  0  0  0  0  0  0  0  0  0  0
    8.5629  -16.1301   21.6099 C   0  0  0  0  0  0  0  0  0  0  0  0
    7.3980  -16.1512   22.1019 O   0  0  0  0  0  0  0  0  0  0  0  0
    7.8989  -22.3401   18.8995 O   0  0  0  0  0  0  0  0  0  0  0  0
    8.3972  -21.5365   19.9414 C   0  0  0  0  0  0  0  0  0  0  0  0
    9.5704  -20.8319   19.7865 C   0  0  0  0  0  0  0  0  0  0  0  0
   10.0643  -20.0427   20.8038 C   0  0  0  0  0  0  0  0  0  0  0  0
    9.4005  -19.9268   22.0225 C   0  0  0  0  0  0  0  0  0  0  0  0
    9.9548  -19.1334   23.1137 C   0  0  0  0  0  0  0  0  0  0  0  0
    9.2455  -17.8500   23.3327 C   0  0  2  0  0  0  0  0  0  0  0  0
    9.5340  -16.9341   22.1965 N   0  0  0  0  0  0  0  0  0  0  0  0
    9.6934  -17.1396   24.5224 C   0  0  0  0  0  0  0  0  0  0  0  0
   10.7824  -16.4702   24.4602 O   0  0  0  0  0  0  0  0  0  0  0  0
    8.2315  -20.6323   22.1691 C   0  0  0  0  0  0  0  0  0  0  0  0
    7.7281  -21.4338   21.1387 C   0  0  0  0  0  0  0  0  0  0  0  0
    9.0519  -17.0842   25.7866 N   0  0  0  0  0  0  0  0  0  0  0  0
    9.6727  -16.4775   26.9478 C   0  0  1  0  0  0  0  0  0  0  0  0
    8.5972  -15.7233   27.7204 C   0  0  0  0  0  0  0  0  0  0  0  0
    7.7425  -14.9430   26.8164 C   0  0  0  0  0  0  0  0  0  0  0  0
    6.8125  -15.4165   25.9187 C   0  0  0  0  0  0  0  0  0  0  0  0
    6.2432  -14.3623   25.2819 N   0  0  0  0  0  0  0  0  0  0  0  0
    6.7721  -13.2095   25.7348 C   0  0  0  0  0  0  0  0  0  0  0  0
    6.5188  -11.8894   25.3960 C   0  0  0  0  0  0  0  0  0  0  0  0
    7.2345  -10.9090   26.0465 C   0  0  0  0  0  0  0  0  0  0  0  0
    8.1672  -11.2423   26.9996 C   0  0  0  0  0  0  0  0  0  0  0  0
    8.4017  -12.5713   27.3202 C   0  0  0  0  0  0  0  0  0  0  0  0
    7.7049  -13.5618   26.6890 C   0  0  0  0  0  0  0  0  0  0  0  0
   10.4261  -17.3927   27.7933 C   0  0  0  0  0  0  0  0  0  0  0  0
   11.0457  -17.0737   28.8343 O   0  0  0  0  0  0  0  0  0  0  0  0
   10.5074  -18.7654   27.4744 O   0  0  0  0  0  0  0  0  0  0  0  0
  2  1  1  0
  3  2  2  0
  4  2  1  0
  5  6  1  0
  5  4  1  0
  6  7  1  6
  8  9  2  0
  8  6  1  0
 10 11  1  0
 11 12  2  0
 12 13  1  0
 14 13  2  0
 14 15  1  0
 16 15  1  6
 16 17  1  0
 17  8  1  0
 18 19  2  0
 18 16  1  0
 20 14  1  0
 21 11  1  0
 21 20  2  0
 22 18  1  0
 23 24  1  1
 23 22  1  0
 25 24  1  0
 25 33  1  0
 26 27  1  0
 26 25  2  0
 27 28  1  0
 28 29  2  0
 28 33  1  0
 29 30  1  0
 30 31  2  0
 32 31  1  0
 33 32  2  0
 34 23  1  0
 35 34  2  0
 36 34  1  0
M  END
$$$$
