QYW.pdb
     RDKit          3D

 36 38  0  0  1  0  0  0  0  0999 V2000
    9.4281  -14.5642   15.1777 N   0  0  0  0  0  0  0  0  0  0  0  0
    8.3815  -15.3136   15.8173 C   0  0  0  0  0  0  0  0  0  0  0  0
    7.2092  -15.2371   15.3804 O   0  0  0  0  0  0  0  0  0  0  0  0
    8.7222  -16.1449   16.9558 C   0  0  0  0  0  0  0  0  0  0  0  0
   10.1599  -16.1359   17.2948 C   0  0  0  0  0  0  0  0  0  0  0  0
   10.6054  -16.9443   18.4600 C   0  0  2  0  0  0  0  0  0  0  0  0
   10.1758  -18.3120   18.4645 N   0  0  0  0  0  0  0  0  0  0  0  0
   10.1883  -16.3077   19.7378 C   0  0  0  0  0  0  0  0  0  0  0  0
   10.7037  -15.1913   20.0338 O   0  0  0  0  0  0  0  0  0  0  0  0
    5.4158  -14.3045   27.0025 O   0  0  0  0  0  0  0  0  0  0  0  0
    5.9386  -14.8692   25.8246 C   0  0  0  0  0  0  0  0  0  0  0  0
    6.0810  -14.1105   24.6840 C   0  0  0  0  0  0  0  0  0  0  0  0
    6.5925  -14.6580   23.5263 C   0  0  0  0  0  0  0  0  0  0  0  0
    6.9837  -15.9930   23.4638 C   0  0  0  0  0  0  0  0  0  0  0  0
    7.4739  -16.5806   22.2220 C   0  0  0  0  0  0  0  0  0  0  0  0
    8.8632  -16.1854   21.8875 C   0  0  2  0  0  0  0  0  0  0  0  0
    9.2704  -16.8589   20.6251 N   0  0  0  0  0  0  0  0  0  0  0  0
    9.8386  -16.6103   22.8818 C   0  0  0  0  0  0  0  0  0  0  0  0
   10.4075  -17.7469   22.7324 O   0  0  0  0  0  0  0  0  0  0  0  0
    6.8388  -16.7428   24.6051 C   0  0  0  0  0  0  0  0  0  0  0  0
    6.3201  -16.1899   25.7811 C   0  0  0  0  0  0  0  0  0  0  0  0
   10.2621  -15.8985   24.0337 N   0  0  0  0  0  0  0  0  0  0  0  0
   11.3115  -16.3861   24.9071 C   0  0  1  0  0  0  0  0  0  0  0  0
   11.6089  -15.3056   25.9397 C   0  0  0  0  0  0  0  0  0  0  0  0
   10.4702  -15.1097   26.8462 C   0  0  0  0  0  0  0  0  0  0  0  0
   10.1899  -15.7948   28.0067 C   0  0  0  0  0  0  0  0  0  0  0  0
    9.0441  -15.3012   28.5401 N   0  0  0  0  0  0  0  0  0  0  0  0
    8.5630  -14.3114   27.7638 C   0  0  0  0  0  0  0  0  0  0  0  0
    7.4362  -13.5138   27.8890 C   0  0  0  0  0  0  0  0  0  0  0  0
    7.2053  -12.5681   26.9149 C   0  0  0  0  0  0  0  0  0  0  0  0
    8.0723  -12.4298   25.8573 C   0  0  0  0  0  0  0  0  0  0  0  0
    9.1930  -13.2408   25.7555 C   0  0  0  0  0  0  0  0  0  0  0  0
    9.4438  -14.1861   26.7087 C   0  0  0  0  0  0  0  0  0  0  0  0
   11.0531  -17.6825   25.5176 C   0  0  0  0  0  0  0  0  0  0  0  0
   11.9043  -18.3893   26.1053 O   0  0  0  0  0  0  0  0  0  0  0  0
    9.7611  -18.2500   25.4822 O   0  0  0  0  0  0  0  0  0  0  0  0
  2  1  1  0
  3  2  2  0
  4  2  1  0
  5  6  1  0
  5  4  1  0
  6  7  1  6
  8  9  2  0
  8  6  1  0
 10 11  1  0
 11 12  2  0
 12 13  1  0
 14 13  2  0
 14 15  1  0
 16 15  1  1
 16 17  1  0
 17  8  1  0
 18 19  2  0
 18 16  1  0
 20 14  1  0
 21 11  1  0
 21 20  2  0
 22 18  1  0
 23 24  1  1
 23 22  1  0
 25 24  1  0
 25 33  1  0
 26 27  1  0
 26 25  2  0
 27 28  1  0
 28 29  2  0
 28 33  1  0
 29 30  1  0
 30 31  2  0
 32 31  1  0
 33 32  2  0
 34 23  1  0
 35 34  2  0
 36 34  1  0
M  END
$$$$
