QYW.pdb
     RDKit          3D

 36 38  0  0  1  0  0  0  0  0999 V2000
   11.8779  -18.6001   15.6977 N   0  0  0  0  0  0  0  0  0  0  0  0
   10.6547  -18.1215   16.2816 C   0  0  0  0  0  0  0  0  0  0  0  0
    9.8889  -17.3946   15.6061 O   0  0  0  0  0  0  0  0  0  0  0  0
   10.3431  -18.5035   17.6454 C   0  0  0  0  0  0  0  0  0  0  0  0
   10.9993  -17.6627   18.6675 C   0  0  0  0  0  0  0  0  0  0  0  0
   10.6825  -17.9282   20.0954 C   0  0  2  0  0  0  0  0  0  0  0  0
    9.4564  -18.6308   20.3368 N   0  0  0  0  0  0  0  0  0  0  0  0
   10.6723  -16.6649   20.8802 C   0  0  0  0  0  0  0  0  0  0  0  0
   11.6792  -15.9055   20.7845 O   0  0  0  0  0  0  0  0  0  0  0  0
    7.1869  -13.1100   16.7734 O   0  0  0  0  0  0  0  0  0  0  0  0
    7.4876  -13.4020   18.1165 C   0  0  0  0  0  0  0  0  0  0  0  0
    6.9804  -14.5305   18.7215 C   0  0  0  0  0  0  0  0  0  0  0  0
    7.2710  -14.8223   20.0375 C   0  0  0  0  0  0  0  0  0  0  0  0
    8.0847  -13.9921   20.8042 C   0  0  0  0  0  0  0  0  0  0  0  0
    8.3454  -14.2771   22.2108 C   0  0  0  0  0  0  0  0  0  0  0  0
    9.6335  -14.9728   22.4455 C   0  0  2  0  0  0  0  0  0  0  0  0
    9.6299  -16.2655   21.7094 N   0  0  0  0  0  0  0  0  0  0  0  0
    9.8520  -15.3259   23.8413 C   0  0  0  0  0  0  0  0  0  0  0  0
   10.5470  -14.5358   24.5695 O   0  0  0  0  0  0  0  0  0  0  0  0
    8.5868  -12.8690   20.1939 C   0  0  0  0  0  0  0  0  0  0  0  0
    8.2934  -12.5706   18.8588 C   0  0  0  0  0  0  0  0  0  0  0  0
    9.3701  -16.4708   24.5269 N   0  0  0  0  0  0  0  0  0  0  0  0
    9.7236  -16.7592   25.9030 C   0  0  1  0  0  0  0  0  0  0  0  0
    8.4350  -16.9648   26.6902 C   0  0  0  0  0  0  0  0  0  0  0  0
    7.4041  -16.0019   26.2820 C   0  0  0  0  0  0  0  0  0  0  0  0
    6.2957  -16.2356   25.4999 C   0  0  0  0  0  0  0  0  0  0  0  0
    5.6036  -15.0764   25.3647 N   0  0  0  0  0  0  0  0  0  0  0  0
    6.2249  -14.0874   26.0352 C   0  0  0  0  0  0  0  0  0  0  0  0
    5.9083  -12.7470   26.1925 C   0  0  0  0  0  0  0  0  0  0  0  0
    6.7549  -11.9702   26.9516 C   0  0  0  0  0  0  0  0  0  0  0  0
    7.8749  -12.5189   27.5296 C   0  0  0  0  0  0  0  0  0  0  0  0
    8.1690  -13.8634   27.3568 C   0  0  0  0  0  0  0  0  0  0  0  0
    7.3450  -14.6545   26.6083 C   0  0  0  0  0  0  0  0  0  0  0  0
   10.6649  -17.8557   26.0812 C   0  0  0  0  0  0  0  0  0  0  0  0
   11.1272  -18.2426   27.1794 O   0  0  0  0  0  0  0  0  0  0  0  0
   11.1374  -18.5864   24.9698 O   0  0  0  0  0  0  0  0  0  0  0  0
  2  1  1  0
  3  2  2  0
  4  2  1  0
  5  6  1  0
  5  4  1  0
  6  7  1  6
  8  9  2  0
  8  6  1  0
 10 11  1  0
 11 12  2  0
 12 13  1  0
 14 13  2  0
 14 15  1  0
 16 15  1  1
 16 17  1  0
 17  8  1  0
 18 19  2  0
 18 16  1  0
 20 14  1  0
 21 11  1  0
 21 20  2  0
 22 18  1  0
 23 24  1  1
 23 22  1  0
 25 24  1  0
 25 33  1  0
 26 27  1  0
 26 25  2  0
 27 28  1  0
 28 29  2  0
 28 33  1  0
 29 30  1  0
 30 31  2  0
 32 31  1  0
 33 32  2  0
 34 23  1  0
 35 34  2  0
 36 34  1  0
M  END
$$$$
