HRR.pdb
     RDKit          3D

 33 33  0  0  1  0  0  0  0  0999 V2000
   23.9353  -18.1274  -19.1892 N   0  0  0  0  0  0  0  0  0  0  0  0
   24.5592  -18.6414  -17.9959 C   0  0  1  0  0  0  0  0  0  0  0  0
   25.7744  -17.7990  -17.6072 C   0  0  0  0  0  0  0  0  0  0  0  0
   26.8165  -17.9854  -18.6370 C   0  0  0  0  0  0  0  0  0  0  0  0
   27.2661  -17.0931  -19.5785 C   0  0  0  0  0  0  0  0  0  0  0  0
   28.2400  -17.6800  -20.3292 N   0  0  0  0  0  0  0  0  0  0  0  0
   28.3908  -18.9227  -19.8564 C   0  0  0  0  0  0  0  0  0  0  0  0
   27.5304  -19.1069  -18.8338 N   0  0  0  0  0  0  0  0  0  0  0  0
   23.5822  -18.5980  -16.8822 C   0  0  0  0  0  0  0  0  0  0  0  0
   22.7065  -17.6959  -16.8376 O   0  0  0  0  0  0  0  0  0  0  0  0
   20.7709  -24.3269  -15.9553 N   0  0  0  0  0  0  0  0  0  0  0  0
   19.5346  -23.7032  -16.2060 C   0  0  0  0  0  0  0  0  0  0  0  0
   18.4479  -24.2046  -15.7481 N   0  0  0  0  0  0  0  0  0  0  0  0
   19.4842  -22.5184  -16.9662 N   0  0  0  0  0  0  0  0  0  0  0  0
   20.6327  -21.6834  -17.0972 C   0  0  0  0  0  0  0  0  0  0  0  0
   21.2805  -21.4518  -15.7300 C   0  0  0  0  0  0  0  0  0  0  0  0
   21.2930  -19.9720  -15.5220 C   0  0  0  0  0  0  0  0  0  0  0  0
   22.5860  -19.5132  -14.8161 C   0  0  2  0  0  0  0  0  0  0  0  0
   23.6020  -19.5645  -15.8416 N   0  0  0  0  0  0  0  0  0  0  0  0
   22.9032  -20.4589  -13.7095 C   0  0  0  0  0  0  0  0  0  0  0  0
   22.2163  -21.5049  -13.6118 O   0  0  0  0  0  0  0  0  0  0  0  0
   17.5205  -23.7674  -15.8917 N   0  0  0  0  0  0  0  0  0  0  0  0
   29.8331  -21.7782   -9.3488 C   0  0  0  0  0  0  0  0  0  0  0  0
   29.1507  -20.9958  -10.3460 N   0  0  0  0  0  0  0  0  0  0  0  0
   29.6825  -20.8130  -11.5002 N   0  0  0  0  0  0  0  0  0  0  0  0
   27.8919  -20.4070  -10.0970 C   0  0  0  0  0  0  0  0  0  0  0  0
   27.0298  -20.9015   -9.0496 C   0  0  0  0  0  0  0  0  0  0  0  0
   25.6701  -21.2635   -9.6061 C   0  0  0  0  0  0  0  0  0  0  0  0
   25.4288  -20.6355  -10.9501 C   0  0  1  0  0  0  0  0  0  0  0  0
   24.0874  -20.9411  -11.5262 N   0  0  0  0  0  0  0  0  0  0  0  0
   23.9439  -20.2168  -12.7742 C   0  0  0  0  0  0  0  0  0  0  0  0
   22.9692  -20.6606  -10.5954 O   0  0  0  0  0  0  0  0  0  0  0  0
   22.4425  -21.7424   -9.8833 O   0  0  0  0  0  0  0  0  0  0  0  0
  2  3  1  0
  2  9  1  0
  2  1  1  6
  4  3  1  0
  4  5  2  0
  6  5  1  0
  7  6  1  0
  8  7  2  0
  8  4  1  0
  9 10  2  0
 11 12  1  0
 12 13  2  0
 12 14  1  0
 14 15  1  0
 15 16  1  0
 17 16  1  0
 18 17  1  6
 19 18  1  0
 19  9  1  0
 20 21  2  0
 20 18  1  0
 22 23  1  0
 23 25  1  0
 24 23  2  0
 25 26  1  0
 27 26  1  0
 27 28  1  0
 29 28  1  6
 29 30  1  0
 30 20  1  0
 31 32  1  0
 31 29  1  0
 33 31  2  0
M  END
$$$$
