HRR.pdb
     RDKit          3D

 33 33  0  0  1  0  0  0  0  0999 V2000
   17.2551  -29.6961   -2.8898 N   0  0  0  0  0  0  0  0  0  0  0  0
   17.5025  -28.3014   -2.6234 C   0  0  1  0  0  0  0  0  0  0  0  0
   18.9840  -27.9655   -2.7966 C   0  0  0  0  0  0  0  0  0  0  0  0
   19.7420  -28.6455   -1.7270 C   0  0  0  0  0  0  0  0  0  0  0  0
   19.9198  -28.2625   -0.4206 C   0  0  0  0  0  0  0  0  0  0  0  0
   20.6909  -29.1852    0.2202 N   0  0  0  0  0  0  0  0  0  0  0  0
   20.9866  -30.1290   -0.6811 C   0  0  0  0  0  0  0  0  0  0  0  0
   20.4130  -29.8026   -1.8577 N   0  0  0  0  0  0  0  0  0  0  0  0
   16.7202  -27.4805   -3.5777 C   0  0  0  0  0  0  0  0  0  0  0  0
   16.6652  -27.7966   -4.7941 O   0  0  0  0  0  0  0  0  0  0  0  0
   11.7276  -21.4154   -0.8485 N   0  0  0  0  0  0  0  0  0  0  0  0
   13.0520  -21.3272   -1.3158 C   0  0  0  0  0  0  0  0  0  0  0  0
   13.8476  -20.4355   -0.8530 N   0  0  0  0  0  0  0  0  0  0  0  0
   13.5131  -22.2226   -2.3007 N   0  0  0  0  0  0  0  0  0  0  0  0
   12.5965  -22.9826   -3.0855 C   0  0  0  0  0  0  0  0  0  0  0  0
   13.3541  -23.8914   -4.0564 C   0  0  0  0  0  0  0  0  0  0  0  0
   14.3101  -24.6829   -3.2239 C   0  0  0  0  0  0  0  0  0  0  0  0
   15.1459  -25.6481   -4.0901 C   0  0  2  0  0  0  0  0  0  0  0  0
   16.0136  -26.3237   -3.1535 N   0  0  0  0  0  0  0  0  0  0  0  0
   15.9405  -24.8613   -5.0745 C   0  0  0  0  0  0  0  0  0  0  0  0
   16.6905  -23.9546   -4.6377 O   0  0  0  0  0  0  0  0  0  0  0  0
   14.8411  -20.3647   -1.1356 N   0  0  0  0  0  0  0  0  0  0  0  0
   18.2602  -29.9260  -10.9980 C   0  0  0  0  0  0  0  0  0  0  0  0
   17.1881  -28.9721  -10.8848 N   0  0  0  0  0  0  0  0  0  0  0  0
   16.2469  -28.9503  -11.7577 N   0  0  0  0  0  0  0  0  0  0  0  0
   17.1319  -28.0374   -9.8282 C   0  0  0  0  0  0  0  0  0  0  0  0
   18.1664  -27.0457   -9.6523 C   0  0  0  0  0  0  0  0  0  0  0  0
   17.9062  -26.2197   -8.4115 C   0  0  0  0  0  0  0  0  0  0  0  0
   16.8613  -25.1657   -8.6482 C   0  0  2  0  0  0  0  0  0  0  0  0
   16.5874  -24.3101   -7.4576 N   0  0  0  0  0  0  0  0  0  0  0  0
   15.8763  -25.1016   -6.4726 C   0  0  0  0  0  0  0  0  0  0  0  0
   15.8635  -23.0595   -7.7855 O   0  0  0  0  0  0  0  0  0  0  0  0
   16.5281  -22.1266   -8.5873 O   0  0  0  0  0  0  0  0  0  0  0  0
  2  3  1  0
  2  9  1  0
  2  1  1  6
  4  3  1  0
  4  5  2  0
  6  5  1  0
  7  6  1  0
  8  7  2  0
  8  4  1  0
  9 10  2  0
 11 12  1  0
 12 13  2  0
 12 14  1  0
 14 15  1  0
 15 16  1  0
 17 16  1  0
 18 17  1  1
 19 18  1  0
 19  9  1  0
 20 21  2  0
 20 18  1  0
 22 23  1  0
 23 25  1  0
 24 23  2  0
 25 26  1  0
 27 26  1  0
 27 28  1  0
 29 28  1  1
 29 30  1  0
 30 20  1  0
 31 32  1  0
 31 29  1  0
 33 31  2  0
M  END
$$$$
