HRR.pdb
     RDKit          3D

 33 33  0  0  1  0  0  0  0  0999 V2000
   26.0054  -21.8088  -16.4296 N   0  0  0  0  0  0  0  0  0  0  0  0
   25.6958  -20.6295  -15.6611 C   0  0  1  0  0  0  0  0  0  0  0  0
   25.0800  -19.5455  -16.5462 C   0  0  0  0  0  0  0  0  0  0  0  0
   26.1390  -19.0051  -17.4223 C   0  0  0  0  0  0  0  0  0  0  0  0
   27.1316  -18.1063  -17.1196 C   0  0  0  0  0  0  0  0  0  0  0  0
   27.8939  -17.8842  -18.2269 N   0  0  0  0  0  0  0  0  0  0  0  0
   27.3774  -18.6383  -19.2044 C   0  0  0  0  0  0  0  0  0  0  0  0
   26.3169  -19.3154  -18.7177 N   0  0  0  0  0  0  0  0  0  0  0  0
   24.7191  -20.9835  -14.6041 C   0  0  0  0  0  0  0  0  0  0  0  0
   23.7270  -21.7097  -14.8706 O   0  0  0  0  0  0  0  0  0  0  0  0
   28.7378  -21.8474  -10.6731 N   0  0  0  0  0  0  0  0  0  0  0  0
   28.3631  -20.5318  -11.0032 C   0  0  0  0  0  0  0  0  0  0  0  0
   28.9778  -19.8927  -11.9284 N   0  0  0  0  0  0  0  0  0  0  0  0
   27.3055  -19.9062  -10.3145 N   0  0  0  0  0  0  0  0  0  0  0  0
   26.3748  -20.6715   -9.5518 C   0  0  0  0  0  0  0  0  0  0  0  0
   25.4051  -21.4076  -10.4794 C   0  0  0  0  0  0  0  0  0  0  0  0
   24.4235  -20.3839  -10.9505 C   0  0  0  0  0  0  0  0  0  0  0  0
   23.8168  -20.7712  -12.3151 C   0  0  2  0  0  0  0  0  0  0  0  0
   24.8712  -20.5206  -13.2700 N   0  0  0  0  0  0  0  0  0  0  0  0
   22.6364  -19.9052  -12.5911 C   0  0  0  0  0  0  0  0  0  0  0  0
   22.8226  -18.8382  -13.2253 O   0  0  0  0  0  0  0  0  0  0  0  0
   28.7592  -18.9118  -12.1773 N   0  0  0  0  0  0  0  0  0  0  0  0
   21.1445  -18.8483  -18.8035 C   0  0  0  0  0  0  0  0  0  0  0  0
   19.7489  -18.6687  -18.4996 N   0  0  0  0  0  0  0  0  0  0  0  0
   18.9141  -18.3899  -19.4343 N   0  0  0  0  0  0  0  0  0  0  0  0
   19.2524  -18.7879  -17.1833 C   0  0  0  0  0  0  0  0  0  0  0  0
   20.1329  -19.0764  -16.0760 C   0  0  0  0  0  0  0  0  0  0  0  0
   19.8910  -20.4761  -15.5545 C   0  0  0  0  0  0  0  0  0  0  0  0
   20.8221  -20.8232  -14.4269 C   0  0  2  0  0  0  0  0  0  0  0  0
   20.2460  -20.5800  -13.0728 N   0  0  0  0  0  0  0  0  0  0  0  0
   21.3251  -20.2444  -12.1643 C   0  0  0  0  0  0  0  0  0  0  0  0
   19.4327  -21.7108  -12.5674 O   0  0  0  0  0  0  0  0  0  0  0  0
   20.1063  -22.8970  -12.2608 O   0  0  0  0  0  0  0  0  0  0  0  0
  2  3  1  0
  2  9  1  0
  2  1  1  6
  4  3  1  0
  4  5  2  0
  6  5  1  0
  7  6  1  0
  8  7  2  0
  8  4  1  0
  9 10  2  0
 11 12  1  0
 12 13  2  0
 12 14  1  0
 14 15  1  0
 15 16  1  0
 17 16  1  0
 18 17  1  1
 19 18  1  0
 19  9  1  0
 20 21  2  0
 20 18  1  0
 22 23  1  0
 23 25  1  0
 24 23  2  0
 25 26  1  0
 27 26  1  0
 27 28  1  0
 29 28  1  6
 29 30  1  0
 30 20  1  0
 31 32  1  0
 31 29  1  0
 33 31  2  0
M  END
$$$$
