HRR.pdb
     RDKit          3D

 33 33  0  0  1  0  0  0  0  0999 V2000
   19.0433  -28.5122  -13.2005 N   0  0  0  0  0  0  0  0  0  0  0  0
   18.0712  -27.4665  -13.0033 C   0  0  1  0  0  0  0  0  0  0  0  0
   16.7351  -28.0428  -12.5338 C   0  0  0  0  0  0  0  0  0  0  0  0
   16.1542  -28.8286  -13.6411 C   0  0  0  0  0  0  0  0  0  0  0  0
   15.8784  -30.1726  -13.6910 C   0  0  0  0  0  0  0  0  0  0  0  0
   15.3460  -30.4802  -14.9069 N   0  0  0  0  0  0  0  0  0  0  0  0
   15.2933  -29.3376  -15.6015 C   0  0  0  0  0  0  0  0  0  0  0  0
   15.7817  -28.3398  -14.8363 N   0  0  0  0  0  0  0  0  0  0  0  0
   18.5697  -26.5319  -11.9667 C   0  0  0  0  0  0  0  0  0  0  0  0
   19.1266  -26.9710  -10.9276 O   0  0  0  0  0  0  0  0  0  0  0  0
   21.7845  -21.4592  -14.5564 N   0  0  0  0  0  0  0  0  0  0  0  0
   20.6586  -21.4881  -15.3999 C   0  0  0  0  0  0  0  0  0  0  0  0
   20.7871  -21.7464  -16.6485 N   0  0  0  0  0  0  0  0  0  0  0  0
   19.3772  -21.2310  -14.8743 N   0  0  0  0  0  0  0  0  0  0  0  0
   19.1241  -21.3430  -13.4754 C   0  0  0  0  0  0  0  0  0  0  0  0
   19.2214  -22.8049  -13.0327 C   0  0  0  0  0  0  0  0  0  0  0  0
   18.7726  -22.8379  -11.6077 C   0  0  0  0  0  0  0  0  0  0  0  0
   18.8467  -24.2652  -11.0265 C   0  0  2  0  0  0  0  0  0  0  0  0
   18.4376  -25.1253  -12.1125 N   0  0  0  0  0  0  0  0  0  0  0  0
   17.9037  -24.3774   -9.8786 C   0  0  0  0  0  0  0  0  0  0  0  0
   16.8037  -24.9500  -10.0723 O   0  0  0  0  0  0  0  0  0  0  0  0
   19.9814  -21.8272  -17.2936 N   0  0  0  0  0  0  0  0  0  0  0  0
   14.6113  -25.8420   -3.4086 C   0  0  0  0  0  0  0  0  0  0  0  0
   15.4893  -26.9818   -3.3621 N   0  0  0  0  0  0  0  0  0  0  0  0
   15.4265  -27.8070   -2.3805 N   0  0  0  0  0  0  0  0  0  0  0  0
   16.4394  -27.2314   -4.3761 C   0  0  0  0  0  0  0  0  0  0  0  0
   16.5198  -26.3913   -5.5477 C   0  0  0  0  0  0  0  0  0  0  0  0
   17.5500  -26.9278   -6.5175 C   0  0  0  0  0  0  0  0  0  0  0  0
   17.7171  -26.0305   -7.7115 C   0  0  1  0  0  0  0  0  0  0  0  0
   18.0233  -24.6131   -7.3624 N   0  0  0  0  0  0  0  0  0  0  0  0
   18.2063  -23.8633   -8.5900 C   0  0  0  0  0  0  0  0  0  0  0  0
   19.1827  -24.4686   -6.4512 O   0  0  0  0  0  0  0  0  0  0  0  0
   20.4574  -24.5327   -7.0221 O   0  0  0  0  0  0  0  0  0  0  0  0
  2  3  1  0
  2  9  1  0
  2  1  1  1
  4  3  1  0
  4  5  2  0
  6  5  1  0
  7  6  1  0
  8  7  2  0
  8  4  1  0
  9 10  2  0
 11 12  1  0
 12 13  2  0
 12 14  1  0
 14 15  1  0
 15 16  1  0
 17 16  1  0
 18 17  1  6
 19 18  1  0
 19  9  1  0
 20 21  2  0
 20 18  1  0
 22 23  1  0
 23 25  1  0
 24 23  2  0
 25 26  1  0
 27 26  1  0
 27 28  1  0
 29 28  1  6
 29 30  1  0
 30 20  1  0
 31 32  1  0
 31 29  1  0
 33 31  2  0
M  END
$$$$
