HRR.pdb
     RDKit          3D

 33 33  0  0  1  0  0  0  0  0999 V2000
   19.5765  -24.0888   -9.0492 N   0  0  0  0  0  0  0  0  0  0  0  0
   18.6543  -25.1333   -8.6805 C   0  0  1  0  0  0  0  0  0  0  0  0
   19.0944  -26.4800   -9.2552 C   0  0  0  0  0  0  0  0  0  0  0  0
   18.9737  -26.4184  -10.7258 C   0  0  0  0  0  0  0  0  0  0  0  0
   19.9647  -26.4741  -11.6742 C   0  0  0  0  0  0  0  0  0  0  0  0
   19.4091  -26.3821  -12.9150 N   0  0  0  0  0  0  0  0  0  0  0  0
   18.0878  -26.2706  -12.7350 C   0  0  0  0  0  0  0  0  0  0  0  0
   17.8250  -26.2926  -11.4121 N   0  0  0  0  0  0  0  0  0  0  0  0
   18.6141  -25.2438   -7.2031 C   0  0  0  0  0  0  0  0  0  0  0  0
   19.6590  -25.0758   -6.5229 O   0  0  0  0  0  0  0  0  0  0  0  0
   12.2027  -21.9981   -2.6283 N   0  0  0  0  0  0  0  0  0  0  0  0
   13.2023  -22.3682   -1.7097 C   0  0  0  0  0  0  0  0  0  0  0  0
   13.2758  -21.7996   -0.5636 N   0  0  0  0  0  0  0  0  0  0  0  0
   14.1332  -23.3702   -2.0466 N   0  0  0  0  0  0  0  0  0  0  0  0
   15.0319  -23.1964   -3.1401 C   0  0  0  0  0  0  0  0  0  0  0  0
   15.9284  -24.4275   -3.2925 C   0  0  0  0  0  0  0  0  0  0  0  0
   16.0949  -24.6403   -4.7623 C   0  0  0  0  0  0  0  0  0  0  0  0
   17.3777  -25.4387   -5.0742 C   0  0  2  0  0  0  0  0  0  0  0  0
   17.4070  -25.5381   -6.5150 N   0  0  0  0  0  0  0  0  0  0  0  0
   17.2788  -26.7891   -4.4527 C   0  0  0  0  0  0  0  0  0  0  0  0
   16.5495  -27.6441   -5.0117 O   0  0  0  0  0  0  0  0  0  0  0  0
   14.0537  -21.9651    0.0993 N   0  0  0  0  0  0  0  0  0  0  0  0
   21.4662  -30.2452    2.7788 C   0  0  0  0  0  0  0  0  0  0  0  0
   20.5121  -31.2191    2.3171 N   0  0  0  0  0  0  0  0  0  0  0  0
   20.4402  -32.3711    2.8792 N   0  0  0  0  0  0  0  0  0  0  0  0
   19.6341  -30.9505    1.2445 C   0  0  0  0  0  0  0  0  0  0  0  0
   19.7679  -29.7511    0.4519 C   0  0  0  0  0  0  0  0  0  0  0  0
   18.7282  -29.7209   -0.6470 C   0  0  0  0  0  0  0  0  0  0  0  0
   18.8330  -28.4771   -1.4842 C   0  0  1  0  0  0  0  0  0  0  0  0
   17.8492  -28.4193   -2.6038 N   0  0  0  0  0  0  0  0  0  0  0  0
   17.9740  -27.1341   -3.2635 C   0  0  0  0  0  0  0  0  0  0  0  0
   16.4555  -28.6857   -2.1770 O   0  0  0  0  0  0  0  0  0  0  0  0
   15.7596  -27.6351   -1.5713 O   0  0  0  0  0  0  0  0  0  0  0  0
  2  3  1  0
  2  9  1  0
  2  1  1  1
  4  3  1  0
  4  5  2  0
  6  5  1  0
  7  6  1  0
  8  7  2  0
  8  4  1  0
  9 10  2  0
 11 12  1  0
 12 13  2  0
 12 14  1  0
 14 15  1  0
 15 16  1  0
 17 16  1  0
 18 17  1  6
 19 18  1  0
 19  9  1  0
 20 21  2  0
 20 18  1  0
 22 23  1  0
 23 25  1  0
 24 23  2  0
 25 26  1  0
 27 26  1  0
 27 28  1  0
 29 28  1  6
 29 30  1  0
 30 20  1  0
 31 32  1  0
 31 29  1  0
 33 31  2  0
M  END
$$$$
