HRR.pdb
     RDKit          3D

 33 33  0  0  1  0  0  0  0  0999 V2000
   30.6695  -23.0579  -17.4652 N   0  0  0  0  0  0  0  0  0  0  0  0
   29.7560  -22.2632  -18.2471 C   0  0  1  0  0  0  0  0  0  0  0  0
   28.9806  -23.1345  -19.2356 C   0  0  0  0  0  0  0  0  0  0  0  0
   29.8901  -23.5073  -20.3379 C   0  0  0  0  0  0  0  0  0  0  0  0
   30.3427  -24.7528  -20.6968 C   0  0  0  0  0  0  0  0  0  0  0  0
   31.1666  -24.6408  -21.7763 N   0  0  0  0  0  0  0  0  0  0  0  0
   31.2226  -23.3391  -22.0814 C   0  0  0  0  0  0  0  0  0  0  0  0
   30.4511  -22.6545  -21.2119 N   0  0  0  0  0  0  0  0  0  0  0  0
   28.7862  -21.6069  -17.3386 C   0  0  0  0  0  0  0  0  0  0  0  0
   28.4740  -22.1437  -16.2445 O   0  0  0  0  0  0  0  0  0  0  0  0
   24.6432  -14.4504  -17.6745 N   0  0  0  0  0  0  0  0  0  0  0  0
   24.9133  -14.3846  -16.2950 C   0  0  0  0  0  0  0  0  0  0  0  0
   24.1373  -13.7333  -15.5102 N   0  0  0  0  0  0  0  0  0  0  0  0
   26.0444  -15.0367  -15.7663 N   0  0  0  0  0  0  0  0  0  0  0  0
   26.8273  -15.9138  -16.5733 C   0  0  0  0  0  0  0  0  0  0  0  0
   26.5699  -17.3703  -16.1798 C   0  0  0  0  0  0  0  0  0  0  0  0
   27.4721  -18.1975  -17.0371 C   0  0  0  0  0  0  0  0  0  0  0  0
   27.3635  -19.6963  -16.6872 C   0  0  2  0  0  0  0  0  0  0  0  0
   28.1858  -20.3631  -17.6699 N   0  0  0  0  0  0  0  0  0  0  0  0
   25.9422  -20.1266  -16.8070 C   0  0  0  0  0  0  0  0  0  0  0  0
   25.4071  -20.0868  -17.9416 O   0  0  0  0  0  0  0  0  0  0  0  0
   24.3089  -13.6448  -14.4931 N   0  0  0  0  0  0  0  0  0  0  0  0
   19.2115  -19.6327  -14.2224 C   0  0  0  0  0  0  0  0  0  0  0  0
   18.8954  -20.8206  -13.4734 N   0  0  0  0  0  0  0  0  0  0  0  0
   17.6876  -21.2535  -13.4267 N   0  0  0  0  0  0  0  0  0  0  0  0
   19.8844  -21.5428  -12.7707 C   0  0  0  0  0  0  0  0  0  0  0  0
   21.2755  -21.1617  -12.8359 C   0  0  0  0  0  0  0  0  0  0  0  0
   21.7781  -21.2245  -14.2618 C   0  0  0  0  0  0  0  0  0  0  0  0
   23.1960  -20.7400  -14.3785 C   0  0  2  0  0  0  0  0  0  0  0  0
   23.7656  -20.8674  -15.7511 N   0  0  0  0  0  0  0  0  0  0  0  0
   25.1843  -20.5738  -15.6924 C   0  0  0  0  0  0  0  0  0  0  0  0
   23.0712  -20.0293  -16.7566 O   0  0  0  0  0  0  0  0  0  0  0  0
   22.1359  -20.6618  -17.5811 O   0  0  0  0  0  0  0  0  0  0  0  0
  2  3  1  0
  2  9  1  0
  2  1  1  1
  4  3  1  0
  4  5  2  0
  6  5  1  0
  7  6  1  0
  8  7  2  0
  8  4  1  0
  9 10  2  0
 11 12  1  0
 12 13  2  0
 12 14  1  0
 14 15  1  0
 15 16  1  0
 17 16  1  0
 18 17  1  6
 19 18  1  0
 19  9  1  0
 20 21  2  0
 20 18  1  0
 22 23  1  0
 23 25  1  0
 24 23  2  0
 25 26  1  0
 27 26  1  0
 27 28  1  0
 29 28  1  1
 29 30  1  0
 30 20  1  0
 31 32  1  0
 31 29  1  0
 33 31  2  0
M  END
$$$$
