HRR.pdb
     RDKit          3D

 33 33  0  0  1  0  0  0  0  0999 V2000
   26.4180  -25.7842  -16.2330 N   0  0  0  0  0  0  0  0  0  0  0  0
   25.6427  -24.6864  -16.7537 C   0  0  1  0  0  0  0  0  0  0  0  0
   24.4138  -25.1938  -17.5087 C   0  0  0  0  0  0  0  0  0  0  0  0
   24.8660  -25.7974  -18.7784 C   0  0  0  0  0  0  0  0  0  0  0  0
   24.6324  -27.0606  -19.2626 C   0  0  0  0  0  0  0  0  0  0  0  0
   25.2365  -27.1988  -20.4761 N   0  0  0  0  0  0  0  0  0  0  0  0
   25.8375  -26.0324  -20.7392 C   0  0  0  0  0  0  0  0  0  0  0  0
   25.6133  -25.1858  -19.7131 N   0  0  0  0  0  0  0  0  0  0  0  0
   25.1850  -23.8400  -15.6265 C   0  0  0  0  0  0  0  0  0  0  0  0
   24.6734  -24.3635  -14.6033 O   0  0  0  0  0  0  0  0  0  0  0  0
   28.4374  -17.7298  -17.5423 N   0  0  0  0  0  0  0  0  0  0  0  0
   27.1277  -17.2821  -17.7961 C   0  0  0  0  0  0  0  0  0  0  0  0
   26.8439  -16.6907  -18.8970 N   0  0  0  0  0  0  0  0  0  0  0  0
   26.1162  -17.4816  -16.8363 N   0  0  0  0  0  0  0  0  0  0  0  0
   26.3353  -18.3233  -15.7063 C   0  0  0  0  0  0  0  0  0  0  0  0
   25.5155  -19.6094  -15.8342 C   0  0  0  0  0  0  0  0  0  0  0  0
   25.7407  -20.3727  -14.5693 C   0  0  0  0  0  0  0  0  0  0  0  0
   24.8797  -21.6521  -14.5224 C   0  0  2  0  0  0  0  0  0  0  0  0
   25.3095  -22.4257  -15.6642 N   0  0  0  0  0  0  0  0  0  0  0  0
   23.4421  -21.2812  -14.6456 C   0  0  0  0  0  0  0  0  0  0  0  0
   23.0303  -20.8766  -15.7601 O   0  0  0  0  0  0  0  0  0  0  0  0
   25.8879  -16.3737  -19.1368 N   0  0  0  0  0  0  0  0  0  0  0  0
   17.9218  -25.5971  -10.2947 C   0  0  0  0  0  0  0  0  0  0  0  0
   18.9626  -25.8885  -11.2455 N   0  0  0  0  0  0  0  0  0  0  0  0
   19.5095  -27.0498  -11.2703 N   0  0  0  0  0  0  0  0  0  0  0  0
   19.4165  -24.9239  -12.1712 C   0  0  0  0  0  0  0  0  0  0  0  0
   18.7603  -23.6441  -12.2988 C   0  0  0  0  0  0  0  0  0  0  0  0
   19.4727  -22.7800  -13.3163 C   0  0  0  0  0  0  0  0  0  0  0  0
   20.3539  -21.7534  -12.6616 C   0  0  2  0  0  0  0  0  0  0  0  0
   21.1520  -20.9414  -13.6250 N   0  0  0  0  0  0  0  0  0  0  0  0
   22.5356  -21.3696  -13.5560 C   0  0  0  0  0  0  0  0  0  0  0  0
   21.0169  -19.4806  -13.4169 O   0  0  0  0  0  0  0  0  0  0  0  0
   20.1514  -18.7898  -14.2705 O   0  0  0  0  0  0  0  0  0  0  0  0
  2  3  1  0
  2  9  1  0
  2  1  1  1
  4  3  1  0
  4  5  2  0
  6  5  1  0
  7  6  1  0
  8  7  2  0
  8  4  1  0
  9 10  2  0
 11 12  1  0
 12 13  2  0
 12 14  1  0
 14 15  1  0
 15 16  1  0
 17 16  1  0
 18 17  1  6
 19 18  1  0
 19  9  1  0
 20 21  2  0
 20 18  1  0
 22 23  1  0
 23 25  1  0
 24 23  2  0
 25 26  1  0
 27 26  1  0
 27 28  1  0
 29 28  1  6
 29 30  1  0
 30 20  1  0
 31 32  1  0
 31 29  1  0
 33 31  2  0
M  END
$$$$
