NEE.pdb
     RDKit          3D

 27 26  0  0  1  0  0  0  0  0999 V2000
    8.7998  -13.9017   16.9246 N   0  0  0  0  0  0  0  0  0  0  0  0
    7.7261  -13.3493   17.6653 C   0  0  0  0  0  0  0  0  0  0  0  0
    6.8752  -12.6840   17.0024 O   0  0  0  0  0  0  0  0  0  0  0  0
    7.5080  -13.4711   19.1001 C   0  0  0  0  0  0  0  0  0  0  0  0
    8.4855  -14.2979   19.8501 C   0  0  2  0  0  0  0  0  0  0  0  0
    9.0775  -15.3797   19.1212 N   0  0  0  0  0  0  0  0  0  0  0  0
    8.0013  -14.7784   21.1491 C   0  0  0  0  0  0  0  0  0  0  0  0
    7.5379  -13.9361   21.9826 O   0  0  0  0  0  0  0  0  0  0  0  0
    8.0405  -16.1480   21.4869 N   0  0  0  0  0  0  0  0  0  0  0  0
    7.5493  -16.5398   22.8155 C   0  0  1  0  0  0  0  0  0  0  0  0
    6.8850  -17.9026   22.6881 C   0  0  0  0  0  0  0  0  0  0  0  0
    6.4806  -18.4624   24.0176 C   0  0  0  0  0  0  0  0  0  0  0  0
    5.7908  -19.7844   23.8428 C   0  0  0  0  0  0  0  0  0  0  0  0
    5.6524  -20.2904   22.7194 O   0  0  0  0  0  0  0  0  0  0  0  0
    8.6379  -16.4883   23.8014 C   0  0  0  0  0  0  0  0  0  0  0  0
    9.7900  -16.8746   23.4035 O   0  0  0  0  0  0  0  0  0  0  0  0
    5.3000  -20.4505   24.9584 O   0  0  0  0  0  0  0  0  0  0  0  0
    8.5574  -16.0579   25.1310 N   0  0  0  0  0  0  0  0  0  0  0  0
    9.6540  -16.0986   26.0336 C   0  0  1  0  0  0  0  0  0  0  0  0
    9.5405  -15.1815   27.2116 C   0  0  0  0  0  0  0  0  0  0  0  0
   10.6625  -15.2653   28.2077 C   0  0  0  0  0  0  0  0  0  0  0  0
   10.5577  -14.3232   29.3092 C   0  0  0  0  0  0  0  0  0  0  0  0
    9.5876  -13.5486   29.4810 O   0  0  0  0  0  0  0  0  0  0  0  0
   10.1325  -17.4631   26.3586 C   0  0  0  0  0  0  0  0  0  0  0  0
    9.3070  -18.3891   26.5394 O   0  0  0  0  0  0  0  0  0  0  0  0
   11.5916  -14.2606   30.2460 O   0  0  0  0  0  0  0  0  0  0  0  0
   11.4735  -17.7892   26.4786 O   0  0  0  0  0  0  0  0  0  0  0  0
  2  1  1  0
  3  2  2  0
  4  5  1  0
  4  2  1  0
  5  6  1  6
  7  5  1  0
  7  8  2  0
  9  7  1  0
 10  9  1  0
 10 11  1  6
 11 12  1  0
 12 13  1  0
 13 17  1  0
 14 13  2  0
 15 10  1  0
 16 15  2  0
 18 15  1  0
 19 20  1  1
 19 18  1  0
 20 21  1  0
 21 22  1  0
 22 26  1  0
 23 22  2  0
 24 19  1  0
 25 24  2  0
 27 24  1  0
M  END
$$$$
