NEE.pdb
     RDKit          3D

 27 26  0  0  1  0  0  0  0  0999 V2000
    8.1623  -14.5679   13.9355 N   0  0  0  0  0  0  0  0  0  0  0  0
    7.6439  -13.7650   14.9811 C   0  0  0  0  0  0  0  0  0  0  0  0
    7.0183  -12.7218   14.6255 O   0  0  0  0  0  0  0  0  0  0  0  0
    7.7594  -14.0201   16.4102 C   0  0  0  0  0  0  0  0  0  0  0  0
    8.5313  -15.2234   16.8074 C   0  0  2  0  0  0  0  0  0  0  0  0
    8.1465  -16.4492   16.1737 N   0  0  0  0  0  0  0  0  0  0  0  0
    8.6369  -15.4237   18.2570 C   0  0  0  0  0  0  0  0  0  0  0  0
    9.1680  -14.5110   18.9669 O   0  0  0  0  0  0  0  0  0  0  0  0
    8.1633  -16.6020   18.8723 N   0  0  0  0  0  0  0  0  0  0  0  0
    8.3969  -16.7628   20.3144 C   0  0  1  0  0  0  0  0  0  0  0  0
    7.6097  -17.9765   20.7858 C   0  0  0  0  0  0  0  0  0  0  0  0
    6.2795  -18.0881   20.1057 C   0  0  0  0  0  0  0  0  0  0  0  0
    5.5577  -19.3225   20.5635 C   0  0  0  0  0  0  0  0  0  0  0  0
    6.0476  -20.0680   21.4246 O   0  0  0  0  0  0  0  0  0  0  0  0
    9.8374  -16.8304   20.5970 C   0  0  0  0  0  0  0  0  0  0  0  0
   10.5737  -17.3613   19.6965 O   0  0  0  0  0  0  0  0  0  0  0  0
    4.3211  -19.6333   20.0127 O   0  0  0  0  0  0  0  0  0  0  0  0
   10.4986  -16.3729   21.7430 N   0  0  0  0  0  0  0  0  0  0  0  0
   11.9065  -16.1944   21.8144 C   0  0  1  0  0  0  0  0  0  0  0  0
   12.5259  -15.5504   20.6131 C   0  0  0  0  0  0  0  0  0  0  0  0
   14.0174  -15.3758   20.6690 C   0  0  0  0  0  0  0  0  0  0  0  0
   14.6028  -14.8293   19.4563 C   0  0  0  0  0  0  0  0  0  0  0  0
   14.2538  -13.7444   18.9352 O   0  0  0  0  0  0  0  0  0  0  0  0
   12.3952  -15.6746   23.1133 C   0  0  0  0  0  0  0  0  0  0  0  0
   11.5849  -15.1909   23.9386 O   0  0  0  0  0  0  0  0  0  0  0  0
   15.6190  -15.5417   18.8157 O   0  0  0  0  0  0  0  0  0  0  0  0
   13.7300  -15.6899   23.4839 O   0  0  0  0  0  0  0  0  0  0  0  0
  2  1  1  0
  3  2  2  0
  4  5  1  0
  4  2  1  0
  5  6  1  6
  7  5  1  0
  7  8  2  0
  9  7  1  0
 10  9  1  0
 10 11  1  6
 11 12  1  0
 12 13  1  0
 13 17  1  0
 14 13  2  0
 15 10  1  0
 16 15  2  0
 18 15  1  0
 19 20  1  6
 19 18  1  0
 20 21  1  0
 21 22  1  0
 22 26  1  0
 23 22  2  0
 24 19  1  0
 25 24  2  0
 27 24  1  0
M  END
$$$$
