NEE.pdb
     RDKit          3D

 27 26  0  0  1  0  0  0  0  0999 V2000
    6.9659  -12.5459   19.2634 N   0  0  0  0  0  0  0  0  0  0  0  0
    7.7316  -13.5031   18.5534 C   0  0  0  0  0  0  0  0  0  0  0  0
    7.0873  -14.2630   17.7702 O   0  0  0  0  0  0  0  0  0  0  0  0
    9.1727  -13.6960   18.6358 C   0  0  0  0  0  0  0  0  0  0  0  0
    9.6365  -15.0150   19.1324 C   0  0  2  0  0  0  0  0  0  0  0  0
    8.6585  -16.0618   19.1309 N   0  0  0  0  0  0  0  0  0  0  0  0
   10.3140  -14.9681   20.4330 C   0  0  0  0  0  0  0  0  0  0  0  0
   11.2879  -14.1646   20.5905 O   0  0  0  0  0  0  0  0  0  0  0  0
    9.9071  -15.7927   21.5035 N   0  0  0  0  0  0  0  0  0  0  0  0
   10.7229  -15.7800   22.7259 C   0  0  1  0  0  0  0  0  0  0  0  0
    9.9437  -16.4965   23.8187 C   0  0  0  0  0  0  0  0  0  0  0  0
   10.7589  -16.6927   25.0602 C   0  0  0  0  0  0  0  0  0  0  0  0
    9.9992  -17.5120   26.0632 C   0  0  0  0  0  0  0  0  0  0  0  0
    8.8832  -17.9800   25.7935 O   0  0  0  0  0  0  0  0  0  0  0  0
   12.0528  -16.3468   22.4617 C   0  0  0  0  0  0  0  0  0  0  0  0
   12.0863  -17.5393   22.0015 O   0  0  0  0  0  0  0  0  0  0  0  0
   10.5567  -17.7488   27.3131 O   0  0  0  0  0  0  0  0  0  0  0  0
   13.2923  -15.7249   22.6529 N   0  0  0  0  0  0  0  0  0  0  0  0
   14.5359  -16.3831   22.4548 C   0  0  1  0  0  0  0  0  0  0  0  0
   15.3044  -15.9375   21.2495 C   0  0  0  0  0  0  0  0  0  0  0  0
   15.7861  -14.5144   21.2786 C   0  0  0  0  0  0  0  0  0  0  0  0
   16.1242  -13.9692   19.9747 C   0  0  0  0  0  0  0  0  0  0  0  0
   16.0601  -14.6177   18.9043 O   0  0  0  0  0  0  0  0  0  0  0  0
   15.3512  -16.5397   23.6824 C   0  0  0  0  0  0  0  0  0  0  0  0
   14.9449  -16.0630   24.7684 O   0  0  0  0  0  0  0  0  0  0  0  0
   16.5496  -12.6419   19.8865 O   0  0  0  0  0  0  0  0  0  0  0  0
   16.5694  -17.1989   23.7063 O   0  0  0  0  0  0  0  0  0  0  0  0
  2  1  1  0
  3  2  2  0
  4  5  1  0
  4  2  1  0
  5  6  1  1
  7  5  1  0
  7  8  2  0
  9  7  1  0
 10  9  1  0
 10 11  1  1
 11 12  1  0
 12 13  1  0
 13 17  1  0
 14 13  2  0
 15 10  1  0
 16 15  2  0
 18 15  1  0
 19 20  1  6
 19 18  1  0
 20 21  1  0
 21 22  1  0
 22 26  1  0
 23 22  2  0
 24 19  1  0
 25 24  2  0
 27 24  1  0
M  END
$$$$
