NEE.pdb
     RDKit          3D

 27 26  0  0  1  0  0  0  0  0999 V2000
    8.8903  -14.5433   17.2480 N   0  0  0  0  0  0  0  0  0  0  0  0
    7.8171  -13.8374   17.8453 C   0  0  0  0  0  0  0  0  0  0  0  0
    7.0036  -13.2810   17.0487 O   0  0  0  0  0  0  0  0  0  0  0  0
    7.5613  -13.6913   19.2715 C   0  0  0  0  0  0  0  0  0  0  0  0
    8.5230  -14.3528   20.1875 C   0  0  2  0  0  0  0  0  0  0  0  0
    9.2973  -15.4153   19.6186 N   0  0  0  0  0  0  0  0  0  0  0  0
    7.9431  -14.7868   21.4635 C   0  0  0  0  0  0  0  0  0  0  0  0
    7.1751  -13.9909   22.0923 O   0  0  0  0  0  0  0  0  0  0  0  0
    8.2208  -16.0618   22.0007 N   0  0  0  0  0  0  0  0  0  0  0  0
    7.6016  -16.4125   23.2867 C   0  0  1  0  0  0  0  0  0  0  0  0
    7.5852  -17.9295   23.4025 C   0  0  0  0  0  0  0  0  0  0  0  0
    7.0004  -18.3923   24.7018 C   0  0  0  0  0  0  0  0  0  0  0  0
    6.9067  -19.8905   24.7314 C   0  0  0  0  0  0  0  0  0  0  0  0
    7.2961  -20.5367   25.7152 O   0  0  0  0  0  0  0  0  0  0  0  0
    8.2900  -15.7300   24.3912 C   0  0  0  0  0  0  0  0  0  0  0  0
    9.5489  -15.5505   24.2581 O   0  0  0  0  0  0  0  0  0  0  0  0
    6.3748  -20.5623   23.6382 O   0  0  0  0  0  0  0  0  0  0  0  0
    7.7204  -15.2475   25.5755 N   0  0  0  0  0  0  0  0  0  0  0  0
    8.4484  -14.5140   26.5508 C   0  0  1  0  0  0  0  0  0  0  0  0
    7.7132  -13.3575   27.1538 C   0  0  0  0  0  0  0  0  0  0  0  0
    7.2620  -12.3011   26.1849 C   0  0  0  0  0  0  0  0  0  0  0  0
    6.3845  -11.2956   26.7601 C   0  0  0  0  0  0  0  0  0  0  0  0
    6.2029  -11.1430   27.9907 O   0  0  0  0  0  0  0  0  0  0  0  0
    9.1861  -15.3515   27.5258 C   0  0  0  0  0  0  0  0  0  0  0  0
    9.9357  -14.8117   28.3734 O   0  0  0  0  0  0  0  0  0  0  0  0
    5.6905  -10.4357   25.9061 O   0  0  0  0  0  0  0  0  0  0  0  0
    9.0971  -16.7335   27.5606 O   0  0  0  0  0  0  0  0  0  0  0  0
  2  1  1  0
  3  2  2  0
  4  5  1  0
  4  2  1  0
  5  6  1  6
  7  5  1  0
  7  8  2  0
  9  7  1  0
 10  9  1  0
 10 11  1  1
 11 12  1  0
 12 13  1  0
 13 17  1  0
 14 13  2  0
 15 10  1  0
 16 15  2  0
 18 15  1  0
 19 20  1  1
 19 18  1  0
 20 21  1  0
 21 22  1  0
 22 26  1  0
 23 22  2  0
 24 19  1  0
 25 24  2  0
 27 24  1  0
M  END
$$$$
