NEE.pdb
     RDKit          3D

 27 26  0  0  1  0  0  0  0  0999 V2000
    3.8165  -23.2074   22.1866 N   0  0  0  0  0  0  0  0  0  0  0  0
    3.6028  -22.1869   23.1455 C   0  0  0  0  0  0  0  0  0  0  0  0
    4.0646  -21.0430   22.8550 O   0  0  0  0  0  0  0  0  0  0  0  0
    2.9106  -22.3240   24.4194 C   0  0  0  0  0  0  0  0  0  0  0  0
    2.3606  -23.6660   24.7326 C   0  0  2  0  0  0  0  0  0  0  0  0
    1.5082  -24.2398   23.7344 N   0  0  0  0  0  0  0  0  0  0  0  0
    1.7228  -23.7665   26.0501 C   0  0  0  0  0  0  0  0  0  0  0  0
    2.3065  -23.2518   27.0567 O   0  0  0  0  0  0  0  0  0  0  0  0
    0.4830  -24.4192   26.2183 N   0  0  0  0  0  0  0  0  0  0  0  0
   -0.1041  -24.4371   27.5655 C   0  0  1  0  0  0  0  0  0  0  0  0
   -1.6051  -24.6399   27.4217 C   0  0  0  0  0  0  0  0  0  0  0  0
   -2.3022  -24.6714   28.7473 C   0  0  0  0  0  0  0  0  0  0  0  0
   -3.7754  -24.8928   28.5607 C   0  0  0  0  0  0  0  0  0  0  0  0
   -4.2282  -26.0234   28.3281 O   0  0  0  0  0  0  0  0  0  0  0  0
    0.5636  -25.4430   28.4034 C   0  0  0  0  0  0  0  0  0  0  0  0
    0.8511  -26.5559   27.8433 O   0  0  0  0  0  0  0  0  0  0  0  0
   -4.6442  -23.8129   28.6504 O   0  0  0  0  0  0  0  0  0  0  0  0
    0.9267  -25.3186   29.7497 N   0  0  0  0  0  0  0  0  0  0  0  0
    1.5054  -26.3746   30.5040 C   0  0  1  0  0  0  0  0  0  0  0  0
    2.9206  -26.1444   30.9352 C   0  0  0  0  0  0  0  0  0  0  0  0
    3.9286  -26.0509   29.8246 C   0  0  0  0  0  0  0  0  0  0  0  0
    5.2972  -25.8550   30.2723 C   0  0  0  0  0  0  0  0  0  0  0  0
    6.1640  -26.7597   30.2980 O   0  0  0  0  0  0  0  0  0  0  0  0
    0.6237  -26.9339   31.5557 C   0  0  0  0  0  0  0  0  0  0  0  0
   -0.4921  -26.4086   31.7813 O   0  0  0  0  0  0  0  0  0  0  0  0
    5.6920  -24.5872   30.7052 O   0  0  0  0  0  0  0  0  0  0  0  0
    0.9647  -28.0324   32.3277 O   0  0  0  0  0  0  0  0  0  0  0  0
  2  1  1  0
  3  2  2  0
  4  5  1  0
  4  2  1  0
  5  6  1  6
  7  5  1  0
  7  8  2  0
  9  7  1  0
 10  9  1  0
 10 11  1  6
 11 12  1  0
 12 13  1  0
 13 17  1  0
 14 13  2  0
 15 10  1  0
 16 15  2  0
 18 15  1  0
 19 20  1  1
 19 18  1  0
 20 21  1  0
 21 22  1  0
 22 26  1  0
 23 22  2  0
 24 19  1  0
 25 24  2  0
 27 24  1  0
M  END
$$$$
