NEE.pdb
     RDKit          3D

 27 26  0  0  1  0  0  0  0  0999 V2000
    8.0411  -12.6060   15.5039 N   0  0  0  0  0  0  0  0  0  0  0  0
    7.7098  -13.4821   16.5666 C   0  0  0  0  0  0  0  0  0  0  0  0
    6.7806  -14.3124   16.3358 O   0  0  0  0  0  0  0  0  0  0  0  0
    8.3278  -13.5204   17.8847 C   0  0  0  0  0  0  0  0  0  0  0  0
    9.1823  -14.6967   18.1811 C   0  0  2  0  0  0  0  0  0  0  0  0
    8.5343  -15.9724   18.1118 N   0  0  0  0  0  0  0  0  0  0  0  0
    9.9442  -14.5920   19.4306 C   0  0  0  0  0  0  0  0  0  0  0  0
   10.7900  -13.6501   19.5581 O   0  0  0  0  0  0  0  0  0  0  0  0
    9.7563  -15.5111   20.4848 N   0  0  0  0  0  0  0  0  0  0  0  0
   10.6579  -15.4194   21.6418 C   0  0  1  0  0  0  0  0  0  0  0  0
   10.0743  -16.2688   22.7611 C   0  0  0  0  0  0  0  0  0  0  0  0
   10.9178  -16.2326   23.9987 C   0  0  0  0  0  0  0  0  0  0  0  0
   10.2834  -17.0447   25.0905 C   0  0  0  0  0  0  0  0  0  0  0  0
   10.7619  -18.1344   25.4381 O   0  0  0  0  0  0  0  0  0  0  0  0
   12.0275  -15.7870   21.2562 C   0  0  0  0  0  0  0  0  0  0  0  0
   12.1774  -16.3008   20.0950 O   0  0  0  0  0  0  0  0  0  0  0  0
    9.1419  -16.5664   25.7208 O   0  0  0  0  0  0  0  0  0  0  0  0
   13.1924  -15.6331   22.0172 N   0  0  0  0  0  0  0  0  0  0  0  0
   14.4900  -15.5285   21.4477 C   0  0  1  0  0  0  0  0  0  0  0  0
   14.5576  -14.7710   20.1581 C   0  0  0  0  0  0  0  0  0  0  0  0
   15.9339  -14.5993   19.5796 C   0  0  0  0  0  0  0  0  0  0  0  0
   15.9678  -13.8821   18.3161 C   0  0  0  0  0  0  0  0  0  0  0  0
   15.4141  -14.2833   17.2659 O   0  0  0  0  0  0  0  0  0  0  0  0
   15.5612  -15.1944   22.4158 C   0  0  0  0  0  0  0  0  0  0  0  0
   16.7580  -15.1753   22.0428 O   0  0  0  0  0  0  0  0  0  0  0  0
   16.6550  -12.6684   18.2459 O   0  0  0  0  0  0  0  0  0  0  0  0
   15.3163  -14.8932   23.7456 O   0  0  0  0  0  0  0  0  0  0  0  0
  2  1  1  0
  3  2  2  0
  4  5  1  0
  4  2  1  0
  5  6  1  1
  7  5  1  0
  7  8  2  0
  9  7  1  0
 10  9  1  0
 10 11  1  1
 11 12  1  0
 12 13  1  0
 13 17  1  0
 14 13  2  0
 15 10  1  0
 16 15  2  0
 18 15  1  0
 19 20  1  6
 19 18  1  0
 20 21  1  0
 21 22  1  0
 22 26  1  0
 23 22  2  0
 24 19  1  0
 25 24  2  0
 27 24  1  0
M  END
$$$$
