NEE.pdb
     RDKit          3D

 27 26  0  0  1  0  0  0  0  0999 V2000
    6.9376  -12.6508   17.8384 N   0  0  0  0  0  0  0  0  0  0  0  0
    7.8167  -13.0965   18.8558 C   0  0  0  0  0  0  0  0  0  0  0  0
    9.0551  -12.9874   18.6101 O   0  0  0  0  0  0  0  0  0  0  0  0
    7.4384  -13.6618   20.1435 C   0  0  0  0  0  0  0  0  0  0  0  0
    8.3383  -14.7023   20.6995 C   0  0  2  0  0  0  0  0  0  0  0  0
    8.6475  -15.7931   19.8238 N   0  0  0  0  0  0  0  0  0  0  0  0
    7.9308  -15.2170   22.0116 C   0  0  0  0  0  0  0  0  0  0  0  0
    7.4279  -14.4119   22.8589 O   0  0  0  0  0  0  0  0  0  0  0  0
    8.0860  -16.5789   22.3472 N   0  0  0  0  0  0  0  0  0  0  0  0
    7.6986  -16.9988   23.7013 C   0  0  1  0  0  0  0  0  0  0  0  0
    7.7393  -18.5189   23.7518 C   0  0  0  0  0  0  0  0  0  0  0  0
    6.4517  -19.1356   23.2976 C   0  0  0  0  0  0  0  0  0  0  0  0
    6.5461  -20.6336   23.3322 C   0  0  0  0  0  0  0  0  0  0  0  0
    5.5265  -21.3387   23.3541 O   0  0  0  0  0  0  0  0  0  0  0  0
    8.5441  -16.3384   24.7055 C   0  0  0  0  0  0  0  0  0  0  0  0
    9.7467  -16.0763   24.3591 O   0  0  0  0  0  0  0  0  0  0  0  0
    7.7965  -21.2383   23.3399 O   0  0  0  0  0  0  0  0  0  0  0  0
    8.1793  -15.9574   26.0022 N   0  0  0  0  0  0  0  0  0  0  0  0
    9.0523  -15.2738   26.8909 C   0  0  1  0  0  0  0  0  0  0  0  0
    8.4899  -14.0260   27.4977 C   0  0  0  0  0  0  0  0  0  0  0  0
    7.6474  -13.1837   26.5819 C   0  0  0  0  0  0  0  0  0  0  0  0
    6.8705  -12.1576   27.2567 C   0  0  0  0  0  0  0  0  0  0  0  0
    6.7711  -12.0573   28.5019 O   0  0  0  0  0  0  0  0  0  0  0  0
    9.7716  -16.1524   27.8432 C   0  0  0  0  0  0  0  0  0  0  0  0
   10.6364  -15.6679   28.6108 O   0  0  0  0  0  0  0  0  0  0  0  0
    6.1841  -11.2147   26.4886 O   0  0  0  0  0  0  0  0  0  0  0  0
    9.5420  -17.5151   27.9415 O   0  0  0  0  0  0  0  0  0  0  0  0
  2  1  1  0
  3  2  2  0
  4  5  1  0
  4  2  1  0
  5  6  1  6
  7  5  1  0
  7  8  2  0
  9  7  1  0
 10  9  1  0
 10 11  1  6
 11 12  1  0
 12 13  1  0
 13 17  1  0
 14 13  2  0
 15 10  1  0
 16 15  2  0
 18 15  1  0
 19 20  1  1
 19 18  1  0
 20 21  1  0
 21 22  1  0
 22 26  1  0
 23 22  2  0
 24 19  1  0
 25 24  2  0
 27 24  1  0
M  END
$$$$
