YKR.pdb
     RDKit          3D

 33 33  0  0  1  0  0  0  0  0999 V2000
   22.7306  -13.3048  -22.7995 O   0  0  0  0  0  0  0  0  0  0  0  0
   22.5942  -14.3313  -21.8506 C   0  0  0  0  0  0  0  0  0  0  0  0
   22.0466  -15.5272  -22.2952 C   0  0  0  0  0  0  0  0  0  0  0  0
   21.9001  -16.5530  -21.3880 C   0  0  0  0  0  0  0  0  0  0  0  0
   22.2736  -16.4453  -20.0555 C   0  0  0  0  0  0  0  0  0  0  0  0
   22.0852  -17.5872  -19.1533 C   0  0  0  0  0  0  0  0  0  0  0  0
   23.3909  -18.2702  -18.8784 C   0  0  2  0  0  0  0  0  0  0  0  0
   23.8467  -18.9576  -20.0470 N   0  0  0  0  0  0  0  0  0  0  0  0
   23.2546  -19.1951  -17.6950 C   0  0  0  0  0  0  0  0  0  0  0  0
   22.7802  -20.3096  -17.9251 O   0  0  0  0  0  0  0  0  0  0  0  0
   22.8125  -15.2511  -19.6436 C   0  0  0  0  0  0  0  0  0  0  0  0
   22.9663  -14.2072  -20.5477 C   0  0  0  0  0  0  0  0  0  0  0  0
   23.6596  -18.7759  -16.3985 N   0  0  0  0  0  0  0  0  0  0  0  0
   23.5454  -19.5208  -15.1984 C   0  0  1  0  0  0  0  0  0  0  0  0
   24.3992  -19.0138  -14.0324 C   0  0  0  0  0  0  0  0  0  0  0  0
   24.2609  -19.9248  -12.8446 C   0  0  0  0  0  0  0  0  0  0  0  0
   25.1511  -21.1299  -12.9484 C   0  0  0  0  0  0  0  0  0  0  0  0
   24.9839  -22.1062  -11.8454 C   0  0  0  0  0  0  0  0  0  0  0  0
   25.8251  -23.2675  -11.9098 N   0  0  0  0  0  0  0  0  0  0  0  0
   22.2486  -19.9770  -14.7731 C   0  0  0  0  0  0  0  0  0  0  0  0
   21.3514  -19.0798  -14.5815 O   0  0  0  0  0  0  0  0  0  0  0  0
   18.5374  -27.5597  -11.6033 N   0  0  0  0  0  0  0  0  0  0  0  0
   17.6123  -26.4974  -11.3784 C   0  0  0  0  0  0  0  0  0  0  0  0
   16.5027  -26.7554  -10.7505 N   0  0  0  0  0  0  0  0  0  0  0  0
   17.8788  -25.1776  -11.8223 N   0  0  0  0  0  0  0  0  0  0  0  0
   19.1630  -24.7748  -12.3428 C   0  0  0  0  0  0  0  0  0  0  0  0
   19.1588  -23.3049  -12.7869 C   0  0  0  0  0  0  0  0  0  0  0  0
   20.4809  -22.9777  -13.3723 C   0  0  0  0  0  0  0  0  0  0  0  0
   20.5963  -21.6042  -13.9598 C   0  0  2  0  0  0  0  0  0  0  0  0
   21.8576  -21.3152  -14.5425 N   0  0  0  0  0  0  0  0  0  0  0  0
   20.3136  -20.6057  -12.8650 C   0  0  0  0  0  0  0  0  0  0  0  0
   19.0033  -20.3760  -12.5003 O   0  0  0  0  0  0  0  0  0  0  0  0
   21.2206  -19.9821  -12.2792 O   0  0  0  0  0  0  0  0  0  0  0  0
  2  1  1  0
  3  2  2  0
  4  3  1  0
  5 11  1  0
  5  4  2  0
  6  5  1  0
  7  6  1  0
  7  8  1  6
  9 13  1  0
  9  7  1  0
 10  9  2  0
 11 12  2  0
 12  2  1  0
 14 20  1  0
 14 13  1  0
 14 15  1  1
 16 15  1  0
 17 16  1  0
 18 17  1  0
 19 18  1  0
 20 30  1  0
 21 20  2  0
 23 25  1  0
 23 22  1  0
 24 23  2  0
 26 27  1  0
 26 25  1  0
 27 28  1  0
 29 31  1  0
 29 28  1  1
 30 29  1  0
 31 32  1  0
 33 31  2  0
M  END
$$$$
