YKR.pdb
     RDKit          3D

 33 33  0  0  1  0  0  0  0  0999 V2000
   22.9679   -3.3608  -25.6544 O   0  0  0  0  0  0  0  0  0  0  0  0
   22.1987   -4.0966  -24.7382 C   0  0  0  0  0  0  0  0  0  0  0  0
   20.8523   -3.7708  -24.6459 C   0  0  0  0  0  0  0  0  0  0  0  0
   20.0718   -4.4749  -23.7561 C   0  0  0  0  0  0  0  0  0  0  0  0
   20.5685   -5.4909  -22.9514 C   0  0  0  0  0  0  0  0  0  0  0  0
   19.6686   -6.1938  -22.0297 C   0  0  0  0  0  0  0  0  0  0  0  0
   19.1774   -7.4733  -22.6366 C   0  0  2  0  0  0  0  0  0  0  0  0
   18.3248   -7.1981  -23.7516 N   0  0  0  0  0  0  0  0  0  0  0  0
   18.4881   -8.3135  -21.5911 C   0  0  0  0  0  0  0  0  0  0  0  0
   17.3117   -8.0317  -21.3528 O   0  0  0  0  0  0  0  0  0  0  0  0
   21.9038   -5.7918  -23.0636 C   0  0  0  0  0  0  0  0  0  0  0  0
   22.7036   -5.0898  -23.9571 C   0  0  0  0  0  0  0  0  0  0  0  0
   19.1831   -9.3653  -20.9343 N   0  0  0  0  0  0  0  0  0  0  0  0
   18.6631  -10.2216  -19.9320 C   0  0  1  0  0  0  0  0  0  0  0  0
   19.4682  -11.5009  -19.6852 C   0  0  0  0  0  0  0  0  0  0  0  0
   18.7305  -12.4129  -18.7450 C   0  0  0  0  0  0  0  0  0  0  0  0
   19.5503  -13.6099  -18.3571 C   0  0  0  0  0  0  0  0  0  0  0  0
   18.8563  -14.5540  -17.4490 C   0  0  0  0  0  0  0  0  0  0  0  0
   19.6747  -15.5894  -16.8845 N   0  0  0  0  0  0  0  0  0  0  0  0
   18.1499   -9.6511  -18.7147 C   0  0  0  0  0  0  0  0  0  0  0  0
   18.9879   -9.0337  -17.9643 O   0  0  0  0  0  0  0  0  0  0  0  0
   10.4939   -5.8857  -16.8314 N   0  0  0  0  0  0  0  0  0  0  0  0
   10.5547   -7.0704  -16.0391 C   0  0  0  0  0  0  0  0  0  0  0  0
    9.4843   -7.4594  -15.4108 N   0  0  0  0  0  0  0  0  0  0  0  0
   11.7499   -7.8245  -15.9260 N   0  0  0  0  0  0  0  0  0  0  0  0
   12.9643   -7.4689  -16.6197 C   0  0  0  0  0  0  0  0  0  0  0  0
   14.0645   -8.5196  -16.4112 C   0  0  0  0  0  0  0  0  0  0  0  0
   15.2593   -8.1240  -17.1945 C   0  0  0  0  0  0  0  0  0  0  0  0
   16.4412   -9.0349  -17.0595 C   0  0  2  0  0  0  0  0  0  0  0  0
   16.8141   -9.6999  -18.2564 N   0  0  0  0  0  0  0  0  0  0  0  0
   16.1188  -10.0599  -16.0007 C   0  0  0  0  0  0  0  0  0  0  0  0
   16.0846   -9.6605  -14.6809 O   0  0  0  0  0  0  0  0  0  0  0  0
   15.8822  -11.2528  -16.2760 O   0  0  0  0  0  0  0  0  0  0  0  0
  2  1  1  0
  3  2  2  0
  4  3  1  0
  5 11  1  0
  5  4  2  0
  6  5  1  0
  7  6  1  0
  7  8  1  6
  9 13  1  0
  9  7  1  0
 10  9  2  0
 11 12  2  0
 12  2  1  0
 14 20  1  0
 14 13  1  0
 14 15  1  1
 16 15  1  0
 17 16  1  0
 18 17  1  0
 19 18  1  0
 20 30  1  0
 21 20  2  0
 23 25  1  0
 23 22  1  0
 24 23  2  0
 26 27  1  0
 26 25  1  0
 27 28  1  0
 29 31  1  0
 29 28  1  6
 30 29  1  0
 31 32  1  0
 33 31  2  0
M  END
$$$$
