YKR.pdb
     RDKit          3D

 33 33  0  0  1  0  0  0  0  0999 V2000
   20.0469  -22.8044   -7.3293 O   0  0  0  0  0  0  0  0  0  0  0  0
   20.9044  -22.1285   -8.2128 C   0  0  0  0  0  0  0  0  0  0  0  0
   20.7548  -22.4040   -9.5653 C   0  0  0  0  0  0  0  0  0  0  0  0
   21.5813  -21.7565  -10.4566 C   0  0  0  0  0  0  0  0  0  0  0  0
   22.5522  -20.8452  -10.0652 C   0  0  0  0  0  0  0  0  0  0  0  0
   23.3916  -20.1969  -11.0795 C   0  0  0  0  0  0  0  0  0  0  0  0
   24.4421  -21.1398  -11.5838 C   0  0  2  0  0  0  0  0  0  0  0  0
   25.3434  -21.4880  -10.5293 N   0  0  0  0  0  0  0  0  0  0  0  0
   25.1593  -20.5352  -12.7647 C   0  0  0  0  0  0  0  0  0  0  0  0
   25.6847  -19.4353  -12.5796 O   0  0  0  0  0  0  0  0  0  0  0  0
   22.6779  -20.5920   -8.7213 C   0  0  0  0  0  0  0  0  0  0  0  0
   21.8510  -21.2378   -7.8103 C   0  0  0  0  0  0  0  0  0  0  0  0
   25.2095  -21.2204  -14.0092 N   0  0  0  0  0  0  0  0  0  0  0  0
   25.3512  -20.6311  -15.2901 C   0  0  1  0  0  0  0  0  0  0  0  0
   25.9542  -21.5417  -16.3638 C   0  0  0  0  0  0  0  0  0  0  0  0
   27.2765  -22.0906  -15.9054 C   0  0  0  0  0  0  0  0  0  0  0  0
   27.9061  -22.9848  -16.9346 C   0  0  0  0  0  0  0  0  0  0  0  0
   29.2358  -23.5144  -16.5484 C   0  0  0  0  0  0  0  0  0  0  0  0
   29.8612  -24.3830  -17.5049 N   0  0  0  0  0  0  0  0  0  0  0  0
   24.2950  -19.7995  -15.8037 C   0  0  0  0  0  0  0  0  0  0  0  0
   23.0949  -20.2301  -15.6600 O   0  0  0  0  0  0  0  0  0  0  0  0
   22.3833  -11.1681  -16.0005 N   0  0  0  0  0  0  0  0  0  0  0  0
   21.1913  -11.8938  -16.2962 C   0  0  0  0  0  0  0  0  0  0  0  0
   20.0569  -11.2575  -16.3077 N   0  0  0  0  0  0  0  0  0  0  0  0
   21.2211  -13.2834  -16.5759 N   0  0  0  0  0  0  0  0  0  0  0  0
   22.4078  -14.0870  -16.4074 C   0  0  0  0  0  0  0  0  0  0  0  0
   22.1519  -15.5579  -16.7662 C   0  0  0  0  0  0  0  0  0  0  0  0
   23.3841  -16.3376  -16.4986 C   0  0  0  0  0  0  0  0  0  0  0  0
   23.2982  -17.7979  -16.8230 C   0  0  2  0  0  0  0  0  0  0  0  0
   24.4414  -18.5531  -16.4533 N   0  0  0  0  0  0  0  0  0  0  0  0
   23.0730  -17.9310  -18.3086 C   0  0  0  0  0  0  0  0  0  0  0  0
   24.1685  -18.0776  -19.1339 O   0  0  0  0  0  0  0  0  0  0  0  0
   21.9341  -17.9136  -18.8157 O   0  0  0  0  0  0  0  0  0  0  0  0
  2  1  1  0
  3  2  2  0
  4  3  1  0
  5 11  1  0
  5  4  2  0
  6  5  1  0
  7  6  1  0
  7  8  1  1
  9 13  1  0
  9  7  1  0
 10  9  2  0
 11 12  2  0
 12  2  1  0
 14 20  1  0
 14 13  1  0
 14 15  1  6
 16 15  1  0
 17 16  1  0
 18 17  1  0
 19 18  1  0
 20 30  1  0
 21 20  2  0
 23 25  1  0
 23 22  1  0
 24 23  2  0
 26 27  1  0
 26 25  1  0
 27 28  1  0
 29 31  1  0
 29 28  1  6
 30 29  1  0
 31 32  1  0
 33 31  2  0
M  END
$$$$
