YKR.pdb
     RDKit          3D

 33 33  0  0  1  0  0  0  0  0999 V2000
   23.9851  -32.8151  -19.6018 O   0  0  0  0  0  0  0  0  0  0  0  0
   23.2845  -31.8949  -18.8048 C   0  0  0  0  0  0  0  0  0  0  0  0
   23.1176  -30.6173  -19.3219 C   0  0  0  0  0  0  0  0  0  0  0  0
   22.4345  -29.6925  -18.5637 C   0  0  0  0  0  0  0  0  0  0  0  0
   21.9081  -29.9791  -17.3118 C   0  0  0  0  0  0  0  0  0  0  0  0
   21.1915  -28.9362  -16.5686 C   0  0  0  0  0  0  0  0  0  0  0  0
   22.1392  -27.8813  -16.0830 C   0  0  2  0  0  0  0  0  0  0  0  0
   23.0492  -28.4338  -15.1279 N   0  0  0  0  0  0  0  0  0  0  0  0
   21.3710  -26.7112  -15.5216 C   0  0  0  0  0  0  0  0  0  0  0  0
   21.1169  -26.7530  -14.3159 O   0  0  0  0  0  0  0  0  0  0  0  0
   22.0882  -31.2507  -16.8253 C   0  0  0  0  0  0  0  0  0  0  0  0
   22.7753  -32.1944  -17.5791 C   0  0  0  0  0  0  0  0  0  0  0  0
   20.9760  -25.6347  -16.3617 N   0  0  0  0  0  0  0  0  0  0  0  0
   20.1919  -24.5160  -15.9850 C   0  0  1  0  0  0  0  0  0  0  0  0
   20.3159  -23.2946  -16.9005 C   0  0  0  0  0  0  0  0  0  0  0  0
   19.5372  -22.1369  -16.3408 C   0  0  0  0  0  0  0  0  0  0  0  0
   19.7453  -20.8782  -17.1331 C   0  0  0  0  0  0  0  0  0  0  0  0
   18.9670  -19.7155  -16.6431 C   0  0  0  0  0  0  0  0  0  0  0  0
   19.1707  -18.4859  -17.3552 N   0  0  0  0  0  0  0  0  0  0  0  0
   18.8447  -24.7233  -15.5238 C   0  0  0  0  0  0  0  0  0  0  0  0
   18.0200  -25.2464  -16.3561 O   0  0  0  0  0  0  0  0  0  0  0  0
   18.9331  -25.5093   -7.9529 N   0  0  0  0  0  0  0  0  0  0  0  0
   17.5822  -25.0551   -8.0128 C   0  0  0  0  0  0  0  0  0  0  0  0
   16.8526  -25.1159   -6.9377 N   0  0  0  0  0  0  0  0  0  0  0  0
   17.0263  -24.5427   -9.2121 N   0  0  0  0  0  0  0  0  0  0  0  0
   17.8239  -24.2528  -10.3791 C   0  0  0  0  0  0  0  0  0  0  0  0
   16.9534  -23.8157  -11.5663 C   0  0  0  0  0  0  0  0  0  0  0  0
   16.7443  -24.9793  -12.4608 C   0  0  0  0  0  0  0  0  0  0  0  0
   16.9861  -24.7169  -13.9161 C   0  0  2  0  0  0  0  0  0  0  0  0
   18.3318  -24.4094  -14.2450 N   0  0  0  0  0  0  0  0  0  0  0  0
   16.0974  -23.5724  -14.3353 C   0  0  0  0  0  0  0  0  0  0  0  0
   14.7297  -23.7317  -14.2541 O   0  0  0  0  0  0  0  0  0  0  0  0
   16.5546  -22.4896  -14.7516 O   0  0  0  0  0  0  0  0  0  0  0  0
  2  1  1  0
  3  2  2  0
  4  3  1  0
  5 11  1  0
  5  4  2  0
  6  5  1  0
  7  6  1  0
  7  8  1  1
  9 13  1  0
  9  7  1  0
 10  9  2  0
 11 12  2  0
 12  2  1  0
 14 20  1  0
 14 13  1  0
 14 15  1  6
 16 15  1  0
 17 16  1  0
 18 17  1  0
 19 18  1  0
 20 30  1  0
 21 20  2  0
 23 25  1  0
 23 22  1  0
 24 23  2  0
 26 27  1  0
 26 25  1  0
 27 28  1  0
 29 31  1  0
 29 28  1  1
 30 29  1  0
 31 32  1  0
 33 31  2  0
M  END
$$$$
