YKR.pdb
     RDKit          3D

 33 33  0  0  1  0  0  0  0  0999 V2000
   22.9290  -10.2891  -16.9720 O   0  0  0  0  0  0  0  0  0  0  0  0
   23.1150  -11.6341  -16.6127 C   0  0  0  0  0  0  0  0  0  0  0  0
   22.0103  -12.4688  -16.7148 C   0  0  0  0  0  0  0  0  0  0  0  0
   22.1614  -13.7935  -16.3696 C   0  0  0  0  0  0  0  0  0  0  0  0
   23.3628  -14.3288  -15.9263 C   0  0  0  0  0  0  0  0  0  0  0  0
   23.4401  -15.7527  -15.5795 C   0  0  0  0  0  0  0  0  0  0  0  0
   24.2322  -16.5082  -16.6035 C   0  0  2  0  0  0  0  0  0  0  0  0
   23.5516  -16.5008  -17.8615 N   0  0  0  0  0  0  0  0  0  0  0  0
   24.5077  -17.9090  -16.1175 C   0  0  0  0  0  0  0  0  0  0  0  0
   23.5281  -18.6482  -15.9987 O   0  0  0  0  0  0  0  0  0  0  0  0
   24.4387  -13.4802  -15.8351 C   0  0  0  0  0  0  0  0  0  0  0  0
   24.3012  -12.1412  -16.1800 C   0  0  0  0  0  0  0  0  0  0  0  0
   25.8345  -18.3244  -15.8213 N   0  0  0  0  0  0  0  0  0  0  0  0
   26.2189  -19.5443  -15.2112 C   0  0  1  0  0  0  0  0  0  0  0  0
   27.6373  -20.0194  -15.5400 C   0  0  0  0  0  0  0  0  0  0  0  0
   27.7290  -20.4440  -16.9792 C   0  0  0  0  0  0  0  0  0  0  0  0
   29.0605  -21.0572  -17.3051 C   0  0  0  0  0  0  0  0  0  0  0  0
   29.2699  -21.3249  -18.7481 C   0  0  0  0  0  0  0  0  0  0  0  0
   30.5402  -21.8950  -19.0971 N   0  0  0  0  0  0  0  0  0  0  0  0
   25.8608  -19.7893  -13.8392 C   0  0  0  0  0  0  0  0  0  0  0  0
   26.5004  -19.1276  -12.9450 O   0  0  0  0  0  0  0  0  0  0  0  0
   17.9726  -21.8084  -11.4291 N   0  0  0  0  0  0  0  0  0  0  0  0
   18.7362  -22.9602  -11.7829 C   0  0  0  0  0  0  0  0  0  0  0  0
   18.1282  -24.1046  -11.8954 N   0  0  0  0  0  0  0  0  0  0  0  0
   20.1329  -22.8802  -12.0126 N   0  0  0  0  0  0  0  0  0  0  0  0
   20.8277  -21.6242  -12.1604 C   0  0  0  0  0  0  0  0  0  0  0  0
   22.3269  -21.8327  -12.4188 C   0  0  0  0  0  0  0  0  0  0  0  0
   23.0882  -20.7903  -11.6897 C   0  0  0  0  0  0  0  0  0  0  0  0
   24.5556  -20.7450  -11.9892 C   0  0  2  0  0  0  0  0  0  0  0  0
   24.8747  -20.6866  -13.3708 N   0  0  0  0  0  0  0  0  0  0  0  0
   25.1911  -21.9714  -11.3832 C   0  0  0  0  0  0  0  0  0  0  0  0
   25.1978  -22.1041  -10.0102 O   0  0  0  0  0  0  0  0  0  0  0  0
   25.7094  -22.8678  -12.0780 O   0  0  0  0  0  0  0  0  0  0  0  0
  2  1  1  0
  3  2  2  0
  4  3  1  0
  5 11  1  0
  5  4  2  0
  6  5  1  0
  7  6  1  0
  7  8  1  6
  9 13  1  0
  9  7  1  0
 10  9  2  0
 11 12  2  0
 12  2  1  0
 14 20  1  0
 14 13  1  0
 14 15  1  1
 16 15  1  0
 17 16  1  0
 18 17  1  0
 19 18  1  0
 20 30  1  0
 21 20  2  0
 23 25  1  0
 23 22  1  0
 24 23  2  0
 26 27  1  0
 26 25  1  0
 27 28  1  0
 29 31  1  0
 29 28  1  6
 30 29  1  0
 31 32  1  0
 33 31  2  0
M  END
$$$$
