YKR.pdb
     RDKit          3D

 33 33  0  0  1  0  0  0  0  0999 V2000
   29.9024  -19.8823   -3.1359 O   0  0  0  0  0  0  0  0  0  0  0  0
   29.1529  -19.7875   -4.3199 C   0  0  0  0  0  0  0  0  0  0  0  0
   29.4284  -18.7105   -5.1517 C   0  0  0  0  0  0  0  0  0  0  0  0
   28.7098  -18.5904   -6.3205 C   0  0  0  0  0  0  0  0  0  0  0  0
   27.7274  -19.4935   -6.7023 C   0  0  0  0  0  0  0  0  0  0  0  0
   27.0082  -19.2939   -7.9658 C   0  0  0  0  0  0  0  0  0  0  0  0
   26.5669  -20.6060   -8.5407 C   0  0  2  0  0  0  0  0  0  0  0  0
   27.6634  -21.5235   -8.5814 N   0  0  0  0  0  0  0  0  0  0  0  0
   25.9535  -20.3967   -9.9024 C   0  0  0  0  0  0  0  0  0  0  0  0
   24.9868  -19.6331   -9.9542 O   0  0  0  0  0  0  0  0  0  0  0  0
   27.4761  -20.5490   -5.8604 C   0  0  0  0  0  0  0  0  0  0  0  0
   28.1932  -20.6832   -4.6778 C   0  0  0  0  0  0  0  0  0  0  0  0
   26.4832  -21.0575  -11.0441 N   0  0  0  0  0  0  0  0  0  0  0  0
   26.0467  -20.9054  -12.3836 C   0  0  1  0  0  0  0  0  0  0  0  0
   27.0874  -21.2528  -13.4522 C   0  0  0  0  0  0  0  0  0  0  0  0
   26.5401  -20.9831  -14.8262 C   0  0  0  0  0  0  0  0  0  0  0  0
   27.5058  -21.3750  -15.9075 C   0  0  0  0  0  0  0  0  0  0  0  0
   27.1016  -20.9471  -17.2681 C   0  0  0  0  0  0  0  0  0  0  0  0
   27.9539  -21.3852  -18.3368 N   0  0  0  0  0  0  0  0  0  0  0  0
   24.7218  -21.3347  -12.7458 C   0  0  0  0  0  0  0  0  0  0  0  0
   24.2609  -22.3686  -12.1416 O   0  0  0  0  0  0  0  0  0  0  0  0
   17.4842  -17.0034  -14.4465 N   0  0  0  0  0  0  0  0  0  0  0  0
   18.0174  -18.0900  -15.2015 C   0  0  0  0  0  0  0  0  0  0  0  0
   17.2696  -18.6512  -16.1057 N   0  0  0  0  0  0  0  0  0  0  0  0
   19.3361  -18.5639  -14.9861 N   0  0  0  0  0  0  0  0  0  0  0  0
   20.1875  -18.0508  -13.9401 C   0  0  0  0  0  0  0  0  0  0  0  0
   21.5973  -18.6556  -14.0090 C   0  0  0  0  0  0  0  0  0  0  0  0
   21.6422  -19.8646  -13.1523 C   0  0  0  0  0  0  0  0  0  0  0  0
   22.4757  -20.9915  -13.6820 C   0  0  2  0  0  0  0  0  0  0  0  0
   23.8713  -20.7350  -13.7019 N   0  0  0  0  0  0  0  0  0  0  0  0
   22.0062  -21.2976  -15.0825 C   0  0  0  0  0  0  0  0  0  0  0  0
   22.8167  -20.9508  -16.1434 O   0  0  0  0  0  0  0  0  0  0  0  0
   20.9137  -21.8522  -15.3144 O   0  0  0  0  0  0  0  0  0  0  0  0
  2  1  1  0
  3  2  2  0
  4  3  1  0
  5 11  1  0
  5  4  2  0
  6  5  1  0
  7  6  1  0
  7  8  1  6
  9 13  1  0
  9  7  1  0
 10  9  2  0
 11 12  2  0
 12  2  1  0
 14 20  1  0
 14 13  1  0
 14 15  1  6
 16 15  1  0
 17 16  1  0
 18 17  1  0
 19 18  1  0
 20 30  1  0
 21 20  2  0
 23 25  1  0
 23 22  1  0
 24 23  2  0
 26 27  1  0
 26 25  1  0
 27 28  1  0
 29 31  1  0
 29 28  1  6
 30 29  1  0
 31 32  1  0
 33 31  2  0
M  END
$$$$
