YKR.pdb
     RDKit          3D

 33 33  0  0  1  0  0  0  0  0999 V2000
   18.3334  -20.0149  -16.4610 O   0  0  0  0  0  0  0  0  0  0  0  0
   18.1516  -20.7526  -15.2797 C   0  0  0  0  0  0  0  0  0  0  0  0
   19.1884  -21.5944  -14.9003 C   0  0  0  0  0  0  0  0  0  0  0  0
   19.0396  -22.3309  -13.7461 C   0  0  0  0  0  0  0  0  0  0  0  0
   17.9050  -22.2696  -12.9490 C   0  0  0  0  0  0  0  0  0  0  0  0
   17.8263  -23.0868  -11.7327 C   0  0  0  0  0  0  0  0  0  0  0  0
   17.2577  -24.4402  -12.0358 C   0  0  2  0  0  0  0  0  0  0  0  0
   15.8883  -24.3253  -12.4325 N   0  0  0  0  0  0  0  0  0  0  0  0
   17.4279  -25.3535  -10.8479 C   0  0  0  0  0  0  0  0  0  0  0  0
   16.7298  -25.1036   -9.8628 O   0  0  0  0  0  0  0  0  0  0  0  0
   16.8954  -21.4286  -13.3484 C   0  0  0  0  0  0  0  0  0  0  0  0
   17.0315  -20.6793  -14.5107 C   0  0  0  0  0  0  0  0  0  0  0  0
   18.3503  -26.4341  -10.8921 N   0  0  0  0  0  0  0  0  0  0  0  0
   18.6989  -27.2888   -9.8168 C   0  0  1  0  0  0  0  0  0  0  0  0
   19.7025  -28.3934  -10.1606 C   0  0  0  0  0  0  0  0  0  0  0  0
   19.9545  -29.2660   -8.9627 C   0  0  0  0  0  0  0  0  0  0  0  0
   20.9092  -30.3845   -9.2673 C   0  0  0  0  0  0  0  0  0  0  0  0
   21.1576  -31.2995   -8.1277 C   0  0  0  0  0  0  0  0  0  0  0  0
   22.0061  -32.4233   -8.4058 N   0  0  0  0  0  0  0  0  0  0  0  0
   18.9278  -26.7237   -8.5134 C   0  0  0  0  0  0  0  0  0  0  0  0
   19.9177  -25.9157   -8.3966 O   0  0  0  0  0  0  0  0  0  0  0  0
   13.3327  -22.2394   -4.9062 N   0  0  0  0  0  0  0  0  0  0  0  0
   13.7008  -22.8650   -6.1342 C   0  0  0  0  0  0  0  0  0  0  0  0
   13.1426  -22.4583   -7.2365 N   0  0  0  0  0  0  0  0  0  0  0  0
   14.6559  -23.9120   -6.1741 N   0  0  0  0  0  0  0  0  0  0  0  0
   15.1843  -24.5306   -4.9824 C   0  0  0  0  0  0  0  0  0  0  0  0
   16.1064  -25.7118   -5.3181 C   0  0  0  0  0  0  0  0  0  0  0  0
   17.3862  -25.1845   -5.8490 C   0  0  0  0  0  0  0  0  0  0  0  0
   18.4224  -26.2206   -6.1617 C   0  0  2  0  0  0  0  0  0  0  0  0
   18.1740  -26.9665   -7.3431 N   0  0  0  0  0  0  0  0  0  0  0  0
   18.5061  -27.1629   -4.9867 C   0  0  0  0  0  0  0  0  0  0  0  0
   18.1455  -28.4818   -5.1686 O   0  0  0  0  0  0  0  0  0  0  0  0
   18.8890  -26.7925   -3.8594 O   0  0  0  0  0  0  0  0  0  0  0  0
  2  1  1  0
  3  2  2  0
  4  3  1  0
  5 11  1  0
  5  4  2  0
  6  5  1  0
  7  6  1  0
  7  8  1  1
  9 13  1  0
  9  7  1  0
 10  9  2  0
 11 12  2  0
 12  2  1  0
 14 20  1  0
 14 13  1  0
 14 15  1  6
 16 15  1  0
 17 16  1  0
 18 17  1  0
 19 18  1  0
 20 30  1  0
 21 20  2  0
 23 25  1  0
 23 22  1  0
 24 23  2  0
 26 27  1  0
 26 25  1  0
 27 28  1  0
 29 31  1  0
 29 28  1  1
 30 29  1  0
 31 32  1  0
 33 31  2  0
M  END
$$$$
