MAL.pdb
     RDKit          3D

 22 21  0  0  1  0  0  0  0  0999 V2000
    6.2173  -11.8658   26.8192 C   0  0  0  0  0  0  0  0  0  0  0  0
    6.9442  -11.1404   25.3554 S   0  0  0  0  0  0  0  0  0  0  0  0
    7.0466  -12.1571   23.9201 C   0  0  0  0  0  0  0  0  0  0  0  0
    7.5973  -13.5074   24.1089 C   0  0  0  0  0  0  0  0  0  0  0  0
    7.8018  -14.3526   22.9230 C   0  0  2  0  0  0  0  0  0  0  0  0
    6.5813  -14.6432   22.2257 N   0  0  0  0  0  0  0  0  0  0  0  0
    8.4638  -15.6644   23.2669 C   0  0  0  0  0  0  0  0  0  0  0  0
    7.8457  -16.4852   23.9723 O   0  0  0  0  0  0  0  0  0  0  0  0
   11.7645  -17.2358   22.4638 C   0  0  0  0  0  0  0  0  0  0  0  0
   10.5680  -17.0606   23.3823 C   0  0  2  0  0  0  0  0  0  0  0  0
    9.7596  -16.0069   22.8230 N   0  0  0  0  0  0  0  0  0  0  0  0
   11.0836  -16.7510   24.7176 C   0  0  0  0  0  0  0  0  0  0  0  0
   11.9453  -15.8622   24.8690 O   0  0  0  0  0  0  0  0  0  0  0  0
   11.0050  -14.0325   27.7916 C   0  0  0  0  0  0  0  0  0  0  0  0
    9.8317  -14.8856   27.3333 C   0  0  2  0  0  0  0  0  0  0  0  0
    8.6032  -14.1993   27.9071 C   0  0  0  0  0  0  0  0  0  0  0  0
    9.9995  -16.2550   27.8874 C   0  0  0  0  0  0  0  0  0  0  0  0
   10.9871  -17.1274   27.1970 C   0  0  2  0  0  0  0  0  0  0  0  0
   10.6003  -17.4655   25.8404 N   0  0  0  0  0  0  0  0  0  0  0  0
   11.4082  -18.3230   27.8944 C   0  0  0  0  0  0  0  0  0  0  0  0
   11.0498  -19.4441   27.4454 O   0  0  0  0  0  0  0  0  0  0  0  0
   12.1842  -18.3917   29.0353 O   0  0  0  0  0  0  0  0  0  0  0  0
  2  1  1  0
  3  4  1  0
  3  2  1  0
  4  5  1  0
  5  6  1  1
  7  5  1  0
  7 11  1  0
  8  7  2  0
 10  9  1  6
 10 11  1  0
 10 12  1  0
 12 19  1  0
 13 12  2  0
 15 14  1  1
 16 15  1  0
 17 15  1  0
 18 17  1  1
 19 18  1  0
 20 18  1  0
 20 22  1  0
 21 20  2  0
M  END
$$$$
