MAL.pdb
     RDKit          3D

 22 21  0  0  1  0  0  0  0  0999 V2000
    9.6837  -12.3296   18.6832 C   0  0  0  0  0  0  0  0  0  0  0  0
    7.9433  -12.4359   19.0793 S   0  0  0  0  0  0  0  0  0  0  0  0
    7.3434  -13.9887   19.6569 C   0  0  0  0  0  0  0  0  0  0  0  0
    8.0783  -15.1831   19.2144 C   0  0  0  0  0  0  0  0  0  0  0  0
    7.6380  -16.4979   19.7042 C   0  0  2  0  0  0  0  0  0  0  0  0
    6.2614  -16.7740   19.4056 N   0  0  0  0  0  0  0  0  0  0  0  0
    7.8279  -16.6425   21.1943 C   0  0  0  0  0  0  0  0  0  0  0  0
    6.9021  -16.3022   21.9561 O   0  0  0  0  0  0  0  0  0  0  0  0
   10.5641  -18.0496   23.3324 C   0  0  0  0  0  0  0  0  0  0  0  0
    9.2157  -17.3683   23.1786 C   0  0  2  0  0  0  0  0  0  0  0  0
    9.0139  -17.1493   21.7687 N   0  0  0  0  0  0  0  0  0  0  0  0
    9.2604  -16.1296   23.9586 C   0  0  0  0  0  0  0  0  0  0  0  0
    9.9008  -15.1448   23.5396 O   0  0  0  0  0  0  0  0  0  0  0  0
    5.6119  -12.6861   27.1239 C   0  0  0  0  0  0  0  0  0  0  0  0
    7.0858  -13.0177   26.9456 C   0  0  2  0  0  0  0  0  0  0  0  0
    7.6782  -11.8012   26.2537 C   0  0  0  0  0  0  0  0  0  0  0  0
    7.1965  -14.2342   26.0981 C   0  0  0  0  0  0  0  0  0  0  0  0
    8.5507  -14.8407   25.9918 C   0  0  2  0  0  0  0  0  0  0  0  0
    8.5728  -16.0520   25.1939 N   0  0  0  0  0  0  0  0  0  0  0  0
    9.2717  -15.0593   27.2269 C   0  0  0  0  0  0  0  0  0  0  0  0
    9.4063  -14.0965   28.0281 O   0  0  0  0  0  0  0  0  0  0  0  0
    9.8535  -16.2372   27.6541 O   0  0  0  0  0  0  0  0  0  0  0  0
  2  1  1  0
  3  4  1  0
  3  2  1  0
  4  5  1  0
  5  6  1  1
  7  5  1  0
  7 11  1  0
  8  7  2  0
 10  9  1  6
 10 11  1  0
 10 12  1  0
 12 19  1  0
 13 12  2  0
 15 14  1  6
 16 15  1  0
 17 15  1  0
 18 17  1  1
 19 18  1  0
 20 18  1  0
 20 22  1  0
 21 20  2  0
M  END
$$$$
