MAL.pdb
     RDKit          3D

 22 21  0  0  1  0  0  0  0  0999 V2000
    6.2408  -12.2278   25.0877 C   0  0  0  0  0  0  0  0  0  0  0  0
    5.6472  -13.5941   26.0766 S   0  0  0  0  0  0  0  0  0  0  0  0
    6.1936  -15.2082   25.6286 C   0  0  0  0  0  0  0  0  0  0  0  0
    6.6464  -15.3873   24.2411 C   0  0  0  0  0  0  0  0  0  0  0  0
    6.9637  -16.7464   23.7777 C   0  0  2  0  0  0  0  0  0  0  0  0
    6.1777  -17.7568   24.4271 N   0  0  0  0  0  0  0  0  0  0  0  0
    8.4193  -17.0903   23.9781 C   0  0  0  0  0  0  0  0  0  0  0  0
    8.7142  -18.0929   24.6572 O   0  0  0  0  0  0  0  0  0  0  0  0
   11.6172  -15.6415   22.6657 C   0  0  0  0  0  0  0  0  0  0  0  0
   10.8600  -16.7005   23.4475 C   0  0  2  0  0  0  0  0  0  0  0  0
    9.4694  -16.3234   23.4279 N   0  0  0  0  0  0  0  0  0  0  0  0
   11.4321  -16.7416   24.7950 C   0  0  0  0  0  0  0  0  0  0  0  0
   12.6044  -17.1299   24.9694 O   0  0  0  0  0  0  0  0  0  0  0  0
   10.2145  -13.1944   28.8676 C   0  0  0  0  0  0  0  0  0  0  0  0
   11.2135  -14.2677   28.4622 C   0  0  2  0  0  0  0  0  0  0  0  0
   11.8576  -13.7404   27.1907 C   0  0  0  0  0  0  0  0  0  0  0  0
   10.4722  -15.5322   28.2133 C   0  0  0  0  0  0  0  0  0  0  0  0
   11.1073  -16.4925   27.2711 C   0  0  2  0  0  0  0  0  0  0  0  0
   10.6488  -16.3385   25.9035 N   0  0  0  0  0  0  0  0  0  0  0  0
   11.0773  -17.8913   27.6390 C   0  0  0  0  0  0  0  0  0  0  0  0
   10.4019  -18.6884   26.9351 O   0  0  0  0  0  0  0  0  0  0  0  0
   11.7216  -18.4854   28.7069 O   0  0  0  0  0  0  0  0  0  0  0  0
  2  1  1  0
  3  4  1  0
  3  2  1  0
  4  5  1  0
  5  6  1  1
  7  5  1  0
  7 11  1  0
  8  7  2  0
 10  9  1  6
 10 11  1  0
 10 12  1  0
 12 19  1  0
 13 12  2  0
 15 14  1  6
 16 15  1  0
 17 15  1  0
 18 17  1  1
 19 18  1  0
 20 18  1  0
 20 22  1  0
 21 20  2  0
M  END
$$$$
