MAL.pdb
     RDKit          3D

 22 21  0  0  1  0  0  0  0  0999 V2000
    8.6571  -18.5927   28.6214 C   0  0  0  0  0  0  0  0  0  0  0  0
    7.1283  -19.4985   28.4229 S   0  0  0  0  0  0  0  0  0  0  0  0
    6.3866  -19.4838   26.8247 C   0  0  0  0  0  0  0  0  0  0  0  0
    7.2824  -19.2298   25.6866 C   0  0  0  0  0  0  0  0  0  0  0  0
    6.6995  -19.1600   24.3383 C   0  0  2  0  0  0  0  0  0  0  0  0
    6.7148  -20.4227   23.6559 N   0  0  0  0  0  0  0  0  0  0  0  0
    7.4052  -18.1516   23.4651 C   0  0  0  0  0  0  0  0  0  0  0  0
    8.5934  -18.3547   23.1487 O   0  0  0  0  0  0  0  0  0  0  0  0
    6.3723  -15.0890   21.6031 C   0  0  0  0  0  0  0  0  0  0  0  0
    7.4478  -15.9170   22.2840 C   0  0  2  0  0  0  0  0  0  0  0  0
    6.7769  -16.9812   22.9868 N   0  0  0  0  0  0  0  0  0  0  0  0
    8.1973  -15.0199   23.1661 C   0  0  0  0  0  0  0  0  0  0  0  0
    8.9299  -14.1323   22.6855 O   0  0  0  0  0  0  0  0  0  0  0  0
    7.2012  -11.5341   25.1540 C   0  0  0  0  0  0  0  0  0  0  0  0
    6.6850  -12.8417   25.7354 C   0  0  2  0  0  0  0  0  0  0  0  0
    5.6248  -12.4288   26.7428 C   0  0  0  0  0  0  0  0  0  0  0  0
    7.8175  -13.5448   26.3938 C   0  0  0  0  0  0  0  0  0  0  0  0
    8.7572  -14.2654   25.4932 C   0  0  2  0  0  0  0  0  0  0  0  0
    8.0886  -15.1630   24.5705 N   0  0  0  0  0  0  0  0  0  0  0  0
    9.8700  -14.9490   26.1157 C   0  0  0  0  0  0  0  0  0  0  0  0
   10.6152  -14.3035   26.9000 O   0  0  0  0  0  0  0  0  0  0  0  0
   10.2315  -16.2721   25.9515 O   0  0  0  0  0  0  0  0  0  0  0  0
  2  1  1  0
  3  4  1  0
  3  2  1  0
  4  5  1  0
  5  6  1  6
  7  5  1  0
  7 11  1  0
  8  7  2  0
 10  9  1  1
 10 11  1  0
 10 12  1  0
 12 19  1  0
 13 12  2  0
 15 14  1  1
 16 15  1  0
 17 15  1  0
 18 17  1  1
 19 18  1  0
 20 18  1  0
 20 22  1  0
 21 20  2  0
M  END
$$$$
