MAL.pdb
     RDKit          3D

 22 21  0  0  1  0  0  0  0  0999 V2000
    7.5680  -11.7774   20.8478 C   0  0  0  0  0  0  0  0  0  0  0  0
    6.3447  -13.0811   20.8839 S   0  0  0  0  0  0  0  0  0  0  0  0
    6.9323  -14.7385   20.7735 C   0  0  0  0  0  0  0  0  0  0  0  0
    7.8549  -15.1806   21.8297 C   0  0  0  0  0  0  0  0  0  0  0  0
    8.4087  -16.5406   21.7519 C   0  0  2  0  0  0  0  0  0  0  0  0
    7.3950  -17.5548   21.6878 N   0  0  0  0  0  0  0  0  0  0  0  0
    9.3081  -16.8564   22.9218 C   0  0  0  0  0  0  0  0  0  0  0  0
    8.9617  -17.7426   23.7267 O   0  0  0  0  0  0  0  0  0  0  0  0
   12.8045  -15.8673   23.7724 C   0  0  0  0  0  0  0  0  0  0  0  0
   11.5126  -16.5818   24.1280 C   0  0  2  0  0  0  0  0  0  0  0  0
   10.5319  -16.1896   23.1478 N   0  0  0  0  0  0  0  0  0  0  0  0
   11.1581  -16.1902   25.4939 C   0  0  0  0  0  0  0  0  0  0  0  0
   11.9592  -16.3796   26.4308 O   0  0  0  0  0  0  0  0  0  0  0  0
    8.8185  -12.1405   26.4980 C   0  0  0  0  0  0  0  0  0  0  0  0
    8.0377  -13.3709   26.0612 C   0  0  2  0  0  0  0  0  0  0  0  0
    6.5934  -12.9059   25.9754 C   0  0  0  0  0  0  0  0  0  0  0  0
    8.2092  -14.4287   27.0917 C   0  0  0  0  0  0  0  0  0  0  0  0
    9.5056  -15.1584   27.0759 C   0  0  2  0  0  0  0  0  0  0  0  0
    9.8995  -15.5943   25.7496 N   0  0  0  0  0  0  0  0  0  0  0  0
    9.6556  -16.2519   28.0112 C   0  0  0  0  0  0  0  0  0  0  0  0
    9.9094  -15.9875   29.2165 O   0  0  0  0  0  0  0  0  0  0  0  0
    9.5512  -17.6020   27.7374 O   0  0  0  0  0  0  0  0  0  0  0  0
  2  1  1  0
  3  4  1  0
  3  2  1  0
  4  5  1  0
  5  6  1  1
  7  5  1  0
  7 11  1  0
  8  7  2  0
 10  9  1  6
 10 11  1  0
 10 12  1  0
 12 19  1  0
 13 12  2  0
 15 14  1  1
 16 15  1  0
 17 15  1  0
 18 17  1  6
 19 18  1  0
 20 18  1  0
 20 22  1  0
 21 20  2  0
M  END
$$$$
