MAL.pdb
     RDKit          3D

 22 21  0  0  1  0  0  0  0  0999 V2000
    8.5882  -12.3997   20.8399 C   0  0  0  0  0  0  0  0  0  0  0  0
    6.9246  -13.0453   20.7268 S   0  0  0  0  0  0  0  0  0  0  0  0
    6.7193  -14.7815   20.9455 C   0  0  0  0  0  0  0  0  0  0  0  0
    7.6570  -15.4437   21.8645 C   0  0  0  0  0  0  0  0  0  0  0  0
    8.5879  -16.4415   21.3165 C   0  0  2  0  0  0  0  0  0  0  0  0
    7.9201  -17.5842   20.7609 N   0  0  0  0  0  0  0  0  0  0  0  0
    9.5678  -16.9347   22.3527 C   0  0  0  0  0  0  0  0  0  0  0  0
    9.3118  -17.9848   22.9733 O   0  0  0  0  0  0  0  0  0  0  0  0
   12.9637  -15.8143   23.4581 C   0  0  0  0  0  0  0  0  0  0  0  0
   11.7363  -16.6918   23.6292 C   0  0  2  0  0  0  0  0  0  0  0  0
   10.7693  -16.2568   22.6533 N   0  0  0  0  0  0  0  0  0  0  0  0
   11.2773  -16.5370   25.0112 C   0  0  0  0  0  0  0  0  0  0  0  0
   12.0394  -16.8055   25.9612 O   0  0  0  0  0  0  0  0  0  0  0  0
    9.1824  -12.8292   27.3531 C   0  0  0  0  0  0  0  0  0  0  0  0
    8.4705  -13.5767   26.2356 C   0  0  2  0  0  0  0  0  0  0  0  0
    7.1460  -12.8517   26.0637 C   0  0  0  0  0  0  0  0  0  0  0  0
    8.2686  -14.9858   26.6646 C   0  0  0  0  0  0  0  0  0  0  0  0
    9.4663  -15.8668   26.6142 C   0  0  2  0  0  0  0  0  0  0  0  0
    9.9618  -16.0804   25.2677 N   0  0  0  0  0  0  0  0  0  0  0  0
    9.3794  -17.1341   27.3067 C   0  0  0  0  0  0  0  0  0  0  0  0
    9.1763  -18.1794   26.6335 O   0  0  0  0  0  0  0  0  0  0  0  0
    9.4958  -17.3498   28.6663 O   0  0  0  0  0  0  0  0  0  0  0  0
  2  1  1  0
  3  4  1  0
  3  2  1  0
  4  5  1  0
  5  6  1  1
  7  5  1  0
  7 11  1  0
  8  7  2  0
 10  9  1  1
 10 11  1  0
 10 12  1  0
 12 19  1  0
 13 12  2  0
 15 14  1  1
 16 15  1  0
 17 15  1  0
 18 17  1  6
 19 18  1  0
 20 18  1  0
 20 22  1  0
 21 20  2  0
M  END
$$$$
