KRQ.pdb
     RDKit          3D

 30 29  0  0  1  0  0  0  0  0999 V2000
    6.2507  -16.1391   20.3205 N   0  0  0  0  0  0  0  0  0  0  0  0
    7.4666  -15.4237   20.6530 C   0  0  1  0  0  0  0  0  0  0  0  0
    7.1780  -13.9620   20.8145 C   0  0  0  0  0  0  0  0  0  0  0  0
    7.8410  -13.1199   19.7477 C   0  0  0  0  0  0  0  0  0  0  0  0
    7.4768  -13.5698   18.3571 C   0  0  0  0  0  0  0  0  0  0  0  0
    8.3196  -12.7594   17.3930 C   0  0  0  0  0  0  0  0  0  0  0  0
    8.0207  -13.2012   16.0460 N   0  0  0  0  0  0  0  0  0  0  0  0
    8.0255  -15.9243   21.9445 C   0  0  0  0  0  0  0  0  0  0  0  0
    7.3263  -16.1720   22.9386 O   0  0  0  0  0  0  0  0  0  0  0  0
   14.0374  -21.1074   22.1600 N   0  0  0  0  0  0  0  0  0  0  0  0
   13.5333  -20.5909   20.9334 C   0  0  0  0  0  0  0  0  0  0  0  0
   13.3594  -21.3360   19.9105 N   0  0  0  0  0  0  0  0  0  0  0  0
   13.2097  -19.2131   20.8269 N   0  0  0  0  0  0  0  0  0  0  0  0
   13.0525  -18.4412   22.0297 C   0  0  0  0  0  0  0  0  0  0  0  0
   11.5624  -18.2582   22.2744 C   0  0  0  0  0  0  0  0  0  0  0  0
   11.4102  -16.9716   23.0302 C   0  0  0  0  0  0  0  0  0  0  0  0
    9.9866  -16.5727   23.3257 C   0  0  2  0  0  0  0  0  0  0  0  0
    9.4284  -16.1311   22.0520 N   0  0  0  0  0  0  0  0  0  0  0  0
    9.9797  -15.4829   24.3199 C   0  0  0  0  0  0  0  0  0  0  0  0
   10.0421  -14.2583   24.0652 O   0  0  0  0  0  0  0  0  0  0  0  0
   12.9616  -21.0785   19.0030 N   0  0  0  0  0  0  0  0  0  0  0  0
    5.7282  -13.3175   26.1560 C   0  0  0  0  0  0  0  0  0  0  0  0
    6.5421  -12.5958   27.1003 O   0  0  0  0  0  0  0  0  0  0  0  0
    6.1081  -11.5392   27.6196 C   0  0  0  0  0  0  0  0  0  0  0  0
    7.8589  -13.1530   27.4027 C   0  0  0  0  0  0  0  0  0  0  0  0
    8.3257  -14.1562   26.4167 C   0  0  1  0  0  0  0  0  0  0  0  0
    9.6391  -14.8086   26.7025 N   0  0  0  0  0  0  0  0  0  0  0  0
    9.8955  -15.8337   25.6957 C   0  0  0  0  0  0  0  0  0  0  0  0
    9.6944  -15.3994   28.0630 O   0  0  0  0  0  0  0  0  0  0  0  0
    9.7581  -16.7630   28.2902 O   0  0  0  0  0  0  0  0  0  0  0  0
  2  3  1  0
  2  1  1  1
  3  4  1  0
  4  5  1  0
  5  6  1  0
  6  7  1  0
  8  9  2  0
  8  2  1  0
 10 11  1  0
 11 13  1  0
 11 12  2  0
 13 14  1  0
 15 16  1  0
 15 14  1  0
 17 16  1  6
 17 18  1  0
 18  8  1  0
 19 17  1  0
 19 27  1  0
 20 19  2  0
 22 21  1  0
 22 24  1  0
 23 22  2  0
 26 25  1  6
 25 24  1  0
 26 27  1  0
 26 28  1  0
 28 30  2  0
 28 29  1  0
M  END
$$$$
