KRQ.pdb
     RDKit          3D

 30 29  0  0  1  0  0  0  0  0999 V2000
   10.6042  -15.4824   19.9066 N   0  0  0  0  0  0  0  0  0  0  0  0
    9.8673  -14.6065   20.7957 C   0  0  1  0  0  0  0  0  0  0  0  0
    8.5333  -14.2705   20.2010 C   0  0  0  0  0  0  0  0  0  0  0  0
    8.5969  -14.0928   18.7007 C   0  0  0  0  0  0  0  0  0  0  0  0
    7.2668  -13.6953   18.1161 C   0  0  0  0  0  0  0  0  0  0  0  0
    7.4606  -13.5660   16.6186 C   0  0  0  0  0  0  0  0  0  0  0  0
    6.1743  -13.2778   16.0173 N   0  0  0  0  0  0  0  0  0  0  0  0
    9.6262  -15.2820   22.1058 C   0  0  0  0  0  0  0  0  0  0  0  0
    8.9431  -14.7838   23.0134 O   0  0  0  0  0  0  0  0  0  0  0  0
    9.9321  -22.5955   19.9326 N   0  0  0  0  0  0  0  0  0  0  0  0
    8.6108  -22.3300   20.3901 C   0  0  0  0  0  0  0  0  0  0  0  0
    7.6064  -22.9981   19.9699 N   0  0  0  0  0  0  0  0  0  0  0  0
    8.3857  -21.2988   21.3389 N   0  0  0  0  0  0  0  0  0  0  0  0
    9.5004  -20.5055   21.7807 C   0  0  0  0  0  0  0  0  0  0  0  0
    8.9968  -19.5500   22.8519 C   0  0  0  0  0  0  0  0  0  0  0  0
   10.1773  -18.7292   23.2790 C   0  0  0  0  0  0  0  0  0  0  0  0
    9.8744  -17.2797   23.5624 C   0  0  2  0  0  0  0  0  0  0  0  0
   10.2038  -16.5610   22.3361 N   0  0  0  0  0  0  0  0  0  0  0  0
   10.7028  -16.8183   24.6925 C   0  0  0  0  0  0  0  0  0  0  0  0
   11.9044  -16.4714   24.6265 O   0  0  0  0  0  0  0  0  0  0  0  0
    6.6134  -22.8220   20.1464 N   0  0  0  0  0  0  0  0  0  0  0  0
    8.5437  -13.2715   29.0580 C   0  0  0  0  0  0  0  0  0  0  0  0
    8.5441  -13.1947   27.6196 O   0  0  0  0  0  0  0  0  0  0  0  0
    7.8694  -12.3088   27.0413 C   0  0  0  0  0  0  0  0  0  0  0  0
    9.3509  -14.1804   26.9031 C   0  0  0  0  0  0  0  0  0  0  0  0
   10.0172  -15.1658   27.7872 C   0  0  2  0  0  0  0  0  0  0  0  0
   10.8440  -16.2118   27.1131 N   0  0  0  0  0  0  0  0  0  0  0  0
   10.1016  -16.7547   25.9799 C   0  0  0  0  0  0  0  0  0  0  0  0
   11.2412  -17.3032   28.0375 O   0  0  0  0  0  0  0  0  0  0  0  0
   12.0911  -17.1084   29.1120 O   0  0  0  0  0  0  0  0  0  0  0  0
  2  3  1  0
  2  1  1  6
  3  4  1  0
  4  5  1  0
  5  6  1  0
  6  7  1  0
  8  9  2  0
  8  2  1  0
 10 11  1  0
 11 13  1  0
 11 12  2  0
 13 14  1  0
 15 16  1  0
 15 14  1  0
 17 16  1  6
 17 18  1  0
 18  8  1  0
 19 17  1  0
 19 27  1  0
 20 19  2  0
 22 21  1  0
 22 24  1  0
 23 22  2  0
 26 25  1  6
 25 24  1  0
 26 27  1  0
 26 28  1  0
 28 30  2  0
 28 29  1  0
M  END
$$$$
