KRQ.pdb
     RDKit          3D

 30 29  0  0  1  0  0  0  0  0999 V2000
    5.9592  -20.9346   21.8890 N   0  0  0  0  0  0  0  0  0  0  0  0
    6.0549  -19.9738   22.9700 C   0  0  1  0  0  0  0  0  0  0  0  0
    6.2677  -20.6824   24.2734 C   0  0  0  0  0  0  0  0  0  0  0  0
    5.0454  -21.4528   24.7193 C   0  0  0  0  0  0  0  0  0  0  0  0
    5.1416  -22.9186   24.3861 C   0  0  0  0  0  0  0  0  0  0  0  0
    3.8247  -23.5526   24.7867 C   0  0  0  0  0  0  0  0  0  0  0  0
    3.7800  -24.8927   24.2380 N   0  0  0  0  0  0  0  0  0  0  0  0
    7.2173  -19.0617   22.7509 C   0  0  0  0  0  0  0  0  0  0  0  0
    8.3310  -19.4565   22.3737 O   0  0  0  0  0  0  0  0  0  0  0  0
    7.6845  -11.5863   18.9354 N   0  0  0  0  0  0  0  0  0  0  0  0
    7.4182  -12.8161   18.2704 C   0  0  0  0  0  0  0  0  0  0  0  0
    7.4528  -12.9138   16.9973 N   0  0  0  0  0  0  0  0  0  0  0  0
    7.1045  -13.9749   19.0275 N   0  0  0  0  0  0  0  0  0  0  0  0
    7.4485  -14.0075   20.4231 C   0  0  0  0  0  0  0  0  0  0  0  0
    6.9663  -15.3337   20.9909 C   0  0  0  0  0  0  0  0  0  0  0  0
    7.5338  -15.4351   22.3757 C   0  0  0  0  0  0  0  0  0  0  0  0
    8.1626  -16.7642   22.7090 C   0  0  2  0  0  0  0  0  0  0  0  0
    7.0510  -17.6686   22.9834 N   0  0  0  0  0  0  0  0  0  0  0  0
    9.0329  -16.6116   23.8904 C   0  0  0  0  0  0  0  0  0  0  0  0
    8.6704  -16.2121   25.0207 O   0  0  0  0  0  0  0  0  0  0  0  0
    7.3314  -13.7545   16.4258 N   0  0  0  0  0  0  0  0  0  0  0  0
   11.7063  -21.6318   24.8652 C   0  0  0  0  0  0  0  0  0  0  0  0
   12.2613  -20.4345   25.4428 O   0  0  0  0  0  0  0  0  0  0  0  0
   12.8938  -20.4982   26.5246 C   0  0  0  0  0  0  0  0  0  0  0  0
   12.0468  -19.1859   24.7143 C   0  0  0  0  0  0  0  0  0  0  0  0
   11.5269  -18.0828   25.5565 C   0  0  1  0  0  0  0  0  0  0  0  0
   11.3236  -16.7671   24.8782 N   0  0  0  0  0  0  0  0  0  0  0  0
   10.4094  -16.9423   23.7540 C   0  0  0  0  0  0  0  0  0  0  0  0
   12.5988  -16.1654   24.4144 O   0  0  0  0  0  0  0  0  0  0  0  0
   12.8700  -15.9086   23.0820 O   0  0  0  0  0  0  0  0  0  0  0  0
  2  3  1  0
  2  1  1  6
  3  4  1  0
  4  5  1  0
  5  6  1  0
  6  7  1  0
  8  9  2  0
  8  2  1  0
 10 11  1  0
 11 13  1  0
 11 12  2  0
 13 14  1  0
 15 16  1  0
 15 14  1  0
 17 16  1  1
 17 18  1  0
 18  8  1  0
 19 17  1  0
 19 27  1  0
 20 19  2  0
 22 21  1  0
 22 24  1  0
 23 22  2  0
 26 25  1  1
 25 24  1  0
 26 27  1  0
 26 28  1  0
 28 30  2  0
 28 29  1  0
M  END
$$$$
