KRQ.pdb
     RDKit          3D

 30 29  0  0  1  0  0  0  0  0999 V2000
    7.9774  -21.1099   18.0658 N   0  0  0  0  0  0  0  0  0  0  0  0
    9.0790  -20.2550   17.6701 C   0  0  1  0  0  0  0  0  0  0  0  0
    8.6688  -19.3820   16.5231 C   0  0  0  0  0  0  0  0  0  0  0  0
    9.5716  -19.5439   15.3209 C   0  0  0  0  0  0  0  0  0  0  0  0
    9.1095  -18.7234   14.1454 C   0  0  0  0  0  0  0  0  0  0  0  0
   10.0205  -19.0610   12.9823 C   0  0  0  0  0  0  0  0  0  0  0  0
    9.5658  -18.3249   11.8203 N   0  0  0  0  0  0  0  0  0  0  0  0
    9.4767  -19.3653   18.8019 C   0  0  0  0  0  0  0  0  0  0  0  0
   10.6341  -18.9515   18.9685 O   0  0  0  0  0  0  0  0  0  0  0  0
    8.1277  -12.0982   21.3909 N   0  0  0  0  0  0  0  0  0  0  0  0
    8.1097  -12.5811   20.0522 C   0  0  0  0  0  0  0  0  0  0  0  0
    8.5129  -11.8660   19.0736 N   0  0  0  0  0  0  0  0  0  0  0  0
    7.6344  -13.8904   19.7799 N   0  0  0  0  0  0  0  0  0  0  0  0
    7.9711  -14.9544   20.6863 C   0  0  0  0  0  0  0  0  0  0  0  0
    7.2755  -16.2173   20.2012 C   0  0  0  0  0  0  0  0  0  0  0  0
    7.6253  -17.2985   21.1802 C   0  0  0  0  0  0  0  0  0  0  0  0
    8.8664  -18.0848   20.8420 C   0  0  2  0  0  0  0  0  0  0  0  0
    8.4876  -18.9658   19.7424 N   0  0  0  0  0  0  0  0  0  0  0  0
    9.2941  -18.8570   22.0239 C   0  0  0  0  0  0  0  0  0  0  0  0
    8.6389  -19.7679   22.5803 O   0  0  0  0  0  0  0  0  0  0  0  0
    8.5349  -12.1117   18.0800 N   0  0  0  0  0  0  0  0  0  0  0  0
   13.8597  -21.7296   20.8977 C   0  0  0  0  0  0  0  0  0  0  0  0
   13.9893  -21.2213   22.2392 O   0  0  0  0  0  0  0  0  0  0  0  0
   14.7893  -21.7651   23.0385 C   0  0  0  0  0  0  0  0  0  0  0  0
   13.1581  -20.0736   22.5967 C   0  0  0  0  0  0  0  0  0  0  0  0
   11.8955  -20.4386   23.2814 C   0  0  1  0  0  0  0  0  0  0  0  0
   11.0428  -19.3057   23.7525 N   0  0  0  0  0  0  0  0  0  0  0  0
   10.5600  -18.5552   22.5976 C   0  0  0  0  0  0  0  0  0  0  0  0
   11.7630  -18.4044   24.6864 O   0  0  0  0  0  0  0  0  0  0  0  0
   12.2003  -18.8078   25.9358 O   0  0  0  0  0  0  0  0  0  0  0  0
  2  3  1  0
  2  1  1  1
  3  4  1  0
  4  5  1  0
  5  6  1  0
  6  7  1  0
  8  9  2  0
  8  2  1  0
 10 11  1  0
 11 13  1  0
 11 12  2  0
 13 14  1  0
 15 16  1  0
 15 14  1  0
 17 16  1  1
 17 18  1  0
 18  8  1  0
 19 17  1  0
 19 27  1  0
 20 19  2  0
 22 21  1  0
 22 24  1  0
 23 22  2  0
 26 25  1  6
 25 24  1  0
 26 27  1  0
 26 28  1  0
 28 30  2  0
 28 29  1  0
M  END
$$$$
