NFS.pdb
     RDKit          3D

 26 26  0  0  1  0  0  0  0  0999 V2000
   10.2078  -19.9790   18.5698 N   0  0  0  0  0  0  0  0  0  0  0  0
    9.3510  -19.0992   19.2560 C   0  0  0  0  0  0  0  0  0  0  0  0
    8.2012  -18.9193   18.7705 O   0  0  0  0  0  0  0  0  0  0  0  0
    9.7805  -18.4099   20.5005 C   0  0  0  0  0  0  0  0  0  0  0  0
    9.7186  -16.9176   20.3000 C   0  0  2  0  0  0  0  0  0  0  0  0
   10.8498  -16.5012   19.5012 N   0  0  0  0  0  0  0  0  0  0  0  0
    9.6936  -16.1661   21.5605 C   0  0  0  0  0  0  0  0  0  0  0  0
   10.7669  -16.0174   22.2393 O   0  0  0  0  0  0  0  0  0  0  0  0
    8.5574  -15.5650   22.1241 N   0  0  0  0  0  0  0  0  0  0  0  0
    8.4998  -14.9260   23.4197 C   0  0  1  0  0  0  0  0  0  0  0  0
    7.4654  -13.8684   23.5366 C   0  0  0  0  0  0  0  0  0  0  0  0
    7.3578  -13.2140   24.8351 C   0  0  0  0  0  0  0  0  0  0  0  0
    8.1913  -12.2599   25.3489 C   0  0  0  0  0  0  0  0  0  0  0  0
    7.9957  -11.7096   26.5893 C   0  0  0  0  0  0  0  0  0  0  0  0
    6.9336  -12.0897   27.4035 C   0  0  0  0  0  0  0  0  0  0  0  0
    6.0918  -13.0519   26.8869 C   0  0  0  0  0  0  0  0  0  0  0  0
    6.2802  -13.6101   25.6427 C   0  0  0  0  0  0  0  0  0  0  0  0
    8.5294  -15.9124   24.5187 C   0  0  0  0  0  0  0  0  0  0  0  0
    7.6208  -16.7720   24.6207 O   0  0  0  0  0  0  0  0  0  0  0  0
   11.8212  -17.5406   25.6731 O   0  0  0  0  0  0  0  0  0  0  0  0
   10.5734  -18.1246   25.9212 C   0  0  0  0  0  0  0  0  0  0  0  0
    9.6558  -17.0251   26.4501 C   0  0  2  0  0  0  0  0  0  0  0  0
    9.5626  -15.9392   25.4901 N   0  0  0  0  0  0  0  0  0  0  0  0
   10.1273  -16.5007   27.7344 C   0  0  0  0  0  0  0  0  0  0  0  0
   10.3362  -15.1515   27.9018 O   0  0  0  0  0  0  0  0  0  0  0  0
   10.3457  -17.2742   28.6927 O   0  0  0  0  0  0  0  0  0  0  0  0
  1  2  1  0
  2  3  2  0
  4  2  1  0
  4  5  1  0
  5  6  1  6
  7  5  1  0
  7  8  2  0
  9  7  1  0
 10  9  1  0
 10 11  1  6
 12 17  2  0
 12 11  1  0
 13 12  1  0
 14 15  1  0
 14 13  2  0
 15 16  2  0
 16 17  1  0
 18 10  1  0
 19 18  2  0
 21 20  1  0
 22 21  1  6
 22 23  1  0
 23 18  1  0
 24 25  1  0
 24 22  1  0
 26 24  2  0
M  END
$$$$
