NFS.pdb
     RDKit          3D

 26 26  0  0  1  0  0  0  0  0999 V2000
   10.5041  -16.4206   16.8595 N   0  0  0  0  0  0  0  0  0  0  0  0
   10.8092  -16.9711   18.1176 C   0  0  0  0  0  0  0  0  0  0  0  0
   11.0898  -18.1999   18.1558 O   0  0  0  0  0  0  0  0  0  0  0  0
   10.8019  -16.1416   19.3506 C   0  0  0  0  0  0  0  0  0  0  0  0
   10.1073  -16.8890   20.4596 C   0  0  2  0  0  0  0  0  0  0  0  0
    8.7901  -17.2826   20.0110 N   0  0  0  0  0  0  0  0  0  0  0  0
   10.0010  -16.1130   21.7008 C   0  0  0  0  0  0  0  0  0  0  0  0
   11.0505  -15.6224   22.2418 O   0  0  0  0  0  0  0  0  0  0  0  0
    8.8077  -15.8411   22.3878 N   0  0  0  0  0  0  0  0  0  0  0  0
    8.7068  -15.1693   23.6640 C   0  0  1  0  0  0  0  0  0  0  0  0
    7.5736  -14.2168   23.7679 C   0  0  0  0  0  0  0  0  0  0  0  0
    7.4359  -13.5164   25.0394 C   0  0  0  0  0  0  0  0  0  0  0  0
    8.1706  -12.4496   25.4764 C   0  0  0  0  0  0  0  0  0  0  0  0
    7.9557  -11.8654   26.6980 C   0  0  0  0  0  0  0  0  0  0  0  0
    6.9736  -12.3241   27.5701 C   0  0  0  0  0  0  0  0  0  0  0  0
    6.2316  -13.4000   27.1310 C   0  0  0  0  0  0  0  0  0  0  0  0
    6.4401  -13.9931   25.9062 C   0  0  0  0  0  0  0  0  0  0  0  0
    8.8523  -16.1117   24.7920 C   0  0  0  0  0  0  0  0  0  0  0  0
    7.9964  -17.0101   24.9791 O   0  0  0  0  0  0  0  0  0  0  0  0
   12.4071  -17.2757   26.0844 O   0  0  0  0  0  0  0  0  0  0  0  0
   11.2487  -18.0411   26.2637 C   0  0  0  0  0  0  0  0  0  0  0  0
   10.1384  -17.0875   26.6976 C   0  0  2  0  0  0  0  0  0  0  0  0
    9.9419  -16.0521   25.6982 N   0  0  0  0  0  0  0  0  0  0  0  0
   10.4361  -16.4661   27.9907 C   0  0  0  0  0  0  0  0  0  0  0  0
   10.6727  -17.2445   29.0998 O   0  0  0  0  0  0  0  0  0  0  0  0
   10.4778  -15.2210   28.1005 O   0  0  0  0  0  0  0  0  0  0  0  0
  1  2  1  0
  2  3  2  0
  4  2  1  0
  4  5  1  0
  5  6  1  6
  7  5  1  0
  7  8  2  0
  9  7  1  0
 10  9  1  0
 10 11  1  1
 12 17  2  0
 12 11  1  0
 13 12  1  0
 14 15  1  0
 14 13  2  0
 15 16  2  0
 16 17  1  0
 18 10  1  0
 19 18  2  0
 21 20  1  0
 22 21  1  6
 22 23  1  0
 23 18  1  0
 24 25  1  0
 24 22  1  0
 26 24  2  0
M  END
$$$$
