NFS.pdb
     RDKit          3D

 26 26  0  0  1  0  0  0  0  0999 V2000
    8.1717  -20.9160   19.7508 N   0  0  0  0  0  0  0  0  0  0  0  0
    8.7210  -19.6925   19.3262 C   0  0  0  0  0  0  0  0  0  0  0  0
    8.7198  -19.4599   18.0868 O   0  0  0  0  0  0  0  0  0  0  0  0
    9.2795  -18.7141   20.2953 C   0  0  0  0  0  0  0  0  0  0  0  0
    8.6052  -17.3789   20.1126 C   0  0  2  0  0  0  0  0  0  0  0  0
    9.0819  -16.7728   18.8892 N   0  0  0  0  0  0  0  0  0  0  0  0
    8.8203  -16.4641   21.2400 C   0  0  0  0  0  0  0  0  0  0  0  0
    9.9878  -15.9981   21.4734 O   0  0  0  0  0  0  0  0  0  0  0  0
    7.8277  -16.0275   22.1310 N   0  0  0  0  0  0  0  0  0  0  0  0
    8.0461  -15.1853   23.2856 C   0  0  1  0  0  0  0  0  0  0  0  0
    6.8681  -14.3768   23.6868 C   0  0  0  0  0  0  0  0  0  0  0  0
    7.0238  -13.5643   24.8875 C   0  0  0  0  0  0  0  0  0  0  0  0
    7.7737  -12.4292   25.0230 C   0  0  0  0  0  0  0  0  0  0  0  0
    7.8497  -11.7404   26.2060 C   0  0  0  0  0  0  0  0  0  0  0  0
    7.1662  -12.1557   27.3443 C   0  0  0  0  0  0  0  0  0  0  0  0
    6.4093  -13.3003   27.2094 C   0  0  0  0  0  0  0  0  0  0  0  0
    6.3269  -13.9986   26.0259 C   0  0  0  0  0  0  0  0  0  0  0  0
    8.7182  -15.9174   24.3783 C   0  0  0  0  0  0  0  0  0  0  0  0
    8.2571  -17.0124   24.7823 O   0  0  0  0  0  0  0  0  0  0  0  0
   13.0765  -16.9393   25.9383 O   0  0  0  0  0  0  0  0  0  0  0  0
   12.2525  -16.0089   25.2939 C   0  0  0  0  0  0  0  0  0  0  0  0
   10.8115  -16.3412   25.6729 C   0  0  2  0  0  0  0  0  0  0  0  0
    9.8922  -15.4330   25.0100 N   0  0  0  0  0  0  0  0  0  0  0  0
   10.6052  -16.2715   27.1218 C   0  0  0  0  0  0  0  0  0  0  0  0
    9.6543  -15.4300   27.6505 O   0  0  0  0  0  0  0  0  0  0  0  0
   11.2919  -16.9760   27.8940 O   0  0  0  0  0  0  0  0  0  0  0  0
  1  2  1  0
  2  3  2  0
  4  2  1  0
  4  5  1  0
  5  6  1  6
  7  5  1  0
  7  8  2  0
  9  7  1  0
 10  9  1  0
 10 11  1  1
 12 17  2  0
 12 11  1  0
 13 12  1  0
 14 15  1  0
 14 13  2  0
 15 16  2  0
 16 17  1  0
 18 10  1  0
 19 18  2  0
 21 20  1  0
 22 21  1  1
 22 23  1  0
 23 18  1  0
 24 25  1  0
 24 22  1  0
 26 24  2  0
M  END
$$$$
