NFS.pdb
     RDKit          3D

 26 26  0  0  1  0  0  0  0  0999 V2000
    8.7705  -19.2047   18.5499 N   0  0  0  0  0  0  0  0  0  0  0  0
    9.9075  -19.2885   19.3741 C   0  0  0  0  0  0  0  0  0  0  0  0
   10.8604  -20.0084   18.9693 O   0  0  0  0  0  0  0  0  0  0  0  0
    9.9845  -18.5604   20.6672 C   0  0  0  0  0  0  0  0  0  0  0  0
    9.4913  -17.1483   20.4835 C   0  0  2  0  0  0  0  0  0  0  0  0
   10.2663  -16.5091   19.4434 N   0  0  0  0  0  0  0  0  0  0  0  0
    9.5526  -16.3505   21.7139 C   0  0  0  0  0  0  0  0  0  0  0  0
   10.6618  -16.2151   22.3353 O   0  0  0  0  0  0  0  0  0  0  0  0
    8.4660  -15.6890   22.3068 N   0  0  0  0  0  0  0  0  0  0  0  0
    8.4928  -15.0003   23.5776 C   0  0  1  0  0  0  0  0  0  0  0  0
    7.4411  -13.9656   23.7370 C   0  0  0  0  0  0  0  0  0  0  0  0
    7.4003  -13.2822   25.0244 C   0  0  0  0  0  0  0  0  0  0  0  0
    8.3504  -12.4484   25.5453 C   0  0  0  0  0  0  0  0  0  0  0  0
    8.2089  -11.8564   26.7739 C   0  0  0  0  0  0  0  0  0  0  0  0
    7.0864  -12.0686   27.5678 C   0  0  0  0  0  0  0  0  0  0  0  0
    6.1272  -12.9093   27.0439 C   0  0  0  0  0  0  0  0  0  0  0  0
    6.2604  -13.5081   25.8116 C   0  0  0  0  0  0  0  0  0  0  0  0
    8.6375  -15.9409   24.7073 C   0  0  0  0  0  0  0  0  0  0  0  0
    7.7271  -16.7659   24.9630 O   0  0  0  0  0  0  0  0  0  0  0  0
   12.2081  -17.0920   25.9330 O   0  0  0  0  0  0  0  0  0  0  0  0
   11.1052  -17.8997   26.2348 C   0  0  0  0  0  0  0  0  0  0  0  0
    9.9420  -16.9703   26.5717 C   0  0  2  0  0  0  0  0  0  0  0  0
    9.7861  -15.9607   25.5393 N   0  0  0  0  0  0  0  0  0  0  0  0
   10.1331  -16.3154   27.8685 C   0  0  0  0  0  0  0  0  0  0  0  0
   10.3435  -17.0642   29.0029 O   0  0  0  0  0  0  0  0  0  0  0  0
   10.1064  -15.0683   27.9582 O   0  0  0  0  0  0  0  0  0  0  0  0
  1  2  1  0
  2  3  2  0
  4  2  1  0
  4  5  1  0
  5  6  1  6
  7  5  1  0
  7  8  2  0
  9  7  1  0
 10  9  1  0
 10 11  1  1
 12 17  2  0
 12 11  1  0
 13 12  1  0
 14 15  1  0
 14 13  2  0
 15 16  2  0
 16 17  1  0
 18 10  1  0
 19 18  2  0
 21 20  1  0
 22 21  1  6
 22 23  1  0
 23 18  1  0
 24 25  1  0
 24 22  1  0
 26 24  2  0
M  END
$$$$
