NFS.pdb
     RDKit          3D

 26 26  0  0  1  0  0  0  0  0999 V2000
    8.5422  -18.0776   17.8030 N   0  0  0  0  0  0  0  0  0  0  0  0
    8.4369  -18.8121   18.9982 C   0  0  0  0  0  0  0  0  0  0  0  0
    8.0365  -20.0045   18.9080 O   0  0  0  0  0  0  0  0  0  0  0  0
    8.7823  -18.2105   20.3123 C   0  0  0  0  0  0  0  0  0  0  0  0
    9.1276  -16.7552   20.1280 C   0  0  2  0  0  0  0  0  0  0  0  0
   10.3590  -16.6537   19.3766 N   0  0  0  0  0  0  0  0  0  0  0  0
    9.2546  -16.0267   21.3958 C   0  0  0  0  0  0  0  0  0  0  0  0
   10.3727  -16.0095   22.0158 O   0  0  0  0  0  0  0  0  0  0  0  0
    8.2247  -15.3126   22.0277 N   0  0  0  0  0  0  0  0  0  0  0  0
    8.3046  -14.7035   23.3364 C   0  0  1  0  0  0  0  0  0  0  0  0
    7.3323  -13.6053   23.5622 C   0  0  0  0  0  0  0  0  0  0  0  0
    7.3164  -13.0246   24.8996 C   0  0  0  0  0  0  0  0  0  0  0  0
    8.2821  -12.2433   25.4705 C   0  0  0  0  0  0  0  0  0  0  0  0
    8.1637  -11.7482   26.7435 C   0  0  0  0  0  0  0  0  0  0  0  0
    7.0500  -12.0115   27.5345 C   0  0  0  0  0  0  0  0  0  0  0  0
    6.0749  -12.7994   26.9604 C   0  0  0  0  0  0  0  0  0  0  0  0
    6.1850  -13.3009   25.6831 C   0  0  0  0  0  0  0  0  0  0  0  0
    8.3815  -15.7167   24.4084 C   0  0  0  0  0  0  0  0  0  0  0  0
    7.4457  -16.5369   24.5707 O   0  0  0  0  0  0  0  0  0  0  0  0
   11.8509  -17.3136   25.4656 O   0  0  0  0  0  0  0  0  0  0  0  0
   10.6176  -17.9613   25.6046 C   0  0  0  0  0  0  0  0  0  0  0  0
    9.6357  -16.9462   26.1840 C   0  0  2  0  0  0  0  0  0  0  0  0
    9.4912  -15.8134   25.2865 N   0  0  0  0  0  0  0  0  0  0  0  0
   10.0655  -16.4717   27.5019 C   0  0  0  0  0  0  0  0  0  0  0  0
   10.2801  -15.1314   27.7241 O   0  0  0  0  0  0  0  0  0  0  0  0
   10.2426  -17.2803   28.4394 O   0  0  0  0  0  0  0  0  0  0  0  0
  1  2  1  0
  2  3  2  0
  4  2  1  0
  4  5  1  0
  5  6  1  1
  7  5  1  0
  7  8  2  0
  9  7  1  0
 10  9  1  0
 10 11  1  1
 12 17  2  0
 12 11  1  0
 13 12  1  0
 14 15  1  0
 14 13  2  0
 15 16  2  0
 16 17  1  0
 18 10  1  0
 19 18  2  0
 21 20  1  0
 22 21  1  6
 22 23  1  0
 23 18  1  0
 24 25  1  0
 24 22  1  0
 26 24  2  0
M  END
$$$$
