NFS.pdb
     RDKit          3D

 26 26  0  0  1  0  0  0  0  0999 V2000
   10.2486  -20.5900   19.1029 N   0  0  0  0  0  0  0  0  0  0  0  0
    9.6140  -19.3492   19.2949 C   0  0  0  0  0  0  0  0  0  0  0  0
    8.8779  -18.9284   18.3614 O   0  0  0  0  0  0  0  0  0  0  0  0
    9.8014  -18.5661   20.5438 C   0  0  0  0  0  0  0  0  0  0  0  0
    9.4176  -17.1289   20.3027 C   0  0  2  0  0  0  0  0  0  0  0  0
   10.2867  -16.5715   19.2902 N   0  0  0  0  0  0  0  0  0  0  0  0
    9.4721  -16.3052   21.5163 C   0  0  0  0  0  0  0  0  0  0  0  0
   10.6014  -15.9787   22.0191 O   0  0  0  0  0  0  0  0  0  0  0  0
    8.3577  -15.8156   22.2151 N   0  0  0  0  0  0  0  0  0  0  0  0
    8.3974  -15.1356   23.4902 C   0  0  1  0  0  0  0  0  0  0  0  0
    7.3195  -14.1344   23.6854 C   0  0  0  0  0  0  0  0  0  0  0  0
    7.2721  -13.4857   24.9904 C   0  0  0  0  0  0  0  0  0  0  0  0
    6.4409  -13.7900   26.0323 C   0  0  0  0  0  0  0  0  0  0  0  0
    6.4816  -13.1102   27.2223 C   0  0  0  0  0  0  0  0  0  0  0  0
    7.3740  -12.0660   27.4428 C   0  0  0  0  0  0  0  0  0  0  0  0
    8.2131  -11.7577   26.3930 C   0  0  0  0  0  0  0  0  0  0  0  0
    8.1796  -12.4346   25.1947 C   0  0  0  0  0  0  0  0  0  0  0  0
    8.6002  -16.0794   24.6082 C   0  0  0  0  0  0  0  0  0  0  0  0
    7.7500  -16.9718   24.8436 O   0  0  0  0  0  0  0  0  0  0  0  0
   12.1353  -17.1625   25.5388 O   0  0  0  0  0  0  0  0  0  0  0  0
   11.1057  -17.9717   26.0337 C   0  0  0  0  0  0  0  0  0  0  0  0
    9.9682  -17.0472   26.4601 C   0  0  2  0  0  0  0  0  0  0  0  0
    9.7399  -16.0278   25.4509 N   0  0  0  0  0  0  0  0  0  0  0  0
   10.2489  -16.4047   27.7466 C   0  0  0  0  0  0  0  0  0  0  0  0
   10.4999  -17.1649   28.8651 O   0  0  0  0  0  0  0  0  0  0  0  0
   10.2628  -15.1577   27.8422 O   0  0  0  0  0  0  0  0  0  0  0  0
  1  2  1  0
  2  3  2  0
  4  2  1  0
  4  5  1  0
  5  6  1  6
  7  5  1  0
  7  8  2  0
  9  7  1  0
 10  9  1  0
 10 11  1  1
 12 17  2  0
 12 11  1  0
 13 12  1  0
 14 15  1  0
 14 13  2  0
 15 16  2  0
 16 17  1  0
 18 10  1  0
 19 18  2  0
 21 20  1  0
 22 21  1  6
 22 23  1  0
 23 18  1  0
 24 25  1  0
 24 22  1  0
 26 24  2  0
M  END
$$$$
