NFS.pdb
     RDKit          3D

 26 26  0  0  1  0  0  0  0  0999 V2000
    9.6850  -19.7206   15.9091 N   0  0  0  0  0  0  0  0  0  0  0  0
   10.7608  -19.7630   16.8147 C   0  0  0  0  0  0  0  0  0  0  0  0
   11.3547  -20.8669   16.9522 O   0  0  0  0  0  0  0  0  0  0  0  0
   11.1812  -18.5592   17.5779 C   0  0  0  0  0  0  0  0  0  0  0  0
   10.0070  -18.0125   18.3483 C   0  0  2  0  0  0  0  0  0  0  0  0
    9.1676  -17.2498   17.4512 N   0  0  0  0  0  0  0  0  0  0  0  0
   10.4028  -17.1802   19.4906 C   0  0  0  0  0  0  0  0  0  0  0  0
   11.3458  -16.3259   19.3648 O   0  0  0  0  0  0  0  0  0  0  0  0
    9.8243  -17.2283   20.7684 N   0  0  0  0  0  0  0  0  0  0  0  0
   10.1822  -16.3833   21.8855 C   0  0  1  0  0  0  0  0  0  0  0  0
    9.0357  -15.6863   22.5195 C   0  0  0  0  0  0  0  0  0  0  0  0
    8.2956  -14.7607   21.6699 C   0  0  0  0  0  0  0  0  0  0  0  0
    7.1199  -15.0030   21.0156 C   0  0  0  0  0  0  0  0  0  0  0  0
    6.5075  -14.0546   20.2376 C   0  0  0  0  0  0  0  0  0  0  0  0
    7.0469  -12.7838   20.0659 C   0  0  0  0  0  0  0  0  0  0  0  0
    8.2327  -12.5376   20.7251 C   0  0  0  0  0  0  0  0  0  0  0  0
    8.8548  -13.4835   21.5084 C   0  0  0  0  0  0  0  0  0  0  0  0
   11.1056  -17.0658   22.8147 C   0  0  0  0  0  0  0  0  0  0  0  0
   10.8180  -18.1980   23.2732 O   0  0  0  0  0  0  0  0  0  0  0  0
   14.7523  -15.4081   23.9289 O   0  0  0  0  0  0  0  0  0  0  0  0
   14.7039  -16.7966   23.7565 C   0  0  0  0  0  0  0  0  0  0  0  0
   13.2717  -17.2392   24.0456 C   0  0  2  0  0  0  0  0  0  0  0  0
   12.3359  -16.4912   23.2245 N   0  0  0  0  0  0  0  0  0  0  0  0
   12.9280  -17.0635   25.4591 C   0  0  0  0  0  0  0  0  0  0  0  0
   11.8279  -16.3216   25.8217 O   0  0  0  0  0  0  0  0  0  0  0  0
   13.6313  -17.5858   26.3516 O   0  0  0  0  0  0  0  0  0  0  0  0
  1  2  1  0
  2  3  2  0
  4  2  1  0
  4  5  1  0
  5  6  1  6
  7  5  1  0
  7  8  2  0
  9  7  1  0
 10  9  1  0
 10 11  1  1
 12 17  2  0
 12 11  1  0
 13 12  1  0
 14 15  1  0
 14 13  2  0
 15 16  2  0
 16 17  1  0
 18 10  1  0
 19 18  2  0
 21 20  1  0
 22 21  1  1
 22 23  1  0
 23 18  1  0
 24 25  1  0
 24 22  1  0
 26 24  2  0
M  END
$$$$
