NFS.pdb
     RDKit          3D

 26 26  0  0  1  0  0  0  0  0999 V2000
   11.8650  -19.1204   18.8052 N   0  0  0  0  0  0  0  0  0  0  0  0
   10.9347  -18.0683   18.8871 C   0  0  0  0  0  0  0  0  0  0  0  0
   10.0917  -17.9710   17.9543 O   0  0  0  0  0  0  0  0  0  0  0  0
   10.9432  -17.1109   20.0237 C   0  0  0  0  0  0  0  0  0  0  0  0
    9.9179  -17.5293   21.0458 C   0  0  2  0  0  0  0  0  0  0  0  0
    8.6284  -17.6440   20.4014 N   0  0  0  0  0  0  0  0  0  0  0  0
    9.8272  -16.6069   22.1838 C   0  0  0  0  0  0  0  0  0  0  0  0
   10.8866  -16.2453   22.8017 O   0  0  0  0  0  0  0  0  0  0  0  0
    8.6394  -16.0544   22.6875 N   0  0  0  0  0  0  0  0  0  0  0  0
    8.5225  -15.2761   23.9002 C   0  0  1  0  0  0  0  0  0  0  0  0
    7.4845  -14.2166   23.8514 C   0  0  0  0  0  0  0  0  0  0  0  0
    7.3511  -13.3907   25.0457 C   0  0  0  0  0  0  0  0  0  0  0  0
    8.2117  -12.4198   25.4767 C   0  0  0  0  0  0  0  0  0  0  0  0
    7.9875  -11.7003   26.6220 C   0  0  0  0  0  0  0  0  0  0  0  0
    6.8669  -11.9149   27.4180 C   0  0  0  0  0  0  0  0  0  0  0  0
    5.9977  -12.8938   26.9848 C   0  0  0  0  0  0  0  0  0  0  0  0
    6.2145  -13.6213   25.8363 C   0  0  0  0  0  0  0  0  0  0  0  0
    8.5005  -16.1345   25.1020 C   0  0  0  0  0  0  0  0  0  0  0  0
    7.4831  -16.8177   25.3719 O   0  0  0  0  0  0  0  0  0  0  0  0
   11.4575  -18.2228   26.2409 O   0  0  0  0  0  0  0  0  0  0  0  0
   10.1832  -18.4772   26.7618 C   0  0  0  0  0  0  0  0  0  0  0  0
    9.5669  -17.1298   27.1293 C   0  0  2  0  0  0  0  0  0  0  0  0
    9.6026  -16.2299   25.9898 N   0  0  0  0  0  0  0  0  0  0  0  0
   10.2607  -16.5101   28.2613 C   0  0  0  0  0  0  0  0  0  0  0  0
   10.8026  -15.2515   28.1421 O   0  0  0  0  0  0  0  0  0  0  0  0
   10.3684  -17.1191   29.3484 O   0  0  0  0  0  0  0  0  0  0  0  0
  1  2  1  0
  2  3  2  0
  4  2  1  0
  4  5  1  0
  5  6  1  6
  7  5  1  0
  7  8  2  0
  9  7  1  0
 10  9  1  0
 10 11  1  6
 12 17  2  0
 12 11  1  0
 13 12  1  0
 14 15  1  0
 14 13  2  0
 15 16  2  0
 16 17  1  0
 18 10  1  0
 19 18  2  0
 21 20  1  0
 22 21  1  6
 22 23  1  0
 23 18  1  0
 24 25  1  0
 24 22  1  0
 26 24  2  0
M  END
$$$$
