QRR.pdb
     RDKit          3D

 32 31  0  0  1  0  0  0  0  0999 V2000
    6.3428  -12.1470   17.6598 N   0  0  0  0  0  0  0  0  0  0  0  0
    7.0578  -13.0399   16.8380 C   0  0  0  0  0  0  0  0  0  0  0  0
    6.9116  -12.9766   15.5864 O   0  0  0  0  0  0  0  0  0  0  0  0
    7.9612  -14.0266   17.4751 C   0  0  0  0  0  0  0  0  0  0  0  0
    7.8558  -14.0105   18.9704 C   0  0  0  0  0  0  0  0  0  0  0  0
    9.1982  -14.5108   19.5253 C   0  0  2  0  0  0  0  0  0  0  0  0
    9.9245  -15.2241   18.4933 N   0  0  0  0  0  0  0  0  0  0  0  0
    8.9720  -15.4282   20.6606 C   0  0  0  0  0  0  0  0  0  0  0  0
    8.3241  -15.0332   21.6510 O   0  0  0  0  0  0  0  0  0  0  0  0
    7.7326  -20.3302   17.7903 N   0  0  0  0  0  0  0  0  0  0  0  0
    9.0174  -20.6436   17.2887 C   0  0  0  0  0  0  0  0  0  0  0  0
    9.3091  -20.4893   16.0441 N   0  0  0  0  0  0  0  0  0  0  0  0
   10.0471  -21.1677   18.1793 N   0  0  0  0  0  0  0  0  0  0  0  0
    9.9877  -20.8331   19.5604 C   0  0  0  0  0  0  0  0  0  0  0  0
    9.6325  -19.4308   19.8702 C   0  0  0  0  0  0  0  0  0  0  0  0
    9.5765  -19.1007   21.3100 C   0  0  0  0  0  0  0  0  0  0  0  0
    9.2385  -17.7229   21.6860 C   0  0  2  0  0  0  0  0  0  0  0  0
    9.4866  -16.7528   20.6334 N   0  0  0  0  0  0  0  0  0  0  0  0
   10.1591  -17.3597   22.8420 C   0  0  0  0  0  0  0  0  0  0  0  0
   11.3540  -17.1376   22.6371 O   0  0  0  0  0  0  0  0  0  0  0  0
   10.2487  -20.6808   15.6454 N   0  0  0  0  0  0  0  0  0  0  0  0
   10.2982  -15.6108   30.5229 C   0  0  0  0  0  0  0  0  0  0  0  0
   10.3029  -14.2080   30.2817 N   0  0  0  0  0  0  0  0  0  0  0  0
   10.2513  -13.3730   31.2855 N   0  0  0  0  0  0  0  0  0  0  0  0
   10.3666  -13.6539   28.9824 C   0  0  0  0  0  0  0  0  0  0  0  0
    9.7310  -14.2643   27.8671 C   0  0  0  0  0  0  0  0  0  0  0  0
   10.4164  -15.4751   27.3078 C   0  0  0  0  0  0  0  0  0  0  0  0
    9.8186  -15.8419   25.9704 C   0  0  1  0  0  0  0  0  0  0  0  0
   10.4100  -17.0436   25.3189 N   0  0  0  0  0  0  0  0  0  0  0  0
    9.5910  -17.2926   24.1190 C   0  0  0  0  0  0  0  0  0  0  0  0
   10.3130  -18.2234   26.2264 O   0  0  0  0  0  0  0  0  0  0  0  0
    9.4132  -19.0819   26.1160 O   0  0  0  0  0  0  0  0  0  0  0  0
  2  1  1  0
  3  2  2  0
  4  2  1  0
  5  4  1  0
  6  5  1  0
  6  7  1  6
  8  9  2  0
  8  6  1  0
 10 11  1  0
 11 12  2  0
 13 11  1  0
 14 13  1  0
 15 14  1  0
 15 16  1  0
 17 16  1  6
 17 18  1  0
 18  8  1  0
 19 20  2  0
 19 17  1  0
 21 22  1  0
 22 24  1  0
 23 22  2  0
 24 25  1  0
 26 27  1  0
 26 25  1  0
 28 29  1  0
 28 27  1  6
 29 19  1  0
 30 28  1  0
 31 30  2  0
 32 30  1  0
M  END
$$$$
