QRR.pdb
     RDKit          3D

 32 31  0  0  1  0  0  0  0  0999 V2000
    8.2917  -11.9208   18.2866 N   0  0  0  0  0  0  0  0  0  0  0  0
    8.3764  -12.8794   17.2581 C   0  0  0  0  0  0  0  0  0  0  0  0
    8.8906  -12.5534   16.1530 O   0  0  0  0  0  0  0  0  0  0  0  0
    7.8568  -14.2438   17.5114 C   0  0  0  0  0  0  0  0  0  0  0  0
    7.3201  -14.3979   18.9026 C   0  0  0  0  0  0  0  0  0  0  0  0
    8.0342  -15.6031   19.5335 C   0  0  2  0  0  0  0  0  0  0  0  0
    8.0129  -16.7255   18.6166 N   0  0  0  0  0  0  0  0  0  0  0  0
    7.3549  -16.0032   20.7826 C   0  0  0  0  0  0  0  0  0  0  0  0
    7.3000  -15.2015   21.7370 O   0  0  0  0  0  0  0  0  0  0  0  0
    6.5162  -22.5348   23.9114 N   0  0  0  0  0  0  0  0  0  0  0  0
    5.1260  -22.6103   24.1605 C   0  0  0  0  0  0  0  0  0  0  0  0
    4.6621  -23.1916   25.2117 N   0  0  0  0  0  0  0  0  0  0  0  0
    4.1767  -22.0363   23.2133 N   0  0  0  0  0  0  0  0  0  0  0  0
    4.6812  -21.3168   22.0948 C   0  0  0  0  0  0  0  0  0  0  0  0
    5.5975  -20.1980   22.4069 C   0  0  0  0  0  0  0  0  0  0  0  0
    5.1839  -18.8813   21.8773 C   0  0  0  0  0  0  0  0  0  0  0  0
    6.0773  -17.7390   22.1028 C   0  0  2  0  0  0  0  0  0  0  0  0
    6.7665  -17.2912   20.9048 N   0  0  0  0  0  0  0  0  0  0  0  0
    7.1487  -18.2216   23.0698 C   0  0  0  0  0  0  0  0  0  0  0  0
    8.0273  -18.9959   22.6858 O   0  0  0  0  0  0  0  0  0  0  0  0
    3.6524  -23.3777   25.3678 N   0  0  0  0  0  0  0  0  0  0  0  0
   11.1730  -13.8456   29.2014 C   0  0  0  0  0  0  0  0  0  0  0  0
    9.9009  -13.3858   28.7584 N   0  0  0  0  0  0  0  0  0  0  0  0
    9.2583  -12.4799   29.4469 N   0  0  0  0  0  0  0  0  0  0  0  0
    9.2801  -13.8643   27.5817 C   0  0  0  0  0  0  0  0  0  0  0  0
    8.5113  -15.0599   27.5637 C   0  0  0  0  0  0  0  0  0  0  0  0
    8.7932  -15.9997   26.4297 C   0  0  0  0  0  0  0  0  0  0  0  0
    7.9141  -17.2229   26.5350 C   0  0  2  0  0  0  0  0  0  0  0  0
    8.0429  -18.1956   25.4144 N   0  0  0  0  0  0  0  0  0  0  0  0
    7.0852  -17.7509   24.3859 C   0  0  0  0  0  0  0  0  0  0  0  0
    7.6634  -19.5637   25.8721 O   0  0  0  0  0  0  0  0  0  0  0  0
    6.4766  -19.9483   25.9232 O   0  0  0  0  0  0  0  0  0  0  0  0
  2  1  1  0
  3  2  2  0
  4  2  1  0
  5  4  1  0
  6  5  1  0
  6  7  1  6
  8  9  2  0
  8  6  1  0
 10 11  1  0
 11 12  2  0
 13 11  1  0
 14 13  1  0
 15 14  1  0
 15 16  1  0
 17 16  1  6
 17 18  1  0
 18  8  1  0
 19 20  2  0
 19 17  1  0
 21 22  1  0
 22 24  1  0
 23 22  2  0
 24 25  1  0
 26 27  1  0
 26 25  1  0
 28 29  1  0
 28 27  1  6
 29 19  1  0
 30 28  1  0
 31 30  2  0
 32 30  1  0
M  END
$$$$
