QRR.pdb
     RDKit          3D

 32 31  0  0  1  0  0  0  0  0999 V2000
   14.7433  -16.0294   12.1367 N   0  0  0  0  0  0  0  0  0  0  0  0
   14.0967  -17.2804   12.1073 C   0  0  0  0  0  0  0  0  0  0  0  0
   13.9070  -17.8497   10.9974 O   0  0  0  0  0  0  0  0  0  0  0  0
   13.6606  -17.8873   13.3868 C   0  0  0  0  0  0  0  0  0  0  0  0
   13.9878  -17.0219   14.5664 C   0  0  0  0  0  0  0  0  0  0  0  0
   13.6546  -17.8312   15.8290 C   0  0  2  0  0  0  0  0  0  0  0  0
   12.3731  -18.4897   15.6700 N   0  0  0  0  0  0  0  0  0  0  0  0
   13.5822  -16.9388   17.0038 C   0  0  0  0  0  0  0  0  0  0  0  0
   14.6115  -16.3519   17.3949 O   0  0  0  0  0  0  0  0  0  0  0  0
    8.7725  -12.2329   19.8331 N   0  0  0  0  0  0  0  0  0  0  0  0
    7.8134  -13.2711   19.8836 C   0  0  0  0  0  0  0  0  0  0  0  0
    6.5532  -13.0277   19.7810 N   0  0  0  0  0  0  0  0  0  0  0  0
    8.2363  -14.6549   20.0692 N   0  0  0  0  0  0  0  0  0  0  0  0
    9.2207  -14.9397   21.0556 C   0  0  0  0  0  0  0  0  0  0  0  0
   10.6207  -14.9767   20.5788 C   0  0  0  0  0  0  0  0  0  0  0  0
   10.8586  -15.8306   19.3958 C   0  0  0  0  0  0  0  0  0  0  0  0
   12.2337  -15.9427   18.8952 C   0  0  2  0  0  0  0  0  0  0  0  0
   12.3527  -16.7455   17.6902 N   0  0  0  0  0  0  0  0  0  0  0  0
   13.0237  -16.6608   19.9796 C   0  0  0  0  0  0  0  0  0  0  0  0
   12.9427  -17.8849   20.0983 O   0  0  0  0  0  0  0  0  0  0  0  0
    5.8232  -13.7662   19.7753 N   0  0  0  0  0  0  0  0  0  0  0  0
   21.2696  -16.8878   24.4886 C   0  0  0  0  0  0  0  0  0  0  0  0
   20.1944  -16.0473   24.0841 N   0  0  0  0  0  0  0  0  0  0  0  0
   19.8623  -15.0155   24.8140 N   0  0  0  0  0  0  0  0  0  0  0  0
   19.4495  -16.2704   22.9032 C   0  0  0  0  0  0  0  0  0  0  0  0
   18.2995  -15.5014   22.5768 C   0  0  0  0  0  0  0  0  0  0  0  0
   16.9781  -16.1571   22.8465 C   0  0  0  0  0  0  0  0  0  0  0  0
   16.0016  -15.8376   21.7399 C   0  0  1  0  0  0  0  0  0  0  0  0
   14.6623  -16.4760   21.8712 N   0  0  0  0  0  0  0  0  0  0  0  0
   13.8276  -15.8768   20.8145 C   0  0  0  0  0  0  0  0  0  0  0  0
   14.0661  -16.1563   23.2007 O   0  0  0  0  0  0  0  0  0  0  0  0
   13.2336  -15.2394   23.3590 O   0  0  0  0  0  0  0  0  0  0  0  0
  2  1  1  0
  3  2  2  0
  4  2  1  0
  5  4  1  0
  6  5  1  0
  6  7  1  6
  8  9  2  0
  8  6  1  0
 10 11  1  0
 11 12  2  0
 13 11  1  0
 14 13  1  0
 15 14  1  0
 15 16  1  0
 17 16  1  1
 17 18  1  0
 18  8  1  0
 19 20  2  0
 19 17  1  0
 21 22  1  0
 22 24  1  0
 23 22  2  0
 24 25  1  0
 26 27  1  0
 26 25  1  0
 28 29  1  0
 28 27  1  6
 29 19  1  0
 30 28  1  0
 31 30  2  0
 32 30  1  0
M  END
$$$$
