QRR.pdb
     RDKit          3D

 32 31  0  0  1  0  0  0  0  0999 V2000
    1.8665  -21.0406   20.2651 N   0  0  0  0  0  0  0  0  0  0  0  0
    1.4858  -19.8084   20.8314 C   0  0  0  0  0  0  0  0  0  0  0  0
    0.3790  -19.2970   20.5065 O   0  0  0  0  0  0  0  0  0  0  0  0
    2.4024  -19.1530   21.7937 C   0  0  0  0  0  0  0  0  0  0  0  0
    3.7033  -19.8856   21.9279 C   0  0  0  0  0  0  0  0  0  0  0  0
    4.4025  -19.3424   23.1834 C   0  0  2  0  0  0  0  0  0  0  0  0
    3.5487  -18.3759   23.8453 N   0  0  0  0  0  0  0  0  0  0  0  0
    5.6690  -18.6771   22.8158 C   0  0  0  0  0  0  0  0  0  0  0  0
    6.5208  -19.3005   22.1506 O   0  0  0  0  0  0  0  0  0  0  0  0
    8.0612  -11.5771   19.0966 N   0  0  0  0  0  0  0  0  0  0  0  0
    8.5528  -12.8859   18.8822 C   0  0  0  0  0  0  0  0  0  0  0  0
    9.5086  -13.1171   18.0509 N   0  0  0  0  0  0  0  0  0  0  0  0
    7.9706  -14.0166   19.5967 N   0  0  0  0  0  0  0  0  0  0  0  0
    6.8147  -13.7954   20.3955 C   0  0  0  0  0  0  0  0  0  0  0  0
    6.2877  -14.9788   21.1101 C   0  0  0  0  0  0  0  0  0  0  0  0
    6.8783  -15.2217   22.4432 C   0  0  0  0  0  0  0  0  0  0  0  0
    7.1266  -16.6124   22.8413 C   0  0  2  0  0  0  0  0  0  0  0  0
    5.9236  -17.3367   23.2140 N   0  0  0  0  0  0  0  0  0  0  0  0
    8.0023  -16.5491   24.0841 C   0  0  0  0  0  0  0  0  0  0  0  0
    7.4909  -16.4090   25.1967 O   0  0  0  0  0  0  0  0  0  0  0  0
    9.8980  -14.0628   17.8706 N   0  0  0  0  0  0  0  0  0  0  0  0
    8.9797  -21.1928   29.3321 C   0  0  0  0  0  0  0  0  0  0  0  0
   10.2815  -20.6171   29.3224 N   0  0  0  0  0  0  0  0  0  0  0  0
   10.7525  -20.0503   30.4015 N   0  0  0  0  0  0  0  0  0  0  0  0
   11.1163  -20.6291   28.1814 C   0  0  0  0  0  0  0  0  0  0  0  0
   10.6797  -20.1433   26.9188 C   0  0  0  0  0  0  0  0  0  0  0  0
   10.7373  -18.6560   26.7368 C   0  0  0  0  0  0  0  0  0  0  0  0
   10.3234  -18.2858   25.3325 C   0  0  2  0  0  0  0  0  0  0  0  0
   10.3062  -16.8255   25.0398 N   0  0  0  0  0  0  0  0  0  0  0  0
    9.3855  -16.6559   23.9014 C   0  0  0  0  0  0  0  0  0  0  0  0
   11.6662  -16.3635   24.6374 O   0  0  0  0  0  0  0  0  0  0  0  0
   12.1093  -16.5121   23.4796 O   0  0  0  0  0  0  0  0  0  0  0  0
  2  1  1  0
  3  2  2  0
  4  2  1  0
  5  4  1  0
  6  5  1  0
  6  7  1  6
  8  9  2  0
  8  6  1  0
 10 11  1  0
 11 12  2  0
 13 11  1  0
 14 13  1  0
 15 14  1  0
 15 16  1  0
 17 16  1  1
 17 18  1  0
 18  8  1  0
 19 20  2  0
 19 17  1  0
 21 22  1  0
 22 24  1  0
 23 22  2  0
 24 25  1  0
 26 27  1  0
 26 25  1  0
 28 29  1  0
 28 27  1  1
 29 19  1  0
 30 28  1  0
 31 30  2  0
 32 30  1  0
M  END
$$$$
