QRR.pdb
     RDKit          3D

 32 31  0  0  1  0  0  0  0  0999 V2000
    6.0587  -14.9194   16.4138 N   0  0  0  0  0  0  0  0  0  0  0  0
    7.2504  -14.2241   16.1305 C   0  0  0  0  0  0  0  0  0  0  0  0
    7.5393  -13.9603   14.9310 O   0  0  0  0  0  0  0  0  0  0  0  0
    8.1269  -13.8244   17.2565 C   0  0  0  0  0  0  0  0  0  0  0  0
    7.5862  -14.2681   18.5823 C   0  0  0  0  0  0  0  0  0  0  0  0
    8.5694  -13.7831   19.6586 C   0  0  2  0  0  0  0  0  0  0  0  0
    8.9669  -12.4163   19.3848 N   0  0  0  0  0  0  0  0  0  0  0  0
    9.7782  -14.6318   19.6664 C   0  0  0  0  0  0  0  0  0  0  0  0
    9.6626  -15.8658   19.8104 O   0  0  0  0  0  0  0  0  0  0  0  0
   17.6042  -12.9689   16.2460 N   0  0  0  0  0  0  0  0  0  0  0  0
   16.4990  -13.5723   15.6018 C   0  0  0  0  0  0  0  0  0  0  0  0
   16.3876  -13.5743   14.3190 N   0  0  0  0  0  0  0  0  0  0  0  0
   15.4425  -14.2005   16.3875 N   0  0  0  0  0  0  0  0  0  0  0  0
   15.6653  -14.4216   17.7748 C   0  0  0  0  0  0  0  0  0  0  0  0
   14.5789  -15.1156   18.5005 C   0  0  0  0  0  0  0  0  0  0  0  0
   13.2969  -14.3823   18.5626 C   0  0  0  0  0  0  0  0  0  0  0  0
   12.2942  -14.8332   19.5349 C   0  0  2  0  0  0  0  0  0  0  0  0
   11.0678  -14.0545   19.5127 N   0  0  0  0  0  0  0  0  0  0  0  0
   12.9151  -14.6331   20.9097 C   0  0  0  0  0  0  0  0  0  0  0  0
   13.4181  -13.5491   21.2113 O   0  0  0  0  0  0  0  0  0  0  0  0
   15.5780  -13.9822   13.8125 N   0  0  0  0  0  0  0  0  0  0  0  0
   12.4088  -15.7234   28.2621 C   0  0  0  0  0  0  0  0  0  0  0  0
   11.0153  -15.9391   28.0678 N   0  0  0  0  0  0  0  0  0  0  0  0
   10.1642  -15.5805   28.9923 N   0  0  0  0  0  0  0  0  0  0  0  0
   10.4872  -16.5311   26.8975 C   0  0  0  0  0  0  0  0  0  0  0  0
   11.3200  -17.0202   25.8545 C   0  0  0  0  0  0  0  0  0  0  0  0
   12.0625  -15.9796   25.0705 C   0  0  0  0  0  0  0  0  0  0  0  0
   12.8688  -16.6305   23.9721 C   0  0  2  0  0  0  0  0  0  0  0  0
   13.6017  -15.6898   23.0799 N   0  0  0  0  0  0  0  0  0  0  0  0
   12.8851  -15.7186   21.7921 C   0  0  0  0  0  0  0  0  0  0  0  0
   15.0004  -16.1630   22.8679 O   0  0  0  0  0  0  0  0  0  0  0  0
   15.9403  -15.8357   23.6218 O   0  0  0  0  0  0  0  0  0  0  0  0
  2  1  1  0
  3  2  2  0
  4  2  1  0
  5  4  1  0
  6  5  1  0
  6  7  1  6
  8  9  2  0
  8  6  1  0
 10 11  1  0
 11 12  2  0
 13 11  1  0
 14 13  1  0
 15 14  1  0
 15 16  1  0
 17 16  1  6
 17 18  1  0
 18  8  1  0
 19 20  2  0
 19 17  1  0
 21 22  1  0
 22 24  1  0
 23 22  2  0
 24 25  1  0
 26 27  1  0
 26 25  1  0
 28 29  1  0
 28 27  1  1
 29 19  1  0
 30 28  1  0
 31 30  2  0
 32 30  1  0
M  END
$$$$
