QRR.pdb
     RDKit          3D

 32 31  0  0  1  0  0  0  0  0999 V2000
    8.4167  -12.5996   15.6600 N   0  0  0  0  0  0  0  0  0  0  0  0
    7.9385  -13.8425   15.2014 C   0  0  0  0  0  0  0  0  0  0  0  0
    7.6720  -13.9859   13.9765 O   0  0  0  0  0  0  0  0  0  0  0  0
    7.7649  -14.9435   16.1778 C   0  0  0  0  0  0  0  0  0  0  0  0
    8.2100  -14.5558   17.5558 C   0  0  0  0  0  0  0  0  0  0  0  0
    8.7722  -15.8202   18.2234 C   0  0  2  0  0  0  0  0  0  0  0  0
    7.8133  -16.9021   18.1189 N   0  0  0  0  0  0  0  0  0  0  0  0
    9.0410  -15.5666   19.6535 C   0  0  0  0  0  0  0  0  0  0  0  0
    9.9603  -14.7879   19.9780 O   0  0  0  0  0  0  0  0  0  0  0  0
    7.2467  -20.2709   25.6978 N   0  0  0  0  0  0  0  0  0  0  0  0
    7.4405  -19.3177   26.7245 C   0  0  0  0  0  0  0  0  0  0  0  0
    7.8736  -19.6610   27.8875 N   0  0  0  0  0  0  0  0  0  0  0  0
    7.1369  -17.9104   26.4887 N   0  0  0  0  0  0  0  0  0  0  0  0
    6.7777  -17.5022   25.1744 C   0  0  0  0  0  0  0  0  0  0  0  0
    7.8611  -16.8995   24.3669 C   0  0  0  0  0  0  0  0  0  0  0  0
    7.5307  -16.6704   22.9444 C   0  0  0  0  0  0  0  0  0  0  0  0
    8.5801  -16.1256   22.0749 C   0  0  2  0  0  0  0  0  0  0  0  0
    8.2632  -16.2021   20.6591 N   0  0  0  0  0  0  0  0  0  0  0  0
    9.8094  -16.9949   22.2961 C   0  0  0  0  0  0  0  0  0  0  0  0
    9.7794  -18.1945   22.0149 O   0  0  0  0  0  0  0  0  0  0  0  0
    8.0602  -18.9860   28.6543 N   0  0  0  0  0  0  0  0  0  0  0  0
   16.5979  -13.4114   19.7852 C   0  0  0  0  0  0  0  0  0  0  0  0
   15.4398  -13.7703   19.0394 N   0  0  0  0  0  0  0  0  0  0  0  0
   15.2370  -13.2497   17.8581 N   0  0  0  0  0  0  0  0  0  0  0  0
   14.4742  -14.6862   19.5167 C   0  0  0  0  0  0  0  0  0  0  0  0
   14.4058  -15.0706   20.8835 C   0  0  0  0  0  0  0  0  0  0  0  0
   13.4075  -16.1406   21.2110 C   0  0  0  0  0  0  0  0  0  0  0  0
   13.3076  -16.3207   22.7070 C   0  0  2  0  0  0  0  0  0  0  0  0
   12.1564  -17.1435   23.1718 N   0  0  0  0  0  0  0  0  0  0  0  0
   10.9480  -16.3751   22.8226 C   0  0  0  0  0  0  0  0  0  0  0  0
   12.2104  -17.3172   24.6523 O   0  0  0  0  0  0  0  0  0  0  0  0
   11.4753  -16.6738   25.4300 O   0  0  0  0  0  0  0  0  0  0  0  0
  2  1  1  0
  3  2  2  0
  4  2  1  0
  5  4  1  0
  6  5  1  0
  6  7  1  1
  8  9  2  0
  8  6  1  0
 10 11  1  0
 11 12  2  0
 13 11  1  0
 14 13  1  0
 15 14  1  0
 15 16  1  0
 17 16  1  1
 17 18  1  0
 18  8  1  0
 19 20  2  0
 19 17  1  0
 21 22  1  0
 22 24  1  0
 23 22  2  0
 24 25  1  0
 26 27  1  0
 26 25  1  0
 28 29  1  0
 28 27  1  6
 29 19  1  0
 30 28  1  0
 31 30  2  0
 32 30  1  0
M  END
$$$$
