QRR.pdb
     RDKit          3D

 32 31  0  0  1  0  0  0  0  0999 V2000
    8.3679  -23.0512   19.6121 N   0  0  0  0  0  0  0  0  0  0  0  0
    7.1361  -22.4818   19.9893 C   0  0  0  0  0  0  0  0  0  0  0  0
    6.1673  -22.5191   19.1818 O   0  0  0  0  0  0  0  0  0  0  0  0
    7.0203  -21.8567   21.3278 C   0  0  0  0  0  0  0  0  0  0  0  0
    8.2632  -22.0342   22.1469 C   0  0  0  0  0  0  0  0  0  0  0  0
    8.4759  -20.7334   22.9362 C   0  0  2  0  0  0  0  0  0  0  0  0
    7.2427  -19.9727   22.9767 N   0  0  0  0  0  0  0  0  0  0  0  0
    9.5166  -19.9079   22.2901 C   0  0  0  0  0  0  0  0  0  0  0  0
   10.6123  -20.4236   21.9898 O   0  0  0  0  0  0  0  0  0  0  0  0
    8.1957  -13.2355   16.9085 N   0  0  0  0  0  0  0  0  0  0  0  0
    7.8459  -13.5817   18.2345 C   0  0  0  0  0  0  0  0  0  0  0  0
    6.9322  -12.9417   18.8776 N   0  0  0  0  0  0  0  0  0  0  0  0
    8.5310  -14.6756   18.9144 N   0  0  0  0  0  0  0  0  0  0  0  0
    9.9245  -14.5514   19.1713 C   0  0  0  0  0  0  0  0  0  0  0  0
   10.5736  -15.7267   19.7926 C   0  0  0  0  0  0  0  0  0  0  0  0
    9.6611  -16.6412   20.5110 C   0  0  0  0  0  0  0  0  0  0  0  0
   10.2573  -17.6758   21.3643 C   0  0  2  0  0  0  0  0  0  0  0  0
    9.2797  -18.5348   22.0103 N   0  0  0  0  0  0  0  0  0  0  0  0
   10.9942  -16.9395   22.4736 C   0  0  0  0  0  0  0  0  0  0  0  0
   10.3896  -16.1503   23.2019 O   0  0  0  0  0  0  0  0  0  0  0  0
    6.6686  -13.1482   19.8606 N   0  0  0  0  0  0  0  0  0  0  0  0
   16.6518  -21.8653   24.8926 C   0  0  0  0  0  0  0  0  0  0  0  0
   15.7619  -21.1433   25.7369 N   0  0  0  0  0  0  0  0  0  0  0  0
   15.4688  -21.6054   26.9236 N   0  0  0  0  0  0  0  0  0  0  0  0
   15.1657  -19.9197   25.3542 C   0  0  0  0  0  0  0  0  0  0  0  0
   15.1883  -18.7717   26.1922 C   0  0  0  0  0  0  0  0  0  0  0  0
   14.6588  -17.5083   25.5822 C   0  0  0  0  0  0  0  0  0  0  0  0
   13.7012  -17.8320   24.4604 C   0  0  1  0  0  0  0  0  0  0  0  0
   13.1378  -16.6526   23.7464 N   0  0  0  0  0  0  0  0  0  0  0  0
   12.3612  -17.1998   22.6195 C   0  0  0  0  0  0  0  0  0  0  0  0
   14.2378  -15.8001   23.2095 O   0  0  0  0  0  0  0  0  0  0  0  0
   14.5733  -15.8175   22.0070 O   0  0  0  0  0  0  0  0  0  0  0  0
  2  1  1  0
  3  2  2  0
  4  2  1  0
  5  4  1  0
  6  5  1  0
  6  7  1  6
  8  9  2  0
  8  6  1  0
 10 11  1  0
 11 12  2  0
 13 11  1  0
 14 13  1  0
 15 14  1  0
 15 16  1  0
 17 16  1  6
 17 18  1  0
 18  8  1  0
 19 20  2  0
 19 17  1  0
 21 22  1  0
 22 24  1  0
 23 22  2  0
 24 25  1  0
 26 27  1  0
 26 25  1  0
 28 29  1  0
 28 27  1  1
 29 19  1  0
 30 28  1  0
 31 30  2  0
 32 30  1  0
M  END
$$$$
