QRR.pdb
     RDKit          3D

 32 31  0  0  1  0  0  0  0  0999 V2000
   15.9417  -21.1699   19.5086 N   0  0  0  0  0  0  0  0  0  0  0  0
   16.7356  -20.0271   19.7263 C   0  0  0  0  0  0  0  0  0  0  0  0
   17.8039  -20.1363   20.3886 O   0  0  0  0  0  0  0  0  0  0  0  0
   16.2866  -18.7305   19.1667 C   0  0  0  0  0  0  0  0  0  0  0  0
   15.0201  -18.8616   18.3754 C   0  0  0  0  0  0  0  0  0  0  0  0
   14.6153  -17.4481   17.9299 C   0  0  2  0  0  0  0  0  0  0  0  0
   15.7948  -16.6172   17.7903 N   0  0  0  0  0  0  0  0  0  0  0  0
   13.7222  -16.8323   18.9323 C   0  0  0  0  0  0  0  0  0  0  0  0
   14.1455  -15.8973   19.6416 O   0  0  0  0  0  0  0  0  0  0  0  0
    6.8888  -13.0643   18.1731 N   0  0  0  0  0  0  0  0  0  0  0  0
    7.9088  -12.7608   19.1047 C   0  0  0  0  0  0  0  0  0  0  0  0
    8.1687  -11.5464   19.4450 N   0  0  0  0  0  0  0  0  0  0  0  0
    8.7065  -13.8293   19.6963 N   0  0  0  0  0  0  0  0  0  0  0  0
    8.1683  -15.1456   19.7240 C   0  0  0  0  0  0  0  0  0  0  0  0
    8.9974  -16.1680   20.3993 C   0  0  0  0  0  0  0  0  0  0  0  0
   10.0425  -16.7859   19.5560 C   0  0  0  0  0  0  0  0  0  0  0  0
   11.4369  -16.6773   20.0008 C   0  0  2  0  0  0  0  0  0  0  0  0
   12.3887  -17.2968   19.0947 N   0  0  0  0  0  0  0  0  0  0  0  0
   11.5244  -17.4388   21.3154 C   0  0  0  0  0  0  0  0  0  0  0  0
   11.5716  -18.6703   21.3167 O   0  0  0  0  0  0  0  0  0  0  0  0
    8.9432  -11.2812   20.0840 N   0  0  0  0  0  0  0  0  0  0  0  0
   10.8286  -14.7030   30.7330 C   0  0  0  0  0  0  0  0  0  0  0  0
   10.2896  -14.7376   29.4160 N   0  0  0  0  0  0  0  0  0  0  0  0
    9.4605  -13.8060   29.0255 N   0  0  0  0  0  0  0  0  0  0  0  0
   10.6137  -15.7478   28.4815 C   0  0  0  0  0  0  0  0  0  0  0  0
   10.7410  -15.4804   27.0911 C   0  0  0  0  0  0  0  0  0  0  0  0
   11.0129  -16.6705   26.2203 C   0  0  0  0  0  0  0  0  0  0  0  0
   11.1010  -16.2487   24.7730 C   0  0  2  0  0  0  0  0  0  0  0  0
   11.5022  -17.3226   23.8221 N   0  0  0  0  0  0  0  0  0  0  0  0
   11.5482  -16.6850   22.4940 C   0  0  0  0  0  0  0  0  0  0  0  0
   10.4775  -18.4065   23.8051 O   0  0  0  0  0  0  0  0  0  0  0  0
    9.4415  -18.3387   23.1116 O   0  0  0  0  0  0  0  0  0  0  0  0
  2  1  1  0
  3  2  2  0
  4  2  1  0
  5  4  1  0
  6  5  1  0
  6  7  1  1
  8  9  2  0
  8  6  1  0
 10 11  1  0
 11 12  2  0
 13 11  1  0
 14 13  1  0
 15 14  1  0
 15 16  1  0
 17 16  1  6
 17 18  1  0
 18  8  1  0
 19 20  2  0
 19 17  1  0
 21 22  1  0
 22 24  1  0
 23 22  2  0
 24 25  1  0
 26 27  1  0
 26 25  1  0
 28 29  1  0
 28 27  1  1
 29 19  1  0
 30 28  1  0
 31 30  2  0
 32 30  1  0
M  END
$$$$
