QRR.pdb
     RDKit          3D

 32 31  0  0  1  0  0  0  0  0999 V2000
    7.9130  -13.0449   18.1355 N   0  0  0  0  0  0  0  0  0  0  0  0
    8.3161  -13.8003   17.0171 C   0  0  0  0  0  0  0  0  0  0  0  0
    8.3127  -13.2615   15.8762 O   0  0  0  0  0  0  0  0  0  0  0  0
    8.7327  -15.2077   17.2206 C   0  0  0  0  0  0  0  0  0  0  0  0
    8.6298  -15.6285   18.6557 C   0  0  0  0  0  0  0  0  0  0  0  0
    9.0117  -17.1152   18.7210 C   0  0  2  0  0  0  0  0  0  0  0  0
    8.1795  -17.8795   17.8130 N   0  0  0  0  0  0  0  0  0  0  0  0
    8.8140  -17.6341   20.0897 C   0  0  0  0  0  0  0  0  0  0  0  0
    7.6714  -17.6281   20.5908 O   0  0  0  0  0  0  0  0  0  0  0  0
   12.7779  -20.9164   27.0483 N   0  0  0  0  0  0  0  0  0  0  0  0
   11.6564  -21.6324   26.5686 C   0  0  0  0  0  0  0  0  0  0  0  0
   10.6338  -21.8602   27.3173 N   0  0  0  0  0  0  0  0  0  0  0  0
   11.6404  -22.1459   25.2032 N   0  0  0  0  0  0  0  0  0  0  0  0
   11.8466  -21.2348   24.1306 C   0  0  0  0  0  0  0  0  0  0  0  0
   10.6825  -20.4007   23.7593 C   0  0  0  0  0  0  0  0  0  0  0  0
   10.9050  -19.4829   22.6220 C   0  0  0  0  0  0  0  0  0  0  0  0
    9.7876  -18.6309   22.1984 C   0  0  2  0  0  0  0  0  0  0  0  0
    9.9127  -18.1375   20.8377 N   0  0  0  0  0  0  0  0  0  0  0  0
    9.8124  -17.4127   23.1100 C   0  0  0  0  0  0  0  0  0  0  0  0
   10.6918  -16.5590   22.9804 O   0  0  0  0  0  0  0  0  0  0  0  0
    9.7862  -22.3664   26.9951 N   0  0  0  0  0  0  0  0  0  0  0  0
    6.3266  -10.7803   24.9393 C   0  0  0  0  0  0  0  0  0  0  0  0
    6.3411  -11.1797   26.3055 N   0  0  0  0  0  0  0  0  0  0  0  0
    6.1141  -10.3003   27.2450 N   0  0  0  0  0  0  0  0  0  0  0  0
    6.5896  -12.5108   26.7122 C   0  0  0  0  0  0  0  0  0  0  0  0
    6.8515  -13.5511   25.7796 C   0  0  0  0  0  0  0  0  0  0  0  0
    7.0186  -14.9227   26.3622 C   0  0  0  0  0  0  0  0  0  0  0  0
    7.3165  -15.9211   25.2692 C   0  0  1  0  0  0  0  0  0  0  0  0
    8.7619  -16.1954   25.0367 N   0  0  0  0  0  0  0  0  0  0  0  0
    8.8082  -17.3153   24.0795 C   0  0  0  0  0  0  0  0  0  0  0  0
    9.4186  -16.6160   26.3082 O   0  0  0  0  0  0  0  0  0  0  0  0
    9.4945  -17.8116   26.6600 O   0  0  0  0  0  0  0  0  0  0  0  0
  2  1  1  0
  3  2  2  0
  4  2  1  0
  5  4  1  0
  6  5  1  0
  6  7  1  6
  8  9  2  0
  8  6  1  0
 10 11  1  0
 11 12  2  0
 13 11  1  0
 14 13  1  0
 15 14  1  0
 15 16  1  0
 17 16  1  1
 17 18  1  0
 18  8  1  0
 19 20  2  0
 19 17  1  0
 21 22  1  0
 22 24  1  0
 23 22  2  0
 24 25  1  0
 26 27  1  0
 26 25  1  0
 28 29  1  0
 28 27  1  6
 29 19  1  0
 30 28  1  0
 31 30  2  0
 32 30  1  0
M  END
$$$$
