QRR.pdb
     RDKit          3D

 32 31  0  0  1  0  0  0  0  0999 V2000
    6.5802  -12.6461   16.9319 N   0  0  0  0  0  0  0  0  0  0  0  0
    7.7032  -13.4467   16.6460 C   0  0  0  0  0  0  0  0  0  0  0  0
    7.8890  -13.8475   15.4642 O   0  0  0  0  0  0  0  0  0  0  0  0
    8.6318  -13.7912   17.7482 C   0  0  0  0  0  0  0  0  0  0  0  0
    8.1396  -13.3054   19.0782 C   0  0  0  0  0  0  0  0  0  0  0  0
    9.2041  -13.6806   20.1205 C   0  0  2  0  0  0  0  0  0  0  0  0
   10.3340  -14.3117   19.4676 N   0  0  0  0  0  0  0  0  0  0  0  0
    8.6428  -14.6259   21.1070 C   0  0  0  0  0  0  0  0  0  0  0  0
    7.5826  -14.3395   21.6992 O   0  0  0  0  0  0  0  0  0  0  0  0
   10.1304  -20.8585   19.7046 N   0  0  0  0  0  0  0  0  0  0  0  0
    8.7295  -20.6700   19.7538 C   0  0  0  0  0  0  0  0  0  0  0  0
    8.0676  -20.2760   18.7219 N   0  0  0  0  0  0  0  0  0  0  0  0
    7.9983  -20.9077   20.9935 N   0  0  0  0  0  0  0  0  0  0  0  0
    8.6620  -20.6778   22.2304 C   0  0  0  0  0  0  0  0  0  0  0  0
    8.5453  -19.3096   22.7811 C   0  0  0  0  0  0  0  0  0  0  0  0
    8.9023  -18.2232   21.8444 C   0  0  0  0  0  0  0  0  0  0  0  0
    8.7799  -16.8397   22.3186 C   0  0  2  0  0  0  0  0  0  0  0  0
    9.3002  -15.8546   21.3861 N   0  0  0  0  0  0  0  0  0  0  0  0
    9.6312  -16.7445   23.5764 C   0  0  0  0  0  0  0  0  0  0  0  0
   10.8088  -17.1073   23.5571 O   0  0  0  0  0  0  0  0  0  0  0  0
    7.0478  -20.0801   18.7330 N   0  0  0  0  0  0  0  0  0  0  0  0
    6.0816  -10.4050   25.6767 C   0  0  0  0  0  0  0  0  0  0  0  0
    6.1118  -11.7903   26.0024 N   0  0  0  0  0  0  0  0  0  0  0  0
    5.0200  -12.3928   26.3932 N   0  0  0  0  0  0  0  0  0  0  0  0
    7.2873  -12.5716   25.9199 C   0  0  0  0  0  0  0  0  0  0  0  0
    8.0474  -12.9194   27.0697 C   0  0  0  0  0  0  0  0  0  0  0  0
    9.2685  -13.7522   26.8169 C   0  0  0  0  0  0  0  0  0  0  0  0
    8.9168  -15.2202   26.8593 C   0  0  2  0  0  0  0  0  0  0  0  0
    9.7560  -16.0992   25.9983 N   0  0  0  0  0  0  0  0  0  0  0  0
    9.0209  -16.2353   24.7280 C   0  0  0  0  0  0  0  0  0  0  0  0
    9.9012  -17.4464   26.6220 O   0  0  0  0  0  0  0  0  0  0  0  0
    8.9821  -18.2914   26.6139 O   0  0  0  0  0  0  0  0  0  0  0  0
  2  1  1  0
  3  2  2  0
  4  2  1  0
  5  4  1  0
  6  5  1  0
  6  7  1  6
  8  9  2  0
  8  6  1  0
 10 11  1  0
 11 12  2  0
 13 11  1  0
 14 13  1  0
 15 14  1  0
 15 16  1  0
 17 16  1  6
 17 18  1  0
 18  8  1  0
 19 20  2  0
 19 17  1  0
 21 22  1  0
 22 24  1  0
 23 22  2  0
 24 25  1  0
 26 27  1  0
 26 25  1  0
 28 29  1  0
 28 27  1  6
 29 19  1  0
 30 28  1  0
 31 30  2  0
 32 30  1  0
M  END
$$$$
