LGR.pdb
     RDKit          3D

 24 23  0  0  1  0  0  0  0  0999 V2000
    9.1135  -11.9447   19.4960 C   0  0  0  0  0  0  0  0  0  0  0  0
    8.3073  -13.1510   19.1560 C   0  0  2  0  0  0  0  0  0  0  0  0
    6.8223  -12.8093   19.3363 C   0  0  0  0  0  0  0  0  0  0  0  0
    8.5704  -14.3696   19.9611 C   0  0  0  0  0  0  0  0  0  0  0  0
    9.9935  -14.8230   20.0339 C   0  0  2  0  0  0  0  0  0  0  0  0
   10.6421  -15.0549   18.7903 N   0  0  0  0  0  0  0  0  0  0  0  0
   10.1687  -16.0075   20.9116 C   0  0  0  0  0  0  0  0  0  0  0  0
    9.6723  -16.0177   22.0831 O   0  0  0  0  0  0  0  0  0  0  0  0
   10.8814  -17.1548   20.4955 N   0  0  0  0  0  0  0  0  0  0  0  0
   10.9408  -18.3742   21.2639 C   0  0  0  0  0  0  0  0  0  0  0  0
   11.8426  -18.3322   22.4181 C   0  0  0  0  0  0  0  0  0  0  0  0
   13.1003  -18.1966   22.2212 O   0  0  0  0  0  0  0  0  0  0  0  0
   11.6832  -20.3808   31.2621 N   0  0  0  0  0  0  0  0  0  0  0  0
   11.6271  -21.1115   30.0312 C   0  0  0  0  0  0  0  0  0  0  0  0
   11.8538  -22.3755   30.0249 N   0  0  0  0  0  0  0  0  0  0  0  0
   11.3179  -20.4066   28.8338 N   0  0  0  0  0  0  0  0  0  0  0  0
   12.1978  -19.3453   28.3890 C   0  0  0  0  0  0  0  0  0  0  0  0
   12.8089  -19.7488   27.0476 C   0  0  0  0  0  0  0  0  0  0  0  0
   11.8381  -19.5248   25.9240 C   0  0  0  0  0  0  0  0  0  0  0  0
   12.4202  -18.6682   24.8679 C   0  0  2  0  0  0  0  0  0  0  0  0
   11.4755  -18.4246   23.7796 N   0  0  0  0  0  0  0  0  0  0  0  0
   13.6266  -19.2708   24.2847 C   0  0  0  0  0  0  0  0  0  0  0  0
   14.9134  -18.7712   24.3552 O   0  0  0  0  0  0  0  0  0  0  0  0
   13.5216  -20.3708   23.6335 O   0  0  0  0  0  0  0  0  0  0  0  0
  2  1  1  1
  2  4  1  0
  3  2  1  0
  4  5  1  0
  5  6  1  6
  7  5  1  0
  7  9  1  0
  8  7  2  0
  9 10  1  0
 11 12  2  0
 11 10  1  0
 13 14  1  0
 14 15  2  0
 16 14  1  0
 16 17  1  0
 17 18  1  0
 19 18  1  0
 20 19  1  1
 20 22  1  0
 20 21  1  0
 21 11  1  0
 22 23  1  0
 24 22  2  0
M  END
$$$$
