LGR.pdb
     RDKit          3D

 24 23  0  0  1  0  0  0  0  0999 V2000
   10.5247  -13.7315   29.7019 C   0  0  0  0  0  0  0  0  0  0  0  0
   10.2476  -15.1234   29.2472 C   0  0  2  0  0  0  0  0  0  0  0  0
   11.5558  -15.7336   28.7265 C   0  0  0  0  0  0  0  0  0  0  0  0
    9.2403  -15.2775   28.1683 C   0  0  0  0  0  0  0  0  0  0  0  0
    8.5624  -16.6074   28.0780 C   0  0  2  0  0  0  0  0  0  0  0  0
    9.3659  -17.7422   28.3738 N   0  0  0  0  0  0  0  0  0  0  0  0
    7.8801  -16.8105   26.7751 C   0  0  0  0  0  0  0  0  0  0  0  0
    7.2737  -15.8449   26.2105 O   0  0  0  0  0  0  0  0  0  0  0  0
    7.8719  -18.0604   26.1156 N   0  0  0  0  0  0  0  0  0  0  0  0
    7.2442  -18.2780   24.8352 C   0  0  0  0  0  0  0  0  0  0  0  0
    8.0476  -17.8741   23.6783 C   0  0  0  0  0  0  0  0  0  0  0  0
    8.0563  -18.6173   22.6359 O   0  0  0  0  0  0  0  0  0  0  0  0
    7.4521  -14.3866   16.6201 N   0  0  0  0  0  0  0  0  0  0  0  0
    7.6092  -13.5408   17.7657 C   0  0  0  0  0  0  0  0  0  0  0  0
    7.7818  -12.2777   17.6114 N   0  0  0  0  0  0  0  0  0  0  0  0
    7.5691  -14.1323   19.0598 N   0  0  0  0  0  0  0  0  0  0  0  0
    8.7690  -14.1430   19.8714 C   0  0  0  0  0  0  0  0  0  0  0  0
    8.4867  -14.9336   21.1485 C   0  0  0  0  0  0  0  0  0  0  0  0
    9.7401  -15.1217   21.9540 C   0  0  0  0  0  0  0  0  0  0  0  0
    9.8268  -16.4901   22.5090 C   0  0  2  0  0  0  0  0  0  0  0  0
    8.8455  -16.7128   23.5691 N   0  0  0  0  0  0  0  0  0  0  0  0
   11.1573  -16.7651   23.0681 C   0  0  0  0  0  0  0  0  0  0  0  0
   11.4662  -16.9623   24.4009 O   0  0  0  0  0  0  0  0  0  0  0  0
   12.1639  -16.8357   22.2762 O   0  0  0  0  0  0  0  0  0  0  0  0
  2  1  1  6
  2  4  1  0
  3  2  1  0
  4  5  1  0
  5  6  1  6
  7  5  1  0
  7  9  1  0
  8  7  2  0
  9 10  1  0
 11 12  2  0
 11 10  1  0
 13 14  1  0
 14 15  2  0
 16 14  1  0
 16 17  1  0
 17 18  1  0
 19 18  1  0
 20 19  1  1
 20 22  1  0
 20 21  1  0
 21 11  1  0
 22 23  1  0
 24 22  2  0
M  END
$$$$
