LGR.pdb
     RDKit          3D

 24 23  0  0  1  0  0  0  0  0999 V2000
    5.9718  -11.6700   26.6443 C   0  0  0  0  0  0  0  0  0  0  0  0
    7.2482  -12.2554   26.1457 C   0  0  2  0  0  0  0  0  0  0  0  0
    8.1236  -11.1189   25.6009 C   0  0  0  0  0  0  0  0  0  0  0  0
    7.1336  -13.2672   25.0660 C   0  0  0  0  0  0  0  0  0  0  0  0
    6.5166  -14.5755   25.4449 C   0  0  2  0  0  0  0  0  0  0  0  0
    6.8781  -15.0940   26.7183 N   0  0  0  0  0  0  0  0  0  0  0  0
    6.7188  -15.6205   24.4098 C   0  0  0  0  0  0  0  0  0  0  0  0
    6.5421  -15.3483   23.1796 O   0  0  0  0  0  0  0  0  0  0  0  0
    7.1080  -16.9393   24.7365 N   0  0  0  0  0  0  0  0  0  0  0  0
    7.3715  -17.9567   23.7484 C   0  0  0  0  0  0  0  0  0  0  0  0
    8.6499  -17.8173   23.0459 C   0  0  0  0  0  0  0  0  0  0  0  0
    8.9729  -18.6856   22.1623 O   0  0  0  0  0  0  0  0  0  0  0  0
    7.4553  -14.4102   18.8037 N   0  0  0  0  0  0  0  0  0  0  0  0
    8.4544  -13.3922   18.9370 C   0  0  0  0  0  0  0  0  0  0  0  0
    8.1053  -12.1752   19.1515 N   0  0  0  0  0  0  0  0  0  0  0  0
    9.8242  -13.7633   18.8261 N   0  0  0  0  0  0  0  0  0  0  0  0
   10.6252  -13.8834   20.0271 C   0  0  0  0  0  0  0  0  0  0  0  0
   10.3329  -15.2365   20.6747 C   0  0  0  0  0  0  0  0  0  0  0  0
   11.1398  -15.4198   21.9278 C   0  0  0  0  0  0  0  0  0  0  0  0
   10.8949  -16.7434   22.5410 C   0  0  2  0  0  0  0  0  0  0  0  0
    9.6081  -16.7955   23.2323 N   0  0  0  0  0  0  0  0  0  0  0  0
   11.9386  -17.0915   23.5146 C   0  0  0  0  0  0  0  0  0  0  0  0
   13.2409  -17.4573   23.2308 O   0  0  0  0  0  0  0  0  0  0  0  0
   11.6565  -17.0695   24.7657 O   0  0  0  0  0  0  0  0  0  0  0  0
  2  1  1  6
  2  4  1  0
  3  2  1  0
  4  5  1  0
  5  6  1  1
  7  5  1  0
  7  9  1  0
  8  7  2  0
  9 10  1  0
 11 12  2  0
 11 10  1  0
 13 14  1  0
 14 15  2  0
 16 14  1  0
 16 17  1  0
 17 18  1  0
 19 18  1  0
 20 19  1  1
 20 22  1  0
 20 21  1  0
 21 11  1  0
 22 23  1  0
 24 22  2  0
M  END
$$$$
