LGR.pdb
     RDKit          3D

 24 23  0  0  1  0  0  0  0  0999 V2000
    9.5497  -12.7559   18.7965 C   0  0  0  0  0  0  0  0  0  0  0  0
    8.1767  -13.2788   18.5469 C   0  0  2  0  0  0  0  0  0  0  0  0
    7.2265  -12.0861   18.3755 C   0  0  0  0  0  0  0  0  0  0  0  0
    7.5969  -14.1437   19.6043 C   0  0  0  0  0  0  0  0  0  0  0  0
    8.3801  -15.3649   19.9668 C   0  0  2  0  0  0  0  0  0  0  0  0
    8.6164  -16.2930   18.9162 N   0  0  0  0  0  0  0  0  0  0  0  0
    7.8116  -16.0781   21.1383 C   0  0  0  0  0  0  0  0  0  0  0  0
    7.6569  -15.4716   22.2460 O   0  0  0  0  0  0  0  0  0  0  0  0
    7.4249  -17.4361   21.0788 N   0  0  0  0  0  0  0  0  0  0  0  0
    6.9162  -18.1668   22.2137 C   0  0  0  0  0  0  0  0  0  0  0  0
    7.7934  -18.1710   23.3875 C   0  0  0  0  0  0  0  0  0  0  0  0
    8.9379  -18.7391   23.3078 O   0  0  0  0  0  0  0  0  0  0  0  0
    9.9457  -16.4270   30.4738 N   0  0  0  0  0  0  0  0  0  0  0  0
   10.2404  -15.0273   30.3940 C   0  0  0  0  0  0  0  0  0  0  0  0
   10.4356  -14.3509   31.4680 N   0  0  0  0  0  0  0  0  0  0  0  0
   10.3091  -14.4177   29.1095 N   0  0  0  0  0  0  0  0  0  0  0  0
    9.2119  -14.5965   28.1807 C   0  0  0  0  0  0  0  0  0  0  0  0
    9.3892  -15.9373   27.4692 C   0  0  0  0  0  0  0  0  0  0  0  0
    8.3789  -16.1020   26.3703 C   0  0  0  0  0  0  0  0  0  0  0  0
    8.5152  -17.4143   25.7015 C   0  0  2  0  0  0  0  0  0  0  0  0
    7.5175  -17.5973   24.6492 N   0  0  0  0  0  0  0  0  0  0  0  0
    8.3695  -18.5250   26.6521 C   0  0  0  0  0  0  0  0  0  0  0  0
    9.3642  -19.0675   27.4438 O   0  0  0  0  0  0  0  0  0  0  0  0
    7.2213  -19.0792   26.7922 O   0  0  0  0  0  0  0  0  0  0  0  0
  2  1  1  1
  2  4  1  0
  3  2  1  0
  4  5  1  0
  5  6  1  6
  7  5  1  0
  7  9  1  0
  8  7  2  0
  9 10  1  0
 11 12  2  0
 11 10  1  0
 13 14  1  0
 14 15  2  0
 16 14  1  0
 16 17  1  0
 17 18  1  0
 19 18  1  0
 20 19  1  1
 20 22  1  0
 20 21  1  0
 21 11  1  0
 22 23  1  0
 24 22  2  0
M  END
$$$$
