LGR.pdb
     RDKit          3D

 24 23  0  0  1  0  0  0  0  0999 V2000
    6.8969  -13.8964   21.8113 C   0  0  0  0  0  0  0  0  0  0  0  0
    7.9420  -13.8421   20.7504 C   0  0  2  0  0  0  0  0  0  0  0  0
    7.9452  -12.4327   20.1435 C   0  0  0  0  0  0  0  0  0  0  0  0
    7.7901  -14.7964   19.6241 C   0  0  0  0  0  0  0  0  0  0  0  0
    7.8152  -16.2493   19.9769 C   0  0  2  0  0  0  0  0  0  0  0  0
    7.6032  -16.5658   21.3465 N   0  0  0  0  0  0  0  0  0  0  0  0
    9.0440  -16.9300   19.4965 C   0  0  0  0  0  0  0  0  0  0  0  0
    8.9681  -18.0646   18.9257 O   0  0  0  0  0  0  0  0  0  0  0  0
   10.3289  -16.3614   19.6487 N   0  0  0  0  0  0  0  0  0  0  0  0
   11.5479  -17.0512   19.3039 C   0  0  0  0  0  0  0  0  0  0  0  0
   12.1135  -17.8759   20.3749 C   0  0  0  0  0  0  0  0  0  0  0  0
   13.3776  -18.0766   20.4050 O   0  0  0  0  0  0  0  0  0  0  0  0
    9.5298  -13.9533   24.5712 N   0  0  0  0  0  0  0  0  0  0  0  0
    8.6596  -14.8743   23.9029 C   0  0  0  0  0  0  0  0  0  0  0  0
    7.6813  -14.4349   23.1966 N   0  0  0  0  0  0  0  0  0  0  0  0
    8.9070  -16.2692   24.0425 N   0  0  0  0  0  0  0  0  0  0  0  0
    9.9719  -16.7158   24.9171 C   0  0  0  0  0  0  0  0  0  0  0  0
   11.1705  -17.1194   24.0591 C   0  0  0  0  0  0  0  0  0  0  0  0
   11.2083  -18.6062   23.8514 C   0  0  0  0  0  0  0  0  0  0  0  0
   12.0160  -18.9670   22.6659 C   0  0  2  0  0  0  0  0  0  0  0  0
   11.4021  -18.5006   21.4241 N   0  0  0  0  0  0  0  0  0  0  0  0
   12.1971  -20.4208   22.5551 C   0  0  0  0  0  0  0  0  0  0  0  0
   12.9192  -21.2287   23.4132 O   0  0  0  0  0  0  0  0  0  0  0  0
   11.6494  -21.0446   21.5773 O   0  0  0  0  0  0  0  0  0  0  0  0
  2  1  1  1
  2  4  1  0
  3  2  1  0
  4  5  1  0
  5  6  1  1
  7  5  1  0
  7  9  1  0
  8  7  2  0
  9 10  1  0
 11 12  2  0
 11 10  1  0
 13 14  1  0
 14 15  2  0
 16 14  1  0
 16 17  1  0
 17 18  1  0
 19 18  1  0
 20 19  1  1
 20 22  1  0
 20 21  1  0
 21 11  1  0
 22 23  1  0
 24 22  2  0
M  END
$$$$
