LGR.pdb
     RDKit          3D

 24 23  0  0  1  0  0  0  0  0999 V2000
    6.0840  -11.8962   27.7492 C   0  0  0  0  0  0  0  0  0  0  0  0
    7.0970  -12.4939   26.8342 C   0  0  2  0  0  0  0  0  0  0  0  0
    7.7437  -11.3644   26.0214 C   0  0  0  0  0  0  0  0  0  0  0  0
    6.5973  -13.4952   25.8595 C   0  0  0  0  0  0  0  0  0  0  0  0
    6.2708  -14.8483   26.4060 C   0  0  2  0  0  0  0  0  0  0  0  0
    6.8048  -15.1524   27.6879 N   0  0  0  0  0  0  0  0  0  0  0  0
    6.6071  -15.9406   25.4583 C   0  0  0  0  0  0  0  0  0  0  0  0
    6.2841  -15.8480   24.2311 O   0  0  0  0  0  0  0  0  0  0  0  0
    7.2866  -17.1104   25.8672 N   0  0  0  0  0  0  0  0  0  0  0  0
    7.5768  -18.2106   24.9805 C   0  0  0  0  0  0  0  0  0  0  0  0
    8.7680  -18.0321   24.1461 C   0  0  0  0  0  0  0  0  0  0  0  0
    9.1336  -18.9830   23.3707 O   0  0  0  0  0  0  0  0  0  0  0  0
    8.4039  -12.2223   19.1347 N   0  0  0  0  0  0  0  0  0  0  0  0
    7.8944  -13.5266   18.8323 C   0  0  0  0  0  0  0  0  0  0  0  0
    7.0814  -13.6858   17.8511 N   0  0  0  0  0  0  0  0  0  0  0  0
    8.3090  -14.6240   19.6387 N   0  0  0  0  0  0  0  0  0  0  0  0
    9.2803  -14.4032   20.6905 C   0  0  0  0  0  0  0  0  0  0  0  0
    9.6272  -15.7499   21.3242 C   0  0  0  0  0  0  0  0  0  0  0  0
   10.7138  -15.5990   22.3497 C   0  0  0  0  0  0  0  0  0  0  0  0
   10.7817  -16.7754   23.2439 C   0  0  2  0  0  0  0  0  0  0  0  0
    9.5952  -16.8876   24.0900 N   0  0  0  0  0  0  0  0  0  0  0  0
   11.9550  -16.7187   24.1264 C   0  0  0  0  0  0  0  0  0  0  0  0
   11.9463  -16.7066   25.5085 O   0  0  0  0  0  0  0  0  0  0  0  0
   13.1258  -16.6720   23.6047 O   0  0  0  0  0  0  0  0  0  0  0  0
  2  1  1  6
  2  4  1  0
  3  2  1  0
  4  5  1  0
  5  6  1  1
  7  5  1  0
  7  9  1  0
  8  7  2  0
  9 10  1  0
 11 12  2  0
 11 10  1  0
 13 14  1  0
 14 15  2  0
 16 14  1  0
 16 17  1  0
 17 18  1  0
 19 18  1  0
 20 19  1  1
 20 22  1  0
 20 21  1  0
 21 11  1  0
 22 23  1  0
 24 22  2  0
M  END
$$$$
