LGR.pdb
     RDKit          3D

 24 23  0  0  1  0  0  0  0  0999 V2000
    6.8146  -10.7090   25.2849 C   0  0  0  0  0  0  0  0  0  0  0  0
    5.9411  -11.6076   26.0913 C   0  0  2  0  0  0  0  0  0  0  0  0
    5.6817  -10.9420   27.4494 C   0  0  0  0  0  0  0  0  0  0  0  0
    6.4694  -12.9660   26.3706 C   0  0  0  0  0  0  0  0  0  0  0  0
    7.0254  -13.7153   25.2021 C   0  0  2  0  0  0  0  0  0  0  0  0
    6.3472  -13.5408   23.9649 N   0  0  0  0  0  0  0  0  0  0  0  0
    7.1832  -15.1653   25.4794 C   0  0  0  0  0  0  0  0  0  0  0  0
    7.8718  -15.5574   26.4748 O   0  0  0  0  0  0  0  0  0  0  0  0
    6.5890  -16.1570   24.6665 N   0  0  0  0  0  0  0  0  0  0  0  0
    6.8027  -17.5710   24.8555 C   0  0  0  0  0  0  0  0  0  0  0  0
    8.0671  -18.0805   24.3181 C   0  0  0  0  0  0  0  0  0  0  0  0
    8.2643  -19.3450   24.2825 O   0  0  0  0  0  0  0  0  0  0  0  0
    8.6510  -12.6428   19.8517 N   0  0  0  0  0  0  0  0  0  0  0  0
    8.1906  -13.7902   19.1279 C   0  0  0  0  0  0  0  0  0  0  0  0
    7.6124  -13.6416   17.9910 N   0  0  0  0  0  0  0  0  0  0  0  0
    8.3896  -15.0797   19.6969 N   0  0  0  0  0  0  0  0  0  0  0  0
    9.5669  -15.3237   20.5050 C   0  0  0  0  0  0  0  0  0  0  0  0
    9.4946  -16.7480   21.0542 C   0  0  0  0  0  0  0  0  0  0  0  0
   10.6733  -17.0461   21.9357 C   0  0  0  0  0  0  0  0  0  0  0  0
   10.2846  -17.8743   23.0980 C   0  0  2  0  0  0  0  0  0  0  0  0
    9.1391  -17.3120   23.8107 N   0  0  0  0  0  0  0  0  0  0  0  0
   11.3863  -18.0089   24.0606 C   0  0  0  0  0  0  0  0  0  0  0  0
   12.5949  -18.6443   23.8458 O   0  0  0  0  0  0  0  0  0  0  0  0
   11.2561  -17.5029   25.2321 O   0  0  0  0  0  0  0  0  0  0  0  0
  2  1  1  1
  2  4  1  0
  3  2  1  0
  4  5  1  0
  5  6  1  6
  7  5  1  0
  7  9  1  0
  8  7  2  0
  9 10  1  0
 11 12  2  0
 11 10  1  0
 13 14  1  0
 14 15  2  0
 16 14  1  0
 16 17  1  0
 17 18  1  0
 19 18  1  0
 20 19  1  6
 20 22  1  0
 20 21  1  0
 21 11  1  0
 22 23  1  0
 24 22  2  0
M  END
$$$$
