LGR.pdb
     RDKit          3D

 24 23  0  0  1  0  0  0  0  0999 V2000
    7.7148  -13.6294   21.4676 C   0  0  0  0  0  0  0  0  0  0  0  0
    8.2076  -13.8130   20.0733 C   0  0  2  0  0  0  0  0  0  0  0  0
    7.8175  -12.5759   19.2535 C   0  0  0  0  0  0  0  0  0  0  0  0
    7.6916  -14.9961   19.3409 C   0  0  0  0  0  0  0  0  0  0  0  0
    8.0409  -16.3339   19.9104 C   0  0  2  0  0  0  0  0  0  0  0  0
    7.3193  -16.7296   21.0697 N   0  0  0  0  0  0  0  0  0  0  0  0
    9.4969  -16.4835   20.1590 C   0  0  0  0  0  0  0  0  0  0  0  0
   10.2307  -17.1016   19.3234 O   0  0  0  0  0  0  0  0  0  0  0  0
   10.1223  -15.9581   21.3123 N   0  0  0  0  0  0  0  0  0  0  0  0
   11.5392  -16.0602   21.5630 C   0  0  0  0  0  0  0  0  0  0  0  0
   11.8991  -16.8064   22.7717 C   0  0  0  0  0  0  0  0  0  0  0  0
   13.1363  -16.9674   23.0590 O   0  0  0  0  0  0  0  0  0  0  0  0
    6.7615  -12.5653   26.5708 N   0  0  0  0  0  0  0  0  0  0  0  0
    7.9025  -13.2715   27.0725 C   0  0  0  0  0  0  0  0  0  0  0  0
    8.4568  -12.8979   28.1689 N   0  0  0  0  0  0  0  0  0  0  0  0
    8.3964  -14.3821   26.3315 N   0  0  0  0  0  0  0  0  0  0  0  0
    9.1219  -15.4285   27.0222 C   0  0  0  0  0  0  0  0  0  0  0  0
    9.5120  -16.5026   26.0074 C   0  0  0  0  0  0  0  0  0  0  0  0
   10.9868  -16.7816   26.0580 C   0  0  0  0  0  0  0  0  0  0  0  0
   11.3814  -17.7931   25.0535 C   0  0  2  0  0  0  0  0  0  0  0  0
   11.0075  -17.3921   23.6986 N   0  0  0  0  0  0  0  0  0  0  0  0
   10.7570  -19.0957   25.3214 C   0  0  0  0  0  0  0  0  0  0  0  0
   10.9710  -19.9005   26.4246 O   0  0  0  0  0  0  0  0  0  0  0  0
    9.9244  -19.5746   24.4713 O   0  0  0  0  0  0  0  0  0  0  0  0
  2  1  1  1
  2  4  1  0
  3  2  1  0
  4  5  1  0
  5  6  1  1
  7  5  1  0
  7  9  1  0
  8  7  2  0
  9 10  1  0
 11 12  2  0
 11 10  1  0
 13 14  1  0
 14 15  2  0
 16 14  1  0
 16 17  1  0
 17 18  1  0
 19 18  1  0
 20 19  1  1
 20 22  1  0
 20 21  1  0
 21 11  1  0
 22 23  1  0
 24 22  2  0
M  END
$$$$
