PKE.pdb
     RDKit          3D

 26 26  0  0  1  0  0  0  0  0999 V2000
   27.6199  -21.6778  -15.8038 N   0  0  0  0  0  0  0  0  0  0  0  0
   29.0641  -21.8722  -15.9846 C   0  0  0  0  0  0  0  0  0  0  0  0
   29.3927  -21.2101  -17.3041 C   0  0  0  0  0  0  0  0  0  0  0  0
   28.1483  -20.4527  -17.6645 C   0  0  0  0  0  0  0  0  0  0  0  0
   27.4521  -20.3442  -16.3023 C   0  0  1  0  0  0  0  0  0  0  0  0
   26.0290  -20.0133  -16.5781 C   0  0  0  0  0  0  0  0  0  0  0  0
   25.7324  -18.8739  -17.0315 O   0  0  0  0  0  0  0  0  0  0  0  0
   24.9763  -20.9290  -16.3532 N   0  0  0  0  0  0  0  0  0  0  0  0
   23.6247  -20.7351  -16.7747 C   0  0  1  0  0  0  0  0  0  0  0  0
   22.9870  -22.0346  -17.2447 C   0  0  0  0  0  0  0  0  0  0  0  0
   23.0903  -22.2505  -18.7200 C   0  0  0  0  0  0  0  0  0  0  0  0
   22.3516  -23.5412  -19.0276 C   0  0  0  0  0  0  0  0  0  0  0  0
   22.4703  -23.8712  -20.5044 C   0  0  0  0  0  0  0  0  0  0  0  0
   21.7972  -25.1115  -20.8062 N   0  0  0  0  0  0  0  0  0  0  0  0
   22.8298  -20.3023  -15.5585 C   0  0  0  0  0  0  0  0  0  0  0  0
   23.1228  -20.7449  -14.4238 O   0  0  0  0  0  0  0  0  0  0  0  0
   21.7543  -19.4004  -15.6874 N   0  0  0  0  0  0  0  0  0  0  0  0
   20.9314  -18.8882  -14.6372 C   0  0  1  0  0  0  0  0  0  0  0  0
   20.2745  -17.5519  -14.9303 C   0  0  0  0  0  0  0  0  0  0  0  0
   19.3885  -17.1740  -13.7779 C   0  0  0  0  0  0  0  0  0  0  0  0
   18.5608  -15.9570  -14.1054 C   0  0  0  0  0  0  0  0  0  0  0  0
   18.7516  -15.2618  -15.1316 O   0  0  0  0  0  0  0  0  0  0  0  0
   20.0250  -19.8866  -14.0487 C   0  0  0  0  0  0  0  0  0  0  0  0
   19.7386  -19.9321  -12.6876 O   0  0  0  0  0  0  0  0  0  0  0  0
   17.5559  -15.6156  -13.2189 O   0  0  0  0  0  0  0  0  0  0  0  0
   19.4615  -20.7556  -14.7641 O   0  0  0  0  0  0  0  0  0  0  0  0
  1  5  1  0
  1  2  1  0
  2  3  1  0
  4  3  1  0
  5  4  1  0
  6  7  2  0
  5  6  1  6
  8  6  1  0
  9 10  1  1
  9  8  1  0
 11 10  1  0
 11 12  1  0
 13 14  1  0
 13 12  1  0
 15  9  1  0
 16 15  2  0
 17 15  1  0
 18 17  1  0
 19 20  1  0
 18 19  1  6
 21 25  1  0
 21 20  1  0
 22 21  2  0
 23 24  1  0
 23 18  1  0
 26 23  2  0
M  END
$$$$
