PKE.pdb
     RDKit          3D

 26 26  0  0  1  0  0  0  0  0999 V2000
   17.6660  -13.9237  -17.2383 N   0  0  0  0  0  0  0  0  0  0  0  0
   16.6915  -14.9565  -16.8642 C   0  0  0  0  0  0  0  0  0  0  0  0
   17.4921  -16.0147  -16.1382 C   0  0  0  0  0  0  0  0  0  0  0  0
   18.8368  -15.3849  -15.9206 C   0  0  0  0  0  0  0  0  0  0  0  0
   18.5048  -13.8957  -16.0762 C   0  0  1  0  0  0  0  0  0  0  0  0
   19.7943  -13.1967  -16.3203 C   0  0  0  0  0  0  0  0  0  0  0  0
   20.6619  -13.1553  -15.4052 O   0  0  0  0  0  0  0  0  0  0  0  0
   20.0991  -12.5668  -17.5482 N   0  0  0  0  0  0  0  0  0  0  0  0
   21.3361  -11.9152  -17.8438 C   0  0  1  0  0  0  0  0  0  0  0  0
   21.8256  -12.2413  -19.2475 C   0  0  0  0  0  0  0  0  0  0  0  0
   22.2728  -13.6582  -19.4093 C   0  0  0  0  0  0  0  0  0  0  0  0
   22.6375  -13.8392  -20.8723 C   0  0  0  0  0  0  0  0  0  0  0  0
   23.0918  -15.2653  -21.1244 C   0  0  0  0  0  0  0  0  0  0  0  0
   23.5448  -15.4239  -22.4854 N   0  0  0  0  0  0  0  0  0  0  0  0
   21.0735  -10.4221  -17.8354 C   0  0  0  0  0  0  0  0  0  0  0  0
   20.0642   -9.9564  -18.4131 O   0  0  0  0  0  0  0  0  0  0  0  0
   21.9580   -9.5412  -17.1809 N   0  0  0  0  0  0  0  0  0  0  0  0
   21.8147   -8.1262  -17.0405 C   0  0  1  0  0  0  0  0  0  0  0  0
   21.9887   -7.6006  -15.6276 C   0  0  0  0  0  0  0  0  0  0  0  0
   21.7618   -6.1159  -15.6217 C   0  0  0  0  0  0  0  0  0  0  0  0
   21.9674   -5.5404  -14.2433 C   0  0  0  0  0  0  0  0  0  0  0  0
   22.2393   -6.2491  -13.2449 O   0  0  0  0  0  0  0  0  0  0  0  0
   22.5335   -7.3495  -18.0628 C   0  0  0  0  0  0  0  0  0  0  0  0
   22.1028   -6.0998  -18.4980 O   0  0  0  0  0  0  0  0  0  0  0  0
   21.8445   -4.1702  -14.1027 O   0  0  0  0  0  0  0  0  0  0  0  0
   23.5854   -7.7907  -18.5950 O   0  0  0  0  0  0  0  0  0  0  0  0
  1  5  1  0
  1  2  1  0
  2  3  1  0
  4  3  1  0
  5  4  1  0
  6  7  2  0
  5  6  1  6
  8  6  1  0
  9 10  1  6
  9  8  1  0
 11 10  1  0
 11 12  1  0
 13 14  1  0
 13 12  1  0
 15  9  1  0
 16 15  2  0
 17 15  1  0
 18 17  1  0
 19 20  1  0
 18 19  1  1
 21 25  1  0
 21 20  1  0
 22 21  2  0
 23 24  1  0
 23 18  1  0
 26 23  2  0
M  END
$$$$
