PKE.pdb
     RDKit          3D

 26 26  0  0  1  0  0  0  0  0999 V2000
   24.3714  -12.0021  -15.6529 N   0  0  0  0  0  0  0  0  0  0  0  0
   25.1612  -13.1881  -16.0078 C   0  0  0  0  0  0  0  0  0  0  0  0
   24.5707  -13.6849  -17.3085 C   0  0  0  0  0  0  0  0  0  0  0  0
   23.6426  -12.5884  -17.7427 C   0  0  0  0  0  0  0  0  0  0  0  0
   24.1799  -11.3980  -16.9387 C   0  0  1  0  0  0  0  0  0  0  0  0
   23.1049  -10.3708  -16.9317 C   0  0  0  0  0  0  0  0  0  0  0  0
   22.8500   -9.7306  -17.9886 O   0  0  0  0  0  0  0  0  0  0  0  0
   22.3429  -10.0730  -15.7794 N   0  0  0  0  0  0  0  0  0  0  0  0
   21.2751   -9.1244  -15.7322 C   0  0  1  0  0  0  0  0  0  0  0  0
   20.0820   -9.6545  -14.9500 C   0  0  0  0  0  0  0  0  0  0  0  0
   19.1854  -10.5382  -15.7554 C   0  0  0  0  0  0  0  0  0  0  0  0
   18.1500  -11.1024  -14.7984 C   0  0  0  0  0  0  0  0  0  0  0  0
   17.2795  -12.1205  -15.5123 C   0  0  0  0  0  0  0  0  0  0  0  0
   16.2968  -12.6732  -14.6116 N   0  0  0  0  0  0  0  0  0  0  0  0
   21.7741   -7.9207  -14.9573 C   0  0  0  0  0  0  0  0  0  0  0  0
   22.5257   -8.0758  -13.9672 O   0  0  0  0  0  0  0  0  0  0  0  0
   21.4002   -6.6161  -15.3383 N   0  0  0  0  0  0  0  0  0  0  0  0
   21.7703   -5.3939  -14.6967 C   0  0  1  0  0  0  0  0  0  0  0  0
   21.4090   -4.1333  -15.4604 C   0  0  0  0  0  0  0  0  0  0  0  0
   21.9504   -2.9396  -14.7270 C   0  0  0  0  0  0  0  0  0  0  0  0
   21.6051   -1.6589  -15.4440 C   0  0  0  0  0  0  0  0  0  0  0  0
   21.4779   -1.5910  -16.6898 O   0  0  0  0  0  0  0  0  0  0  0  0
   21.4339   -5.3460  -13.2652 C   0  0  0  0  0  0  0  0  0  0  0  0
   22.2831   -4.7926  -12.3116 O   0  0  0  0  0  0  0  0  0  0  0  0
   21.4271   -0.5266  -14.6704 O   0  0  0  0  0  0  0  0  0  0  0  0
   20.3458   -5.8114  -12.8365 O   0  0  0  0  0  0  0  0  0  0  0  0
  1  5  1  0
  1  2  1  0
  2  3  1  0
  4  3  1  0
  5  4  1  0
  6  7  2  0
  5  6  1  1
  8  6  1  0
  9 10  1  1
  9  8  1  0
 11 10  1  0
 11 12  1  0
 13 14  1  0
 13 12  1  0
 15  9  1  0
 16 15  2  0
 17 15  1  0
 18 17  1  0
 19 20  1  0
 18 19  1  6
 21 25  1  0
 21 20  1  0
 22 21  2  0
 23 24  1  0
 23 18  1  0
 26 23  2  0
M  END
$$$$
