PKE.pdb
     RDKit          3D

 26 26  0  0  1  0  0  0  0  0999 V2000
   27.6517  -19.8277  -15.7634 N   0  0  0  0  0  0  0  0  0  0  0  0
   28.8041  -19.8336  -16.6735 C   0  0  0  0  0  0  0  0  0  0  0  0
   29.4517  -21.1875  -16.4867 C   0  0  0  0  0  0  0  0  0  0  0  0
   28.4659  -21.9653  -15.6649 C   0  0  0  0  0  0  0  0  0  0  0  0
   27.1754  -21.1723  -15.9056 C   0  0  1  0  0  0  0  0  0  0  0  0
   26.2310  -21.5601  -14.8245 C   0  0  0  0  0  0  0  0  0  0  0  0
   25.7020  -22.7054  -14.8426 O   0  0  0  0  0  0  0  0  0  0  0  0
   25.8928  -20.6932  -13.7609 N   0  0  0  0  0  0  0  0  0  0  0  0
   25.0453  -21.0420  -12.6645 C   0  0  1  0  0  0  0  0  0  0  0  0
   25.6620  -20.6553  -11.3279 C   0  0  0  0  0  0  0  0  0  0  0  0
   26.9720  -21.3227  -11.0597 C   0  0  0  0  0  0  0  0  0  0  0  0
   27.4494  -20.8253   -9.7066 C   0  0  0  0  0  0  0  0  0  0  0  0
   28.7976  -21.4370   -9.3717 C   0  0  0  0  0  0  0  0  0  0  0  0
   29.2656  -20.9702   -8.0889 N   0  0  0  0  0  0  0  0  0  0  0  0
   23.7810  -20.2149  -12.7897 C   0  0  0  0  0  0  0  0  0  0  0  0
   23.8430  -19.0219  -13.1666 O   0  0  0  0  0  0  0  0  0  0  0  0
   22.5238  -20.7744  -12.4844 N   0  0  0  0  0  0  0  0  0  0  0  0
   21.2713  -20.4593  -13.0962 C   0  0  1  0  0  0  0  0  0  0  0  0
   20.9907  -21.1891  -14.3968 C   0  0  0  0  0  0  0  0  0  0  0  0
   19.7282  -20.6478  -15.0043 C   0  0  0  0  0  0  0  0  0  0  0  0
   19.3481  -21.4178  -16.2437 C   0  0  0  0  0  0  0  0  0  0  0  0
   18.4642  -22.3075  -16.2462 O   0  0  0  0  0  0  0  0  0  0  0  0
   20.1369  -20.4444  -12.1594 C   0  0  0  0  0  0  0  0  0  0  0  0
   19.0167  -19.6404  -12.3481 O   0  0  0  0  0  0  0  0  0  0  0  0
   20.0190  -21.1097  -17.4130 O   0  0  0  0  0  0  0  0  0  0  0  0
   20.1325  -21.1702  -11.1310 O   0  0  0  0  0  0  0  0  0  0  0  0
  1  5  1  0
  1  2  1  0
  2  3  1  0
  4  3  1  0
  5  4  1  0
  6  7  2  0
  5  6  1  1
  8  6  1  0
  9 10  1  1
  9  8  1  0
 11 10  1  0
 11 12  1  0
 13 14  1  0
 13 12  1  0
 15  9  1  0
 16 15  2  0
 17 15  1  0
 18 17  1  0
 19 20  1  0
 18 19  1  6
 21 25  1  0
 21 20  1  0
 22 21  2  0
 23 24  1  0
 23 18  1  0
 26 23  2  0
M  END
$$$$
