PKE.pdb
     RDKit          3D

 26 26  0  0  1  0  0  0  0  0999 V2000
   26.2996  -11.8930  -15.8573 N   0  0  0  0  0  0  0  0  0  0  0  0
   27.6341  -12.4873  -16.0069 C   0  0  0  0  0  0  0  0  0  0  0  0
   28.2150  -11.8529  -17.2510 C   0  0  0  0  0  0  0  0  0  0  0  0
   27.2651  -10.7397  -17.5836 C   0  0  0  0  0  0  0  0  0  0  0  0
   26.5530  -10.5352  -16.2407 C   0  0  1  0  0  0  0  0  0  0  0  0
   25.3042   -9.7827  -16.5328 C   0  0  0  0  0  0  0  0  0  0  0  0
   25.3767   -8.5815  -16.9121 O   0  0  0  0  0  0  0  0  0  0  0  0
   24.0199  -10.3582  -16.4040 N   0  0  0  0  0  0  0  0  0  0  0  0
   22.8028   -9.7332  -16.8164 C   0  0  1  0  0  0  0  0  0  0  0  0
   21.7033  -10.7530  -17.0760 C   0  0  0  0  0  0  0  0  0  0  0  0
   21.6034  -11.1715  -18.5073 C   0  0  0  0  0  0  0  0  0  0  0  0
   20.5008  -12.2129  -18.5844 C   0  0  0  0  0  0  0  0  0  0  0  0
   20.3828  -12.7441  -20.0014 C   0  0  0  0  0  0  0  0  0  0  0  0
   19.2873  -13.6775  -20.1072 N   0  0  0  0  0  0  0  0  0  0  0  0
   22.3144   -8.8866  -15.6575 C   0  0  0  0  0  0  0  0  0  0  0  0
   22.6742   -9.1520  -14.4874 O   0  0  0  0  0  0  0  0  0  0  0  0
   21.4517   -7.7942  -15.8798 N   0  0  0  0  0  0  0  0  0  0  0  0
   21.0981   -6.7738  -14.9438 C   0  0  1  0  0  0  0  0  0  0  0  0
   22.2542   -5.9180  -14.4601 C   0  0  0  0  0  0  0  0  0  0  0  0
   22.7290   -5.0468  -15.5876 C   0  0  0  0  0  0  0  0  0  0  0  0
   23.2472   -3.7274  -15.0736 C   0  0  0  0  0  0  0  0  0  0  0  0
   22.5599   -2.9597  -14.3587 O   0  0  0  0  0  0  0  0  0  0  0  0
   19.9005   -6.0071  -15.3214 C   0  0  0  0  0  0  0  0  0  0  0  0
   19.2210   -5.1855  -14.4270 O   0  0  0  0  0  0  0  0  0  0  0  0
   24.5382   -3.3737  -15.4209 O   0  0  0  0  0  0  0  0  0  0  0  0
   19.4328   -6.0635  -16.4887 O   0  0  0  0  0  0  0  0  0  0  0  0
  1  5  1  0
  1  2  1  0
  2  3  1  0
  4  3  1  0
  5  4  1  0
  6  7  2  0
  5  6  1  6
  8  6  1  0
  9 10  1  1
  9  8  1  0
 11 10  1  0
 11 12  1  0
 13 14  1  0
 13 12  1  0
 15  9  1  0
 16 15  2  0
 17 15  1  0
 18 17  1  0
 19 20  1  0
 18 19  1  6
 21 25  1  0
 21 20  1  0
 22 21  2  0
 23 24  1  0
 23 18  1  0
 26 23  2  0
M  END
$$$$
