PKE.pdb
     RDKit          3D

 26 26  0  0  1  0  0  0  0  0999 V2000
   26.7154  -12.5471  -15.6658 N   0  0  0  0  0  0  0  0  0  0  0  0
   27.8742  -13.4453  -15.5836 C   0  0  0  0  0  0  0  0  0  0  0  0
   28.6714  -13.1824  -16.8417 C   0  0  0  0  0  0  0  0  0  0  0  0
   28.0418  -11.9568  -17.4362 C   0  0  0  0  0  0  0  0  0  0  0  0
   27.3131  -11.3686  -16.2216 C   0  0  1  0  0  0  0  0  0  0  0  0
   26.3045  -10.4140  -16.7530 C   0  0  0  0  0  0  0  0  0  0  0  0
   26.6894   -9.3775  -17.3607 O   0  0  0  0  0  0  0  0  0  0  0  0
   24.9134  -10.6159  -16.6075 N   0  0  0  0  0  0  0  0  0  0  0  0
   23.9054   -9.8179  -17.2314 C   0  0  1  0  0  0  0  0  0  0  0  0
   22.8093  -10.6735  -17.8501 C   0  0  0  0  0  0  0  0  0  0  0  0
   23.2020  -11.2981  -19.1499 C   0  0  0  0  0  0  0  0  0  0  0  0
   22.0091  -12.1082  -19.6260 C   0  0  0  0  0  0  0  0  0  0  0  0
   22.3109  -12.7394  -20.9730 C   0  0  0  0  0  0  0  0  0  0  0  0
   21.2580  -13.6478  -21.3587 N   0  0  0  0  0  0  0  0  0  0  0  0
   23.2306   -9.0088  -16.1412 C   0  0  0  0  0  0  0  0  0  0  0  0
   23.0166   -9.5200  -15.0178 O   0  0  0  0  0  0  0  0  0  0  0  0
   22.8359   -7.6762  -16.3760 N   0  0  0  0  0  0  0  0  0  0  0  0
   22.2859   -6.7623  -15.4249 C   0  0  1  0  0  0  0  0  0  0  0  0
   22.5330   -5.2958  -15.7268 C   0  0  0  0  0  0  0  0  0  0  0  0
   22.0189   -4.4637  -14.5870 C   0  0  0  0  0  0  0  0  0  0  0  0
   22.2421   -2.9946  -14.8429 C   0  0  0  0  0  0  0  0  0  0  0  0
   22.8805   -2.5672  -15.8342 O   0  0  0  0  0  0  0  0  0  0  0  0
   20.9012   -7.0699  -15.0339 C   0  0  0  0  0  0  0  0  0  0  0  0
   20.4622   -7.0123  -13.7145 O   0  0  0  0  0  0  0  0  0  0  0  0
   21.7098   -2.1031  -13.9296 O   0  0  0  0  0  0  0  0  0  0  0  0
   20.0418   -7.4035  -15.8909 O   0  0  0  0  0  0  0  0  0  0  0  0
  1  5  1  0
  1  2  1  0
  2  3  1  0
  4  3  1  0
  5  4  1  0
  6  7  2  0
  5  6  1  6
  8  6  1  0
  9 10  1  1
  9  8  1  0
 11 10  1  0
 11 12  1  0
 13 14  1  0
 13 12  1  0
 15  9  1  0
 16 15  2  0
 17 15  1  0
 18 17  1  0
 19 20  1  0
 18 19  1  6
 21 25  1  0
 21 20  1  0
 22 21  2  0
 23 24  1  0
 23 18  1  0
 26 23  2  0
M  END
$$$$
