PKE.pdb
     RDKit          3D

 26 26  0  0  1  0  0  0  0  0999 V2000
   27.8763  -19.1784  -16.5952 N   0  0  0  0  0  0  0  0  0  0  0  0
   29.0877  -18.7886  -17.3279 C   0  0  0  0  0  0  0  0  0  0  0  0
   28.7215  -18.9014  -18.7910 C   0  0  0  0  0  0  0  0  0  0  0  0
   27.2341  -19.1016  -18.7915 C   0  0  0  0  0  0  0  0  0  0  0  0
   26.8553  -18.5763  -17.4013 C   0  0  1  0  0  0  0  0  0  0  0  0
   25.5011  -19.1113  -17.0999 C   0  0  0  0  0  0  0  0  0  0  0  0
   24.5136  -18.7246  -17.7834 O   0  0  0  0  0  0  0  0  0  0  0  0
   25.2640  -20.0476  -16.0682 N   0  0  0  0  0  0  0  0  0  0  0  0
   24.0283  -20.7347  -15.8607 C   0  0  1  0  0  0  0  0  0  0  0  0
   24.2488  -22.1639  -15.3863 C   0  0  0  0  0  0  0  0  0  0  0  0
   22.9797  -22.9033  -15.1098 C   0  0  0  0  0  0  0  0  0  0  0  0
   23.3747  -24.2750  -14.5914 C   0  0  0  0  0  0  0  0  0  0  0  0
   22.1344  -25.0853  -14.2616 C   0  0  0  0  0  0  0  0  0  0  0  0
   22.4938  -26.4080  -13.8100 N   0  0  0  0  0  0  0  0  0  0  0  0
   23.3050  -20.0317  -14.7288 C   0  0  0  0  0  0  0  0  0  0  0  0
   23.8813  -19.8448  -13.6324 O   0  0  0  0  0  0  0  0  0  0  0  0
   21.9795  -19.5814  -14.8938 N   0  0  0  0  0  0  0  0  0  0  0  0
   21.1469  -18.9781  -13.9013 C   0  0  1  0  0  0  0  0  0  0  0  0
   20.1100  -18.0081  -14.4368 C   0  0  0  0  0  0  0  0  0  0  0  0
   19.3951  -17.3634  -13.2839 C   0  0  0  0  0  0  0  0  0  0  0  0
   18.2466  -16.5125  -13.7641 C   0  0  0  0  0  0  0  0  0  0  0  0
   17.0872  -16.6095  -13.2959 O   0  0  0  0  0  0  0  0  0  0  0  0
   20.6242  -19.9259  -12.9047 C   0  0  0  0  0  0  0  0  0  0  0  0
   20.5911  -19.6424  -11.5427 O   0  0  0  0  0  0  0  0  0  0  0  0
   18.5113  -15.5948  -14.7641 O   0  0  0  0  0  0  0  0  0  0  0  0
   20.1779  -21.0516  -13.2486 O   0  0  0  0  0  0  0  0  0  0  0  0
  1  5  1  0
  1  2  1  0
  2  3  1  0
  4  3  1  0
  5  4  1  0
  6  7  2  0
  5  6  1  1
  8  6  1  0
  9 10  1  1
  9  8  1  0
 11 10  1  0
 11 12  1  0
 13 14  1  0
 13 12  1  0
 15  9  1  0
 16 15  2  0
 17 15  1  0
 18 17  1  0
 19 20  1  0
 18 19  1  6
 21 25  1  0
 21 20  1  0
 22 21  2  0
 23 24  1  0
 23 18  1  0
 26 23  2  0
M  END
$$$$
