PKE.pdb
     RDKit          3D

 26 26  0  0  1  0  0  0  0  0999 V2000
   20.0866  -14.9676  -15.5700 N   0  0  0  0  0  0  0  0  0  0  0  0
   20.2155  -16.4300  -15.5401 C   0  0  0  0  0  0  0  0  0  0  0  0
   20.4309  -16.8401  -16.9799 C   0  0  0  0  0  0  0  0  0  0  0  0
   20.6694  -15.5488  -17.7065 C   0  0  0  0  0  0  0  0  0  0  0  0
   21.0695  -14.6197  -16.5538 C   0  0  1  0  0  0  0  0  0  0  0  0
   20.9081  -13.2288  -17.0542 C   0  0  0  0  0  0  0  0  0  0  0  0
   21.6977  -12.7895  -17.9347 O   0  0  0  0  0  0  0  0  0  0  0  0
   19.8961  -12.3621  -16.5831 N   0  0  0  0  0  0  0  0  0  0  0  0
   19.6903  -11.0250  -17.0433 C   0  0  1  0  0  0  0  0  0  0  0  0
   18.2851  -10.8263  -17.5932 C   0  0  0  0  0  0  0  0  0  0  0  0
   18.0997  -11.3777  -18.9699 C   0  0  0  0  0  0  0  0  0  0  0  0
   16.6044  -11.5381  -19.1809 C   0  0  0  0  0  0  0  0  0  0  0  0
   16.3348  -12.2128  -20.5136 C   0  0  0  0  0  0  0  0  0  0  0  0
   16.6423  -13.6211  -20.4443 N   0  0  0  0  0  0  0  0  0  0  0  0
   19.7940  -10.1113  -15.8379 C   0  0  0  0  0  0  0  0  0  0  0  0
   19.4311  -10.5141  -14.7086 O   0  0  0  0  0  0  0  0  0  0  0  0
   20.2975   -8.8015  -15.9710 N   0  0  0  0  0  0  0  0  0  0  0  0
   20.4812   -7.8412  -14.9287 C   0  0  1  0  0  0  0  0  0  0  0  0
   21.4936   -6.7518  -15.2309 C   0  0  0  0  0  0  0  0  0  0  0  0
   21.6098   -5.8422  -14.0414 C   0  0  0  0  0  0  0  0  0  0  0  0
   22.5823   -4.7211  -14.3078 C   0  0  0  0  0  0  0  0  0  0  0  0
   23.3912   -4.7369  -15.2661 O   0  0  0  0  0  0  0  0  0  0  0  0
   19.2244   -7.3475  -14.3443 C   0  0  0  0  0  0  0  0  0  0  0  0
   19.0149   -7.2666  -12.9708 O   0  0  0  0  0  0  0  0  0  0  0  0
   22.5599   -3.6424  -13.4428 O   0  0  0  0  0  0  0  0  0  0  0  0
   18.2706   -6.9716  -15.0745 O   0  0  0  0  0  0  0  0  0  0  0  0
  1  5  1  0
  1  2  1  0
  2  3  1  0
  4  3  1  0
  5  4  1  0
  6  7  2  0
  5  6  1  6
  8  6  1  0
  9 10  1  1
  9  8  1  0
 11 10  1  0
 11 12  1  0
 13 14  1  0
 13 12  1  0
 15  9  1  0
 16 15  2  0
 17 15  1  0
 18 17  1  0
 19 20  1  0
 18 19  1  6
 21 25  1  0
 21 20  1  0
 22 21  2  0
 23 24  1  0
 23 18  1  0
 26 23  2  0
M  END
$$$$
