PKE.pdb
     RDKit          3D

 26 26  0  0  1  0  0  0  0  0999 V2000
   21.7049  -29.7179  -10.8761 N   0  0  0  0  0  0  0  0  0  0  0  0
   21.1259  -28.3951  -10.6092 C   0  0  0  0  0  0  0  0  0  0  0  0
   20.6666  -27.8827  -11.9561 C   0  0  0  0  0  0  0  0  0  0  0  0
   20.7831  -29.0683  -12.8687 C   0  0  0  0  0  0  0  0  0  0  0  0
   20.7987  -30.2265  -11.8635 C   0  0  1  0  0  0  0  0  0  0  0  0
   21.3445  -31.4069  -12.5844 C   0  0  0  0  0  0  0  0  0  0  0  0
   20.6293  -31.9986  -13.4389 O   0  0  0  0  0  0  0  0  0  0  0  0
   22.6468  -31.9050  -12.3544 N   0  0  0  0  0  0  0  0  0  0  0  0
   23.2110  -33.0423  -13.0105 C   0  0  1  0  0  0  0  0  0  0  0  0
   24.6108  -32.7559  -13.5348 C   0  0  0  0  0  0  0  0  0  0  0  0
   25.2540  -33.9335  -14.1929 C   0  0  0  0  0  0  0  0  0  0  0  0
   26.6042  -33.4659  -14.7072 C   0  0  0  0  0  0  0  0  0  0  0  0
   27.3699  -34.6344  -15.3006 C   0  0  0  0  0  0  0  0  0  0  0  0
   28.6468  -34.2003  -15.8140 N   0  0  0  0  0  0  0  0  0  0  0  0
   23.3762  -34.1299  -11.9673 C   0  0  0  0  0  0  0  0  0  0  0  0
   24.3908  -34.1500  -11.2329 O   0  0  0  0  0  0  0  0  0  0  0  0
   22.3949  -35.1296  -11.8107 N   0  0  0  0  0  0  0  0  0  0  0  0
   22.0899  -35.8553  -10.6180 C   0  0  1  0  0  0  0  0  0  0  0  0
   22.1481  -35.0410   -9.3387 C   0  0  0  0  0  0  0  0  0  0  0  0
   21.8221  -35.9297   -8.1726 C   0  0  0  0  0  0  0  0  0  0  0  0
   21.7576  -35.1405   -6.8894 C   0  0  0  0  0  0  0  0  0  0  0  0
   20.6877  -34.9459   -6.2647 O   0  0  0  0  0  0  0  0  0  0  0  0
   20.9002  -36.7137  -10.7298 C   0  0  0  0  0  0  0  0  0  0  0  0
   20.6270  -37.7405   -9.8311 O   0  0  0  0  0  0  0  0  0  0  0  0
   22.9434  -34.6203   -6.4040 O   0  0  0  0  0  0  0  0  0  0  0  0
   20.0661  -36.5522  -11.6586 O   0  0  0  0  0  0  0  0  0  0  0  0
  1  5  1  0
  1  2  1  0
  2  3  1  0
  4  3  1  0
  5  4  1  0
  6  7  2  0
  5  6  1  6
  8  6  1  0
  9 10  1  1
  9  8  1  0
 11 10  1  0
 11 12  1  0
 13 14  1  0
 13 12  1  0
 15  9  1  0
 16 15  2  0
 17 15  1  0
 18 17  1  0
 19 20  1  0
 18 19  1  1
 21 25  1  0
 21 20  1  0
 22 21  2  0
 23 24  1  0
 23 18  1  0
 26 23  2  0
M  END
$$$$
