PRI.pdb
     RDKit          3D

 27 27  0  0  1  0  0  0  0  0999 V2000
    8.6160  -14.9508   18.7630 N   0  0  0  0  0  0  0  0  0  0  0  0
    8.7779  -14.2155   17.5228 C   0  0  0  0  0  0  0  0  0  0  0  0
    7.7900  -13.0767   17.5963 C   0  0  0  0  0  0  0  0  0  0  0  0
    7.3906  -13.0279   19.0486 C   0  0  0  0  0  0  0  0  0  0  0  0
    8.4424  -13.9115   19.7317 C   0  0  1  0  0  0  0  0  0  0  0  0
    7.8293  -14.3923   20.9938 C   0  0  0  0  0  0  0  0  0  0  0  0
    7.5630  -13.4840   21.8519 O   0  0  0  0  0  0  0  0  0  0  0  0
    9.9926  -20.4896   20.6016 N   0  0  0  0  0  0  0  0  0  0  0  0
    8.5755  -20.5593   20.5452 C   0  0  0  0  0  0  0  0  0  0  0  0
    7.9933  -20.6286   19.3839 N   0  0  0  0  0  0  0  0  0  0  0  0
    7.7540  -20.5574   21.6911 N   0  0  0  0  0  0  0  0  0  0  0  0
    6.5219  -19.8206   21.7392 C   0  0  0  0  0  0  0  0  0  0  0  0
    6.8577  -18.3612   21.4033 C   0  0  0  0  0  0  0  0  0  0  0  0
    6.6293  -17.5687   22.6494 C   0  0  0  0  0  0  0  0  0  0  0  0
    6.9054  -16.1010   22.4932 C   0  0  2  0  0  0  0  0  0  0  0  0
    7.5413  -15.7518   21.2723 N   0  0  0  0  0  0  0  0  0  0  0  0
    7.8032  -15.6884   23.6292 C   0  0  0  0  0  0  0  0  0  0  0  0
    9.0535  -15.7391   23.5302 O   0  0  0  0  0  0  0  0  0  0  0  0
    6.9842  -20.5521   19.2328 C   0  0  0  0  0  0  0  0  0  0  0  0
    5.5678  -11.8061   26.4572 C   0  0  0  0  0  0  0  0  0  0  0  0
    6.5713  -12.6595   25.7722 C   0  0  2  0  0  0  0  0  0  0  0  0
    7.3378  -13.6147   26.6038 C   0  0  0  0  0  0  0  0  0  0  0  0
    8.1339  -12.9432   27.7128 C   0  0  2  0  0  0  0  0  0  0  0  0
    8.0572  -14.7210   25.9187 N   0  0  0  0  0  0  0  0  0  0  0  0
    7.2119  -15.2399   24.8170 C   0  0  0  0  0  0  0  0  0  0  0  0
    8.4385  -15.8746   26.7381 O   0  0  0  0  0  0  0  0  0  0  0  0
    9.6166  -16.0233   27.4456 O   0  0  0  0  0  0  0  0  0  0  0  0
  1  2  1  0
  3  2  1  0
  4  5  1  0
  4  3  1  0
  5  1  1  0
  5  6  1  1
  7  6  2  0
  9 11  1  0
  9  8  1  0
 10  9  2  0
 12 11  1  0
 13 14  1  0
 13 12  1  0
 15 14  1  6
 15 16  1  0
 16  6  1  0
 17 24  1  0
 17 15  1  0
 18 17  2  0
 20 19  1  0
 20 21  1  0
 21 22  1  1
 23 21  1  0
 23 25  1  0
 23 24  1  6
 25 26  1  0
 27 25  2  0
M  END
$$$$
