PRI.pdb
     RDKit          3D

 27 27  0  0  1  0  0  0  0  0999 V2000
    6.9584  -14.5462   19.2336 N   0  0  0  0  0  0  0  0  0  0  0  0
    7.4988  -13.7009   18.1856 C   0  0  0  0  0  0  0  0  0  0  0  0
    8.7785  -13.1300   18.7465 C   0  0  0  0  0  0  0  0  0  0  0  0
    9.0699  -13.9897   19.9494 C   0  0  0  0  0  0  0  0  0  0  0  0
    8.1246  -15.1838   19.7647 C   0  0  1  0  0  0  0  0  0  0  0  0
    7.9070  -15.7582   21.1147 C   0  0  0  0  0  0  0  0  0  0  0  0
    8.9084  -16.3753   21.6133 O   0  0  0  0  0  0  0  0  0  0  0  0
    7.5358  -18.6083   27.0936 N   0  0  0  0  0  0  0  0  0  0  0  0
    7.5976  -19.9588   26.6597 C   0  0  0  0  0  0  0  0  0  0  0  0
    8.4093  -20.7780   27.2617 N   0  0  0  0  0  0  0  0  0  0  0  0
    6.8193  -20.4680   25.5999 N   0  0  0  0  0  0  0  0  0  0  0  0
    6.8427  -19.8777   24.2907 C   0  0  0  0  0  0  0  0  0  0  0  0
    6.7866  -18.3560   24.4827 C   0  0  0  0  0  0  0  0  0  0  0  0
    6.7661  -17.7498   23.1171 C   0  0  0  0  0  0  0  0  0  0  0  0
    6.5821  -16.2595   23.1185 C   0  0  2  0  0  0  0  0  0  0  0  0
    6.6926  -15.6549   21.8383 N   0  0  0  0  0  0  0  0  0  0  0  0
    7.6451  -15.6756   24.0108 C   0  0  0  0  0  0  0  0  0  0  0  0
    8.8662  -15.8525   23.7804 O   0  0  0  0  0  0  0  0  0  0  0  0
    8.5653  -21.7510   26.9860 C   0  0  0  0  0  0  0  0  0  0  0  0
    5.6126  -11.4035   26.3747 C   0  0  0  0  0  0  0  0  0  0  0  0
    6.7540  -12.0953   25.7241 C   0  0  2  0  0  0  0  0  0  0  0  0
    7.5684  -13.0052   26.5610 C   0  0  0  0  0  0  0  0  0  0  0  0
    8.4308  -12.2754   27.5800 C   0  0  2  0  0  0  0  0  0  0  0  0
    8.2442  -14.1517   25.8977 N   0  0  0  0  0  0  0  0  0  0  0  0
    7.2433  -14.9198   25.1194 C   0  0  0  0  0  0  0  0  0  0  0  0
    8.9317  -15.1114   26.7659 O   0  0  0  0  0  0  0  0  0  0  0  0
    8.3890  -16.2618   27.3067 O   0  0  0  0  0  0  0  0  0  0  0  0
  1  2  1  0
  3  2  1  0
  4  5  1  0
  4  3  1  0
  5  1  1  0
  5  6  1  1
  7  6  2  0
  9 11  1  0
  9  8  1  0
 10  9  2  0
 12 11  1  0
 13 14  1  0
 13 12  1  0
 15 14  1  6
 15 16  1  0
 16  6  1  0
 17 24  1  0
 17 15  1  0
 18 17  2  0
 20 19  1  0
 20 21  1  0
 21 22  1  1
 23 21  1  0
 23 25  1  0
 23 24  1  6
 25 26  1  0
 27 25  2  0
M  END
$$$$
