PRI.pdb
     RDKit          3D

 27 27  0  0  1  0  0  0  0  0999 V2000
    8.6131  -15.3374   18.9865 N   0  0  0  0  0  0  0  0  0  0  0  0
    8.6631  -14.7487   17.6615 C   0  0  0  0  0  0  0  0  0  0  0  0
    7.6535  -13.6268   17.6796 C   0  0  0  0  0  0  0  0  0  0  0  0
    7.3617  -13.4165   19.1430 C   0  0  0  0  0  0  0  0  0  0  0  0
    8.4843  -14.1958   19.8402 C   0  0  1  0  0  0  0  0  0  0  0  0
    7.9795  -14.5374   21.1924 C   0  0  0  0  0  0  0  0  0  0  0  0
    7.6543  -13.5400   21.9216 O   0  0  0  0  0  0  0  0  0  0  0  0
    4.7076  -21.1445   21.8850 N   0  0  0  0  0  0  0  0  0  0  0  0
    5.9275  -21.1833   21.1596 C   0  0  0  0  0  0  0  0  0  0  0  0
    5.9130  -21.5857   19.9226 N   0  0  0  0  0  0  0  0  0  0  0  0
    7.1689  -20.8059   21.7115 N   0  0  0  0  0  0  0  0  0  0  0  0
    7.2612  -19.8900   22.8141 C   0  0  0  0  0  0  0  0  0  0  0  0
    7.2327  -18.4731   22.2251 C   0  0  0  0  0  0  0  0  0  0  0  0
    7.2367  -17.5259   23.3808 C   0  0  0  0  0  0  0  0  0  0  0  0
    7.3119  -16.0809   22.9794 C   0  0  2  0  0  0  0  0  0  0  0  0
    7.8499  -15.8605   21.6837 N   0  0  0  0  0  0  0  0  0  0  0  0
    8.1902  -15.3803   23.9818 C   0  0  0  0  0  0  0  0  0  0  0  0
    9.4355  -15.3211   23.8360 O   0  0  0  0  0  0  0  0  0  0  0  0
    6.7333  -21.6212   19.3120 C   0  0  0  0  0  0  0  0  0  0  0  0
    6.0162  -11.2232   27.3605 C   0  0  0  0  0  0  0  0  0  0  0  0
    6.5159  -12.5759   27.0068 C   0  0  2  0  0  0  0  0  0  0  0  0
    7.7742  -12.6584   26.2313 C   0  0  0  0  0  0  0  0  0  0  0  0
    7.7662  -11.7966   24.9776 C   0  0  1  0  0  0  0  0  0  0  0  0
    8.4002  -13.9950   26.0503 N   0  0  0  0  0  0  0  0  0  0  0  0
    7.5861  -14.7864   25.0971 C   0  0  0  0  0  0  0  0  0  0  0  0
    8.5667  -14.8196   27.2502 O   0  0  0  0  0  0  0  0  0  0  0  0
    9.3904  -14.5445   28.3255 O   0  0  0  0  0  0  0  0  0  0  0  0
  1  2  1  0
  3  2  1  0
  4  5  1  0
  4  3  1  0
  5  1  1  0
  5  6  1  1
  7  6  2  0
  9 11  1  0
  9  8  1  0
 10  9  2  0
 12 11  1  0
 13 14  1  0
 13 12  1  0
 15 14  1  1
 15 16  1  0
 16  6  1  0
 17 24  1  0
 17 15  1  0
 18 17  2  0
 20 19  1  0
 20 21  1  0
 21 22  1  1
 23 21  1  0
 23 25  1  0
 23 24  1  6
 25 26  1  0
 27 25  2  0
M  END
$$$$
