PRI.pdb
     RDKit          3D

 27 27  0  0  1  0  0  0  0  0999 V2000
    7.8080  -20.1920   22.0136 N   0  0  0  0  0  0  0  0  0  0  0  0
    8.1743  -21.4488   21.3880 C   0  0  0  0  0  0  0  0  0  0  0  0
    9.6295  -21.3049   21.0140 C   0  0  0  0  0  0  0  0  0  0  0  0
   10.0936  -20.1016   21.7937 C   0  0  0  0  0  0  0  0  0  0  0  0
    8.9600  -19.8790   22.8031 C   0  0  1  0  0  0  0  0  0  0  0  0
    9.0231  -18.4498   23.1949 C   0  0  0  0  0  0  0  0  0  0  0  0
   10.0147  -18.1298   23.9342 O   0  0  0  0  0  0  0  0  0  0  0  0
    7.1891  -12.4131   18.0490 N   0  0  0  0  0  0  0  0  0  0  0  0
    7.5244  -13.7176   18.4985 C   0  0  0  0  0  0  0  0  0  0  0  0
    7.6599  -14.6706   17.6234 N   0  0  0  0  0  0  0  0  0  0  0  0
    7.7209  -14.0420   19.8565 N   0  0  0  0  0  0  0  0  0  0  0  0
    7.8231  -13.0299   20.8705 C   0  0  0  0  0  0  0  0  0  0  0  0
    8.1604  -13.7443   22.1863 C   0  0  0  0  0  0  0  0  0  0  0  0
    7.7380  -15.1684   22.0238 C   0  0  0  0  0  0  0  0  0  0  0  0
    8.3397  -16.0982   23.0379 C   0  0  2  0  0  0  0  0  0  0  0  0
    8.0743  -17.4732   22.8013 N   0  0  0  0  0  0  0  0  0  0  0  0
    7.7679  -15.7302   24.3812 C   0  0  0  0  0  0  0  0  0  0  0  0
    6.6566  -16.1699   24.7649 O   0  0  0  0  0  0  0  0  0  0  0  0
    7.9142  -15.6359   17.8481 C   0  0  0  0  0  0  0  0  0  0  0  0
    8.5971  -14.9875   29.6045 C   0  0  0  0  0  0  0  0  0  0  0  0
    8.9632  -13.7852   28.8139 C   0  0  2  0  0  0  0  0  0  0  0  0
    9.1404  -13.9552   27.3540 C   0  0  0  0  0  0  0  0  0  0  0  0
    9.7758  -12.7482   26.6802 C   0  0  2  0  0  0  0  0  0  0  0  0
    8.0317  -14.5740   26.5802 N   0  0  0  0  0  0  0  0  0  0  0  0
    8.5075  -14.8763   25.2091 C   0  0  0  0  0  0  0  0  0  0  0  0
    6.8017  -13.7902   26.4376 O   0  0  0  0  0  0  0  0  0  0  0  0
    6.4216  -13.0566   25.3296 O   0  0  0  0  0  0  0  0  0  0  0  0
  1  2  1  0
  3  2  1  0
  4  5  1  0
  4  3  1  0
  5  1  1  0
  5  6  1  6
  7  6  2  0
  9 11  1  0
  9  8  1  0
 10  9  2  0
 12 11  1  0
 13 14  1  0
 13 12  1  0
 15 14  1  6
 15 16  1  0
 16  6  1  0
 17 24  1  0
 17 15  1  0
 18 17  2  0
 20 19  1  0
 20 21  1  0
 21 22  1  6
 23 21  1  0
 23 25  1  0
 23 24  1  6
 25 26  1  0
 27 25  2  0
M  END
$$$$
