PRI.pdb
     RDKit          3D

 27 27  0  0  1  0  0  0  0  0999 V2000
    8.4153  -15.1712   18.8760 N   0  0  0  0  0  0  0  0  0  0  0  0
    8.6358  -14.5358   17.5905 C   0  0  0  0  0  0  0  0  0  0  0  0
    7.8705  -13.2360   17.6456 C   0  0  0  0  0  0  0  0  0  0  0  0
    7.5670  -13.0484   19.1097 C   0  0  0  0  0  0  0  0  0  0  0  0
    8.4820  -14.0734   19.7920 C   0  0  1  0  0  0  0  0  0  0  0  0
    7.8644  -14.3767   21.1060 C   0  0  0  0  0  0  0  0  0  0  0  0
    7.8706  -13.4150   21.9470 O   0  0  0  0  0  0  0  0  0  0  0  0
    8.2871  -20.5367   24.9133 N   0  0  0  0  0  0  0  0  0  0  0  0
    8.1615  -21.0234   23.5854 C   0  0  0  0  0  0  0  0  0  0  0  0
    9.0701  -21.8303   23.1210 N   0  0  0  0  0  0  0  0  0  0  0  0
    7.0944  -20.6768   22.7314 N   0  0  0  0  0  0  0  0  0  0  0  0
    6.2206  -19.5739   23.0195 C   0  0  0  0  0  0  0  0  0  0  0  0
    7.0010  -18.2893   22.7093 C   0  0  0  0  0  0  0  0  0  0  0  0
    6.0597  -17.1496   22.9285 C   0  0  0  0  0  0  0  0  0  0  0  0
    6.6833  -15.7999   22.7189 C   0  0  2  0  0  0  0  0  0  0  0  0
    7.2955  -15.6288   21.4489 N   0  0  0  0  0  0  0  0  0  0  0  0
    7.7366  -15.6209   23.7798 C   0  0  0  0  0  0  0  0  0  0  0  0
    8.9521  -15.8217   23.5393 O   0  0  0  0  0  0  0  0  0  0  0  0
    9.0915  -22.1951   22.1651 C   0  0  0  0  0  0  0  0  0  0  0  0
    6.2696  -11.3932   26.5021 C   0  0  0  0  0  0  0  0  0  0  0  0
    7.0596  -12.4488   25.8192 C   0  0  2  0  0  0  0  0  0  0  0  0
    7.7285  -13.4594   26.6695 C   0  0  0  0  0  0  0  0  0  0  0  0
    8.6019  -12.8492   27.7555 C   0  0  2  0  0  0  0  0  0  0  0  0
    8.3202  -14.6522   26.0076 N   0  0  0  0  0  0  0  0  0  0  0  0
    7.3323  -15.2203   25.0595 C   0  0  0  0  0  0  0  0  0  0  0  0
    8.7513  -15.7501   26.8772 O   0  0  0  0  0  0  0  0  0  0  0  0
    9.9932  -15.8881   27.4678 O   0  0  0  0  0  0  0  0  0  0  0  0
  1  2  1  0
  3  2  1  0
  4  5  1  0
  4  3  1  0
  5  1  1  0
  5  6  1  1
  7  6  2  0
  9 11  1  0
  9  8  1  0
 10  9  2  0
 12 11  1  0
 13 14  1  0
 13 12  1  0
 15 14  1  6
 15 16  1  0
 16  6  1  0
 17 24  1  0
 17 15  1  0
 18 17  2  0
 20 19  1  0
 20 21  1  0
 21 22  1  1
 23 21  1  0
 23 25  1  0
 23 24  1  6
 25 26  1  0
 27 25  2  0
M  END
$$$$
