PRI.pdb
     RDKit          3D

 27 27  0  0  1  0  0  0  0  0999 V2000
    8.5827  -15.2679   18.6352 N   0  0  0  0  0  0  0  0  0  0  0  0
    8.5874  -14.6346   17.3299 C   0  0  0  0  0  0  0  0  0  0  0  0
    7.6513  -13.4566   17.4490 C   0  0  0  0  0  0  0  0  0  0  0  0
    7.4630  -13.2836   18.9341 C   0  0  0  0  0  0  0  0  0  0  0  0
    8.5764  -14.1529   19.5326 C   0  0  1  0  0  0  0  0  0  0  0  0
    8.1354  -14.5138   20.9020 C   0  0  0  0  0  0  0  0  0  0  0  0
    7.8771  -13.5262   21.6703 O   0  0  0  0  0  0  0  0  0  0  0  0
    3.6468  -19.8582   20.5624 N   0  0  0  0  0  0  0  0  0  0  0  0
    4.9995  -20.2215   20.3293 C   0  0  0  0  0  0  0  0  0  0  0  0
    5.3884  -20.4549   19.1100 N   0  0  0  0  0  0  0  0  0  0  0  0
    5.9563  -20.3452   21.3575 N   0  0  0  0  0  0  0  0  0  0  0  0
    5.8582  -19.5951   22.5784 C   0  0  0  0  0  0  0  0  0  0  0  0
    5.9314  -18.1094   22.2003 C   0  0  0  0  0  0  0  0  0  0  0  0
    7.1172  -17.5419   22.9109 C   0  0  0  0  0  0  0  0  0  0  0  0
    7.3622  -16.0900   22.6164 C   0  0  2  0  0  0  0  0  0  0  0  0
    7.9957  -15.8446   21.3693 N   0  0  0  0  0  0  0  0  0  0  0  0
    8.2460  -15.5518   23.7101 C   0  0  0  0  0  0  0  0  0  0  0  0
    9.4969  -15.5552   23.6053 O   0  0  0  0  0  0  0  0  0  0  0  0
    4.7869  -20.3923   18.2846 C   0  0  0  0  0  0  0  0  0  0  0  0
    6.1374  -12.1216   28.0075 C   0  0  0  0  0  0  0  0  0  0  0  0
    6.5602  -13.2933   27.1995 C   0  0  2  0  0  0  0  0  0  0  0  0
    7.7721  -13.1447   26.3624 C   0  0  0  0  0  0  0  0  0  0  0  0
    7.6373  -12.0706   25.2934 C   0  0  1  0  0  0  0  0  0  0  0  0
    8.4645  -14.3786   25.9051 N   0  0  0  0  0  0  0  0  0  0  0  0
    7.6408  -15.0391   24.8644 C   0  0  0  0  0  0  0  0  0  0  0  0
    8.7553  -15.3936   26.9212 O   0  0  0  0  0  0  0  0  0  0  0  0
    8.2244  -16.6684   26.9812 O   0  0  0  0  0  0  0  0  0  0  0  0
  1  2  1  0
  3  2  1  0
  4  5  1  0
  4  3  1  0
  5  1  1  0
  5  6  1  1
  7  6  2  0
  9 11  1  0
  9  8  1  0
 10  9  2  0
 12 11  1  0
 13 14  1  0
 13 12  1  0
 15 14  1  1
 15 16  1  0
 16  6  1  0
 17 24  1  0
 17 15  1  0
 18 17  2  0
 20 19  1  0
 20 21  1  0
 21 22  1  1
 23 21  1  0
 23 25  1  0
 23 24  1  6
 25 26  1  0
 27 25  2  0
M  END
$$$$
