WAQ.pdb
     RDKit          3D

 29 30  0  0  1  0  0  0  0  0999 V2000
    6.5815  -17.7306   24.3786 N   0  0  0  0  0  0  0  0  0  0  0  0
    7.7522  -16.9435   23.9447 C   0  0  1  0  0  0  0  0  0  0  0  0
    8.2371  -16.2597   25.1778 C   0  0  0  0  0  0  0  0  0  0  0  0
    7.3998  -15.1421   25.6445 C   0  0  0  0  0  0  0  0  0  0  0  0
    6.1613  -15.2915   26.2792 C   0  0  0  0  0  0  0  0  0  0  0  0
    5.6816  -14.0849   26.5826 N   0  0  0  0  0  0  0  0  0  0  0  0
    6.5505  -13.1316   26.1756 C   0  0  0  0  0  0  0  0  0  0  0  0
    6.5476  -11.7473   26.2362 C   0  0  0  0  0  0  0  0  0  0  0  0
    7.5731  -10.9986   25.7344 C   0  0  0  0  0  0  0  0  0  0  0  0
    8.6455  -11.6338   25.1489 C   0  0  0  0  0  0  0  0  0  0  0  0
    8.6524  -13.0066   25.0868 C   0  0  0  0  0  0  0  0  0  0  0  0
    7.6341  -13.7923   25.5840 C   0  0  0  0  0  0  0  0  0  0  0  0
    8.6547  -17.8243   23.2445 C   0  0  0  0  0  0  0  0  0  0  0  0
    8.8820  -19.0092   23.6635 O   0  0  0  0  0  0  0  0  0  0  0  0
   10.5798  -17.9681   19.9825 C   0  0  0  0  0  0  0  0  0  0  0  0
   10.3212  -18.3599   21.4372 C   0  0  2  0  0  0  0  0  0  0  0  0
    9.3608  -17.4618   22.0393 N   0  0  0  0  0  0  0  0  0  0  0  0
   11.6100  -18.3724   22.1836 C   0  0  0  0  0  0  0  0  0  0  0  0
   12.4911  -19.2579   21.9034 O   0  0  0  0  0  0  0  0  0  0  0  0
   13.0515  -14.3458   21.1067 N   0  0  0  0  0  0  0  0  0  0  0  0
   14.3060  -14.9357   21.3934 C   0  0  0  0  0  0  0  0  0  0  0  0
   15.3542  -14.2898   21.0397 O   0  0  0  0  0  0  0  0  0  0  0  0
   14.4398  -16.2283   22.0727 C   0  0  0  0  0  0  0  0  0  0  0  0
   14.0323  -16.2928   23.4913 C   0  0  0  0  0  0  0  0  0  0  0  0
   13.2688  -17.5069   23.8804 C   0  0  2  0  0  0  0  0  0  0  0  0
   11.9409  -17.4531   23.2022 N   0  0  0  0  0  0  0  0  0  0  0  0
   13.0698  -17.7104   25.2924 C   0  0  0  0  0  0  0  0  0  0  0  0
   14.0873  -17.9603   26.1937 O   0  0  0  0  0  0  0  0  0  0  0  0
   11.8900  -17.6739   25.7770 O   0  0  0  0  0  0  0  0  0  0  0  0
  2  1  1  1
  2  3  1  0
  2 13  1  0
  3  4  1  0
  4 12  1  0
  5  4  2  0
  5  6  1  0
  6  7  1  0
  7  8  1  0
  8  9  2  0
 10  9  1  0
 11 10  2  0
 12  7  2  0
 12 11  1  0
 13 17  1  0
 13 14  2  0
 16 15  1  6
 17 16  1  0
 18 16  1  0
 18 26  1  0
 19 18  2  0
 21 20  1  0
 22 21  2  0
 23 21  1  0
 25 24  1  1
 24 23  1  0
 25 26  1  0
 27 25  1  0
 28 27  1  0
 29 27  2  0
M  END
$$$$
