WAQ.pdb
     RDKit          3D

 29 30  0  0  1  0  0  0  0  0999 V2000
    6.7803  -17.8179   24.0932 N   0  0  0  0  0  0  0  0  0  0  0  0
    7.5411  -16.7654   23.3920 C   0  0  1  0  0  0  0  0  0  0  0  0
    8.3169  -16.0721   24.4601 C   0  0  0  0  0  0  0  0  0  0  0  0
    7.5528  -15.0980   25.2570 C   0  0  0  0  0  0  0  0  0  0  0  0
    6.5190  -15.4332   26.1390 C   0  0  0  0  0  0  0  0  0  0  0  0
    6.0555  -14.3192   26.7066 N   0  0  0  0  0  0  0  0  0  0  0  0
    6.7383  -13.2493   26.2392 C   0  0  0  0  0  0  0  0  0  0  0  0
    6.6659  -11.8876   26.4851 C   0  0  0  0  0  0  0  0  0  0  0  0
    7.4895  -10.9947   25.8619 C   0  0  0  0  0  0  0  0  0  0  0  0
    8.4225  -11.4564   24.9604 C   0  0  0  0  0  0  0  0  0  0  0  0
    8.4979  -12.8062   24.7138 C   0  0  0  0  0  0  0  0  0  0  0  0
    7.6823  -13.7346   25.3258 C   0  0  0  0  0  0  0  0  0  0  0  0
    8.2622  -17.3780   22.3033 C   0  0  0  0  0  0  0  0  0  0  0  0
    8.5119  -18.6305   22.2960 O   0  0  0  0  0  0  0  0  0  0  0  0
    9.3652  -16.5830   18.7890 C   0  0  0  0  0  0  0  0  0  0  0  0
    9.5086  -17.3238   20.1184 C   0  0  2  0  0  0  0  0  0  0  0  0
    8.7506  -16.6560   21.1533 N   0  0  0  0  0  0  0  0  0  0  0  0
   10.9513  -17.4319   20.4722 C   0  0  0  0  0  0  0  0  0  0  0  0
   11.7438  -18.0702   19.6953 O   0  0  0  0  0  0  0  0  0  0  0  0
   14.4987  -13.1536   20.1166 N   0  0  0  0  0  0  0  0  0  0  0  0
   13.5721  -14.1347   19.6891 C   0  0  0  0  0  0  0  0  0  0  0  0
   12.6217  -13.7510   18.9206 O   0  0  0  0  0  0  0  0  0  0  0  0
   13.6681  -15.5439   20.0831 C   0  0  0  0  0  0  0  0  0  0  0  0
   13.7030  -15.8414   21.5298 C   0  0  0  0  0  0  0  0  0  0  0  0
   12.9688  -17.0642   21.9467 C   0  0  2  0  0  0  0  0  0  0  0  0
   11.5243  -16.8647   21.6306 N   0  0  0  0  0  0  0  0  0  0  0  0
   13.1010  -17.4479   23.3289 C   0  0  0  0  0  0  0  0  0  0  0  0
   12.5037  -18.5618   23.8879 O   0  0  0  0  0  0  0  0  0  0  0  0
   13.7997  -16.7315   24.1205 O   0  0  0  0  0  0  0  0  0  0  0  0
  2  1  1  1
  2  3  1  0
  2 13  1  0
  3  4  1  0
  4 12  1  0
  5  4  2  0
  5  6  1  0
  6  7  1  0
  7  8  1  0
  8  9  2  0
 10  9  1  0
 11 10  2  0
 12  7  2  0
 12 11  1  0
 13 17  1  0
 13 14  2  0
 16 15  1  6
 17 16  1  0
 18 16  1  0
 18 26  1  0
 19 18  2  0
 21 20  1  0
 22 21  2  0
 23 21  1  0
 25 24  1  1
 24 23  1  0
 25 26  1  0
 27 25  1  0
 28 27  1  0
 29 27  2  0
M  END
$$$$
