WAQ.pdb
     RDKit          3D

 29 30  0  0  1  0  0  0  0  0999 V2000
    6.4093  -16.8379   23.2931 N   0  0  0  0  0  0  0  0  0  0  0  0
    7.2811  -15.7228   22.8752 C   0  0  1  0  0  0  0  0  0  0  0  0
    8.0511  -15.3544   24.0977 C   0  0  0  0  0  0  0  0  0  0  0  0
    7.2556  -14.7544   25.1817 C   0  0  0  0  0  0  0  0  0  0  0  0
    6.2847  -15.4373   25.9232 C   0  0  0  0  0  0  0  0  0  0  0  0
    5.7698  -14.6074   26.8310 N   0  0  0  0  0  0  0  0  0  0  0  0
    6.3577  -13.3937   26.7270 C   0  0  0  0  0  0  0  0  0  0  0  0
    6.2022  -12.1954   27.4051 C   0  0  0  0  0  0  0  0  0  0  0  0
    6.9362  -11.0870   27.0937 C   0  0  0  0  0  0  0  0  0  0  0  0
    7.8605  -11.1570   26.0753 C   0  0  0  0  0  0  0  0  0  0  0  0
    8.0180  -12.3436   25.4005 C   0  0  0  0  0  0  0  0  0  0  0  0
    7.2940  -13.4811   25.6895 C   0  0  0  0  0  0  0  0  0  0  0  0
    8.0089  -16.1340   21.6997 C   0  0  0  0  0  0  0  0  0  0  0  0
    9.0363  -16.8877   21.7869 O   0  0  0  0  0  0  0  0  0  0  0  0
    8.5586  -13.4860   20.1610 C   0  0  0  0  0  0  0  0  0  0  0  0
    8.5173  -14.8951   19.5697 C   0  0  2  0  0  0  0  0  0  0  0  0
    7.6531  -15.7477   20.3557 N   0  0  0  0  0  0  0  0  0  0  0  0
    9.9018  -15.4379   19.4859 C   0  0  0  0  0  0  0  0  0  0  0  0
   10.1498  -16.4097   18.6902 O   0  0  0  0  0  0  0  0  0  0  0  0
   16.1149  -13.6491   19.6174 N   0  0  0  0  0  0  0  0  0  0  0  0
   15.2351  -13.6654   18.5086 C   0  0  0  0  0  0  0  0  0  0  0  0
   15.7202  -13.3423   17.3679 O   0  0  0  0  0  0  0  0  0  0  0  0
   13.8214  -14.0387   18.6211 C   0  0  0  0  0  0  0  0  0  0  0  0
   13.3088  -14.3489   19.9715 C   0  0  0  0  0  0  0  0  0  0  0  0
   12.3639  -15.4933   20.0469 C   0  0  2  0  0  0  0  0  0  0  0  0
   10.9896  -14.9444   20.2376 N   0  0  0  0  0  0  0  0  0  0  0  0
   12.6274  -16.4722   21.0703 C   0  0  0  0  0  0  0  0  0  0  0  0
   11.7717  -16.7515   22.1190 O   0  0  0  0  0  0  0  0  0  0  0  0
   13.7159  -17.1375   21.0444 O   0  0  0  0  0  0  0  0  0  0  0  0
  2  1  1  1
  2  3  1  0
  2 13  1  0
  3  4  1  0
  4 12  1  0
  5  4  2  0
  5  6  1  0
  6  7  1  0
  7  8  1  0
  8  9  2  0
 10  9  1  0
 11 10  2  0
 12  7  2  0
 12 11  1  0
 13 17  1  0
 13 14  2  0
 16 15  1  1
 17 16  1  0
 18 16  1  0
 18 26  1  0
 19 18  2  0
 21 20  1  0
 22 21  2  0
 23 21  1  0
 25 24  1  1
 24 23  1  0
 25 26  1  0
 27 25  1  0
 28 27  1  0
 29 27  2  0
M  END
$$$$
