WAQ.pdb
     RDKit          3D

 29 30  0  0  1  0  0  0  0  0999 V2000
    6.2903  -17.2278   23.8745 N   0  0  0  0  0  0  0  0  0  0  0  0
    6.8060  -15.9166   23.4351 C   0  0  1  0  0  0  0  0  0  0  0  0
    7.7694  -15.5045   24.4959 C   0  0  0  0  0  0  0  0  0  0  0  0
    7.1909  -14.7121   25.5938 C   0  0  0  0  0  0  0  0  0  0  0  0
    6.4679  -15.2511   26.6642 C   0  0  0  0  0  0  0  0  0  0  0  0
    6.1042  -14.2631   27.4825 N   0  0  0  0  0  0  0  0  0  0  0  0
    6.5550  -13.0818   27.0021 C   0  0  0  0  0  0  0  0  0  0  0  0
    6.4597  -11.7719   27.4435 C   0  0  0  0  0  0  0  0  0  0  0  0
    7.0146  -10.7331   26.7528 C   0  0  0  0  0  0  0  0  0  0  0  0
    7.6906  -10.9898   25.5808 C   0  0  0  0  0  0  0  0  0  0  0  0
    7.7876  -12.2876   25.1396 C   0  0  0  0  0  0  0  0  0  0  0  0
    7.2398  -13.3593   25.8127 C   0  0  0  0  0  0  0  0  0  0  0  0
    7.2863  -16.0502   22.0816 C   0  0  0  0  0  0  0  0  0  0  0  0
    8.0008  -17.0481   21.7279 O   0  0  0  0  0  0  0  0  0  0  0  0
    7.3975  -13.9248   18.9239 C   0  0  0  0  0  0  0  0  0  0  0  0
    7.7029  -15.1652   19.7636 C   0  0  2  0  0  0  0  0  0  0  0  0
    7.0098  -15.1002   21.0312 N   0  0  0  0  0  0  0  0  0  0  0  0
    9.1759  -15.2905   19.9446 C   0  0  0  0  0  0  0  0  0  0  0  0
    9.7843  -14.4843   20.7313 O   0  0  0  0  0  0  0  0  0  0  0  0
   12.0787  -17.5222   23.8391 N   0  0  0  0  0  0  0  0  0  0  0  0
   12.0735  -18.4919   22.8079 C   0  0  0  0  0  0  0  0  0  0  0  0
   12.2839  -19.7098   23.1446 O   0  0  0  0  0  0  0  0  0  0  0  0
   11.8333  -18.1548   21.4011 C   0  0  0  0  0  0  0  0  0  0  0  0
   11.5062  -16.7485   21.0884 C   0  0  0  0  0  0  0  0  0  0  0  0
   11.4135  -16.4224   19.6416 C   0  0  2  0  0  0  0  0  0  0  0  0
    9.9707  -16.2607   19.2973 N   0  0  0  0  0  0  0  0  0  0  0  0
   12.0121  -17.3679   18.7346 C   0  0  0  0  0  0  0  0  0  0  0  0
   13.3743  -17.5365   18.5735 O   0  0  0  0  0  0  0  0  0  0  0  0
   11.2674  -18.1083   18.0097 O   0  0  0  0  0  0  0  0  0  0  0  0
  2  1  1  1
  2  3  1  0
  2 13  1  0
  3  4  1  0
  4 12  1  0
  5  4  2  0
  5  6  1  0
  6  7  1  0
  7  8  1  0
  8  9  2  0
 10  9  1  0
 11 10  2  0
 12  7  2  0
 12 11  1  0
 13 17  1  0
 13 14  2  0
 16 15  1  6
 17 16  1  0
 18 16  1  0
 18 26  1  0
 19 18  2  0
 21 20  1  0
 22 21  2  0
 23 21  1  0
 25 24  1  1
 24 23  1  0
 25 26  1  0
 27 25  1  0
 28 27  1  0
 29 27  2  0
M  END
$$$$
