MDK.pdb
     RDKit          3D

 26 25  0  0  1  0  0  0  0  0999 V2000
   20.2811  -16.7773  -20.7984 C   0  0  0  0  0  0  0  0  0  0  0  0
   21.1951  -15.9294  -19.4823 S   0  0  0  0  0  0  0  0  0  0  0  0
   20.4278  -14.3351  -19.1268 C   0  0  0  0  0  0  0  0  0  0  0  0
   21.2003  -13.5707  -18.0650 C   0  0  0  0  0  0  0  0  0  0  0  0
   21.8376  -12.3287  -18.6363 C   0  0  2  0  0  0  0  0  0  0  0  0
   22.7006  -12.7690  -19.7168 N   0  0  0  0  0  0  0  0  0  0  0  0
   22.5413  -11.5209  -17.6419 C   0  0  0  0  0  0  0  0  0  0  0  0
   21.8975  -11.1046  -16.6461 O   0  0  0  0  0  0  0  0  0  0  0  0
   23.9131  -11.1741  -17.7250 N   0  0  0  0  0  0  0  0  0  0  0  0
   24.6105  -10.3562  -16.7583 C   0  0  1  0  0  0  0  0  0  0  0  0
   26.1010  -10.6937  -16.8536 C   0  0  0  0  0  0  0  0  0  0  0  0
   26.8955  -10.0625  -15.8015 C   0  0  0  0  0  0  0  0  0  0  0  0
   26.4834   -9.3410  -14.8761 O   0  0  0  0  0  0  0  0  0  0  0  0
   24.3991   -8.8996  -17.0156 C   0  0  0  0  0  0  0  0  0  0  0  0
   24.6715   -8.3580  -18.1019 O   0  0  0  0  0  0  0  0  0  0  0  0
   28.2735  -10.2917  -15.8326 O   0  0  0  0  0  0  0  0  0  0  0  0
   23.8611   -8.1433  -15.9396 N   0  0  0  0  0  0  0  0  0  0  0  0
   23.4097   -6.7751  -16.0194 C   0  0  1  0  0  0  0  0  0  0  0  0
   22.3820   -6.7028  -17.0858 C   0  0  0  0  0  0  0  0  0  0  0  0
   21.6945   -5.4075  -17.2889 C   0  0  0  0  0  0  0  0  0  0  0  0
   20.6694   -5.4019  -18.3834 C   0  0  0  0  0  0  0  0  0  0  0  0
   20.0857   -3.9909  -18.4725 C   0  0  0  0  0  0  0  0  0  0  0  0
   19.1125   -3.9942  -19.5490 N   0  0  0  0  0  0  0  0  0  0  0  0
   22.9811   -6.2076  -14.7109 C   0  0  0  0  0  0  0  0  0  0  0  0
   22.5363   -7.0486  -13.7038 O   0  0  0  0  0  0  0  0  0  0  0  0
   23.0101   -4.9944  -14.4939 O   0  0  0  0  0  0  0  0  0  0  0  0
  2  1  1  0
  3  2  1  0
  4  3  1  0
  4  5  1  0
  5  6  1  6
  5  7  1  0
  7  8  2  0
  9  7  1  0
  9 10  1  0
 10 11  1  6
 11 12  1  0
 12 13  2  0
 14 10  1  0
 14 15  2  0
 16 12  1  0
 17 14  1  0
 18 17  1  0
 18 24  1  0
 18 19  1  6
 20 19  1  0
 21 20  1  0
 22 21  1  0
 23 22  1  0
 24 26  2  0
 24 25  1  0
M  END
$$$$
