MDK.pdb
     RDKit          3D

 26 25  0  0  1  0  0  0  0  0999 V2000
   30.5206  -21.7367   -8.3802 C   0  0  0  0  0  0  0  0  0  0  0  0
   29.2556  -21.8240   -9.6759 S   0  0  0  0  0  0  0  0  0  0  0  0
   29.7845  -20.8783  -11.1191 C   0  0  0  0  0  0  0  0  0  0  0  0
   28.7708  -20.9719  -12.2471 C   0  0  0  0  0  0  0  0  0  0  0  0
   27.3688  -20.7263  -11.7478 C   0  0  2  0  0  0  0  0  0  0  0  0
   27.0673  -21.8026  -10.8222 N   0  0  0  0  0  0  0  0  0  0  0  0
   26.3794  -20.6038  -12.8166 C   0  0  0  0  0  0  0  0  0  0  0  0
   26.4307  -19.5961  -13.5660 O   0  0  0  0  0  0  0  0  0  0  0  0
   25.3582  -21.5540  -13.0683 N   0  0  0  0  0  0  0  0  0  0  0  0
   24.3889  -21.4506  -14.1357 C   0  0  1  0  0  0  0  0  0  0  0  0
   23.9875  -22.8725  -14.5378 C   0  0  0  0  0  0  0  0  0  0  0  0
   25.0862  -23.6244  -15.1413 C   0  0  0  0  0  0  0  0  0  0  0  0
   25.4543  -24.7784  -14.8589 O   0  0  0  0  0  0  0  0  0  0  0  0
   23.1817  -20.6802  -13.7098 C   0  0  0  0  0  0  0  0  0  0  0  0
   22.7288  -20.7180  -12.5517 O   0  0  0  0  0  0  0  0  0  0  0  0
   25.8078  -22.9806  -16.1498 O   0  0  0  0  0  0  0  0  0  0  0  0
   22.5596  -19.8842  -14.7092 N   0  0  0  0  0  0  0  0  0  0  0  0
   21.3923  -19.0581  -14.5171 C   0  0  1  0  0  0  0  0  0  0  0  0
   21.4047  -18.0119  -15.5679 C   0  0  0  0  0  0  0  0  0  0  0  0
   20.3711  -16.9546  -15.4950 C   0  0  0  0  0  0  0  0  0  0  0  0
   19.9514  -16.3900  -16.8193 C   0  0  0  0  0  0  0  0  0  0  0  0
   18.9502  -15.2646  -16.5538 C   0  0  0  0  0  0  0  0  0  0  0  0
   18.7593  -14.5534  -17.8043 N   0  0  0  0  0  0  0  0  0  0  0  0
   20.1205  -19.8279  -14.4289 C   0  0  0  0  0  0  0  0  0  0  0  0
   19.9751  -21.0084  -15.1393 O   0  0  0  0  0  0  0  0  0  0  0  0
   19.1794  -19.4406  -13.7331 O   0  0  0  0  0  0  0  0  0  0  0  0
  2  1  1  0
  3  2  1  0
  4  3  1  0
  4  5  1  0
  5  6  1  1
  5  7  1  0
  7  8  2  0
  9  7  1  0
  9 10  1  0
 10 11  1  1
 11 12  1  0
 12 13  2  0
 14 10  1  0
 14 15  2  0
 16 12  1  0
 17 14  1  0
 18 17  1  0
 18 24  1  0
 18 19  1  6
 20 19  1  0
 21 20  1  0
 22 21  1  0
 23 22  1  0
 24 26  2  0
 24 25  1  0
M  END
$$$$
