MDK.pdb
     RDKit          3D

 26 25  0  0  1  0  0  0  0  0999 V2000
   21.8624  -13.6428  -18.7736 C   0  0  0  0  0  0  0  0  0  0  0  0
   23.3369  -13.0440  -19.6418 S   0  0  0  0  0  0  0  0  0  0  0  0
   24.2230  -11.8594  -18.6081 C   0  0  0  0  0  0  0  0  0  0  0  0
   23.2882  -11.1644  -17.6326 C   0  0  0  0  0  0  0  0  0  0  0  0
   24.0421  -10.2280  -16.7215 C   0  0  2  0  0  0  0  0  0  0  0  0
   24.9144  -11.0569  -15.9103 N   0  0  0  0  0  0  0  0  0  0  0  0
   23.1752   -9.3648  -15.9216 C   0  0  0  0  0  0  0  0  0  0  0  0
   22.4883   -9.8885  -15.0087 O   0  0  0  0  0  0  0  0  0  0  0  0
   23.0576   -7.9644  -16.1066 N   0  0  0  0  0  0  0  0  0  0  0  0
   22.1338   -7.1183  -15.3852 C   0  0  1  0  0  0  0  0  0  0  0  0
   22.9515   -6.0303  -14.6837 C   0  0  0  0  0  0  0  0  0  0  0  0
   22.1259   -5.1188  -13.8936 C   0  0  0  0  0  0  0  0  0  0  0  0
   22.3675   -3.9303  -13.6179 O   0  0  0  0  0  0  0  0  0  0  0  0
   21.1309   -6.4937  -16.2998 C   0  0  0  0  0  0  0  0  0  0  0  0
   21.4506   -5.8104  -17.2890 O   0  0  0  0  0  0  0  0  0  0  0  0
   20.9292   -5.6339  -13.3887 O   0  0  0  0  0  0  0  0  0  0  0  0
   19.7644   -6.7202  -15.9822 N   0  0  0  0  0  0  0  0  0  0  0  0
   18.6365   -6.1316  -16.6630 C   0  0  1  0  0  0  0  0  0  0  0  0
   17.4465   -6.9636  -16.3623 C   0  0  0  0  0  0  0  0  0  0  0  0
   16.1495   -6.5375  -16.9350 C   0  0  0  0  0  0  0  0  0  0  0  0
   14.9915   -7.4333  -16.6104 C   0  0  0  0  0  0  0  0  0  0  0  0
   13.7646   -6.9023  -17.3534 C   0  0  0  0  0  0  0  0  0  0  0  0
   12.6742   -7.8260  -17.1005 N   0  0  0  0  0  0  0  0  0  0  0  0
   18.4593   -4.6793  -16.3853 C   0  0  0  0  0  0  0  0  0  0  0  0
   18.6202   -4.1961  -15.0968 O   0  0  0  0  0  0  0  0  0  0  0  0
   18.1691   -3.8826  -17.2801 O   0  0  0  0  0  0  0  0  0  0  0  0
  2  1  1  0
  3  2  1  0
  4  3  1  0
  4  5  1  0
  5  6  1  1
  5  7  1  0
  7  8  2  0
  9  7  1  0
  9 10  1  0
 10 11  1  6
 11 12  1  0
 12 13  2  0
 14 10  1  0
 14 15  2  0
 16 12  1  0
 17 14  1  0
 18 17  1  0
 18 24  1  0
 18 19  1  1
 20 19  1  0
 21 20  1  0
 22 21  1  0
 23 22  1  0
 24 26  2  0
 24 25  1  0
M  END
$$$$
