MDK.pdb
     RDKit          3D

 26 25  0  0  1  0  0  0  0  0999 V2000
   26.3544  -14.3839  -19.9663 C   0  0  0  0  0  0  0  0  0  0  0  0
   27.2486  -14.9433  -18.4918 S   0  0  0  0  0  0  0  0  0  0  0  0
   26.3136  -14.5225  -17.0067 C   0  0  0  0  0  0  0  0  0  0  0  0
   24.9039  -14.0694  -17.3469 C   0  0  0  0  0  0  0  0  0  0  0  0
   24.5520  -12.7870  -16.6349 C   0  0  2  0  0  0  0  0  0  0  0  0
   24.6397  -13.0680  -15.2138 N   0  0  0  0  0  0  0  0  0  0  0  0
   23.2552  -12.2371  -17.0251 C   0  0  0  0  0  0  0  0  0  0  0  0
   23.0862  -11.8973  -18.2232 O   0  0  0  0  0  0  0  0  0  0  0  0
   22.1653  -12.0616  -16.1360 N   0  0  0  0  0  0  0  0  0  0  0  0
   20.8725  -11.5403  -16.5188 C   0  0  1  0  0  0  0  0  0  0  0  0
   19.8053  -12.4678  -15.9312 C   0  0  0  0  0  0  0  0  0  0  0  0
   18.4516  -12.1207  -16.3598 C   0  0  0  0  0  0  0  0  0  0  0  0
   18.1227  -11.2555  -17.1906 O   0  0  0  0  0  0  0  0  0  0  0  0
   20.6707  -10.1473  -16.0175 C   0  0  0  0  0  0  0  0  0  0  0  0
   20.9310   -9.8039  -14.8504 O   0  0  0  0  0  0  0  0  0  0  0  0
   17.4048  -12.8379  -15.7750 O   0  0  0  0  0  0  0  0  0  0  0  0
   20.1565   -9.2108  -16.9544 N   0  0  0  0  0  0  0  0  0  0  0  0
   19.8262   -7.8352  -16.6703 C   0  0  1  0  0  0  0  0  0  0  0  0
   19.4012   -7.2035  -17.9426 C   0  0  0  0  0  0  0  0  0  0  0  0
   19.0127   -5.7755  -17.9028 C   0  0  0  0  0  0  0  0  0  0  0  0
   18.5000   -5.2245  -19.1999 C   0  0  0  0  0  0  0  0  0  0  0  0
   18.2254   -3.7331  -19.0006 C   0  0  0  0  0  0  0  0  0  0  0  0
   17.6514   -3.2316  -20.2355 N   0  0  0  0  0  0  0  0  0  0  0  0
   18.8619   -7.6695  -15.5475 C   0  0  0  0  0  0  0  0  0  0  0  0
   19.0258   -6.6345  -14.6413 O   0  0  0  0  0  0  0  0  0  0  0  0
   17.9088   -8.4369  -15.3977 O   0  0  0  0  0  0  0  0  0  0  0  0
  2  1  1  0
  3  2  1  0
  4  3  1  0
  4  5  1  0
  5  6  1  1
  5  7  1  0
  7  8  2  0
  9  7  1  0
  9 10  1  0
 10 11  1  1
 11 12  1  0
 12 13  2  0
 14 10  1  0
 14 15  2  0
 16 12  1  0
 17 14  1  0
 18 17  1  0
 18 24  1  0
 18 19  1  6
 20 19  1  0
 21 20  1  0
 22 21  1  0
 23 22  1  0
 24 26  2  0
 24 25  1  0
M  END
$$$$
