MDK.pdb
     RDKit          3D

 26 25  0  0  1  0  0  0  0  0999 V2000
   23.3384  -17.1604  -21.0639 C   0  0  0  0  0  0  0  0  0  0  0  0
   22.9215  -16.1878  -19.5918 S   0  0  0  0  0  0  0  0  0  0  0  0
   23.0582  -14.4259  -19.9575 C   0  0  0  0  0  0  0  0  0  0  0  0
   22.8653  -13.5823  -18.7087 C   0  0  0  0  0  0  0  0  0  0  0  0
   22.9234  -12.1089  -19.0265 C   0  0  2  0  0  0  0  0  0  0  0  0
   24.1977  -11.8793  -19.6818 N   0  0  0  0  0  0  0  0  0  0  0  0
   22.7222  -11.2499  -17.8611 C   0  0  0  0  0  0  0  0  0  0  0  0
   21.6922  -11.4225  -17.1620 O   0  0  0  0  0  0  0  0  0  0  0  0
   23.6194  -10.2278  -17.4617 N   0  0  0  0  0  0  0  0  0  0  0  0
   23.3950   -9.3296  -16.3514 C   0  0  1  0  0  0  0  0  0  0  0  0
   24.7602   -8.8125  -15.8894 C   0  0  0  0  0  0  0  0  0  0  0  0
   25.5437   -9.8260  -15.1854 C   0  0  0  0  0  0  0  0  0  0  0  0
   26.7214   -9.7324  -14.7965 O   0  0  0  0  0  0  0  0  0  0  0  0
   22.5192   -8.1830  -16.7397 C   0  0  0  0  0  0  0  0  0  0  0  0
   22.7579   -7.4496  -17.7158 O   0  0  0  0  0  0  0  0  0  0  0  0
   24.9038  -11.0384  -14.9154 O   0  0  0  0  0  0  0  0  0  0  0  0
   21.3754   -7.9627  -15.9258 N   0  0  0  0  0  0  0  0  0  0  0  0
   20.3923   -6.9252  -16.1240 C   0  0  1  0  0  0  0  0  0  0  0  0
   19.0529   -7.5354  -15.9442 C   0  0  0  0  0  0  0  0  0  0  0  0
   17.8733   -6.6504  -16.0738 C   0  0  0  0  0  0  0  0  0  0  0  0
   16.5492   -7.3364  -15.9153 C   0  0  0  0  0  0  0  0  0  0  0  0
   15.4514   -6.3039  -16.1762 C   0  0  0  0  0  0  0  0  0  0  0  0
   14.1784   -6.9583  -15.9370 N   0  0  0  0  0  0  0  0  0  0  0  0
   20.6306   -5.7077  -15.3000 C   0  0  0  0  0  0  0  0  0  0  0  0
   20.2533   -4.4634  -15.7781 O   0  0  0  0  0  0  0  0  0  0  0  0
   21.1617   -5.7748  -14.1895 O   0  0  0  0  0  0  0  0  0  0  0  0
  2  1  1  0
  3  2  1  0
  4  3  1  0
  4  5  1  0
  5  6  1  1
  5  7  1  0
  7  8  2  0
  9  7  1  0
  9 10  1  0
 10 11  1  6
 11 12  1  0
 12 13  2  0
 14 10  1  0
 14 15  2  0
 16 12  1  0
 17 14  1  0
 18 17  1  0
 18 24  1  0
 18 19  1  1
 20 19  1  0
 21 20  1  0
 22 21  1  0
 23 22  1  0
 24 26  2  0
 24 25  1  0
M  END
$$$$
