MDK.pdb
     RDKit          3D

 26 25  0  0  1  0  0  0  0  0999 V2000
   28.9517  -20.4061   -8.6219 C   0  0  0  0  0  0  0  0  0  0  0  0
   29.6863  -20.5811  -10.2701 S   0  0  0  0  0  0  0  0  0  0  0  0
   28.4513  -21.1956  -11.4338 C   0  0  0  0  0  0  0  0  0  0  0  0
   27.0784  -21.2891  -10.7897 C   0  0  0  0  0  0  0  0  0  0  0  0
   26.0661  -21.8826  -11.7375 C   0  0  2  0  0  0  0  0  0  0  0  0
   26.8041  -22.3149  -12.9098 N   0  0  0  0  0  0  0  0  0  0  0  0
   24.9661  -20.9765  -12.0622 C   0  0  0  0  0  0  0  0  0  0  0  0
   24.2755  -20.5130  -11.1200 O   0  0  0  0  0  0  0  0  0  0  0  0
   24.6241  -20.5804  -13.3796 N   0  0  0  0  0  0  0  0  0  0  0  0
   23.4681  -19.7821  -13.7201 C   0  0  1  0  0  0  0  0  0  0  0  0
   23.7734  -19.0602  -15.0355 C   0  0  0  0  0  0  0  0  0  0  0  0
   22.7271  -18.1154  -15.4219 C   0  0  0  0  0  0  0  0  0  0  0  0
   21.8126  -17.6696  -14.7065 O   0  0  0  0  0  0  0  0  0  0  0  0
   22.2433  -20.6243  -13.8720 C   0  0  0  0  0  0  0  0  0  0  0  0
   22.1132  -21.4730  -14.7723 O   0  0  0  0  0  0  0  0  0  0  0  0
   22.7515  -17.6572  -16.7416 O   0  0  0  0  0  0  0  0  0  0  0  0
   21.2102  -20.4078  -12.9206 N   0  0  0  0  0  0  0  0  0  0  0  0
   19.9771  -21.1526  -12.8375 C   0  0  1  0  0  0  0  0  0  0  0  0
   19.8335  -21.6290  -11.4407 C   0  0  0  0  0  0  0  0  0  0  0  0
   19.2872  -22.9891  -11.2329 C   0  0  0  0  0  0  0  0  0  0  0  0
   19.0566  -23.3644   -9.7995 C   0  0  0  0  0  0  0  0  0  0  0  0
   18.4923  -24.7858   -9.7713 C   0  0  0  0  0  0  0  0  0  0  0  0
   18.2929  -25.1429   -8.3789 N   0  0  0  0  0  0  0  0  0  0  0  0
   18.7943  -20.4150  -13.3618 C   0  0  0  0  0  0  0  0  0  0  0  0
   17.7836  -21.1018  -14.0147 O   0  0  0  0  0  0  0  0  0  0  0  0
   18.6862  -19.1939  -13.2311 O   0  0  0  0  0  0  0  0  0  0  0  0
  2  1  1  0
  3  2  1  0
  4  3  1  0
  4  5  1  0
  5  6  1  6
  5  7  1  0
  7  8  2  0
  9  7  1  0
  9 10  1  0
 10 11  1  6
 11 12  1  0
 12 13  2  0
 14 10  1  0
 14 15  2  0
 16 12  1  0
 17 14  1  0
 18 17  1  0
 18 24  1  0
 18 19  1  1
 20 19  1  0
 21 20  1  0
 22 21  1  0
 23 22  1  0
 24 26  2  0
 24 25  1  0
M  END
$$$$
