MDK.pdb
     RDKit          3D

 26 25  0  0  1  0  0  0  0  0999 V2000
   16.9490  -10.9626  -19.6125 C   0  0  0  0  0  0  0  0  0  0  0  0
   16.8455  -10.4334  -17.8816 S   0  0  0  0  0  0  0  0  0  0  0  0
   18.4710   -9.9091  -17.2987 C   0  0  0  0  0  0  0  0  0  0  0  0
   18.4577   -9.6106  -15.8090 C   0  0  0  0  0  0  0  0  0  0  0  0
   19.8007   -9.1123  -15.3364 C   0  0  2  0  0  0  0  0  0  0  0  0
   20.7035  -10.2472  -15.3920 N   0  0  0  0  0  0  0  0  0  0  0  0
   19.7612   -8.4832  -14.0176 C   0  0  0  0  0  0  0  0  0  0  0  0
   19.7095   -9.2238  -13.0035 O   0  0  0  0  0  0  0  0  0  0  0  0
   19.7794   -7.0822  -13.8036 N   0  0  0  0  0  0  0  0  0  0  0  0
   19.7406   -6.4523  -12.5030 C   0  0  1  0  0  0  0  0  0  0  0  0
   20.5468   -5.1536  -12.5918 C   0  0  0  0  0  0  0  0  0  0  0  0
   21.9864   -5.3840  -12.6969 C   0  0  0  0  0  0  0  0  0  0  0  0
   22.6671   -6.2047  -12.0566 O   0  0  0  0  0  0  0  0  0  0  0  0
   18.3395   -6.1557  -12.0770 C   0  0  0  0  0  0  0  0  0  0  0  0
   17.5520   -5.4810  -12.7642 O   0  0  0  0  0  0  0  0  0  0  0  0
   22.6822   -4.5976  -13.6188 O   0  0  0  0  0  0  0  0  0  0  0  0
   17.9375   -6.6908  -10.8235 N   0  0  0  0  0  0  0  0  0  0  0  0
   16.6415   -6.5158  -10.2137 C   0  0  1  0  0  0  0  0  0  0  0  0
   16.0466   -7.8615  -10.0294 C   0  0  0  0  0  0  0  0  0  0  0  0
   14.6600   -7.9336   -9.5158 C   0  0  0  0  0  0  0  0  0  0  0  0
   14.0935   -9.3189   -9.4207 C   0  0  0  0  0  0  0  0  0  0  0  0
   12.6265   -9.1985   -9.0049 C   0  0  0  0  0  0  0  0  0  0  0  0
   12.0825  -10.5428   -8.9492 N   0  0  0  0  0  0  0  0  0  0  0  0
   16.6662   -5.6789   -8.9821 C   0  0  0  0  0  0  0  0  0  0  0  0
   15.5977   -4.8472   -8.6887 O   0  0  0  0  0  0  0  0  0  0  0  0
   17.6228   -5.7037   -8.2049 O   0  0  0  0  0  0  0  0  0  0  0  0
  2  1  1  0
  3  2  1  0
  4  3  1  0
  4  5  1  0
  5  6  1  1
  5  7  1  0
  7  8  2  0
  9  7  1  0
  9 10  1  0
 10 11  1  6
 11 12  1  0
 12 13  2  0
 14 10  1  0
 14 15  2  0
 16 12  1  0
 17 14  1  0
 18 17  1  0
 18 24  1  0
 18 19  1  1
 20 19  1  0
 21 20  1  0
 22 21  1  0
 23 22  1  0
 24 26  2  0
 24 25  1  0
M  END
$$$$
