PQH.pdb
     RDKit          3D

 27 28  0  0  1  0  0  0  0  0999 V2000
    8.8884  -15.3213   18.4607 N   0  0  0  0  0  0  0  0  0  0  0  0
    8.1625  -15.1052   17.2473 C   0  0  0  0  0  0  0  0  0  0  0  0
    7.3403  -13.8650   17.4060 C   0  0  0  0  0  0  0  0  0  0  0  0
    8.0685  -13.1013   18.4710 C   0  0  0  0  0  0  0  0  0  0  0  0
    9.0522  -14.0575   19.1212 C   0  0  1  0  0  0  0  0  0  0  0  0
    8.7458  -14.1279   20.5700 C   0  0  0  0  0  0  0  0  0  0  0  0
    8.8217  -13.0570   21.2243 O   0  0  0  0  0  0  0  0  0  0  0  0
    4.5451  -17.5703   23.4789 N   0  0  0  0  0  0  0  0  0  0  0  0
    5.5500  -18.1912   22.6889 C   0  0  0  0  0  0  0  0  0  0  0  0
    5.3412  -19.3661   22.3180 O   0  0  0  0  0  0  0  0  0  0  0  0
    6.7452  -17.4069   22.3754 C   0  0  0  0  0  0  0  0  0  0  0  0
    6.7805  -16.0202   22.9399 C   0  0  0  0  0  0  0  0  0  0  0  0
    8.0719  -15.3492   22.6905 C   0  0  2  0  0  0  0  0  0  0  0  0
    8.3816  -15.2898   21.2544 N   0  0  0  0  0  0  0  0  0  0  0  0
    9.2249  -15.9251   23.4261 C   0  0  0  0  0  0  0  0  0  0  0  0
    9.7934  -17.0047   23.1498 O   0  0  0  0  0  0  0  0  0  0  0  0
    9.7851  -15.2328   24.5639 N   0  0  0  0  0  0  0  0  0  0  0  0
    9.5797  -15.7642   25.9244 C   0  0  1  0  0  0  0  0  0  0  0  0
    8.0845  -15.7704   26.1564 C   0  0  0  0  0  0  0  0  0  0  0  0
    7.5146  -14.4416   26.4038 C   0  0  0  0  0  0  0  0  0  0  0  0
    8.3211  -13.2937   26.4309 C   0  0  0  0  0  0  0  0  0  0  0  0
    7.5598  -12.2307   26.6727 N   0  0  0  0  0  0  0  0  0  0  0  0
    6.2903  -12.6684   26.8006 C   0  0  0  0  0  0  0  0  0  0  0  0
    6.2718  -14.0079   26.6364 N   0  0  0  0  0  0  0  0  0  0  0  0
   10.0794  -17.1694   25.9515 C   0  0  0  0  0  0  0  0  0  0  0  0
   10.4621  -17.6750   27.2119 O   0  0  0  0  0  0  0  0  0  0  0  0
   10.1726  -17.9023   24.9337 O   0  0  0  0  0  0  0  0  0  0  0  0
  1  2  1  0
  3  2  1  0
  4  3  1  0
  5  4  1  0
  5  1  1  0
  5  6  1  1
  7  6  2  0
  9  8  1  0
  9 10  2  0
 11 12  1  0
 11  9  1  0
 13 12  1  6
 13 14  1  0
 14  6  1  0
 15 17  1  0
 15 13  1  0
 16 15  2  0
 18 25  1  0
 18 17  1  0
 18 19  1  6
 20 19  1  0
 21 20  2  0
 22 21  1  0
 23 22  1  0
 23 24  2  0
 24 20  1  0
 25 26  1  0
 27 25  2  0
M  END
$$$$
