PQH.pdb
     RDKit          3D

 27 28  0  0  1  0  0  0  0  0999 V2000
    8.9501  -13.5204   18.6631 N   0  0  0  0  0  0  0  0  0  0  0  0
    8.4946  -13.3853   17.3139 C   0  0  0  0  0  0  0  0  0  0  0  0
    7.3146  -14.2855   17.1237 C   0  0  0  0  0  0  0  0  0  0  0  0
    6.7804  -14.4538   18.5144 C   0  0  0  0  0  0  0  0  0  0  0  0
    7.8457  -13.9517   19.4723 C   0  0  1  0  0  0  0  0  0  0  0  0
    8.2089  -15.0594   20.3881 C   0  0  0  0  0  0  0  0  0  0  0  0
    7.2713  -15.6159   21.0142 O   0  0  0  0  0  0  0  0  0  0  0  0
   11.4613  -20.3036   19.7588 N   0  0  0  0  0  0  0  0  0  0  0  0
   10.7360  -19.3383   19.0097 C   0  0  0  0  0  0  0  0  0  0  0  0
   10.8109  -19.4066   17.7642 O   0  0  0  0  0  0  0  0  0  0  0  0
    9.9629  -18.3442   19.7555 C   0  0  0  0  0  0  0  0  0  0  0  0
   10.6975  -17.6374   20.8526 C   0  0  0  0  0  0  0  0  0  0  0  0
    9.8603  -16.6202   21.5192 C   0  0  2  0  0  0  0  0  0  0  0  0
    9.5081  -15.5254   20.6032 N   0  0  0  0  0  0  0  0  0  0  0  0
   10.4359  -16.0608   22.7673 C   0  0  0  0  0  0  0  0  0  0  0  0
   11.3180  -15.1755   22.8242 O   0  0  0  0  0  0  0  0  0  0  0  0
    9.9844  -16.5333   24.0560 N   0  0  0  0  0  0  0  0  0  0  0  0
   10.5677  -15.9763   25.2910 C   0  0  1  0  0  0  0  0  0  0  0  0
    9.4114  -15.4207   26.0934 C   0  0  0  0  0  0  0  0  0  0  0  0
    9.7869  -14.9468   27.4298 C   0  0  0  0  0  0  0  0  0  0  0  0
   11.1150  -15.0039   27.8793 C   0  0  0  0  0  0  0  0  0  0  0  0
   11.1795  -14.5152   29.1142 N   0  0  0  0  0  0  0  0  0  0  0  0
    9.9297  -14.1480   29.4650 C   0  0  0  0  0  0  0  0  0  0  0  0
    9.0930  -14.4127   28.4397 N   0  0  0  0  0  0  0  0  0  0  0  0
   11.1913  -17.0968   26.0532 C   0  0  0  0  0  0  0  0  0  0  0  0
   10.9385  -18.3992   25.5731 O   0  0  0  0  0  0  0  0  0  0  0  0
   11.9102  -16.9391   27.0731 O   0  0  0  0  0  0  0  0  0  0  0  0
  1  2  1  0
  3  2  1  0
  4  3  1  0
  5  4  1  0
  5  1  1  0
  5  6  1  1
  7  6  2  0
  9  8  1  0
  9 10  2  0
 11 12  1  0
 11  9  1  0
 13 12  1  6
 13 14  1  0
 14  6  1  0
 15 17  1  0
 15 13  1  0
 16 15  2  0
 18 25  1  0
 18 17  1  0
 18 19  1  1
 20 19  1  0
 21 20  2  0
 22 21  1  0
 23 22  1  0
 23 24  2  0
 24 20  1  0
 25 26  1  0
 27 25  2  0
M  END
$$$$
