PQH.pdb
     RDKit          3D

 27 28  0  0  1  0  0  0  0  0999 V2000
    9.3789  -14.3118   18.5300 N   0  0  0  0  0  0  0  0  0  0  0  0
    8.6224  -13.7360   17.4612 C   0  0  0  0  0  0  0  0  0  0  0  0
    7.3081  -13.2768   18.0097 C   0  0  0  0  0  0  0  0  0  0  0  0
    7.5943  -13.0714   19.4669 C   0  0  0  0  0  0  0  0  0  0  0  0
    8.9246  -13.7391   19.7654 C   0  0  1  0  0  0  0  0  0  0  0  0
    8.7087  -14.7581   20.8203 C   0  0  0  0  0  0  0  0  0  0  0  0
    8.1483  -14.3767   21.8791 O   0  0  0  0  0  0  0  0  0  0  0  0
    8.9141  -21.0239   20.5500 N   0  0  0  0  0  0  0  0  0  0  0  0
    8.8720  -20.8076   21.9538 C   0  0  0  0  0  0  0  0  0  0  0  0
    8.5770  -21.7849   22.6745 O   0  0  0  0  0  0  0  0  0  0  0  0
    9.1757  -19.4612   22.4405 C   0  0  0  0  0  0  0  0  0  0  0  0
    9.4043  -18.4235   21.3851 C   0  0  0  0  0  0  0  0  0  0  0  0
    8.9036  -17.0952   21.7912 C   0  0  2  0  0  0  0  0  0  0  0  0
    9.0801  -16.1012   20.7223 N   0  0  0  0  0  0  0  0  0  0  0  0
    9.4770  -16.5741   23.0568 C   0  0  0  0  0  0  0  0  0  0  0  0
   10.6033  -16.0427   23.1763 O   0  0  0  0  0  0  0  0  0  0  0  0
    8.7251  -16.6560   24.2879 N   0  0  0  0  0  0  0  0  0  0  0  0
    9.3558  -16.2694   25.5640 C   0  0  1  0  0  0  0  0  0  0  0  0
    8.2267  -15.8963   26.4997 C   0  0  0  0  0  0  0  0  0  0  0  0
    7.5208  -14.6675   26.1212 C   0  0  0  0  0  0  0  0  0  0  0  0
    8.1350  -13.6862   25.3282 C   0  0  0  0  0  0  0  0  0  0  0  0
    7.2825  -12.6843   25.1350 N   0  0  0  0  0  0  0  0  0  0  0  0
    6.1417  -12.9990   25.7825 C   0  0  0  0  0  0  0  0  0  0  0  0
    6.2945  -14.2011   26.3768 N   0  0  0  0  0  0  0  0  0  0  0  0
   10.0623  -17.4642   26.1103 C   0  0  0  0  0  0  0  0  0  0  0  0
   10.8444  -17.2565   27.2662 O   0  0  0  0  0  0  0  0  0  0  0  0
    9.9952  -18.6134   25.6038 O   0  0  0  0  0  0  0  0  0  0  0  0
  1  2  1  0
  3  2  1  0
  4  3  1  0
  5  4  1  0
  5  1  1  0
  5  6  1  1
  7  6  2  0
  9  8  1  0
  9 10  2  0
 11 12  1  0
 11  9  1  0
 13 12  1  6
 13 14  1  0
 14  6  1  0
 15 17  1  0
 15 13  1  0
 16 15  2  0
 18 25  1  0
 18 17  1  0
 18 19  1  1
 20 19  1  0
 21 20  2  0
 22 21  1  0
 23 22  1  0
 23 24  2  0
 24 20  1  0
 25 26  1  0
 27 25  2  0
M  END
$$$$
