PQH.pdb
     RDKit          3D

 27 28  0  0  1  0  0  0  0  0999 V2000
    7.2513  -15.1268   20.0362 N   0  0  0  0  0  0  0  0  0  0  0  0
    6.5452  -14.3349   19.0768 C   0  0  0  0  0  0  0  0  0  0  0  0
    7.0930  -12.9431   19.1216 C   0  0  0  0  0  0  0  0  0  0  0  0
    8.4733  -13.1325   19.6752 C   0  0  0  0  0  0  0  0  0  0  0  0
    8.5431  -14.5372   20.2466 C   0  0  1  0  0  0  0  0  0  0  0  0
    8.8976  -14.4395   21.6827 C   0  0  0  0  0  0  0  0  0  0  0  0
   10.0955  -14.1776   21.9605 O   0  0  0  0  0  0  0  0  0  0  0  0
    5.4298  -12.4212   26.4885 N   0  0  0  0  0  0  0  0  0  0  0  0
    6.6725  -12.7263   27.1064 C   0  0  0  0  0  0  0  0  0  0  0  0
    6.8431  -12.3241   28.2771 O   0  0  0  0  0  0  0  0  0  0  0  0
    7.6496  -13.4840   26.3234 C   0  0  0  0  0  0  0  0  0  0  0  0
    7.2679  -13.7660   24.9029 C   0  0  0  0  0  0  0  0  0  0  0  0
    8.3467  -14.4478   24.1603 C   0  0  2  0  0  0  0  0  0  0  0  0
    8.0029  -14.6160   22.7408 N   0  0  0  0  0  0  0  0  0  0  0  0
    8.7664  -15.7522   24.7300 C   0  0  0  0  0  0  0  0  0  0  0  0
    8.0907  -16.8047   24.7031 O   0  0  0  0  0  0  0  0  0  0  0  0
   10.0486  -15.8858   25.3824 N   0  0  0  0  0  0  0  0  0  0  0  0
   10.4267  -17.1663   26.0094 C   0  0  1  0  0  0  0  0  0  0  0  0
   11.8864  -17.3868   25.6774 C   0  0  0  0  0  0  0  0  0  0  0  0
   12.1498  -17.5771   24.2470 C   0  0  0  0  0  0  0  0  0  0  0  0
   11.3997  -18.4810   23.4794 C   0  0  0  0  0  0  0  0  0  0  0  0
   11.8403  -18.4593   22.2250 N   0  0  0  0  0  0  0  0  0  0  0  0
   12.8503  -17.5668   22.1710 C   0  0  0  0  0  0  0  0  0  0  0  0
   13.0311  -17.0374   23.3992 N   0  0  0  0  0  0  0  0  0  0  0  0
   10.2837  -17.0170   27.4867 C   0  0  0  0  0  0  0  0  0  0  0  0
   10.6140  -18.1457   28.2663 O   0  0  0  0  0  0  0  0  0  0  0  0
    9.8943  -15.9635   28.0526 O   0  0  0  0  0  0  0  0  0  0  0  0
  1  2  1  0
  3  2  1  0
  4  3  1  0
  5  4  1  0
  5  1  1  0
  5  6  1  1
  7  6  2  0
  9  8  1  0
  9 10  2  0
 11 12  1  0
 11  9  1  0
 13 12  1  1
 13 14  1  0
 14  6  1  0
 15 17  1  0
 15 13  1  0
 16 15  2  0
 18 25  1  0
 18 17  1  0
 18 19  1  1
 20 19  1  0
 21 20  2  0
 22 21  1  0
 23 22  1  0
 23 24  2  0
 24 20  1  0
 25 26  1  0
 27 25  2  0
M  END
$$$$
