PQH.pdb
     RDKit          3D

 27 28  0  0  1  0  0  0  0  0999 V2000
    8.5526  -14.3205   17.7594 N   0  0  0  0  0  0  0  0  0  0  0  0
    7.5482  -13.5295   17.1180 C   0  0  0  0  0  0  0  0  0  0  0  0
    6.7870  -12.7904   18.1733 C   0  0  0  0  0  0  0  0  0  0  0  0
    7.7539  -12.7282   19.3174 C   0  0  0  0  0  0  0  0  0  0  0  0
    8.8709  -13.7123   19.0201 C   0  0  1  0  0  0  0  0  0  0  0  0
    8.9331  -14.6959   20.1275 C   0  0  0  0  0  0  0  0  0  0  0  0
    9.1347  -14.2448   21.2836 O   0  0  0  0  0  0  0  0  0  0  0  0
    7.9855  -21.1998   19.3701 N   0  0  0  0  0  0  0  0  0  0  0  0
    7.3045  -19.9674   19.1785 C   0  0  0  0  0  0  0  0  0  0  0  0
    6.1202  -20.0237   18.7838 O   0  0  0  0  0  0  0  0  0  0  0  0
    8.0437  -18.7354   19.4573 C   0  0  0  0  0  0  0  0  0  0  0  0
    7.8680  -18.1676   20.8319 C   0  0  0  0  0  0  0  0  0  0  0  0
    8.7848  -17.0395   21.0907 C   0  0  2  0  0  0  0  0  0  0  0  0
    8.7845  -16.0769   19.9794 N   0  0  0  0  0  0  0  0  0  0  0  0
   10.1798  -17.4319   21.4105 C   0  0  0  0  0  0  0  0  0  0  0  0
   11.0420  -17.7842   20.5754 O   0  0  0  0  0  0  0  0  0  0  0  0
   10.6445  -17.4280   22.7787 N   0  0  0  0  0  0  0  0  0  0  0  0
   12.0323  -17.0329   23.0847 C   0  0  1  0  0  0  0  0  0  0  0  0
   12.1570  -15.5784   22.6866 C   0  0  0  0  0  0  0  0  0  0  0  0
   12.8318  -15.3683   21.4012 C   0  0  0  0  0  0  0  0  0  0  0  0
   13.4083  -16.4352   20.6952 C   0  0  0  0  0  0  0  0  0  0  0  0
   13.9496  -15.9737   19.5719 N   0  0  0  0  0  0  0  0  0  0  0  0
   13.7346  -14.6423   19.5416 C   0  0  0  0  0  0  0  0  0  0  0  0
   13.0573  -14.2842   20.6527 N   0  0  0  0  0  0  0  0  0  0  0  0
   12.2313  -17.1500   24.5584 C   0  0  0  0  0  0  0  0  0  0  0  0
   11.0665  -17.3127   25.3378 O   0  0  0  0  0  0  0  0  0  0  0  0
   13.3553  -17.1115   25.1214 O   0  0  0  0  0  0  0  0  0  0  0  0
  1  2  1  0
  3  2  1  0
  4  3  1  0
  5  4  1  0
  5  1  1  0
  5  6  1  1
  7  6  2  0
  9  8  1  0
  9 10  2  0
 11 12  1  0
 11  9  1  0
 13 12  1  6
 13 14  1  0
 14  6  1  0
 15 17  1  0
 15 13  1  0
 16 15  2  0
 18 25  1  0
 18 17  1  0
 18 19  1  1
 20 19  1  0
 21 20  2  0
 22 21  1  0
 23 22  1  0
 23 24  2  0
 24 20  1  0
 25 26  1  0
 27 25  2  0
M  END
$$$$
