PQH.pdb
     RDKit          3D

 27 28  0  0  1  0  0  0  0  0999 V2000
    8.4962  -15.2014   18.5028 N   0  0  0  0  0  0  0  0  0  0  0  0
    7.7020  -14.6634   17.4416 C   0  0  0  0  0  0  0  0  0  0  0  0
    7.0208  -13.4292   17.9435 C   0  0  0  0  0  0  0  0  0  0  0  0
    7.9020  -12.9822   19.0710 C   0  0  0  0  0  0  0  0  0  0  0  0
    8.8349  -14.1336   19.4004 C   0  0  1  0  0  0  0  0  0  0  0  0
    8.6378  -14.5012   20.8230 C   0  0  0  0  0  0  0  0  0  0  0  0
    8.9959  -13.6608   21.6868 O   0  0  0  0  0  0  0  0  0  0  0  0
    5.5158  -19.5153   23.3862 N   0  0  0  0  0  0  0  0  0  0  0  0
    5.7167  -18.6257   24.4759 C   0  0  0  0  0  0  0  0  0  0  0  0
    5.1685  -18.9168   25.5605 O   0  0  0  0  0  0  0  0  0  0  0  0
    6.5463  -17.4433   24.2401 C   0  0  0  0  0  0  0  0  0  0  0  0
    6.9385  -17.1966   22.8160 C   0  0  0  0  0  0  0  0  0  0  0  0
    7.8463  -16.0401   22.6798 C   0  0  2  0  0  0  0  0  0  0  0  0
    8.0867  -15.7050   21.2686 N   0  0  0  0  0  0  0  0  0  0  0  0
    9.1432  -16.1800   23.3873 C   0  0  0  0  0  0  0  0  0  0  0  0
    9.9583  -17.1153   23.2262 O   0  0  0  0  0  0  0  0  0  0  0  0
    9.5588  -15.1897   24.3539 N   0  0  0  0  0  0  0  0  0  0  0  0
    9.6373  -15.5428   25.7839 C   0  0  1  0  0  0  0  0  0  0  0  0
    8.2134  -15.7660   26.2447 C   0  0  0  0  0  0  0  0  0  0  0  0
    7.4208  -14.5360   26.3472 C   0  0  0  0  0  0  0  0  0  0  0  0
    7.9732  -13.2827   26.0420 C   0  0  0  0  0  0  0  0  0  0  0  0
    7.0483  -12.3436   26.2166 N   0  0  0  0  0  0  0  0  0  0  0  0
    5.9214  -12.9627   26.6245 C   0  0  0  0  0  0  0  0  0  0  0  0
    6.1556  -14.2897   26.7009 N   0  0  0  0  0  0  0  0  0  0  0  0
   10.3907  -16.8248   25.9021 C   0  0  0  0  0  0  0  0  0  0  0  0
   10.8041  -17.1921   27.2002 O   0  0  0  0  0  0  0  0  0  0  0  0
   10.6662  -17.5710   24.9279 O   0  0  0  0  0  0  0  0  0  0  0  0
  1  2  1  0
  3  2  1  0
  4  3  1  0
  5  4  1  0
  5  1  1  0
  5  6  1  1
  7  6  2  0
  9  8  1  0
  9 10  2  0
 11 12  1  0
 11  9  1  0
 13 12  1  6
 13 14  1  0
 14  6  1  0
 15 17  1  0
 15 13  1  0
 16 15  2  0
 18 25  1  0
 18 17  1  0
 18 19  1  6
 20 19  1  0
 21 20  2  0
 22 21  1  0
 23 22  1  0
 23 24  2  0
 24 20  1  0
 25 26  1  0
 27 25  2  0
M  END
$$$$
