PQH.pdb
     RDKit          3D

 27 28  0  0  1  0  0  0  0  0999 V2000
    8.5947  -14.9682   18.6658 N   0  0  0  0  0  0  0  0  0  0  0  0
    7.9518  -14.3454   17.5501 C   0  0  0  0  0  0  0  0  0  0  0  0
    7.0232  -13.2933   18.0697 C   0  0  0  0  0  0  0  0  0  0  0  0
    7.6018  -12.9530   19.4102 C   0  0  0  0  0  0  0  0  0  0  0  0
    8.6043  -14.0382   19.7593 C   0  0  1  0  0  0  0  0  0  0  0  0
    8.1913  -14.6604   21.0399 C   0  0  0  0  0  0  0  0  0  0  0  0
    8.1660  -13.9191   22.0550 O   0  0  0  0  0  0  0  0  0  0  0  0
    5.7740  -20.5306   22.0643 N   0  0  0  0  0  0  0  0  0  0  0  0
    5.6642  -19.8986   23.3323 C   0  0  0  0  0  0  0  0  0  0  0  0
    5.0955  -20.5382   24.2428 O   0  0  0  0  0  0  0  0  0  0  0  0
    6.2237  -18.5531   23.4684 C   0  0  0  0  0  0  0  0  0  0  0  0
    6.7602  -17.9408   22.2113 C   0  0  0  0  0  0  0  0  0  0  0  0
    7.2756  -16.5750   22.4322 C   0  0  2  0  0  0  0  0  0  0  0  0
    7.8308  -16.0007   21.1978 N   0  0  0  0  0  0  0  0  0  0  0  0
    8.2678  -16.4538   23.5290 C   0  0  0  0  0  0  0  0  0  0  0  0
    9.4751  -16.7722   23.4513 O   0  0  0  0  0  0  0  0  0  0  0  0
    7.8726  -15.9326   24.8174 N   0  0  0  0  0  0  0  0  0  0  0  0
    8.8888  -15.6961   25.8601 C   0  0  1  0  0  0  0  0  0  0  0  0
    8.2637  -14.7406   26.8530 C   0  0  0  0  0  0  0  0  0  0  0  0
    9.1232  -14.4261   27.9993 C   0  0  0  0  0  0  0  0  0  0  0  0
   10.4135  -14.9653   28.1152 C   0  0  0  0  0  0  0  0  0  0  0  0
   10.9723  -14.5231   29.2378 N   0  0  0  0  0  0  0  0  0  0  0  0
   10.0746  -13.7169   29.8411 C   0  0  0  0  0  0  0  0  0  0  0  0
    8.9582  -13.6637   29.0847 N   0  0  0  0  0  0  0  0  0  0  0  0
    9.1604  -16.9942   26.5429 C   0  0  0  0  0  0  0  0  0  0  0  0
   10.4668  -17.1786   27.0431 O   0  0  0  0  0  0  0  0  0  0  0  0
    8.3049  -17.9045   26.6889 O   0  0  0  0  0  0  0  0  0  0  0  0
  1  2  1  0
  3  2  1  0
  4  3  1  0
  5  4  1  0
  5  1  1  0
  5  6  1  1
  7  6  2  0
  9  8  1  0
  9 10  2  0
 11 12  1  0
 11  9  1  0
 13 12  1  6
 13 14  1  0
 14  6  1  0
 15 17  1  0
 15 13  1  0
 16 15  2  0
 18 25  1  0
 18 17  1  0
 18 19  1  1
 20 19  1  0
 21 20  2  0
 22 21  1  0
 23 22  1  0
 23 24  2  0
 24 20  1  0
 25 26  1  0
 27 25  2  0
M  END
$$$$
