PQH.pdb
     RDKit          3D

 27 28  0  0  1  0  0  0  0  0999 V2000
    8.2297  -15.4813   19.4927 N   0  0  0  0  0  0  0  0  0  0  0  0
    7.6796  -14.7321   18.4054 C   0  0  0  0  0  0  0  0  0  0  0  0
    6.6710  -13.7743   18.9572 C   0  0  0  0  0  0  0  0  0  0  0  0
    7.1041  -13.5989   20.3818 C   0  0  0  0  0  0  0  0  0  0  0  0
    8.1021  -14.7005   20.6904 C   0  0  1  0  0  0  0  0  0  0  0  0
    7.5857  -15.4908   21.8333 C   0  0  0  0  0  0  0  0  0  0  0  0
    7.5009  -14.9056   22.9428 O   0  0  0  0  0  0  0  0  0  0  0  0
    5.2316  -21.4824   21.9336 N   0  0  0  0  0  0  0  0  0  0  0  0
    5.0571  -21.0282   23.2687 C   0  0  0  0  0  0  0  0  0  0  0  0
    4.4546  -21.7878   24.0570 O   0  0  0  0  0  0  0  0  0  0  0  0
    5.5948  -19.7108   23.6111 C   0  0  0  0  0  0  0  0  0  0  0  0
    6.1627  -18.9230   22.4710 C   0  0  0  0  0  0  0  0  0  0  0  0
    6.6522  -17.5972   22.8984 C   0  0  2  0  0  0  0  0  0  0  0  0
    7.1896  -16.8287   21.7660 N   0  0  0  0  0  0  0  0  0  0  0  0
    7.6473  -17.6261   23.9988 C   0  0  0  0  0  0  0  0  0  0  0  0
    8.8807  -17.7787   23.8554 O   0  0  0  0  0  0  0  0  0  0  0  0
    7.2235  -17.4708   25.3714 N   0  0  0  0  0  0  0  0  0  0  0  0
    8.2288  -17.3473   26.4438 C   0  0  1  0  0  0  0  0  0  0  0  0
    7.8438  -16.1246   27.2477 C   0  0  0  0  0  0  0  0  0  0  0  0
    7.8821  -14.8730   26.4837 C   0  0  0  0  0  0  0  0  0  0  0  0
    6.7422  -14.0668   26.3437 C   0  0  0  0  0  0  0  0  0  0  0  0
    7.0486  -13.0009   25.6102 N   0  0  0  0  0  0  0  0  0  0  0  0
    8.3520  -13.1047   25.2784 C   0  0  0  0  0  0  0  0  0  0  0  0
    8.8489  -14.2408   25.8112 N   0  0  0  0  0  0  0  0  0  0  0  0
    8.1237  -18.5528   27.3161 C   0  0  0  0  0  0  0  0  0  0  0  0
    7.1857  -19.5311   26.9238 O   0  0  0  0  0  0  0  0  0  0  0  0
    8.8116  -18.7321   28.3536 O   0  0  0  0  0  0  0  0  0  0  0  0
  1  2  1  0
  3  2  1  0
  4  3  1  0
  5  4  1  0
  5  1  1  0
  5  6  1  1
  7  6  2  0
  9  8  1  0
  9 10  2  0
 11 12  1  0
 11  9  1  0
 13 12  1  6
 13 14  1  0
 14  6  1  0
 15 17  1  0
 15 13  1  0
 16 15  2  0
 18 25  1  0
 18 17  1  0
 18 19  1  1
 20 19  1  0
 21 20  2  0
 22 21  1  0
 23 22  1  0
 23 24  2  0
 24 20  1  0
 25 26  1  0
 27 25  2  0
M  END
$$$$
