PQH.pdb
     RDKit          3D

 27 28  0  0  1  0  0  0  0  0999 V2000
    9.3364  -14.2516   19.1132 N   0  0  0  0  0  0  0  0  0  0  0  0
    8.7814  -13.9764   17.8239 C   0  0  0  0  0  0  0  0  0  0  0  0
    7.3280  -13.6642   17.9947 C   0  0  0  0  0  0  0  0  0  0  0  0
    7.2393  -13.1974   19.4166 C   0  0  0  0  0  0  0  0  0  0  0  0
    8.5382  -13.5830   20.1014 C   0  0  1  0  0  0  0  0  0  0  0  0
    8.2156  -14.4534   21.2573 C   0  0  0  0  0  0  0  0  0  0  0  0
    7.3883  -14.0109   22.0942 O   0  0  0  0  0  0  0  0  0  0  0  0
   11.6630  -20.1106   22.7373 N   0  0  0  0  0  0  0  0  0  0  0  0
   10.6595  -19.5696   21.8891 C   0  0  0  0  0  0  0  0  0  0  0  0
   10.2052  -20.3136   20.9938 O   0  0  0  0  0  0  0  0  0  0  0  0
   10.2413  -18.1882   22.1314 C   0  0  0  0  0  0  0  0  0  0  0  0
    8.7784  -17.9848   22.3796 C   0  0  0  0  0  0  0  0  0  0  0  0
    8.4483  -16.5694   22.6396 C   0  0  2  0  0  0  0  0  0  0  0  0
    8.7606  -15.7200   21.4809 N   0  0  0  0  0  0  0  0  0  0  0  0
    9.0719  -15.9986   23.8592 C   0  0  0  0  0  0  0  0  0  0  0  0
   10.1921  -15.4436   23.9072 O   0  0  0  0  0  0  0  0  0  0  0  0
    8.3821  -16.0552   25.1275 N   0  0  0  0  0  0  0  0  0  0  0  0
    9.0487  -15.5720   26.3514 C   0  0  1  0  0  0  0  0  0  0  0  0
    7.9547  -15.0270   27.2435 C   0  0  0  0  0  0  0  0  0  0  0  0
    7.4217  -13.7314   26.8087 C   0  0  0  0  0  0  0  0  0  0  0  0
    8.0294  -13.0000   25.7769 C   0  0  0  0  0  0  0  0  0  0  0  0
    7.3519  -11.8723   25.5834 N   0  0  0  0  0  0  0  0  0  0  0  0
    6.3291  -11.8640   26.4630 C   0  0  0  0  0  0  0  0  0  0  0  0
    6.3788  -12.9930   27.2008 N   0  0  0  0  0  0  0  0  0  0  0  0
    9.6835  -16.7424   27.0241 C   0  0  0  0  0  0  0  0  0  0  0  0
    9.5051  -17.9962   26.4020 O   0  0  0  0  0  0  0  0  0  0  0  0
   10.3501  -16.6657   28.0878 O   0  0  0  0  0  0  0  0  0  0  0  0
  1  2  1  0
  3  2  1  0
  4  3  1  0
  5  4  1  0
  5  1  1  0
  5  6  1  1
  7  6  2  0
  9  8  1  0
  9 10  2  0
 11 12  1  0
 11  9  1  0
 13 12  1  6
 13 14  1  0
 14  6  1  0
 15 17  1  0
 15 13  1  0
 16 15  2  0
 18 25  1  0
 18 17  1  0
 18 19  1  1
 20 19  1  0
 21 20  2  0
 22 21  1  0
 23 22  1  0
 23 24  2  0
 24 20  1  0
 25 26  1  0
 27 25  2  0
M  END
$$$$
