PQH.pdb
     RDKit          3D

 27 28  0  0  1  0  0  0  0  0999 V2000
    9.5145  -14.2286   18.6706 N   0  0  0  0  0  0  0  0  0  0  0  0
    8.9930  -13.6960   17.4498 C   0  0  0  0  0  0  0  0  0  0  0  0
    7.5493  -13.3637   17.6608 C   0  0  0  0  0  0  0  0  0  0  0  0
    7.4528  -13.1674   19.1439 C   0  0  0  0  0  0  0  0  0  0  0  0
    8.7242  -13.7251   19.7580 C   0  0  1  0  0  0  0  0  0  0  0  0
    8.3493  -14.7823   20.7272 C   0  0  0  0  0  0  0  0  0  0  0  0
    7.4441  -14.5060   21.5548 O   0  0  0  0  0  0  0  0  0  0  0  0
    7.9731  -21.2497   19.8143 N   0  0  0  0  0  0  0  0  0  0  0  0
    8.8457  -20.1520   19.5842 C   0  0  0  0  0  0  0  0  0  0  0  0
    9.9082  -20.3850   18.9692 O   0  0  0  0  0  0  0  0  0  0  0  0
    8.4308  -18.8411   20.0858 C   0  0  0  0  0  0  0  0  0  0  0  0
    9.0504  -18.4134   21.3804 C   0  0  0  0  0  0  0  0  0  0  0  0
    8.6005  -17.0702   21.7971 C   0  0  2  0  0  0  0  0  0  0  0  0
    8.9251  -16.0537   20.7857 N   0  0  0  0  0  0  0  0  0  0  0  0
    9.0987  -16.6307   23.1240 C   0  0  0  0  0  0  0  0  0  0  0  0
   10.1687  -16.0152   23.3278 O   0  0  0  0  0  0  0  0  0  0  0  0
    8.3338  -16.9041   24.3189 N   0  0  0  0  0  0  0  0  0  0  0  0
    8.8900  -16.5685   25.6432 C   0  0  1  0  0  0  0  0  0  0  0  0
    7.7118  -16.1961   26.5165 C   0  0  0  0  0  0  0  0  0  0  0  0
    7.2054  -14.8388   26.2867 C   0  0  0  0  0  0  0  0  0  0  0  0
    7.8645  -13.9487   25.4251 C   0  0  0  0  0  0  0  0  0  0  0  0
    7.2016  -12.7964   25.3972 N   0  0  0  0  0  0  0  0  0  0  0  0
    6.1381  -12.9266   26.2168 C   0  0  0  0  0  0  0  0  0  0  0  0
    6.1480  -14.1659   26.7512 N   0  0  0  0  0  0  0  0  0  0  0  0
    9.5347  -17.7942   26.1973 C   0  0  0  0  0  0  0  0  0  0  0  0
   10.1753  -17.6559   27.4468 O   0  0  0  0  0  0  0  0  0  0  0  0
    9.5339  -18.9115   25.6197 O   0  0  0  0  0  0  0  0  0  0  0  0
  1  2  1  0
  3  2  1  0
  4  3  1  0
  5  4  1  0
  5  1  1  0
  5  6  1  1
  7  6  2  0
  9  8  1  0
  9 10  2  0
 11 12  1  0
 11  9  1  0
 13 12  1  6
 13 14  1  0
 14  6  1  0
 15 17  1  0
 15 13  1  0
 16 15  2  0
 18 25  1  0
 18 17  1  0
 18 19  1  1
 20 19  1  0
 21 20  2  0
 22 21  1  0
 23 22  1  0
 23 24  2  0
 24 20  1  0
 25 26  1  0
 27 25  2  0
M  END
$$$$
