NNG.pdb
     RDKit          3D

 21 20  0  0  1  0  0  0  0  0999 V2000
    7.6973  -14.3537   15.3124 N   0  0  0  0  0  0  0  0  0  0  0  0
    8.8972  -14.2973   16.0603 C   0  0  0  0  0  0  0  0  0  0  0  0
    9.9485  -14.7239   15.4707 O   0  0  0  0  0  0  0  0  0  0  0  0
    9.0103  -13.7943   17.4345 C   0  0  0  0  0  0  0  0  0  0  0  0
    9.6718  -14.8374   18.3027 C   0  0  2  0  0  0  0  0  0  0  0  0
    9.0311  -16.1196   18.2117 N   0  0  0  0  0  0  0  0  0  0  0  0
    9.6533  -14.4058   19.7398 C   0  0  0  0  0  0  0  0  0  0  0  0
   10.4309  -13.5123   20.1513 O   0  0  0  0  0  0  0  0  0  0  0  0
    5.6663  -13.9978   21.0978 N   0  0  0  0  0  0  0  0  0  0  0  0
    6.2056  -15.0677   21.8622 C   0  0  0  0  0  0  0  0  0  0  0  0
    5.6166  -16.1734   21.7758 O   0  0  0  0  0  0  0  0  0  0  0  0
    7.3766  -14.9224   22.7096 C   0  0  0  0  0  0  0  0  0  0  0  0
    8.6890  -14.7322   22.0534 C   0  0  2  0  0  0  0  0  0  0  0  0
    8.7506  -15.0076   20.6486 N   0  0  0  0  0  0  0  0  0  0  0  0
    9.8624  -15.2104   22.8340 C   0  0  0  0  0  0  0  0  0  0  0  0
    9.8713  -14.9462   24.0621 O   0  0  0  0  0  0  0  0  0  0  0  0
   10.9542  -15.9246   22.3021 N   0  0  0  0  0  0  0  0  0  0  0  0
   12.0880  -16.3166   23.1565 C   0  0  0  0  0  0  0  0  0  0  0  0
   13.0952  -17.0590   22.4109 C   0  0  0  0  0  0  0  0  0  0  0  0
   12.9478  -17.2644   21.1904 O   0  0  0  0  0  0  0  0  0  0  0  0
   14.2255  -17.5468   23.0354 O   0  0  0  0  0  0  0  0  0  0  0  0
  2  3  2  0
  2  1  1  0
  4  2  1  0
  5  6  1  1
  5  4  1  0
  7  5  1  0
  7  8  2  0
  9 10  1  0
 10 12  1  0
 11 10  2  0
 13 12  1  1
 13 14  1  0
 13 15  1  0
 14  7  1  0
 15 16  2  0
 15 17  1  0
 17 18  1  0
 19 21  1  0
 19 18  1  0
 20 19  2  0
M  END
$$$$
