NNG.pdb
     RDKit          3D

 21 20  0  0  1  0  0  0  0  0999 V2000
    7.7805  -13.9514   13.5734 N   0  0  0  0  0  0  0  0  0  0  0  0
    8.3686  -14.7191   14.6064 C   0  0  0  0  0  0  0  0  0  0  0  0
    8.6230  -15.9401   14.3251 O   0  0  0  0  0  0  0  0  0  0  0  0
    8.6966  -14.2175   15.9462 C   0  0  0  0  0  0  0  0  0  0  0  0
    9.3447  -15.3163   16.7537 C   0  0  2  0  0  0  0  0  0  0  0  0
    8.4714  -16.4372   16.9632 N   0  0  0  0  0  0  0  0  0  0  0  0
    9.7676  -14.7951   18.0959 C   0  0  0  0  0  0  0  0  0  0  0  0
   10.7653  -14.0438   18.2069 O   0  0  0  0  0  0  0  0  0  0  0  0
    5.9976  -13.3589   20.3108 N   0  0  0  0  0  0  0  0  0  0  0  0
    7.3197  -13.1377   20.7830 C   0  0  0  0  0  0  0  0  0  0  0  0
    7.7643  -11.9675   20.6829 O   0  0  0  0  0  0  0  0  0  0  0  0
    8.1407  -14.1897   21.3572 C   0  0  0  0  0  0  0  0  0  0  0  0
    9.3047  -14.6655   20.5774 C   0  0  2  0  0  0  0  0  0  0  0  0
    9.0376  -15.1494   19.2554 N   0  0  0  0  0  0  0  0  0  0  0  0
   10.2967  -15.4661   21.3453 C   0  0  0  0  0  0  0  0  0  0  0  0
   10.6893  -14.9850   22.4373 O   0  0  0  0  0  0  0  0  0  0  0  0
   10.8262  -16.7071   20.9397 N   0  0  0  0  0  0  0  0  0  0  0  0
   11.8242  -17.4081   21.7654 C   0  0  0  0  0  0  0  0  0  0  0  0
   11.2537  -18.5709   22.4318 C   0  0  0  0  0  0  0  0  0  0  0  0
   10.0549  -18.8665   22.2612 O   0  0  0  0  0  0  0  0  0  0  0  0
   12.0226  -19.3637   23.2599 O   0  0  0  0  0  0  0  0  0  0  0  0
  2  3  2  0
  2  1  1  0
  4  2  1  0
  5  6  1  1
  5  4  1  0
  7  5  1  0
  7  8  2  0
  9 10  1  0
 10 12  1  0
 11 10  2  0
 13 12  1  1
 13 14  1  0
 13 15  1  0
 14  7  1  0
 15 16  2  0
 15 17  1  0
 17 18  1  0
 19 21  1  0
 19 18  1  0
 20 19  2  0
M  END
$$$$
