NNG.pdb
     RDKit          3D

 21 20  0  0  1  0  0  0  0  0999 V2000
    7.4880  -12.4640   19.1523 N   0  0  0  0  0  0  0  0  0  0  0  0
    7.9554  -13.5365   19.9483 C   0  0  0  0  0  0  0  0  0  0  0  0
    9.0852  -14.0339   19.6152 O   0  0  0  0  0  0  0  0  0  0  0  0
    7.2450  -14.1013   21.1018 C   0  0  0  0  0  0  0  0  0  0  0  0
    7.3500  -15.6071   21.0735 C   0  0  2  0  0  0  0  0  0  0  0  0
    6.8428  -16.1739   19.8552 N   0  0  0  0  0  0  0  0  0  0  0  0
    6.5872  -16.2032   22.2202 C   0  0  0  0  0  0  0  0  0  0  0  0
    5.9301  -15.4749   23.0013 O   0  0  0  0  0  0  0  0  0  0  0  0
    3.7102  -17.4523   21.6345 N   0  0  0  0  0  0  0  0  0  0  0  0
    4.0145  -18.7988   21.9725 C   0  0  0  0  0  0  0  0  0  0  0  0
    3.5585  -19.6867   21.2105 O   0  0  0  0  0  0  0  0  0  0  0  0
    4.8094  -19.1625   23.1328 C   0  0  0  0  0  0  0  0  0  0  0  0
    5.9401  -18.2828   23.5031 C   0  0  2  0  0  0  0  0  0  0  0  0
    6.6028  -17.6027   22.4300 N   0  0  0  0  0  0  0  0  0  0  0  0
    6.8466  -18.8243   24.5517 C   0  0  0  0  0  0  0  0  0  0  0  0
    6.3075  -19.4494   25.4987 O   0  0  0  0  0  0  0  0  0  0  0  0
    8.2485  -18.6845   24.5634 N   0  0  0  0  0  0  0  0  0  0  0  0
    9.0673  -19.3726   25.5759 C   0  0  0  0  0  0  0  0  0  0  0  0
    9.0951  -18.6423   26.8359 C   0  0  0  0  0  0  0  0  0  0  0  0
    9.7460  -19.0838   27.8029 O   0  0  0  0  0  0  0  0  0  0  0  0
    8.4065  -17.4551   26.9844 O   0  0  0  0  0  0  0  0  0  0  0  0
  2  3  2  0
  2  1  1  0
  4  2  1  0
  5  6  1  6
  5  4  1  0
  7  5  1  0
  7  8  2  0
  9 10  1  0
 10 12  1  0
 11 10  2  0
 13 12  1  6
 13 14  1  0
 13 15  1  0
 14  7  1  0
 15 16  2  0
 15 17  1  0
 17 18  1  0
 19 21  1  0
 19 18  1  0
 20 19  2  0
M  END
$$$$
