NNG.pdb
     RDKit          3D

 21 20  0  0  1  0  0  0  0  0999 V2000
    8.1718  -12.7492   17.9482 N   0  0  0  0  0  0  0  0  0  0  0  0
    7.6706  -13.6860   18.8828 C   0  0  0  0  0  0  0  0  0  0  0  0
    7.3547  -14.8333   18.4154 O   0  0  0  0  0  0  0  0  0  0  0  0
    7.4935  -13.4320   20.3176 C   0  0  0  0  0  0  0  0  0  0  0  0
    8.6679  -13.9961   21.0804 C   0  0  2  0  0  0  0  0  0  0  0  0
    8.7057  -15.4317   21.0548 N   0  0  0  0  0  0  0  0  0  0  0  0
    8.6174  -13.5548   22.5138 C   0  0  0  0  0  0  0  0  0  0  0  0
    8.4158  -12.3526   22.8081 O   0  0  0  0  0  0  0  0  0  0  0  0
    6.2703  -13.1337   27.0836 N   0  0  0  0  0  0  0  0  0  0  0  0
    5.9868  -14.0955   26.0764 C   0  0  0  0  0  0  0  0  0  0  0  0
    5.0821  -14.9280   26.3324 O   0  0  0  0  0  0  0  0  0  0  0  0
    6.6893  -14.1403   24.8056 C   0  0  0  0  0  0  0  0  0  0  0  0
    8.1327  -14.4652   24.8214 C   0  0  2  0  0  0  0  0  0  0  0  0
    8.7974  -14.4990   23.5525 N   0  0  0  0  0  0  0  0  0  0  0  0
    8.5273  -15.5502   25.7605 C   0  0  0  0  0  0  0  0  0  0  0  0
    8.2339  -15.3860   26.9709 O   0  0  0  0  0  0  0  0  0  0  0  0
    9.2029  -16.7319   25.3970 N   0  0  0  0  0  0  0  0  0  0  0  0
   10.5432  -17.0295   25.9300 C   0  0  0  0  0  0  0  0  0  0  0  0
   11.0591  -18.2928   25.4207 C   0  0  0  0  0  0  0  0  0  0  0  0
   10.4122  -18.9390   24.5736 O   0  0  0  0  0  0  0  0  0  0  0  0
   12.2660  -18.7972   25.8620 O   0  0  0  0  0  0  0  0  0  0  0  0
  2  3  2  0
  2  1  1  0
  4  2  1  0
  5  6  1  1
  5  4  1  0
  7  5  1  0
  7  8  2  0
  9 10  1  0
 10 12  1  0
 11 10  2  0
 13 12  1  6
 13 14  1  0
 13 15  1  0
 14  7  1  0
 15 16  2  0
 15 17  1  0
 17 18  1  0
 19 21  1  0
 19 18  1  0
 20 19  2  0
M  END
$$$$
