NNG.pdb
     RDKit          3D

 21 20  0  0  1  0  0  0  0  0999 V2000
    8.0252  -12.2903   16.9648 N   0  0  0  0  0  0  0  0  0  0  0  0
    7.6591  -13.4307   17.7182 C   0  0  0  0  0  0  0  0  0  0  0  0
    7.4529  -14.5026   17.0525 O   0  0  0  0  0  0  0  0  0  0  0  0
    7.5039  -13.4619   19.1774 C   0  0  0  0  0  0  0  0  0  0  0  0
    8.7193  -14.1034   19.8023 C   0  0  2  0  0  0  0  0  0  0  0  0
    8.8959  -15.4688   19.3930 N   0  0  0  0  0  0  0  0  0  0  0  0
    8.6117  -14.0736   21.2988 C   0  0  0  0  0  0  0  0  0  0  0  0
    8.8291  -13.0160   21.9366 O   0  0  0  0  0  0  0  0  0  0  0  0
    6.4635  -17.4629   21.9980 N   0  0  0  0  0  0  0  0  0  0  0  0
    6.4861  -17.2194   23.3981 C   0  0  0  0  0  0  0  0  0  0  0  0
    6.0929  -18.1547   24.1380 O   0  0  0  0  0  0  0  0  0  0  0  0
    6.9350  -15.9640   23.9752 C   0  0  0  0  0  0  0  0  0  0  0  0
    8.1688  -15.3528   23.4334 C   0  0  2  0  0  0  0  0  0  0  0  0
    8.2604  -15.2472   22.0073 N   0  0  0  0  0  0  0  0  0  0  0  0
    9.4289  -15.7641   24.1098 C   0  0  0  0  0  0  0  0  0  0  0  0
    9.4228  -15.7657   25.3661 O   0  0  0  0  0  0  0  0  0  0  0  0
   10.6164  -16.1422   23.4527 N   0  0  0  0  0  0  0  0  0  0  0  0
   11.8771  -16.2931   24.1993 C   0  0  0  0  0  0  0  0  0  0  0  0
   13.0390  -16.1026   23.3419 C   0  0  0  0  0  0  0  0  0  0  0  0
   12.8903  -15.8372   22.1332 O   0  0  0  0  0  0  0  0  0  0  0  0
   14.3195  -16.2111   23.8461 O   0  0  0  0  0  0  0  0  0  0  0  0
  2  3  2  0
  2  1  1  0
  4  2  1  0
  5  6  1  6
  5  4  1  0
  7  5  1  0
  7  8  2  0
  9 10  1  0
 10 12  1  0
 11 10  2  0
 13 12  1  6
 13 14  1  0
 13 15  1  0
 14  7  1  0
 15 16  2  0
 15 17  1  0
 17 18  1  0
 19 21  1  0
 19 18  1  0
 20 19  2  0
M  END
$$$$
