NNG.pdb
     RDKit          3D

 21 20  0  0  1  0  0  0  0  0999 V2000
    6.7467  -12.1664   18.1730 N   0  0  0  0  0  0  0  0  0  0  0  0
    7.7804  -13.0970   18.4329 C   0  0  0  0  0  0  0  0  0  0  0  0
    8.7061  -13.1700   17.5540 O   0  0  0  0  0  0  0  0  0  0  0  0
    7.8566  -13.9627   19.6157 C   0  0  0  0  0  0  0  0  0  0  0  0
    9.1774  -14.6940   19.6238 C   0  0  2  0  0  0  0  0  0  0  0  0
    9.4146  -15.4204   18.4076 N   0  0  0  0  0  0  0  0  0  0  0  0
    9.2270  -15.6655   20.7665 C   0  0  0  0  0  0  0  0  0  0  0  0
    8.9092  -15.3088   21.9259 O   0  0  0  0  0  0  0  0  0  0  0  0
    8.5002  -20.0112   19.0789 N   0  0  0  0  0  0  0  0  0  0  0  0
    8.4675  -19.7019   20.4657 C   0  0  0  0  0  0  0  0  0  0  0  0
    7.3400  -19.7151   21.0185 O   0  0  0  0  0  0  0  0  0  0  0  0
    9.6591  -19.3824   21.2329 C   0  0  0  0  0  0  0  0  0  0  0  0
    9.9080  -17.9633   21.5698 C   0  0  2  0  0  0  0  0  0  0  0  0
    9.6350  -17.0020   20.5428 N   0  0  0  0  0  0  0  0  0  0  0  0
   11.1489  -17.7060   22.3500 C   0  0  0  0  0  0  0  0  0  0  0  0
   12.0845  -17.1213   21.7492 O   0  0  0  0  0  0  0  0  0  0  0  0
   11.3514  -18.0708   23.6957 N   0  0  0  0  0  0  0  0  0  0  0  0
   12.6066  -17.7335   24.3885 C   0  0  0  0  0  0  0  0  0  0  0  0
   12.6629  -18.3194   25.7208 C   0  0  0  0  0  0  0  0  0  0  0  0
   13.7139  -18.2609   26.3882 O   0  0  0  0  0  0  0  0  0  0  0  0
   11.5618  -18.9468   26.2682 O   0  0  0  0  0  0  0  0  0  0  0  0
  2  3  2  0
  2  1  1  0
  4  2  1  0
  5  6  1  6
  5  4  1  0
  7  5  1  0
  7  8  2  0
  9 10  1  0
 10 12  1  0
 11 10  2  0
 13 12  1  6
 13 14  1  0
 13 15  1  0
 14  7  1  0
 15 16  2  0
 15 17  1  0
 17 18  1  0
 19 21  1  0
 19 18  1  0
 20 19  2  0
M  END
$$$$
