NNG.pdb
     RDKit          3D

 21 20  0  0  1  0  0  0  0  0999 V2000
    9.1226  -15.6600   18.1222 N   0  0  0  0  0  0  0  0  0  0  0  0
    8.0961  -15.7246   19.0940 C   0  0  0  0  0  0  0  0  0  0  0  0
    7.1562  -16.5607   18.8652 O   0  0  0  0  0  0  0  0  0  0  0  0
    8.0413  -14.9140   20.3164 C   0  0  0  0  0  0  0  0  0  0  0  0
    8.3944  -15.7706   21.5084 C   0  0  2  0  0  0  0  0  0  0  0  0
    7.4134  -16.7868   21.7689 N   0  0  0  0  0  0  0  0  0  0  0  0
    8.5265  -14.9212   22.7384 C   0  0  0  0  0  0  0  0  0  0  0  0
    9.4203  -14.0456   22.8202 O   0  0  0  0  0  0  0  0  0  0  0  0
    7.8688  -12.5261   27.3071 N   0  0  0  0  0  0  0  0  0  0  0  0
    6.6784  -12.6439   26.5395 C   0  0  0  0  0  0  0  0  0  0  0  0
    5.7323  -11.8778   26.8478 O   0  0  0  0  0  0  0  0  0  0  0  0
    6.5317  -13.5915   25.4482 C   0  0  0  0  0  0  0  0  0  0  0  0
    7.7084  -14.4068   25.0740 C   0  0  2  0  0  0  0  0  0  0  0  0
    7.6362  -15.1025   23.8234 N   0  0  0  0  0  0  0  0  0  0  0  0
    8.3186  -15.1855   26.1858 C   0  0  0  0  0  0  0  0  0  0  0  0
    8.5539  -14.5625   27.2511 O   0  0  0  0  0  0  0  0  0  0  0  0
    8.6533  -16.5530   26.1304 N   0  0  0  0  0  0  0  0  0  0  0  0
    9.1770  -17.2505   27.3171 C   0  0  0  0  0  0  0  0  0  0  0  0
   10.6269  -17.3819   27.2707 C   0  0  0  0  0  0  0  0  0  0  0  0
   11.3424  -16.3780   27.0864 O   0  0  0  0  0  0  0  0  0  0  0  0
   11.2345  -18.6113   27.4288 O   0  0  0  0  0  0  0  0  0  0  0  0
  2  3  2  0
  2  1  1  0
  4  2  1  0
  5  6  1  1
  5  4  1  0
  7  5  1  0
  7  8  2  0
  9 10  1  0
 10 12  1  0
 11 10  2  0
 13 12  1  1
 13 14  1  0
 13 15  1  0
 14  7  1  0
 15 16  2  0
 15 17  1  0
 17 18  1  0
 19 21  1  0
 19 18  1  0
 20 19  2  0
M  END
$$$$
