NNG.pdb
     RDKit          3D

 21 20  0  0  1  0  0  0  0  0999 V2000
   15.1362  -17.1694   16.1955 N   0  0  0  0  0  0  0  0  0  0  0  0
   15.3107  -17.1179   17.5987 C   0  0  0  0  0  0  0  0  0  0  0  0
   16.1907  -17.9072   18.0858 O   0  0  0  0  0  0  0  0  0  0  0  0
   14.5653  -16.2399   18.5085 C   0  0  0  0  0  0  0  0  0  0  0  0
   13.5475  -15.4460   17.7254 C   0  0  2  0  0  0  0  0  0  0  0  0
   14.1522  -14.5745   16.7570 N   0  0  0  0  0  0  0  0  0  0  0  0
   12.7150  -14.6097   18.6524 C   0  0  0  0  0  0  0  0  0  0  0  0
   12.8311  -13.3612   18.6687 O   0  0  0  0  0  0  0  0  0  0  0  0
    8.2241  -12.0365   19.5354 N   0  0  0  0  0  0  0  0  0  0  0  0
    8.4477  -13.4242   19.3254 C   0  0  0  0  0  0  0  0  0  0  0  0
    7.4643  -14.1852   19.5010 O   0  0  0  0  0  0  0  0  0  0  0  0
    9.7354  -13.9665   18.9279 C   0  0  0  0  0  0  0  0  0  0  0  0
   10.5518  -14.6438   19.9594 C   0  0  2  0  0  0  0  0  0  0  0  0
   11.7847  -15.2279   19.5214 N   0  0  0  0  0  0  0  0  0  0  0  0
    9.7850  -15.4655   20.9348 C   0  0  0  0  0  0  0  0  0  0  0  0
    9.3098  -16.5491   20.5125 O   0  0  0  0  0  0  0  0  0  0  0  0
    9.5506  -15.1191   22.2802 N   0  0  0  0  0  0  0  0  0  0  0  0
   10.6484  -15.1198   23.2621 C   0  0  0  0  0  0  0  0  0  0  0  0
   10.9620  -16.4660   23.7212 C   0  0  0  0  0  0  0  0  0  0  0  0
   10.4290  -17.4540   23.1795 O   0  0  0  0  0  0  0  0  0  0  0  0
   11.8493  -16.6745   24.7580 O   0  0  0  0  0  0  0  0  0  0  0  0
  2  3  2  0
  2  1  1  0
  4  2  1  0
  5  6  1  6
  5  4  1  0
  7  5  1  0
  7  8  2  0
  9 10  1  0
 10 12  1  0
 11 10  2  0
 13 12  1  6
 13 14  1  0
 13 15  1  0
 14  7  1  0
 15 16  2  0
 15 17  1  0
 17 18  1  0
 19 21  1  0
 19 18  1  0
 20 19  2  0
M  END
$$$$
