NNG.pdb
     RDKit          3D

 21 20  0  0  1  0  0  0  0  0999 V2000
    3.1072  -19.0462   21.1921 N   0  0  0  0  0  0  0  0  0  0  0  0
    4.1444  -18.1765   20.7797 C   0  0  0  0  0  0  0  0  0  0  0  0
    4.7208  -18.4710   19.6771 O   0  0  0  0  0  0  0  0  0  0  0  0
    4.5908  -16.9887   21.5175 C   0  0  0  0  0  0  0  0  0  0  0  0
    6.0975  -16.9890   21.6137 C   0  0  2  0  0  0  0  0  0  0  0  0
    6.6570  -18.3087   21.5234 N   0  0  0  0  0  0  0  0  0  0  0  0
    6.5356  -16.3828   22.9147 C   0  0  0  0  0  0  0  0  0  0  0  0
    6.1387  -15.2438   23.2575 O   0  0  0  0  0  0  0  0  0  0  0  0
    8.0643  -19.0465   27.5212 N   0  0  0  0  0  0  0  0  0  0  0  0
    7.2045  -18.4558   26.5559 C   0  0  0  0  0  0  0  0  0  0  0  0
    6.4061  -19.2262   25.9676 O   0  0  0  0  0  0  0  0  0  0  0  0
    7.2235  -17.0374   26.2427 C   0  0  0  0  0  0  0  0  0  0  0  0
    7.9260  -16.6072   25.0136 C   0  0  2  0  0  0  0  0  0  0  0  0
    7.4060  -17.0975   23.7716 N   0  0  0  0  0  0  0  0  0  0  0  0
    9.4113  -16.5937   25.1051 C   0  0  0  0  0  0  0  0  0  0  0  0
    9.9091  -16.1496   26.1696 O   0  0  0  0  0  0  0  0  0  0  0  0
   10.2904  -17.0321   24.0952 N   0  0  0  0  0  0  0  0  0  0  0  0
   11.7382  -16.7795   24.1928 C   0  0  0  0  0  0  0  0  0  0  0  0
   12.2361  -16.0376   23.0425 C   0  0  0  0  0  0  0  0  0  0  0  0
   11.5212  -15.8929   22.0317 O   0  0  0  0  0  0  0  0  0  0  0  0
   13.5004  -15.4833   23.0475 O   0  0  0  0  0  0  0  0  0  0  0  0
  2  3  2  0
  2  1  1  0
  4  2  1  0
  5  6  1  1
  5  4  1  0
  7  5  1  0
  7  8  2  0
  9 10  1  0
 10 12  1  0
 11 10  2  0
 13 12  1  1
 13 14  1  0
 13 15  1  0
 14  7  1  0
 15 16  2  0
 15 17  1  0
 17 18  1  0
 19 21  1  0
 19 18  1  0
 20 19  2  0
M  END
$$$$
