NSQ.pdb
     RDKit          3D

 24 23  0  0  1  0  0  0  0  0999 V2000
    9.3623  -14.9210   15.8410 N   0  0  0  0  0  0  0  0  0  0  0  0
    8.3489  -13.9566   16.1393 C   0  0  0  0  0  0  0  0  0  0  0  0
    7.7826  -13.3912   15.1763 O   0  0  0  0  0  0  0  0  0  0  0  0
    7.9570  -13.6133   17.5204 C   0  0  0  0  0  0  0  0  0  0  0  0
    8.6989  -14.4766   18.4836 C   0  0  2  0  0  0  0  0  0  0  0  0
    8.7223  -15.8565   18.1040 N   0  0  0  0  0  0  0  0  0  0  0  0
    8.2029  -14.2968   19.8927 C   0  0  0  0  0  0  0  0  0  0  0  0
    8.1986  -13.1692   20.4426 O   0  0  0  0  0  0  0  0  0  0  0  0
    6.6053  -17.5038   22.1252 O   0  0  0  0  0  0  0  0  0  0  0  0
    6.1498  -16.2168   22.3273 C   0  0  0  0  0  0  0  0  0  0  0  0
    7.3160  -15.2602   22.0378 C   0  0  2  0  0  0  0  0  0  0  0  0
    7.7223  -15.3843   20.6554 N   0  0  0  0  0  0  0  0  0  0  0  0
    8.4443  -15.5028   22.9688 C   0  0  0  0  0  0  0  0  0  0  0  0
    9.5481  -15.9002   22.4565 O   0  0  0  0  0  0  0  0  0  0  0  0
   10.5609  -14.6271   30.0611 N   0  0  0  0  0  0  0  0  0  0  0  0
   10.0635  -14.2641   28.7816 C   0  0  0  0  0  0  0  0  0  0  0  0
    9.3440  -13.2044   28.7397 O   0  0  0  0  0  0  0  0  0  0  0  0
   10.3512  -15.0441   27.5550 C   0  0  0  0  0  0  0  0  0  0  0  0
    9.3706  -14.9072   26.4615 C   0  0  0  0  0  0  0  0  0  0  0  0
    9.5925  -15.7014   25.2092 C   0  0  2  0  0  0  0  0  0  0  0  0
    8.4295  -15.3411   24.3558 N   0  0  0  0  0  0  0  0  0  0  0  0
    9.8051  -17.1186   25.3044 C   0  0  0  0  0  0  0  0  0  0  0  0
   11.0602  -17.6786   25.4763 O   0  0  0  0  0  0  0  0  0  0  0  0
    8.8383  -17.9450   25.2279 O   0  0  0  0  0  0  0  0  0  0  0  0
  2  1  1  0
  2  3  2  0
  4  2  1  0
  5  4  1  0
  5  6  1  6
  7  8  2  0
  7  5  1  0
  9 10  1  0
 11 10  1  1
 11 12  1  0
 12  7  1  0
 13 11  1  0
 13 21  1  0
 14 13  2  0
 16 17  2  0
 16 15  1  0
 18 16  1  0
 20 19  1  1
 19 18  1  0
 20 21  1  0
 20 22  1  0
 22 23  1  0
 24 22  2  0
M  END
$$$$
