NSQ.pdb
     RDKit          3D

 24 23  0  0  1  0  0  0  0  0999 V2000
    9.0212  -11.6063   18.1006 N   0  0  0  0  0  0  0  0  0  0  0  0
    9.6733  -12.6142   18.8785 C   0  0  0  0  0  0  0  0  0  0  0  0
   10.8326  -12.9482   18.5434 O   0  0  0  0  0  0  0  0  0  0  0  0
    9.0349  -13.2607   20.0418 C   0  0  0  0  0  0  0  0  0  0  0  0
    8.8800  -14.7213   19.7839 C   0  0  2  0  0  0  0  0  0  0  0  0
    8.0439  -15.0111   18.6589 N   0  0  0  0  0  0  0  0  0  0  0  0
    8.4315  -15.4620   21.0144 C   0  0  0  0  0  0  0  0  0  0  0  0
    7.2263  -15.4765   21.3625 O   0  0  0  0  0  0  0  0  0  0  0  0
   10.8791  -18.1979   22.9179 O   0  0  0  0  0  0  0  0  0  0  0  0
    9.5073  -18.2816   23.0439 C   0  0  0  0  0  0  0  0  0  0  0  0
    8.9524  -16.8494   23.0442 C   0  0  2  0  0  0  0  0  0  0  0  0
    9.3429  -16.1704   21.8284 N   0  0  0  0  0  0  0  0  0  0  0  0
    9.3900  -16.1115   24.2535 C   0  0  0  0  0  0  0  0  0  0  0  0
   10.5808  -15.6416   24.2511 O   0  0  0  0  0  0  0  0  0  0  0  0
    6.1165  -11.2459   25.9114 N   0  0  0  0  0  0  0  0  0  0  0  0
    6.4399  -12.5127   26.4654 C   0  0  0  0  0  0  0  0  0  0  0  0
    5.6289  -12.9611   27.3506 O   0  0  0  0  0  0  0  0  0  0  0  0
    7.6333  -13.2895   26.0559 C   0  0  0  0  0  0  0  0  0  0  0  0
    8.1324  -14.2680   27.0405 C   0  0  0  0  0  0  0  0  0  0  0  0
    9.2077  -15.2198   26.6091 C   0  0  2  0  0  0  0  0  0  0  0  0
    8.6337  -15.8726   25.4029 N   0  0  0  0  0  0  0  0  0  0  0  0
    9.7391  -16.1569   27.5591 C   0  0  0  0  0  0  0  0  0  0  0  0
    9.5988  -17.5276   27.4191 O   0  0  0  0  0  0  0  0  0  0  0  0
   10.3694  -15.7702   28.5966 O   0  0  0  0  0  0  0  0  0  0  0  0
  2  1  1  0
  2  3  2  0
  4  2  1  0
  5  4  1  0
  5  6  1  6
  7  8  2  0
  7  5  1  0
  9 10  1  0
 11 10  1  6
 11 12  1  0
 12  7  1  0
 13 11  1  0
 13 21  1  0
 14 13  2  0
 16 17  2  0
 16 15  1  0
 18 16  1  0
 20 19  1  1
 19 18  1  0
 20 21  1  0
 20 22  1  0
 22 23  1  0
 24 22  2  0
M  END
$$$$
