NSQ.pdb
     RDKit          3D

 24 23  0  0  1  0  0  0  0  0999 V2000
   11.4593  -17.8687   15.8309 N   0  0  0  0  0  0  0  0  0  0  0  0
   10.1690  -17.5350   16.3505 C   0  0  0  0  0  0  0  0  0  0  0  0
    9.1849  -18.1796   15.9218 O   0  0  0  0  0  0  0  0  0  0  0  0
    9.9648  -16.4748   17.3571 C   0  0  0  0  0  0  0  0  0  0  0  0
    9.5561  -17.0847   18.6549 C   0  0  2  0  0  0  0  0  0  0  0  0
    8.3343  -17.8256   18.5715 N   0  0  0  0  0  0  0  0  0  0  0  0
    9.5137  -16.0670   19.7624 C   0  0  0  0  0  0  0  0  0  0  0  0
   10.4835  -15.3018   19.9810 O   0  0  0  0  0  0  0  0  0  0  0  0
    6.1711  -15.7233   22.2999 O   0  0  0  0  0  0  0  0  0  0  0  0
    6.9091  -14.5926   22.0141 C   0  0  0  0  0  0  0  0  0  0  0  0
    8.3534  -15.0375   21.7398 C   0  0  2  0  0  0  0  0  0  0  0  0
    8.3857  -15.9287   20.6011 N   0  0  0  0  0  0  0  0  0  0  0  0
    8.9546  -15.6588   22.9443 C   0  0  0  0  0  0  0  0  0  0  0  0
    9.1606  -16.9218   22.9081 O   0  0  0  0  0  0  0  0  0  0  0  0
    6.5837  -18.3128   26.6038 N   0  0  0  0  0  0  0  0  0  0  0  0
    7.8558  -18.4007   27.2286 C   0  0  0  0  0  0  0  0  0  0  0  0
    7.9484  -19.2355   28.1966 O   0  0  0  0  0  0  0  0  0  0  0  0
    9.0207  -17.5914   26.8004 C   0  0  0  0  0  0  0  0  0  0  0  0
    8.7448  -16.5511   25.7915 C   0  0  0  0  0  0  0  0  0  0  0  0
    9.8952  -15.7328   25.2868 C   0  0  2  0  0  0  0  0  0  0  0  0
    9.3234  -15.0061   24.1225 N   0  0  0  0  0  0  0  0  0  0  0  0
   11.1421  -16.3812   24.9904 C   0  0  0  0  0  0  0  0  0  0  0  0
   11.6494  -16.4793   23.7054 O   0  0  0  0  0  0  0  0  0  0  0  0
   11.8519  -16.9124   25.9055 O   0  0  0  0  0  0  0  0  0  0  0  0
  2  1  1  0
  2  3  2  0
  4  2  1  0
  5  4  1  0
  5  6  1  6
  7  8  2  0
  7  5  1  0
  9 10  1  0
 11 10  1  1
 11 12  1  0
 12  7  1  0
 13 11  1  0
 13 21  1  0
 14 13  2  0
 16 17  2  0
 16 15  1  0
 18 16  1  0
 20 19  1  6
 19 18  1  0
 20 21  1  0
 20 22  1  0
 22 23  1  0
 24 22  2  0
M  END
$$$$
