NSQ.pdb
     RDKit          3D

 24 23  0  0  1  0  0  0  0  0999 V2000
    9.1706  -17.5423   11.9971 N   0  0  0  0  0  0  0  0  0  0  0  0
    8.8632  -16.1640   12.2253 C   0  0  0  0  0  0  0  0  0  0  0  0
    8.2356  -15.5524   11.3310 O   0  0  0  0  0  0  0  0  0  0  0  0
    9.2552  -15.4535   13.4583 C   0  0  0  0  0  0  0  0  0  0  0  0
   10.0992  -16.3440   14.3058 C   0  0  2  0  0  0  0  0  0  0  0  0
    9.5166  -17.6326   14.5269 N   0  0  0  0  0  0  0  0  0  0  0  0
   10.4875  -15.6810   15.5996 C   0  0  0  0  0  0  0  0  0  0  0  0
   11.1312  -14.6043   15.6119 O   0  0  0  0  0  0  0  0  0  0  0  0
   10.1985  -15.7001   20.4355 O   0  0  0  0  0  0  0  0  0  0  0  0
    9.7298  -16.2454   19.2575 C   0  0  0  0  0  0  0  0  0  0  0  0
   10.5773  -15.6737   18.1112 C   0  0  2  0  0  0  0  0  0  0  0  0
   10.1462  -16.2388   16.8516 N   0  0  0  0  0  0  0  0  0  0  0  0
   12.0218  -15.9037   18.3540 C   0  0  0  0  0  0  0  0  0  0  0  0
   12.5044  -17.0284   17.9789 O   0  0  0  0  0  0  0  0  0  0  0  0
   18.4081  -12.8215   18.7262 N   0  0  0  0  0  0  0  0  0  0  0  0
   17.2438  -13.1513   17.9833 C   0  0  0  0  0  0  0  0  0  0  0  0
   16.9079  -12.3188   17.0686 O   0  0  0  0  0  0  0  0  0  0  0  0
   16.4534  -14.3803   18.2288 C   0  0  0  0  0  0  0  0  0  0  0  0
   15.1031  -14.1756   18.7862 C   0  0  0  0  0  0  0  0  0  0  0  0
   14.3315  -15.3817   19.2314 C   0  0  2  0  0  0  0  0  0  0  0  0
   12.9179  -15.0153   18.9523 N   0  0  0  0  0  0  0  0  0  0  0  0
   14.5305  -15.8924   20.5590 C   0  0  0  0  0  0  0  0  0  0  0  0
   15.2284  -17.0607   20.8161 O   0  0  0  0  0  0  0  0  0  0  0  0
   14.0635  -15.2927   21.5816 O   0  0  0  0  0  0  0  0  0  0  0  0
  2  1  1  0
  2  3  2  0
  4  2  1  0
  5  4  1  0
  5  6  1  1
  7  8  2  0
  7  5  1  0
  9 10  1  0
 11 10  1  1
 11 12  1  0
 12  7  1  0
 13 11  1  0
 13 21  1  0
 14 13  2  0
 16 17  2  0
 16 15  1  0
 18 16  1  0
 20 19  1  1
 19 18  1  0
 20 21  1  0
 20 22  1  0
 22 23  1  0
 24 22  2  0
M  END
$$$$
