DEQ.pdb
     RDKit          3D

 27 26  0  0  1  0  0  0  0  0999 V2000
   10.0886  -12.7449   19.1294 N   0  0  0  0  0  0  0  0  0  0  0  0
    8.7846  -13.0501   19.6544 C   0  0  1  0  0  0  0  0  0  0  0  0
    7.8575  -13.2219   18.4557 C   0  0  0  0  0  0  0  0  0  0  0  0
    8.3014  -14.3681   17.6513 C   0  0  0  0  0  0  0  0  0  0  0  0
    9.4489  -14.3697   17.1489 O   0  0  0  0  0  0  0  0  0  0  0  0
    8.7544  -14.2053   20.5503 C   0  0  0  0  0  0  0  0  0  0  0  0
    7.6493  -14.5916   20.9902 O   0  0  0  0  0  0  0  0  0  0  0  0
    7.5013  -15.4845   17.4068 O   0  0  0  0  0  0  0  0  0  0  0  0
    9.9157  -14.8891   20.9294 N   0  0  0  0  0  0  0  0  0  0  0  0
    9.9304  -16.0304   21.8553 C   0  0  1  0  0  0  0  0  0  0  0  0
   11.0000  -16.9883   21.5176 C   0  0  0  0  0  0  0  0  0  0  0  0
   10.7051  -17.7647   20.2744 C   0  0  0  0  0  0  0  0  0  0  0  0
   11.7732  -18.7047   19.8644 C   0  0  0  0  0  0  0  0  0  0  0  0
   11.7170  -19.3896   18.8312 O   0  0  0  0  0  0  0  0  0  0  0  0
   10.0733  -15.5069   23.2315 C   0  0  0  0  0  0  0  0  0  0  0  0
   10.9404  -14.6664   23.5747 O   0  0  0  0  0  0  0  0  0  0  0  0
   12.9317  -18.8637   20.6554 O   0  0  0  0  0  0  0  0  0  0  0  0
    5.9790  -12.6062   25.8851 N   0  0  0  0  0  0  0  0  0  0  0  0
    6.8572  -12.7159   26.9912 C   0  0  0  0  0  0  0  0  0  0  0  0
    6.7295  -12.0070   28.0059 O   0  0  0  0  0  0  0  0  0  0  0  0
    7.9741  -13.7051   26.9569 C   0  0  0  0  0  0  0  0  0  0  0  0
    8.0566  -14.3882   25.6326 C   0  0  0  0  0  0  0  0  0  0  0  0
    9.2169  -15.3233   25.5715 C   0  0  2  0  0  0  0  0  0  0  0  0
    9.1892  -15.9634   24.2552 N   0  0  0  0  0  0  0  0  0  0  0  0
    9.2562  -16.3520   26.6275 C   0  0  0  0  0  0  0  0  0  0  0  0
    9.5608  -15.9445   27.9467 O   0  0  0  0  0  0  0  0  0  0  0  0
    9.0389  -17.5692   26.4449 O   0  0  0  0  0  0  0  0  0  0  0  0
  2  1  1  6
  3  2  1  0
  4  3  1  0
  5  4  2  0
  6  7  2  0
  6  2  1  0
  8  4  1  0
  9  6  1  0
 10 11  1  6
 10  9  1  0
 11 12  1  0
 13 17  1  0
 13 12  1  0
 14 13  2  0
 15 10  1  0
 15 16  2  0
 19 18  1  0
 20 19  2  0
 21 19  1  0
 22 21  1  0
 23 22  1  1
 23 24  1  0
 24 15  1  0
 25 23  1  0
 26 25  1  0
 27 25  2  0
M  END
$$$$
