DEQ.pdb
     RDKit          3D

 27 26  0  0  1  0  0  0  0  0999 V2000
   13.7628  -19.0248   19.4277 N   0  0  0  0  0  0  0  0  0  0  0  0
   13.9200  -17.5956   19.4659 C   0  0  1  0  0  0  0  0  0  0  0  0
   14.3959  -17.1687   18.0812 C   0  0  0  0  0  0  0  0  0  0  0  0
   15.7302  -17.7275   17.8262 C   0  0  0  0  0  0  0  0  0  0  0  0
   16.7248  -17.2675   18.4330 O   0  0  0  0  0  0  0  0  0  0  0  0
   12.7222  -16.8718   19.8894 C   0  0  0  0  0  0  0  0  0  0  0  0
   12.7886  -15.6295   20.0171 O   0  0  0  0  0  0  0  0  0  0  0  0
   15.9629  -18.7671   16.9253 O   0  0  0  0  0  0  0  0  0  0  0  0
   11.5103  -17.5205   20.1550 N   0  0  0  0  0  0  0  0  0  0  0  0
   10.3669  -16.8820   20.8220 C   0  0  1  0  0  0  0  0  0  0  0  0
    9.1487  -16.9507   19.9934 C   0  0  0  0  0  0  0  0  0  0  0  0
    9.3333  -17.7866   18.7677 C   0  0  0  0  0  0  0  0  0  0  0  0
    8.1414  -17.8741   17.8935 C   0  0  0  0  0  0  0  0  0  0  0  0
    7.2288  -18.6966   18.0678 O   0  0  0  0  0  0  0  0  0  0  0  0
   10.1769  -17.5328   22.1369 C   0  0  0  0  0  0  0  0  0  0  0  0
    9.9895  -18.7649   22.2881 O   0  0  0  0  0  0  0  0  0  0  0  0
    7.9915  -17.0001   16.7950 O   0  0  0  0  0  0  0  0  0  0  0  0
   14.3201  -19.3024   24.1607 N   0  0  0  0  0  0  0  0  0  0  0  0
   13.6762  -19.3906   25.4194 C   0  0  0  0  0  0  0  0  0  0  0  0
   14.1614  -20.0411   26.3628 O   0  0  0  0  0  0  0  0  0  0  0  0
   12.3772  -18.6897   25.6394 C   0  0  0  0  0  0  0  0  0  0  0  0
   11.9055  -18.0133   24.3955 C   0  0  0  0  0  0  0  0  0  0  0  0
   10.5788  -17.3623   24.5969 C   0  0  2  0  0  0  0  0  0  0  0  0
   10.2023  -16.7423   23.3254 N   0  0  0  0  0  0  0  0  0  0  0  0
   10.5237  -16.3606   25.6778 C   0  0  0  0  0  0  0  0  0  0  0  0
   10.4881  -16.8205   27.0144 O   0  0  0  0  0  0  0  0  0  0  0  0
   10.5059  -15.1232   25.5023 O   0  0  0  0  0  0  0  0  0  0  0  0
  2  1  1  6
  3  2  1  0
  4  3  1  0
  5  4  2  0
  6  7  2  0
  6  2  1  0
  8  4  1  0
  9  6  1  0
 10 11  1  6
 10  9  1  0
 11 12  1  0
 13 17  1  0
 13 12  1  0
 14 13  2  0
 15 10  1  0
 15 16  2  0
 19 18  1  0
 20 19  2  0
 21 19  1  0
 22 21  1  0
 23 22  1  6
 23 24  1  0
 24 15  1  0
 25 23  1  0
 26 25  1  0
 27 25  2  0
M  END
$$$$
