DEQ.pdb
     RDKit          3D

 27 26  0  0  1  0  0  0  0  0999 V2000
   14.8134  -15.6460   17.0471 N   0  0  0  0  0  0  0  0  0  0  0  0
   15.0682  -14.7917   18.1758 C   0  0  1  0  0  0  0  0  0  0  0  0
   15.7001  -13.5163   17.6277 C   0  0  0  0  0  0  0  0  0  0  0  0
   17.0295  -13.8215   17.0825 C   0  0  0  0  0  0  0  0  0  0  0  0
   17.4383  -15.0054   17.0634 O   0  0  0  0  0  0  0  0  0  0  0  0
   13.8911  -14.5191   18.9992 C   0  0  0  0  0  0  0  0  0  0  0  0
   14.0191  -13.7768   19.9976 O   0  0  0  0  0  0  0  0  0  0  0  0
   17.8868  -12.8469   16.5712 O   0  0  0  0  0  0  0  0  0  0  0  0
   12.6326  -15.0589   18.7081 N   0  0  0  0  0  0  0  0  0  0  0  0
   11.4498  -14.8909   19.5641 C   0  0  1  0  0  0  0  0  0  0  0  0
   10.1995  -15.0432   18.7967 C   0  0  0  0  0  0  0  0  0  0  0  0
   10.1408  -14.1388   17.6076 C   0  0  0  0  0  0  0  0  0  0  0  0
    8.9888  -14.3744   16.7077 C   0  0  0  0  0  0  0  0  0  0  0  0
    7.8441  -13.9581   16.9446 O   0  0  0  0  0  0  0  0  0  0  0  0
   11.5392  -15.8671   20.6720 C   0  0  0  0  0  0  0  0  0  0  0  0
   12.3225  -16.8481   20.6798 O   0  0  0  0  0  0  0  0  0  0  0  0
    9.1515  -15.1032   15.5096 O   0  0  0  0  0  0  0  0  0  0  0  0
   15.0153  -17.0186   25.0501 N   0  0  0  0  0  0  0  0  0  0  0  0
   14.7473  -16.5003   23.7592 C   0  0  0  0  0  0  0  0  0  0  0  0
   15.5559  -15.7648   23.1644 O   0  0  0  0  0  0  0  0  0  0  0  0
   13.4630  -16.8350   23.0768 C   0  0  0  0  0  0  0  0  0  0  0  0
   12.3647  -15.9188   23.5027 C   0  0  0  0  0  0  0  0  0  0  0  0
   11.0323  -16.4182   23.0557 C   0  0  2  0  0  0  0  0  0  0  0  0
   10.6989  -15.7146   21.8161 N   0  0  0  0  0  0  0  0  0  0  0  0
    9.9378  -16.2593   24.0312 C   0  0  0  0  0  0  0  0  0  0  0  0
    9.9517  -17.0700   25.1896 O   0  0  0  0  0  0  0  0  0  0  0  0
    8.9885  -15.4550   23.9123 O   0  0  0  0  0  0  0  0  0  0  0  0
  2  1  1  6
  3  2  1  0
  4  3  1  0
  5  4  2  0
  6  7  2  0
  6  2  1  0
  8  4  1  0
  9  6  1  0
 10 11  1  6
 10  9  1  0
 11 12  1  0
 13 17  1  0
 13 12  1  0
 14 13  2  0
 15 10  1  0
 15 16  2  0
 19 18  1  0
 20 19  2  0
 21 19  1  0
 22 21  1  0
 23 22  1  1
 23 24  1  0
 24 15  1  0
 25 23  1  0
 26 25  1  0
 27 25  2  0
M  END
$$$$
