DEQ.pdb
     RDKit          3D

 27 26  0  0  1  0  0  0  0  0999 V2000
   11.0078  -13.8448   18.5566 N   0  0  0  0  0  0  0  0  0  0  0  0
   11.4877  -14.8347   19.4832 C   0  0  1  0  0  0  0  0  0  0  0  0
   12.9082  -14.4293   19.8626 C   0  0  0  0  0  0  0  0  0  0  0  0
   13.7780  -14.5235   18.6826 C   0  0  0  0  0  0  0  0  0  0  0  0
   14.7920  -13.7932   18.5960 O   0  0  0  0  0  0  0  0  0  0  0  0
   10.6327  -15.0246   20.6540 C   0  0  0  0  0  0  0  0  0  0  0  0
   10.3599  -14.0307   21.3623 O   0  0  0  0  0  0  0  0  0  0  0  0
   13.5366  -15.4004   17.6247 O   0  0  0  0  0  0  0  0  0  0  0  0
   10.1122  -16.2758   21.0058 N   0  0  0  0  0  0  0  0  0  0  0  0
    9.2260  -16.5017   22.1563 C   0  0  1  0  0  0  0  0  0  0  0  0
    8.3681  -17.6844   21.9554 C   0  0  0  0  0  0  0  0  0  0  0  0
    8.9790  -18.9368   22.4972 C   0  0  0  0  0  0  0  0  0  0  0  0
    8.1412  -20.1485   22.3477 C   0  0  0  0  0  0  0  0  0  0  0  0
    7.9559  -20.9648   23.2637 O   0  0  0  0  0  0  0  0  0  0  0  0
   10.0655  -16.6287   23.3679 C   0  0  0  0  0  0  0  0  0  0  0  0
   11.2489  -17.0473   23.3593 O   0  0  0  0  0  0  0  0  0  0  0  0
    7.5014  -20.4317   21.1215 O   0  0  0  0  0  0  0  0  0  0  0  0
    9.2836  -13.0966   28.7078 N   0  0  0  0  0  0  0  0  0  0  0  0
   10.0311  -14.2738   28.9577 C   0  0  0  0  0  0  0  0  0  0  0  0
   10.1575  -14.7423   30.1035 O   0  0  0  0  0  0  0  0  0  0  0  0
   10.6934  -14.9867   27.8262 C   0  0  0  0  0  0  0  0  0  0  0  0
    9.6917  -15.6323   26.9278 C   0  0  0  0  0  0  0  0  0  0  0  0
   10.3536  -16.4086   25.8399 C   0  0  2  0  0  0  0  0  0  0  0  0
    9.5291  -16.2623   24.6392 N   0  0  0  0  0  0  0  0  0  0  0  0
   10.5712  -17.8389   26.1263 C   0  0  0  0  0  0  0  0  0  0  0  0
   11.8096  -18.2275   26.6872 O   0  0  0  0  0  0  0  0  0  0  0  0
    9.7370  -18.7440   25.9093 O   0  0  0  0  0  0  0  0  0  0  0  0
  2  1  1  6
  3  2  1  0
  4  3  1  0
  5  4  2  0
  6  7  2  0
  6  2  1  0
  8  4  1  0
  9  6  1  0
 10 11  1  6
 10  9  1  0
 11 12  1  0
 13 17  1  0
 13 12  1  0
 14 13  2  0
 15 10  1  0
 15 16  2  0
 19 18  1  0
 20 19  2  0
 21 19  1  0
 22 21  1  0
 23 22  1  1
 23 24  1  0
 24 15  1  0
 25 23  1  0
 26 25  1  0
 27 25  2  0
M  END
$$$$
