DEQ.pdb
     RDKit          3D

 27 26  0  0  1  0  0  0  0  0999 V2000
   10.8231  -18.8024   21.2825 N   0  0  0  0  0  0  0  0  0  0  0  0
   10.6944  -17.4752   21.8219 C   0  0  1  0  0  0  0  0  0  0  0  0
    9.7913  -16.6992   20.8688 C   0  0  0  0  0  0  0  0  0  0  0  0
   10.4809  -16.5063   19.5862 C   0  0  0  0  0  0  0  0  0  0  0  0
   11.6613  -16.9018   19.4476 O   0  0  0  0  0  0  0  0  0  0  0  0
   10.2127  -17.4329   23.2018 C   0  0  0  0  0  0  0  0  0  0  0  0
    9.9829  -16.3185   23.7207 O   0  0  0  0  0  0  0  0  0  0  0  0
    9.8847  -15.8930   18.4839 O   0  0  0  0  0  0  0  0  0  0  0  0
   10.0016  -18.5929   23.9568 N   0  0  0  0  0  0  0  0  0  0  0  0
    9.5556  -18.5904   25.3572 C   0  0  1  0  0  0  0  0  0  0  0  0
    8.9329  -19.8745   25.7298 C   0  0  0  0  0  0  0  0  0  0  0  0
    8.0964  -20.4481   24.6314 C   0  0  0  0  0  0  0  0  0  0  0  0
    7.4202  -21.7213   24.9694 C   0  0  0  0  0  0  0  0  0  0  0  0
    7.6812  -22.3808   25.9876 O   0  0  0  0  0  0  0  0  0  0  0  0
   10.7206  -18.2738   26.2123 C   0  0  0  0  0  0  0  0  0  0  0  0
   11.8975  -18.1797   25.7859 O   0  0  0  0  0  0  0  0  0  0  0  0
    6.4229  -22.2510   24.1222 O   0  0  0  0  0  0  0  0  0  0  0  0
    9.7353  -13.5495   26.3288 N   0  0  0  0  0  0  0  0  0  0  0  0
    9.3869  -13.7358   27.6892 C   0  0  0  0  0  0  0  0  0  0  0  0
    8.6061  -12.9676   28.2798 O   0  0  0  0  0  0  0  0  0  0  0  0
    9.9632  -14.8811   28.4529 C   0  0  0  0  0  0  0  0  0  0  0  0
   10.8725  -15.7020   27.6005 C   0  0  0  0  0  0  0  0  0  0  0  0
   11.2560  -16.9741   28.2779 C   0  0  2  0  0  0  0  0  0  0  0  0
   10.5309  -18.0566   27.6105 N   0  0  0  0  0  0  0  0  0  0  0  0
   10.9989  -17.0199   29.7293 C   0  0  0  0  0  0  0  0  0  0  0  0
    9.9759  -17.8747   30.2004 O   0  0  0  0  0  0  0  0  0  0  0  0
   11.6219  -16.3547   30.5847 O   0  0  0  0  0  0  0  0  0  0  0  0
  2  1  1  6
  3  2  1  0
  4  3  1  0
  5  4  2  0
  6  7  2  0
  6  2  1  0
  8  4  1  0
  9  6  1  0
 10 11  1  1
 10  9  1  0
 11 12  1  0
 13 17  1  0
 13 12  1  0
 14 13  2  0
 15 10  1  0
 15 16  2  0
 19 18  1  0
 20 19  2  0
 21 19  1  0
 22 21  1  0
 23 22  1  6
 23 24  1  0
 24 15  1  0
 25 23  1  0
 26 25  1  0
 27 25  2  0
M  END
$$$$
