DEQ.pdb
     RDKit          3D

 27 26  0  0  1  0  0  0  0  0999 V2000
   12.5389  -17.4696   20.6526 N   0  0  0  0  0  0  0  0  0  0  0  0
   11.1774  -17.1440   20.9829 C   0  0  1  0  0  0  0  0  0  0  0  0
   10.2990  -17.8012   19.9233 C   0  0  0  0  0  0  0  0  0  0  0  0
   10.7348  -17.3712   18.5880 C   0  0  0  0  0  0  0  0  0  0  0  0
   11.7087  -16.5922   18.4713 O   0  0  0  0  0  0  0  0  0  0  0  0
   10.7840  -17.5179   22.3406 C   0  0  0  0  0  0  0  0  0  0  0  0
    9.6302  -17.2316   22.7288 O   0  0  0  0  0  0  0  0  0  0  0  0
   10.1133  -17.7893   17.4110 O   0  0  0  0  0  0  0  0  0  0  0  0
   11.6521  -18.1824   23.2153 N   0  0  0  0  0  0  0  0  0  0  0  0
   11.2912  -18.5829   24.5825 C   0  0  1  0  0  0  0  0  0  0  0  0
   11.8908  -19.8813   24.9429 C   0  0  0  0  0  0  0  0  0  0  0  0
   11.4755  -20.9823   24.0206 C   0  0  0  0  0  0  0  0  0  0  0  0
   12.0716  -22.3028   24.3261 C   0  0  0  0  0  0  0  0  0  0  0  0
   13.2871  -22.5372   24.2389 O   0  0  0  0  0  0  0  0  0  0  0  0
   11.7119  -17.5059   25.5055 C   0  0  0  0  0  0  0  0  0  0  0  0
   12.3343  -16.4773   25.1442 O   0  0  0  0  0  0  0  0  0  0  0  0
   11.2574  -23.3791   24.7405 O   0  0  0  0  0  0  0  0  0  0  0  0
    8.5314  -13.7307   25.9590 N   0  0  0  0  0  0  0  0  0  0  0  0
    9.1039  -13.3602   27.2007 C   0  0  0  0  0  0  0  0  0  0  0  0
    8.8114  -12.2918   27.7676 O   0  0  0  0  0  0  0  0  0  0  0  0
   10.0885  -14.2649   27.8635 C   0  0  0  0  0  0  0  0  0  0  0  0
   10.3068  -15.5088   27.0683 C   0  0  0  0  0  0  0  0  0  0  0  0
   11.3194  -16.3965   27.7094 C   0  0  2  0  0  0  0  0  0  0  0  0
   11.4086  -17.6106   26.8966 N   0  0  0  0  0  0  0  0  0  0  0  0
   11.0481  -16.7536   29.1143 C   0  0  0  0  0  0  0  0  0  0  0  0
   10.4178  -17.9911   29.3798 O   0  0  0  0  0  0  0  0  0  0  0  0
   11.3351  -16.0396   30.0992 O   0  0  0  0  0  0  0  0  0  0  0  0
  2  1  1  6
  3  2  1  0
  4  3  1  0
  5  4  2  0
  6  7  2  0
  6  2  1  0
  8  4  1  0
  9  6  1  0
 10 11  1  1
 10  9  1  0
 11 12  1  0
 13 17  1  0
 13 12  1  0
 14 13  2  0
 15 10  1  0
 15 16  2  0
 19 18  1  0
 20 19  2  0
 21 19  1  0
 22 21  1  0
 23 22  1  6
 23 24  1  0
 24 15  1  0
 25 23  1  0
 26 25  1  0
 27 25  2  0
M  END
$$$$
