NNY.pdb
     RDKit          3D

 29 29  0  0  1  0  0  0  0  0999 V2000
   10.8191  -19.5331   14.9149 N   0  0  0  0  0  0  0  0  0  0  0  0
   10.4159  -19.7367   16.2468 C   0  0  0  0  0  0  0  0  0  0  0  0
    9.2922  -20.2165   16.4876 O   0  0  0  0  0  0  0  0  0  0  0  0
   11.3117  -19.3873   17.3591 C   0  0  0  0  0  0  0  0  0  0  0  0
   10.5241  -18.7024   18.4229 C   0  0  2  0  0  0  0  0  0  0  0  0
    9.6130  -17.7812   17.8077 N   0  0  0  0  0  0  0  0  0  0  0  0
   11.3394  -18.1004   19.4840 C   0  0  0  0  0  0  0  0  0  0  0  0
   11.9604  -18.8453   20.2839 O   0  0  0  0  0  0  0  0  0  0  0  0
   13.4067  -14.3749   17.7807 N   0  0  0  0  0  0  0  0  0  0  0  0
   13.8178  -15.1189   18.9244 C   0  0  0  0  0  0  0  0  0  0  0  0
   14.7637  -15.9394   18.8638 O   0  0  0  0  0  0  0  0  0  0  0  0
   13.1024  -14.9011   20.1863 C   0  0  0  0  0  0  0  0  0  0  0  0
   12.3351  -16.1078   20.6621 C   0  0  2  0  0  0  0  0  0  0  0  0
   11.4797  -16.6803   19.6754 N   0  0  0  0  0  0  0  0  0  0  0  0
   11.5488  -15.7515   21.8653 C   0  0  0  0  0  0  0  0  0  0  0  0
   12.1008  -15.0563   22.7516 O   0  0  0  0  0  0  0  0  0  0  0  0
    8.3769  -12.0232   18.0933 O   0  0  0  0  0  0  0  0  0  0  0  0
    8.3105  -12.8197   19.2330 C   0  0  0  0  0  0  0  0  0  0  0  0
    7.7869  -14.0849   19.1216 C   0  0  0  0  0  0  0  0  0  0  0  0
    7.7306  -14.8618   20.2717 C   0  0  0  0  0  0  0  0  0  0  0  0
    8.1824  -14.3879   21.4872 C   0  0  0  0  0  0  0  0  0  0  0  0
    8.0941  -15.2474   22.6672 C   0  0  0  0  0  0  0  0  0  0  0  0
    9.4359  -15.6959   23.2063 C   0  0  2  0  0  0  0  0  0  0  0  0
   10.2055  -16.1478   22.0805 N   0  0  0  0  0  0  0  0  0  0  0  0
    9.3245  -16.8281   24.1531 C   0  0  0  0  0  0  0  0  0  0  0  0
    8.6875  -16.7432   25.2448 O   0  0  0  0  0  0  0  0  0  0  0  0
    8.7045  -13.1084   21.5662 C   0  0  0  0  0  0  0  0  0  0  0  0
    8.7713  -12.3142   20.4329 C   0  0  0  0  0  0  0  0  0  0  0  0
    9.9190  -18.0453   23.8827 O   0  0  0  0  0  0  0  0  0  0  0  0
  2  3  2  0
  2  1  1  0
  4  2  1  0
  5  4  1  0
  5  6  1  6
  7  8  2  0
  7  5  1  0
 10  9  1  0
 10 12  1  0
 11 10  2  0
 13 12  1  6
 13 14  1  0
 14  7  1  0
 15 13  1  0
 16 15  2  0
 18 17  1  0
 18 28  2  0
 19 18  1  0
 20 19  2  0
 20 21  1  0
 21 27  2  0
 22 21  1  0
 23 22  1  6
 23 24  1  0
 24 15  1  0
 25 23  1  0
 26 25  2  0
 27 28  1  0
 29 25  1  0
M  END
$$$$
