NNY.pdb
     RDKit          3D

 29 29  0  0  1  0  0  0  0  0999 V2000
    9.5969  -17.8760   14.0154 N   0  0  0  0  0  0  0  0  0  0  0  0
    8.3633  -18.0344   14.6719 C   0  0  0  0  0  0  0  0  0  0  0  0
    7.6448  -19.0176   14.4119 O   0  0  0  0  0  0  0  0  0  0  0  0
    7.9143  -17.0467   15.6643 C   0  0  0  0  0  0  0  0  0  0  0  0
    9.0639  -16.6750   16.5369 C   0  0  2  0  0  0  0  0  0  0  0  0
   10.2838  -17.0637   15.8906 N   0  0  0  0  0  0  0  0  0  0  0  0
    8.9528  -17.1566   17.9185 C   0  0  0  0  0  0  0  0  0  0  0  0
    7.9299  -16.8724   18.5916 O   0  0  0  0  0  0  0  0  0  0  0  0
    9.1367  -21.5979   20.0903 N   0  0  0  0  0  0  0  0  0  0  0  0
   10.1491  -20.7839   19.5046 C   0  0  0  0  0  0  0  0  0  0  0  0
   10.6286  -21.0490   18.3770 O   0  0  0  0  0  0  0  0  0  0  0  0
   10.6223  -19.6176   20.2580 C   0  0  0  0  0  0  0  0  0  0  0  0
    9.8762  -18.3480   19.9378 C   0  0  2  0  0  0  0  0  0  0  0  0
    9.9604  -17.9519   18.5708 N   0  0  0  0  0  0  0  0  0  0  0  0
   10.3625  -17.2548   20.8103 C   0  0  0  0  0  0  0  0  0  0  0  0
   11.4728  -16.7336   20.5471 O   0  0  0  0  0  0  0  0  0  0  0  0
    7.6804  -12.4892   17.7910 O   0  0  0  0  0  0  0  0  0  0  0  0
    8.0032  -13.0254   19.0343 C   0  0  0  0  0  0  0  0  0  0  0  0
    9.3128  -12.9864   19.4475 C   0  0  0  0  0  0  0  0  0  0  0  0
    9.6116  -13.5272   20.6916 C   0  0  0  0  0  0  0  0  0  0  0  0
    8.6343  -14.0858   21.4908 C   0  0  0  0  0  0  0  0  0  0  0  0
    9.0064  -14.6456   22.7898 C   0  0  0  0  0  0  0  0  0  0  0  0
   10.1274  -15.6612   22.7262 C   0  0  2  0  0  0  0  0  0  0  0  0
    9.6501  -16.7571   21.9294 N   0  0  0  0  0  0  0  0  0  0  0  0
   10.4883  -16.2013   24.0562 C   0  0  0  0  0  0  0  0  0  0  0  0
   10.1517  -17.3625   24.4342 O   0  0  0  0  0  0  0  0  0  0  0  0
    7.3239  -14.1098   21.0456 C   0  0  0  0  0  0  0  0  0  0  0  0
    7.0008  -13.5765   19.8083 C   0  0  0  0  0  0  0  0  0  0  0  0
   11.2197  -15.4509   24.9564 O   0  0  0  0  0  0  0  0  0  0  0  0
  2  3  2  0
  2  1  1  0
  4  2  1  0
  5  4  1  0
  5  6  1  6
  7  8  2  0
  7  5  1  0
 10  9  1  0
 10 12  1  0
 11 10  2  0
 13 12  1  6
 13 14  1  0
 14  7  1  0
 15 13  1  0
 16 15  2  0
 18 17  1  0
 18 28  2  0
 19 18  1  0
 20 19  2  0
 20 21  1  0
 21 27  2  0
 22 21  1  0
 23 22  1  1
 23 24  1  0
 24 15  1  0
 25 23  1  0
 26 25  2  0
 27 28  1  0
 29 25  1  0
M  END
$$$$
