NNY.pdb
     RDKit          3D

 29 29  0  0  1  0  0  0  0  0999 V2000
   12.3860  -16.5994   15.8233 N   0  0  0  0  0  0  0  0  0  0  0  0
   11.0792  -17.0898   15.9957 C   0  0  0  0  0  0  0  0  0  0  0  0
   10.7047  -18.0927   15.3596 O   0  0  0  0  0  0  0  0  0  0  0  0
   10.1500  -16.4269   16.9226 C   0  0  0  0  0  0  0  0  0  0  0  0
   10.1916  -17.1263   18.2380 C   0  0  2  0  0  0  0  0  0  0  0  0
    9.8315  -18.5013   18.0460 N   0  0  0  0  0  0  0  0  0  0  0  0
    9.4255  -16.4622   19.2987 C   0  0  0  0  0  0  0  0  0  0  0  0
    9.6732  -15.2626   19.5813 O   0  0  0  0  0  0  0  0  0  0  0  0
    7.5228  -19.2133   21.3886 N   0  0  0  0  0  0  0  0  0  0  0  0
    6.3042  -18.4932   21.5535 C   0  0  0  0  0  0  0  0  0  0  0  0
    5.2261  -19.0830   21.8016 O   0  0  0  0  0  0  0  0  0  0  0  0
    6.3400  -17.0324   21.4250 C   0  0  0  0  0  0  0  0  0  0  0  0
    7.7163  -16.4834   21.1502 C   0  0  2  0  0  0  0  0  0  0  0  0
    8.3843  -17.1071   20.0558 N   0  0  0  0  0  0  0  0  0  0  0  0
    8.5447  -16.5897   22.3730 C   0  0  0  0  0  0  0  0  0  0  0  0
    9.2840  -17.5945   22.5047 O   0  0  0  0  0  0  0  0  0  0  0  0
   11.3515  -14.7326   30.5735 O   0  0  0  0  0  0  0  0  0  0  0  0
   10.8141  -14.6812   29.2905 C   0  0  0  0  0  0  0  0  0  0  0  0
    9.4674  -14.4488   29.1503 C   0  0  0  0  0  0  0  0  0  0  0  0
    8.9532  -14.4017   27.8607 C   0  0  0  0  0  0  0  0  0  0  0  0
    9.7589  -14.5807   26.7540 C   0  0  0  0  0  0  0  0  0  0  0  0
    9.1630  -14.5262   25.4194 C   0  0  0  0  0  0  0  0  0  0  0  0
    9.2498  -15.8275   24.6507 C   0  0  2  0  0  0  0  0  0  0  0  0
    8.5558  -15.6235   23.4095 N   0  0  0  0  0  0  0  0  0  0  0  0
    8.5899  -16.9524   25.3505 C   0  0  0  0  0  0  0  0  0  0  0  0
    7.3324  -17.1053   25.3601 O   0  0  0  0  0  0  0  0  0  0  0  0
   11.1121  -14.8132   26.9291 C   0  0  0  0  0  0  0  0  0  0  0  0
   11.6487  -14.8647   28.2054 C   0  0  0  0  0  0  0  0  0  0  0  0
    9.3282  -17.8993   26.0336 O   0  0  0  0  0  0  0  0  0  0  0  0
  2  3  2  0
  2  1  1  0
  4  2  1  0
  5  4  1  0
  5  6  1  6
  7  8  2  0
  7  5  1  0
 10  9  1  0
 10 12  1  0
 11 10  2  0
 13 12  1  1
 13 14  1  0
 14  7  1  0
 15 13  1  0
 16 15  2  0
 18 17  1  0
 18 28  2  0
 19 18  1  0
 20 19  2  0
 20 21  1  0
 21 27  2  0
 22 21  1  0
 23 22  1  1
 23 24  1  0
 24 15  1  0
 25 23  1  0
 26 25  2  0
 27 28  1  0
 29 25  1  0
M  END
$$$$
