NNY.pdb
     RDKit          3D

 29 29  0  0  1  0  0  0  0  0999 V2000
    7.6337  -12.4912   17.9269 N   0  0  0  0  0  0  0  0  0  0  0  0
    7.7486  -13.8547   18.2516 C   0  0  0  0  0  0  0  0  0  0  0  0
    6.8610  -14.6530   17.8973 O   0  0  0  0  0  0  0  0  0  0  0  0
    8.9102  -14.3462   19.0073 C   0  0  0  0  0  0  0  0  0  0  0  0
    8.4584  -15.3864   19.9741 C   0  0  2  0  0  0  0  0  0  0  0  0
    7.3843  -14.8547   20.7620 N   0  0  0  0  0  0  0  0  0  0  0  0
    9.5378  -15.9749   20.7752 C   0  0  0  0  0  0  0  0  0  0  0  0
   10.3716  -16.7369   20.2237 O   0  0  0  0  0  0  0  0  0  0  0  0
   12.6509  -16.8755   20.9702 N   0  0  0  0  0  0  0  0  0  0  0  0
   12.9225  -15.6848   21.7044 C   0  0  0  0  0  0  0  0  0  0  0  0
   13.8757  -14.9311   21.3961 O   0  0  0  0  0  0  0  0  0  0  0  0
   12.0534  -15.3576   22.8398 C   0  0  0  0  0  0  0  0  0  0  0  0
   10.8231  -16.2235   22.9283 C   0  0  2  0  0  0  0  0  0  0  0  0
    9.7105  -15.7325   22.1839 N   0  0  0  0  0  0  0  0  0  0  0  0
   10.4418  -16.3979   24.3485 C   0  0  0  0  0  0  0  0  0  0  0  0
   11.3534  -16.4239   25.2098 O   0  0  0  0  0  0  0  0  0  0  0  0
    6.6594  -10.6518   26.6387 O   0  0  0  0  0  0  0  0  0  0  0  0
    6.8336  -12.0309   26.5652 C   0  0  0  0  0  0  0  0  0  0  0  0
    5.8143  -12.7962   26.0528 C   0  0  0  0  0  0  0  0  0  0  0  0
    6.0103  -14.1699   25.9890 C   0  0  0  0  0  0  0  0  0  0  0  0
    7.1839  -14.7538   26.4225 C   0  0  0  0  0  0  0  0  0  0  0  0
    7.3342  -16.2061   26.3368 C   0  0  0  0  0  0  0  0  0  0  0  0
    8.7673  -16.6710   26.1890 C   0  0  2  0  0  0  0  0  0  0  0  0
    9.1057  -16.5380   24.7992 N   0  0  0  0  0  0  0  0  0  0  0  0
    8.9503  -18.0926   26.5580 C   0  0  0  0  0  0  0  0  0  0  0  0
    8.9921  -18.4842   27.7620 O   0  0  0  0  0  0  0  0  0  0  0  0
    8.1919  -13.9549   26.9339 C   0  0  0  0  0  0  0  0  0  0  0  0
    8.0202  -12.5820   27.0078 C   0  0  0  0  0  0  0  0  0  0  0  0
    9.0849  -19.0693   25.5903 O   0  0  0  0  0  0  0  0  0  0  0  0
  2  3  2  0
  2  1  1  0
  4  2  1  0
  5  4  1  0
  5  6  1  1
  7  8  2  0
  7  5  1  0
 10  9  1  0
 10 12  1  0
 11 10  2  0
 13 12  1  1
 13 14  1  0
 14  7  1  0
 15 13  1  0
 16 15  2  0
 18 17  1  0
 18 28  2  0
 19 18  1  0
 20 19  2  0
 20 21  1  0
 21 27  2  0
 22 21  1  0
 23 22  1  6
 23 24  1  0
 24 15  1  0
 25 23  1  0
 26 25  2  0
 27 28  1  0
 29 25  1  0
M  END
$$$$
