NNY.pdb
     RDKit          3D

 29 29  0  0  1  0  0  0  0  0999 V2000
    8.5477  -18.0106   13.7401 N   0  0  0  0  0  0  0  0  0  0  0  0
    9.2824  -17.5602   14.8515 C   0  0  0  0  0  0  0  0  0  0  0  0
   10.5213  -17.4599   14.7760 O   0  0  0  0  0  0  0  0  0  0  0  0
    8.5985  -17.2060   16.1040 C   0  0  0  0  0  0  0  0  0  0  0  0
    9.4277  -17.6578   17.2570 C   0  0  2  0  0  0  0  0  0  0  0  0
   10.1970  -18.8006   16.8579 N   0  0  0  0  0  0  0  0  0  0  0  0
    8.6733  -17.8632   18.4987 C   0  0  0  0  0  0  0  0  0  0  0  0
    7.4311  -17.6708   18.5060 O   0  0  0  0  0  0  0  0  0  0  0  0
    6.7356  -20.3678   22.8595 N   0  0  0  0  0  0  0  0  0  0  0  0
    8.1197  -20.0288   22.8629 C   0  0  0  0  0  0  0  0  0  0  0  0
    8.7535  -19.8837   23.9348 O   0  0  0  0  0  0  0  0  0  0  0  0
    8.7927  -19.8517   21.5716 C   0  0  0  0  0  0  0  0  0  0  0  0
    8.5234  -18.5159   20.9279 C   0  0  2  0  0  0  0  0  0  0  0  0
    9.2741  -18.2804   19.7389 N   0  0  0  0  0  0  0  0  0  0  0  0
    8.7778  -17.4345   21.9071 C   0  0  0  0  0  0  0  0  0  0  0  0
    9.9594  -17.0465   22.0704 O   0  0  0  0  0  0  0  0  0  0  0  0
    6.9950  -11.0505   27.7787 O   0  0  0  0  0  0  0  0  0  0  0  0
    6.9705  -11.9872   26.7494 C   0  0  0  0  0  0  0  0  0  0  0  0
    6.0962  -13.0429   26.8414 C   0  0  0  0  0  0  0  0  0  0  0  0
    6.0891  -13.9651   25.8027 C   0  0  0  0  0  0  0  0  0  0  0  0
    6.9268  -13.8336   24.7132 C   0  0  0  0  0  0  0  0  0  0  0  0
    6.8807  -14.8375   23.6506 C   0  0  0  0  0  0  0  0  0  0  0  0
    8.0530  -15.7954   23.6546 C   0  0  2  0  0  0  0  0  0  0  0  0
    7.7662  -16.8068   22.6755 N   0  0  0  0  0  0  0  0  0  0  0  0
    8.2343  -16.4748   24.9570 C   0  0  0  0  0  0  0  0  0  0  0  0
    7.4875  -17.4234   25.3405 O   0  0  0  0  0  0  0  0  0  0  0  0
    7.7964  -12.7586   24.6505 C   0  0  0  0  0  0  0  0  0  0  0  0
    7.8221  -11.8253   25.6742 C   0  0  0  0  0  0  0  0  0  0  0  0
    9.2419  -16.0984   25.8239 O   0  0  0  0  0  0  0  0  0  0  0  0
  2  3  2  0
  2  1  1  0
  4  2  1  0
  5  4  1  0
  5  6  1  6
  7  8  2  0
  7  5  1  0
 10  9  1  0
 10 12  1  0
 11 10  2  0
 13 12  1  1
 13 14  1  0
 14  7  1  0
 15 13  1  0
 16 15  2  0
 18 17  1  0
 18 28  2  0
 19 18  1  0
 20 19  2  0
 20 21  1  0
 21 27  2  0
 22 21  1  0
 23 22  1  1
 23 24  1  0
 24 15  1  0
 25 23  1  0
 26 25  2  0
 27 28  1  0
 29 25  1  0
M  END
$$$$
