NNY.pdb
     RDKit          3D

 29 29  0  0  1  0  0  0  0  0999 V2000
   12.6804  -16.8722   15.6953 N   0  0  0  0  0  0  0  0  0  0  0  0
   11.2953  -16.9712   15.4729 C   0  0  0  0  0  0  0  0  0  0  0  0
   10.8345  -16.7682   14.3340 O   0  0  0  0  0  0  0  0  0  0  0  0
   10.3853  -17.3130   16.5761 C   0  0  0  0  0  0  0  0  0  0  0  0
   11.1707  -17.4317   17.8372 C   0  0  2  0  0  0  0  0  0  0  0  0
   12.0403  -18.5679   17.7390 N   0  0  0  0  0  0  0  0  0  0  0  0
   10.3567  -17.4199   19.0580 C   0  0  0  0  0  0  0  0  0  0  0  0
    9.6287  -16.4255   19.3057 O   0  0  0  0  0  0  0  0  0  0  0  0
    6.7578  -20.0672   20.6543 N   0  0  0  0  0  0  0  0  0  0  0  0
    8.1179  -20.4924   20.6554 C   0  0  0  0  0  0  0  0  0  0  0  0
    8.5240  -21.3824   19.8713 O   0  0  0  0  0  0  0  0  0  0  0  0
    9.0409  -19.8595   21.6036 C   0  0  0  0  0  0  0  0  0  0  0  0
    9.5051  -18.4918   21.1736 C   0  0  2  0  0  0  0  0  0  0  0  0
   10.3350  -18.4962   20.0141 N   0  0  0  0  0  0  0  0  0  0  0  0
   10.2113  -17.8332   22.2963 C   0  0  0  0  0  0  0  0  0  0  0  0
   11.4212  -18.1079   22.4803 O   0  0  0  0  0  0  0  0  0  0  0  0
   10.6440  -13.8916   30.1870 O   0  0  0  0  0  0  0  0  0  0  0  0
   10.3354  -14.2369   28.8743 C   0  0  0  0  0  0  0  0  0  0  0  0
   11.3372  -14.7220   28.0690 C   0  0  0  0  0  0  0  0  0  0  0  0
   11.0063  -15.0601   26.7630 C   0  0  0  0  0  0  0  0  0  0  0  0
    9.7197  -14.9173   26.2829 C   0  0  0  0  0  0  0  0  0  0  0  0
    9.4287  -15.2841   24.8973 C   0  0  0  0  0  0  0  0  0  0  0  0
   10.2443  -16.4513   24.3832 C   0  0  2  0  0  0  0  0  0  0  0  0
    9.6041  -16.9074   23.1807 N   0  0  0  0  0  0  0  0  0  0  0  0
   10.2774  -17.5891   25.3293 C   0  0  0  0  0  0  0  0  0  0  0  0
    9.2777  -18.3420   25.5249 O   0  0  0  0  0  0  0  0  0  0  0  0
    8.7329  -14.4255   27.1197 C   0  0  0  0  0  0  0  0  0  0  0  0
    9.0382  -14.0813   28.4265 C   0  0  0  0  0  0  0  0  0  0  0  0
   11.4180  -17.8840   26.0507 O   0  0  0  0  0  0  0  0  0  0  0  0
  2  3  2  0
  2  1  1  0
  4  2  1  0
  5  4  1  0
  5  6  1  6
  7  8  2  0
  7  5  1  0
 10  9  1  0
 10 12  1  0
 11 10  2  0
 13 12  1  1
 13 14  1  0
 14  7  1  0
 15 13  1  0
 16 15  2  0
 18 17  1  0
 18 28  2  0
 19 18  1  0
 20 19  2  0
 20 21  1  0
 21 27  2  0
 22 21  1  0
 23 22  1  1
 23 24  1  0
 24 15  1  0
 25 23  1  0
 26 25  2  0
 27 28  1  0
 29 25  1  0
M  END
$$$$
