NNY.pdb
     RDKit          3D

 29 29  0  0  1  0  0  0  0  0999 V2000
   13.1792  -16.8546   15.0378 N   0  0  0  0  0  0  0  0  0  0  0  0
   11.9927  -17.2566   15.6770 C   0  0  0  0  0  0  0  0  0  0  0  0
   11.5797  -18.4233   15.5401 O   0  0  0  0  0  0  0  0  0  0  0  0
   11.2347  -16.3088   16.5072 C   0  0  0  0  0  0  0  0  0  0  0  0
   11.2404  -16.7848   17.9195 C   0  0  2  0  0  0  0  0  0  0  0  0
   10.4389  -17.9704   18.0145 N   0  0  0  0  0  0  0  0  0  0  0  0
   10.8852  -15.7563   18.9040 C   0  0  0  0  0  0  0  0  0  0  0  0
   11.7954  -15.0819   19.4489 O   0  0  0  0  0  0  0  0  0  0  0  0
    6.5725  -13.4768   17.9990 N   0  0  0  0  0  0  0  0  0  0  0  0
    7.7396  -13.1897   18.7646 C   0  0  0  0  0  0  0  0  0  0  0  0
    8.6316  -12.4224   18.3318 O   0  0  0  0  0  0  0  0  0  0  0  0
    7.8752  -13.8181   20.0831 C   0  0  0  0  0  0  0  0  0  0  0  0
    9.2041  -14.4964   20.2955 C   0  0  2  0  0  0  0  0  0  0  0  0
    9.5322  -15.4604   19.2974 N   0  0  0  0  0  0  0  0  0  0  0  0
    9.2285  -15.1289   21.6343 C   0  0  0  0  0  0  0  0  0  0  0  0
    8.1341  -15.3654   22.1998 O   0  0  0  0  0  0  0  0  0  0  0  0
   12.8589  -21.2051   20.7404 O   0  0  0  0  0  0  0  0  0  0  0  0
   12.0732  -20.2743   21.4140 C   0  0  0  0  0  0  0  0  0  0  0  0
   12.6472  -19.0890   21.8048 C   0  0  0  0  0  0  0  0  0  0  0  0
   11.8442  -18.1751   22.4754 C   0  0  0  0  0  0  0  0  0  0  0  0
   10.5162  -18.4401   22.7439 C   0  0  0  0  0  0  0  0  0  0  0  0
    9.7185  -17.4437   23.4582 C   0  0  0  0  0  0  0  0  0  0  0  0
   10.4037  -16.1032   23.6180 C   0  0  2  0  0  0  0  0  0  0  0  0
   10.4155  -15.4857   22.3209 N   0  0  0  0  0  0  0  0  0  0  0  0
   11.8092  -16.2270   24.0652 C   0  0  0  0  0  0  0  0  0  0  0  0
   12.7905  -15.9516   23.3129 O   0  0  0  0  0  0  0  0  0  0  0  0
    9.9676  -19.6440   22.3370 C   0  0  0  0  0  0  0  0  0  0  0  0
   10.7482  -20.5717   21.6664 C   0  0  0  0  0  0  0  0  0  0  0  0
   12.1164  -16.6541   25.3426 O   0  0  0  0  0  0  0  0  0  0  0  0
  2  3  2  0
  2  1  1  0
  4  2  1  0
  5  4  1  0
  5  6  1  6
  7  8  2  0
  7  5  1  0
 10  9  1  0
 10 12  1  0
 11 10  2  0
 13 12  1  6
 13 14  1  0
 14  7  1  0
 15 13  1  0
 16 15  2  0
 18 17  1  0
 18 28  2  0
 19 18  1  0
 20 19  2  0
 20 21  1  0
 21 27  2  0
 22 21  1  0
 23 22  1  6
 23 24  1  0
 24 15  1  0
 25 23  1  0
 26 25  2  0
 27 28  1  0
 29 25  1  0
M  END
$$$$
