NNY.pdb
     RDKit          3D

 29 29  0  0  1  0  0  0  0  0999 V2000
    8.7667  -14.7510   13.8501 N   0  0  0  0  0  0  0  0  0  0  0  0
    8.6411  -15.7155   14.8659 C   0  0  0  0  0  0  0  0  0  0  0  0
    9.3138  -16.7622   14.8132 O   0  0  0  0  0  0  0  0  0  0  0  0
    7.7205  -15.4978   15.9915 C   0  0  0  0  0  0  0  0  0  0  0  0
    8.4589  -15.6963   17.2708 C   0  0  2  0  0  0  0  0  0  0  0  0
    9.4530  -16.7128   17.0819 N   0  0  0  0  0  0  0  0  0  0  0  0
    7.5966  -15.9285   18.4351 C   0  0  0  0  0  0  0  0  0  0  0  0
    6.6550  -15.1312   18.6756 O   0  0  0  0  0  0  0  0  0  0  0  0
    5.6052  -17.5356   22.8792 N   0  0  0  0  0  0  0  0  0  0  0  0
    5.2568  -18.3983   21.7998 C   0  0  0  0  0  0  0  0  0  0  0  0
    4.3606  -19.2665   21.9214 O   0  0  0  0  0  0  0  0  0  0  0  0
    5.9774  -18.2462   20.5312 C   0  0  0  0  0  0  0  0  0  0  0  0
    7.0234  -17.1616   20.5566 C   0  0  2  0  0  0  0  0  0  0  0  0
    7.7601  -17.0344   19.3425 N   0  0  0  0  0  0  0  0  0  0  0  0
    7.9511  -17.3951   21.6870 C   0  0  0  0  0  0  0  0  0  0  0  0
    8.9602  -18.1134   21.4890 O   0  0  0  0  0  0  0  0  0  0  0  0
   11.6951  -13.2204   18.5196 O   0  0  0  0  0  0  0  0  0  0  0  0
   10.8150  -13.5541   19.5452 C   0  0  0  0  0  0  0  0  0  0  0  0
    9.6507  -12.8361   19.6724 C   0  0  0  0  0  0  0  0  0  0  0  0
    8.7876  -13.1867   20.7028 C   0  0  0  0  0  0  0  0  0  0  0  0
    9.0811  -14.2180   21.5724 C   0  0  0  0  0  0  0  0  0  0  0  0
    8.1382  -14.5408   22.6429 C   0  0  0  0  0  0  0  0  0  0  0  0
    8.5351  -15.7424   23.4739 C   0  0  2  0  0  0  0  0  0  0  0  0
    7.7706  -16.8561   22.9849 N   0  0  0  0  0  0  0  0  0  0  0  0
    8.2148  -15.5782   24.9096 C   0  0  0  0  0  0  0  0  0  0  0  0
    7.1611  -16.0500   25.4310 O   0  0  0  0  0  0  0  0  0  0  0  0
   10.2627  -14.9222   21.4175 C   0  0  0  0  0  0  0  0  0  0  0  0
   11.1398  -14.5914   20.3973 C   0  0  0  0  0  0  0  0  0  0  0  0
    9.0647  -14.8933   25.7563 O   0  0  0  0  0  0  0  0  0  0  0  0
  2  3  2  0
  2  1  1  0
  4  2  1  0
  5  4  1  0
  5  6  1  6
  7  8  2  0
  7  5  1  0
 10  9  1  0
 10 12  1  0
 11 10  2  0
 13 12  1  6
 13 14  1  0
 14  7  1  0
 15 13  1  0
 16 15  2  0
 18 17  1  0
 18 28  2  0
 19 18  1  0
 20 19  2  0
 20 21  1  0
 21 27  2  0
 22 21  1  0
 23 22  1  6
 23 24  1  0
 24 15  1  0
 25 23  1  0
 26 25  2  0
 27 28  1  0
 29 25  1  0
M  END
$$$$
