NNY.pdb
     RDKit          3D

 29 29  0  0  1  0  0  0  0  0999 V2000
    7.7997  -12.8061   16.4860 N   0  0  0  0  0  0  0  0  0  0  0  0
    8.4691  -14.0208   16.7192 C   0  0  0  0  0  0  0  0  0  0  0  0
    9.5583  -14.2455   16.1591 O   0  0  0  0  0  0  0  0  0  0  0  0
    7.8923  -15.0292   17.6205 C   0  0  0  0  0  0  0  0  0  0  0  0
    8.1170  -14.6071   19.0320 C   0  0  2  0  0  0  0  0  0  0  0  0
    9.3910  -13.9551   19.1259 N   0  0  0  0  0  0  0  0  0  0  0  0
    7.9320  -15.6777   20.0183 C   0  0  0  0  0  0  0  0  0  0  0  0
    7.1983  -16.6585   19.7355 O   0  0  0  0  0  0  0  0  0  0  0  0
    6.6671  -18.9271   20.9046 N   0  0  0  0  0  0  0  0  0  0  0  0
    8.0278  -18.6032   20.6325 C   0  0  0  0  0  0  0  0  0  0  0  0
    8.5174  -18.7504   19.4878 O   0  0  0  0  0  0  0  0  0  0  0  0
    8.8507  -18.0886   21.7324 C   0  0  0  0  0  0  0  0  0  0  0  0
    8.3963  -16.7488   22.2515 C   0  0  2  0  0  0  0  0  0  0  0  0
    8.5488  -15.6807   21.3193 N   0  0  0  0  0  0  0  0  0  0  0  0
    9.1201  -16.4319   23.5039 C   0  0  0  0  0  0  0  0  0  0  0  0
   10.3278  -16.1025   23.4253 O   0  0  0  0  0  0  0  0  0  0  0  0
    6.2667  -10.5001   25.4949 O   0  0  0  0  0  0  0  0  0  0  0  0
    6.7636  -11.7507   25.8506 C   0  0  0  0  0  0  0  0  0  0  0  0
    6.0927  -12.4784   26.8032 C   0  0  0  0  0  0  0  0  0  0  0  0
    6.6068  -13.7236   27.1423 C   0  0  0  0  0  0  0  0  0  0  0  0
    7.7500  -14.2200   26.5485 C   0  0  0  0  0  0  0  0  0  0  0  0
    8.2497  -15.5353   26.9478 C   0  0  0  0  0  0  0  0  0  0  0  0
    9.2544  -16.1324   25.9855 C   0  0  2  0  0  0  0  0  0  0  0  0
    8.5322  -16.4774   24.7924 N   0  0  0  0  0  0  0  0  0  0  0  0
    9.8781  -17.3710   26.5026 C   0  0  0  0  0  0  0  0  0  0  0  0
    9.6669  -18.5077   25.9849 O   0  0  0  0  0  0  0  0  0  0  0  0
    8.4030  -13.4619   25.5920 C   0  0  0  0  0  0  0  0  0  0  0  0
    7.9097  -12.2169   25.2367 C   0  0  0  0  0  0  0  0  0  0  0  0
   10.7314  -17.3405   27.5886 O   0  0  0  0  0  0  0  0  0  0  0  0
  2  3  2  0
  2  1  1  0
  4  2  1  0
  5  4  1  0
  5  6  1  6
  7  8  2  0
  7  5  1  0
 10  9  1  0
 10 12  1  0
 11 10  2  0
 13 12  1  6
 13 14  1  0
 14  7  1  0
 15 13  1  0
 16 15  2  0
 18 17  1  0
 18 28  2  0
 19 18  1  0
 20 19  2  0
 20 21  1  0
 21 27  2  0
 22 21  1  0
 23 22  1  1
 23 24  1  0
 24 15  1  0
 25 23  1  0
 26 25  2  0
 27 28  1  0
 29 25  1  0
M  END
$$$$
