PCM.pdb
     RDKit          3D

 22 22  0  0  1  0  0  0  0  0999 V2000
    7.7295  -14.9313   18.6915 N   0  0  0  0  0  0  0  0  0  0  0  0
    7.9205  -13.7785   17.7902 C   0  0  0  0  0  0  0  0  0  0  0  0
    7.4039  -12.6833   18.7374 C   0  0  0  0  0  0  0  0  0  0  0  0
    8.2758  -12.9878   19.9626 C   0  0  0  0  0  0  0  0  0  0  0  0
    8.4303  -14.4788   19.8845 C   0  0  1  0  0  0  0  0  0  0  0  0
    7.9215  -15.1546   21.1023 C   0  0  0  0  0  0  0  0  0  0  0  0
    6.8399  -14.6733   21.5800 O   0  0  0  0  0  0  0  0  0  0  0  0
    8.5101  -16.2444   21.7536 N   0  0  0  0  0  0  0  0  0  0  0  0
    8.1408  -16.7076   23.0713 C   0  0  1  0  0  0  0  0  0  0  0  0
    7.4804  -18.0800   23.0023 C   0  0  0  0  0  0  0  0  0  0  0  0
    7.0190  -18.6815   24.6341 S   0  0  0  0  0  0  0  0  0  0  0  0
    9.2412  -16.6872   24.0437 C   0  0  0  0  0  0  0  0  0  0  0  0
   10.4259  -17.0429   23.7467 O   0  0  0  0  0  0  0  0  0  0  0  0
    9.0950  -12.3583   28.8834 C   0  0  0  0  0  0  0  0  0  0  0  0
   10.0418  -13.6680   29.6213 S   0  0  0  0  0  0  0  0  0  0  0  0
   10.5577  -14.9890   28.5346 C   0  0  0  0  0  0  0  0  0  0  0  0
    9.6885  -15.1400   27.3385 C   0  0  0  0  0  0  0  0  0  0  0  0
   10.0596  -16.1888   26.3673 C   0  0  2  0  0  0  0  0  0  0  0  0
    8.9812  -16.2581   25.3581 N   0  0  0  0  0  0  0  0  0  0  0  0
   10.1761  -17.5086   26.9994 C   0  0  0  0  0  0  0  0  0  0  0  0
   11.3301  -18.0195   27.5370 O   0  0  0  0  0  0  0  0  0  0  0  0
    9.1506  -18.2672   27.0755 O   0  0  0  0  0  0  0  0  0  0  0  0
  2  1  1  0
  3  2  1  0
  4  3  1  0
  4  5  1  0
  5  1  1  0
  5  6  1  1
  6  8  1  0
  7  6  2  0
  9  8  1  0
  9 12  1  0
  9 10  1  6
 11 10  1  0
 12 19  1  0
 13 12  2  0
 14 15  1  0
 16 15  1  0
 17 16  1  0
 18 20  1  0
 18 17  1  1
 19 18  1  0
 20 21  1  0
 22 20  2  0
M  END
$$$$
