PCM.pdb
     RDKit          3D

 22 22  0  0  1  0  0  0  0  0999 V2000
    9.1556  -15.0417   17.8774 N   0  0  0  0  0  0  0  0  0  0  0  0
    8.9612  -14.2700   16.6347 C   0  0  0  0  0  0  0  0  0  0  0  0
    7.5722  -13.6962   16.9587 C   0  0  0  0  0  0  0  0  0  0  0  0
    7.8757  -13.0802   18.3308 C   0  0  0  0  0  0  0  0  0  0  0  0
    8.9019  -14.0240   18.8868 C   0  0  1  0  0  0  0  0  0  0  0  0
    8.4647  -14.6277   20.1686 C   0  0  0  0  0  0  0  0  0  0  0  0
    8.2585  -13.7993   21.1178 O   0  0  0  0  0  0  0  0  0  0  0  0
    8.2648  -15.9900   20.4185 N   0  0  0  0  0  0  0  0  0  0  0  0
    7.8500  -16.5368   21.6899 C   0  0  1  0  0  0  0  0  0  0  0  0
    7.9080  -18.0602   21.6739 C   0  0  0  0  0  0  0  0  0  0  0  0
    9.5892  -18.6663   21.8828 S   0  0  0  0  0  0  0  0  0  0  0  0
    8.5693  -15.9820   22.8439 C   0  0  0  0  0  0  0  0  0  0  0  0
    9.7747  -15.5818   22.7733 O   0  0  0  0  0  0  0  0  0  0  0  0
    6.3524  -10.8184   28.1914 C   0  0  0  0  0  0  0  0  0  0  0  0
    6.1620  -11.9909   26.8704 S   0  0  0  0  0  0  0  0  0  0  0  0
    7.5120  -13.1337   26.6178 C   0  0  0  0  0  0  0  0  0  0  0  0
    7.3135  -14.0293   25.4484 C   0  0  0  0  0  0  0  0  0  0  0  0
    8.3956  -14.9876   25.1457 C   0  0  2  0  0  0  0  0  0  0  0  0
    7.9041  -15.8871   24.0799 N   0  0  0  0  0  0  0  0  0  0  0  0
    8.7442  -15.8107   26.3101 C   0  0  0  0  0  0  0  0  0  0  0  0
    9.5442  -15.4012   27.3465 O   0  0  0  0  0  0  0  0  0  0  0  0
    8.2888  -17.0010   26.4036 O   0  0  0  0  0  0  0  0  0  0  0  0
  2  1  1  0
  3  2  1  0
  4  3  1  0
  4  5  1  0
  5  1  1  0
  5  6  1  1
  6  8  1  0
  7  6  2  0
  9  8  1  0
  9 12  1  0
  9 10  1  6
 11 10  1  0
 12 19  1  0
 13 12  2  0
 14 15  1  0
 16 15  1  0
 17 16  1  0
 18 20  1  0
 18 17  1  1
 19 18  1  0
 20 21  1  0
 22 20  2  0
M  END
$$$$
