PCM.pdb
     RDKit          3D

 22 22  0  0  1  0  0  0  0  0999 V2000
    9.2120  -14.7917   17.9711 N   0  0  0  0  0  0  0  0  0  0  0  0
    8.8922  -13.9618   16.7935 C   0  0  0  0  0  0  0  0  0  0  0  0
    7.4539  -13.5862   17.1853 C   0  0  0  0  0  0  0  0  0  0  0  0
    7.7189  -13.0383   18.5938 C   0  0  0  0  0  0  0  0  0  0  0  0
    8.8658  -13.8878   19.0584 C   0  0  1  0  0  0  0  0  0  0  0  0
    8.5396  -14.6310   20.2994 C   0  0  0  0  0  0  0  0  0  0  0  0
    8.1134  -13.9149   21.2663 O   0  0  0  0  0  0  0  0  0  0  0  0
    8.6562  -16.0118   20.4943 N   0  0  0  0  0  0  0  0  0  0  0  0
    8.4577  -16.6795   21.7601 C   0  0  1  0  0  0  0  0  0  0  0  0
    8.9839  -18.1095   21.7114 C   0  0  0  0  0  0  0  0  0  0  0  0
    8.7494  -18.9608   23.2791 S   0  0  0  0  0  0  0  0  0  0  0  0
    8.9940  -15.9468   22.9144 C   0  0  0  0  0  0  0  0  0  0  0  0
   10.1677  -15.4567   22.9310 O   0  0  0  0  0  0  0  0  0  0  0  0
    6.0866  -10.9491   28.2119 C   0  0  0  0  0  0  0  0  0  0  0  0
    6.0034  -12.1826   26.9361 S   0  0  0  0  0  0  0  0  0  0  0  0
    7.5102  -13.0802   26.5954 C   0  0  0  0  0  0  0  0  0  0  0  0
    7.3869  -14.0247   25.4545 C   0  0  0  0  0  0  0  0  0  0  0  0
    8.5694  -14.8501   25.1358 C   0  0  2  0  0  0  0  0  0  0  0  0
    8.1819  -15.7769   24.0507 N   0  0  0  0  0  0  0  0  0  0  0  0
    9.0067  -15.6527   26.2844 C   0  0  0  0  0  0  0  0  0  0  0  0
    8.9167  -17.0193   26.3637 O   0  0  0  0  0  0  0  0  0  0  0  0
    9.5146  -15.0746   27.3046 O   0  0  0  0  0  0  0  0  0  0  0  0
  2  1  1  0
  3  2  1  0
  4  3  1  0
  4  5  1  0
  5  1  1  0
  5  6  1  1
  6  8  1  0
  7  6  2  0
  9  8  1  0
  9 12  1  0
  9 10  1  6
 11 10  1  0
 12 19  1  0
 13 12  2  0
 14 15  1  0
 16 15  1  0
 17 16  1  0
 18 20  1  0
 18 17  1  1
 19 18  1  0
 20 21  1  0
 22 20  2  0
M  END
$$$$
