PCM.pdb
     RDKit          3D

 22 22  0  0  1  0  0  0  0  0999 V2000
    8.3033  -15.0870   18.4358 N   0  0  0  0  0  0  0  0  0  0  0  0
    8.1611  -14.1902   17.2725 C   0  0  0  0  0  0  0  0  0  0  0  0
    7.2235  -13.1565   17.9173 C   0  0  0  0  0  0  0  0  0  0  0  0
    8.0424  -12.8335   19.1740 C   0  0  0  0  0  0  0  0  0  0  0  0
    8.7050  -14.1469   19.4721 C   0  0  1  0  0  0  0  0  0  0  0  0
    8.3601  -14.6490   20.8240 C   0  0  0  0  0  0  0  0  0  0  0  0
    8.7354  -13.9065   21.7922 O   0  0  0  0  0  0  0  0  0  0  0  0
    7.6773  -15.8342   21.1195 N   0  0  0  0  0  0  0  0  0  0  0  0
    7.3009  -16.2521   22.4504 C   0  0  1  0  0  0  0  0  0  0  0  0
    6.4841  -17.5386   22.4080 C   0  0  0  0  0  0  0  0  0  0  0  0
    5.9050  -18.0157   24.0434 S   0  0  0  0  0  0  0  0  0  0  0  0
    8.4282  -16.3598   23.3856 C   0  0  0  0  0  0  0  0  0  0  0  0
    9.5503  -16.8582   23.0531 O   0  0  0  0  0  0  0  0  0  0  0  0
   10.4573  -13.5175   30.5803 C   0  0  0  0  0  0  0  0  0  0  0  0
    9.3445  -13.8095   29.2266 S   0  0  0  0  0  0  0  0  0  0  0  0
    9.9583  -14.8322   27.8962 C   0  0  0  0  0  0  0  0  0  0  0  0
    9.0140  -14.9399   26.7536 C   0  0  0  0  0  0  0  0  0  0  0  0
    9.4154  -15.8118   25.6312 C   0  0  2  0  0  0  0  0  0  0  0  0
    8.2668  -15.8951   24.7037 N   0  0  0  0  0  0  0  0  0  0  0  0
    9.7379  -17.1722   26.0785 C   0  0  0  0  0  0  0  0  0  0  0  0
    8.8336  -18.1992   26.1748 O   0  0  0  0  0  0  0  0  0  0  0  0
   10.9374  -17.4622   26.4103 O   0  0  0  0  0  0  0  0  0  0  0  0
  2  1  1  0
  3  2  1  0
  4  3  1  0
  4  5  1  0
  5  1  1  0
  5  6  1  1
  6  8  1  0
  7  6  2  0
  9  8  1  0
  9 12  1  0
  9 10  1  6
 11 10  1  0
 12 19  1  0
 13 12  2  0
 14 15  1  0
 16 15  1  0
 17 16  1  0
 18 20  1  0
 18 17  1  1
 19 18  1  0
 20 21  1  0
 22 20  2  0
M  END
$$$$
