PCM.pdb
     RDKit          3D

 22 22  0  0  1  0  0  0  0  0999 V2000
    7.7846  -14.7944   17.9211 N   0  0  0  0  0  0  0  0  0  0  0  0
    7.8552  -13.5162   17.1869 C   0  0  0  0  0  0  0  0  0  0  0  0
    7.6542  -12.5742   18.3850 C   0  0  0  0  0  0  0  0  0  0  0  0
    8.7553  -13.1131   19.3077 C   0  0  0  0  0  0  0  0  0  0  0  0
    8.7712  -14.5753   18.9689 C   0  0  1  0  0  0  0  0  0  0  0  0
    8.5013  -15.4233   20.1549 C   0  0  0  0  0  0  0  0  0  0  0  0
    7.2732  -15.5135   20.4911 O   0  0  0  0  0  0  0  0  0  0  0  0
    9.4523  -16.1136   20.9149 N   0  0  0  0  0  0  0  0  0  0  0  0
    9.1646  -16.8162   22.1441 C   0  0  1  0  0  0  0  0  0  0  0  0
    9.9716  -18.1062   22.2373 C   0  0  0  0  0  0  0  0  0  0  0  0
   11.7341  -17.7808   22.3963 S   0  0  0  0  0  0  0  0  0  0  0  0
    9.3177  -15.9960   23.3528 C   0  0  0  0  0  0  0  0  0  0  0  0
   10.2171  -15.1037   23.4670 O   0  0  0  0  0  0  0  0  0  0  0  0
    6.7930  -10.6934   27.1634 C   0  0  0  0  0  0  0  0  0  0  0  0
    6.1428  -12.2125   26.5109 S   0  0  0  0  0  0  0  0  0  0  0  0
    7.0576  -13.6996   26.8902 C   0  0  0  0  0  0  0  0  0  0  0  0
    7.2388  -14.5939   25.7171 C   0  0  0  0  0  0  0  0  0  0  0  0
    8.5024  -15.3548   25.6422 C   0  0  2  0  0  0  0  0  0  0  0  0
    8.4377  -16.2008   24.4311 N   0  0  0  0  0  0  0  0  0  0  0  0
    8.6848  -16.2354   26.8024 C   0  0  0  0  0  0  0  0  0  0  0  0
    9.0289  -15.8106   28.0606 O   0  0  0  0  0  0  0  0  0  0  0  0
    8.5191  -17.4958   26.6733 O   0  0  0  0  0  0  0  0  0  0  0  0
  2  1  1  0
  3  2  1  0
  4  3  1  0
  4  5  1  0
  5  1  1  0
  5  6  1  1
  6  8  1  0
  7  6  2  0
  9  8  1  0
  9 12  1  0
  9 10  1  1
 11 10  1  0
 12 19  1  0
 13 12  2  0
 14 15  1  0
 16 15  1  0
 17 16  1  0
 18 20  1  0
 18 17  1  1
 19 18  1  0
 20 21  1  0
 22 20  2  0
M  END
$$$$
