PCM.pdb
     RDKit          3D

 22 22  0  0  1  0  0  0  0  0999 V2000
    9.4528  -14.5964   18.3608 N   0  0  0  0  0  0  0  0  0  0  0  0
    9.2280  -13.7854   17.1486 C   0  0  0  0  0  0  0  0  0  0  0  0
    7.7026  -13.6400   17.2728 C   0  0  0  0  0  0  0  0  0  0  0  0
    7.6238  -13.1046   18.7085 C   0  0  0  0  0  0  0  0  0  0  0  0
    8.7837  -13.7893   19.3709 C   0  0  1  0  0  0  0  0  0  0  0  0
    8.3562  -14.6123   20.5278 C   0  0  0  0  0  0  0  0  0  0  0  0
    7.7062  -13.9859   21.4305 O   0  0  0  0  0  0  0  0  0  0  0  0
    8.5981  -15.9787   20.7085 N   0  0  0  0  0  0  0  0  0  0  0  0
    8.2850  -16.7134   21.9125 C   0  0  1  0  0  0  0  0  0  0  0  0
    8.8592  -18.1245   21.8558 C   0  0  0  0  0  0  0  0  0  0  0  0
    8.5698  -19.0249   23.3865 S   0  0  0  0  0  0  0  0  0  0  0  0
    8.6691  -16.0245   23.1514 C   0  0  0  0  0  0  0  0  0  0  0  0
    9.8386  -15.5635   23.3459 O   0  0  0  0  0  0  0  0  0  0  0  0
    6.9138  -10.9255   28.2605 C   0  0  0  0  0  0  0  0  0  0  0  0
    6.8010  -11.9629   26.8227 S   0  0  0  0  0  0  0  0  0  0  0  0
    6.7366  -13.7246   27.1135 C   0  0  0  0  0  0  0  0  0  0  0  0
    6.7050  -14.5263   25.8625 C   0  0  0  0  0  0  0  0  0  0  0  0
    7.9947  -15.0486   25.3673 C   0  0  2  0  0  0  0  0  0  0  0  0
    7.7096  -15.8650   24.1679 N   0  0  0  0  0  0  0  0  0  0  0  0
    8.6567  -15.9086   26.3557 C   0  0  0  0  0  0  0  0  0  0  0  0
    9.5264  -15.4663   27.3200 O   0  0  0  0  0  0  0  0  0  0  0  0
    8.4325  -17.1666   26.3520 O   0  0  0  0  0  0  0  0  0  0  0  0
  2  1  1  0
  3  2  1  0
  4  3  1  0
  4  5  1  0
  5  1  1  0
  5  6  1  1
  6  8  1  0
  7  6  2  0
  9  8  1  0
  9 12  1  0
  9 10  1  6
 11 10  1  0
 12 19  1  0
 13 12  2  0
 14 15  1  0
 16 15  1  0
 17 16  1  0
 18 20  1  0
 18 17  1  1
 19 18  1  0
 20 21  1  0
 22 20  2  0
M  END
$$$$
