PCM.pdb
     RDKit          3D

 22 22  0  0  1  0  0  0  0  0999 V2000
    7.1015  -15.6919   20.4060 N   0  0  0  0  0  0  0  0  0  0  0  0
    6.7293  -14.4397   19.7196 C   0  0  0  0  0  0  0  0  0  0  0  0
    7.2644  -13.4557   20.7726 C   0  0  0  0  0  0  0  0  0  0  0  0
    8.6975  -13.9889   20.9002 C   0  0  0  0  0  0  0  0  0  0  0  0
    8.5140  -15.4612   20.6724 C   0  0  1  0  0  0  0  0  0  0  0  0
    8.9876  -16.2648   21.8250 C   0  0  0  0  0  0  0  0  0  0  0  0
    9.0127  -17.5268   21.6347 O   0  0  0  0  0  0  0  0  0  0  0  0
    9.3978  -15.7706   23.0683 N   0  0  0  0  0  0  0  0  0  0  0  0
    9.8750  -16.5904   24.1581 C   0  0  1  0  0  0  0  0  0  0  0  0
   10.9600  -17.5508   23.6842 C   0  0  0  0  0  0  0  0  0  0  0  0
   12.1921  -16.7185   22.6711 S   0  0  0  0  0  0  0  0  0  0  0  0
   10.3072  -15.8279   25.3365 C   0  0  0  0  0  0  0  0  0  0  0  0
   11.3307  -15.0725   25.3275 O   0  0  0  0  0  0  0  0  0  0  0  0
    6.8727  -11.3317   26.0826 C   0  0  0  0  0  0  0  0  0  0  0  0
    7.3490  -12.9882   26.5129 S   0  0  0  0  0  0  0  0  0  0  0  0
    8.3910  -13.1698   27.9529 C   0  0  0  0  0  0  0  0  0  0  0  0
    8.6911  -14.5867   28.2867 C   0  0  0  0  0  0  0  0  0  0  0  0
    9.9340  -15.1584   27.7303 C   0  0  2  0  0  0  0  0  0  0  0  0
    9.5638  -15.9330   26.5263 N   0  0  0  0  0  0  0  0  0  0  0  0
   10.5910  -16.0712   28.6736 C   0  0  0  0  0  0  0  0  0  0  0  0
   11.4075  -15.6775   29.7034 O   0  0  0  0  0  0  0  0  0  0  0  0
   10.4145  -17.3319   28.5625 O   0  0  0  0  0  0  0  0  0  0  0  0
  2  1  1  0
  3  2  1  0
  4  3  1  0
  4  5  1  0
  5  1  1  0
  5  6  1  1
  6  8  1  0
  7  6  2  0
  9  8  1  0
  9 12  1  0
  9 10  1  6
 11 10  1  0
 12 19  1  0
 13 12  2  0
 14 15  1  0
 16 15  1  0
 17 16  1  0
 18 20  1  0
 18 17  1  1
 19 18  1  0
 20 21  1  0
 22 20  2  0
M  END
$$$$
