PCM.pdb
     RDKit          3D

 22 22  0  0  1  0  0  0  0  0999 V2000
    8.3520  -14.9752   18.6332 N   0  0  0  0  0  0  0  0  0  0  0  0
    8.2009  -14.0764   17.4726 C   0  0  0  0  0  0  0  0  0  0  0  0
    7.2368  -13.0652   18.1139 C   0  0  0  0  0  0  0  0  0  0  0  0
    8.0383  -12.7308   19.3788 C   0  0  0  0  0  0  0  0  0  0  0  0
    8.7256  -14.0316   19.6769 C   0  0  1  0  0  0  0  0  0  0  0  0
    8.3799  -14.5466   21.0237 C   0  0  0  0  0  0  0  0  0  0  0  0
    8.7739  -13.8246   21.9999 O   0  0  0  0  0  0  0  0  0  0  0  0
    7.6781  -15.7237   21.3067 N   0  0  0  0  0  0  0  0  0  0  0  0
    7.3168  -16.1620   22.6352 C   0  0  1  0  0  0  0  0  0  0  0  0
    6.4221  -17.3952   22.5786 C   0  0  0  0  0  0  0  0  0  0  0  0
    5.9731  -17.9700   24.2234 S   0  0  0  0  0  0  0  0  0  0  0  0
    8.4627  -16.3680   23.5303 C   0  0  0  0  0  0  0  0  0  0  0  0
    9.5193  -16.9743   23.1639 O   0  0  0  0  0  0  0  0  0  0  0  0
    9.8460  -14.0309   30.6717 C   0  0  0  0  0  0  0  0  0  0  0  0
    9.9505  -13.3928   29.0170 S   0  0  0  0  0  0  0  0  0  0  0  0
   10.4145  -14.5552   27.7419 C   0  0  0  0  0  0  0  0  0  0  0  0
    9.3526  -14.7661   26.7237 C   0  0  0  0  0  0  0  0  0  0  0  0
    9.6036  -15.7964   25.6957 C   0  0  2  0  0  0  0  0  0  0  0  0
    8.3953  -15.8777   24.8473 N   0  0  0  0  0  0  0  0  0  0  0  0
    9.8336  -17.1200   26.2871 C   0  0  0  0  0  0  0  0  0  0  0  0
   11.0635  -17.6192   26.6338 O   0  0  0  0  0  0  0  0  0  0  0  0
    8.8422  -17.8941   26.5125 O   0  0  0  0  0  0  0  0  0  0  0  0
  2  1  1  0
  3  2  1  0
  4  3  1  0
  4  5  1  0
  5  1  1  0
  5  6  1  1
  6  8  1  0
  7  6  2  0
  9  8  1  0
  9 12  1  0
  9 10  1  6
 11 10  1  0
 12 19  1  0
 13 12  2  0
 14 15  1  0
 16 15  1  0
 17 16  1  0
 18 20  1  0
 18 17  1  1
 19 18  1  0
 20 21  1  0
 22 20  2  0
M  END
$$$$
