PCM.pdb
     RDKit          3D

 22 22  0  0  1  0  0  0  0  0999 V2000
    8.8577  -14.9491   18.4326 N   0  0  0  0  0  0  0  0  0  0  0  0
    8.6622  -14.1886   17.1831 C   0  0  0  0  0  0  0  0  0  0  0  0
    7.3675  -13.4610   17.5803 C   0  0  0  0  0  0  0  0  0  0  0  0
    7.8276  -12.8510   18.9108 C   0  0  0  0  0  0  0  0  0  0  0  0
    8.7831  -13.8877   19.4261 C   0  0  1  0  0  0  0  0  0  0  0  0
    8.3726  -14.4119   20.7510 C   0  0  0  0  0  0  0  0  0  0  0  0
    8.3270  -13.5464   21.6882 O   0  0  0  0  0  0  0  0  0  0  0  0
    8.0403  -15.7375   21.0519 N   0  0  0  0  0  0  0  0  0  0  0  0
    7.6098  -16.1987   22.3518 C   0  0  1  0  0  0  0  0  0  0  0  0
    7.2769  -17.6861   22.3205 C   0  0  0  0  0  0  0  0  0  0  0  0
    8.7608  -18.7031   22.3545 S   0  0  0  0  0  0  0  0  0  0  0  0
    8.5422  -15.8777   23.4402 C   0  0  0  0  0  0  0  0  0  0  0  0
    9.7927  -15.7380   23.2536 O   0  0  0  0  0  0  0  0  0  0  0  0
    5.9388  -10.7309   26.7610 C   0  0  0  0  0  0  0  0  0  0  0  0
    6.5458  -12.3033   27.3226 S   0  0  0  0  0  0  0  0  0  0  0  0
    7.6684  -13.1614   26.2291 C   0  0  0  0  0  0  0  0  0  0  0  0
    8.1323  -14.4663   26.7685 C   0  0  0  0  0  0  0  0  0  0  0  0
    8.9221  -15.3244   25.8623 C   0  0  2  0  0  0  0  0  0  0  0  0
    8.0383  -15.7174   24.7439 N   0  0  0  0  0  0  0  0  0  0  0  0
    9.3853  -16.5483   26.5273 C   0  0  0  0  0  0  0  0  0  0  0  0
   10.4345  -16.6107   27.4089 O   0  0  0  0  0  0  0  0  0  0  0  0
    8.7943  -17.6574   26.2959 O   0  0  0  0  0  0  0  0  0  0  0  0
  2  1  1  0
  3  2  1  0
  4  3  1  0
  4  5  1  0
  5  1  1  0
  5  6  1  1
  6  8  1  0
  7  6  2  0
  9  8  1  0
  9 12  1  0
  9 10  1  6
 11 10  1  0
 12 19  1  0
 13 12  2  0
 14 15  1  0
 16 15  1  0
 17 16  1  0
 18 20  1  0
 18 17  1  1
 19 18  1  0
 20 21  1  0
 22 20  2  0
M  END
$$$$
