GEC.pdb
     RDKit          3D

 20 19  0  0  1  0  0  0  0  0999 V2000
    7.2583  -16.4150   18.4116 N   0  0  0  0  0  0  0  0  0  0  0  0
    7.9957  -15.3531   19.0691 C   0  0  0  0  0  0  0  0  0  0  0  0
    7.8572  -15.5353   20.5350 C   0  0  0  0  0  0  0  0  0  0  0  0
    6.8045  -16.0369   21.0464 O   0  0  0  0  0  0  0  0  0  0  0  0
    8.8800  -15.1656   21.4545 N   0  0  0  0  0  0  0  0  0  0  0  0
    8.7961  -15.4460   22.8718 C   0  0  1  0  0  0  0  0  0  0  0  0
    9.9720  -16.2575   23.3612 C   0  0  0  0  0  0  0  0  0  0  0  0
   10.0756  -17.5934   22.6680 C   0  0  0  0  0  0  0  0  0  0  0  0
   11.2368  -18.3212   23.2341 C   0  0  0  0  0  0  0  0  0  0  0  0
   11.0932  -19.1540   24.1677 O   0  0  0  0  0  0  0  0  0  0  0  0
    8.6087  -14.1937   23.6629 C   0  0  0  0  0  0  0  0  0  0  0  0
    9.2013  -13.1179   23.3895 O   0  0  0  0  0  0  0  0  0  0  0  0
   12.5456  -18.1286   22.7705 O   0  0  0  0  0  0  0  0  0  0  0  0
    7.7292  -14.2044   24.7704 N   0  0  0  0  0  0  0  0  0  0  0  0
    7.5319  -13.1149   25.6688 C   0  0  1  0  0  0  0  0  0  0  0  0
    6.0332  -12.8247   25.7217 C   0  0  0  0  0  0  0  0  0  0  0  0
    5.6706  -11.5527   26.9453 S   0  0  0  0  0  0  0  0  0  0  0  0
    7.9975  -13.5224   27.0183 C   0  0  0  0  0  0  0  0  0  0  0  0
    8.3134  -12.5901   28.0114 O   0  0  0  0  0  0  0  0  0  0  0  0
    8.1271  -14.7351   27.3236 O   0  0  0  0  0  0  0  0  0  0  0  0
  2  1  1  0
  3  2  1  0
  4  3  2  0
  5  3  1  0
  6 11  1  0
  6  5  1  0
  6  7  1  1
  8  7  1  0
  9 10  2  0
  9  8  1  0
 11 12  2  0
 13  9  1  0
 14 15  1  0
 14 11  1  0
 15 16  1  1
 16 17  1  0
 18 19  1  0
 18 15  1  0
 20 18  2  0
M  END
$$$$
