GEC.pdb
     RDKit          3D

 20 19  0  0  1  0  0  0  0  0999 V2000
    7.3804  -13.0427   18.8620 N   0  0  0  0  0  0  0  0  0  0  0  0
    8.5300  -13.7610   19.3778 C   0  0  0  0  0  0  0  0  0  0  0  0
    8.1661  -14.3226   20.7021 C   0  0  0  0  0  0  0  0  0  0  0  0
    7.0764  -14.0087   21.2810 O   0  0  0  0  0  0  0  0  0  0  0  0
    9.0018  -15.2380   21.4035 N   0  0  0  0  0  0  0  0  0  0  0  0
    8.6638  -15.7627   22.7093 C   0  0  1  0  0  0  0  0  0  0  0  0
    9.4430  -17.0138   23.0381 C   0  0  0  0  0  0  0  0  0  0  0  0
    9.2217  -18.1103   22.0259 C   0  0  0  0  0  0  0  0  0  0  0  0
   10.0977  -19.2529   22.3804 C   0  0  0  0  0  0  0  0  0  0  0  0
    9.6188  -20.3291   22.8255 O   0  0  0  0  0  0  0  0  0  0  0  0
    8.8043  -14.7183   23.7670 C   0  0  0  0  0  0  0  0  0  0  0  0
    9.8542  -14.0431   23.9252 O   0  0  0  0  0  0  0  0  0  0  0  0
   11.4919  -19.2042   22.2432 O   0  0  0  0  0  0  0  0  0  0  0  0
    7.7165  -14.4676   24.6354 N   0  0  0  0  0  0  0  0  0  0  0  0
    7.6957  -13.4695   25.6534 C   0  0  1  0  0  0  0  0  0  0  0  0
    6.2505  -13.0011   25.8124 C   0  0  0  0  0  0  0  0  0  0  0  0
    6.1203  -11.7564   27.1088 S   0  0  0  0  0  0  0  0  0  0  0  0
    8.1529  -14.0809   26.9266 C   0  0  0  0  0  0  0  0  0  0  0  0
    8.7355  -13.3262   27.9495 O   0  0  0  0  0  0  0  0  0  0  0  0
    8.0326  -15.3146   27.1366 O   0  0  0  0  0  0  0  0  0  0  0  0
  2  1  1  0
  3  2  1  0
  4  3  2  0
  5  3  1  0
  6 11  1  0
  6  5  1  0
  6  7  1  1
  8  7  1  0
  9 10  2  0
  9  8  1  0
 11 12  2  0
 13  9  1  0
 14 15  1  0
 14 11  1  0
 15 16  1  1
 16 17  1  0
 18 19  1  0
 18 15  1  0
 20 18  2  0
M  END
$$$$
