GEC.pdb
     RDKit          3D

 20 19  0  0  1  0  0  0  0  0999 V2000
    7.3407  -12.8255   18.6593 N   0  0  0  0  0  0  0  0  0  0  0  0
    8.4964  -13.2010   19.4511 C   0  0  0  0  0  0  0  0  0  0  0  0
    8.0114  -13.8247   20.7070 C   0  0  0  0  0  0  0  0  0  0  0  0
    6.7836  -13.7798   21.0410 O   0  0  0  0  0  0  0  0  0  0  0  0
    8.8770  -14.5060   21.6096 N   0  0  0  0  0  0  0  0  0  0  0  0
    8.3877  -15.2564   22.7464 C   0  0  1  0  0  0  0  0  0  0  0  0
    8.7603  -16.7176   22.6657 C   0  0  0  0  0  0  0  0  0  0  0  0
    8.0929  -17.4170   21.5076 C   0  0  0  0  0  0  0  0  0  0  0  0
    7.4872  -18.6734   22.0107 C   0  0  0  0  0  0  0  0  0  0  0  0
    8.2024  -19.6153   22.4432 O   0  0  0  0  0  0  0  0  0  0  0  0
    8.8204  -14.6357   24.0336 C   0  0  0  0  0  0  0  0  0  0  0  0
   10.0213  -14.3613   24.2899 O   0  0  0  0  0  0  0  0  0  0  0  0
    6.1017  -18.8850   22.0347 O   0  0  0  0  0  0  0  0  0  0  0  0
    7.8471  -14.3386   25.0157 N   0  0  0  0  0  0  0  0  0  0  0  0
    8.1211  -13.7608   26.2901 C   0  0  1  0  0  0  0  0  0  0  0  0
    6.7965  -13.2657   26.8678 C   0  0  0  0  0  0  0  0  0  0  0  0
    6.2052  -11.8219   25.9665 S   0  0  0  0  0  0  0  0  0  0  0  0
    8.6774  -14.8124   27.1781 C   0  0  0  0  0  0  0  0  0  0  0  0
    9.2262  -14.5179   28.4301 O   0  0  0  0  0  0  0  0  0  0  0  0
    8.6765  -16.0219   26.8349 O   0  0  0  0  0  0  0  0  0  0  0  0
  2  1  1  0
  3  2  1  0
  4  3  2  0
  5  3  1  0
  6 11  1  0
  6  5  1  0
  6  7  1  6
  8  7  1  0
  9 10  2  0
  9  8  1  0
 11 12  2  0
 13  9  1  0
 14 15  1  0
 14 11  1  0
 15 16  1  1
 16 17  1  0
 18 19  1  0
 18 15  1  0
 20 18  2  0
M  END
$$$$
