GEC.pdb
     RDKit          3D

 20 19  0  0  1  0  0  0  0  0999 V2000
   -1.9380  -28.3127   29.3682 N   0  0  0  0  0  0  0  0  0  0  0  0
   -3.3643  -28.1815   29.5970 C   0  0  0  0  0  0  0  0  0  0  0  0
   -3.7473  -26.7746   29.3225 C   0  0  0  0  0  0  0  0  0  0  0  0
   -3.3313  -25.8176   30.0520 O   0  0  0  0  0  0  0  0  0  0  0  0
   -4.5949  -26.4075   28.2385 N   0  0  0  0  0  0  0  0  0  0  0  0
   -5.0849  -25.0586   28.0511 C   0  0  1  0  0  0  0  0  0  0  0  0
   -5.0253  -24.6282   26.6048 C   0  0  0  0  0  0  0  0  0  0  0  0
   -3.6089  -24.4474   26.1178 C   0  0  0  0  0  0  0  0  0  0  0  0
   -3.6565  -24.0396   24.6930 C   0  0  0  0  0  0  0  0  0  0  0  0
   -3.9462  -22.8600   24.3610 O   0  0  0  0  0  0  0  0  0  0  0  0
   -6.4502  -24.8913   28.6319 C   0  0  0  0  0  0  0  0  0  0  0  0
   -7.3518  -25.7618   28.5192 O   0  0  0  0  0  0  0  0  0  0  0  0
   -3.3856  -24.9303   23.6450 O   0  0  0  0  0  0  0  0  0  0  0  0
   -6.7556  -23.7070   29.3420 N   0  0  0  0  0  0  0  0  0  0  0  0
   -7.9976  -23.4383   29.9888 C   0  0  1  0  0  0  0  0  0  0  0  0
   -7.9102  -23.9963   31.4080 C   0  0  0  0  0  0  0  0  0  0  0  0
   -9.3515  -23.5130   32.3754 S   0  0  0  0  0  0  0  0  0  0  0  0
   -8.1900  -21.9677   30.0541 C   0  0  0  0  0  0  0  0  0  0  0  0
   -9.4548  -21.3767   29.9747 O   0  0  0  0  0  0  0  0  0  0  0  0
   -7.2123  -21.1883   30.1848 O   0  0  0  0  0  0  0  0  0  0  0  0
  2  1  1  0
  3  2  1  0
  4  3  2  0
  5  3  1  0
  6 11  1  0
  6  5  1  0
  6  7  1  6
  8  7  1  0
  9 10  2  0
  9  8  1  0
 11 12  2  0
 13  9  1  0
 14 15  1  0
 14 11  1  0
 15 16  1  1
 16 17  1  0
 18 19  1  0
 18 15  1  0
 20 18  2  0
M  END
$$$$
