GEC.pdb
     RDKit          3D

 20 19  0  0  1  0  0  0  0  0999 V2000
    5.7965  -19.1875   23.2691 N   0  0  0  0  0  0  0  0  0  0  0  0
    6.4373  -18.0213   22.6918 C   0  0  0  0  0  0  0  0  0  0  0  0
    7.7125  -17.7913   23.4145 C   0  0  0  0  0  0  0  0  0  0  0  0
    7.8873  -18.2089   24.6046 O   0  0  0  0  0  0  0  0  0  0  0  0
    8.8107  -17.0969   22.8314 N   0  0  0  0  0  0  0  0  0  0  0  0
   10.0066  -16.7607   23.5741 C   0  0  1  0  0  0  0  0  0  0  0  0
   11.2106  -16.6110   22.6749 C   0  0  0  0  0  0  0  0  0  0  0  0
   12.4855  -16.4003   23.4534 C   0  0  0  0  0  0  0  0  0  0  0  0
   13.6064  -16.2943   22.4885 C   0  0  0  0  0  0  0  0  0  0  0  0
   13.7636  -17.1461   21.5745 O   0  0  0  0  0  0  0  0  0  0  0  0
    9.7925  -15.5579   24.4325 C   0  0  0  0  0  0  0  0  0  0  0  0
    9.4464  -14.4406   23.9687 O   0  0  0  0  0  0  0  0  0  0  0  0
   14.5450  -15.2542   22.5353 O   0  0  0  0  0  0  0  0  0  0  0  0
    9.9840  -15.6666   25.8295 N   0  0  0  0  0  0  0  0  0  0  0  0
    9.7270  -14.6293   26.7734 C   0  0  1  0  0  0  0  0  0  0  0  0
    8.2219  -14.3687   26.7758 C   0  0  0  0  0  0  0  0  0  0  0  0
    7.7689  -13.2468   28.1111 S   0  0  0  0  0  0  0  0  0  0  0  0
   10.1425  -15.0988   28.1191 C   0  0  0  0  0  0  0  0  0  0  0  0
   10.3837  -14.2153   29.1758 O   0  0  0  0  0  0  0  0  0  0  0  0
   10.2953  -16.3226   28.3633 O   0  0  0  0  0  0  0  0  0  0  0  0
  2  1  1  0
  3  2  1  0
  4  3  2  0
  5  3  1  0
  6 11  1  0
  6  5  1  0
  6  7  1  6
  8  7  1  0
  9 10  2  0
  9  8  1  0
 11 12  2  0
 13  9  1  0
 14 15  1  0
 14 11  1  0
 15 16  1  1
 16 17  1  0
 18 19  1  0
 18 15  1  0
 20 18  2  0
M  END
$$$$
