GEC.pdb
     RDKit          3D

 20 19  0  0  1  0  0  0  0  0999 V2000
    6.8911  -17.0027   19.0292 N   0  0  0  0  0  0  0  0  0  0  0  0
    8.1382  -16.5115   19.5835 C   0  0  0  0  0  0  0  0  0  0  0  0
    8.0147  -16.5060   21.0620 C   0  0  0  0  0  0  0  0  0  0  0  0
    6.8793  -16.4402   21.6344 O   0  0  0  0  0  0  0  0  0  0  0  0
    9.1442  -16.5732   21.9268 N   0  0  0  0  0  0  0  0  0  0  0  0
    9.0261  -16.5687   23.3693 C   0  0  1  0  0  0  0  0  0  0  0  0
   10.1288  -17.3593   24.0322 C   0  0  0  0  0  0  0  0  0  0  0  0
    9.9928  -17.3855   25.5344 C   0  0  0  0  0  0  0  0  0  0  0  0
   11.0949  -18.2101   26.0860 C   0  0  0  0  0  0  0  0  0  0  0  0
   12.2932  -17.9991   25.7617 O   0  0  0  0  0  0  0  0  0  0  0  0
    8.9333  -15.1770   23.9021 C   0  0  0  0  0  0  0  0  0  0  0  0
    9.7289  -14.2622   23.5654 O   0  0  0  0  0  0  0  0  0  0  0  0
   10.8719  -19.2591   26.9887 O   0  0  0  0  0  0  0  0  0  0  0  0
    7.9106  -14.8607   24.8263 N   0  0  0  0  0  0  0  0  0  0  0  0
    7.6683  -13.5633   25.3659 C   0  0  1  0  0  0  0  0  0  0  0  0
    6.1551  -13.3669   25.4363 C   0  0  0  0  0  0  0  0  0  0  0  0
    5.7482  -11.8305   26.2851 S   0  0  0  0  0  0  0  0  0  0  0  0
    8.2315  -13.5076   26.7383 C   0  0  0  0  0  0  0  0  0  0  0  0
    8.4949  -12.2976   27.3879 O   0  0  0  0  0  0  0  0  0  0  0  0
    8.4964  -14.5578   27.3766 O   0  0  0  0  0  0  0  0  0  0  0  0
  2  1  1  0
  3  2  1  0
  4  3  2  0
  5  3  1  0
  6 11  1  0
  6  5  1  0
  6  7  1  1
  8  7  1  0
  9 10  2  0
  9  8  1  0
 11 12  2  0
 13  9  1  0
 14 15  1  0
 14 11  1  0
 15 16  1  1
 16 17  1  0
 18 19  1  0
 18 15  1  0
 20 18  2  0
M  END
$$$$
