GEC.pdb
     RDKit          3D

 20 19  0  0  1  0  0  0  0  0999 V2000
    6.1104  -19.6995   23.7027 N   0  0  0  0  0  0  0  0  0  0  0  0
    6.3882  -18.3100   23.3934 C   0  0  0  0  0  0  0  0  0  0  0  0
    7.7206  -17.9713   23.9516 C   0  0  0  0  0  0  0  0  0  0  0  0
    8.0200  -18.2299   25.1618 O   0  0  0  0  0  0  0  0  0  0  0  0
    8.7389  -17.3426   23.1796 N   0  0  0  0  0  0  0  0  0  0  0  0
    9.9369  -16.7858   23.7707 C   0  0  1  0  0  0  0  0  0  0  0  0
   10.9715  -16.4297   22.7298 C   0  0  0  0  0  0  0  0  0  0  0  0
   12.2466  -15.9069   23.3434 C   0  0  0  0  0  0  0  0  0  0  0  0
   13.3815  -16.3338   22.4899 C   0  0  0  0  0  0  0  0  0  0  0  0
   13.3631  -16.1571   21.2432 O   0  0  0  0  0  0  0  0  0  0  0  0
    9.6165  -15.6323   24.6629 C   0  0  0  0  0  0  0  0  0  0  0  0
    9.0242  -14.5989   24.2574 O   0  0  0  0  0  0  0  0  0  0  0  0
   14.5266  -16.9508   23.0122 O   0  0  0  0  0  0  0  0  0  0  0  0
    9.9900  -15.6919   26.0257 N   0  0  0  0  0  0  0  0  0  0  0  0
    9.8177  -14.6358   26.9680 C   0  0  1  0  0  0  0  0  0  0  0  0
    8.3172  -14.3986   27.1276 C   0  0  0  0  0  0  0  0  0  0  0  0
    7.9859  -12.6917   27.6001 S   0  0  0  0  0  0  0  0  0  0  0  0
   10.3846  -15.0655   28.2711 C   0  0  0  0  0  0  0  0  0  0  0  0
   10.6454  -14.1614   29.3055 O   0  0  0  0  0  0  0  0  0  0  0  0
   10.6551  -16.2722   28.4973 O   0  0  0  0  0  0  0  0  0  0  0  0
  2  1  1  0
  3  2  1  0
  4  3  2  0
  5  3  1  0
  6 11  1  0
  6  5  1  0
  6  7  1  6
  8  7  1  0
  9 10  2  0
  9  8  1  0
 11 12  2  0
 13  9  1  0
 14 15  1  0
 14 11  1  0
 15 16  1  1
 16 17  1  0
 18 19  1  0
 18 15  1  0
 20 18  2  0
M  END
$$$$
