GEC.pdb
     RDKit          3D

 20 19  0  0  1  0  0  0  0  0999 V2000
    7.0968  -13.0983   18.9739 N   0  0  0  0  0  0  0  0  0  0  0  0
    8.2194  -13.7228   19.6473 C   0  0  0  0  0  0  0  0  0  0  0  0
    7.7703  -14.1447   20.9970 C   0  0  0  0  0  0  0  0  0  0  0  0
    6.6566  -13.7585   21.4783 O   0  0  0  0  0  0  0  0  0  0  0  0
    8.5461  -14.9986   21.8320 N   0  0  0  0  0  0  0  0  0  0  0  0
    8.0671  -15.4934   23.1049 C   0  0  1  0  0  0  0  0  0  0  0  0
    8.4061  -16.9503   23.3123 C   0  0  0  0  0  0  0  0  0  0  0  0
    7.2275  -17.8560   23.0545 C   0  0  0  0  0  0  0  0  0  0  0  0
    7.0100  -18.6897   24.2613 C   0  0  0  0  0  0  0  0  0  0  0  0
    6.1066  -18.4109   25.0930 O   0  0  0  0  0  0  0  0  0  0  0  0
    8.5427  -14.6391   24.2333 C   0  0  0  0  0  0  0  0  0  0  0  0
    9.7448  -14.2924   24.3680 O   0  0  0  0  0  0  0  0  0  0  0  0
    7.7861  -19.8221   24.5447 O   0  0  0  0  0  0  0  0  0  0  0  0
    7.6109  -14.1937   25.1994 N   0  0  0  0  0  0  0  0  0  0  0  0
    7.9411  -13.4618   26.3777 C   0  0  1  0  0  0  0  0  0  0  0  0
    6.6717  -12.7607   26.8576 C   0  0  0  0  0  0  0  0  0  0  0  0
    6.2994  -11.3329   25.8235 S   0  0  0  0  0  0  0  0  0  0  0  0
    8.3931  -14.4183   27.4193 C   0  0  0  0  0  0  0  0  0  0  0  0
    8.9457  -13.9944   28.6319 O   0  0  0  0  0  0  0  0  0  0  0  0
    8.2954  -15.6601   27.2493 O   0  0  0  0  0  0  0  0  0  0  0  0
  2  1  1  0
  3  2  1  0
  4  3  2  0
  5  3  1  0
  6 11  1  0
  6  5  1  0
  6  7  1  1
  8  7  1  0
  9 10  2  0
  9  8  1  0
 11 12  2  0
 13  9  1  0
 14 15  1  0
 14 11  1  0
 15 16  1  1
 16 17  1  0
 18 19  1  0
 18 15  1  0
 20 18  2  0
M  END
$$$$
