QWT.pdb
     RDKit          3D

 31 32  0  0  1  0  0  0  0  0999 V2000
    9.3978  -12.7246   18.0061 N   0  0  0  0  0  0  0  0  0  0  0  0
    8.7287  -13.9977   17.9972 C   0  0  0  0  0  0  0  0  0  0  0  0
    7.8186  -14.1265   17.1414 O   0  0  0  0  0  0  0  0  0  0  0  0
    9.0672  -15.0633   18.9047 C   0  0  0  0  0  0  0  0  0  0  0  0
   10.1143  -14.8587   19.9187 C   0  0  0  0  0  0  0  0  0  0  0  0
   10.4947  -15.9890   20.7899 C   0  0  2  0  0  0  0  0  0  0  0  0
    9.9157  -17.2570   20.5363 N   0  0  0  0  0  0  0  0  0  0  0  0
   10.2289  -15.6069   22.2074 C   0  0  0  0  0  0  0  0  0  0  0  0
   10.5662  -14.4550   22.5756 O   0  0  0  0  0  0  0  0  0  0  0  0
    9.6287  -16.4408   23.1702 N   0  0  0  0  0  0  0  0  0  0  0  0
    9.2762  -15.9189   24.4675 C   0  0  1  0  0  0  0  0  0  0  0  0
    7.8818  -16.3243   24.8736 C   0  0  0  0  0  0  0  0  0  0  0  0
    6.9834  -15.1576   24.7057 C   0  0  0  0  0  0  0  0  0  0  0  0
    5.9488  -15.0512   23.7757 C   0  0  0  0  0  0  0  0  0  0  0  0
    5.3316  -13.8608   23.8954 N   0  0  0  0  0  0  0  0  0  0  0  0
    5.9358  -13.1851   24.8808 C   0  0  0  0  0  0  0  0  0  0  0  0
    5.6708  -11.9192   25.3857 C   0  0  0  0  0  0  0  0  0  0  0  0
    6.4250  -11.4188   26.4136 C   0  0  0  0  0  0  0  0  0  0  0  0
    7.4621  -12.2081   26.9339 C   0  0  0  0  0  0  0  0  0  0  0  0
    7.6985  -13.4540   26.4114 C   0  0  0  0  0  0  0  0  0  0  0  0
    6.9503  -13.9690   25.3882 C   0  0  0  0  0  0  0  0  0  0  0  0
   10.2819  -16.4072   25.4639 C   0  0  0  0  0  0  0  0  0  0  0  0
   11.1533  -17.2089   25.0483 O   0  0  0  0  0  0  0  0  0  0  0  0
   11.2019  -14.2597   28.8406 C   0  0  0  0  0  0  0  0  0  0  0  0
   11.0825  -15.7340   29.1079 C   0  0  1  0  0  0  0  0  0  0  0  0
    9.7656  -16.0320   29.5183 O   0  0  0  0  0  0  0  0  0  0  0  0
   11.2822  -16.4942   27.7896 C   0  0  2  0  0  0  0  0  0  0  0  0
   10.2935  -16.0102   26.8203 N   0  0  0  0  0  0  0  0  0  0  0  0
   11.1049  -17.9274   27.9606 C   0  0  0  0  0  0  0  0  0  0  0  0
   10.1399  -18.5329   27.4542 O   0  0  0  0  0  0  0  0  0  0  0  0
   12.0176  -18.6717   28.7017 O   0  0  0  0  0  0  0  0  0  0  0  0
  2  3  2  0
  2  1  1  0
  4  2  1  0
  5  4  1  0
  6  5  1  0
  6  7  1  6
  8  9  2  0
  8  6  1  0
 10  8  1  0
 11 10  1  0
 11 12  1  1
 12 13  1  0
 13 21  1  0
 13 14  2  0
 14 15  1  0
 16 15  1  0
 16 17  2  0
 18 17  1  0
 19 18  2  0
 20 21  2  0
 20 19  1  0
 21 16  1  0
 22 28  1  0
 22 11  1  0
 23 22  2  0
 25 27  1  0
 25 24  1  6
 26 25  1  0
 27 29  1  0
 27 28  1  6
 29 31  1  0
 30 29  2  0
M  END
$$$$
