QWT.pdb
     RDKit          3D

 31 32  0  0  1  0  0  0  0  0999 V2000
   10.2300  -17.6444   16.5268 N   0  0  0  0  0  0  0  0  0  0  0  0
   10.1878  -16.2957   16.0290 C   0  0  0  0  0  0  0  0  0  0  0  0
   10.8058  -16.0941   14.9545 O   0  0  0  0  0  0  0  0  0  0  0  0
    9.4891  -15.2352   16.7078 C   0  0  0  0  0  0  0  0  0  0  0  0
    8.6974  -15.5316   17.9127 C   0  0  0  0  0  0  0  0  0  0  0  0
    7.9163  -14.4453   18.5384 C   0  0  2  0  0  0  0  0  0  0  0  0
    8.1186  -13.1211   18.0775 N   0  0  0  0  0  0  0  0  0  0  0  0
    8.1404  -14.4875   20.0129 C   0  0  0  0  0  0  0  0  0  0  0  0
    9.0782  -13.7970   20.4819 O   0  0  0  0  0  0  0  0  0  0  0  0
    7.3807  -15.2457   20.9243 N   0  0  0  0  0  0  0  0  0  0  0  0
    7.6410  -15.1573   22.3399 C   0  0  1  0  0  0  0  0  0  0  0  0
    6.3660  -15.0512   23.1378 C   0  0  0  0  0  0  0  0  0  0  0  0
    6.7167  -14.8411   24.5623 C   0  0  0  0  0  0  0  0  0  0  0  0
    6.8024  -15.8355   25.5372 C   0  0  0  0  0  0  0  0  0  0  0  0
    7.1458  -15.3003   26.7237 N   0  0  0  0  0  0  0  0  0  0  0  0
    7.2876  -13.9803   26.5502 C   0  0  0  0  0  0  0  0  0  0  0  0
    7.6321  -12.9937   27.4643 C   0  0  0  0  0  0  0  0  0  0  0  0
    7.7223  -11.6874   27.0624 C   0  0  0  0  0  0  0  0  0  0  0  0
    7.4571  -11.3762   25.7200 C   0  0  0  0  0  0  0  0  0  0  0  0
    7.1180  -12.3746   24.8429 C   0  0  0  0  0  0  0  0  0  0  0  0
    7.0289  -13.6843   25.2286 C   0  0  0  0  0  0  0  0  0  0  0  0
    8.4267  -16.3634   22.7535 C   0  0  0  0  0  0  0  0  0  0  0  0
    7.9582  -17.4843   22.4391 O   0  0  0  0  0  0  0  0  0  0  0  0
   11.6905  -17.4059   21.6760 C   0  0  0  0  0  0  0  0  0  0  0  0
   11.8316  -17.3305   23.1705 C   0  0  1  0  0  0  0  0  0  0  0  0
   12.2784  -16.0427   23.5359 O   0  0  0  0  0  0  0  0  0  0  0  0
   10.4428  -17.4777   23.8072 C   0  0  2  0  0  0  0  0  0  0  0  0
    9.6469  -16.2947   23.4635 N   0  0  0  0  0  0  0  0  0  0  0  0
   10.5212  -17.5824   25.2555 C   0  0  0  0  0  0  0  0  0  0  0  0
   10.0673  -16.6929   26.0019 O   0  0  0  0  0  0  0  0  0  0  0  0
   11.1108  -18.6906   25.8558 O   0  0  0  0  0  0  0  0  0  0  0  0
  2  3  2  0
  2  1  1  0
  4  2  1  0
  5  4  1  0
  6  5  1  0
  6  7  1  6
  8  9  2  0
  8  6  1  0
 10  8  1  0
 11 10  1  0
 11 12  1  1
 12 13  1  0
 13 21  1  0
 13 14  2  0
 14 15  1  0
 16 15  1  0
 16 17  2  0
 18 17  1  0
 19 18  2  0
 20 21  2  0
 20 19  1  0
 21 16  1  0
 22 28  1  0
 22 11  1  0
 23 22  2  0
 25 27  1  0
 25 24  1  6
 26 25  1  0
 27 29  1  0
 27 28  1  1
 29 31  1  0
 30 29  2  0
M  END
$$$$
