QWT.pdb
     RDKit          3D

 31 32  0  0  1  0  0  0  0  0999 V2000
   13.2067  -16.1805   19.4469 N   0  0  0  0  0  0  0  0  0  0  0  0
   11.9490  -16.1259   18.7514 C   0  0  0  0  0  0  0  0  0  0  0  0
   12.0082  -16.2964   17.5086 O   0  0  0  0  0  0  0  0  0  0  0  0
   10.6966  -15.8898   19.4218 C   0  0  0  0  0  0  0  0  0  0  0  0
   10.6445  -15.8662   20.8925 C   0  0  0  0  0  0  0  0  0  0  0  0
   10.3017  -17.1082   21.6145 C   0  0  2  0  0  0  0  0  0  0  0  0
    9.1283  -17.8046   21.2333 N   0  0  0  0  0  0  0  0  0  0  0  0
   10.2368  -16.8068   23.0743 C   0  0  0  0  0  0  0  0  0  0  0  0
   11.1463  -16.0942   23.5653 O   0  0  0  0  0  0  0  0  0  0  0  0
    9.2323  -17.2624   23.9496 N   0  0  0  0  0  0  0  0  0  0  0  0
    9.2823  -16.9294   25.3518 C   0  0  1  0  0  0  0  0  0  0  0  0
    7.9034  -16.7368   25.9306 C   0  0  0  0  0  0  0  0  0  0  0  0
    7.3247  -15.4939   25.3677 C   0  0  0  0  0  0  0  0  0  0  0  0
    6.5202  -15.4099   24.2309 C   0  0  0  0  0  0  0  0  0  0  0  0
    6.1654  -14.1318   24.0011 N   0  0  0  0  0  0  0  0  0  0  0  0
    6.7170  -13.3767   24.9593 C   0  0  0  0  0  0  0  0  0  0  0  0
    6.6480  -12.0050   25.1627 C   0  0  0  0  0  0  0  0  0  0  0  0
    7.2979  -11.4354   26.2253 C   0  0  0  0  0  0  0  0  0  0  0  0
    8.0290  -12.2642   27.0900 C   0  0  0  0  0  0  0  0  0  0  0  0
    8.0780  -13.6154   26.8600 C   0  0  0  0  0  0  0  0  0  0  0  0
    7.4299  -14.1991   25.8058 C   0  0  0  0  0  0  0  0  0  0  0  0
   10.0123  -18.0207   26.0722 C   0  0  0  0  0  0  0  0  0  0  0  0
    9.6349  -19.1979   25.8566 O   0  0  0  0  0  0  0  0  0  0  0  0
   13.9092  -19.5943   28.6499 C   0  0  0  0  0  0  0  0  0  0  0  0
   13.2277  -18.5025   27.8737 C   0  0  1  0  0  0  0  0  0  0  0  0
   13.7391  -18.4712   26.5588 O   0  0  0  0  0  0  0  0  0  0  0  0
   11.7408  -18.8537   27.7261 C   0  0  2  0  0  0  0  0  0  0  0  0
   11.0856  -17.7871   26.9616 N   0  0  0  0  0  0  0  0  0  0  0  0
   11.0834  -18.9730   29.0178 C   0  0  0  0  0  0  0  0  0  0  0  0
   10.3339  -18.0784   29.4562 O   0  0  0  0  0  0  0  0  0  0  0  0
   11.2739  -20.1015   29.8092 O   0  0  0  0  0  0  0  0  0  0  0  0
  2  3  2  0
  2  1  1  0
  4  2  1  0
  5  4  1  0
  6  5  1  0
  6  7  1  6
  8  9  2  0
  8  6  1  0
 10  8  1  0
 11 10  1  0
 11 12  1  1
 12 13  1  0
 13 21  1  0
 13 14  2  0
 14 15  1  0
 16 15  1  0
 16 17  2  0
 18 17  1  0
 19 18  2  0
 20 21  2  0
 20 19  1  0
 21 16  1  0
 22 28  1  0
 22 11  1  0
 23 22  2  0
 25 27  1  0
 25 24  1  1
 26 25  1  0
 27 29  1  0
 27 28  1  6
 29 31  1  0
 30 29  2  0
M  END
$$$$
