QWT.pdb
     RDKit          3D

 31 32  0  0  1  0  0  0  0  0999 V2000
    9.8172  -15.9503   17.9932 N   0  0  0  0  0  0  0  0  0  0  0  0
    8.4518  -15.5413   18.1855 C   0  0  0  0  0  0  0  0  0  0  0  0
    7.7237  -15.5830   17.1631 O   0  0  0  0  0  0  0  0  0  0  0  0
    7.9393  -15.1079   19.4595 C   0  0  0  0  0  0  0  0  0  0  0  0
    8.7565  -15.2704   20.6729 C   0  0  0  0  0  0  0  0  0  0  0  0
    8.6982  -16.5511   21.4062 C   0  0  2  0  0  0  0  0  0  0  0  0
    7.4507  -17.2162   21.4983 N   0  0  0  0  0  0  0  0  0  0  0  0
    9.2387  -16.3369   22.7803 C   0  0  0  0  0  0  0  0  0  0  0  0
   10.2305  -15.5777   22.9068 O   0  0  0  0  0  0  0  0  0  0  0  0
    8.7230  -16.9233   23.9519 N   0  0  0  0  0  0  0  0  0  0  0  0
    9.4237  -16.7851   25.2047 C   0  0  1  0  0  0  0  0  0  0  0  0
    8.4738  -16.5780   26.3572 C   0  0  0  0  0  0  0  0  0  0  0  0
    7.4755  -15.5541   25.9678 C   0  0  0  0  0  0  0  0  0  0  0  0
    6.2387  -15.8046   25.3729 C   0  0  0  0  0  0  0  0  0  0  0  0
    5.5812  -14.6504   25.1545 N   0  0  0  0  0  0  0  0  0  0  0  0
    6.3563  -13.6502   25.5920 C   0  0  0  0  0  0  0  0  0  0  0  0
    6.1282  -12.2806   25.5912 C   0  0  0  0  0  0  0  0  0  0  0  0
    7.0721  -11.4276   26.0986 C   0  0  0  0  0  0  0  0  0  0  0  0
    8.2624  -11.9675   26.6094 C   0  0  0  0  0  0  0  0  0  0  0  0
    8.4570  -13.3252   26.5938 C   0  0  0  0  0  0  0  0  0  0  0  0
    7.5212  -14.1898   26.0950 C   0  0  0  0  0  0  0  0  0  0  0  0
   10.2580  -18.0103   25.4187 C   0  0  0  0  0  0  0  0  0  0  0  0
    9.7148  -19.1175   25.1872 O   0  0  0  0  0  0  0  0  0  0  0  0
   13.4489  -18.9021   23.9053 C   0  0  0  0  0  0  0  0  0  0  0  0
   13.7275  -19.0588   25.3740 C   0  0  1  0  0  0  0  0  0  0  0  0
   14.3287  -17.8809   25.8664 O   0  0  0  0  0  0  0  0  0  0  0  0
   12.3923  -19.1800   26.1212 C   0  0  2  0  0  0  0  0  0  0  0  0
   11.6013  -17.9735   25.8568 N   0  0  0  0  0  0  0  0  0  0  0  0
   12.5865  -19.3049   27.5570 C   0  0  0  0  0  0  0  0  0  0  0  0
   12.2586  -18.3952   28.3438 O   0  0  0  0  0  0  0  0  0  0  0  0
   13.1493  -20.4562   28.0992 O   0  0  0  0  0  0  0  0  0  0  0  0
  2  3  2  0
  2  1  1  0
  4  2  1  0
  5  4  1  0
  6  5  1  0
  6  7  1  1
  8  9  2  0
  8  6  1  0
 10  8  1  0
 11 10  1  0
 11 12  1  1
 12 13  1  0
 13 21  1  0
 13 14  2  0
 14 15  1  0
 16 15  1  0
 16 17  2  0
 18 17  1  0
 19 18  2  0
 20 21  2  0
 20 19  1  0
 21 16  1  0
 22 28  1  0
 22 11  1  0
 23 22  2  0
 25 27  1  0
 25 24  1  6
 26 25  1  0
 27 29  1  0
 27 28  1  1
 29 31  1  0
 30 29  2  0
M  END
$$$$
