QWT.pdb
     RDKit          3D

 31 32  0  0  1  0  0  0  0  0999 V2000
    9.0508  -12.6822   18.2958 N   0  0  0  0  0  0  0  0  0  0  0  0
    7.8577  -13.4553   18.0783 C   0  0  0  0  0  0  0  0  0  0  0  0
    7.3229  -13.3221   16.9498 O   0  0  0  0  0  0  0  0  0  0  0  0
    7.2998  -14.3272   19.0794 C   0  0  0  0  0  0  0  0  0  0  0  0
    8.0032  -14.5215   20.3577 C   0  0  0  0  0  0  0  0  0  0  0  0
    8.2749  -15.8974   20.8208 C   0  0  2  0  0  0  0  0  0  0  0  0
    7.1886  -16.8023   20.9118 N   0  0  0  0  0  0  0  0  0  0  0  0
    8.9622  -15.8267   22.1432 C   0  0  0  0  0  0  0  0  0  0  0  0
    9.9066  -15.0091   22.2683 O   0  0  0  0  0  0  0  0  0  0  0  0
    8.6350  -16.6097   23.2667 N   0  0  0  0  0  0  0  0  0  0  0  0
    9.4547  -16.5608   24.4522 C   0  0  1  0  0  0  0  0  0  0  0  0
    8.6209  -16.5173   25.7077 C   0  0  0  0  0  0  0  0  0  0  0  0
    7.6102  -15.4426   25.5660 C   0  0  0  0  0  0  0  0  0  0  0  0
    6.3028  -15.6068   25.1073 C   0  0  0  0  0  0  0  0  0  0  0  0
    5.6549  -14.4268   25.1059 N   0  0  0  0  0  0  0  0  0  0  0  0
    6.5051  -13.4940   25.5526 C   0  0  0  0  0  0  0  0  0  0  0  0
    6.3159  -12.1307   25.7360 C   0  0  0  0  0  0  0  0  0  0  0  0
    7.3382  -11.3543   26.2136 C   0  0  0  0  0  0  0  0  0  0  0  0
    8.5674  -11.9649   26.5056 C   0  0  0  0  0  0  0  0  0  0  0  0
    8.7217  -13.3139   26.3118 C   0  0  0  0  0  0  0  0  0  0  0  0
    7.7083  -14.1029   25.8403 C   0  0  0  0  0  0  0  0  0  0  0  0
   10.3556  -17.7571   24.4549 C   0  0  0  0  0  0  0  0  0  0  0  0
    9.8464  -18.8535   24.7917 O   0  0  0  0  0  0  0  0  0  0  0  0
   12.7198  -18.6134   21.5780 C   0  0  0  0  0  0  0  0  0  0  0  0
   13.5322  -18.7367   22.8366 C   0  0  1  0  0  0  0  0  0  0  0  0
   14.2262  -17.5299   23.0680 O   0  0  0  0  0  0  0  0  0  0  0  0
   12.5782  -18.8952   24.0285 C   0  0  2  0  0  0  0  0  0  0  0  0
   11.7226  -17.7060   24.0995 N   0  0  0  0  0  0  0  0  0  0  0  0
   13.2999  -19.0262   25.2841 C   0  0  0  0  0  0  0  0  0  0  0  0
   13.9395  -20.0582   25.5672 O   0  0  0  0  0  0  0  0  0  0  0  0
   13.2977  -17.9919   26.2149 O   0  0  0  0  0  0  0  0  0  0  0  0
  2  3  2  0
  2  1  1  0
  4  2  1  0
  5  4  1  0
  6  5  1  0
  6  7  1  1
  8  9  2  0
  8  6  1  0
 10  8  1  0
 11 10  1  0
 11 12  1  1
 12 13  1  0
 13 21  1  0
 13 14  2  0
 14 15  1  0
 16 15  1  0
 16 17  2  0
 18 17  1  0
 19 18  2  0
 20 21  2  0
 20 19  1  0
 21 16  1  0
 22 28  1  0
 22 11  1  0
 23 22  2  0
 25 27  1  0
 25 24  1  6
 26 25  1  0
 27 29  1  0
 27 28  1  1
 29 31  1  0
 30 29  2  0
M  END
$$$$
