QWT.pdb
     RDKit          3D

 31 32  0  0  1  0  0  0  0  0999 V2000
    8.5639  -12.0830   19.2090 N   0  0  0  0  0  0  0  0  0  0  0  0
    8.3483  -13.2941   18.4639 C   0  0  0  0  0  0  0  0  0  0  0  0
    7.8074  -13.1507   17.3396 O   0  0  0  0  0  0  0  0  0  0  0  0
    8.7207  -14.5930   18.9618 C   0  0  0  0  0  0  0  0  0  0  0  0
    9.3503  -14.7184   20.2863 C   0  0  0  0  0  0  0  0  0  0  0  0
    9.7244  -16.0612   20.7743 C   0  0  2  0  0  0  0  0  0  0  0  0
    8.9649  -17.1724   20.3321 N   0  0  0  0  0  0  0  0  0  0  0  0
    9.7326  -16.0394   22.2661 C   0  0  0  0  0  0  0  0  0  0  0  0
   10.5256  -15.2497   22.8351 O   0  0  0  0  0  0  0  0  0  0  0  0
    8.9188  -16.8399   23.0904 N   0  0  0  0  0  0  0  0  0  0  0  0
    9.0089  -16.7345   24.5258 C   0  0  1  0  0  0  0  0  0  0  0  0
    7.6525  -16.5569   25.1600 C   0  0  0  0  0  0  0  0  0  0  0  0
    7.1590  -15.1953   24.8454 C   0  0  0  0  0  0  0  0  0  0  0  0
    6.5763  -14.7960   23.6423 C   0  0  0  0  0  0  0  0  0  0  0  0
    6.2405  -13.4934   23.6937 N   0  0  0  0  0  0  0  0  0  0  0  0
    6.5884  -13.0297   24.9005 C   0  0  0  0  0  0  0  0  0  0  0  0
    6.4514  -11.7575   25.4394 C   0  0  0  0  0  0  0  0  0  0  0  0
    6.8808  -11.5028   26.7149 C   0  0  0  0  0  0  0  0  0  0  0  0
    7.4589  -12.5477   27.4518 C   0  0  0  0  0  0  0  0  0  0  0  0
    7.5807  -13.7927   26.8893 C   0  0  0  0  0  0  0  0  0  0  0  0
    7.1518  -14.0632   25.6186 C   0  0  0  0  0  0  0  0  0  0  0  0
    9.6826  -17.9651   25.0499 C   0  0  0  0  0  0  0  0  0  0  0  0
    9.0040  -19.0204   25.0733 O   0  0  0  0  0  0  0  0  0  0  0  0
   12.8852  -19.4075   23.9245 C   0  0  0  0  0  0  0  0  0  0  0  0
   13.0452  -19.3392   25.4175 C   0  0  1  0  0  0  0  0  0  0  0  0
   13.7480  -18.1648   25.7614 O   0  0  0  0  0  0  0  0  0  0  0  0
   11.6584  -19.1885   26.0578 C   0  0  2  0  0  0  0  0  0  0  0  0
   11.0202  -17.9889   25.5059 N   0  0  0  0  0  0  0  0  0  0  0  0
   11.7433  -19.0487   27.5028 C   0  0  0  0  0  0  0  0  0  0  0  0
   12.0484  -20.0092   28.2368 O   0  0  0  0  0  0  0  0  0  0  0  0
   11.4842  -17.8257   28.1137 O   0  0  0  0  0  0  0  0  0  0  0  0
  2  3  2  0
  2  1  1  0
  4  2  1  0
  5  4  1  0
  6  5  1  0
  6  7  1  1
  8  9  2  0
  8  6  1  0
 10  8  1  0
 11 10  1  0
 11 12  1  1
 12 13  1  0
 13 21  1  0
 13 14  2  0
 14 15  1  0
 16 15  1  0
 16 17  2  0
 18 17  1  0
 19 18  2  0
 20 21  2  0
 20 19  1  0
 21 16  1  0
 22 28  1  0
 22 11  1  0
 23 22  2  0
 25 27  1  0
 25 24  1  6
 26 25  1  0
 27 29  1  0
 27 28  1  6
 29 31  1  0
 30 29  2  0
M  END
$$$$
