QWT.pdb
     RDKit          3D

 31 32  0  0  1  0  0  0  0  0999 V2000
   10.1060  -14.5860   17.1176 N   0  0  0  0  0  0  0  0  0  0  0  0
    9.0558  -15.5686   17.1159 C   0  0  0  0  0  0  0  0  0  0  0  0
    7.9535  -15.1841   16.6531 O   0  0  0  0  0  0  0  0  0  0  0  0
    9.2401  -16.9083   17.6108 C   0  0  0  0  0  0  0  0  0  0  0  0
   10.5510  -17.3224   18.1367 C   0  0  0  0  0  0  0  0  0  0  0  0
   10.5989  -18.2760   19.2635 C   0  0  2  0  0  0  0  0  0  0  0  0
    9.7525  -19.4113   19.2192 N   0  0  0  0  0  0  0  0  0  0  0  0
   10.3456  -17.5286   20.5297 C   0  0  0  0  0  0  0  0  0  0  0  0
   11.0887  -16.5509   20.7904 O   0  0  0  0  0  0  0  0  0  0  0  0
    9.3352  -17.8359   21.4610 N   0  0  0  0  0  0  0  0  0  0  0  0
    9.2349  -17.0987   22.6964 C   0  0  1  0  0  0  0  0  0  0  0  0
    7.8240  -16.6360   22.9589 C   0  0  0  0  0  0  0  0  0  0  0  0
    7.3866  -15.7884   21.8245 C   0  0  0  0  0  0  0  0  0  0  0  0
    6.5005  -16.1681   20.8159 C   0  0  0  0  0  0  0  0  0  0  0  0
    6.3201  -15.1571   19.9455 N   0  0  0  0  0  0  0  0  0  0  0  0
    7.0655  -14.1247   20.3591 C   0  0  0  0  0  0  0  0  0  0  0  0
    7.2210  -12.8604   19.8066 C   0  0  0  0  0  0  0  0  0  0  0  0
    8.0454  -11.9460   20.4069 C   0  0  0  0  0  0  0  0  0  0  0  0
    8.7228  -12.3174   21.5783 C   0  0  0  0  0  0  0  0  0  0  0  0
    8.5481  -13.5749   22.0974 C   0  0  0  0  0  0  0  0  0  0  0  0
    7.7243  -14.4970   21.5118 C   0  0  0  0  0  0  0  0  0  0  0  0
    9.7224  -17.9727   23.8106 C   0  0  0  0  0  0  0  0  0  0  0  0
    9.0272  -18.9789   24.0919 O   0  0  0  0  0  0  0  0  0  0  0  0
   12.9335  -19.6128   23.8640 C   0  0  0  0  0  0  0  0  0  0  0  0
   12.8887  -18.9623   25.2183 C   0  0  1  0  0  0  0  0  0  0  0  0
   13.5521  -17.7180   25.1642 O   0  0  0  0  0  0  0  0  0  0  0  0
   11.4293  -18.6335   25.5618 C   0  0  2  0  0  0  0  0  0  0  0  0
   10.9064  -17.7204   24.5400 N   0  0  0  0  0  0  0  0  0  0  0  0
   11.3117  -17.9942   26.8627 C   0  0  0  0  0  0  0  0  0  0  0  0
   11.0191  -16.7876   26.9753 O   0  0  0  0  0  0  0  0  0  0  0  0
   11.5240  -18.7192   28.0312 O   0  0  0  0  0  0  0  0  0  0  0  0
  2  3  2  0
  2  1  1  0
  4  2  1  0
  5  4  1  0
  6  5  1  0
  6  7  1  6
  8  9  2  0
  8  6  1  0
 10  8  1  0
 11 10  1  0
 11 12  1  1
 12 13  1  0
 13 21  1  0
 13 14  2  0
 14 15  1  0
 16 15  1  0
 16 17  2  0
 18 17  1  0
 19 18  2  0
 20 21  2  0
 20 19  1  0
 21 16  1  0
 22 28  1  0
 22 11  1  0
 23 22  2  0
 25 27  1  0
 25 24  1  6
 26 25  1  0
 27 29  1  0
 27 28  1  6
 29 31  1  0
 30 29  2  0
M  END
$$$$
