QWT.pdb
     RDKit          3D

 31 32  0  0  1  0  0  0  0  0999 V2000
    9.7454  -14.0057   15.4293 N   0  0  0  0  0  0  0  0  0  0  0  0
    8.3120  -14.0308   15.5446 C   0  0  0  0  0  0  0  0  0  0  0  0
    7.6833  -14.1751   14.4671 O   0  0  0  0  0  0  0  0  0  0  0  0
    7.6284  -13.8983   16.8050 C   0  0  0  0  0  0  0  0  0  0  0  0
    8.3916  -13.9484   18.0626 C   0  0  0  0  0  0  0  0  0  0  0  0
    8.5616  -15.2483   18.7428 C   0  0  2  0  0  0  0  0  0  0  0  0
    7.6298  -16.2787   18.4651 N   0  0  0  0  0  0  0  0  0  0  0  0
    8.6023  -15.0123   20.2155 C   0  0  0  0  0  0  0  0  0  0  0  0
    9.3225  -14.0746   20.6377 O   0  0  0  0  0  0  0  0  0  0  0  0
    7.8950  -15.7630   21.1740 N   0  0  0  0  0  0  0  0  0  0  0  0
    8.0537  -15.4834   22.5798 C   0  0  1  0  0  0  0  0  0  0  0  0
    6.7240  -15.3120   23.2697 C   0  0  0  0  0  0  0  0  0  0  0  0
    6.9702  -14.9524   24.6863 C   0  0  0  0  0  0  0  0  0  0  0  0
    7.1867  -15.8515   25.7309 C   0  0  0  0  0  0  0  0  0  0  0  0
    7.3789  -15.1893   26.8871 N   0  0  0  0  0  0  0  0  0  0  0  0
    7.2942  -13.8789   26.6256 C   0  0  0  0  0  0  0  0  0  0  0  0
    7.4201  -12.7905   27.4784 C   0  0  0  0  0  0  0  0  0  0  0  0
    7.2970  -11.5173   26.9886 C   0  0  0  0  0  0  0  0  0  0  0  0
    7.0399  -11.3445   25.6200 C   0  0  0  0  0  0  0  0  0  0  0  0
    6.9197  -12.4412   24.8050 C   0  0  0  0  0  0  0  0  0  0  0  0
    7.0452  -13.7185   25.2790 C   0  0  0  0  0  0  0  0  0  0  0  0
    8.8329  -16.6018   23.2003 C   0  0  0  0  0  0  0  0  0  0  0  0
    8.2859  -17.7309   23.2281 O   0  0  0  0  0  0  0  0  0  0  0  0
   12.2373  -17.7758   22.2389 C   0  0  0  0  0  0  0  0  0  0  0  0
   12.3191  -17.5104   23.7161 C   0  0  1  0  0  0  0  0  0  0  0  0
   12.7760  -16.1928   23.9321 O   0  0  0  0  0  0  0  0  0  0  0  0
   10.9030  -17.5544   24.3065 C   0  0  2  0  0  0  0  0  0  0  0  0
   10.1294  -16.4443   23.7405 N   0  0  0  0  0  0  0  0  0  0  0  0
   10.9175  -17.4222   25.7546 C   0  0  0  0  0  0  0  0  0  0  0  0
   10.3943  -16.4469   26.3284 O   0  0  0  0  0  0  0  0  0  0  0  0
   11.5216  -18.3914   26.5495 O   0  0  0  0  0  0  0  0  0  0  0  0
  2  3  2  0
  2  1  1  0
  4  2  1  0
  5  4  1  0
  6  5  1  0
  6  7  1  1
  8  9  2  0
  8  6  1  0
 10  8  1  0
 11 10  1  0
 11 12  1  1
 12 13  1  0
 13 21  1  0
 13 14  2  0
 14 15  1  0
 16 15  1  0
 16 17  2  0
 18 17  1  0
 19 18  2  0
 20 21  2  0
 20 19  1  0
 21 16  1  0
 22 28  1  0
 22 11  1  0
 23 22  2  0
 25 27  1  0
 25 24  1  6
 26 25  1  0
 27 29  1  0
 27 28  1  6
 29 31  1  0
 30 29  2  0
M  END
$$$$
