QWT.pdb
     RDKit          3D

 31 32  0  0  1  0  0  0  0  0999 V2000
    8.1451  -14.7965   17.2466 N   0  0  0  0  0  0  0  0  0  0  0  0
    7.7467  -13.8205   18.2250 C   0  0  0  0  0  0  0  0  0  0  0  0
    7.9864  -12.6243   17.9270 O   0  0  0  0  0  0  0  0  0  0  0  0
    7.1157  -14.1761   19.4695 C   0  0  0  0  0  0  0  0  0  0  0  0
    7.9345  -14.3799   20.6755 C   0  0  0  0  0  0  0  0  0  0  0  0
    8.2484  -15.7592   21.1003 C   0  0  2  0  0  0  0  0  0  0  0  0
    7.2070  -16.7197   21.0864 N   0  0  0  0  0  0  0  0  0  0  0  0
    8.8485  -15.7111   22.4654 C   0  0  0  0  0  0  0  0  0  0  0  0
    9.7964  -14.9111   22.6596 O   0  0  0  0  0  0  0  0  0  0  0  0
    8.4352  -16.4973   23.5579 N   0  0  0  0  0  0  0  0  0  0  0  0
    9.1141  -16.3961   24.8262 C   0  0  1  0  0  0  0  0  0  0  0  0
    8.1496  -16.4568   25.9835 C   0  0  0  0  0  0  0  0  0  0  0  0
    7.2620  -15.2715   25.9208 C   0  0  0  0  0  0  0  0  0  0  0  0
    5.9088  -15.2821   25.5812 C   0  0  0  0  0  0  0  0  0  0  0  0
    5.4048  -14.0346   25.6250 N   0  0  0  0  0  0  0  0  0  0  0  0
    6.3939  -13.2073   25.9853 C   0  0  0  0  0  0  0  0  0  0  0  0
    6.3814  -11.8314   26.1707 C   0  0  0  0  0  0  0  0  0  0  0  0
    7.5254  -11.1795   26.5481 C   0  0  0  0  0  0  0  0  0  0  0  0
    8.6965  -11.9293   26.7364 C   0  0  0  0  0  0  0  0  0  0  0  0
    8.6752  -13.2871   26.5435 C   0  0  0  0  0  0  0  0  0  0  0  0
    7.5391  -13.9525   26.1716 C   0  0  0  0  0  0  0  0  0  0  0  0
   10.1195  -17.5026   24.9150 C   0  0  0  0  0  0  0  0  0  0  0  0
    9.7067  -18.6671   24.6953 O   0  0  0  0  0  0  0  0  0  0  0  0
   14.2237  -16.7643   25.9153 C   0  0  0  0  0  0  0  0  0  0  0  0
   13.8408  -17.8237   24.9202 C   0  0  1  0  0  0  0  0  0  0  0  0
   14.7322  -18.9125   25.0266 O   0  0  0  0  0  0  0  0  0  0  0  0
   12.4630  -18.3843   25.2989 C   0  0  2  0  0  0  0  0  0  0  0  0
   11.4828  -17.2957   25.2253 N   0  0  0  0  0  0  0  0  0  0  0  0
   12.4540  -18.9297   26.6470 C   0  0  0  0  0  0  0  0  0  0  0  0
   11.8238  -18.3800   27.5716 O   0  0  0  0  0  0  0  0  0  0  0  0
   13.1557  -20.0935   26.9461 O   0  0  0  0  0  0  0  0  0  0  0  0
  2  3  2  0
  2  1  1  0
  4  2  1  0
  5  4  1  0
  6  5  1  0
  6  7  1  1
  8  9  2  0
  8  6  1  0
 10  8  1  0
 11 10  1  0
 11 12  1  1
 12 13  1  0
 13 21  1  0
 13 14  2  0
 14 15  1  0
 16 15  1  0
 16 17  2  0
 18 17  1  0
 19 18  2  0
 20 21  2  0
 20 19  1  0
 21 16  1  0
 22 28  1  0
 22 11  1  0
 23 22  2  0
 25 27  1  0
 25 24  1  1
 26 25  1  0
 27 29  1  0
 27 28  1  1
 29 31  1  0
 30 29  2  0
M  END
$$$$
