QWT.pdb
     RDKit          3D

 31 32  0  0  1  0  0  0  0  0999 V2000
    8.0832  -15.1449   15.3408 N   0  0  0  0  0  0  0  0  0  0  0  0
    8.1861  -14.2056   16.4251 C   0  0  0  0  0  0  0  0  0  0  0  0
    8.4371  -13.0204   16.0945 O   0  0  0  0  0  0  0  0  0  0  0  0
    8.0172  -14.5845   17.8040 C   0  0  0  0  0  0  0  0  0  0  0  0
    9.1830  -15.0074   18.5969 C   0  0  0  0  0  0  0  0  0  0  0  0
    9.0947  -16.2517   19.3877 C   0  0  2  0  0  0  0  0  0  0  0  0
    8.0097  -17.1287   19.1413 N   0  0  0  0  0  0  0  0  0  0  0  0
    9.1146  -15.8964   20.8366 C   0  0  0  0  0  0  0  0  0  0  0  0
   10.0692  -15.1959   21.2539 O   0  0  0  0  0  0  0  0  0  0  0  0
    8.1436  -16.2881   21.7780 N   0  0  0  0  0  0  0  0  0  0  0  0
    8.2930  -15.9352   23.1682 C   0  0  1  0  0  0  0  0  0  0  0  0
    6.9603  -15.6932   23.8305 C   0  0  0  0  0  0  0  0  0  0  0  0
    7.1986  -15.1021   25.1685 C   0  0  0  0  0  0  0  0  0  0  0  0
    7.5342  -15.8074   26.3246 C   0  0  0  0  0  0  0  0  0  0  0  0
    7.6804  -14.9632   27.3629 N   0  0  0  0  0  0  0  0  0  0  0  0
    7.4494  -13.7226   26.9157 C   0  0  0  0  0  0  0  0  0  0  0  0
    7.4769  -12.5115   27.5943 C   0  0  0  0  0  0  0  0  0  0  0  0
    7.2065  -11.3456   26.9282 C   0  0  0  0  0  0  0  0  0  0  0  0
    6.9012  -11.4072   25.5600 C   0  0  0  0  0  0  0  0  0  0  0  0
    6.8811  -12.6201   24.9198 C   0  0  0  0  0  0  0  0  0  0  0  0
    7.1540  -13.7922   25.5707 C   0  0  0  0  0  0  0  0  0  0  0  0
    9.0365  -17.0364   23.8593 C   0  0  0  0  0  0  0  0  0  0  0  0
    8.5266  -18.1823   23.8173 O   0  0  0  0  0  0  0  0  0  0  0  0
   12.3607  -18.2784   23.1656 C   0  0  0  0  0  0  0  0  0  0  0  0
   12.4221  -17.9652   24.6344 C   0  0  1  0  0  0  0  0  0  0  0  0
   12.9258  -16.6595   24.8157 O   0  0  0  0  0  0  0  0  0  0  0  0
   10.9933  -17.9340   25.1943 C   0  0  2  0  0  0  0  0  0  0  0  0
   10.2613  -16.8454   24.5382 N   0  0  0  0  0  0  0  0  0  0  0  0
   10.9810  -17.7051   26.6304 C   0  0  0  0  0  0  0  0  0  0  0  0
   10.5126  -16.6600   27.1229 O   0  0  0  0  0  0  0  0  0  0  0  0
   11.4967  -18.6567   27.5048 O   0  0  0  0  0  0  0  0  0  0  0  0
  2  3  2  0
  2  1  1  0
  4  2  1  0
  5  4  1  0
  6  5  1  0
  6  7  1  6
  8  9  2  0
  8  6  1  0
 10  8  1  0
 11 10  1  0
 11 12  1  1
 12 13  1  0
 13 21  1  0
 13 14  2  0
 14 15  1  0
 16 15  1  0
 16 17  2  0
 18 17  1  0
 19 18  2  0
 20 21  2  0
 20 19  1  0
 21 16  1  0
 22 28  1  0
 22 11  1  0
 23 22  2  0
 25 27  1  0
 25 24  1  6
 26 25  1  0
 27 29  1  0
 27 28  1  6
 29 31  1  0
 30 29  2  0
M  END
$$$$
