QWT.pdb
     RDKit          3D

 31 32  0  0  1  0  0  0  0  0999 V2000
    8.6924  -12.6739   17.3733 N   0  0  0  0  0  0  0  0  0  0  0  0
    7.9858  -13.8738   17.7332 C   0  0  0  0  0  0  0  0  0  0  0  0
    7.9916  -14.7864   16.8705 O   0  0  0  0  0  0  0  0  0  0  0  0
    7.3097  -14.0324   18.9946 C   0  0  0  0  0  0  0  0  0  0  0  0
    8.0916  -14.1793   20.2329 C   0  0  0  0  0  0  0  0  0  0  0  0
    8.3891  -15.5372   20.7321 C   0  0  2  0  0  0  0  0  0  0  0  0
    7.3561  -16.5062   20.6994 N   0  0  0  0  0  0  0  0  0  0  0  0
    8.9102  -15.4275   22.1259 C   0  0  0  0  0  0  0  0  0  0  0  0
    9.6970  -14.4837   22.3835 O   0  0  0  0  0  0  0  0  0  0  0  0
    8.5893  -16.3043   23.1798 N   0  0  0  0  0  0  0  0  0  0  0  0
    9.3138  -16.2420   24.4252 C   0  0  1  0  0  0  0  0  0  0  0  0
    8.4014  -16.4174   25.6127 C   0  0  0  0  0  0  0  0  0  0  0  0
    7.4351  -15.2938   25.6355 C   0  0  0  0  0  0  0  0  0  0  0  0
    6.0965  -15.3604   25.2481 C   0  0  0  0  0  0  0  0  0  0  0  0
    5.5052  -14.1602   25.3969 N   0  0  0  0  0  0  0  0  0  0  0  0
    6.4231  -13.3094   25.8725 C   0  0  0  0  0  0  0  0  0  0  0  0
    6.3088  -11.9631   26.1925 C   0  0  0  0  0  0  0  0  0  0  0  0
    7.3929  -11.2778   26.6734 C   0  0  0  0  0  0  0  0  0  0  0  0
    8.6076  -11.9629   26.8287 C   0  0  0  0  0  0  0  0  0  0  0  0
    8.6871  -13.2926   26.5019 C   0  0  0  0  0  0  0  0  0  0  0  0
    7.6117  -13.9914   26.0253 C   0  0  0  0  0  0  0  0  0  0  0  0
   10.3740  -17.2996   24.4100 C   0  0  0  0  0  0  0  0  0  0  0  0
    9.9919  -18.4881   24.2821 O   0  0  0  0  0  0  0  0  0  0  0  0
   15.2083  -18.4722   24.3061 C   0  0  0  0  0  0  0  0  0  0  0  0
   14.1287  -17.4352   24.1713 C   0  0  1  0  0  0  0  0  0  0  0  0
   13.9989  -17.0656   22.8155 O   0  0  0  0  0  0  0  0  0  0  0  0
   12.7836  -18.0679   24.5536 C   0  0  2  0  0  0  0  0  0  0  0  0
   11.7550  -17.0226   24.5276 N   0  0  0  0  0  0  0  0  0  0  0  0
   12.8208  -18.6527   25.8845 C   0  0  0  0  0  0  0  0  0  0  0  0
   13.0849  -19.8580   26.0630 O   0  0  0  0  0  0  0  0  0  0  0  0
   12.5606  -17.8751   27.0086 O   0  0  0  0  0  0  0  0  0  0  0  0
  2  3  2  0
  2  1  1  0
  4  2  1  0
  5  4  1  0
  6  5  1  0
  6  7  1  1
  8  9  2  0
  8  6  1  0
 10  8  1  0
 11 10  1  0
 11 12  1  1
 12 13  1  0
 13 21  1  0
 13 14  2  0
 14 15  1  0
 16 15  1  0
 16 17  2  0
 18 17  1  0
 19 18  2  0
 20 21  2  0
 20 19  1  0
 21 16  1  0
 22 28  1  0
 22 11  1  0
 23 22  2  0
 25 27  1  0
 25 24  1  6
 26 25  1  0
 27 29  1  0
 27 28  1  1
 29 31  1  0
 30 29  2  0
M  END
$$$$
