ETK.pdb
     RDKit          3D

 26 25  0  0  1  0  0  0  0  0999 V2000
   10.9469  -14.3954   16.8576 N   0  0  0  0  0  0  0  0  0  0  0  0
   11.1106  -15.2072   18.0153 C   0  0  1  0  0  0  0  0  0  0  0  0
   12.5617  -15.5532   18.1901 C   0  0  0  0  0  0  0  0  0  0  0  0
   13.4648  -14.3944   17.9118 C   0  0  0  0  0  0  0  0  0  0  0  0
   14.9027  -14.6901   18.0509 C   0  0  0  0  0  0  0  0  0  0  0  0
   15.7636  -14.1973   17.2821 O   0  0  0  0  0  0  0  0  0  0  0  0
   10.6413  -14.5556   19.2619 C   0  0  0  0  0  0  0  0  0  0  0  0
   11.0594  -13.3984   19.5250 O   0  0  0  0  0  0  0  0  0  0  0  0
   15.3247  -15.5384   19.0607 O   0  0  0  0  0  0  0  0  0  0  0  0
    7.2670  -13.6123   20.3662 C   0  0  0  0  0  0  0  0  0  0  0  0
    7.7958  -14.4686   21.5052 C   0  0  1  0  0  0  0  0  0  0  0  0
    7.2450  -15.7366   21.3254 O   0  0  0  0  0  0  0  0  0  0  0  0
    9.2999  -14.4900   21.3937 C   0  0  2  0  0  0  0  0  0  0  0  0
    9.7462  -15.1538   20.1844 N   0  0  0  0  0  0  0  0  0  0  0  0
    9.8465  -15.1904   22.5830 C   0  0  0  0  0  0  0  0  0  0  0  0
   10.4478  -16.2828   22.4553 O   0  0  0  0  0  0  0  0  0  0  0  0
    9.7234  -14.6767   23.9008 N   0  0  0  0  0  0  0  0  0  0  0  0
   10.1761  -15.4311   25.0824 C   0  0  1  0  0  0  0  0  0  0  0  0
   10.0988  -14.5125   26.2758 C   0  0  0  0  0  0  0  0  0  0  0  0
   10.6075  -15.0855   27.5483 C   0  0  0  0  0  0  0  0  0  0  0  0
    9.8314  -14.6075   28.7586 C   0  0  0  0  0  0  0  0  0  0  0  0
   10.3659  -15.2170   30.0326 C   0  0  0  0  0  0  0  0  0  0  0  0
    9.6284  -14.6010   31.1257 N   0  0  0  0  0  0  0  0  0  0  0  0
    9.3958  -16.6624   25.2457 C   0  0  0  0  0  0  0  0  0  0  0  0
    9.9139  -17.6823   25.7243 O   0  0  0  0  0  0  0  0  0  0  0  0
    8.0694  -16.6839   24.8614 O   0  0  0  0  0  0  0  0  0  0  0  0
  2  1  1  6
  2  7  1  0
  3  2  1  0
  4  3  1  0
  5  4  1  0
  6  5  2  0
  7  8  2  0
  9  5  1  0
 11 12  1  0
 11 10  1  6
 13 11  1  0
 14  7  1  0
 13 14  1  6
 15 13  1  0
 15 16  2  0
 17 15  1  0
 18 17  1  0
 18 19  1  1
 20 19  1  0
 21 20  1  0
 22 21  1  0
 23 22  1  0
 24 18  1  0
 25 24  2  0
 26 24  1  0
M  END
$$$$
