ETK.pdb
     RDKit          3D

 26 25  0  0  1  0  0  0  0  0999 V2000
   13.3374  -17.4006   17.9856 N   0  0  0  0  0  0  0  0  0  0  0  0
   13.0343  -18.3218   19.0275 C   0  0  1  0  0  0  0  0  0  0  0  0
   14.2707  -18.5987   19.8341 C   0  0  0  0  0  0  0  0  0  0  0  0
   15.5036  -18.6608   18.9902 C   0  0  0  0  0  0  0  0  0  0  0  0
   16.7404  -18.9658   19.7328 C   0  0  0  0  0  0  0  0  0  0  0  0
   17.3677  -20.0410   19.5731 O   0  0  0  0  0  0  0  0  0  0  0  0
   11.9819  -17.8378   19.9531 C   0  0  0  0  0  0  0  0  0  0  0  0
   11.9546  -16.6126   20.2382 O   0  0  0  0  0  0  0  0  0  0  0  0
   17.2323  -18.0404   20.6377 O   0  0  0  0  0  0  0  0  0  0  0  0
    7.6711  -18.3863   22.2620 C   0  0  0  0  0  0  0  0  0  0  0  0
    8.6994  -19.0105   21.3329 C   0  0  1  0  0  0  0  0  0  0  0  0
    8.1300  -18.9995   20.0605 O   0  0  0  0  0  0  0  0  0  0  0  0
    9.9427  -18.1588   21.3978 C   0  0  2  0  0  0  0  0  0  0  0  0
   10.9968  -18.6693   20.5431 N   0  0  0  0  0  0  0  0  0  0  0  0
   10.4106  -18.1218   22.8061 C   0  0  0  0  0  0  0  0  0  0  0  0
   11.2006  -18.9952   23.2354 O   0  0  0  0  0  0  0  0  0  0  0  0
   10.0012  -17.1204   23.7254 N   0  0  0  0  0  0  0  0  0  0  0  0
   10.4725  -17.0965   25.1210 C   0  0  1  0  0  0  0  0  0  0  0  0
   10.0014  -15.8079   25.7468 C   0  0  0  0  0  0  0  0  0  0  0  0
   10.3175  -15.6539   27.1900 C   0  0  0  0  0  0  0  0  0  0  0  0
    9.8311  -14.3369   27.7597 C   0  0  0  0  0  0  0  0  0  0  0  0
   10.1350  -14.2281   29.2349 C   0  0  0  0  0  0  0  0  0  0  0  0
    9.6628  -12.9181   29.6579 N   0  0  0  0  0  0  0  0  0  0  0  0
   10.0236  -18.2914   25.8438 C   0  0  0  0  0  0  0  0  0  0  0  0
    8.8802  -18.7412   25.6763 O   0  0  0  0  0  0  0  0  0  0  0  0
   10.8856  -18.9210   26.7202 O   0  0  0  0  0  0  0  0  0  0  0  0
  2  1  1  6
  2  7  1  0
  3  2  1  0
  4  3  1  0
  5  4  1  0
  6  5  2  0
  7  8  2  0
  9  5  1  0
 11 12  1  0
 11 10  1  1
 13 11  1  0
 14  7  1  0
 13 14  1  6
 15 13  1  0
 15 16  2  0
 17 15  1  0
 18 17  1  0
 18 19  1  1
 20 19  1  0
 21 20  1  0
 22 21  1  0
 23 22  1  0
 24 18  1  0
 25 24  2  0
 26 24  1  0
M  END
$$$$
