ETK.pdb
     RDKit          3D

 26 25  0  0  1  0  0  0  0  0999 V2000
   12.4892  -17.5969   18.7856 N   0  0  0  0  0  0  0  0  0  0  0  0
   11.8487  -17.8209   20.0368 C   0  0  1  0  0  0  0  0  0  0  0  0
   12.8835  -17.9997   21.1106 C   0  0  0  0  0  0  0  0  0  0  0  0
   13.5725  -16.7198   21.4614 C   0  0  0  0  0  0  0  0  0  0  0  0
   14.5663  -16.8351   22.5446 C   0  0  0  0  0  0  0  0  0  0  0  0
   14.5982  -16.0340   23.5101 O   0  0  0  0  0  0  0  0  0  0  0  0
   10.9511  -16.7135   20.4450 C   0  0  0  0  0  0  0  0  0  0  0  0
   11.1793  -15.5619   19.9923 O   0  0  0  0  0  0  0  0  0  0  0  0
   15.4982  -17.8583   22.5021 O   0  0  0  0  0  0  0  0  0  0  0  0
    7.5013  -16.2022   19.6203 C   0  0  0  0  0  0  0  0  0  0  0  0
    7.5007  -16.1638   21.1398 C   0  0  1  0  0  0  0  0  0  0  0  0
    7.1391  -17.4429   21.5600 O   0  0  0  0  0  0  0  0  0  0  0  0
    8.8963  -15.8019   21.5832 C   0  0  2  0  0  0  0  0  0  0  0  0
    9.8444  -16.8663   21.3178 N   0  0  0  0  0  0  0  0  0  0  0  0
    8.8630  -15.5089   23.0380 C   0  0  0  0  0  0  0  0  0  0  0  0
    9.4401  -16.2680   23.8516 O   0  0  0  0  0  0  0  0  0  0  0  0
    8.1928  -14.3803   23.5791 N   0  0  0  0  0  0  0  0  0  0  0  0
    8.0192  -14.1919   25.0298 C   0  0  1  0  0  0  0  0  0  0  0  0
    7.1274  -12.9938   25.2377 C   0  0  0  0  0  0  0  0  0  0  0  0
    6.8129  -12.6784   26.6547 C   0  0  0  0  0  0  0  0  0  0  0  0
    5.9369  -11.4510   26.8021 C   0  0  0  0  0  0  0  0  0  0  0  0
    5.7010  -11.1128   28.2548 C   0  0  0  0  0  0  0  0  0  0  0  0
    4.9357   -9.8750   28.2712 N   0  0  0  0  0  0  0  0  0  0  0  0
    7.5053  -15.4143   25.6569 C   0  0  0  0  0  0  0  0  0  0  0  0
    7.9364  -15.7919   26.7565 O   0  0  0  0  0  0  0  0  0  0  0  0
    6.5305  -16.1515   25.0136 O   0  0  0  0  0  0  0  0  0  0  0  0
  2  1  1  6
  2  7  1  0
  3  2  1  0
  4  3  1  0
  5  4  1  0
  6  5  2  0
  7  8  2  0
  9  5  1  0
 11 12  1  0
 11 10  1  6
 13 11  1  0
 14  7  1  0
 13 14  1  1
 15 13  1  0
 15 16  2  0
 17 15  1  0
 18 17  1  0
 18 19  1  6
 20 19  1  0
 21 20  1  0
 22 21  1  0
 23 22  1  0
 24 18  1  0
 25 24  2  0
 26 24  1  0
M  END
$$$$
