ETK.pdb
     RDKit          3D

 26 25  0  0  1  0  0  0  0  0999 V2000
    7.5410  -17.4001   16.7497 N   0  0  0  0  0  0  0  0  0  0  0  0
    8.9529  -17.3135   16.9080 C   0  0  1  0  0  0  0  0  0  0  0  0
    9.5669  -16.7321   15.6667 C   0  0  0  0  0  0  0  0  0  0  0  0
    8.5429  -16.3442   14.6483 C   0  0  0  0  0  0  0  0  0  0  0  0
    8.9083  -16.6676   13.2569 C   0  0  0  0  0  0  0  0  0  0  0  0
    8.3199  -17.5621   12.6023 O   0  0  0  0  0  0  0  0  0  0  0  0
    9.3655  -16.4752   18.0594 C   0  0  0  0  0  0  0  0  0  0  0  0
   10.5909  -16.4004   18.3350 O   0  0  0  0  0  0  0  0  0  0  0  0
    9.9334  -15.9656   12.6456 O   0  0  0  0  0  0  0  0  0  0  0  0
    7.5995  -13.0715   19.3037 C   0  0  0  0  0  0  0  0  0  0  0  0
    7.8544  -13.9959   20.4830 C   0  0  1  0  0  0  0  0  0  0  0  0
    6.6315  -14.5977   20.7757 O   0  0  0  0  0  0  0  0  0  0  0  0
    8.8870  -15.0066   20.0500 C   0  0  2  0  0  0  0  0  0  0  0  0
    8.4650  -15.7468   18.8769 N   0  0  0  0  0  0  0  0  0  0  0  0
    9.1255  -15.9429   21.1769 C   0  0  0  0  0  0  0  0  0  0  0  0
    8.8520  -17.1605   21.0589 O   0  0  0  0  0  0  0  0  0  0  0  0
    9.6638  -15.5247   22.4223 N   0  0  0  0  0  0  0  0  0  0  0  0
    9.9259  -16.4704   23.5210 C   0  0  1  0  0  0  0  0  0  0  0  0
   10.9567  -17.4617   23.0426 C   0  0  0  0  0  0  0  0  0  0  0  0
   11.3582  -18.4868   24.0399 C   0  0  0  0  0  0  0  0  0  0  0  0
   12.3791  -19.4656   23.4967 C   0  0  0  0  0  0  0  0  0  0  0  0
   12.7820  -20.4790   24.5411 C   0  0  0  0  0  0  0  0  0  0  0  0
   13.8080  -21.3129   23.9328 N   0  0  0  0  0  0  0  0  0  0  0  0
   10.3269  -15.7574   24.7386 C   0  0  0  0  0  0  0  0  0  0  0  0
   10.7619  -14.5977   24.6797 O   0  0  0  0  0  0  0  0  0  0  0  0
   10.2179  -16.3867   25.9632 O   0  0  0  0  0  0  0  0  0  0  0  0
  2  1  1  6
  2  7  1  0
  3  2  1  0
  4  3  1  0
  5  4  1  0
  6  5  2  0
  7  8  2  0
  9  5  1  0
 11 12  1  0
 11 10  1  6
 13 11  1  0
 14  7  1  0
 13 14  1  6
 15 13  1  0
 15 16  2  0
 17 15  1  0
 18 17  1  0
 18 19  1  6
 20 19  1  0
 21 20  1  0
 22 21  1  0
 23 22  1  0
 24 18  1  0
 25 24  2  0
 26 24  1  0
M  END
$$$$
