ETK.pdb
     RDKit          3D

 26 25  0  0  1  0  0  0  0  0999 V2000
    9.3318  -17.1082   16.3832 N   0  0  0  0  0  0  0  0  0  0  0  0
    8.3145  -16.6656   17.2750 C   0  0  1  0  0  0  0  0  0  0  0  0
    7.4288  -17.8205   17.6460 C   0  0  0  0  0  0  0  0  0  0  0  0
    8.1948  -18.9683   18.2222 C   0  0  0  0  0  0  0  0  0  0  0  0
    7.3577  -20.0667   18.7389 C   0  0  0  0  0  0  0  0  0  0  0  0
    7.8453  -21.0454   19.3549 O   0  0  0  0  0  0  0  0  0  0  0  0
    8.8457  -16.0746   18.5268 C   0  0  0  0  0  0  0  0  0  0  0  0
   10.0546  -16.2720   18.8145 O   0  0  0  0  0  0  0  0  0  0  0  0
    5.9878  -20.0240   18.5420 O   0  0  0  0  0  0  0  0  0  0  0  0
    7.4613  -12.6176   20.2925 C   0  0  0  0  0  0  0  0  0  0  0  0
    7.6793  -13.7457   21.2875 C   0  0  1  0  0  0  0  0  0  0  0  0
    6.4237  -14.3040   21.5224 O   0  0  0  0  0  0  0  0  0  0  0  0
    8.6220  -14.7352   20.6492 C   0  0  2  0  0  0  0  0  0  0  0  0
    8.0768  -15.2961   19.4284 N   0  0  0  0  0  0  0  0  0  0  0  0
    8.8910  -15.8208   21.6253 C   0  0  0  0  0  0  0  0  0  0  0  0
    8.4729  -16.9832   21.4128 O   0  0  0  0  0  0  0  0  0  0  0  0
    9.6190  -15.6111   22.8260 N   0  0  0  0  0  0  0  0  0  0  0  0
    9.8039  -16.6755   23.8276 C   0  0  1  0  0  0  0  0  0  0  0  0
   10.9883  -17.5079   23.4055 C   0  0  0  0  0  0  0  0  0  0  0  0
   11.3515  -18.6074   24.3358 C   0  0  0  0  0  0  0  0  0  0  0  0
   12.6257  -19.3208   23.9319 C   0  0  0  0  0  0  0  0  0  0  0  0
   12.9319  -20.4715   24.8605 C   0  0  0  0  0  0  0  0  0  0  0  0
   14.1053  -21.1392   24.3172 N   0  0  0  0  0  0  0  0  0  0  0  0
    9.9429  -16.1075   25.1729 C   0  0  0  0  0  0  0  0  0  0  0  0
   10.0371  -16.8447   26.1655 O   0  0  0  0  0  0  0  0  0  0  0  0
    9.9690  -14.7360   25.3335 O   0  0  0  0  0  0  0  0  0  0  0  0
  2  1  1  6
  2  7  1  0
  3  2  1  0
  4  3  1  0
  5  4  1  0
  6  5  2  0
  7  8  2  0
  9  5  1  0
 11 12  1  0
 11 10  1  6
 13 11  1  0
 14  7  1  0
 13 14  1  6
 15 13  1  0
 15 16  2  0
 17 15  1  0
 18 17  1  0
 18 19  1  6
 20 19  1  0
 21 20  1  0
 22 21  1  0
 23 22  1  0
 24 18  1  0
 25 24  2  0
 26 24  1  0
M  END
$$$$
