ETK.pdb
     RDKit          3D

 26 25  0  0  1  0  0  0  0  0999 V2000
   12.4799  -17.5496   18.3616 N   0  0  0  0  0  0  0  0  0  0  0  0
   12.0797  -17.6714   19.7221 C   0  0  1  0  0  0  0  0  0  0  0  0
   13.2297  -17.3189   20.6217 C   0  0  0  0  0  0  0  0  0  0  0  0
   14.1761  -18.4601   20.8159 C   0  0  0  0  0  0  0  0  0  0  0  0
   15.3504  -18.1478   21.6513 C   0  0  0  0  0  0  0  0  0  0  0  0
   16.3567  -17.5536   21.1939 O   0  0  0  0  0  0  0  0  0  0  0  0
   10.9346  -16.7996   20.0789 C   0  0  0  0  0  0  0  0  0  0  0  0
   10.7733  -15.7315   19.4336 O   0  0  0  0  0  0  0  0  0  0  0  0
   15.3501  -18.5191   22.9853 O   0  0  0  0  0  0  0  0  0  0  0  0
    7.3650  -17.4745   19.8393 C   0  0  0  0  0  0  0  0  0  0  0  0
    7.5559  -17.0627   21.2899 C   0  0  1  0  0  0  0  0  0  0  0  0
    7.6332  -18.2463   22.0223 O   0  0  0  0  0  0  0  0  0  0  0  0
    8.8366  -16.2697   21.3697 C   0  0  2  0  0  0  0  0  0  0  0  0
   10.0021  -17.0910   21.1062 N   0  0  0  0  0  0  0  0  0  0  0  0
    8.9352  -15.6769   22.7270 C   0  0  0  0  0  0  0  0  0  0  0  0
    9.7649  -16.1215   23.5548 O   0  0  0  0  0  0  0  0  0  0  0  0
    8.1165  -14.5992   23.1559 N   0  0  0  0  0  0  0  0  0  0  0  0
    8.0691  -14.1609   24.5616 C   0  0  1  0  0  0  0  0  0  0  0  0
    6.9770  -13.1288   24.6882 C   0  0  0  0  0  0  0  0  0  0  0  0
    6.7637  -12.5997   26.0597 C   0  0  0  0  0  0  0  0  0  0  0  0
    5.7175  -11.5049   26.1099 C   0  0  0  0  0  0  0  0  0  0  0  0
    5.5704  -10.9459   27.5049 C   0  0  0  0  0  0  0  0  0  0  0  0
    4.5649   -9.8967   27.4252 N   0  0  0  0  0  0  0  0  0  0  0  0
    7.8922  -15.3071   25.4597 C   0  0  0  0  0  0  0  0  0  0  0  0
    8.4439  -15.3334   26.5700 O   0  0  0  0  0  0  0  0  0  0  0  0
    7.1019  -16.3678   25.0624 O   0  0  0  0  0  0  0  0  0  0  0  0
  2  1  1  6
  2  7  1  0
  3  2  1  0
  4  3  1  0
  5  4  1  0
  6  5  2  0
  7  8  2  0
  9  5  1  0
 11 12  1  0
 11 10  1  6
 13 11  1  0
 14  7  1  0
 13 14  1  1
 15 13  1  0
 15 16  2  0
 17 15  1  0
 18 17  1  0
 18 19  1  6
 20 19  1  0
 21 20  1  0
 22 21  1  0
 23 22  1  0
 24 18  1  0
 25 24  2  0
 26 24  1  0
M  END
$$$$
