ETK.pdb
     RDKit          3D

 26 25  0  0  1  0  0  0  0  0999 V2000
   10.6294  -15.4575   16.1890 N   0  0  0  0  0  0  0  0  0  0  0  0
   10.1761  -16.3098   17.2351 C   0  0  1  0  0  0  0  0  0  0  0  0
   11.1151  -17.4725   17.3837 C   0  0  0  0  0  0  0  0  0  0  0  0
   12.1586  -17.5070   16.3132 C   0  0  0  0  0  0  0  0  0  0  0  0
   13.1222  -18.6168   16.4314 C   0  0  0  0  0  0  0  0  0  0  0  0
   13.9263  -18.7042   17.3909 O   0  0  0  0  0  0  0  0  0  0  0  0
   10.0785  -15.6285   18.5484 C   0  0  0  0  0  0  0  0  0  0  0  0
   11.1242  -15.1348   19.0444 O   0  0  0  0  0  0  0  0  0  0  0  0
   13.1466  -19.5989   15.4555 O   0  0  0  0  0  0  0  0  0  0  0  0
    7.5339  -12.9174   19.5549 C   0  0  0  0  0  0  0  0  0  0  0  0
    7.5154  -13.9730   20.6483 C   0  0  1  0  0  0  0  0  0  0  0  0
    6.3958  -14.7665   20.4027 O   0  0  0  0  0  0  0  0  0  0  0  0
    8.7964  -14.7616   20.5367 C   0  0  2  0  0  0  0  0  0  0  0  0
    8.8767  -15.4950   19.2886 N   0  0  0  0  0  0  0  0  0  0  0  0
    8.8649  -15.7056   21.6803 C   0  0  0  0  0  0  0  0  0  0  0  0
    8.7244  -16.9374   21.4955 O   0  0  0  0  0  0  0  0  0  0  0  0
    9.0882  -15.2792   23.0159 N   0  0  0  0  0  0  0  0  0  0  0  0
    8.9919  -16.2018   24.1605 C   0  0  1  0  0  0  0  0  0  0  0  0
    9.8128  -15.6280   25.2879 C   0  0  0  0  0  0  0  0  0  0  0  0
    9.8509  -16.4508   26.5241 C   0  0  0  0  0  0  0  0  0  0  0  0
   10.6417  -15.7978   27.6393 C   0  0  0  0  0  0  0  0  0  0  0  0
   10.6106  -16.6307   28.8985 C   0  0  0  0  0  0  0  0  0  0  0  0
   11.3447  -15.8812   29.9072 N   0  0  0  0  0  0  0  0  0  0  0  0
    7.5906  -16.4378   24.5240 C   0  0  0  0  0  0  0  0  0  0  0  0
    6.7117  -15.6147   24.2277 O   0  0  0  0  0  0  0  0  0  0  0  0
    7.2483  -17.5903   25.2037 O   0  0  0  0  0  0  0  0  0  0  0  0
  2  1  1  6
  2  7  1  0
  3  2  1  0
  4  3  1  0
  5  4  1  0
  6  5  2  0
  7  8  2  0
  9  5  1  0
 11 12  1  0
 11 10  1  6
 13 11  1  0
 14  7  1  0
 13 14  1  6
 15 13  1  0
 15 16  2  0
 17 15  1  0
 18 17  1  0
 18 19  1  1
 20 19  1  0
 21 20  1  0
 22 21  1  0
 23 22  1  0
 24 18  1  0
 25 24  2  0
 26 24  1  0
M  END
$$$$
