ETK.pdb
     RDKit          3D

 26 25  0  0  1  0  0  0  0  0999 V2000
   10.3405  -17.0420   15.1667 N   0  0  0  0  0  0  0  0  0  0  0  0
    9.1465  -16.8114   15.9066 C   0  0  1  0  0  0  0  0  0  0  0  0
    8.4860  -18.1225   16.2235 C   0  0  0  0  0  0  0  0  0  0  0  0
    9.3233  -18.9862   17.1118 C   0  0  0  0  0  0  0  0  0  0  0  0
    8.7599  -20.3231   17.3755 C   0  0  0  0  0  0  0  0  0  0  0  0
    9.1255  -21.3399   16.7373 O   0  0  0  0  0  0  0  0  0  0  0  0
    9.3750  -16.0927   17.1832 C   0  0  0  0  0  0  0  0  0  0  0  0
   10.4980  -16.2053   17.7394 O   0  0  0  0  0  0  0  0  0  0  0  0
    7.7955  -20.4693   18.3582 O   0  0  0  0  0  0  0  0  0  0  0  0
    8.0066  -12.7743   20.5895 C   0  0  0  0  0  0  0  0  0  0  0  0
    7.5778  -13.5536   19.3571 C   0  0  1  0  0  0  0  0  0  0  0  0
    7.4077  -12.6126   18.3427 O   0  0  0  0  0  0  0  0  0  0  0  0
    8.6799  -14.5319   19.0350 C   0  0  2  0  0  0  0  0  0  0  0  0
    8.4055  -15.2809   17.8243 N   0  0  0  0  0  0  0  0  0  0  0  0
    8.8267  -15.4641   20.1809 C   0  0  0  0  0  0  0  0  0  0  0  0
    8.1270  -16.5019   20.2483 O   0  0  0  0  0  0  0  0  0  0  0  0
    9.7449  -15.2403   21.2403 N   0  0  0  0  0  0  0  0  0  0  0  0
    9.8129  -16.1215   22.4190 C   0  0  1  0  0  0  0  0  0  0  0  0
   11.2679  -16.3532   22.7405 C   0  0  0  0  0  0  0  0  0  0  0  0
   11.5253  -17.2921   23.8624 C   0  0  0  0  0  0  0  0  0  0  0  0
   12.9992  -17.4314   24.1844 C   0  0  0  0  0  0  0  0  0  0  0  0
   13.2262  -18.3955   25.3242 C   0  0  0  0  0  0  0  0  0  0  0  0
   14.6547  -18.3771   25.6020 N   0  0  0  0  0  0  0  0  0  0  0  0
    9.0537  -15.5546   23.5387 C   0  0  0  0  0  0  0  0  0  0  0  0
    8.7223  -16.2614   24.5021 O   0  0  0  0  0  0  0  0  0  0  0  0
    8.7050  -14.2184   23.5176 O   0  0  0  0  0  0  0  0  0  0  0  0
  2  1  1  1
  2  7  1  0
  3  2  1  0
  4  3  1  0
  5  4  1  0
  6  5  2  0
  7  8  2  0
  9  5  1  0
 11 12  1  0
 11 10  1  1
 13 11  1  0
 14  7  1  0
 13 14  1  6
 15 13  1  0
 15 16  2  0
 17 15  1  0
 18 17  1  0
 18 19  1  1
 20 19  1  0
 21 20  1  0
 22 21  1  0
 23 22  1  0
 24 18  1  0
 25 24  2  0
 26 24  1  0
M  END
$$$$
