ETK.pdb
     RDKit          3D

 26 25  0  0  1  0  0  0  0  0999 V2000
   10.8603  -17.4874   17.6739 N   0  0  0  0  0  0  0  0  0  0  0  0
    9.9192  -17.6776   18.7248 C   0  0  1  0  0  0  0  0  0  0  0  0
   10.2754  -18.9094   19.5068 C   0  0  0  0  0  0  0  0  0  0  0  0
   10.7009  -20.0426   18.6288 C   0  0  0  0  0  0  0  0  0  0  0  0
   11.0226  -21.2887   19.3483 C   0  0  0  0  0  0  0  0  0  0  0  0
   10.2246  -22.2560   19.3991 O   0  0  0  0  0  0  0  0  0  0  0  0
    9.8545  -16.5371   19.6702 C   0  0  0  0  0  0  0  0  0  0  0  0
   10.9046  -15.8778   19.8835 O   0  0  0  0  0  0  0  0  0  0  0  0
   12.2435  -21.4030   19.9916 O   0  0  0  0  0  0  0  0  0  0  0  0
    7.6330  -13.5118   19.5998 C   0  0  0  0  0  0  0  0  0  0  0  0
    7.4514  -14.1088   20.9857 C   0  0  1  0  0  0  0  0  0  0  0  0
    6.2606  -14.8326   20.9434 O   0  0  0  0  0  0  0  0  0  0  0  0
    8.6392  -14.9992   21.2534 C   0  0  2  0  0  0  0  0  0  0  0  0
    8.6795  -16.1367   20.3552 N   0  0  0  0  0  0  0  0  0  0  0  0
    8.5624  -15.4705   22.6589 C   0  0  0  0  0  0  0  0  0  0  0  0
    7.9978  -16.5552   22.9345 O   0  0  0  0  0  0  0  0  0  0  0  0
    9.1102  -14.7390   23.7454 N   0  0  0  0  0  0  0  0  0  0  0  0
    8.8846  -15.1300   25.1477 C   0  0  1  0  0  0  0  0  0  0  0  0
   10.1654  -15.7275   25.6736 C   0  0  0  0  0  0  0  0  0  0  0  0
   10.0399  -17.0969   26.2352 C   0  0  0  0  0  0  0  0  0  0  0  0
   11.3479  -17.6272   26.7861 C   0  0  0  0  0  0  0  0  0  0  0  0
   11.1544  -18.9485   27.4909 C   0  0  0  0  0  0  0  0  0  0  0  0
   12.4636  -19.3484   27.9848 N   0  0  0  0  0  0  0  0  0  0  0  0
    8.4087  -13.9891   25.9373 C   0  0  0  0  0  0  0  0  0  0  0  0
    8.1409  -14.1191   27.1411 O   0  0  0  0  0  0  0  0  0  0  0  0
    8.2579  -12.7572   25.3313 O   0  0  0  0  0  0  0  0  0  0  0  0
  2  1  1  6
  2  7  1  0
  3  2  1  0
  4  3  1  0
  5  4  1  0
  6  5  2  0
  7  8  2  0
  9  5  1  0
 11 12  1  0
 11 10  1  6
 13 11  1  0
 14  7  1  0
 13 14  1  6
 15 13  1  0
 15 16  2  0
 17 15  1  0
 18 17  1  0
 18 19  1  1
 20 19  1  0
 21 20  1  0
 22 21  1  0
 23 22  1  0
 24 18  1  0
 25 24  2  0
 26 24  1  0
M  END
$$$$
