RGD.pdb
     RDKit          3D

 24 23  0  0  1  0  0  0  0  0999 V2000
   28.2964  -19.3937  -16.9512 N   0  0  0  0  0  0  0  0  0  0  0  0
   27.4697  -18.2630  -16.7702 C   0  0  0  0  0  0  0  0  0  0  0  0
   26.9034  -17.6743  -17.7851 N   0  0  0  0  0  0  0  0  0  0  0  0
   27.2749  -17.7884  -15.4342 N   0  0  0  0  0  0  0  0  0  0  0  0
   27.8602  -18.4709  -14.3332 C   0  0  0  0  0  0  0  0  0  0  0  0
   27.1131  -19.7016  -13.8861 C   0  0  0  0  0  0  0  0  0  0  0  0
   25.9211  -19.3897  -13.0091 C   0  0  0  0  0  0  0  0  0  0  0  0
   25.4756  -20.7007  -12.3979 C   0  0  2  0  0  0  0  0  0  0  0  0
   25.1281  -21.6006  -13.4630 N   0  0  0  0  0  0  0  0  0  0  0  0
   24.3638  -20.4643  -11.4583 C   0  0  0  0  0  0  0  0  0  0  0  0
   24.4592  -19.6395  -10.5139 O   0  0  0  0  0  0  0  0  0  0  0  0
   26.2942  -16.8518  -17.5946 N   0  0  0  0  0  0  0  0  0  0  0  0
   23.1430  -21.2234  -11.6592 C   0  0  0  0  0  0  0  0  0  0  0  0
   22.0512  -20.8710  -10.7922 C   0  0  0  0  0  0  0  0  0  0  0  0
   20.8559  -21.6539  -11.0968 O   0  0  0  0  0  0  0  0  0  0  0  0
   20.7328  -22.0260  -12.3203 N   0  0  0  0  0  0  0  0  0  0  0  0
   19.8376  -22.0395  -10.2104 C   0  0  1  0  0  0  0  0  0  0  0  0
   18.7478  -22.8966  -10.6975 C   0  0  0  0  0  0  0  0  0  0  0  0
   17.9117  -23.3512   -9.5019 C   0  0  0  0  0  0  0  0  0  0  0  0
   18.6974  -24.2548   -8.6685 O   0  0  0  0  0  0  0  0  0  0  0  0
   19.8680  -24.5606   -9.0244 C   0  0  0  0  0  0  0  0  0  0  0  0
   17.8893  -22.1457  -11.6283 O   0  0  0  0  0  0  0  0  0  0  0  0
   17.3362  -22.7555  -12.7525 O   0  0  0  0  0  0  0  0  0  0  0  0
   18.2382  -24.8182   -7.4791 O   0  0  0  0  0  0  0  0  0  0  0  0
  1  2  1  0
  2  3  2  0
  4  5  1  0
  4  2  1  0
  6  7  1  0
  6  5  1  0
  7  8  1  0
  8  9  1  6
 10  8  1  0
 10 12  1  0
 11 10  2  0
 12 13  1  0
 13 14  1  0
 14 15  2  0
 14 16  1  0
 16 17  1  0
 17 21  1  0
 17 18  1  6
 18 19  1  0
 19 23  1  0
 20 19  2  0
 21 24  2  0
 21 22  1  0
M  END
$$$$
