RGD.pdb
     RDKit          3D

 24 23  0  0  1  0  0  0  0  0999 V2000
   24.7311  -22.3891   -6.8779 N   0  0  0  0  0  0  0  0  0  0  0  0
   23.9905  -21.2069   -7.0978 C   0  0  0  0  0  0  0  0  0  0  0  0
   22.8637  -20.9942   -6.4795 N   0  0  0  0  0  0  0  0  0  0  0  0
   24.5216  -20.2513   -8.0212 N   0  0  0  0  0  0  0  0  0  0  0  0
   24.5817  -20.5461   -9.4104 C   0  0  0  0  0  0  0  0  0  0  0  0
   25.8868  -21.1432   -9.8715 C   0  0  0  0  0  0  0  0  0  0  0  0
   26.3095  -20.6657  -11.2429 C   0  0  0  0  0  0  0  0  0  0  0  0
   25.1213  -20.8657  -12.1587 C   0  0  2  0  0  0  0  0  0  0  0  0
   24.1120  -21.5910  -11.4373 N   0  0  0  0  0  0  0  0  0  0  0  0
   25.5490  -21.5488  -13.3937 C   0  0  0  0  0  0  0  0  0  0  0  0
   26.4289  -21.0621  -14.1487 O   0  0  0  0  0  0  0  0  0  0  0  0
   22.3312  -20.1320   -6.7180 N   0  0  0  0  0  0  0  0  0  0  0  0
   24.9138  -22.8140  -13.7148 C   0  0  0  0  0  0  0  0  0  0  0  0
   25.2324  -23.3494  -15.0109 C   0  0  0  0  0  0  0  0  0  0  0  0
   24.3233  -22.8403  -16.0348 O   0  0  0  0  0  0  0  0  0  0  0  0
   23.8505  -21.6646  -15.8227 N   0  0  0  0  0  0  0  0  0  0  0  0
   23.9128  -23.4868  -17.2116 C   0  0  2  0  0  0  0  0  0  0  0  0
   22.9271  -22.8332  -18.0839 C   0  0  0  0  0  0  0  0  0  0  0  0
   21.9341  -22.0668  -17.2110 C   0  0  0  0  0  0  0  0  0  0  0  0
   20.7530  -22.8895  -16.9726 O   0  0  0  0  0  0  0  0  0  0  0  0
   20.7876  -24.1164  -17.2627 C   0  0  0  0  0  0  0  0  0  0  0  0
   23.5998  -21.8890  -18.9911 O   0  0  0  0  0  0  0  0  0  0  0  0
   24.2421  -20.7523  -18.5039 O   0  0  0  0  0  0  0  0  0  0  0  0
   19.5609  -22.4075  -16.4347 O   0  0  0  0  0  0  0  0  0  0  0  0
  1  2  1  0
  2  3  2  0
  4  5  1  0
  4  2  1  0
  6  7  1  0
  6  5  1  0
  7  8  1  0
  8  9  1  1
 10  8  1  0
 10 12  1  0
 11 10  2  0
 12 13  1  0
 13 14  1  0
 14 15  2  0
 14 16  1  0
 16 17  1  0
 17 21  1  0
 17 18  1  1
 18 19  1  0
 19 23  1  0
 20 19  2  0
 21 24  2  0
 21 22  1  0
M  END
$$$$
