RGD.pdb
     RDKit          3D

 24 23  0  0  1  0  0  0  0  0999 V2000
   21.6543  -16.7821  -19.9744 N   0  0  0  0  0  0  0  0  0  0  0  0
   20.6352  -15.9703  -20.5196 C   0  0  0  0  0  0  0  0  0  0  0  0
   19.4381  -16.4412  -20.7256 N   0  0  0  0  0  0  0  0  0  0  0  0
   20.9632  -14.6137  -20.8358 N   0  0  0  0  0  0  0  0  0  0  0  0
   21.7981  -13.8529  -19.9729 C   0  0  0  0  0  0  0  0  0  0  0  0
   21.0729  -13.1508  -18.8532 C   0  0  0  0  0  0  0  0  0  0  0  0
   21.9642  -12.2287  -18.0514 C   0  0  0  0  0  0  0  0  0  0  0  0
   21.4652  -10.8208  -18.2949 C   0  0  2  0  0  0  0  0  0  0  0  0
   21.6487  -10.5108  -19.6861 N   0  0  0  0  0  0  0  0  0  0  0  0
   22.1619   -9.8794  -17.3987 C   0  0  0  0  0  0  0  0  0  0  0  0
   22.1825  -10.0443  -16.1522 O   0  0  0  0  0  0  0  0  0  0  0  0
   18.7205  -15.7962  -21.1165 N   0  0  0  0  0  0  0  0  0  0  0  0
   22.8289   -8.7429  -18.0073 C   0  0  0  0  0  0  0  0  0  0  0  0
   23.4648   -7.8391  -17.0871 C   0  0  0  0  0  0  0  0  0  0  0  0
   22.5671   -6.7528  -16.7023 O   0  0  0  0  0  0  0  0  0  0  0  0
   21.6826   -6.4277  -17.5756 N   0  0  0  0  0  0  0  0  0  0  0  0
   22.5646   -6.0318  -15.4975 C   0  0  1  0  0  0  0  0  0  0  0  0
   21.4985   -5.0513  -15.2493 C   0  0  0  0  0  0  0  0  0  0  0  0
   20.1518   -5.7725  -15.2906 C   0  0  0  0  0  0  0  0  0  0  0  0
   19.0764   -4.8192  -15.0390 O   0  0  0  0  0  0  0  0  0  0  0  0
   18.7217   -4.5894  -13.8507 C   0  0  0  0  0  0  0  0  0  0  0  0
   21.6746   -4.4350  -13.9241 O   0  0  0  0  0  0  0  0  0  0  0  0
   22.5364   -4.9882  -12.9789 O   0  0  0  0  0  0  0  0  0  0  0  0
   18.3963   -4.1270  -16.0395 O   0  0  0  0  0  0  0  0  0  0  0  0
  1  2  1  0
  2  3  2  0
  4  5  1  0
  4  2  1  0
  6  7  1  0
  6  5  1  0
  7  8  1  0
  8  9  1  6
 10  8  1  0
 10 12  1  0
 11 10  2  0
 12 13  1  0
 13 14  1  0
 14 15  2  0
 14 16  1  0
 16 17  1  0
 17 21  1  0
 17 18  1  6
 18 19  1  0
 19 23  1  0
 20 19  2  0
 21 24  2  0
 21 22  1  0
M  END
$$$$
