RGD.pdb
     RDKit          3D

 24 23  0  0  1  0  0  0  0  0999 V2000
   16.9836  -20.7155    0.6911 N   0  0  0  0  0  0  0  0  0  0  0  0
   15.9066  -21.0492    1.5417 C   0  0  0  0  0  0  0  0  0  0  0  0
   15.0951  -22.0251    1.2482 N   0  0  0  0  0  0  0  0  0  0  0  0
   15.7397  -20.2796    2.7366 N   0  0  0  0  0  0  0  0  0  0  0  0
   16.5796  -19.1635    2.9997 C   0  0  0  0  0  0  0  0  0  0  0  0
   16.2308  -18.3934    4.2478 C   0  0  0  0  0  0  0  0  0  0  0  0
   17.2707  -17.3606    4.6213 C   0  0  0  0  0  0  0  0  0  0  0  0
   16.8471  -16.7781    5.9525 C   0  0  2  0  0  0  0  0  0  0  0  0
   15.6204  -16.0549    5.7592 N   0  0  0  0  0  0  0  0  0  0  0  0
   17.9294  -15.9397    6.5006 C   0  0  0  0  0  0  0  0  0  0  0  0
   17.9655  -14.6973    6.3101 O   0  0  0  0  0  0  0  0  0  0  0  0
   14.3346  -22.2474    1.9237 N   0  0  0  0  0  0  0  0  0  0  0  0
   18.9643  -16.6016    7.2739 C   0  0  0  0  0  0  0  0  0  0  0  0
   20.0292  -15.7497    7.7303 C   0  0  0  0  0  0  0  0  0  0  0  0
   20.9587  -16.4755    8.5925 O   0  0  0  0  0  0  0  0  0  0  0  0
   20.6602  -17.7041    8.8209 N   0  0  0  0  0  0  0  0  0  0  0  0
   22.1288  -15.9843    9.1933 C   0  0  1  0  0  0  0  0  0  0  0  0
   22.9117  -16.8673   10.0691 C   0  0  0  0  0  0  0  0  0  0  0  0
   24.3855  -16.4766    9.9658 C   0  0  0  0  0  0  0  0  0  0  0  0
   25.1907  -17.3774   10.7835 O   0  0  0  0  0  0  0  0  0  0  0  0
   24.7045  -18.4842   11.1430 C   0  0  0  0  0  0  0  0  0  0  0  0
   22.4703  -16.7179   11.4655 O   0  0  0  0  0  0  0  0  0  0  0  0
   22.5625  -17.7746   12.3692 O   0  0  0  0  0  0  0  0  0  0  0  0
   26.4891  -17.0979   11.2064 O   0  0  0  0  0  0  0  0  0  0  0  0
  1  2  1  0
  2  3  2  0
  4  5  1  0
  4  2  1  0
  6  7  1  0
  6  5  1  0
  7  8  1  0
  8  9  1  6
 10  8  1  0
 10 12  1  0
 11 10  2  0
 12 13  1  0
 13 14  1  0
 14 15  2  0
 14 16  1  0
 16 17  1  0
 17 21  1  0
 17 18  1  1
 18 19  1  0
 19 23  1  0
 20 19  2  0
 21 24  2  0
 21 22  1  0
M  END
$$$$
