RGD.pdb
     RDKit          3D

 24 23  0  0  1  0  0  0  0  0999 V2000
   25.6919  -23.4755  -15.4173 N   0  0  0  0  0  0  0  0  0  0  0  0
   25.5282  -22.3100  -16.1978 C   0  0  0  0  0  0  0  0  0  0  0  0
   26.1617  -22.1617  -17.3265 N   0  0  0  0  0  0  0  0  0  0  0  0
   24.6416  -21.2996  -15.7067 N   0  0  0  0  0  0  0  0  0  0  0  0
   23.9276  -21.4937  -14.4930 C   0  0  0  0  0  0  0  0  0  0  0  0
   22.7083  -22.3721  -14.6134 C   0  0  0  0  0  0  0  0  0  0  0  0
   21.5318  -21.8731  -13.8045 C   0  0  0  0  0  0  0  0  0  0  0  0
   21.0697  -23.0322  -12.9480 C   0  0  2  0  0  0  0  0  0  0  0  0
   19.9906  -23.6942  -13.6280 N   0  0  0  0  0  0  0  0  0  0  0  0
   20.6935  -22.5468  -11.6073 C   0  0  0  0  0  0  0  0  0  0  0  0
   21.4629  -21.8228  -10.9254 O   0  0  0  0  0  0  0  0  0  0  0  0
   26.0222  -21.2736  -17.8515 N   0  0  0  0  0  0  0  0  0  0  0  0
   19.3933  -22.9370  -11.0931 C   0  0  0  0  0  0  0  0  0  0  0  0
   19.1504  -22.5980   -9.7168 C   0  0  0  0  0  0  0  0  0  0  0  0
   18.8384  -23.7846   -8.9238 O   0  0  0  0  0  0  0  0  0  0  0  0
   19.1088  -24.9109   -9.4797 N   0  0  0  0  0  0  0  0  0  0  0  0
   18.2809  -23.8300   -7.6359 C   0  0  1  0  0  0  0  0  0  0  0  0
   18.1041  -25.1306   -6.9752 C   0  0  0  0  0  0  0  0  0  0  0  0
   18.3361  -24.9525   -5.4753 C   0  0  0  0  0  0  0  0  0  0  0  0
   18.1024  -26.2184   -4.7886 O   0  0  0  0  0  0  0  0  0  0  0  0
   18.4553  -27.2948   -5.3429 C   0  0  0  0  0  0  0  0  0  0  0  0
   16.7368  -25.6297   -7.1953 O   0  0  0  0  0  0  0  0  0  0  0  0
   16.4650  -26.9956   -7.2410 O   0  0  0  0  0  0  0  0  0  0  0  0
   17.5036  -26.3278   -3.5347 O   0  0  0  0  0  0  0  0  0  0  0  0
  1  2  1  0
  2  3  2  0
  4  5  1  0
  4  2  1  0
  6  7  1  0
  6  5  1  0
  7  8  1  0
  8  9  1  6
 10  8  1  0
 10 12  1  0
 11 10  2  0
 12 13  1  0
 13 14  1  0
 14 15  2  0
 14 16  1  0
 16 17  1  0
 17 21  1  0
 17 18  1  6
 18 19  1  0
 19 23  1  0
 20 19  2  0
 21 24  2  0
 21 22  1  0
M  END
$$$$
