RGD.pdb
     RDKit          3D

 24 23  0  0  1  0  0  0  0  0999 V2000
   23.7390  -20.5884  -10.9948 N   0  0  0  0  0  0  0  0  0  0  0  0
   25.0985  -20.9003  -10.7728 C   0  0  0  0  0  0  0  0  0  0  0  0
   25.5798  -20.9890   -9.5654 N   0  0  0  0  0  0  0  0  0  0  0  0
   25.9270  -21.1168  -11.9193 N   0  0  0  0  0  0  0  0  0  0  0  0
   27.2259  -20.5437  -11.9900 C   0  0  0  0  0  0  0  0  0  0  0  0
   28.0202  -20.9329  -13.2107 C   0  0  0  0  0  0  0  0  0  0  0  0
   27.3258  -20.5872  -14.5091 C   0  0  0  0  0  0  0  0  0  0  0  0
   27.2499  -19.0770  -14.5734 C   0  0  2  0  0  0  0  0  0  0  0  0
   25.9937  -18.6635  -14.0112 N   0  0  0  0  0  0  0  0  0  0  0  0
   27.4348  -18.6241  -15.9646 C   0  0  0  0  0  0  0  0  0  0  0  0
   28.4628  -18.9192  -16.6258 O   0  0  0  0  0  0  0  0  0  0  0  0
   26.6120  -21.0698   -9.4562 N   0  0  0  0  0  0  0  0  0  0  0  0
   26.3818  -17.8162  -16.5525 C   0  0  0  0  0  0  0  0  0  0  0  0
   25.4861  -18.5195  -17.4306 C   0  0  0  0  0  0  0  0  0  0  0  0
   24.1156  -18.4927  -16.9253 O   0  0  0  0  0  0  0  0  0  0  0  0
   23.9731  -18.0424  -15.7305 N   0  0  0  0  0  0  0  0  0  0  0  0
   22.9500  -18.9010  -17.5931 C   0  0  1  0  0  0  0  0  0  0  0  0
   21.7057  -19.0680  -16.8293 C   0  0  0  0  0  0  0  0  0  0  0  0
   20.5704  -19.3749  -17.8052 C   0  0  0  0  0  0  0  0  0  0  0  0
   19.3006  -18.9394  -17.2337 O   0  0  0  0  0  0  0  0  0  0  0  0
   19.2960  -18.3511  -16.1182 C   0  0  0  0  0  0  0  0  0  0  0  0
   21.8396  -20.1848  -15.8795 O   0  0  0  0  0  0  0  0  0  0  0  0
   21.0055  -20.2919  -14.7683 O   0  0  0  0  0  0  0  0  0  0  0  0
   18.0626  -19.1302  -17.8452 O   0  0  0  0  0  0  0  0  0  0  0  0
  1  2  1  0
  2  3  2  0
  4  5  1  0
  4  2  1  0
  6  7  1  0
  6  5  1  0
  7  8  1  0
  8  9  1  6
 10  8  1  0
 10 12  1  0
 11 10  2  0
 12 13  1  0
 13 14  1  0
 14 15  2  0
 14 16  1  0
 16 17  1  0
 17 21  1  0
 17 18  1  1
 18 19  1  0
 19 23  1  0
 20 19  2  0
 21 24  2  0
 21 22  1  0
M  END
$$$$
