RGD.pdb
     RDKit          3D

 24 23  0  0  1  0  0  0  0  0999 V2000
   30.6306  -21.4612   -9.1768 N   0  0  0  0  0  0  0  0  0  0  0  0
   31.2104  -21.9794  -10.3558 C   0  0  0  0  0  0  0  0  0  0  0  0
   32.2199  -22.8012  -10.3040 N   0  0  0  0  0  0  0  0  0  0  0  0
   30.6494  -21.5716  -11.6076 N   0  0  0  0  0  0  0  0  0  0  0  0
   29.5026  -20.7327  -11.6456 C   0  0  0  0  0  0  0  0  0  0  0  0
   28.1857  -21.4630  -11.5743 C   0  0  0  0  0  0  0  0  0  0  0  0
   26.9887  -20.5491  -11.7146 C   0  0  0  0  0  0  0  0  0  0  0  0
   25.7626  -21.4363  -11.7249 C   0  0  2  0  0  0  0  0  0  0  0  0
   26.1964  -22.8063  -11.7332 N   0  0  0  0  0  0  0  0  0  0  0  0
   24.9069  -21.0965  -12.8769 C   0  0  0  0  0  0  0  0  0  0  0  0
   25.3681  -21.0196  -14.0442 O   0  0  0  0  0  0  0  0  0  0  0  0
   32.6438  -23.1109  -11.2031 N   0  0  0  0  0  0  0  0  0  0  0  0
   23.5003  -20.8491  -12.6177 C   0  0  0  0  0  0  0  0  0  0  0  0
   22.7144  -20.5058  -13.7720 C   0  0  0  0  0  0  0  0  0  0  0  0
   21.3188  -20.2657  -13.4132 O   0  0  0  0  0  0  0  0  0  0  0  0
   21.0300  -20.4224  -12.1711 N   0  0  0  0  0  0  0  0  0  0  0  0
   20.2695  -19.8878  -14.2662 C   0  0  1  0  0  0  0  0  0  0  0  0
   18.9051  -19.7938  -13.7284 C   0  0  0  0  0  0  0  0  0  0  0  0
   18.0825  -18.8828  -14.6387 C   0  0  0  0  0  0  0  0  0  0  0  0
   18.3692  -17.4871  -14.3252 O   0  0  0  0  0  0  0  0  0  0  0  0
   19.1137  -17.2160  -13.3440 C   0  0  0  0  0  0  0  0  0  0  0  0
   18.2819  -21.1270  -13.6906 O   0  0  0  0  0  0  0  0  0  0  0  0
   18.8751  -22.2198  -14.3199 O   0  0  0  0  0  0  0  0  0  0  0  0
   17.8689  -16.4055  -15.0482 O   0  0  0  0  0  0  0  0  0  0  0  0
  1  2  1  0
  2  3  2  0
  4  5  1  0
  4  2  1  0
  6  7  1  0
  6  5  1  0
  7  8  1  0
  8  9  1  6
 10  8  1  0
 10 12  1  0
 11 10  2  0
 12 13  1  0
 13 14  1  0
 14 15  2  0
 14 16  1  0
 16 17  1  0
 17 21  1  0
 17 18  1  1
 18 19  1  0
 19 23  1  0
 20 19  2  0
 21 24  2  0
 21 22  1  0
M  END
$$$$
