RGD.pdb
     RDKit          3D

 24 23  0  0  1  0  0  0  0  0999 V2000
   24.2095  -21.1980  -13.9328 N   0  0  0  0  0  0  0  0  0  0  0  0
   23.5231  -20.8075  -15.1038 C   0  0  0  0  0  0  0  0  0  0  0  0
   24.0176  -21.0473  -16.2850 N   0  0  0  0  0  0  0  0  0  0  0  0
   22.2662  -20.1415  -14.9472 N   0  0  0  0  0  0  0  0  0  0  0  0
   21.6832  -19.9934  -13.6593 C   0  0  0  0  0  0  0  0  0  0  0  0
   20.7145  -21.0836  -13.2775 C   0  0  0  0  0  0  0  0  0  0  0  0
   19.3516  -20.5592  -12.8839 C   0  0  0  0  0  0  0  0  0  0  0  0
   19.3211  -20.5187  -11.3713 C   0  0  2  0  0  0  0  0  0  0  0  0
   20.5320  -19.8963  -10.9116 N   0  0  0  0  0  0  0  0  0  0  0  0
   19.1349  -21.8804  -10.8365 C   0  0  0  0  0  0  0  0  0  0  0  0
   18.1776  -22.6096  -11.2011 O   0  0  0  0  0  0  0  0  0  0  0  0
   23.4714  -20.7365  -17.1150 N   0  0  0  0  0  0  0  0  0  0  0  0
   20.1012  -22.3568   -9.8636 C   0  0  0  0  0  0  0  0  0  0  0  0
   19.9485  -23.7312   -9.4691 C   0  0  0  0  0  0  0  0  0  0  0  0
   18.8370  -23.8963   -8.5355 O   0  0  0  0  0  0  0  0  0  0  0  0
   18.1890  -22.8246   -8.2486 N   0  0  0  0  0  0  0  0  0  0  0  0
   18.4039  -25.0832   -7.9230 C   0  0  1  0  0  0  0  0  0  0  0  0
   17.2783  -25.0353   -6.9795 C   0  0  0  0  0  0  0  0  0  0  0  0
   16.5456  -26.3756   -7.0241 C   0  0  0  0  0  0  0  0  0  0  0  0
   15.4184  -26.3500   -6.0982 O   0  0  0  0  0  0  0  0  0  0  0  0
   14.9174  -25.2410   -5.7673 C   0  0  0  0  0  0  0  0  0  0  0  0
   17.7719  -24.8012   -5.6125 O   0  0  0  0  0  0  0  0  0  0  0  0
   16.9466  -24.2586   -4.6295 O   0  0  0  0  0  0  0  0  0  0  0  0
   14.8407  -27.4888   -5.5393 O   0  0  0  0  0  0  0  0  0  0  0  0
  1  2  1  0
  2  3  2  0
  4  5  1  0
  4  2  1  0
  6  7  1  0
  6  5  1  0
  7  8  1  0
  8  9  1  1
 10  8  1  0
 10 12  1  0
 11 10  2  0
 12 13  1  0
 13 14  1  0
 14 15  2  0
 14 16  1  0
 16 17  1  0
 17 21  1  0
 17 18  1  1
 18 19  1  0
 19 23  1  0
 20 19  2  0
 21 24  2  0
 21 22  1  0
M  END
$$$$
