RGD.pdb
     RDKit          3D

 24 23  0  0  1  0  0  0  0  0999 V2000
   22.2420  -18.4537  -19.5851 N   0  0  0  0  0  0  0  0  0  0  0  0
   22.8250  -17.2562  -20.0550 C   0  0  0  0  0  0  0  0  0  0  0  0
   22.0943  -16.2098  -20.3164 N   0  0  0  0  0  0  0  0  0  0  0  0
   24.2448  -17.2325  -20.2320 N   0  0  0  0  0  0  0  0  0  0  0  0
   25.0395  -18.3449  -19.8429 C   0  0  0  0  0  0  0  0  0  0  0  0
   25.5960  -18.2627  -18.4442 C   0  0  0  0  0  0  0  0  0  0  0  0
   27.0729  -18.5799  -18.3705 C   0  0  0  0  0  0  0  0  0  0  0  0
   27.2037  -19.8609  -17.5751 C   0  0  2  0  0  0  0  0  0  0  0  0
   26.0321  -20.6594  -17.8089 N   0  0  0  0  0  0  0  0  0  0  0  0
   27.4112  -19.5471  -16.1491 C   0  0  0  0  0  0  0  0  0  0  0  0
   28.3194  -18.7650  -15.7688 O   0  0  0  0  0  0  0  0  0  0  0  0
   22.5784  -15.3415  -20.6257 N   0  0  0  0  0  0  0  0  0  0  0  0
   26.5254  -20.1780  -15.1877 C   0  0  0  0  0  0  0  0  0  0  0  0
   26.5544  -19.6152  -13.8647 C   0  0  0  0  0  0  0  0  0  0  0  0
   25.5563  -20.2391  -12.9993 O   0  0  0  0  0  0  0  0  0  0  0  0
   24.7089  -21.0030  -13.5900 N   0  0  0  0  0  0  0  0  0  0  0  0
   25.4216  -20.0970  -11.6089 C   0  0  1  0  0  0  0  0  0  0  0  0
   24.3388  -20.8087  -10.9158 C   0  0  0  0  0  0  0  0  0  0  0  0
   24.4244  -20.4943   -9.4228 C   0  0  0  0  0  0  0  0  0  0  0  0
   25.6702  -21.0252   -8.8799 O   0  0  0  0  0  0  0  0  0  0  0  0
   26.3855  -21.7756   -9.5981 C   0  0  0  0  0  0  0  0  0  0  0  0
   23.0315  -20.3654  -11.4274 O   0  0  0  0  0  0  0  0  0  0  0  0
   21.9092  -21.1879  -11.3509 O   0  0  0  0  0  0  0  0  0  0  0  0
   26.1392  -20.7571   -7.5949 O   0  0  0  0  0  0  0  0  0  0  0  0
  1  2  1  0
  2  3  2  0
  4  5  1  0
  4  2  1  0
  6  7  1  0
  6  5  1  0
  7  8  1  0
  8  9  1  1
 10  8  1  0
 10 12  1  0
 11 10  2  0
 12 13  1  0
 13 14  1  0
 14 15  2  0
 14 16  1  0
 16 17  1  0
 17 21  1  0
 17 18  1  1
 18 19  1  0
 19 23  1  0
 20 19  2  0
 21 24  2  0
 21 22  1  0
M  END
$$$$
