SLL.pdb
     RDKit          3D

 23 22  0  0  1  0  0  0  0  0999 V2000
    8.8386  -18.8693   23.4963 O   0  0  0  0  0  0  0  0  0  0  0  0
    9.2775  -18.7391   22.1954 C   0  0  0  0  0  0  0  0  0  0  0  0
    8.4877  -17.6320   21.5453 C   0  0  2  0  0  0  0  0  0  0  0  0
    8.8805  -17.5349   20.1720 N   0  0  0  0  0  0  0  0  0  0  0  0
    8.7272  -16.3462   22.2576 C   0  0  0  0  0  0  0  0  0  0  0  0
    9.8054  -15.7002   22.0388 O   0  0  0  0  0  0  0  0  0  0  0  0
    7.9954  -12.0327   25.1842 C   0  0  0  0  0  0  0  0  0  0  0  0
    6.7152  -12.8011   25.1209 C   0  0  2  0  0  0  0  0  0  0  0  0
    5.9431  -12.5162   26.3872 C   0  0  0  0  0  0  0  0  0  0  0  0
    6.8233  -14.2302   24.7767 C   0  0  0  0  0  0  0  0  0  0  0  0
    8.0034  -14.6417   23.9437 C   0  0  2  0  0  0  0  0  0  0  0  0
    7.7709  -15.8383   23.1716 N   0  0  0  0  0  0  0  0  0  0  0  0
    9.1031  -14.9291   24.8995 C   0  0  0  0  0  0  0  0  0  0  0  0
   10.0301  -14.0953   25.0191 O   0  0  0  0  0  0  0  0  0  0  0  0
   10.2118  -14.2387   29.8551 C   0  0  0  0  0  0  0  0  0  0  0  0
   10.7302  -14.5986   28.4536 C   0  0  2  0  0  0  0  0  0  0  0  0
   10.7112  -13.3504   27.6194 C   0  0  0  0  0  0  0  0  0  0  0  0
    9.8301  -15.6696   27.9397 C   0  0  0  0  0  0  0  0  0  0  0  0
   10.2402  -16.2882   26.6374 C   0  0  2  0  0  0  0  0  0  0  0  0
    9.1629  -16.0956   25.6854 N   0  0  0  0  0  0  0  0  0  0  0  0
   10.6153  -17.7070   26.7307 C   0  0  0  0  0  0  0  0  0  0  0  0
   11.9739  -18.0312   26.8914 O   0  0  0  0  0  0  0  0  0  0  0  0
    9.7652  -18.6270   26.6716 O   0  0  0  0  0  0  0  0  0  0  0  0
  2  1  1  0
  3  4  1  6
  3  2  1  0
  3  5  1  0
  5 12  1  0
  5  6  2  0
  8  7  1  1
  8  9  1  0
  8 10  1  0
 11 10  1  1
 11 13  1  0
 12 11  1  0
 13 14  2  0
 16 18  1  0
 16 15  1  1
 17 16  1  0
 19 18  1  1
 19 21  1  0
 20 13  1  0
 20 19  1  0
 21 22  1  0
 23 21  2  0
M  END
$$$$
