SLL.pdb
     RDKit          3D

 23 22  0  0  1  0  0  0  0  0999 V2000
    9.8086  -19.1606   23.1522 O   0  0  0  0  0  0  0  0  0  0  0  0
    8.4350  -19.1539   23.2758 C   0  0  0  0  0  0  0  0  0  0  0  0
    7.8805  -18.1846   22.2633 C   0  0  2  0  0  0  0  0  0  0  0  0
    8.4724  -18.4641   20.9901 N   0  0  0  0  0  0  0  0  0  0  0  0
    8.1659  -16.7850   22.6851 C   0  0  0  0  0  0  0  0  0  0  0  0
    9.1607  -16.1683   22.1775 O   0  0  0  0  0  0  0  0  0  0  0  0
    7.9294  -12.1690   25.1471 C   0  0  0  0  0  0  0  0  0  0  0  0
    6.5821  -12.7982   25.2961 C   0  0  2  0  0  0  0  0  0  0  0  0
    6.0769  -12.4834   26.6841 C   0  0  0  0  0  0  0  0  0  0  0  0
    6.4734  -14.2167   24.9107 C   0  0  0  0  0  0  0  0  0  0  0  0
    7.5788  -14.7776   24.0626 C   0  0  2  0  0  0  0  0  0  0  0  0
    7.3444  -16.1375   23.6409 N   0  0  0  0  0  0  0  0  0  0  0  0
    8.7952  -14.7736   24.9146 C   0  0  0  0  0  0  0  0  0  0  0  0
    9.3445  -13.6784   25.1747 O   0  0  0  0  0  0  0  0  0  0  0  0
    9.9900  -15.0429   30.1168 C   0  0  0  0  0  0  0  0  0  0  0  0
   10.8199  -15.1428   28.8269 C   0  0  2  0  0  0  0  0  0  0  0  0
   11.5988  -13.8679   28.6786 C   0  0  0  0  0  0  0  0  0  0  0  0
    9.8460  -15.3752   27.7228 C   0  0  0  0  0  0  0  0  0  0  0  0
   10.4363  -15.8542   26.4310 C   0  0  2  0  0  0  0  0  0  0  0  0
    9.3706  -15.9412   25.4508 N   0  0  0  0  0  0  0  0  0  0  0  0
   11.1662  -17.1267   26.5320 C   0  0  0  0  0  0  0  0  0  0  0  0
   10.6919  -18.2304   25.8014 O   0  0  0  0  0  0  0  0  0  0  0  0
   12.1901  -17.2538   27.2448 O   0  0  0  0  0  0  0  0  0  0  0  0
  2  1  1  0
  3  4  1  6
  3  2  1  0
  3  5  1  0
  5 12  1  0
  5  6  2  0
  8  7  1  1
  8  9  1  0
  8 10  1  0
 11 10  1  1
 11 13  1  0
 12 11  1  0
 13 14  2  0
 16 18  1  0
 16 15  1  1
 17 16  1  0
 19 18  1  1
 19 21  1  0
 20 13  1  0
 20 19  1  0
 21 22  1  0
 23 21  2  0
M  END
$$$$
