SLL.pdb
     RDKit          3D

 23 22  0  0  1  0  0  0  0  0999 V2000
   12.5409  -19.4586   21.4694 O   0  0  0  0  0  0  0  0  0  0  0  0
   11.3061  -19.3475   20.8653 C   0  0  0  0  0  0  0  0  0  0  0  0
   11.3043  -18.0887   20.0361 C   0  0  2  0  0  0  0  0  0  0  0  0
   12.5968  -17.9306   19.4411 N   0  0  0  0  0  0  0  0  0  0  0  0
   10.9656  -16.9152   20.8883 C   0  0  0  0  0  0  0  0  0  0  0  0
   11.9018  -16.1646   21.3216 O   0  0  0  0  0  0  0  0  0  0  0  0
    8.4374  -12.8956   20.5714 C   0  0  0  0  0  0  0  0  0  0  0  0
    7.5862  -14.1222   20.6359 C   0  0  2  0  0  0  0  0  0  0  0  0
    6.1474  -13.6946   20.4687 C   0  0  0  0  0  0  0  0  0  0  0  0
    7.8283  -15.0307   21.7711 C   0  0  0  0  0  0  0  0  0  0  0  0
    9.2456  -15.4724   21.9984 C   0  0  2  0  0  0  0  0  0  0  0  0
    9.6180  -16.6283   21.2192 N   0  0  0  0  0  0  0  0  0  0  0  0
    9.3360  -15.8478   23.4324 C   0  0  0  0  0  0  0  0  0  0  0  0
    9.3231  -17.0622   23.7388 O   0  0  0  0  0  0  0  0  0  0  0  0
    9.2347  -13.1017   28.9125 C   0  0  0  0  0  0  0  0  0  0  0  0
    9.6541  -14.3941   28.1939 C   0  0  2  0  0  0  0  0  0  0  0  0
   11.0750  -14.6943   28.5748 C   0  0  0  0  0  0  0  0  0  0  0  0
    9.4717  -14.1377   26.7370 C   0  0  0  0  0  0  0  0  0  0  0  0
    9.5522  -15.3458   25.8535 C   0  0  2  0  0  0  0  0  0  0  0  0
    9.4362  -14.9078   24.4756 N   0  0  0  0  0  0  0  0  0  0  0  0
    8.5633  -16.3897   26.1610 C   0  0  0  0  0  0  0  0  0  0  0  0
    8.9856  -17.5207   26.8817 O   0  0  0  0  0  0  0  0  0  0  0  0
    7.3652  -16.3002   25.8017 O   0  0  0  0  0  0  0  0  0  0  0  0
  2  1  1  0
  3  4  1  1
  3  2  1  0
  3  5  1  0
  5 12  1  0
  5  6  2  0
  8  7  1  1
  8  9  1  0
  8 10  1  0
 11 10  1  6
 11 13  1  0
 12 11  1  0
 13 14  2  0
 16 18  1  0
 16 15  1  1
 17 16  1  0
 19 18  1  1
 19 21  1  0
 20 13  1  0
 20 19  1  0
 21 22  1  0
 23 21  2  0
M  END
$$$$
