SLL.pdb
     RDKit          3D

 23 22  0  0  1  0  0  0  0  0999 V2000
   10.6408  -17.9250   15.1349 O   0  0  0  0  0  0  0  0  0  0  0  0
    9.4696  -17.6278   15.7997 C   0  0  0  0  0  0  0  0  0  0  0  0
    9.5555  -18.2202   17.1831 C   0  0  2  0  0  0  0  0  0  0  0  0
    8.2708  -18.7434   17.5376 N   0  0  0  0  0  0  0  0  0  0  0  0
    9.9929  -17.1827   18.1579 C   0  0  0  0  0  0  0  0  0  0  0  0
   11.1926  -16.7505   18.1167 O   0  0  0  0  0  0  0  0  0  0  0  0
    8.2655  -12.9483   19.1760 C   0  0  0  0  0  0  0  0  0  0  0  0
    7.5052  -14.0434   19.8513 C   0  0  2  0  0  0  0  0  0  0  0  0
    6.3101  -13.4221   20.5343 C   0  0  0  0  0  0  0  0  0  0  0  0
    8.2882  -14.9605   20.6990 C   0  0  0  0  0  0  0  0  0  0  0  0
    9.4645  -15.6406   20.0592 C   0  0  2  0  0  0  0  0  0  0  0  0
    9.0906  -16.6750   19.1253 N   0  0  0  0  0  0  0  0  0  0  0  0
   10.2207  -16.2833   21.1641 C   0  0  0  0  0  0  0  0  0  0  0  0
    9.8509  -17.4084   21.5720 O   0  0  0  0  0  0  0  0  0  0  0  0
   15.5950  -15.6359   23.9865 C   0  0  0  0  0  0  0  0  0  0  0  0
   14.3521  -16.5329   23.8713 C   0  0  2  0  0  0  0  0  0  0  0  0
   14.8066  -17.9000   23.4484 C   0  0  0  0  0  0  0  0  0  0  0  0
   13.4537  -15.8736   22.8817 C   0  0  0  0  0  0  0  0  0  0  0  0
   12.0474  -16.3908   22.8410 C   0  0  2  0  0  0  0  0  0  0  0  0
   11.3391  -15.6944   21.7839 N   0  0  0  0  0  0  0  0  0  0  0  0
   11.3254  -16.2874   24.1177 C   0  0  0  0  0  0  0  0  0  0  0  0
   11.4205  -17.3540   25.0290 O   0  0  0  0  0  0  0  0  0  0  0  0
   10.6337  -15.2842   24.4136 O   0  0  0  0  0  0  0  0  0  0  0  0
  2  1  1  0
  3  4  1  1
  3  2  1  0
  3  5  1  0
  5 12  1  0
  5  6  2  0
  8  7  1  1
  8  9  1  0
  8 10  1  0
 11 10  1  1
 11 13  1  0
 12 11  1  0
 13 14  2  0
 16 18  1  0
 16 15  1  6
 17 16  1  0
 19 18  1  1
 19 21  1  0
 20 13  1  0
 20 19  1  0
 21 22  1  0
 23 21  2  0
M  END
$$$$
