SLL.pdb
     RDKit          3D

 23 22  0  0  1  0  0  0  0  0999 V2000
    6.7410  -20.1865   24.5416 O   0  0  0  0  0  0  0  0  0  0  0  0
    7.5348  -19.4223   23.7122 C   0  0  0  0  0  0  0  0  0  0  0  0
    6.7520  -18.1963   23.3172 C   0  0  2  0  0  0  0  0  0  0  0  0
    6.2782  -18.3678   21.9771 N   0  0  0  0  0  0  0  0  0  0  0  0
    7.6106  -16.9842   23.4250 C   0  0  0  0  0  0  0  0  0  0  0  0
    8.5443  -16.8003   22.5752 O   0  0  0  0  0  0  0  0  0  0  0  0
    6.9393  -12.1137   23.8545 C   0  0  0  0  0  0  0  0  0  0  0  0
    6.5771  -13.0312   24.9770 C   0  0  2  0  0  0  0  0  0  0  0  0
    5.8008  -12.2303   25.9953 C   0  0  0  0  0  0  0  0  0  0  0  0
    7.6703  -13.8440   25.5398 C   0  0  0  0  0  0  0  0  0  0  0  0
    8.2618  -14.8986   24.6489 C   0  0  2  0  0  0  0  0  0  0  0  0
    7.3987  -16.0391   24.4593 N   0  0  0  0  0  0  0  0  0  0  0  0
    9.4920  -15.3734   25.3321 C   0  0  0  0  0  0  0  0  0  0  0  0
   10.5820  -14.8174   25.0646 O   0  0  0  0  0  0  0  0  0  0  0  0
   10.6785  -14.0843   28.3277 C   0  0  0  0  0  0  0  0  0  0  0  0
    9.7650  -15.2428   28.7590 C   0  0  2  0  0  0  0  0  0  0  0  0
    9.4708  -15.0790   30.2222 C   0  0  0  0  0  0  0  0  0  0  0  0
   10.5043  -16.4967   28.4390 C   0  0  0  0  0  0  0  0  0  0  0  0
   10.7206  -16.7645   26.9801 C   0  0  2  0  0  0  0  0  0  0  0  0
    9.5022  -16.4220   26.2713 N   0  0  0  0  0  0  0  0  0  0  0  0
   11.1428  -18.1388   26.6713 C   0  0  0  0  0  0  0  0  0  0  0  0
   10.3342  -18.9122   25.8199 O   0  0  0  0  0  0  0  0  0  0  0  0
   12.1938  -18.6354   27.1416 O   0  0  0  0  0  0  0  0  0  0  0  0
  2  1  1  0
  3  4  1  6
  3  2  1  0
  3  5  1  0
  5 12  1  0
  5  6  2  0
  8  7  1  6
  8  9  1  0
  8 10  1  0
 11 10  1  1
 11 13  1  0
 12 11  1  0
 13 14  2  0
 16 18  1  0
 16 15  1  1
 17 16  1  0
 19 18  1  1
 19 21  1  0
 20 13  1  0
 20 19  1  0
 21 22  1  0
 23 21  2  0
M  END
$$$$
