SLL.pdb
     RDKit          3D

 23 22  0  0  1  0  0  0  0  0999 V2000
    9.7064  -18.9633   22.9027 O   0  0  0  0  0  0  0  0  0  0  0  0
    8.3534  -19.0382   22.6465 C   0  0  0  0  0  0  0  0  0  0  0  0
    7.9823  -17.8793   21.7571 C   0  0  2  0  0  0  0  0  0  0  0  0
    8.6187  -18.0551   20.4867 N   0  0  0  0  0  0  0  0  0  0  0  0
    8.4009  -16.5963   22.3869 C   0  0  0  0  0  0  0  0  0  0  0  0
    9.4559  -16.0102   21.9730 O   0  0  0  0  0  0  0  0  0  0  0  0
    6.3053  -12.5243   26.7249 C   0  0  0  0  0  0  0  0  0  0  0  0
    7.3406  -13.0412   25.7793 C   0  0  2  0  0  0  0  0  0  0  0  0
    7.7640  -11.8975   24.8886 C   0  0  0  0  0  0  0  0  0  0  0  0
    7.0127  -14.2873   25.0635 C   0  0  0  0  0  0  0  0  0  0  0  0
    8.0528  -14.8252   24.1230 C   0  0  2  0  0  0  0  0  0  0  0  0
    7.6397  -16.0255   23.4369 N   0  0  0  0  0  0  0  0  0  0  0  0
    9.2296  -15.1681   24.9615 C   0  0  0  0  0  0  0  0  0  0  0  0
   10.3075  -14.5618   24.7630 O   0  0  0  0  0  0  0  0  0  0  0  0
   10.8344  -13.7601   28.0404 C   0  0  0  0  0  0  0  0  0  0  0  0
    9.6358  -14.6385   28.4334 C   0  0  2  0  0  0  0  0  0  0  0  0
    9.2963  -14.3429   29.8657 C   0  0  0  0  0  0  0  0  0  0  0  0
   10.0602  -16.0485   28.2030 C   0  0  0  0  0  0  0  0  0  0  0  0
   10.3793  -16.4029   26.7819 C   0  0  2  0  0  0  0  0  0  0  0  0
    9.2017  -16.1444   25.9753 N   0  0  0  0  0  0  0  0  0  0  0  0
   10.8574  -17.7805   26.5925 C   0  0  0  0  0  0  0  0  0  0  0  0
   10.1367  -18.6268   25.7316 O   0  0  0  0  0  0  0  0  0  0  0  0
   11.8802  -18.2173   27.1718 O   0  0  0  0  0  0  0  0  0  0  0  0
  2  1  1  0
  3  4  1  6
  3  2  1  0
  3  5  1  0
  5 12  1  0
  5  6  2  0
  8  7  1  6
  8  9  1  0
  8 10  1  0
 11 10  1  1
 11 13  1  0
 12 11  1  0
 13 14  2  0
 16 18  1  0
 16 15  1  1
 17 16  1  0
 19 18  1  1
 19 21  1  0
 20 13  1  0
 20 19  1  0
 21 22  1  0
 23 21  2  0
M  END
$$$$
