SLL.pdb
     RDKit          3D

 23 22  0  0  1  0  0  0  0  0999 V2000
    7.2091  -18.9229   23.9953 O   0  0  0  0  0  0  0  0  0  0  0  0
    7.6664  -19.8448   23.0772 C   0  0  0  0  0  0  0  0  0  0  0  0
    7.3794  -19.3106   21.6973 C   0  0  2  0  0  0  0  0  0  0  0  0
    7.7162  -20.3180   20.7373 N   0  0  0  0  0  0  0  0  0  0  0  0
    8.1620  -18.0665   21.4572 C   0  0  0  0  0  0  0  0  0  0  0  0
    9.4316  -18.1354   21.3520 O   0  0  0  0  0  0  0  0  0  0  0  0
    7.2438  -12.0158   20.0191 C   0  0  0  0  0  0  0  0  0  0  0  0
    8.1024  -13.2020   20.3174 C   0  0  2  0  0  0  0  0  0  0  0  0
    9.1101  -13.3347   19.2004 C   0  0  0  0  0  0  0  0  0  0  0  0
    7.4001  -14.4513   20.6617 C   0  0  0  0  0  0  0  0  0  0  0  0
    8.2377  -15.5767   21.1981 C   0  0  2  0  0  0  0  0  0  0  0  0
    7.5095  -16.8136   21.3455 N   0  0  0  0  0  0  0  0  0  0  0  0
    8.6824  -15.1520   22.5500 C   0  0  0  0  0  0  0  0  0  0  0  0
    9.6973  -14.4248   22.6490 O   0  0  0  0  0  0  0  0  0  0  0  0
    5.7682  -12.8307   26.9945 C   0  0  0  0  0  0  0  0  0  0  0  0
    7.1845  -13.3380   26.6793 C   0  0  2  0  0  0  0  0  0  0  0  0
    8.0996  -12.1489   26.6248 C   0  0  0  0  0  0  0  0  0  0  0  0
    7.0855  -14.0705   25.3851 C   0  0  0  0  0  0  0  0  0  0  0  0
    8.3071  -14.8406   24.9836 C   0  0  2  0  0  0  0  0  0  0  0  0
    8.0220  -15.5240   23.7363 N   0  0  0  0  0  0  0  0  0  0  0  0
    8.7932  -15.7824   26.0028 C   0  0  0  0  0  0  0  0  0  0  0  0
    9.6467  -15.2977   27.0096 O   0  0  0  0  0  0  0  0  0  0  0  0
    8.4709  -16.9942   25.9992 O   0  0  0  0  0  0  0  0  0  0  0  0
  2  1  1  0
  3  4  1  6
  3  2  1  0
  3  5  1  0
  5 12  1  0
  5  6  2  0
  8  7  1  6
  8  9  1  0
  8 10  1  0
 11 10  1  1
 11 13  1  0
 12 11  1  0
 13 14  2  0
 16 18  1  0
 16 15  1  6
 17 16  1  0
 19 18  1  1
 19 21  1  0
 20 13  1  0
 20 19  1  0
 21 22  1  0
 23 21  2  0
M  END
$$$$
