SLL.pdb
     RDKit          3D

 23 22  0  0  1  0  0  0  0  0999 V2000
    8.9214  -19.5502   23.4449 O   0  0  0  0  0  0  0  0  0  0  0  0
    7.5900  -19.2153   23.5756 C   0  0  0  0  0  0  0  0  0  0  0  0
    7.2876  -18.1134   22.5925 C   0  0  2  0  0  0  0  0  0  0  0  0
    7.7354  -18.5217   21.2954 N   0  0  0  0  0  0  0  0  0  0  0  0
    7.9603  -16.8532   23.0134 C   0  0  0  0  0  0  0  0  0  0  0  0
    9.0340  -16.4903   22.4276 O   0  0  0  0  0  0  0  0  0  0  0  0
    7.3294  -11.8272   24.3620 C   0  0  0  0  0  0  0  0  0  0  0  0
    6.5110  -12.8548   25.0744 C   0  0  2  0  0  0  0  0  0  0  0  0
    5.7463  -12.1553   26.1729 C   0  0  0  0  0  0  0  0  0  0  0  0
    7.2168  -14.0767   25.5003 C   0  0  0  0  0  0  0  0  0  0  0  0
    8.0098  -14.8042   24.4527 C   0  0  2  0  0  0  0  0  0  0  0  0
    7.4188  -16.0589   24.0545 N   0  0  0  0  0  0  0  0  0  0  0  0
    9.3288  -15.1024   25.0666 C   0  0  0  0  0  0  0  0  0  0  0  0
   10.3349  -14.4720   24.6676 O   0  0  0  0  0  0  0  0  0  0  0  0
   10.6554  -13.6422   28.0701 C   0  0  0  0  0  0  0  0  0  0  0  0
    9.8882  -14.8679   28.5914 C   0  0  2  0  0  0  0  0  0  0  0  0
    9.7603  -14.7336   30.0813 C   0  0  0  0  0  0  0  0  0  0  0  0
   10.6745  -16.0613   28.1684 C   0  0  0  0  0  0  0  0  0  0  0  0
   10.8172  -16.2494   26.6883 C   0  0  2  0  0  0  0  0  0  0  0  0
    9.5136  -16.0618   26.0802 N   0  0  0  0  0  0  0  0  0  0  0  0
   11.4032  -17.5391   26.2939 C   0  0  0  0  0  0  0  0  0  0  0  0
   10.6464  -18.3961   25.4756 O   0  0  0  0  0  0  0  0  0  0  0  0
   12.5482  -17.8924   26.6635 O   0  0  0  0  0  0  0  0  0  0  0  0
  2  1  1  0
  3  4  1  6
  3  2  1  0
  3  5  1  0
  5 12  1  0
  5  6  2  0
  8  7  1  1
  8  9  1  0
  8 10  1  0
 11 10  1  1
 11 13  1  0
 12 11  1  0
 13 14  2  0
 16 18  1  0
 16 15  1  1
 17 16  1  0
 19 18  1  1
 19 21  1  0
 20 13  1  0
 20 19  1  0
 21 22  1  0
 23 21  2  0
M  END
$$$$
