SLL.pdb
     RDKit          3D

 23 22  0  0  1  0  0  0  0  0999 V2000
    9.6646  -18.8420   21.5321 O   0  0  0  0  0  0  0  0  0  0  0  0
   10.1742  -18.0201   20.5489 C   0  0  0  0  0  0  0  0  0  0  0  0
    9.3725  -16.7437   20.5463 C   0  0  2  0  0  0  0  0  0  0  0  0
    9.8205  -15.9240   19.4613 N   0  0  0  0  0  0  0  0  0  0  0  0
    9.5328  -16.0360   21.8469 C   0  0  0  0  0  0  0  0  0  0  0  0
   10.6694  -15.5473   22.1582 O   0  0  0  0  0  0  0  0  0  0  0  0
    5.8214  -13.3894   26.1531 C   0  0  0  0  0  0  0  0  0  0  0  0
    7.1462  -13.6706   25.5213 C   0  0  2  0  0  0  0  0  0  0  0  0
    7.7547  -12.3486   25.1176 C   0  0  0  0  0  0  0  0  0  0  0  0
    7.1662  -14.7021   24.4686 C   0  0  0  0  0  0  0  0  0  0  0  0
    8.5115  -15.1027   23.9344 C   0  0  2  0  0  0  0  0  0  0  0  0
    8.4375  -15.9028   22.7359 N   0  0  0  0  0  0  0  0  0  0  0  0
    9.1449  -15.9320   24.9911 C   0  0  0  0  0  0  0  0  0  0  0  0
    9.0687  -17.1791   24.9042 O   0  0  0  0  0  0  0  0  0  0  0  0
   10.2529  -13.1604   27.9026 C   0  0  0  0  0  0  0  0  0  0  0  0
   10.0796  -14.4703   28.6879 C   0  0  2  0  0  0  0  0  0  0  0  0
   10.2879  -14.1673   30.1435 C   0  0  0  0  0  0  0  0  0  0  0  0
   11.0803  -15.4243   28.1311 C   0  0  0  0  0  0  0  0  0  0  0  0
   10.6120  -16.2461   26.9684 C   0  0  2  0  0  0  0  0  0  0  0  0
    9.8319  -15.3907   26.0943 N   0  0  0  0  0  0  0  0  0  0  0  0
    9.8554  -17.4504   27.3417 C   0  0  0  0  0  0  0  0  0  0  0  0
   10.5387  -18.4980   27.9840 O   0  0  0  0  0  0  0  0  0  0  0  0
    8.6295  -17.5681   27.1053 O   0  0  0  0  0  0  0  0  0  0  0  0
  2  1  1  0
  3  4  1  6
  3  2  1  0
  3  5  1  0
  5 12  1  0
  5  6  2  0
  8  7  1  6
  8  9  1  0
  8 10  1  0
 11 10  1  1
 11 13  1  0
 12 11  1  0
 13 14  2  0
 16 18  1  0
 16 15  1  6
 17 16  1  0
 19 18  1  1
 19 21  1  0
 20 13  1  0
 20 19  1  0
 21 22  1  0
 23 21  2  0
M  END
$$$$
