SLL.pdb
     RDKit          3D

 23 22  0  0  1  0  0  0  0  0999 V2000
    9.5219  -20.0090   22.9826 O   0  0  0  0  0  0  0  0  0  0  0  0
    8.5374  -19.2922   23.6299 C   0  0  0  0  0  0  0  0  0  0  0  0
    7.7531  -18.5333   22.5902 C   0  0  2  0  0  0  0  0  0  0  0  0
    8.1773  -18.9638   21.2923 N   0  0  0  0  0  0  0  0  0  0  0  0
    7.9640  -17.0687   22.7583 C   0  0  0  0  0  0  0  0  0  0  0  0
    8.8868  -16.4884   22.0953 O   0  0  0  0  0  0  0  0  0  0  0  0
    7.8680  -12.2631   25.1469 C   0  0  0  0  0  0  0  0  0  0  0  0
    6.5110  -12.8889   25.1263 C   0  0  2  0  0  0  0  0  0  0  0  0
    5.7458  -12.3706   26.3208 C   0  0  0  0  0  0  0  0  0  0  0  0
    6.4652  -14.3523   24.9563 C   0  0  0  0  0  0  0  0  0  0  0  0
    7.4618  -14.9586   24.0102 C   0  0  2  0  0  0  0  0  0  0  0  0
    7.1511  -16.3194   23.6447 N   0  0  0  0  0  0  0  0  0  0  0  0
    8.7603  -14.9711   24.7309 C   0  0  0  0  0  0  0  0  0  0  0  0
    9.6019  -14.0807   24.4706 O   0  0  0  0  0  0  0  0  0  0  0  0
   10.0097  -15.1675   30.3406 C   0  0  0  0  0  0  0  0  0  0  0  0
   10.7543  -15.2044   28.9964 C   0  0  2  0  0  0  0  0  0  0  0  0
   11.4849  -13.9025   28.8371 C   0  0  0  0  0  0  0  0  0  0  0  0
    9.7159  -15.4339   27.9521 C   0  0  0  0  0  0  0  0  0  0  0  0
   10.2363  -15.7275   26.5774 C   0  0  2  0  0  0  0  0  0  0  0  0
    9.1013  -15.9352   25.6983 N   0  0  0  0  0  0  0  0  0  0  0  0
   11.1703  -16.8613   26.5112 C   0  0  0  0  0  0  0  0  0  0  0  0
   10.6882  -18.0999   26.0524 O   0  0  0  0  0  0  0  0  0  0  0  0
   12.3732  -16.7554   26.8492 O   0  0  0  0  0  0  0  0  0  0  0  0
  2  1  1  0
  3  4  1  6
  3  2  1  0
  3  5  1  0
  5 12  1  0
  5  6  2  0
  8  7  1  1
  8  9  1  0
  8 10  1  0
 11 10  1  1
 11 13  1  0
 12 11  1  0
 13 14  2  0
 16 18  1  0
 16 15  1  1
 17 16  1  0
 19 18  1  1
 19 21  1  0
 20 13  1  0
 20 19  1  0
 21 22  1  0
 23 21  2  0
M  END
$$$$
