LWD.pdb
     RDKit          3D

 31 32  0  0  1  0  0  0  0  0999 V2000
    8.0350  -14.0755   18.0168 C   0  0  0  0  0  0  0  0  0  0  0  0
    7.9035  -13.3925   19.3478 C   0  0  2  0  0  0  0  0  0  0  0  0
    8.0429  -11.8890   19.0719 C   0  0  0  0  0  0  0  0  0  0  0  0
    8.9633  -13.7442   20.3300 C   0  0  0  0  0  0  0  0  0  0  0  0
    8.9184  -15.1671   20.8278 C   0  0  2  0  0  0  0  0  0  0  0  0
    7.6025  -15.7228   20.8266 N   0  0  0  0  0  0  0  0  0  0  0  0
    9.5869  -15.3029   22.1579 C   0  0  0  0  0  0  0  0  0  0  0  0
   10.7251  -14.8098   22.3900 O   0  0  0  0  0  0  0  0  0  0  0  0
    8.9398  -16.0100   23.2257 N   0  0  0  0  0  0  0  0  0  0  0  0
    9.4775  -16.0667   24.5563 C   0  0  1  0  0  0  0  0  0  0  0  0
    8.4385  -16.2763   25.6371 C   0  0  0  0  0  0  0  0  0  0  0  0
    7.3593  -15.2725   25.6330 C   0  0  0  0  0  0  0  0  0  0  0  0
    6.0338  -15.5049   25.3354 C   0  0  0  0  0  0  0  0  0  0  0  0
    5.3822  -14.3412   25.4822 N   0  0  0  0  0  0  0  0  0  0  0  0
    6.2405  -13.3734   25.8616 C   0  0  0  0  0  0  0  0  0  0  0  0
    6.1274  -12.0329   26.1410 C   0  0  0  0  0  0  0  0  0  0  0  0
    7.1853  -11.2442   26.5081 C   0  0  0  0  0  0  0  0  0  0  0  0
    8.4151  -11.8146   26.6019 C   0  0  0  0  0  0  0  0  0  0  0  0
    8.5793  -13.1553   26.3319 C   0  0  0  0  0  0  0  0  0  0  0  0
    7.4974  -13.9502   25.9602 C   0  0  0  0  0  0  0  0  0  0  0  0
   10.4177  -17.2052   24.6645 C   0  0  0  0  0  0  0  0  0  0  0  0
   10.2762  -18.1628   23.8650 O   0  0  0  0  0  0  0  0  0  0  0  0
   11.4516  -17.2749   25.6041 N   0  0  0  0  0  0  0  0  0  0  0  0
   12.4249  -18.3723   25.6933 C   0  0  1  0  0  0  0  0  0  0  0  0
   13.7940  -17.9027   25.3613 C   0  0  0  0  0  0  0  0  0  0  0  0
   14.1518  -18.2153   23.9673 C   0  0  0  0  0  0  0  0  0  0  0  0
   13.3701  -18.7563   23.1472 O   0  0  0  0  0  0  0  0  0  0  0  0
   12.3635  -18.8300   27.1284 C   0  0  0  0  0  0  0  0  0  0  0  0
   11.5950  -18.1197   28.0771 O   0  0  0  0  0  0  0  0  0  0  0  0
   15.4340  -17.9110   23.4687 O   0  0  0  0  0  0  0  0  0  0  0  0
   12.9747  -19.8320   27.5309 O   0  0  0  0  0  0  0  0  0  0  0  0
  2  3  1  6
  2  1  1  0
  4  2  1  0
  5  4  1  0
  5  6  1  1
  7  5  1  0
  7  8  2  0
  9  7  1  0
 10  9  1  0
 10 11  1  1
 12 11  1  0
 13 12  2  0
 14 13  1  0
 15 14  1  0
 15 20  2  0
 16 15  1  0
 17 16  2  0
 17 18  1  0
 18 19  2  0
 19 20  1  0
 20 12  1  0
 21 10  1  0
 21 23  1  0
 22 21  2  0
 24 23  1  0
 24 28  1  0
 25 26  1  0
 24 25  1  1
 26 30  1  0
 27 26  2  0
 28 31  2  0
 28 29  1  0
M  END
$$$$
