LWD.pdb
     RDKit          3D

 31 32  0  0  1  0  0  0  0  0999 V2000
    8.2761  -14.0977   17.9084 C   0  0  0  0  0  0  0  0  0  0  0  0
    7.7117  -13.4880   19.1595 C   0  0  2  0  0  0  0  0  0  0  0  0
    7.5624  -11.9874   18.8734 C   0  0  0  0  0  0  0  0  0  0  0  0
    8.5883  -13.6075   20.3547 C   0  0  0  0  0  0  0  0  0  0  0  0
    8.8388  -15.0208   20.8178 C   0  0  2  0  0  0  0  0  0  0  0  0
    7.6652  -15.8350   20.8013 N   0  0  0  0  0  0  0  0  0  0  0  0
    9.5257  -15.0482   22.1451 C   0  0  0  0  0  0  0  0  0  0  0  0
   10.5410  -14.3397   22.3896 O   0  0  0  0  0  0  0  0  0  0  0  0
    9.0395  -15.8959   23.1957 N   0  0  0  0  0  0  0  0  0  0  0  0
    9.6309  -15.9263   24.5043 C   0  0  1  0  0  0  0  0  0  0  0  0
    8.6539  -16.2298   25.6200 C   0  0  0  0  0  0  0  0  0  0  0  0
    7.5018  -15.3122   25.6731 C   0  0  0  0  0  0  0  0  0  0  0  0
    6.1953  -15.6289   25.3695 C   0  0  0  0  0  0  0  0  0  0  0  0
    5.4586  -14.5275   25.5797 N   0  0  0  0  0  0  0  0  0  0  0  0
    6.2442  -13.5181   26.0056 C   0  0  0  0  0  0  0  0  0  0  0  0
    6.0322  -12.2064   26.3553 C   0  0  0  0  0  0  0  0  0  0  0  0
    7.0303  -11.3596   26.7587 C   0  0  0  0  0  0  0  0  0  0  0  0
    8.3005  -11.8389   26.8172 C   0  0  0  0  0  0  0  0  0  0  0  0
    8.5636  -13.1474   26.4767 C   0  0  0  0  0  0  0  0  0  0  0  0
    7.5420  -14.0019   26.0685 C   0  0  0  0  0  0  0  0  0  0  0  0
   10.6604  -16.9888   24.5600 C   0  0  0  0  0  0  0  0  0  0  0  0
   10.3372  -18.1413   24.1812 O   0  0  0  0  0  0  0  0  0  0  0  0
   11.9689  -16.7826   25.0094 N   0  0  0  0  0  0  0  0  0  0  0  0
   12.9971  -17.8294   25.0918 C   0  0  1  0  0  0  0  0  0  0  0  0
   14.3615  -17.2462   25.0334 C   0  0  0  0  0  0  0  0  0  0  0  0
   14.6267  -16.6155   23.7293 C   0  0  0  0  0  0  0  0  0  0  0  0
   14.0335  -16.9253   22.6670 O   0  0  0  0  0  0  0  0  0  0  0  0
   12.7694  -18.4928   26.4263 C   0  0  0  0  0  0  0  0  0  0  0  0
   11.8623  -17.9411   27.3578 O   0  0  0  0  0  0  0  0  0  0  0  0
   15.5929  -15.5973   23.6065 O   0  0  0  0  0  0  0  0  0  0  0  0
   13.3588  -19.5331   26.7580 O   0  0  0  0  0  0  0  0  0  0  0  0
  2  3  1  6
  2  1  1  0
  4  2  1  0
  5  4  1  0
  5  6  1  1
  7  5  1  0
  7  8  2  0
  9  7  1  0
 10  9  1  0
 10 11  1  1
 12 11  1  0
 13 12  2  0
 14 13  1  0
 15 14  1  0
 15 20  2  0
 16 15  1  0
 17 16  2  0
 17 18  1  0
 18 19  2  0
 19 20  1  0
 20 12  1  0
 21 10  1  0
 21 23  1  0
 22 21  2  0
 24 23  1  0
 24 28  1  0
 25 26  1  0
 24 25  1  1
 26 30  1  0
 27 26  2  0
 28 31  2  0
 28 29  1  0
M  END
$$$$
