LWD.pdb
     RDKit          3D

 31 32  0  0  1  0  0  0  0  0999 V2000
    8.0195  -12.3003   19.0899 C   0  0  0  0  0  0  0  0  0  0  0  0
    7.8222  -13.6046   19.8079 C   0  0  2  0  0  0  0  0  0  0  0  0
    6.7043  -13.3635   20.8318 C   0  0  0  0  0  0  0  0  0  0  0  0
    9.0070  -14.0730   20.5748 C   0  0  0  0  0  0  0  0  0  0  0  0
    8.9357  -15.5068   21.0371 C   0  0  2  0  0  0  0  0  0  0  0  0
    7.6348  -16.0798   20.8964 N   0  0  0  0  0  0  0  0  0  0  0  0
    9.4736  -15.6623   22.4231 C   0  0  0  0  0  0  0  0  0  0  0  0
   10.5565  -15.1257   22.7864 O   0  0  0  0  0  0  0  0  0  0  0  0
    8.7594  -16.4395   23.3950 N   0  0  0  0  0  0  0  0  0  0  0  0
    9.2128  -16.5950   24.7490 C   0  0  1  0  0  0  0  0  0  0  0  0
    8.0989  -16.6792   25.7706 C   0  0  0  0  0  0  0  0  0  0  0  0
    7.1661  -15.5386   25.7350 C   0  0  0  0  0  0  0  0  0  0  0  0
    5.8327  -15.5891   25.3903 C   0  0  0  0  0  0  0  0  0  0  0  0
    5.3396  -14.3482   25.5212 N   0  0  0  0  0  0  0  0  0  0  0  0
    6.3071  -13.5058   25.9356 C   0  0  0  0  0  0  0  0  0  0  0  0
    6.3665  -12.1626   26.2187 C   0  0  0  0  0  0  0  0  0  0  0  0
    7.5079  -11.5247   26.6267 C   0  0  0  0  0  0  0  0  0  0  0  0
    8.6451  -12.2564   26.7597 C   0  0  0  0  0  0  0  0  0  0  0  0
    8.6359  -13.6067   26.4879 C   0  0  0  0  0  0  0  0  0  0  0  0
    7.4702  -14.2474   26.0744 C   0  0  0  0  0  0  0  0  0  0  0  0
    9.9808  -17.8544   24.8745 C   0  0  0  0  0  0  0  0  0  0  0  0
    9.9019  -18.6872   23.9384 O   0  0  0  0  0  0  0  0  0  0  0  0
   10.7871  -18.1687   25.9735 N   0  0  0  0  0  0  0  0  0  0  0  0
   11.9474  -19.0693   25.9262 C   0  0  1  0  0  0  0  0  0  0  0  0
   12.9708  -18.5751   24.9706 C   0  0  0  0  0  0  0  0  0  0  0  0
   14.1854  -19.4077   24.9974 C   0  0  0  0  0  0  0  0  0  0  0  0
   14.3524  -20.3791   25.7751 O   0  0  0  0  0  0  0  0  0  0  0  0
   12.4985  -19.0662   27.3295 C   0  0  0  0  0  0  0  0  0  0  0  0
   13.5054  -19.9814   27.7082 O   0  0  0  0  0  0  0  0  0  0  0  0
   15.2562  -19.1455   24.1201 O   0  0  0  0  0  0  0  0  0  0  0  0
   12.0981  -18.2741   28.1966 O   0  0  0  0  0  0  0  0  0  0  0  0
  2  3  1  1
  2  1  1  0
  4  2  1  0
  5  4  1  0
  5  6  1  1
  7  5  1  0
  7  8  2  0
  9  7  1  0
 10  9  1  0
 10 11  1  1
 12 11  1  0
 13 12  2  0
 14 13  1  0
 15 14  1  0
 15 20  2  0
 16 15  1  0
 17 16  2  0
 17 18  1  0
 18 19  2  0
 19 20  1  0
 20 12  1  0
 21 10  1  0
 21 23  1  0
 22 21  2  0
 24 23  1  0
 24 28  1  0
 25 26  1  0
 24 25  1  6
 26 30  1  0
 27 26  2  0
 28 31  2  0
 28 29  1  0
M  END
$$$$
