LWD.pdb
     RDKit          3D

 31 32  0  0  1  0  0  0  0  0999 V2000
    7.9232  -12.6599   17.4382 C   0  0  0  0  0  0  0  0  0  0  0  0
    7.9306  -13.7124   18.5095 C   0  0  2  0  0  0  0  0  0  0  0  0
    7.5945  -12.9890   19.8210 C   0  0  0  0  0  0  0  0  0  0  0  0
    9.2457  -14.3754   18.7151 C   0  0  0  0  0  0  0  0  0  0  0  0
    9.1927  -15.6526   19.5154 C   0  0  2  0  0  0  0  0  0  0  0  0
    8.0751  -16.4785   19.1846 N   0  0  0  0  0  0  0  0  0  0  0  0
    9.2800  -15.3829   20.9830 C   0  0  0  0  0  0  0  0  0  0  0  0
   10.2101  -14.6926   21.4840 O   0  0  0  0  0  0  0  0  0  0  0  0
    8.2900  -15.9110   21.8774 N   0  0  0  0  0  0  0  0  0  0  0  0
    8.3280  -15.6879   23.2957 C   0  0  1  0  0  0  0  0  0  0  0  0
    6.9774  -15.7740   23.9739 C   0  0  0  0  0  0  0  0  0  0  0  0
    6.9783  -15.3067   25.3717 C   0  0  0  0  0  0  0  0  0  0  0  0
    7.0048  -16.1039   26.4956 C   0  0  0  0  0  0  0  0  0  0  0  0
    7.0320  -15.2897   27.5617 N   0  0  0  0  0  0  0  0  0  0  0  0
    7.0231  -14.0021   27.1624 C   0  0  0  0  0  0  0  0  0  0  0  0
    7.0335  -12.7880   27.8056 C   0  0  0  0  0  0  0  0  0  0  0  0
    7.0106  -11.5846   27.1518 C   0  0  0  0  0  0  0  0  0  0  0  0
    6.9754  -11.5875   25.7934 C   0  0  0  0  0  0  0  0  0  0  0  0
    6.9639  -12.7794   25.1032 C   0  0  0  0  0  0  0  0  0  0  0  0
    6.9885  -13.9987   25.7764 C   0  0  0  0  0  0  0  0  0  0  0  0
    9.1763  -16.7172   23.9383 C   0  0  0  0  0  0  0  0  0  0  0  0
    9.1034  -17.8934   23.5055 O   0  0  0  0  0  0  0  0  0  0  0  0
   10.0519  -16.4548   24.9972 N   0  0  0  0  0  0  0  0  0  0  0  0
   11.0878  -17.3825   25.4722 C   0  0  1  0  0  0  0  0  0  0  0  0
   12.4469  -16.8799   25.1476 C   0  0  0  0  0  0  0  0  0  0  0  0
   13.1063  -17.7165   24.1305 C   0  0  0  0  0  0  0  0  0  0  0  0
   12.5989  -18.7552   23.6406 O   0  0  0  0  0  0  0  0  0  0  0  0
   10.8973  -17.4451   26.9664 C   0  0  0  0  0  0  0  0  0  0  0  0
   11.5596  -18.4278   27.7349 O   0  0  0  0  0  0  0  0  0  0  0  0
   14.3835  -17.3794   23.6403 O   0  0  0  0  0  0  0  0  0  0  0  0
   10.1632  -16.6506   27.5744 O   0  0  0  0  0  0  0  0  0  0  0  0
  2  3  1  1
  2  1  1  0
  4  2  1  0
  5  4  1  0
  5  6  1  1
  7  5  1  0
  7  8  2  0
  9  7  1  0
 10  9  1  0
 10 11  1  1
 12 11  1  0
 13 12  2  0
 14 13  1  0
 15 14  1  0
 15 20  2  0
 16 15  1  0
 17 16  2  0
 17 18  1  0
 18 19  2  0
 19 20  1  0
 20 12  1  0
 21 10  1  0
 21 23  1  0
 22 21  2  0
 24 23  1  0
 24 28  1  0
 25 26  1  0
 24 25  1  1
 26 30  1  0
 27 26  2  0
 28 31  2  0
 28 29  1  0
M  END
$$$$
