LWD.pdb
     RDKit          3D

 31 32  0  0  1  0  0  0  0  0999 V2000
    6.4366  -13.9342   19.3476 C   0  0  0  0  0  0  0  0  0  0  0  0
    7.8440  -13.4646   19.5799 C   0  0  2  0  0  0  0  0  0  0  0  0
    7.9775  -12.1299   18.8335 C   0  0  0  0  0  0  0  0  0  0  0  0
    8.8938  -14.3643   19.0324 C   0  0  0  0  0  0  0  0  0  0  0  0
    9.0965  -15.6441   19.8041 C   0  0  2  0  0  0  0  0  0  0  0  0
    8.0518  -16.5966   19.5993 N   0  0  0  0  0  0  0  0  0  0  0  0
    9.3391  -15.3761   21.2545 C   0  0  0  0  0  0  0  0  0  0  0  0
   10.2785  -14.6327   21.6512 O   0  0  0  0  0  0  0  0  0  0  0  0
    8.4943  -15.9674   22.2522 N   0  0  0  0  0  0  0  0  0  0  0  0
    8.6759  -15.7368   23.6582 C   0  0  1  0  0  0  0  0  0  0  0  0
    7.3965  -15.7871   24.4657 C   0  0  0  0  0  0  0  0  0  0  0  0
    7.5286  -15.2484   25.8312 C   0  0  0  0  0  0  0  0  0  0  0  0
    7.9240  -15.9522   26.9483 C   0  0  0  0  0  0  0  0  0  0  0  0
    7.9470  -15.0897   27.9757 N   0  0  0  0  0  0  0  0  0  0  0  0
    7.5807  -13.8612   27.5586 C   0  0  0  0  0  0  0  0  0  0  0  0
    7.4259  -12.6380   28.1650 C   0  0  0  0  0  0  0  0  0  0  0  0
    7.0220  -11.5098   27.5015 C   0  0  0  0  0  0  0  0  0  0  0  0
    6.7589  -11.6012   26.1716 C   0  0  0  0  0  0  0  0  0  0  0  0
    6.8997  -12.8058   25.5186 C   0  0  0  0  0  0  0  0  0  0  0  0
    7.3121  -13.9480   26.2011 C   0  0  0  0  0  0  0  0  0  0  0  0
    9.5593  -16.7818   24.2234 C   0  0  0  0  0  0  0  0  0  0  0  0
    9.2640  -17.9825   24.0055 O   0  0  0  0  0  0  0  0  0  0  0  0
   10.7008  -16.5088   24.9843 N   0  0  0  0  0  0  0  0  0  0  0  0
   11.5895  -17.5325   25.5515 C   0  0  1  0  0  0  0  0  0  0  0  0
   13.0069  -17.0911   25.5160 C   0  0  0  0  0  0  0  0  0  0  0  0
   13.4967  -16.9492   24.1343 C   0  0  0  0  0  0  0  0  0  0  0  0
   13.2850  -17.7893   23.2257 O   0  0  0  0  0  0  0  0  0  0  0  0
   11.1298  -17.6985   26.9777 C   0  0  0  0  0  0  0  0  0  0  0  0
   11.6480  -18.7361   27.7838 O   0  0  0  0  0  0  0  0  0  0  0  0
   14.2527  -15.8234   23.7517 O   0  0  0  0  0  0  0  0  0  0  0  0
   10.2912  -16.9445   27.4954 O   0  0  0  0  0  0  0  0  0  0  0  0
  2  3  1  6
  2  1  1  0
  4  2  1  0
  5  4  1  0
  5  6  1  1
  7  5  1  0
  7  8  2  0
  9  7  1  0
 10  9  1  0
 10 11  1  1
 12 11  1  0
 13 12  2  0
 14 13  1  0
 15 14  1  0
 15 20  2  0
 16 15  1  0
 17 16  2  0
 17 18  1  0
 18 19  2  0
 19 20  1  0
 20 12  1  0
 21 10  1  0
 21 23  1  0
 22 21  2  0
 24 23  1  0
 24 28  1  0
 25 26  1  0
 24 25  1  1
 26 30  1  0
 27 26  2  0
 28 31  2  0
 28 29  1  0
M  END
$$$$
