PCC.pdb
     RDKit          3D

 20 20  0  0  1  0  0  0  0  0999 V2000
   24.7398  -14.8761  -16.8152 N   0  0  0  0  0  0  0  0  0  0  0  0
   25.9425  -14.1416  -17.1031 C   0  0  0  0  0  0  0  0  0  0  0  0
   26.5263  -14.0140  -15.6874 C   0  0  0  0  0  0  0  0  0  0  0  0
   25.2949  -13.6297  -14.8970 C   0  0  0  0  0  0  0  0  0  0  0  0
   24.1393  -14.1964  -15.7162 C   0  0  1  0  0  0  0  0  0  0  0  0
   23.2452  -13.1225  -16.1872 C   0  0  0  0  0  0  0  0  0  0  0  0
   23.2621  -12.9346  -17.4550 O   0  0  0  0  0  0  0  0  0  0  0  0
   22.4362  -12.3595  -15.3394 N   0  0  0  0  0  0  0  0  0  0  0  0
   21.4403  -11.4608  -15.9433 C   0  0  1  0  0  0  0  0  0  0  0  0
   20.0727  -11.7569  -15.3309 C   0  0  0  0  0  0  0  0  0  0  0  0
   19.4888  -13.3165  -16.0389 S   0  0  0  0  0  0  0  0  0  0  0  0
   21.7539  -10.0446  -15.5765 C   0  0  0  0  0  0  0  0  0  0  0  0
   22.0930   -9.7720  -14.4040 O   0  0  0  0  0  0  0  0  0  0  0  0
   21.6831   -8.9859  -16.5090 N   0  0  0  0  0  0  0  0  0  0  0  0
   22.0502   -7.6324  -16.2492 C   0  0  1  0  0  0  0  0  0  0  0  0
   22.3244   -6.8940  -17.5666 C   0  0  0  0  0  0  0  0  0  0  0  0
   23.5715   -7.7236  -18.5533 S   0  0  0  0  0  0  0  0  0  0  0  0
   21.0626   -6.8613  -15.5042 C   0  0  0  0  0  0  0  0  0  0  0  0
   21.3857   -5.6359  -14.9617 O   0  0  0  0  0  0  0  0  0  0  0  0
   19.9013   -7.2891  -15.3384 O   0  0  0  0  0  0  0  0  0  0  0  0
  1  2  1  0
  3  2  1  0
  4  5  1  0
  4  3  1  0
  5  1  1  0
  6  8  1  0
  5  6  1  6
  7  6  2  0
  9 10  1  1
  9  8  1  0
  9 12  1  0
 11 10  1  0
 12 14  1  0
 13 12  2  0
 14 15  1  0
 15 16  1  6
 16 17  1  0
 18 15  1  0
 18 19  1  0
 20 18  2  0
M  END
$$$$
