PCC.pdb
     RDKit          3D

 20 20  0  0  1  0  0  0  0  0999 V2000
   25.3622  -13.4860  -19.5734 N   0  0  0  0  0  0  0  0  0  0  0  0
   26.4180  -14.2377  -18.9495 C   0  0  0  0  0  0  0  0  0  0  0  0
   25.6829  -15.5588  -18.6746 C   0  0  0  0  0  0  0  0  0  0  0  0
   24.3676  -15.0525  -18.1248 C   0  0  0  0  0  0  0  0  0  0  0  0
   24.2291  -13.6573  -18.7265 C   0  0  1  0  0  0  0  0  0  0  0  0
   24.1987  -12.6253  -17.6737 C   0  0  0  0  0  0  0  0  0  0  0  0
   23.3341  -12.8331  -16.7504 O   0  0  0  0  0  0  0  0  0  0  0  0
   25.0346  -11.5044  -17.6621 N   0  0  0  0  0  0  0  0  0  0  0  0
   24.8338  -10.4916  -16.6143 C   0  0  1  0  0  0  0  0  0  0  0  0
   26.1436   -9.7352  -16.4014 C   0  0  0  0  0  0  0  0  0  0  0  0
   27.2036  -10.7703  -15.3624 S   0  0  0  0  0  0  0  0  0  0  0  0
   23.8452   -9.4717  -17.0845 C   0  0  0  0  0  0  0  0  0  0  0  0
   23.8810   -9.0797  -18.2715 O   0  0  0  0  0  0  0  0  0  0  0  0
   22.8585   -8.9236  -16.2350 N   0  0  0  0  0  0  0  0  0  0  0  0
   21.8666   -7.9767  -16.6271 C   0  0  1  0  0  0  0  0  0  0  0  0
   20.4849   -8.6435  -16.6744 C   0  0  0  0  0  0  0  0  0  0  0  0
   19.1806   -7.4606  -17.0157 S   0  0  0  0  0  0  0  0  0  0  0  0
   21.7652   -6.8033  -15.7682 C   0  0  0  0  0  0  0  0  0  0  0  0
   21.3558   -5.5890  -16.2762 O   0  0  0  0  0  0  0  0  0  0  0  0
   22.0456   -6.8671  -14.5531 O   0  0  0  0  0  0  0  0  0  0  0  0
  1  2  1  0
  3  2  1  0
  4  5  1  0
  4  3  1  0
  5  1  1  0
  6  8  1  0
  5  6  1  1
  7  6  2  0
  9 10  1  6
  9  8  1  0
  9 12  1  0
 11 10  1  0
 12 14  1  0
 13 12  2  0
 14 15  1  0
 15 16  1  1
 16 17  1  0
 18 15  1  0
 18 19  1  0
 20 18  2  0
M  END
$$$$
