PCC.pdb
     RDKit          3D

 20 20  0  0  1  0  0  0  0  0999 V2000
   23.6854  -15.7823  -16.0127 N   0  0  0  0  0  0  0  0  0  0  0  0
   24.7939  -15.4351  -16.8609 C   0  0  0  0  0  0  0  0  0  0  0  0
   25.8134  -14.9857  -15.8024 C   0  0  0  0  0  0  0  0  0  0  0  0
   24.9456  -14.1310  -14.9052 C   0  0  0  0  0  0  0  0  0  0  0  0
   23.5392  -14.6830  -15.1179 C   0  0  1  0  0  0  0  0  0  0  0  0
   22.6462  -13.6568  -15.6870 C   0  0  0  0  0  0  0  0  0  0  0  0
   22.6092  -13.6357  -16.9681 O   0  0  0  0  0  0  0  0  0  0  0  0
   21.8920  -12.7696  -14.9130 N   0  0  0  0  0  0  0  0  0  0  0  0
   20.9726  -11.8486  -15.5990 C   0  0  1  0  0  0  0  0  0  0  0  0
   19.5375  -12.3104  -15.3543 C   0  0  0  0  0  0  0  0  0  0  0  0
   18.4387  -11.0800  -16.0984 S   0  0  0  0  0  0  0  0  0  0  0  0
   21.0740  -10.4879  -14.9850 C   0  0  0  0  0  0  0  0  0  0  0  0
   21.0160  -10.3666  -13.7417 O   0  0  0  0  0  0  0  0  0  0  0  0
   21.2346   -9.3167  -15.7584 N   0  0  0  0  0  0  0  0  0  0  0  0
   21.4196   -8.0026  -15.2357 C   0  0  1  0  0  0  0  0  0  0  0  0
   22.0444   -7.0905  -16.3005 C   0  0  0  0  0  0  0  0  0  0  0  0
   23.6005   -7.7407  -16.9111 S   0  0  0  0  0  0  0  0  0  0  0  0
   20.2044   -7.3571  -14.7546 C   0  0  0  0  0  0  0  0  0  0  0  0
   20.2681   -6.2907  -13.8835 O   0  0  0  0  0  0  0  0  0  0  0  0
   19.0769   -7.7521  -15.1178 O   0  0  0  0  0  0  0  0  0  0  0  0
  1  2  1  0
  3  2  1  0
  4  5  1  0
  4  3  1  0
  5  1  1  0
  6  8  1  0
  5  6  1  6
  7  6  2  0
  9 10  1  1
  9  8  1  0
  9 12  1  0
 11 10  1  0
 12 14  1  0
 13 12  2  0
 14 15  1  0
 15 16  1  6
 16 17  1  0
 18 15  1  0
 18 19  1  0
 20 18  2  0
M  END
$$$$
