PCC.pdb
     RDKit          3D

 20 20  0  0  1  0  0  0  0  0999 V2000
   20.3305  -17.2362  -16.2361 N   0  0  0  0  0  0  0  0  0  0  0  0
   21.5732  -17.5497  -15.5833 C   0  0  0  0  0  0  0  0  0  0  0  0
   21.0969  -17.6394  -14.1250 C   0  0  0  0  0  0  0  0  0  0  0  0
   20.2085  -16.4185  -14.0320 C   0  0  0  0  0  0  0  0  0  0  0  0
   19.7616  -16.1774  -15.4708 C   0  0  1  0  0  0  0  0  0  0  0  0
   20.2275  -14.8663  -15.9592 C   0  0  0  0  0  0  0  0  0  0  0  0
   21.3547  -14.8961  -16.5689 O   0  0  0  0  0  0  0  0  0  0  0  0
   19.5155  -13.6758  -15.7839 N   0  0  0  0  0  0  0  0  0  0  0  0
   20.0165  -12.4570  -16.4380 C   0  0  1  0  0  0  0  0  0  0  0  0
   18.8561  -11.7679  -17.1531 C   0  0  0  0  0  0  0  0  0  0  0  0
   19.4972  -10.2371  -17.8744 S   0  0  0  0  0  0  0  0  0  0  0  0
   20.4897  -11.4884  -15.4004 C   0  0  0  0  0  0  0  0  0  0  0  0
   19.7459  -11.2064  -14.4354 O   0  0  0  0  0  0  0  0  0  0  0  0
   21.7577  -10.8690  -15.4630 N   0  0  0  0  0  0  0  0  0  0  0  0
   22.2907   -9.9809  -14.4824 C   0  0  1  0  0  0  0  0  0  0  0  0
   23.8232  -10.0666  -14.4652 C   0  0  0  0  0  0  0  0  0  0  0  0
   24.3981  -11.7221  -14.0834 S   0  0  0  0  0  0  0  0  0  0  0  0
   21.9253   -8.5810  -14.6596 C   0  0  0  0  0  0  0  0  0  0  0  0
   21.7410   -7.7556  -13.5710 O   0  0  0  0  0  0  0  0  0  0  0  0
   21.7702   -8.0939  -15.7987 O   0  0  0  0  0  0  0  0  0  0  0  0
  1  2  1  0
  3  2  1  0
  4  5  1  0
  4  3  1  0
  5  1  1  0
  6  8  1  0
  5  6  1  6
  7  6  2  0
  9 10  1  1
  9  8  1  0
  9 12  1  0
 11 10  1  0
 12 14  1  0
 13 12  2  0
 14 15  1  0
 15 16  1  6
 16 17  1  0
 18 15  1  0
 18 19  1  0
 20 18  2  0
M  END
$$$$
