PCC.pdb
     RDKit          3D

 20 20  0  0  1  0  0  0  0  0999 V2000
   26.6282  -20.1017  -14.4001 N   0  0  0  0  0  0  0  0  0  0  0  0
   27.7406  -19.1935  -14.4818 C   0  0  0  0  0  0  0  0  0  0  0  0
   28.9083  -20.1910  -14.4249 C   0  0  0  0  0  0  0  0  0  0  0  0
   28.4559  -21.1071  -13.3091 C   0  0  0  0  0  0  0  0  0  0  0  0
   26.9359  -20.9750  -13.3171 C   0  0  1  0  0  0  0  0  0  0  0  0
   26.4439  -20.4239  -12.0410 C   0  0  0  0  0  0  0  0  0  0  0  0
   26.3741  -19.1444  -12.0062 O   0  0  0  0  0  0  0  0  0  0  0  0
   26.0773  -21.2122  -10.9458 N   0  0  0  0  0  0  0  0  0  0  0  0
   25.6349  -20.5389   -9.7149 C   0  0  1  0  0  0  0  0  0  0  0  0
   24.3141  -21.1575   -9.2612 C   0  0  0  0  0  0  0  0  0  0  0  0
   23.8741  -20.3949   -7.6803 S   0  0  0  0  0  0  0  0  0  0  0  0
   26.6121  -20.8107   -8.6149 C   0  0  0  0  0  0  0  0  0  0  0  0
   26.9439  -21.9897   -8.3622 O   0  0  0  0  0  0  0  0  0  0  0  0
   27.1853  -19.7798   -7.8375 N   0  0  0  0  0  0  0  0  0  0  0  0
   27.9310  -19.9702   -6.6367 C   0  0  1  0  0  0  0  0  0  0  0  0
   28.3845  -18.6166   -6.0727 C   0  0  0  0  0  0  0  0  0  0  0  0
   29.3556  -18.8048   -4.5765 S   0  0  0  0  0  0  0  0  0  0  0  0
   27.2200  -20.6773   -5.5787 C   0  0  0  0  0  0  0  0  0  0  0  0
   25.9061  -20.3783   -5.2883 O   0  0  0  0  0  0  0  0  0  0  0  0
   27.7808  -21.5700   -4.9096 O   0  0  0  0  0  0  0  0  0  0  0  0
  1  2  1  0
  3  2  1  0
  4  5  1  0
  4  3  1  0
  5  1  1  0
  6  8  1  0
  5  6  1  1
  7  6  2  0
  9 10  1  1
  9  8  1  0
  9 12  1  0
 11 10  1  0
 12 14  1  0
 13 12  2  0
 14 15  1  0
 15 16  1  1
 16 17  1  0
 18 15  1  0
 18 19  1  0
 20 18  2  0
M  END
$$$$
