PCC.pdb
     RDKit          3D

 20 20  0  0  1  0  0  0  0  0999 V2000
   22.3435  -12.1954  -17.0445 N   0  0  0  0  0  0  0  0  0  0  0  0
   23.3188  -11.4603  -17.8043 C   0  0  0  0  0  0  0  0  0  0  0  0
   24.5013  -11.4869  -16.8232 C   0  0  0  0  0  0  0  0  0  0  0  0
   23.8071  -11.1588  -15.5197 C   0  0  0  0  0  0  0  0  0  0  0  0
   22.3689  -11.6171  -15.7424 C   0  0  1  0  0  0  0  0  0  0  0  0
   21.4302  -10.4836  -15.6521 C   0  0  0  0  0  0  0  0  0  0  0  0
   21.0858   -9.9872  -16.7826 O   0  0  0  0  0  0  0  0  0  0  0  0
   20.9420   -9.9754  -14.4443 N   0  0  0  0  0  0  0  0  0  0  0  0
   19.9646   -8.8769  -14.4906 C   0  0  1  0  0  0  0  0  0  0  0  0
   18.8190   -9.1947  -13.5317 C   0  0  0  0  0  0  0  0  0  0  0  0
   17.8334  -10.5128  -14.2840 S   0  0  0  0  0  0  0  0  0  0  0  0
   20.5942   -7.6222  -13.9728 C   0  0  0  0  0  0  0  0  0  0  0  0
   21.5448   -7.6979  -13.1637 O   0  0  0  0  0  0  0  0  0  0  0  0
   20.1566   -6.3370  -14.3628 N   0  0  0  0  0  0  0  0  0  0  0  0
   20.8156   -5.1115  -14.0497 C   0  0  1  0  0  0  0  0  0  0  0  0
   22.1507   -5.0191  -14.8014 C   0  0  0  0  0  0  0  0  0  0  0  0
   23.0284   -3.5008  -14.4254 S   0  0  0  0  0  0  0  0  0  0  0  0
   20.0502   -3.9085  -14.3529 C   0  0  0  0  0  0  0  0  0  0  0  0
   20.1682   -2.7799  -13.5702 O   0  0  0  0  0  0  0  0  0  0  0  0
   19.2697   -3.8688  -15.3267 O   0  0  0  0  0  0  0  0  0  0  0  0
  1  2  1  0
  3  2  1  0
  4  5  1  0
  4  3  1  0
  5  1  1  0
  6  8  1  0
  5  6  1  6
  7  6  2  0
  9 10  1  1
  9  8  1  0
  9 12  1  0
 11 10  1  0
 12 14  1  0
 13 12  2  0
 14 15  1  0
 15 16  1  6
 16 17  1  0
 18 15  1  0
 18 19  1  0
 20 18  2  0
M  END
$$$$
