HVF.pdb
     RDKit          3D

 29 30  0  0  1  0  0  0  0  0999 V2000
   18.9783  -12.3421  -18.6939 N   0  0  0  0  0  0  0  0  0  0  0  0
   19.7339  -11.1313  -18.6814 C   0  0  1  0  0  0  0  0  0  0  0  0
   18.8963  -10.0088  -19.2372 C   0  0  0  0  0  0  0  0  0  0  0  0
   18.6734  -10.2734  -20.6816 C   0  0  0  0  0  0  0  0  0  0  0  0
   19.5242   -9.9869  -21.7294 C   0  0  0  0  0  0  0  0  0  0  0  0
   18.9757  -10.3742  -22.8923 N   0  0  0  0  0  0  0  0  0  0  0  0
   17.7687  -10.9112  -22.5917 C   0  0  0  0  0  0  0  0  0  0  0  0
   17.5912  -10.8475  -21.2521 N   0  0  0  0  0  0  0  0  0  0  0  0
   20.2049  -10.7895  -17.2827 C   0  0  0  0  0  0  0  0  0  0  0  0
   19.4282  -11.0799  -16.3818 O   0  0  0  0  0  0  0  0  0  0  0  0
   23.0793  -12.0730  -15.4183 C   0  0  0  0  0  0  0  0  0  0  0  0
   23.3576  -10.5875  -15.5363 C   0  0  2  0  0  0  0  0  0  0  0  0
   23.9909  -10.1611  -14.2513 C   0  0  0  0  0  0  0  0  0  0  0  0
   22.0928   -9.8485  -15.8114 C   0  0  2  0  0  0  0  0  0  0  0  0
   21.4205  -10.1940  -17.0363 N   0  0  0  0  0  0  0  0  0  0  0  0
   22.1208   -8.3973  -15.6889 C   0  0  0  0  0  0  0  0  0  0  0  0
   22.7001   -7.7094  -16.6234 O   0  0  0  0  0  0  0  0  0  0  0  0
   21.5794   -7.5991  -14.6558 N   0  0  0  0  0  0  0  0  0  0  0  0
   21.7599   -6.1359  -14.6045 C   0  0  1  0  0  0  0  0  0  0  0  0
   20.4983   -5.4247  -14.9340 C   0  0  0  0  0  0  0  0  0  0  0  0
   20.0574   -5.5645  -16.3328 C   0  0  0  0  0  0  0  0  0  0  0  0
   20.5493   -4.6590  -17.2730 C   0  0  0  0  0  0  0  0  0  0  0  0
   20.1717   -4.7426  -18.5940 C   0  0  0  0  0  0  0  0  0  0  0  0
   19.2980   -5.7368  -18.9760 C   0  0  0  0  0  0  0  0  0  0  0  0
   18.8000   -6.6415  -18.0644 C   0  0  0  0  0  0  0  0  0  0  0  0
   19.1843   -6.5473  -16.7499 C   0  0  0  0  0  0  0  0  0  0  0  0
   22.3949   -5.7342  -13.3306 C   0  0  0  0  0  0  0  0  0  0  0  0
   22.4791   -6.5438  -12.3994 O   0  0  0  0  0  0  0  0  0  0  0  0
   22.8904   -4.4517  -13.1887 O   0  0  0  0  0  0  0  0  0  0  0  0
  2  1  1  1
  2  9  1  0
  2  3  1  0
  3  4  1  0
  4  5  2  0
  4  8  1  0
  5  6  1  0
  6  7  1  0
  8  7  2  0
  9 10  2  0
 12 11  1  1
 12 14  1  0
 13 12  1  0
 14 15  1  6
 15  9  1  0
 16 17  2  0
 16 14  1  0
 18 16  1  0
 19 18  1  0
 19 27  1  0
 19 20  1  1
 21 20  1  0
 21 26  1  0
 22 21  2  0
 23 22  1  0
 23 24  2  0
 24 25  1  0
 25 26  2  0
 27 28  2  0
 27 29  1  0
M  END
$$$$
