HVF.pdb
     RDKit          3D

 29 30  0  0  1  0  0  0  0  0999 V2000
   20.3606  -11.8566  -19.4230 N   0  0  0  0  0  0  0  0  0  0  0  0
   20.3803  -11.1215  -18.1997 C   0  0  1  0  0  0  0  0  0  0  0  0
   21.6055  -11.4957  -17.4065 C   0  0  0  0  0  0  0  0  0  0  0  0
   21.4954  -12.9311  -17.0405 C   0  0  0  0  0  0  0  0  0  0  0  0
   22.4224  -13.9284  -17.2631 C   0  0  0  0  0  0  0  0  0  0  0  0
   21.9667  -15.0999  -16.7906 N   0  0  0  0  0  0  0  0  0  0  0  0
   20.7431  -14.8554  -16.2627 C   0  0  0  0  0  0  0  0  0  0  0  0
   20.4631  -13.5408  -16.4168 N   0  0  0  0  0  0  0  0  0  0  0  0
   20.3572   -9.6281  -18.4532 C   0  0  0  0  0  0  0  0  0  0  0  0
   20.8580   -9.2676  -19.5108 O   0  0  0  0  0  0  0  0  0  0  0  0
   18.1240   -7.2673  -19.6026 C   0  0  0  0  0  0  0  0  0  0  0  0
   18.2700   -6.8805  -18.1441 C   0  0  2  0  0  0  0  0  0  0  0  0
   18.0907   -5.3986  -18.0680 C   0  0  0  0  0  0  0  0  0  0  0  0
   19.6003   -7.3126  -17.6290 C   0  0  2  0  0  0  0  0  0  0  0  0
   19.8124   -8.7345  -17.5601 N   0  0  0  0  0  0  0  0  0  0  0  0
   20.0694   -6.7110  -16.3881 C   0  0  0  0  0  0  0  0  0  0  0  0
   19.4911   -7.0529  -15.2786 O   0  0  0  0  0  0  0  0  0  0  0  0
   21.1117   -5.7727  -16.2137 N   0  0  0  0  0  0  0  0  0  0  0  0
   21.4874   -5.2389  -14.8908 C   0  0  1  0  0  0  0  0  0  0  0  0
   22.8557   -5.6684  -14.5045 C   0  0  0  0  0  0  0  0  0  0  0  0
   23.1052   -7.1157  -14.6213 C   0  0  0  0  0  0  0  0  0  0  0  0
   23.9459   -7.5597  -15.6421 C   0  0  0  0  0  0  0  0  0  0  0  0
   24.2148   -8.9006  -15.7979 C   0  0  0  0  0  0  0  0  0  0  0  0
   23.6398   -9.8013  -14.9286 C   0  0  0  0  0  0  0  0  0  0  0  0
   22.8067   -9.3849  -13.9137 C   0  0  0  0  0  0  0  0  0  0  0  0
   22.5465   -8.0448  -13.7689 C   0  0  0  0  0  0  0  0  0  0  0  0
   21.2442   -3.7814  -14.8295 C   0  0  0  0  0  0  0  0  0  0  0  0
   20.9211   -3.1648  -15.8519 O   0  0  0  0  0  0  0  0  0  0  0  0
   21.3813   -3.1157  -13.6259 O   0  0  0  0  0  0  0  0  0  0  0  0
  2  1  1  6
  2  9  1  0
  2  3  1  0
  3  4  1  0
  4  5  2  0
  4  8  1  0
  5  6  1  0
  6  7  1  0
  8  7  2  0
  9 10  2  0
 12 11  1  6
 12 14  1  0
 13 12  1  0
 14 15  1  1
 15  9  1  0
 16 17  2  0
 16 14  1  0
 18 16  1  0
 19 18  1  0
 19 27  1  0
 19 20  1  6
 21 20  1  0
 21 26  1  0
 22 21  2  0
 23 22  1  0
 23 24  2  0
 24 25  1  0
 25 26  2  0
 27 28  2  0
 27 29  1  0
M  END
$$$$
