HVF.pdb
     RDKit          3D

 29 30  0  0  1  0  0  0  0  0999 V2000
   19.7486  -19.9098  -14.7687 N   0  0  0  0  0  0  0  0  0  0  0  0
   20.6008  -19.5091  -13.6963 C   0  0  1  0  0  0  0  0  0  0  0  0
   19.7651  -19.1558  -12.4934 C   0  0  0  0  0  0  0  0  0  0  0  0
   19.0313  -17.9003  -12.7962 C   0  0  0  0  0  0  0  0  0  0  0  0
   19.5405  -16.6187  -12.8381 C   0  0  0  0  0  0  0  0  0  0  0  0
   18.5702  -15.7432  -13.1466 N   0  0  0  0  0  0  0  0  0  0  0  0
   17.4336  -16.4637  -13.3034 C   0  0  0  0  0  0  0  0  0  0  0  0
   17.7188  -17.7688  -13.0901 N   0  0  0  0  0  0  0  0  0  0  0  0
   21.5921  -20.5987  -13.3428 C   0  0  0  0  0  0  0  0  0  0  0  0
   21.1018  -21.6337  -12.9094 O   0  0  0  0  0  0  0  0  0  0  0  0
   25.8433  -22.7907  -14.1788 C   0  0  0  0  0  0  0  0  0  0  0  0
   24.6776  -21.8890  -14.5346 C   0  0  2  0  0  0  0  0  0  0  0  0
   25.2176  -20.8085  -15.4149 C   0  0  0  0  0  0  0  0  0  0  0  0
   24.0529  -21.3446  -13.2957 C   0  0  2  0  0  0  0  0  0  0  0  0
   22.9503  -20.4414  -13.4963 N   0  0  0  0  0  0  0  0  0  0  0  0
   24.9394  -20.7805  -12.2868 C   0  0  0  0  0  0  0  0  0  0  0  0
   25.3197  -19.5475  -12.4184 O   0  0  0  0  0  0  0  0  0  0  0  0
   25.4614  -21.4107  -11.1346 N   0  0  0  0  0  0  0  0  0  0  0  0
   26.6158  -20.8739  -10.3892 C   0  0  1  0  0  0  0  0  0  0  0  0
   26.4472  -21.0610   -8.9255 C   0  0  0  0  0  0  0  0  0  0  0  0
   27.5484  -20.5295   -8.1036 C   0  0  0  0  0  0  0  0  0  0  0  0
   27.4279  -19.2355   -7.5967 C   0  0  0  0  0  0  0  0  0  0  0  0
   28.4257  -18.6883   -6.8223 C   0  0  0  0  0  0  0  0  0  0  0  0
   29.5490  -19.4391   -6.5540 C   0  0  0  0  0  0  0  0  0  0  0  0
   29.6888  -20.7188   -7.0443 C   0  0  0  0  0  0  0  0  0  0  0  0
   28.6866  -21.2531   -7.8154 C   0  0  0  0  0  0  0  0  0  0  0  0
   27.8830  -21.3923  -10.9484 C   0  0  0  0  0  0  0  0  0  0  0  0
   28.0626  -22.6122  -11.0459 O   0  0  0  0  0  0  0  0  0  0  0  0
   28.8619  -20.5068  -11.3585 O   0  0  0  0  0  0  0  0  0  0  0  0
  2  1  1  6
  2  9  1  0
  2  3  1  0
  3  4  1  0
  4  5  2  0
  4  8  1  0
  5  6  1  0
  6  7  1  0
  8  7  2  0
  9 10  2  0
 12 11  1  1
 12 14  1  0
 13 12  1  0
 14 15  1  6
 15  9  1  0
 16 17  2  0
 16 14  1  0
 18 16  1  0
 19 18  1  0
 19 27  1  0
 19 20  1  1
 21 20  1  0
 21 26  1  0
 22 21  2  0
 23 22  1  0
 23 24  2  0
 24 25  1  0
 25 26  2  0
 27 28  2  0
 27 29  1  0
M  END
$$$$
