HVF.pdb
     RDKit          3D

 29 30  0  0  1  0  0  0  0  0999 V2000
   21.5768  -18.4741  -17.8460 N   0  0  0  0  0  0  0  0  0  0  0  0
   22.6589  -18.0409  -17.0222 C   0  0  1  0  0  0  0  0  0  0  0  0
   22.1207  -17.2524  -15.8565 C   0  0  0  0  0  0  0  0  0  0  0  0
   21.5114  -16.0059  -16.3869 C   0  0  0  0  0  0  0  0  0  0  0  0
   22.1340  -15.0060  -17.1054 C   0  0  0  0  0  0  0  0  0  0  0  0
   21.2555  -14.0374  -17.4106 N   0  0  0  0  0  0  0  0  0  0  0  0
   20.0644  -14.4154  -16.8870 C   0  0  0  0  0  0  0  0  0  0  0  0
   20.2254  -15.6077  -16.2686 N   0  0  0  0  0  0  0  0  0  0  0  0
   23.4786  -19.2144  -16.5262 C   0  0  0  0  0  0  0  0  0  0  0  0
   22.8322  -20.1741  -16.1259 O   0  0  0  0  0  0  0  0  0  0  0  0
   27.7905  -21.5932  -16.6152 C   0  0  0  0  0  0  0  0  0  0  0  0
   26.7055  -20.7132  -17.2040 C   0  0  2  0  0  0  0  0  0  0  0  0
   27.3937  -19.6128  -17.9451 C   0  0  0  0  0  0  0  0  0  0  0  0
   25.8216  -20.1946  -16.1217 C   0  0  2  0  0  0  0  0  0  0  0  0
   24.8544  -19.2073  -16.5236 N   0  0  0  0  0  0  0  0  0  0  0  0
   26.4572  -19.7491  -14.8891 C   0  0  0  0  0  0  0  0  0  0  0  0
   26.4029  -18.4891  -14.5864 O   0  0  0  0  0  0  0  0  0  0  0  0
   27.1491  -20.5281  -13.9342 N   0  0  0  0  0  0  0  0  0  0  0  0
   27.8147  -19.9369  -12.7579 C   0  0  1  0  0  0  0  0  0  0  0  0
   26.9095  -19.0060  -12.0368 C   0  0  0  0  0  0  0  0  0  0  0  0
   25.8612  -19.6607  -11.2348 C   0  0  0  0  0  0  0  0  0  0  0  0
   24.6359  -19.9300  -11.8446 C   0  0  0  0  0  0  0  0  0  0  0  0
   23.6209  -20.5404  -11.1434 C   0  0  0  0  0  0  0  0  0  0  0  0
   23.8328  -20.8828   -9.8261 C   0  0  0  0  0  0  0  0  0  0  0  0
   25.0348  -20.6262   -9.2041 C   0  0  0  0  0  0  0  0  0  0  0  0
   26.0392  -20.0170   -9.9144 C   0  0  0  0  0  0  0  0  0  0  0  0
   28.4286  -20.9916  -11.9225 C   0  0  0  0  0  0  0  0  0  0  0  0
   29.0811  -20.6834  -10.9180 O   0  0  0  0  0  0  0  0  0  0  0  0
   28.2695  -22.3194  -12.2723 O   0  0  0  0  0  0  0  0  0  0  0  0
  2  1  1  1
  2  9  1  0
  2  3  1  0
  3  4  1  0
  4  5  2  0
  4  8  1  0
  5  6  1  0
  6  7  1  0
  8  7  2  0
  9 10  2  0
 12 11  1  1
 12 14  1  0
 13 12  1  0
 14 15  1  6
 15  9  1  0
 16 17  2  0
 16 14  1  0
 18 16  1  0
 19 18  1  0
 19 27  1  0
 19 20  1  1
 21 20  1  0
 21 26  1  0
 22 21  2  0
 23 22  1  0
 23 24  2  0
 24 25  1  0
 25 26  2  0
 27 28  2  0
 27 29  1  0
M  END
$$$$
