HVF.pdb
     RDKit          3D

 29 30  0  0  1  0  0  0  0  0999 V2000
   27.5037  -19.7952  -17.4395 N   0  0  0  0  0  0  0  0  0  0  0  0
   26.8360  -19.1037  -16.3845 C   0  0  1  0  0  0  0  0  0  0  0  0
   25.7894  -18.1883  -16.9650 C   0  0  0  0  0  0  0  0  0  0  0  0
   26.4822  -17.1518  -17.7726 C   0  0  0  0  0  0  0  0  0  0  0  0
   26.1573  -16.7197  -19.0420 C   0  0  0  0  0  0  0  0  0  0  0  0
   27.0166  -15.7689  -19.4431 N   0  0  0  0  0  0  0  0  0  0  0  0
   27.8966  -15.5890  -18.4288 C   0  0  0  0  0  0  0  0  0  0  0  0
   27.5682  -16.4288  -17.4203 N   0  0  0  0  0  0  0  0  0  0  0  0
   26.2010  -20.0706  -15.4064 C   0  0  0  0  0  0  0  0  0  0  0  0
   25.7240  -21.0826  -15.9038 O   0  0  0  0  0  0  0  0  0  0  0  0
   27.7897  -21.3358  -12.1316 C   0  0  0  0  0  0  0  0  0  0  0  0
   26.4582  -20.7177  -11.7529 C   0  0  2  0  0  0  0  0  0  0  0  0
   25.8451  -21.6070  -10.7198 C   0  0  0  0  0  0  0  0  0  0  0  0
   25.5943  -20.5800  -12.9596 C   0  0  2  0  0  0  0  0  0  0  0  0
   26.1604  -19.8327  -14.0518 N   0  0  0  0  0  0  0  0  0  0  0  0
   24.2204  -20.1405  -12.7572 C   0  0  0  0  0  0  0  0  0  0  0  0
   24.0158  -18.9497  -12.2857 O   0  0  0  0  0  0  0  0  0  0  0  0
   23.0293  -20.8553  -13.0173 N   0  0  0  0  0  0  0  0  0  0  0  0
   21.6927  -20.2422  -12.8994 C   0  0  1  0  0  0  0  0  0  0  0  0
   21.6241  -18.9525  -13.6327 C   0  0  0  0  0  0  0  0  0  0  0  0
   21.7928  -19.0617  -15.0923 C   0  0  0  0  0  0  0  0  0  0  0  0
   22.9850  -18.6049  -15.6544 C   0  0  0  0  0  0  0  0  0  0  0  0
   23.1970  -18.6828  -17.0122 C   0  0  0  0  0  0  0  0  0  0  0  0
   22.2119  -19.2201  -17.8111 C   0  0  0  0  0  0  0  0  0  0  0  0
   21.0272  -19.6772  -17.2772 C   0  0  0  0  0  0  0  0  0  0  0  0
   20.8279  -19.5939  -15.9216 C   0  0  0  0  0  0  0  0  0  0  0  0
   20.6391  -21.2204  -13.2461 C   0  0  0  0  0  0  0  0  0  0  0  0
   20.9483  -22.3214  -13.7172 O   0  0  0  0  0  0  0  0  0  0  0  0
   19.3111  -20.8957  -13.0416 O   0  0  0  0  0  0  0  0  0  0  0  0
  2  1  1  6
  2  9  1  0
  2  3  1  0
  3  4  1  0
  4  5  2  0
  4  8  1  0
  5  6  1  0
  6  7  1  0
  8  7  2  0
  9 10  2  0
 12 11  1  6
 12 14  1  0
 13 12  1  0
 14 15  1  6
 15  9  1  0
 16 17  2  0
 16 14  1  0
 18 16  1  0
 19 18  1  0
 19 27  1  0
 19 20  1  6
 21 20  1  0
 21 26  1  0
 22 21  2  0
 23 22  1  0
 23 24  2  0
 24 25  1  0
 25 26  2  0
 27 28  2  0
 27 29  1  0
M  END
$$$$
