HVF.pdb
     RDKit          3D

 29 30  0  0  1  0  0  0  0  0999 V2000
   26.3576  -31.0231  -16.9016 N   0  0  0  0  0  0  0  0  0  0  0  0
   27.7529  -30.8684  -16.6438 C   0  0  1  0  0  0  0  0  0  0  0  0
   28.3965  -32.2253  -16.5221 C   0  0  0  0  0  0  0  0  0  0  0  0
   27.8323  -32.8958  -15.3228 C   0  0  0  0  0  0  0  0  0  0  0  0
   26.9466  -33.9532  -15.2899 C   0  0  0  0  0  0  0  0  0  0  0  0
   26.6660  -34.2848  -14.0193 N   0  0  0  0  0  0  0  0  0  0  0  0
   27.3731  -33.4381  -13.2326 C   0  0  0  0  0  0  0  0  0  0  0  0
   28.0772  -32.5996  -14.0272 N   0  0  0  0  0  0  0  0  0  0  0  0
   28.4296  -30.0643  -17.7349 C   0  0  0  0  0  0  0  0  0  0  0  0
   27.9682  -30.2133  -18.8593 O   0  0  0  0  0  0  0  0  0  0  0  0
   28.9782  -26.3218  -17.7115 C   0  0  0  0  0  0  0  0  0  0  0  0
   30.3566  -26.9314  -17.8745 C   0  0  2  0  0  0  0  0  0  0  0  0
   31.0972  -26.0752  -18.8504 C   0  0  0  0  0  0  0  0  0  0  0  0
   30.2421  -28.3429  -18.3394 C   0  0  2  0  0  0  0  0  0  0  0  0
   29.4895  -29.2235  -17.4850 N   0  0  0  0  0  0  0  0  0  0  0  0
   31.4669  -29.0200  -18.7431 C   0  0  0  0  0  0  0  0  0  0  0  0
   32.1367  -29.6731  -17.8447 O   0  0  0  0  0  0  0  0  0  0  0  0
   32.0505  -29.0728  -20.0292 N   0  0  0  0  0  0  0  0  0  0  0  0
   33.2562  -29.8706  -20.3227 C   0  0  1  0  0  0  0  0  0  0  0  0
   33.1035  -31.2715  -19.8537 C   0  0  0  0  0  0  0  0  0  0  0  0
   34.2249  -32.1636  -20.1963 C   0  0  0  0  0  0  0  0  0  0  0  0
   34.0914  -32.9929  -21.3100 C   0  0  0  0  0  0  0  0  0  0  0  0
   35.1074  -33.8461  -21.6768 C   0  0  0  0  0  0  0  0  0  0  0  0
   36.2620  -33.8695  -20.9261 C   0  0  0  0  0  0  0  0  0  0  0  0
   36.4152  -33.0592  -19.8227 C   0  0  0  0  0  0  0  0  0  0  0  0
   35.3946  -32.2128  -19.4672 C   0  0  0  0  0  0  0  0  0  0  0  0
   33.6469  -29.7205  -21.7411 C   0  0  0  0  0  0  0  0  0  0  0  0
   32.7936  -29.4392  -22.5912 O   0  0  0  0  0  0  0  0  0  0  0  0
   34.9677  -29.8975  -22.1085 O   0  0  0  0  0  0  0  0  0  0  0  0
  2  1  1  6
  2  9  1  0
  2  3  1  0
  3  4  1  0
  4  5  2  0
  4  8  1  0
  5  6  1  0
  6  7  1  0
  8  7  2  0
  9 10  2  0
 12 11  1  6
 12 14  1  0
 13 12  1  0
 14 15  1  1
 15  9  1  0
 16 17  2  0
 16 14  1  0
 18 16  1  0
 19 18  1  0
 19 27  1  0
 19 20  1  6
 21 20  1  0
 21 26  1  0
 22 21  2  0
 23 22  1  0
 23 24  2  0
 24 25  1  0
 25 26  2  0
 27 28  2  0
 27 29  1  0
M  END
$$$$
