HVF.pdb
     RDKit          3D

 29 30  0  0  1  0  0  0  0  0999 V2000
   23.3350  -19.0362  -18.0324 N   0  0  0  0  0  0  0  0  0  0  0  0
   23.6278  -18.5742  -16.7142 C   0  0  1  0  0  0  0  0  0  0  0  0
   22.3436  -18.3874  -15.9486 C   0  0  0  0  0  0  0  0  0  0  0  0
   21.6225  -17.2293  -16.5361 C   0  0  0  0  0  0  0  0  0  0  0  0
   22.0048  -15.9037  -16.5166 C   0  0  0  0  0  0  0  0  0  0  0  0
   21.0943  -15.1483  -17.1519 N   0  0  0  0  0  0  0  0  0  0  0  0
   20.1237  -15.9904  -17.5813 C   0  0  0  0  0  0  0  0  0  0  0  0
   20.4488  -17.2487  -17.2057 N   0  0  0  0  0  0  0  0  0  0  0  0
   24.5383  -19.5380  -15.9814 C   0  0  0  0  0  0  0  0  0  0  0  0
   24.2534  -20.7228  -16.1011 O   0  0  0  0  0  0  0  0  0  0  0  0
   28.2176  -20.0969  -16.3090 C   0  0  0  0  0  0  0  0  0  0  0  0
   28.0144  -19.6301  -14.8810 C   0  0  2  0  0  0  0  0  0  0  0  0
   28.9675  -20.4065  -14.0308 C   0  0  0  0  0  0  0  0  0  0  0  0
   26.5970  -19.8382  -14.4696 C   0  0  2  0  0  0  0  0  0  0  0  0
   25.6123  -19.1165  -15.2319 N   0  0  0  0  0  0  0  0  0  0  0  0
   26.2804  -19.7041  -13.0542 C   0  0  0  0  0  0  0  0  0  0  0  0
   25.9697  -18.5300  -12.5991 O   0  0  0  0  0  0  0  0  0  0  0  0
   26.2579  -20.7146  -12.0664 N   0  0  0  0  0  0  0  0  0  0  0  0
   25.9906  -20.4297  -10.6438 C   0  0  1  0  0  0  0  0  0  0  0  0
   24.7858  -19.5764  -10.4817 C   0  0  0  0  0  0  0  0  0  0  0  0
   23.5067  -20.2549  -10.7538 C   0  0  0  0  0  0  0  0  0  0  0  0
   22.7082  -20.6168   -9.6688 C   0  0  0  0  0  0  0  0  0  0  0  0
   21.5030  -21.2525   -9.8641 C   0  0  0  0  0  0  0  0  0  0  0  0
   21.0950  -21.5272  -11.1507 C   0  0  0  0  0  0  0  0  0  0  0  0
   21.8676  -21.1787  -12.2367 C   0  0  0  0  0  0  0  0  0  0  0  0
   23.0675  -20.5452  -12.0285 C   0  0  0  0  0  0  0  0  0  0  0  0
   25.9873  -21.6802   -9.8543 C   0  0  0  0  0  0  0  0  0  0  0  0
   25.8524  -21.6355   -8.6256 O   0  0  0  0  0  0  0  0  0  0  0  0
   26.1369  -22.8947  -10.4972 O   0  0  0  0  0  0  0  0  0  0  0  0
  2  1  1  6
  2  9  1  0
  2  3  1  0
  3  4  1  0
  4  5  2  0
  4  8  1  0
  5  6  1  0
  6  7  1  0
  8  7  2  0
  9 10  2  0
 12 11  1  6
 12 14  1  0
 13 12  1  0
 14 15  1  6
 15  9  1  0
 16 17  2  0
 16 14  1  0
 18 16  1  0
 19 18  1  0
 19 27  1  0
 19 20  1  6
 21 20  1  0
 21 26  1  0
 22 21  2  0
 23 22  1  0
 23 24  2  0
 24 25  1  0
 25 26  2  0
 27 28  2  0
 27 29  1  0
M  END
$$$$
