HVF.pdb
     RDKit          3D

 29 30  0  0  1  0  0  0  0  0999 V2000
   17.0417   -1.6538  -17.8412 N   0  0  0  0  0  0  0  0  0  0  0  0
   18.1861   -1.4137  -17.0229 C   0  0  1  0  0  0  0  0  0  0  0  0
   19.4387   -1.6482  -17.8268 C   0  0  0  0  0  0  0  0  0  0  0  0
   19.5531   -3.1065  -18.0847 C   0  0  0  0  0  0  0  0  0  0  0  0
   20.3590   -4.0149  -17.4297 C   0  0  0  0  0  0  0  0  0  0  0  0
   20.1877   -5.2433  -17.9443 N   0  0  0  0  0  0  0  0  0  0  0  0
   19.2691   -5.1247  -18.9331 C   0  0  0  0  0  0  0  0  0  0  0  0
   18.8886   -3.8290  -19.0135 N   0  0  0  0  0  0  0  0  0  0  0  0
   18.1790   -0.0056  -16.4641 C   0  0  0  0  0  0  0  0  0  0  0  0
   17.9653    0.8817  -17.2803 O   0  0  0  0  0  0  0  0  0  0  0  0
   15.8065    1.8310  -14.5386 C   0  0  0  0  0  0  0  0  0  0  0  0
   16.9612    1.5736  -13.5905 C   0  0  2  0  0  0  0  0  0  0  0  0
   16.9842    2.7072  -12.6166 C   0  0  0  0  0  0  0  0  0  0  0  0
   18.2368    1.4625  -14.3534 C   0  0  2  0  0  0  0  0  0  0  0  0
   18.3970    0.2629  -15.1325 N   0  0  0  0  0  0  0  0  0  0  0  0
   19.4765    1.7190  -13.6328 C   0  0  0  0  0  0  0  0  0  0  0  0
   19.9298    0.8006  -12.8370 O   0  0  0  0  0  0  0  0  0  0  0  0
   20.2919    2.8722  -13.6837 N   0  0  0  0  0  0  0  0  0  0  0  0
   21.5135    3.0184  -12.8699 C   0  0  1  0  0  0  0  0  0  0  0  0
   22.7237    3.1140  -13.7256 C   0  0  0  0  0  0  0  0  0  0  0  0
   23.9615    3.4661  -13.0083 C   0  0  0  0  0  0  0  0  0  0  0  0
   24.8685    2.4467  -12.7185 C   0  0  0  0  0  0  0  0  0  0  0  0
   26.0414    2.7182  -12.0511 C   0  0  0  0  0  0  0  0  0  0  0  0
   26.3077    4.0154  -11.6719 C   0  0  0  0  0  0  0  0  0  0  0  0
   25.4262    5.0374  -11.9478 C   0  0  0  0  0  0  0  0  0  0  0  0
   24.2600    4.7535  -12.6140 C   0  0  0  0  0  0  0  0  0  0  0  0
   21.3534    4.1072  -11.8819 C   0  0  0  0  0  0  0  0  0  0  0  0
   20.7158    5.1242  -12.1803 O   0  0  0  0  0  0  0  0  0  0  0  0
   21.9206    3.9807  -10.6277 O   0  0  0  0  0  0  0  0  0  0  0  0
  2  1  1  6
  2  9  1  0
  2  3  1  0
  3  4  1  0
  4  5  2  0
  4  8  1  0
  5  6  1  0
  6  7  1  0
  8  7  2  0
  9 10  2  0
 12 11  1  6
 12 14  1  0
 13 12  1  0
 14 15  1  1
 15  9  1  0
 16 17  2  0
 16 14  1  0
 18 16  1  0
 19 18  1  0
 19 27  1  0
 19 20  1  6
 21 20  1  0
 21 26  1  0
 22 21  2  0
 23 22  1  0
 23 24  2  0
 24 25  1  0
 25 26  2  0
 27 28  2  0
 27 29  1  0
M  END
$$$$
