HVF.pdb
     RDKit          3D

 29 30  0  0  1  0  0  0  0  0999 V2000
   20.0098  -13.3736  -18.6970 N   0  0  0  0  0  0  0  0  0  0  0  0
   19.5821  -12.3692  -17.7776 C   0  0  1  0  0  0  0  0  0  0  0  0
   19.8814  -12.8144  -16.3696 C   0  0  0  0  0  0  0  0  0  0  0  0
   19.0418  -14.0038  -16.0753 C   0  0  0  0  0  0  0  0  0  0  0  0
   17.7140  -14.0231  -15.7006 C   0  0  0  0  0  0  0  0  0  0  0  0
   17.3001  -15.2880  -15.5223 N   0  0  0  0  0  0  0  0  0  0  0  0
   18.3646  -16.0846  -15.7830 C   0  0  0  0  0  0  0  0  0  0  0  0
   19.4160  -15.3017  -16.1172 N   0  0  0  0  0  0  0  0  0  0  0  0
   20.2533  -11.0409  -18.0602 C   0  0  0  0  0  0  0  0  0  0  0  0
   21.4124  -11.1108  -18.4487 O   0  0  0  0  0  0  0  0  0  0  0  0
   19.5076   -8.4033  -20.5891 C   0  0  0  0  0  0  0  0  0  0  0  0
   19.2258   -7.7841  -19.2343 C   0  0  2  0  0  0  0  0  0  0  0  0
   19.5830   -6.3364  -19.3360 C   0  0  0  0  0  0  0  0  0  0  0  0
   20.0100   -8.4833  -18.1771 C   0  0  2  0  0  0  0  0  0  0  0  0
   19.6096   -9.8364  -17.8934 N   0  0  0  0  0  0  0  0  0  0  0  0
   20.2129   -7.7835  -16.9159 C   0  0  0  0  0  0  0  0  0  0  0  0
   19.1956   -7.6237  -16.1273 O   0  0  0  0  0  0  0  0  0  0  0  0
   21.4117   -7.2356  -16.4060 N   0  0  0  0  0  0  0  0  0  0  0  0
   21.4994   -6.6238  -15.0665 C   0  0  1  0  0  0  0  0  0  0  0  0
   22.0359   -7.5843  -14.0687 C   0  0  0  0  0  0  0  0  0  0  0  0
   23.1971   -8.3669  -14.5266 C   0  0  0  0  0  0  0  0  0  0  0  0
   24.1093   -7.7528  -15.3849 C   0  0  0  0  0  0  0  0  0  0  0  0
   25.2126   -8.4362  -15.8436 C   0  0  0  0  0  0  0  0  0  0  0  0
   25.4040   -9.7398  -15.4417 C   0  0  0  0  0  0  0  0  0  0  0  0
   24.5160  -10.3657  -14.5948 C   0  0  0  0  0  0  0  0  0  0  0  0
   23.4195   -9.6732  -14.1443 C   0  0  0  0  0  0  0  0  0  0  0  0
   22.2040   -5.3252  -15.1325 C   0  0  0  0  0  0  0  0  0  0  0  0
   22.2809   -4.6115  -14.1253 O   0  0  0  0  0  0  0  0  0  0  0  0
   22.7726   -4.9161  -16.3242 O   0  0  0  0  0  0  0  0  0  0  0  0
  2  1  1  6
  2  9  1  0
  2  3  1  0
  3  4  1  0
  4  5  2  0
  4  8  1  0
  5  6  1  0
  6  7  1  0
  8  7  2  0
  9 10  2  0
 12 11  1  6
 12 14  1  0
 13 12  1  0
 14 15  1  1
 15  9  1  0
 16 17  2  0
 16 14  1  0
 18 16  1  0
 19 18  1  0
 19 27  1  0
 19 20  1  1
 21 20  1  0
 21 26  1  0
 22 21  2  0
 23 22  1  0
 23 24  2  0
 24 25  1  0
 25 26  2  0
 27 28  2  0
 27 29  1  0
M  END
$$$$
