EHP.pdb
     RDKit          3D

 27 28  0  0  1  0  0  0  0  0999 V2000
    9.4214  -16.6055   13.7755 N   0  0  0  0  0  0  0  0  0  0  0  0
   10.2559  -16.7186   14.9393 C   0  0  1  0  0  0  0  0  0  0  0  0
   11.6407  -17.1172   14.5753 C   0  0  0  0  0  0  0  0  0  0  0  0
   12.3080  -18.0849   15.4866 C   0  0  0  0  0  0  0  0  0  0  0  0
   13.6955  -18.4223   15.2090 C   0  0  0  0  0  0  0  0  0  0  0  0
   14.0572  -19.6146   14.9256 O   0  0  0  0  0  0  0  0  0  0  0  0
   10.1765  -15.5217   15.8363 C   0  0  0  0  0  0  0  0  0  0  0  0
   11.1327  -14.7262   15.9514 O   0  0  0  0  0  0  0  0  0  0  0  0
   14.7014  -17.4567   15.2343 O   0  0  0  0  0  0  0  0  0  0  0  0
    8.9848  -15.3295   16.5493 N   0  0  0  0  0  0  0  0  0  0  0  0
    8.4178  -16.1823   17.5398 C   0  0  1  0  0  0  0  0  0  0  0  0
    8.3733  -17.6640   17.1891 C   0  0  0  0  0  0  0  0  0  0  0  0
    7.5946  -18.4574   18.1704 C   0  0  0  0  0  0  0  0  0  0  0  0
    7.9039  -18.5055   19.5428 C   0  0  0  0  0  0  0  0  0  0  0  0
    6.9968  -19.3058   20.1028 N   0  0  0  0  0  0  0  0  0  0  0  0
    6.1440  -19.7612   19.1763 C   0  0  0  0  0  0  0  0  0  0  0  0
    6.5281  -19.2341   18.0242 N   0  0  0  0  0  0  0  0  0  0  0  0
    8.8961  -15.9371   18.9225 C   0  0  0  0  0  0  0  0  0  0  0  0
    9.2496  -17.0406   19.4842 O   0  0  0  0  0  0  0  0  0  0  0  0
    8.9627  -14.6896   19.5379 N   0  0  0  0  0  0  0  0  0  0  0  0
    8.9149  -13.3677   18.8821 C   0  0  0  0  0  0  0  0  0  0  0  0
    7.7502  -12.7606   19.6128 C   0  0  0  0  0  0  0  0  0  0  0  0
    7.8100  -13.3949   20.9931 C   0  0  0  0  0  0  0  0  0  0  0  0
    9.0989  -14.2779   20.8850 C   0  0  1  0  0  0  0  0  0  0  0  0
    9.1354  -15.2203   21.9698 C   0  0  0  0  0  0  0  0  0  0  0  0
    9.5897  -15.0034   23.2248 O   0  0  0  0  0  0  0  0  0  0  0  0
    8.6921  -16.3914   21.7248 O   0  0  0  0  0  0  0  0  0  0  0  0
  2  7  1  0
  2  1  1  6
  3  2  1  0
  4  3  1  0
  5  4  1  0
  5  6  2  0
  7  8  2  0
  9  5  1  0
 10  7  1  0
 10 11  1  0
 11 12  1  6
 12 13  1  0
 13 14  2  0
 15 14  1  0
 16 15  1  0
 17 13  1  0
 17 16  2  0
 18 11  1  0
 18 19  2  0
 20 18  1  0
 21 20  1  0
 22 21  1  0
 23 22  1  0
 24 23  1  0
 24 20  1  0
 24 25  1  1
 26 25  1  0
 27 25  2  0
M  END
$$$$
