EHP.pdb
     RDKit          3D

 27 28  0  0  1  0  0  0  0  0999 V2000
   12.5241  -17.0534   21.8004 N   0  0  0  0  0  0  0  0  0  0  0  0
   11.1877  -17.2716   22.2798 C   0  0  1  0  0  0  0  0  0  0  0  0
   11.1280  -18.4326   23.2060 C   0  0  0  0  0  0  0  0  0  0  0  0
   11.8759  -18.2940   24.4841 C   0  0  0  0  0  0  0  0  0  0  0  0
   11.4313  -19.0962   25.6132 C   0  0  0  0  0  0  0  0  0  0  0  0
   10.4567  -19.9170   25.5166 O   0  0  0  0  0  0  0  0  0  0  0  0
   10.5450  -16.0275   22.8115 C   0  0  0  0  0  0  0  0  0  0  0  0
   11.2142  -15.1341   23.3722 O   0  0  0  0  0  0  0  0  0  0  0  0
   12.0519  -19.0115   26.8591 O   0  0  0  0  0  0  0  0  0  0  0  0
    9.1567  -15.9050   22.6599 N   0  0  0  0  0  0  0  0  0  0  0  0
    8.3281  -14.8268   23.0851 C   0  0  1  0  0  0  0  0  0  0  0  0
    7.2543  -14.3892   22.0973 C   0  0  0  0  0  0  0  0  0  0  0  0
    7.8195  -13.9677   20.7928 C   0  0  0  0  0  0  0  0  0  0  0  0
    7.0254  -13.5855   19.6953 C   0  0  0  0  0  0  0  0  0  0  0  0
    7.8704  -13.2739   18.7126 N   0  0  0  0  0  0  0  0  0  0  0  0
    9.1358  -13.4357   19.1194 C   0  0  0  0  0  0  0  0  0  0  0  0
    9.0740  -13.8533   20.3743 N   0  0  0  0  0  0  0  0  0  0  0  0
    7.8144  -14.9437   24.4719 C   0  0  0  0  0  0  0  0  0  0  0  0
    7.4097  -16.1431   24.7079 O   0  0  0  0  0  0  0  0  0  0  0  0
    7.7743  -13.9075   25.4014 N   0  0  0  0  0  0  0  0  0  0  0  0
    8.2409  -12.5198   25.2112 C   0  0  0  0  0  0  0  0  0  0  0  0
    6.9775  -11.7762   25.5429 C   0  0  0  0  0  0  0  0  0  0  0  0
    6.2869  -12.6621   26.5673 C   0  0  0  0  0  0  0  0  0  0  0  0
    7.3249  -13.8218   26.7407 C   0  0  1  0  0  0  0  0  0  0  0  0
    6.7055  -14.9335   27.4091 C   0  0  0  0  0  0  0  0  0  0  0  0
    6.7687  -15.2324   28.7264 O   0  0  0  0  0  0  0  0  0  0  0  0
    6.0206  -15.7279   26.6826 O   0  0  0  0  0  0  0  0  0  0  0  0
  2  7  1  0
  2  1  1  1
  3  2  1  0
  4  3  1  0
  5  4  1  0
  5  6  2  0
  7  8  2  0
  9  5  1  0
 10  7  1  0
 10 11  1  0
 11 12  1  6
 12 13  1  0
 13 14  2  0
 15 14  1  0
 16 15  1  0
 17 13  1  0
 17 16  2  0
 18 11  1  0
 18 19  2  0
 20 18  1  0
 21 20  1  0
 22 21  1  0
 23 22  1  0
 24 23  1  0
 24 20  1  0
 24 25  1  6
 26 25  1  0
 27 25  2  0
M  END
$$$$
