EHP.pdb
     RDKit          3D

 27 28  0  0  1  0  0  0  0  0999 V2000
    9.5121  -17.6162   20.9741 N   0  0  0  0  0  0  0  0  0  0  0  0
    8.6413  -16.4929   20.7657 C   0  0  1  0  0  0  0  0  0  0  0  0
    7.8891  -16.6209   19.4901 C   0  0  0  0  0  0  0  0  0  0  0  0
    8.6741  -16.4311   18.2412 C   0  0  0  0  0  0  0  0  0  0  0  0
    8.5636  -17.4568   17.2157 C   0  0  0  0  0  0  0  0  0  0  0  0
    7.4627  -18.0613   16.9806 O   0  0  0  0  0  0  0  0  0  0  0  0
    7.7854  -16.1856   21.9558 C   0  0  0  0  0  0  0  0  0  0  0  0
    6.6058  -15.7942   21.8294 O   0  0  0  0  0  0  0  0  0  0  0  0
    9.6566  -17.8286   16.4336 O   0  0  0  0  0  0  0  0  0  0  0  0
    8.3620  -16.3497   23.2230 N   0  0  0  0  0  0  0  0  0  0  0  0
    7.8048  -15.9907   24.4842 C   0  0  1  0  0  0  0  0  0  0  0  0
    7.3202  -17.1492   25.3464 C   0  0  0  0  0  0  0  0  0  0  0  0
    6.6402  -18.2021   24.5541 C   0  0  0  0  0  0  0  0  0  0  0  0
    6.4491  -18.1178   23.1621 C   0  0  0  0  0  0  0  0  0  0  0  0
    5.8131  -19.2331   22.8035 N   0  0  0  0  0  0  0  0  0  0  0  0
    5.5932  -20.0069   23.8740 C   0  0  0  0  0  0  0  0  0  0  0  0
    6.1015  -19.3613   24.9121 N   0  0  0  0  0  0  0  0  0  0  0  0
    8.5920  -14.9966   25.2541 C   0  0  0  0  0  0  0  0  0  0  0  0
    9.8173  -15.3758   25.3682 O   0  0  0  0  0  0  0  0  0  0  0  0
    8.0879  -13.8106   25.7819 N   0  0  0  0  0  0  0  0  0  0  0  0
    7.1960  -12.8438   25.1114 C   0  0  0  0  0  0  0  0  0  0  0  0
    6.0629  -12.8125   26.0984 C   0  0  0  0  0  0  0  0  0  0  0  0
    6.7339  -13.0711   27.4379 C   0  0  0  0  0  0  0  0  0  0  0  0
    8.2430  -13.1600   27.0291 C   0  0  1  0  0  0  0  0  0  0  0  0
    9.0043  -13.7401   28.1016 C   0  0  0  0  0  0  0  0  0  0  0  0
    9.0759  -15.0479   28.4377 O   0  0  0  0  0  0  0  0  0  0  0  0
    9.6881  -12.9354   28.8176 O   0  0  0  0  0  0  0  0  0  0  0  0
  2  7  1  0
  2  1  1  1
  3  2  1  0
  4  3  1  0
  5  4  1  0
  5  6  2  0
  7  8  2  0
  9  5  1  0
 10  7  1  0
 10 11  1  0
 11 12  1  1
 12 13  1  0
 13 14  2  0
 15 14  1  0
 16 15  1  0
 17 13  1  0
 17 16  2  0
 18 11  1  0
 18 19  2  0
 20 18  1  0
 21 20  1  0
 22 21  1  0
 23 22  1  0
 24 23  1  0
 24 20  1  0
 24 25  1  1
 26 25  1  0
 27 25  2  0
M  END
$$$$
