EHP.pdb
     RDKit          3D

 27 28  0  0  1  0  0  0  0  0999 V2000
   12.2731  -16.5546   20.5287 N   0  0  0  0  0  0  0  0  0  0  0  0
   11.2075  -17.0524   21.3535 C   0  0  1  0  0  0  0  0  0  0  0  0
   11.4781  -18.4419   21.8066 C   0  0  0  0  0  0  0  0  0  0  0  0
   12.7436  -18.6543   22.5587 C   0  0  0  0  0  0  0  0  0  0  0  0
   13.0782  -20.0177   22.9395 C   0  0  0  0  0  0  0  0  0  0  0  0
   14.1847  -20.3079   23.5091 O   0  0  0  0  0  0  0  0  0  0  0  0
   10.8286  -16.1099   22.4542 C   0  0  0  0  0  0  0  0  0  0  0  0
   11.6278  -15.2514   22.8841 O   0  0  0  0  0  0  0  0  0  0  0  0
   12.2029  -21.0776   22.7048 O   0  0  0  0  0  0  0  0  0  0  0  0
    9.5388  -16.2311   22.9899 N   0  0  0  0  0  0  0  0  0  0  0  0
    8.9610  -15.4678   24.0450 C   0  0  1  0  0  0  0  0  0  0  0  0
    7.5112  -15.0481   23.8398 C   0  0  0  0  0  0  0  0  0  0  0  0
    7.0563  -14.0618   24.8493 C   0  0  0  0  0  0  0  0  0  0  0  0
    6.2518  -14.4024   25.9529 C   0  0  0  0  0  0  0  0  0  0  0  0
    6.0504  -13.2731   26.6318 N   0  0  0  0  0  0  0  0  0  0  0  0
    6.6719  -12.2516   26.0289 C   0  0  0  0  0  0  0  0  0  0  0  0
    7.2685  -12.7560   24.9601 N   0  0  0  0  0  0  0  0  0  0  0  0
    9.2151  -15.9948   25.4083 C   0  0  0  0  0  0  0  0  0  0  0  0
    8.7887  -17.2052   25.5152 O   0  0  0  0  0  0  0  0  0  0  0  0
    9.8329  -15.2893   26.4378 N   0  0  0  0  0  0  0  0  0  0  0  0
   10.2472  -13.8723   26.4249 C   0  0  0  0  0  0  0  0  0  0  0  0
    9.4993  -13.3751   27.6301 C   0  0  0  0  0  0  0  0  0  0  0  0
    9.4421  -14.5825   28.5520 C   0  0  0  0  0  0  0  0  0  0  0  0
   10.2569  -15.6453   27.7403 C   0  0  1  0  0  0  0  0  0  0  0  0
   10.0264  -16.9553   28.2851 C   0  0  0  0  0  0  0  0  0  0  0  0
   10.5170  -17.4567   29.4412 O   0  0  0  0  0  0  0  0  0  0  0  0
    9.2776  -17.7335   27.6056 O   0  0  0  0  0  0  0  0  0  0  0  0
  2  7  1  0
  2  1  1  1
  3  2  1  0
  4  3  1  0
  5  4  1  0
  5  6  2  0
  7  8  2  0
  9  5  1  0
 10  7  1  0
 10 11  1  0
 11 12  1  6
 12 13  1  0
 13 14  2  0
 15 14  1  0
 16 15  1  0
 17 13  1  0
 17 16  2  0
 18 11  1  0
 18 19  2  0
 20 18  1  0
 21 20  1  0
 22 21  1  0
 23 22  1  0
 24 23  1  0
 24 20  1  0
 24 25  1  1
 26 25  1  0
 27 25  2  0
M  END
$$$$
