EHP.pdb
     RDKit          3D

 27 28  0  0  1  0  0  0  0  0999 V2000
   10.4259  -16.9852   19.9348 N   0  0  0  0  0  0  0  0  0  0  0  0
   10.9959  -17.0603   21.2512 C   0  0  1  0  0  0  0  0  0  0  0  0
   12.4796  -17.1288   21.1953 C   0  0  0  0  0  0  0  0  0  0  0  0
   13.1860  -17.1775   22.5033 C   0  0  0  0  0  0  0  0  0  0  0  0
   14.6386  -17.1038   22.4856 C   0  0  0  0  0  0  0  0  0  0  0  0
   15.2669  -16.3491   21.6679 O   0  0  0  0  0  0  0  0  0  0  0  0
   10.4636  -16.0138   22.1813 C   0  0  0  0  0  0  0  0  0  0  0  0
   10.6939  -14.7995   21.9999 O   0  0  0  0  0  0  0  0  0  0  0  0
   15.4189  -17.8523   23.3662 O   0  0  0  0  0  0  0  0  0  0  0  0
    9.6975  -16.4506   23.2711 N   0  0  0  0  0  0  0  0  0  0  0  0
    9.0426  -15.6487   24.2497 C   0  0  1  0  0  0  0  0  0  0  0  0
    7.5695  -15.3607   23.9899 C   0  0  0  0  0  0  0  0  0  0  0  0
    6.9829  -14.4446   24.9977 C   0  0  0  0  0  0  0  0  0  0  0  0
    6.1936  -14.8873   26.0758 C   0  0  0  0  0  0  0  0  0  0  0  0
    5.8512  -13.7966   26.7614 N   0  0  0  0  0  0  0  0  0  0  0  0
    6.3705  -12.7045   26.1863 C   0  0  0  0  0  0  0  0  0  0  0  0
    7.0461  -13.1251   25.1282 N   0  0  0  0  0  0  0  0  0  0  0  0
    9.3084  -16.0389   25.6561 C   0  0  0  0  0  0  0  0  0  0  0  0
    8.7307  -17.1552   25.9357 O   0  0  0  0  0  0  0  0  0  0  0  0
   10.0789  -15.3093   26.5580 N   0  0  0  0  0  0  0  0  0  0  0  0
   10.6976  -13.9872   26.3374 C   0  0  0  0  0  0  0  0  0  0  0  0
   10.0980  -13.2279   27.4877 C   0  0  0  0  0  0  0  0  0  0  0  0
    9.9120  -14.2817   28.5676 C   0  0  0  0  0  0  0  0  0  0  0  0
   10.5150  -15.5539   27.8820 C   0  0  1  0  0  0  0  0  0  0  0  0
   10.1223  -16.7305   28.6084 C   0  0  0  0  0  0  0  0  0  0  0  0
   10.6059  -17.1552   29.7976 O   0  0  0  0  0  0  0  0  0  0  0  0
    9.2188  -17.4566   28.0751 O   0  0  0  0  0  0  0  0  0  0  0  0
  2  7  1  0
  2  1  1  6
  3  2  1  0
  4  3  1  0
  5  4  1  0
  5  6  2  0
  7  8  2  0
  9  5  1  0
 10  7  1  0
 10 11  1  0
 11 12  1  6
 12 13  1  0
 13 14  2  0
 15 14  1  0
 16 15  1  0
 17 13  1  0
 17 16  2  0
 18 11  1  0
 18 19  2  0
 20 18  1  0
 21 20  1  0
 22 21  1  0
 23 22  1  0
 24 23  1  0
 24 20  1  0
 24 25  1  1
 26 25  1  0
 27 25  2  0
M  END
$$$$
