EHP.pdb
     RDKit          3D

 27 28  0  0  1  0  0  0  0  0999 V2000
   11.3145  -17.3193   20.2129 N   0  0  0  0  0  0  0  0  0  0  0  0
   10.4118  -17.4743   21.3196 C   0  0  1  0  0  0  0  0  0  0  0  0
   10.9332  -18.4520   22.3102 C   0  0  0  0  0  0  0  0  0  0  0  0
   10.1052  -18.6602   23.5281 C   0  0  0  0  0  0  0  0  0  0  0  0
   10.6518  -19.5092   24.5751 C   0  0  0  0  0  0  0  0  0  0  0  0
   10.8344  -20.7621   24.4025 O   0  0  0  0  0  0  0  0  0  0  0  0
    9.9817  -16.1680   21.9130 C   0  0  0  0  0  0  0  0  0  0  0  0
   10.8131  -15.3063   22.2692 O   0  0  0  0  0  0  0  0  0  0  0  0
   11.0084  -18.9947   25.8212 O   0  0  0  0  0  0  0  0  0  0  0  0
    8.6047  -15.9496   22.0590 N   0  0  0  0  0  0  0  0  0  0  0  0
    7.9621  -14.8411   22.6819 C   0  0  1  0  0  0  0  0  0  0  0  0
    6.9348  -14.1080   21.8289 C   0  0  0  0  0  0  0  0  0  0  0  0
    7.4666  -13.7307   20.4972 C   0  0  0  0  0  0  0  0  0  0  0  0
    8.0722  -12.4880   20.2320 C   0  0  0  0  0  0  0  0  0  0  0  0
    8.4236  -12.5098   18.9464 N   0  0  0  0  0  0  0  0  0  0  0  0
    8.0790  -13.6782   18.3905 C   0  0  0  0  0  0  0  0  0  0  0  0
    7.5057  -14.3921   19.3469 N   0  0  0  0  0  0  0  0  0  0  0  0
    7.4820  -15.0930   24.0628 C   0  0  0  0  0  0  0  0  0  0  0  0
    6.7872  -16.1760   24.1126 O   0  0  0  0  0  0  0  0  0  0  0  0
    7.7440  -14.2803   25.1629 N   0  0  0  0  0  0  0  0  0  0  0  0
    8.4529  -12.9853   25.1667 C   0  0  0  0  0  0  0  0  0  0  0  0
    7.4024  -12.1194   25.8038 C   0  0  0  0  0  0  0  0  0  0  0  0
    6.6610  -13.0649   26.7352 C   0  0  0  0  0  0  0  0  0  0  0  0
    7.4621  -14.3970   26.5449 C   0  0  1  0  0  0  0  0  0  0  0  0
    6.7085  -15.4986   27.0784 C   0  0  0  0  0  0  0  0  0  0  0  0
    6.9889  -16.2182   28.1884 O   0  0  0  0  0  0  0  0  0  0  0  0
    5.6595  -15.8379   26.4363 O   0  0  0  0  0  0  0  0  0  0  0  0
  2  7  1  0
  2  1  1  6
  3  2  1  0
  4  3  1  0
  5  4  1  0
  5  6  2  0
  7  8  2  0
  9  5  1  0
 10  7  1  0
 10 11  1  0
 11 12  1  6
 12 13  1  0
 13 14  2  0
 15 14  1  0
 16 15  1  0
 17 13  1  0
 17 16  2  0
 18 11  1  0
 18 19  2  0
 20 18  1  0
 21 20  1  0
 22 21  1  0
 23 22  1  0
 24 23  1  0
 24 20  1  0
 24 25  1  6
 26 25  1  0
 27 25  2  0
M  END
$$$$
