EHP.pdb
     RDKit          3D

 27 28  0  0  1  0  0  0  0  0999 V2000
   10.2834  -18.2422   21.7892 N   0  0  0  0  0  0  0  0  0  0  0  0
   11.1958  -17.1522   21.9965 C   0  0  1  0  0  0  0  0  0  0  0  0
   12.1123  -16.9861   20.8382 C   0  0  0  0  0  0  0  0  0  0  0  0
   11.4980  -17.1116   19.4895 C   0  0  0  0  0  0  0  0  0  0  0  0
   12.3882  -17.0751   18.3396 C   0  0  0  0  0  0  0  0  0  0  0  0
   13.6539  -17.2025   18.4607 O   0  0  0  0  0  0  0  0  0  0  0  0
   10.5135  -15.8899   22.4262 C   0  0  0  0  0  0  0  0  0  0  0  0
   11.1408  -14.8167   22.5491 O   0  0  0  0  0  0  0  0  0  0  0  0
   11.9016  -16.9031   17.0442 O   0  0  0  0  0  0  0  0  0  0  0  0
    9.1387  -15.9595   22.6915 N   0  0  0  0  0  0  0  0  0  0  0  0
    8.2962  -14.9236   23.1883 C   0  0  1  0  0  0  0  0  0  0  0  0
    7.0633  -14.6148   22.3487 C   0  0  0  0  0  0  0  0  0  0  0  0
    7.4039  -14.2370   20.9559 C   0  0  0  0  0  0  0  0  0  0  0  0
    7.0733  -15.0276   19.8392 C   0  0  0  0  0  0  0  0  0  0  0  0
    7.5312  -14.3757   18.7705 N   0  0  0  0  0  0  0  0  0  0  0  0
    8.1251  -13.2344   19.1418 C   0  0  0  0  0  0  0  0  0  0  0  0
    8.0331  -13.1779   20.4614 N   0  0  0  0  0  0  0  0  0  0  0  0
    7.9931  -15.0069   24.6382 C   0  0  0  0  0  0  0  0  0  0  0  0
    7.6641  -16.2079   24.9661 O   0  0  0  0  0  0  0  0  0  0  0  0
    8.0566  -13.9413   25.5325 N   0  0  0  0  0  0  0  0  0  0  0  0
    8.3942  -12.5374   25.2249 C   0  0  0  0  0  0  0  0  0  0  0  0
    7.1673  -11.8547   25.7614 C   0  0  0  0  0  0  0  0  0  0  0  0
    6.7288  -12.7401   26.9168 C   0  0  0  0  0  0  0  0  0  0  0  0
    7.8511  -13.8322   26.9284 C   0  0  1  0  0  0  0  0  0  0  0  0
    7.4323  -14.9519   27.7268 C   0  0  0  0  0  0  0  0  0  0  0  0
    7.8564  -15.2721   28.9701 O   0  0  0  0  0  0  0  0  0  0  0  0
    6.5659  -15.7316   27.2079 O   0  0  0  0  0  0  0  0  0  0  0  0
  2  7  1  0
  2  1  1  6
  3  2  1  0
  4  3  1  0
  5  4  1  0
  5  6  2  0
  7  8  2  0
  9  5  1  0
 10  7  1  0
 10 11  1  0
 11 12  1  6
 12 13  1  0
 13 14  2  0
 15 14  1  0
 16 15  1  0
 17 13  1  0
 17 16  2  0
 18 11  1  0
 18 19  2  0
 20 18  1  0
 21 20  1  0
 22 21  1  0
 23 22  1  0
 24 23  1  0
 24 20  1  0
 24 25  1  6
 26 25  1  0
 27 25  2  0
M  END
$$$$
