EHP.pdb
     RDKit          3D

 27 28  0  0  1  0  0  0  0  0999 V2000
   12.2803  -15.4517   19.5833 N   0  0  0  0  0  0  0  0  0  0  0  0
   12.0419  -15.6343   20.9881 C   0  0  1  0  0  0  0  0  0  0  0  0
   13.3052  -15.5503   21.7667 C   0  0  0  0  0  0  0  0  0  0  0  0
   13.7155  -16.7831   22.4906 C   0  0  0  0  0  0  0  0  0  0  0  0
   14.9607  -16.7386   23.2412 C   0  0  0  0  0  0  0  0  0  0  0  0
   15.3919  -17.7483   23.8949 O   0  0  0  0  0  0  0  0  0  0  0  0
   10.9377  -14.7690   21.5129 C   0  0  0  0  0  0  0  0  0  0  0  0
   11.0652  -13.5296   21.6039 O   0  0  0  0  0  0  0  0  0  0  0  0
   15.7493  -15.5892   23.2807 O   0  0  0  0  0  0  0  0  0  0  0  0
    9.7518  -15.4056   21.9047 N   0  0  0  0  0  0  0  0  0  0  0  0
    8.5467  -14.7952   22.3574 C   0  0  1  0  0  0  0  0  0  0  0  0
    7.4156  -14.7309   21.3391 C   0  0  0  0  0  0  0  0  0  0  0  0
    7.8808  -14.2992   19.9990 C   0  0  0  0  0  0  0  0  0  0  0  0
    7.9564  -12.9496   19.6063 C   0  0  0  0  0  0  0  0  0  0  0  0
    8.4141  -12.9493   18.3544 N   0  0  0  0  0  0  0  0  0  0  0  0
    8.6284  -14.2038   17.9379 C   0  0  0  0  0  0  0  0  0  0  0  0
    8.2991  -14.9939   18.9480 N   0  0  0  0  0  0  0  0  0  0  0  0
    8.0856  -15.2407   23.6952 C   0  0  0  0  0  0  0  0  0  0  0  0
    8.0095  -16.5251   23.7461 O   0  0  0  0  0  0  0  0  0  0  0  0
    7.7787  -14.3960   24.7591 N   0  0  0  0  0  0  0  0  0  0  0  0
    8.0100  -12.9400   24.8376 C   0  0  0  0  0  0  0  0  0  0  0  0
    6.6105  -12.4728   25.1246 C   0  0  0  0  0  0  0  0  0  0  0  0
    5.9948  -13.6171   25.9137 C   0  0  0  0  0  0  0  0  0  0  0  0
    7.1998  -14.6102   26.0326 C   0  0  1  0  0  0  0  0  0  0  0  0
    6.7262  -15.9026   26.4467 C   0  0  0  0  0  0  0  0  0  0  0  0
    6.6091  -16.3620   27.7131 O   0  0  0  0  0  0  0  0  0  0  0  0
    6.3780  -16.7077   25.5201 O   0  0  0  0  0  0  0  0  0  0  0  0
  2  7  1  0
  2  1  1  6
  3  2  1  0
  4  3  1  0
  5  4  1  0
  5  6  2  0
  7  8  2  0
  9  5  1  0
 10  7  1  0
 10 11  1  0
 11 12  1  6
 12 13  1  0
 13 14  2  0
 15 14  1  0
 16 15  1  0
 17 13  1  0
 17 16  2  0
 18 11  1  0
 18 19  2  0
 20 18  1  0
 21 20  1  0
 22 21  1  0
 23 22  1  0
 24 23  1  0
 24 20  1  0
 24 25  1  6
 26 25  1  0
 27 25  2  0
M  END
$$$$
