EHP.pdb
     RDKit          3D

 27 28  0  0  1  0  0  0  0  0999 V2000
    9.9581  -17.7445   19.9170 N   0  0  0  0  0  0  0  0  0  0  0  0
   10.7018  -17.2688   21.0503 C   0  0  1  0  0  0  0  0  0  0  0  0
   12.0330  -16.7476   20.6436 C   0  0  0  0  0  0  0  0  0  0  0  0
   13.0588  -16.6536   21.7165 C   0  0  0  0  0  0  0  0  0  0  0  0
   14.4189  -17.0461   21.3821 C   0  0  0  0  0  0  0  0  0  0  0  0
   15.1726  -16.3165   20.6524 O   0  0  0  0  0  0  0  0  0  0  0  0
    9.9151  -16.3352   21.9180 C   0  0  0  0  0  0  0  0  0  0  0  0
    9.8285  -15.1166   21.6572 O   0  0  0  0  0  0  0  0  0  0  0  0
   14.9700  -18.2399   21.8466 O   0  0  0  0  0  0  0  0  0  0  0  0
    9.2806  -16.8820   23.0422 N   0  0  0  0  0  0  0  0  0  0  0  0
    8.5202  -16.1938   24.0311 C   0  0  1  0  0  0  0  0  0  0  0  0
    7.0998  -16.7013   24.2441 C   0  0  0  0  0  0  0  0  0  0  0  0
    6.3573  -15.9068   25.2521 C   0  0  0  0  0  0  0  0  0  0  0  0
    6.5767  -16.0199   26.6378 C   0  0  0  0  0  0  0  0  0  0  0  0
    5.7403  -15.1609   27.2204 N   0  0  0  0  0  0  0  0  0  0  0  0
    5.0138  -14.5205   26.2957 C   0  0  0  0  0  0  0  0  0  0  0  0
    5.4067  -14.9894   25.1216 N   0  0  0  0  0  0  0  0  0  0  0  0
    9.2349  -15.9456   25.3073 C   0  0  0  0  0  0  0  0  0  0  0  0
    9.6617  -17.0505   25.8123 O   0  0  0  0  0  0  0  0  0  0  0  0
    9.4282  -14.6942   25.8870 N   0  0  0  0  0  0  0  0  0  0  0  0
    9.2081  -13.3765   25.2589 C   0  0  0  0  0  0  0  0  0  0  0  0
    8.2414  -12.7808   26.2437 C   0  0  0  0  0  0  0  0  0  0  0  0
    8.6356  -13.4074   27.5716 C   0  0  0  0  0  0  0  0  0  0  0  0
    9.8742  -14.2740   27.1627 C   0  0  1  0  0  0  0  0  0  0  0  0
   10.1799  -15.2104   28.2095 C   0  0  0  0  0  0  0  0  0  0  0  0
    9.3650  -16.1627   28.7168 O   0  0  0  0  0  0  0  0  0  0  0  0
   11.3475  -15.1373   28.7188 O   0  0  0  0  0  0  0  0  0  0  0  0
  2  7  1  0
  2  1  1  6
  3  2  1  0
  4  3  1  0
  5  4  1  0
  5  6  2  0
  7  8  2  0
  9  5  1  0
 10  7  1  0
 10 11  1  0
 11 12  1  1
 12 13  1  0
 13 14  2  0
 15 14  1  0
 16 15  1  0
 17 13  1  0
 17 16  2  0
 18 11  1  0
 18 19  2  0
 20 18  1  0
 21 20  1  0
 22 21  1  0
 23 22  1  0
 24 23  1  0
 24 20  1  0
 24 25  1  1
 26 25  1  0
 27 25  2  0
M  END
$$$$
