YCQ.pdb
     RDKit          3D

 28 28  0  0  1  0  0  0  0  0999 V2000
   30.0699  -16.4157  -19.2164 O   0  0  0  0  0  0  0  0  0  0  0  0
   29.0877  -17.0948  -18.4696 C   0  0  0  0  0  0  0  0  0  0  0  0
   27.9394  -17.5372  -19.0731 C   0  0  0  0  0  0  0  0  0  0  0  0
   26.9804  -18.2053  -18.3223 C   0  0  0  0  0  0  0  0  0  0  0  0
   27.1481  -18.4402  -16.9750 C   0  0  0  0  0  0  0  0  0  0  0  0
   26.1025  -19.1566  -16.2049 C   0  0  0  0  0  0  0  0  0  0  0  0
   26.6897  -20.4761  -15.7744 C   0  0  2  0  0  0  0  0  0  0  0  0
   26.7764  -21.3170  -16.9414 N   0  0  0  0  0  0  0  0  0  0  0  0
   25.9449  -21.1144  -14.6667 C   0  0  0  0  0  0  0  0  0  0  0  0
   24.9752  -21.8584  -14.9557 O   0  0  0  0  0  0  0  0  0  0  0  0
   28.3118  -17.9849  -16.3926 C   0  0  0  0  0  0  0  0  0  0  0  0
   29.2839  -17.3150  -17.1228 C   0  0  0  0  0  0  0  0  0  0  0  0
   26.2707  -20.9284  -13.2981 N   0  0  0  0  0  0  0  0  0  0  0  0
   25.3568  -21.2549  -12.1964 C   0  0  1  0  0  0  0  0  0  0  0  0
   26.0796  -21.0630  -10.8801 C   0  0  0  0  0  0  0  0  0  0  0  0
   25.0357  -20.9382   -9.4537 S   0  0  0  0  0  0  0  0  0  0  0  0
   24.1006  -20.5111  -12.3121 C   0  0  0  0  0  0  0  0  0  0  0  0
   24.0574  -19.2506  -12.5155 O   0  0  0  0  0  0  0  0  0  0  0  0
   21.4405  -19.2633  -16.2637 N   0  0  0  0  0  0  0  0  0  0  0  0
   21.2930  -20.6900  -16.0663 C   0  0  0  0  0  0  0  0  0  0  0  0
   21.2543  -21.4187  -17.0774 O   0  0  0  0  0  0  0  0  0  0  0  0
   21.2044  -21.1415  -14.6682 C   0  0  0  0  0  0  0  0  0  0  0  0
   21.4371  -19.9834  -13.7414 C   0  0  0  0  0  0  0  0  0  0  0  0
   21.6011  -20.4273  -12.3336 C   0  0  2  0  0  0  0  0  0  0  0  0
   22.8574  -21.1726  -12.2043 N   0  0  0  0  0  0  0  0  0  0  0  0
   20.4440  -21.3398  -12.0256 C   0  0  0  0  0  0  0  0  0  0  0  0
   19.1834  -20.7883  -11.9468 O   0  0  0  0  0  0  0  0  0  0  0  0
   20.5816  -22.5693  -11.8398 O   0  0  0  0  0  0  0  0  0  0  0  0
  2  1  1  0
  3  2  2  0
  4  3  1  0
  5  4  2  0
  5 11  1  0
  6  5  1  0
  7  6  1  0
  7  9  1  0
  7  8  1  6
  9 10  2  0
 11 12  2  0
 12  2  1  0
 13  9  1  0
 13 14  1  0
 14 15  1  1
 15 16  1  0
 17 14  1  0
 17 18  2  0
 20 22  1  0
 20 19  1  0
 21 20  2  0
 23 22  1  0
 24 23  1  6
 24 25  1  0
 25 17  1  0
 26 27  1  0
 26 24  1  0
 28 26  2  0
M  END
$$$$
