YCQ.pdb
     RDKit          3D

 28 28  0  0  1  0  0  0  0  0999 V2000
   19.9238  -20.5525  -21.0828 O   0  0  0  0  0  0  0  0  0  0  0  0
   19.9479  -19.3890  -20.2895 C   0  0  0  0  0  0  0  0  0  0  0  0
   19.3126  -18.2494  -20.7094 C   0  0  0  0  0  0  0  0  0  0  0  0
   19.3459  -17.1102  -19.9151 C   0  0  0  0  0  0  0  0  0  0  0  0
   20.0045  -17.0885  -18.7050 C   0  0  0  0  0  0  0  0  0  0  0  0
   20.0194  -15.8538  -17.8836 C   0  0  0  0  0  0  0  0  0  0  0  0
   20.9354  -14.8725  -18.5683 C   0  0  2  0  0  0  0  0  0  0  0  0
   22.2520  -15.4569  -18.6058 N   0  0  0  0  0  0  0  0  0  0  0  0
   20.9258  -13.5304  -17.9454 C   0  0  0  0  0  0  0  0  0  0  0  0
   21.9220  -13.1869  -17.2621 O   0  0  0  0  0  0  0  0  0  0  0  0
   20.6352  -18.2479  -18.3062 C   0  0  0  0  0  0  0  0  0  0  0  0
   20.6152  -19.3980  -19.0832 C   0  0  0  0  0  0  0  0  0  0  0  0
   19.8501  -12.6148  -18.0811 N   0  0  0  0  0  0  0  0  0  0  0  0
   19.8707  -11.2538  -17.5307 C   0  0  1  0  0  0  0  0  0  0  0  0
   21.1173  -10.5433  -18.0136 C   0  0  0  0  0  0  0  0  0  0  0  0
   21.2089   -8.8191  -17.6151 S   0  0  0  0  0  0  0  0  0  0  0  0
   18.6206  -10.5472  -17.8183 C   0  0  0  0  0  0  0  0  0  0  0  0
   18.2169  -10.3078  -19.0065 O   0  0  0  0  0  0  0  0  0  0  0  0
   13.3957  -11.8131  -15.9152 N   0  0  0  0  0  0  0  0  0  0  0  0
   14.3496  -11.5543  -14.8573 C   0  0  0  0  0  0  0  0  0  0  0  0
   14.1336  -12.0618  -13.7389 O   0  0  0  0  0  0  0  0  0  0  0  0
   15.4970  -10.7056  -15.2174 C   0  0  0  0  0  0  0  0  0  0  0  0
   15.3932  -10.2893  -16.6562 C   0  0  0  0  0  0  0  0  0  0  0  0
   16.5233   -9.4147  -17.0608 C   0  0  2  0  0  0  0  0  0  0  0  0
   17.7897  -10.0944  -16.7697 N   0  0  0  0  0  0  0  0  0  0  0  0
   16.4254   -8.1624  -16.2310 C   0  0  0  0  0  0  0  0  0  0  0  0
   15.3233   -7.3526  -16.4025 O   0  0  0  0  0  0  0  0  0  0  0  0
   17.2986   -7.8311  -15.3987 O   0  0  0  0  0  0  0  0  0  0  0  0
  2  1  1  0
  3  2  2  0
  4  3  1  0
  5  4  2  0
  5 11  1  0
  6  5  1  0
  7  6  1  0
  7  9  1  0
  7  8  1  1
  9 10  2  0
 11 12  2  0
 12  2  1  0
 13  9  1  0
 13 14  1  0
 14 15  1  6
 15 16  1  0
 17 14  1  0
 17 18  2  0
 20 22  1  0
 20 19  1  0
 21 20  2  0
 23 22  1  0
 24 23  1  1
 24 25  1  0
 25 17  1  0
 26 27  1  0
 26 24  1  0
 28 26  2  0
M  END
$$$$
