YCQ.pdb
     RDKit          3D

 28 28  0  0  1  0  0  0  0  0999 V2000
   28.0528   -4.2261  -19.9298 O   0  0  0  0  0  0  0  0  0  0  0  0
   27.2086   -4.8038  -18.9618 C   0  0  0  0  0  0  0  0  0  0  0  0
   27.2417   -4.3678  -17.6628 C   0  0  0  0  0  0  0  0  0  0  0  0
   26.4024   -4.9482  -16.7202 C   0  0  0  0  0  0  0  0  0  0  0  0
   25.5277   -5.9596  -17.0526 C   0  0  0  0  0  0  0  0  0  0  0  0
   24.6466   -6.5561  -16.0195 C   0  0  0  0  0  0  0  0  0  0  0  0
   23.2766   -5.9548  -16.1992 C   0  0  2  0  0  0  0  0  0  0  0  0
   23.3154   -4.6144  -15.6716 N   0  0  0  0  0  0  0  0  0  0  0  0
   22.1965   -6.7706  -15.6017 C   0  0  0  0  0  0  0  0  0  0  0  0
   22.0252   -6.7090  -14.3591 O   0  0  0  0  0  0  0  0  0  0  0  0
   25.5144   -6.3794  -18.3658 C   0  0  0  0  0  0  0  0  0  0  0  0
   26.3438   -5.8143  -19.3247 C   0  0  0  0  0  0  0  0  0  0  0  0
   21.3470   -7.6169  -16.3607 N   0  0  0  0  0  0  0  0  0  0  0  0
   20.0694   -8.1405  -15.8613 C   0  0  1  0  0  0  0  0  0  0  0  0
   19.2090   -6.9852  -15.3955 C   0  0  0  0  0  0  0  0  0  0  0  0
   19.3546   -6.5766  -13.6775 S   0  0  0  0  0  0  0  0  0  0  0  0
   19.4310   -9.0114  -16.8505 C   0  0  0  0  0  0  0  0  0  0  0  0
   19.2286   -8.6548  -18.0604 O   0  0  0  0  0  0  0  0  0  0  0  0
   18.7622  -15.0667  -16.1535 N   0  0  0  0  0  0  0  0  0  0  0  0
   17.9516  -14.2187  -15.3048 C   0  0  0  0  0  0  0  0  0  0  0  0
   17.4354  -14.7292  -14.2911 O   0  0  0  0  0  0  0  0  0  0  0  0
   17.8197  -12.8165  -15.7324 C   0  0  0  0  0  0  0  0  0  0  0  0
   18.5339  -12.6105  -17.0369 C   0  0  0  0  0  0  0  0  0  0  0  0
   18.4282  -11.2061  -17.5084 C   0  0  2  0  0  0  0  0  0  0  0  0
   19.0062  -10.3120  -16.4999 N   0  0  0  0  0  0  0  0  0  0  0  0
   16.9609  -10.9057  -17.6611 C   0  0  0  0  0  0  0  0  0  0  0  0
   16.3084  -11.3962  -18.7717 O   0  0  0  0  0  0  0  0  0  0  0  0
   16.3163  -10.2336  -16.8258 O   0  0  0  0  0  0  0  0  0  0  0  0
  2  1  1  0
  3  2  2  0
  4  3  1  0
  5  4  2  0
  5 11  1  0
  6  5  1  0
  7  6  1  0
  7  9  1  0
  7  8  1  1
  9 10  2  0
 11 12  2  0
 12  2  1  0
 13  9  1  0
 13 14  1  0
 14 15  1  6
 15 16  1  0
 17 14  1  0
 17 18  2  0
 20 22  1  0
 20 19  1  0
 21 20  2  0
 23 22  1  0
 24 23  1  1
 24 25  1  0
 25 17  1  0
 26 27  1  0
 26 24  1  0
 28 26  2  0
M  END
$$$$
