YCQ.pdb
     RDKit          3D

 28 28  0  0  1  0  0  0  0  0999 V2000
   17.8797  -21.7469  -10.1187 O   0  0  0  0  0  0  0  0  0  0  0  0
   19.1227  -21.2460  -10.5521 C   0  0  0  0  0  0  0  0  0  0  0  0
   19.7997  -21.8587  -11.5742 C   0  0  0  0  0  0  0  0  0  0  0  0
   21.0247  -21.3520  -11.9896 C   0  0  0  0  0  0  0  0  0  0  0  0
   21.5875  -20.2408  -11.4007 C   0  0  0  0  0  0  0  0  0  0  0  0
   22.8975  -19.7280  -11.8702 C   0  0  0  0  0  0  0  0  0  0  0  0
   23.9240  -20.7927  -11.5809 C   0  0  2  0  0  0  0  0  0  0  0  0
   24.1864  -20.7728  -10.1641 N   0  0  0  0  0  0  0  0  0  0  0  0
   25.1550  -20.6539  -12.3898 C   0  0  0  0  0  0  0  0  0  0  0  0
   25.9942  -19.7843  -12.0479 O   0  0  0  0  0  0  0  0  0  0  0  0
   20.8859  -19.6436  -10.3750 C   0  0  0  0  0  0  0  0  0  0  0  0
   19.6605  -20.1321   -9.9432 C   0  0  0  0  0  0  0  0  0  0  0  0
   25.4339  -21.4522  -13.5295 N   0  0  0  0  0  0  0  0  0  0  0  0
   26.3528  -21.0436  -14.5993 C   0  0  1  0  0  0  0  0  0  0  0  0
   27.4098  -22.1123  -14.7791 C   0  0  0  0  0  0  0  0  0  0  0  0
   28.5059  -21.8708  -16.1504 S   0  0  0  0  0  0  0  0  0  0  0  0
   25.6232  -20.7010  -15.8221 C   0  0  0  0  0  0  0  0  0  0  0  0
   24.7049  -21.4416  -16.3121 O   0  0  0  0  0  0  0  0  0  0  0  0
   24.1106  -17.8969  -15.3497 N   0  0  0  0  0  0  0  0  0  0  0  0
   23.1035  -17.4377  -16.2830 C   0  0  0  0  0  0  0  0  0  0  0  0
   21.9740  -17.1595  -15.8336 O   0  0  0  0  0  0  0  0  0  0  0  0
   23.5241  -17.3428  -17.6903 C   0  0  0  0  0  0  0  0  0  0  0  0
   24.9758  -17.7051  -17.8153 C   0  0  0  0  0  0  0  0  0  0  0  0
   25.1854  -19.1742  -17.7540 C   0  0  2  0  0  0  0  0  0  0  0  0
   25.9095  -19.5089  -16.5234 N   0  0  0  0  0  0  0  0  0  0  0  0
   26.0264  -19.5457  -18.9461 C   0  0  0  0  0  0  0  0  0  0  0  0
   25.4710  -19.4144  -20.2007 O   0  0  0  0  0  0  0  0  0  0  0  0
   27.2003  -19.9657  -18.8428 O   0  0  0  0  0  0  0  0  0  0  0  0
  2  1  1  0
  3  2  2  0
  4  3  1  0
  5  4  2  0
  5 11  1  0
  6  5  1  0
  7  6  1  0
  7  9  1  0
  7  8  1  1
  9 10  2  0
 11 12  2  0
 12  2  1  0
 13  9  1  0
 13 14  1  0
 14 15  1  6
 15 16  1  0
 17 14  1  0
 17 18  2  0
 20 22  1  0
 20 19  1  0
 21 20  2  0
 23 22  1  0
 24 23  1  1
 24 25  1  0
 25 17  1  0
 26 27  1  0
 26 24  1  0
 28 26  2  0
M  END
$$$$
