YCQ.pdb
     RDKit          3D

 28 28  0  0  1  0  0  0  0  0999 V2000
   20.1290  -23.5204   -7.8780 O   0  0  0  0  0  0  0  0  0  0  0  0
   21.1208  -22.6421   -8.3560 C   0  0  0  0  0  0  0  0  0  0  0  0
   21.2179  -22.3677   -9.6953 C   0  0  0  0  0  0  0  0  0  0  0  0
   22.2018  -21.4991  -10.1506 C   0  0  0  0  0  0  0  0  0  0  0  0
   23.0936  -20.8977   -9.2895 C   0  0  0  0  0  0  0  0  0  0  0  0
   24.1315  -19.9759   -9.8113 C   0  0  0  0  0  0  0  0  0  0  0  0
   25.2866  -20.8227  -10.2800 C   0  0  2  0  0  0  0  0  0  0  0  0
   25.9860  -21.2928   -9.1111 N   0  0  0  0  0  0  0  0  0  0  0  0
   26.1764  -20.1230  -11.2328 C   0  0  0  0  0  0  0  0  0  0  0  0
   27.0228  -19.3179  -10.7717 O   0  0  0  0  0  0  0  0  0  0  0  0
   22.9741  -21.1907   -7.9475 C   0  0  0  0  0  0  0  0  0  0  0  0
   21.9990  -22.0554   -7.4698 C   0  0  0  0  0  0  0  0  0  0  0  0
   26.1210  -20.3157  -12.6377 N   0  0  0  0  0  0  0  0  0  0  0  0
   26.9793  -19.5975  -13.5881 C   0  0  1  0  0  0  0  0  0  0  0  0
   28.1151  -20.5040  -14.0124 C   0  0  0  0  0  0  0  0  0  0  0  0
   27.6435  -22.1550  -14.4503 S   0  0  0  0  0  0  0  0  0  0  0  0
   26.1967  -19.0469  -14.6969 C   0  0  0  0  0  0  0  0  0  0  0  0
   25.2144  -19.6676  -15.2277 O   0  0  0  0  0  0  0  0  0  0  0  0
   25.1383  -13.2596  -16.7794 N   0  0  0  0  0  0  0  0  0  0  0  0
   24.1454  -13.9124  -15.9522 C   0  0  0  0  0  0  0  0  0  0  0  0
   23.1658  -13.2397  -15.5746 O   0  0  0  0  0  0  0  0  0  0  0  0
   24.3979  -15.3280  -15.6383 C   0  0  0  0  0  0  0  0  0  0  0  0
   25.6761  -15.7753  -16.2867 C   0  0  0  0  0  0  0  0  0  0  0  0
   25.7568  -17.2550  -16.3852 C   0  0  2  0  0  0  0  0  0  0  0  0
   26.5013  -17.7769  -15.2345 N   0  0  0  0  0  0  0  0  0  0  0  0
   26.5087  -17.5683  -17.6513 C   0  0  0  0  0  0  0  0  0  0  0  0
   25.8094  -17.5738  -18.8390 O   0  0  0  0  0  0  0  0  0  0  0  0
   27.7337  -17.8217  -17.6668 O   0  0  0  0  0  0  0  0  0  0  0  0
  2  1  1  0
  3  2  2  0
  4  3  1  0
  5  4  2  0
  5 11  1  0
  6  5  1  0
  7  6  1  0
  7  9  1  0
  7  8  1  1
  9 10  2  0
 11 12  2  0
 12  2  1  0
 13  9  1  0
 13 14  1  0
 14 15  1  6
 15 16  1  0
 17 14  1  0
 17 18  2  0
 20 22  1  0
 20 19  1  0
 21 20  2  0
 23 22  1  0
 24 23  1  1
 24 25  1  0
 25 17  1  0
 26 27  1  0
 26 24  1  0
 28 26  2  0
M  END
$$$$
