YCQ.pdb
     RDKit          3D

 28 28  0  0  1  0  0  0  0  0999 V2000
   28.9990  -20.6500   -3.5999 O   0  0  0  0  0  0  0  0  0  0  0  0
   28.5730  -20.3195   -4.9010 C   0  0  0  0  0  0  0  0  0  0  0  0
   27.2700  -20.5187   -5.2763 C   0  0  0  0  0  0  0  0  0  0  0  0
   26.8659  -20.1875   -6.5635 C   0  0  0  0  0  0  0  0  0  0  0  0
   27.7428  -19.6592   -7.4857 C   0  0  0  0  0  0  0  0  0  0  0  0
   27.2761  -19.3177   -8.8514 C   0  0  0  0  0  0  0  0  0  0  0  0
   26.6624  -20.5626   -9.4383 C   0  0  2  0  0  0  0  0  0  0  0  0
   27.6268  -21.6259   -9.3127 N   0  0  0  0  0  0  0  0  0  0  0  0
   26.1912  -20.3828  -10.8293 C   0  0  0  0  0  0  0  0  0  0  0  0
   25.3470  -19.4814  -11.0574 O   0  0  0  0  0  0  0  0  0  0  0  0
   29.0475  -19.4689   -7.0826 C   0  0  0  0  0  0  0  0  0  0  0  0
   29.4738  -19.7924   -5.8018 C   0  0  0  0  0  0  0  0  0  0  0  0
   26.6444  -21.1760  -11.9153 N   0  0  0  0  0  0  0  0  0  0  0  0
   26.2900  -20.9108  -13.3153 C   0  0  1  0  0  0  0  0  0  0  0  0
   27.5090  -21.1324  -14.1852 C   0  0  0  0  0  0  0  0  0  0  0  0
   27.1993  -21.1635  -15.9296 S   0  0  0  0  0  0  0  0  0  0  0  0
   25.1103  -21.6797  -13.7177 C   0  0  0  0  0  0  0  0  0  0  0  0
   25.0179  -22.9435  -13.5555 O   0  0  0  0  0  0  0  0  0  0  0  0
   21.7334  -21.3024  -10.0893 N   0  0  0  0  0  0  0  0  0  0  0  0
   20.6944  -21.9193  -10.8869 C   0  0  0  0  0  0  0  0  0  0  0  0
   19.6632  -22.3080  -10.3035 O   0  0  0  0  0  0  0  0  0  0  0  0
   20.9661  -22.0242  -12.3297 C   0  0  0  0  0  0  0  0  0  0  0  0
   22.3375  -21.4925  -12.6315 C   0  0  0  0  0  0  0  0  0  0  0  0
   22.6403  -21.5397  -14.0847 C   0  0  2  0  0  0  0  0  0  0  0  0
   24.0002  -21.0401  -14.3122 N   0  0  0  0  0  0  0  0  0  0  0  0
   21.6528  -20.6308  -14.7666 C   0  0  0  0  0  0  0  0  0  0  0  0
   20.4230  -21.1484  -15.1123 O   0  0  0  0  0  0  0  0  0  0  0  0
   21.9033  -19.4336  -15.0295 O   0  0  0  0  0  0  0  0  0  0  0  0
  2  1  1  0
  3  2  2  0
  4  3  1  0
  5  4  2  0
  5 11  1  0
  6  5  1  0
  7  6  1  0
  7  9  1  0
  7  8  1  6
  9 10  2  0
 11 12  2  0
 12  2  1  0
 13  9  1  0
 13 14  1  0
 14 15  1  6
 15 16  1  0
 17 14  1  0
 17 18  2  0
 20 22  1  0
 20 19  1  0
 21 20  2  0
 23 22  1  0
 24 23  1  1
 24 25  1  0
 25 17  1  0
 26 27  1  0
 26 24  1  0
 28 26  2  0
M  END
$$$$
