YCQ.pdb
     RDKit          3D

 28 28  0  0  1  0  0  0  0  0999 V2000
   18.2091  -15.2149  -20.5328 O   0  0  0  0  0  0  0  0  0  0  0  0
   18.3387  -14.4414  -19.3629 C   0  0  0  0  0  0  0  0  0  0  0  0
   18.8959  -14.9803  -18.2326 C   0  0  0  0  0  0  0  0  0  0  0  0
   19.0164  -14.2039  -17.0870 C   0  0  0  0  0  0  0  0  0  0  0  0
   18.5891  -12.8945  -17.0498 C   0  0  0  0  0  0  0  0  0  0  0  0
   18.7335  -12.0956  -15.8087 C   0  0  0  0  0  0  0  0  0  0  0  0
   19.9158  -11.1811  -16.0008 C   0  0  2  0  0  0  0  0  0  0  0  0
   21.1005  -12.0007  -16.0363 N   0  0  0  0  0  0  0  0  0  0  0  0
   19.9963  -10.1077  -14.9857 C   0  0  0  0  0  0  0  0  0  0  0  0
   20.3151  -10.4238  -13.8127 O   0  0  0  0  0  0  0  0  0  0  0  0
   18.0325  -12.3769  -18.2001 C   0  0  0  0  0  0  0  0  0  0  0  0
   17.9019  -13.1338  -19.3563 C   0  0  0  0  0  0  0  0  0  0  0  0
   19.7320   -8.7429  -15.2706 N   0  0  0  0  0  0  0  0  0  0  0  0
   19.8464   -7.6706  -14.2741 C   0  0  1  0  0  0  0  0  0  0  0  0
   20.8769   -6.6660  -14.7440 C   0  0  0  0  0  0  0  0  0  0  0  0
   21.1083   -5.2656  -13.6832 S   0  0  0  0  0  0  0  0  0  0  0  0
   18.5363   -7.0946  -13.9631 C   0  0  0  0  0  0  0  0  0  0  0  0
   17.6740   -6.8080  -14.8611 O   0  0  0  0  0  0  0  0  0  0  0  0
   15.7091   -6.8446   -8.4570 N   0  0  0  0  0  0  0  0  0  0  0  0
   15.2066   -7.8194   -9.4022 C   0  0  0  0  0  0  0  0  0  0  0  0
   14.4928   -8.7435   -8.9647 O   0  0  0  0  0  0  0  0  0  0  0  0
   15.5952   -7.6149  -10.8071 C   0  0  0  0  0  0  0  0  0  0  0  0
   16.5169   -6.4346  -10.9158 C   0  0  0  0  0  0  0  0  0  0  0  0
   16.8952   -6.1575  -12.3250 C   0  0  2  0  0  0  0  0  0  0  0  0
   18.1632   -6.8296  -12.6270 N   0  0  0  0  0  0  0  0  0  0  0  0
   17.0780   -4.6678  -12.4435 C   0  0  0  0  0  0  0  0  0  0  0  0
   15.9781   -3.8599  -12.2507 O   0  0  0  0  0  0  0  0  0  0  0  0
   18.1806   -4.1394  -12.7081 O   0  0  0  0  0  0  0  0  0  0  0  0
  2  1  1  0
  3  2  2  0
  4  3  1  0
  5  4  2  0
  5 11  1  0
  6  5  1  0
  7  6  1  0
  7  9  1  0
  7  8  1  1
  9 10  2  0
 11 12  2  0
 12  2  1  0
 13  9  1  0
 13 14  1  0
 14 15  1  6
 15 16  1  0
 17 14  1  0
 17 18  2  0
 20 22  1  0
 20 19  1  0
 21 20  2  0
 23 22  1  0
 24 23  1  1
 24 25  1  0
 25 17  1  0
 26 27  1  0
 26 24  1  0
 28 26  2  0
M  END
$$$$
