YCQ.pdb
     RDKit          3D

 28 28  0  0  1  0  0  0  0  0999 V2000
   29.3247  -14.5985  -17.9027 O   0  0  0  0  0  0  0  0  0  0  0  0
   28.5830  -15.6777  -17.3840 C   0  0  0  0  0  0  0  0  0  0  0  0
   28.2109  -15.6939  -16.0651 C   0  0  0  0  0  0  0  0  0  0  0  0
   27.4795  -16.7658  -15.5692 C   0  0  0  0  0  0  0  0  0  0  0  0
   27.1120  -17.8255  -16.3696 C   0  0  0  0  0  0  0  0  0  0  0  0
   26.3314  -18.9533  -15.8056 C   0  0  0  0  0  0  0  0  0  0  0  0
   27.3010  -19.8482  -15.0776 C   0  0  2  0  0  0  0  0  0  0  0  0
   28.0753  -20.5512  -16.0690 N   0  0  0  0  0  0  0  0  0  0  0  0
   26.6455  -20.7607  -14.1149 C   0  0  0  0  0  0  0  0  0  0  0  0
   26.0121  -21.7456  -14.5688 O   0  0  0  0  0  0  0  0  0  0  0  0
   27.4990  -17.7844  -17.6922 C   0  0  0  0  0  0  0  0  0  0  0  0
   28.2300  -16.7238  -18.2097 C   0  0  0  0  0  0  0  0  0  0  0  0
   26.6968  -20.5789  -12.7084 N   0  0  0  0  0  0  0  0  0  0  0  0
   25.6778  -21.0973  -11.7871 C   0  0  1  0  0  0  0  0  0  0  0  0
   26.0761  -20.7577  -10.3666 C   0  0  0  0  0  0  0  0  0  0  0  0
   24.8492  -21.0977   -9.1340 S   0  0  0  0  0  0  0  0  0  0  0  0
   24.3391  -20.6408  -12.1669 C   0  0  0  0  0  0  0  0  0  0  0  0
   24.1030  -19.4573  -12.5862 O   0  0  0  0  0  0  0  0  0  0  0  0
   21.0361  -22.2361  -16.2355 N   0  0  0  0  0  0  0  0  0  0  0  0
   19.8771  -21.7227  -15.5359 C   0  0  0  0  0  0  0  0  0  0  0  0
   18.8234  -21.5698  -16.1849 O   0  0  0  0  0  0  0  0  0  0  0  0
   20.0647  -21.4308  -14.1055 C   0  0  0  0  0  0  0  0  0  0  0  0
   21.4547  -21.8109  -13.6843 C   0  0  0  0  0  0  0  0  0  0  0  0
   21.8932  -21.0563  -12.4826 C   0  0  2  0  0  0  0  0  0  0  0  0
   23.2298  -21.5112  -12.0862 N   0  0  0  0  0  0  0  0  0  0  0  0
   20.9114  -21.3725  -11.3858 C   0  0  0  0  0  0  0  0  0  0  0  0
   21.3476  -22.1309  -10.3208 O   0  0  0  0  0  0  0  0  0  0  0  0
   19.7248  -20.9767  -11.4038 O   0  0  0  0  0  0  0  0  0  0  0  0
  2  1  1  0
  3  2  2  0
  4  3  1  0
  5  4  2  0
  5 11  1  0
  6  5  1  0
  7  6  1  0
  7  9  1  0
  7  8  1  6
  9 10  2  0
 11 12  2  0
 12  2  1  0
 13  9  1  0
 13 14  1  0
 14 15  1  1
 15 16  1  0
 17 14  1  0
 17 18  2  0
 20 22  1  0
 20 19  1  0
 21 20  2  0
 23 22  1  0
 24 23  1  6
 24 25  1  0
 25 17  1  0
 26 27  1  0
 26 24  1  0
 28 26  2  0
M  END
$$$$
