YCQ.pdb
     RDKit          3D

 28 28  0  0  1  0  0  0  0  0999 V2000
   17.9420  -30.3053   -5.6616 O   0  0  0  0  0  0  0  0  0  0  0  0
   17.9169  -29.1728   -6.4986 C   0  0  0  0  0  0  0  0  0  0  0  0
   19.0536  -28.4345   -6.7017 C   0  0  0  0  0  0  0  0  0  0  0  0
   19.0119  -27.3202   -7.5303 C   0  0  0  0  0  0  0  0  0  0  0  0
   17.8515  -26.9289   -8.1619 C   0  0  0  0  0  0  0  0  0  0  0  0
   17.8442  -25.7333   -9.0394 C   0  0  0  0  0  0  0  0  0  0  0  0
   18.3224  -24.5683   -8.2116 C   0  0  2  0  0  0  0  0  0  0  0  0
   17.3731  -24.3713   -7.1455 N   0  0  0  0  0  0  0  0  0  0  0  0
   18.5498  -23.3407   -9.0054 C   0  0  0  0  0  0  0  0  0  0  0  0
   17.5473  -22.6911   -9.3929 O   0  0  0  0  0  0  0  0  0  0  0  0
   16.7226  -27.6889   -7.9408 C   0  0  0  0  0  0  0  0  0  0  0  0
   16.7406  -28.8060   -7.1171 C   0  0  0  0  0  0  0  0  0  0  0  0
   19.8407  -22.8621   -9.3498 N   0  0  0  0  0  0  0  0  0  0  0  0
   20.0689  -21.6576  -10.1578 C   0  0  1  0  0  0  0  0  0  0  0  0
   21.3142  -20.9556   -9.6592 C   0  0  0  0  0  0  0  0  0  0  0  0
   21.2955  -20.5059   -7.9453 S   0  0  0  0  0  0  0  0  0  0  0  0
   20.0829  -21.9738  -11.5876 C   0  0  0  0  0  0  0  0  0  0  0  0
   20.2902  -23.1522  -12.0352 O   0  0  0  0  0  0  0  0  0  0  0  0
   16.5113  -23.7282  -14.6042 N   0  0  0  0  0  0  0  0  0  0  0  0
   17.3132  -23.5078  -15.7894 C   0  0  0  0  0  0  0  0  0  0  0  0
   16.9739  -24.0867  -16.8403 O   0  0  0  0  0  0  0  0  0  0  0  0
   18.4653  -22.6058  -15.6294 C   0  0  0  0  0  0  0  0  0  0  0  0
   18.5838  -22.1775  -14.1953 C   0  0  0  0  0  0  0  0  0  0  0  0
   19.7643  -21.3033  -13.9759 C   0  0  2  0  0  0  0  0  0  0  0  0
   19.8592  -20.9663  -12.5519 N   0  0  0  0  0  0  0  0  0  0  0  0
   19.5321  -20.0473  -14.7729 C   0  0  0  0  0  0  0  0  0  0  0  0
   19.8748  -20.0511  -16.1079 O   0  0  0  0  0  0  0  0  0  0  0  0
   19.0442  -19.0090  -14.2742 O   0  0  0  0  0  0  0  0  0  0  0  0
  2  1  1  0
  3  2  2  0
  4  3  1  0
  5  4  2  0
  5 11  1  0
  6  5  1  0
  7  6  1  0
  7  9  1  0
  7  8  1  1
  9 10  2  0
 11 12  2  0
 12  2  1  0
 13  9  1  0
 13 14  1  0
 14 15  1  1
 15 16  1  0
 17 14  1  0
 17 18  2  0
 20 22  1  0
 20 19  1  0
 21 20  2  0
 23 22  1  0
 24 23  1  1
 24 25  1  0
 25 17  1  0
 26 27  1  0
 26 24  1  0
 28 26  2  0
M  END
$$$$
