VFD.pdb
     RDKit          3D

 27 27  0  0  1  0  0  0  0  0999 V2000
    7.4547  -16.0246   20.1385 C   0  0  0  0  0  0  0  0  0  0  0  0
    8.1180  -14.7718   19.6744 C   0  0  1  0  0  0  0  0  0  0  0  0
    7.6273  -14.4091   18.2946 C   0  0  0  0  0  0  0  0  0  0  0  0
    7.9407  -13.6217   20.6431 C   0  0  2  0  0  0  0  0  0  0  0  0
    8.4881  -12.3909   20.1043 N   0  0  0  0  0  0  0  0  0  0  0  0
    8.5696  -13.8768   21.9424 C   0  0  0  0  0  0  0  0  0  0  0  0
    9.7487  -13.4371   22.1765 O   0  0  0  0  0  0  0  0  0  0  0  0
    7.9765  -14.5888   23.0023 N   0  0  0  0  0  0  0  0  0  0  0  0
    8.6230  -14.7888   24.3139 C   0  0  1  0  0  0  0  0  0  0  0  0
    7.6001  -14.8318   25.3876 C   0  0  0  0  0  0  0  0  0  0  0  0
    7.1995  -13.5576   25.9941 C   0  0  0  0  0  0  0  0  0  0  0  0
    5.8803  -13.3018   26.3570 C   0  0  0  0  0  0  0  0  0  0  0  0
    5.4899  -12.1050   26.9282 C   0  0  0  0  0  0  0  0  0  0  0  0
    6.4100  -11.1142   27.1588 C   0  0  0  0  0  0  0  0  0  0  0  0
    7.7106  -11.3366   26.8134 C   0  0  0  0  0  0  0  0  0  0  0  0
    8.0816  -12.5301   26.2474 C   0  0  0  0  0  0  0  0  0  0  0  0
    9.4123  -16.0223   24.1533 C   0  0  0  0  0  0  0  0  0  0  0  0
    9.9944  -16.5799   25.1576 O   0  0  0  0  0  0  0  0  0  0  0  0
    9.6169  -16.7266   22.9260 N   0  0  0  0  0  0  0  0  0  0  0  0
   10.4767  -17.9057   22.8787 C   0  0  1  0  0  0  0  0  0  0  0  0
   10.6092  -18.4043   21.4390 C   0  0  0  0  0  0  0  0  0  0  0  0
   11.4486  -19.6003   21.3312 C   0  0  0  0  0  0  0  0  0  0  0  0
   12.6880  -19.5540   21.2967 O   0  0  0  0  0  0  0  0  0  0  0  0
   11.8069  -17.6930   23.4702 C   0  0  0  0  0  0  0  0  0  0  0  0
   12.5108  -16.4894   23.2895 O   0  0  0  0  0  0  0  0  0  0  0  0
   10.8477  -20.8494   21.2634 O   0  0  0  0  0  0  0  0  0  0  0  0
   12.3797  -18.5610   24.1591 O   0  0  0  0  0  0  0  0  0  0  0  0
  2  1  1  1
  2  3  1  0
  4  2  1  0
  4  5  1  6
  6  7  2  0
  6  4  1  0
  8  6  1  0
  9 10  1  1
  9  8  1  0
 11 10  1  0
 11 12  2  0
 13 12  1  0
 14 13  2  0
 15 16  2  0
 15 14  1  0
 16 11  1  0
 17  9  1  0
 18 17  2  0
 19 17  1  0
 20 24  1  0
 20 19  1  0
 20 21  1  6
 22 23  2  0
 22 21  1  0
 24 25  1  0
 26 22  1  0
 27 24  2  0
M  END
$$$$
