VFD.pdb
     RDKit          3D

 27 27  0  0  1  0  0  0  0  0999 V2000
    8.2188  -19.2499   19.4454 C   0  0  0  0  0  0  0  0  0  0  0  0
    8.8088  -18.4675   20.5700 C   0  0  1  0  0  0  0  0  0  0  0  0
   10.2681  -18.8153   20.7304 C   0  0  0  0  0  0  0  0  0  0  0  0
    8.6116  -16.9746   20.4117 C   0  0  2  0  0  0  0  0  0  0  0  0
    9.3267  -16.4693   19.2549 N   0  0  0  0  0  0  0  0  0  0  0  0
    9.0483  -16.2201   21.5901 C   0  0  0  0  0  0  0  0  0  0  0  0
   10.2065  -15.6752   21.6043 O   0  0  0  0  0  0  0  0  0  0  0  0
    8.2842  -16.0290   22.7571 N   0  0  0  0  0  0  0  0  0  0  0  0
    8.7614  -15.2711   23.9303 C   0  0  1  0  0  0  0  0  0  0  0  0
    7.6097  -14.7926   24.7337 C   0  0  0  0  0  0  0  0  0  0  0  0
    7.9013  -14.1296   26.0092 C   0  0  0  0  0  0  0  0  0  0  0  0
    7.8312  -12.7465   26.1488 C   0  0  0  0  0  0  0  0  0  0  0  0
    8.1046  -12.1097   27.3449 C   0  0  0  0  0  0  0  0  0  0  0  0
    8.4602  -12.8372   28.4520 C   0  0  0  0  0  0  0  0  0  0  0  0
    8.5371  -14.1947   28.3452 C   0  0  0  0  0  0  0  0  0  0  0  0
    8.2626  -14.8112   27.1507 C   0  0  0  0  0  0  0  0  0  0  0  0
    9.6667  -16.2005   24.6280 C   0  0  0  0  0  0  0  0  0  0  0  0
    9.3368  -17.4280   24.8342 O   0  0  0  0  0  0  0  0  0  0  0  0
   10.9644  -15.8772   25.1338 N   0  0  0  0  0  0  0  0  0  0  0  0
   11.7682  -16.8845   25.8199 C   0  0  1  0  0  0  0  0  0  0  0  0
   13.2569  -16.5994   25.6168 C   0  0  0  0  0  0  0  0  0  0  0  0
   13.6007  -16.3689   24.2113 C   0  0  0  0  0  0  0  0  0  0  0  0
   13.1245  -17.0385   23.2816 O   0  0  0  0  0  0  0  0  0  0  0  0
   11.4630  -17.0101   27.2536 C   0  0  0  0  0  0  0  0  0  0  0  0
   11.7001  -18.2045   27.9565 O   0  0  0  0  0  0  0  0  0  0  0  0
   14.4975  -15.3608   23.8866 O   0  0  0  0  0  0  0  0  0  0  0  0
   10.9810  -16.0722   27.9200 O   0  0  0  0  0  0  0  0  0  0  0  0
  2  1  1  6
  2  3  1  0
  4  2  1  0
  4  5  1  6
  6  7  2  0
  6  4  1  0
  8  6  1  0
  9 10  1  1
  9  8  1  0
 11 10  1  0
 11 12  2  0
 13 12  1  0
 14 13  2  0
 15 16  2  0
 15 14  1  0
 16 11  1  0
 17  9  1  0
 18 17  2  0
 19 17  1  0
 20 24  1  0
 20 19  1  0
 20 21  1  1
 22 23  2  0
 22 21  1  0
 24 25  1  0
 26 22  1  0
 27 24  2  0
M  END
$$$$
