VFD.pdb
     RDKit          3D

 27 27  0  0  1  0  0  0  0  0999 V2000
    7.9249  -16.5528   19.4957 C   0  0  0  0  0  0  0  0  0  0  0  0
    8.3392  -15.4050   18.6380 C   0  0  1  0  0  0  0  0  0  0  0  0
    7.9005  -15.6406   17.2138 C   0  0  0  0  0  0  0  0  0  0  0  0
    7.8366  -14.0744   19.1572 C   0  0  2  0  0  0  0  0  0  0  0  0
    8.2829  -12.9792   18.3169 N   0  0  0  0  0  0  0  0  0  0  0  0
    8.2677  -13.8065   20.5324 C   0  0  0  0  0  0  0  0  0  0  0  0
    9.3959  -13.2413   20.7474 O   0  0  0  0  0  0  0  0  0  0  0  0
    7.5293  -14.1245   21.6881 N   0  0  0  0  0  0  0  0  0  0  0  0
    7.9127  -13.6926   23.0463 C   0  0  1  0  0  0  0  0  0  0  0  0
    6.7065  -13.3143   23.8228 C   0  0  0  0  0  0  0  0  0  0  0  0
    6.8883  -12.9854   25.2408 C   0  0  0  0  0  0  0  0  0  0  0  0
    7.7037  -11.9343   25.6503 C   0  0  0  0  0  0  0  0  0  0  0  0
    7.8840  -11.6150   26.9831 C   0  0  0  0  0  0  0  0  0  0  0  0
    7.2516  -12.3394   27.9612 C   0  0  0  0  0  0  0  0  0  0  0  0
    6.4460  -13.3754   27.5897 C   0  0  0  0  0  0  0  0  0  0  0  0
    6.2777  -13.6793   26.2625 C   0  0  0  0  0  0  0  0  0  0  0  0
    8.6776  -14.8265   23.5933 C   0  0  0  0  0  0  0  0  0  0  0  0
    9.3855  -14.7030   24.6619 O   0  0  0  0  0  0  0  0  0  0  0  0
    8.7243  -16.1441   23.0402 N   0  0  0  0  0  0  0  0  0  0  0  0
    9.6206  -17.1536   23.5963 C   0  0  1  0  0  0  0  0  0  0  0  0
   11.0749  -16.7954   23.2874 C   0  0  0  0  0  0  0  0  0  0  0  0
   12.0249  -17.7596   23.8482 C   0  0  0  0  0  0  0  0  0  0  0  0
   11.8754  -18.9875   23.7532 O   0  0  0  0  0  0  0  0  0  0  0  0
    9.4439  -17.3718   25.0405 C   0  0  0  0  0  0  0  0  0  0  0  0
   10.1123  -18.4069   25.7175 O   0  0  0  0  0  0  0  0  0  0  0  0
   13.1480  -17.2966   24.5192 O   0  0  0  0  0  0  0  0  0  0  0  0
    8.6975  -16.6568   25.7390 O   0  0  0  0  0  0  0  0  0  0  0  0
  2  1  1  1
  2  3  1  0
  4  2  1  0
  4  5  1  6
  6  7  2  0
  6  4  1  0
  8  6  1  0
  9 10  1  1
  9  8  1  0
 11 10  1  0
 11 12  2  0
 13 12  1  0
 14 13  2  0
 15 16  2  0
 15 14  1  0
 16 11  1  0
 17  9  1  0
 18 17  2  0
 19 17  1  0
 20 24  1  0
 20 19  1  0
 20 21  1  1
 22 23  2  0
 22 21  1  0
 24 25  1  0
 26 22  1  0
 27 24  2  0
M  END
$$$$
