VFD.pdb
     RDKit          3D

 27 27  0  0  1  0  0  0  0  0999 V2000
    8.5644  -19.3820   21.2727 C   0  0  0  0  0  0  0  0  0  0  0  0
    8.6450  -18.7119   19.9425 C   0  0  1  0  0  0  0  0  0  0  0  0
    8.3276  -19.6998   18.8472 C   0  0  0  0  0  0  0  0  0  0  0  0
    7.7633  -17.4843   19.8507 C   0  0  2  0  0  0  0  0  0  0  0  0
    7.8549  -16.8676   18.5406 N   0  0  0  0  0  0  0  0  0  0  0  0
    8.0954  -16.4748   20.8603 C   0  0  0  0  0  0  0  0  0  0  0  0
    9.1064  -15.7092   20.6869 O   0  0  0  0  0  0  0  0  0  0  0  0
    7.3792  -16.2573   22.0527 N   0  0  0  0  0  0  0  0  0  0  0  0
    7.7806  -15.2746   23.0783 C   0  0  1  0  0  0  0  0  0  0  0  0
    6.6037  -14.8655   23.8837 C   0  0  0  0  0  0  0  0  0  0  0  0
    6.8478  -14.0347   25.0677 C   0  0  0  0  0  0  0  0  0  0  0  0
    6.8276  -12.6444   25.0039 C   0  0  0  0  0  0  0  0  0  0  0  0
    7.0571  -11.8505   26.1120 C   0  0  0  0  0  0  0  0  0  0  0  0
    7.3167  -12.4212   27.3319 C   0  0  0  0  0  0  0  0  0  0  0  0
    7.3429  -13.7817   27.4249 C   0  0  0  0  0  0  0  0  0  0  0  0
    7.1130  -14.5554   26.3154 C   0  0  0  0  0  0  0  0  0  0  0  0
    8.8524  -15.9453   23.8343 C   0  0  0  0  0  0  0  0  0  0  0  0
    8.7037  -17.1410   24.2885 O   0  0  0  0  0  0  0  0  0  0  0  0
   10.1325  -15.3860   24.1390 N   0  0  0  0  0  0  0  0  0  0  0  0
   11.2010  -16.2222   24.6781 C   0  0  1  0  0  0  0  0  0  0  0  0
   12.5539  -15.7697   24.1271 C   0  0  0  0  0  0  0  0  0  0  0  0
   13.6570  -16.6298   24.5630 C   0  0  0  0  0  0  0  0  0  0  0  0
   13.5984  -17.8688   24.5343 O   0  0  0  0  0  0  0  0  0  0  0  0
   11.2361  -16.2636   26.1484 C   0  0  0  0  0  0  0  0  0  0  0  0
   10.3455  -15.5061   26.9292 O   0  0  0  0  0  0  0  0  0  0  0  0
   14.8275  -16.0502   25.0318 O   0  0  0  0  0  0  0  0  0  0  0  0
   12.0509  -16.9669   26.7790 O   0  0  0  0  0  0  0  0  0  0  0  0
  2  1  1  1
  2  3  1  0
  4  2  1  0
  4  5  1  6
  6  7  2  0
  6  4  1  0
  8  6  1  0
  9 10  1  1
  9  8  1  0
 11 10  1  0
 11 12  2  0
 13 12  1  0
 14 13  2  0
 15 16  2  0
 15 14  1  0
 16 11  1  0
 17  9  1  0
 18 17  2  0
 19 17  1  0
 20 24  1  0
 20 19  1  0
 20 21  1  1
 22 23  2  0
 22 21  1  0
 24 25  1  0
 26 22  1  0
 27 24  2  0
M  END
$$$$
