VFD.pdb
     RDKit          3D

 27 27  0  0  1  0  0  0  0  0999 V2000
    9.7455  -18.9838   21.8470 C   0  0  0  0  0  0  0  0  0  0  0  0
   10.2470  -18.3676   20.5846 C   0  0  1  0  0  0  0  0  0  0  0  0
   10.2439  -19.3898   19.4750 C   0  0  0  0  0  0  0  0  0  0  0  0
    9.4752  -17.1253   20.1924 C   0  0  2  0  0  0  0  0  0  0  0  0
    9.9836  -16.5581   18.9575 N   0  0  0  0  0  0  0  0  0  0  0  0
    9.5134  -16.0877   21.2271 C   0  0  0  0  0  0  0  0  0  0  0  0
   10.5658  -15.3741   21.3749 O   0  0  0  0  0  0  0  0  0  0  0  0
    8.4596  -15.7877   22.1111 N   0  0  0  0  0  0  0  0  0  0  0  0
    8.5504  -14.7664   23.1728 C   0  0  1  0  0  0  0  0  0  0  0  0
    7.1922  -14.3457   23.5960 C   0  0  0  0  0  0  0  0  0  0  0  0
    7.0838  -13.5148   24.8000 C   0  0  0  0  0  0  0  0  0  0  0  0
    6.7762  -14.0617   26.0423 C   0  0  0  0  0  0  0  0  0  0  0  0
    6.6702  -13.2894   27.1839 C   0  0  0  0  0  0  0  0  0  0  0  0
    6.8692  -11.9336   27.1246 C   0  0  0  0  0  0  0  0  0  0  0  0
    7.1722  -11.3695   25.9203 C   0  0  0  0  0  0  0  0  0  0  0  0
    7.2737  -12.1501   24.7967 C   0  0  0  0  0  0  0  0  0  0  0  0
    9.3652  -15.3979   24.2252 C   0  0  0  0  0  0  0  0  0  0  0  0
    9.8194  -14.7166   25.2191 O   0  0  0  0  0  0  0  0  0  0  0  0
    9.7314  -16.7788   24.2793 N   0  0  0  0  0  0  0  0  0  0  0  0
   10.4712  -17.3087   25.4210 C   0  0  1  0  0  0  0  0  0  0  0  0
    9.5564  -17.4074   26.6425 C   0  0  0  0  0  0  0  0  0  0  0  0
   10.2723  -17.8225   27.8515 C   0  0  0  0  0  0  0  0  0  0  0  0
   11.4984  -18.0104   27.8788 O   0  0  0  0  0  0  0  0  0  0  0  0
   11.1156  -18.6052   25.1592 C   0  0  0  0  0  0  0  0  0  0  0  0
   12.5056  -18.7150   24.9783 O   0  0  0  0  0  0  0  0  0  0  0  0
    9.5634  -18.0191   29.0283 O   0  0  0  0  0  0  0  0  0  0  0  0
   10.4706  -19.6702   25.0837 O   0  0  0  0  0  0  0  0  0  0  0  0
  2  1  1  1
  2  3  1  0
  4  2  1  0
  4  5  1  6
  6  7  2  0
  6  4  1  0
  8  6  1  0
  9 10  1  1
  9  8  1  0
 11 10  1  0
 11 12  2  0
 13 12  1  0
 14 13  2  0
 15 16  2  0
 15 14  1  0
 16 11  1  0
 17  9  1  0
 18 17  2  0
 19 17  1  0
 20 24  1  0
 20 19  1  0
 20 21  1  1
 22 23  2  0
 22 21  1  0
 24 25  1  0
 26 22  1  0
 27 24  2  0
M  END
$$$$
