VFD.pdb
     RDKit          3D

 27 27  0  0  1  0  0  0  0  0999 V2000
    8.4619  -12.4023   18.8400 C   0  0  0  0  0  0  0  0  0  0  0  0
    7.8762  -13.7738   18.8103 C   0  0  1  0  0  0  0  0  0  0  0  0
    7.7053  -14.2308   17.3827 C   0  0  0  0  0  0  0  0  0  0  0  0
    8.6805  -14.7717   19.6165 C   0  0  2  0  0  0  0  0  0  0  0  0
    8.0488  -16.0778   19.6180 N   0  0  0  0  0  0  0  0  0  0  0  0
    8.8716  -14.3497   21.0072 C   0  0  0  0  0  0  0  0  0  0  0  0
    9.7565  -13.4690   21.2897 O   0  0  0  0  0  0  0  0  0  0  0  0
    8.1449  -14.8406   22.1086 N   0  0  0  0  0  0  0  0  0  0  0  0
    8.2987  -14.3255   23.4831 C   0  0  1  0  0  0  0  0  0  0  0  0
    6.9707  -14.0050   24.0614 C   0  0  0  0  0  0  0  0  0  0  0  0
    6.9430  -13.3137   25.3549 C   0  0  0  0  0  0  0  0  0  0  0  0
    7.5822  -12.0923   25.5466 C   0  0  0  0  0  0  0  0  0  0  0  0
    7.5645  -11.4315   26.7606 C   0  0  0  0  0  0  0  0  0  0  0  0
    6.9028  -11.9712   27.8340 C   0  0  0  0  0  0  0  0  0  0  0  0
    6.2670  -13.1675   27.6759 C   0  0  0  0  0  0  0  0  0  0  0  0
    6.2942  -13.8104   26.4642 C   0  0  0  0  0  0  0  0  0  0  0  0
    9.0509  -15.3764   24.1903 C   0  0  0  0  0  0  0  0  0  0  0  0
    9.3669  -15.2526   25.4325 O   0  0  0  0  0  0  0  0  0  0  0  0
    9.4977  -16.6087   23.6193 N   0  0  0  0  0  0  0  0  0  0  0  0
   10.4723  -17.4424   24.3170 C   0  0  1  0  0  0  0  0  0  0  0  0
   11.8890  -17.0934   23.8589 C   0  0  0  0  0  0  0  0  0  0  0  0
   12.9077  -17.9469   24.4755 C   0  0  0  0  0  0  0  0  0  0  0  0
   12.7349  -19.1567   24.6900 O   0  0  0  0  0  0  0  0  0  0  0  0
   10.3759  -17.3655   25.7831 C   0  0  0  0  0  0  0  0  0  0  0  0
   10.3863  -18.5205   26.5848 O   0  0  0  0  0  0  0  0  0  0  0  0
   14.1268  -17.3946   24.8427 O   0  0  0  0  0  0  0  0  0  0  0  0
   10.2805  -16.2807   26.3916 O   0  0  0  0  0  0  0  0  0  0  0  0
  2  1  1  6
  2  3  1  0
  4  2  1  0
  4  5  1  1
  6  7  2  0
  6  4  1  0
  8  6  1  0
  9 10  1  1
  9  8  1  0
 11 10  1  0
 11 12  2  0
 13 12  1  0
 14 13  2  0
 15 16  2  0
 15 14  1  0
 16 11  1  0
 17  9  1  0
 18 17  2  0
 19 17  1  0
 20 24  1  0
 20 19  1  0
 20 21  1  1
 22 23  2  0
 22 21  1  0
 24 25  1  0
 26 22  1  0
 27 24  2  0
M  END
$$$$
