VFD.pdb
     RDKit          3D

 27 27  0  0  1  0  0  0  0  0999 V2000
    7.2853  -18.3289   20.6114 C   0  0  0  0  0  0  0  0  0  0  0  0
    8.5167  -18.0250   19.8263 C   0  0  1  0  0  0  0  0  0  0  0  0
    8.4043  -18.6144   18.4420 C   0  0  0  0  0  0  0  0  0  0  0  0
    8.8258  -16.5437   19.7718 C   0  0  2  0  0  0  0  0  0  0  0  0
   10.0293  -16.2854   19.0039 N   0  0  0  0  0  0  0  0  0  0  0  0
    8.9920  -15.9531   21.1031 C   0  0  0  0  0  0  0  0  0  0  0  0
   10.1162  -16.0507   21.7073 O   0  0  0  0  0  0  0  0  0  0  0  0
    7.9919  -15.2596   21.8109 N   0  0  0  0  0  0  0  0  0  0  0  0
    8.2103  -14.6332   23.1293 C   0  0  1  0  0  0  0  0  0  0  0  0
    7.2455  -13.5253   23.3359 C   0  0  0  0  0  0  0  0  0  0  0  0
    7.1074  -12.9907   24.6949 C   0  0  0  0  0  0  0  0  0  0  0  0
    6.1142  -13.4387   25.5610 C   0  0  0  0  0  0  0  0  0  0  0  0
    5.9729  -12.9422   26.8433 C   0  0  0  0  0  0  0  0  0  0  0  0
    6.8250  -11.9737   27.3095 C   0  0  0  0  0  0  0  0  0  0  0  0
    7.8084  -11.5153   26.4830 C   0  0  0  0  0  0  0  0  0  0  0  0
    7.9350  -12.0186   25.2130 C   0  0  0  0  0  0  0  0  0  0  0  0
    8.1005  -15.7446   24.0900 C   0  0  0  0  0  0  0  0  0  0  0  0
    7.3316  -16.7522   23.8626 O   0  0  0  0  0  0  0  0  0  0  0  0
    8.8029  -15.8455   25.3312 N   0  0  0  0  0  0  0  0  0  0  0  0
    9.4991  -17.0762   25.6948 C   0  0  1  0  0  0  0  0  0  0  0  0
   10.3875  -17.5405   24.5399 C   0  0  0  0  0  0  0  0  0  0  0  0
   11.1758  -18.7287   24.8768 C   0  0  0  0  0  0  0  0  0  0  0  0
   12.1806  -18.6880   25.6034 O   0  0  0  0  0  0  0  0  0  0  0  0
   10.2861  -16.9679   26.9332 C   0  0  0  0  0  0  0  0  0  0  0  0
   10.4232  -15.7463   27.6157 O   0  0  0  0  0  0  0  0  0  0  0  0
   10.7963  -19.9634   24.3694 O   0  0  0  0  0  0  0  0  0  0  0  0
   10.8707  -17.9451   27.4424 O   0  0  0  0  0  0  0  0  0  0  0  0
  2  1  1  6
  2  3  1  0
  4  2  1  0
  4  5  1  6
  6  7  2  0
  6  4  1  0
  8  6  1  0
  9 10  1  1
  9  8  1  0
 11 10  1  0
 11 12  2  0
 13 12  1  0
 14 13  2  0
 15 16  2  0
 15 14  1  0
 16 11  1  0
 17  9  1  0
 18 17  2  0
 19 17  1  0
 20 24  1  0
 20 19  1  0
 20 21  1  6
 22 23  2  0
 22 21  1  0
 24 25  1  0
 26 22  1  0
 27 24  2  0
M  END
$$$$
