VFD.pdb
     RDKit          3D

 27 27  0  0  1  0  0  0  0  0999 V2000
    8.6236  -18.9306   21.4189 C   0  0  0  0  0  0  0  0  0  0  0  0
    9.6769  -18.4102   20.4998 C   0  0  1  0  0  0  0  0  0  0  0  0
    9.6261  -19.1497   19.1858 C   0  0  0  0  0  0  0  0  0  0  0  0
    9.5868  -16.9128   20.2940 C   0  0  2  0  0  0  0  0  0  0  0  0
   10.6534  -16.4349   19.4344 N   0  0  0  0  0  0  0  0  0  0  0  0
    9.6401  -16.1661   21.5543 C   0  0  0  0  0  0  0  0  0  0  0  0
   10.7715  -15.9098   22.0953 O   0  0  0  0  0  0  0  0  0  0  0  0
    8.5194  -15.6836   22.2566 N   0  0  0  0  0  0  0  0  0  0  0  0
    8.6133  -14.8890   23.4969 C   0  0  1  0  0  0  0  0  0  0  0  0
    7.3727  -14.0999   23.6945 C   0  0  0  0  0  0  0  0  0  0  0  0
    7.2096  -13.4017   24.9742 C   0  0  0  0  0  0  0  0  0  0  0  0
    6.1415  -13.6714   25.8250 C   0  0  0  0  0  0  0  0  0  0  0  0
    5.9760  -13.0197   27.0328 C   0  0  0  0  0  0  0  0  0  0  0  0
    6.8782  -12.0687   27.4366 C   0  0  0  0  0  0  0  0  0  0  0  0
    7.9352  -11.7833   26.6233 C   0  0  0  0  0  0  0  0  0  0  0  0
    8.0849  -12.4392   25.4277 C   0  0  0  0  0  0  0  0  0  0  0  0
    8.8986  -15.8788   24.5500 C   0  0  0  0  0  0  0  0  0  0  0  0
    8.0713  -16.8287   24.8175 O   0  0  0  0  0  0  0  0  0  0  0  0
   10.0737  -15.9144   25.3637 N   0  0  0  0  0  0  0  0  0  0  0  0
   10.2322  -16.9320   26.3986 C   0  0  1  0  0  0  0  0  0  0  0  0
   11.5622  -17.6649   26.2183 C   0  0  0  0  0  0  0  0  0  0  0  0
   11.5384  -18.6101   25.0990 C   0  0  0  0  0  0  0  0  0  0  0  0
   10.4877  -19.0736   24.6294 O   0  0  0  0  0  0  0  0  0  0  0  0
   10.1199  -16.4065   27.7682 C   0  0  0  0  0  0  0  0  0  0  0  0
    9.9565  -15.0330   28.0203 O   0  0  0  0  0  0  0  0  0  0  0  0
   12.7353  -19.0162   24.5259 O   0  0  0  0  0  0  0  0  0  0  0  0
   10.1631  -17.1436   28.7736 O   0  0  0  0  0  0  0  0  0  0  0  0
  2  1  1  1
  2  3  1  0
  4  2  1  0
  4  5  1  6
  6  7  2  0
  6  4  1  0
  8  6  1  0
  9 10  1  1
  9  8  1  0
 11 10  1  0
 11 12  2  0
 13 12  1  0
 14 13  2  0
 15 16  2  0
 15 14  1  0
 16 11  1  0
 17  9  1  0
 18 17  2  0
 19 17  1  0
 20 24  1  0
 20 19  1  0
 20 21  1  1
 22 23  2  0
 22 21  1  0
 24 25  1  0
 26 22  1  0
 27 24  2  0
M  END
$$$$
