VFD.pdb
     RDKit          3D

 27 27  0  0  1  0  0  0  0  0999 V2000
    8.3161  -18.8720   18.9985 C   0  0  0  0  0  0  0  0  0  0  0  0
    8.6874  -18.2185   20.2870 C   0  0  1  0  0  0  0  0  0  0  0  0
    9.7319  -19.0410   21.0001 C   0  0  0  0  0  0  0  0  0  0  0  0
    9.1417  -16.7854   20.1073 C   0  0  2  0  0  0  0  0  0  0  0  0
   10.3980  -16.7184   19.3848 N   0  0  0  0  0  0  0  0  0  0  0  0
    9.3046  -16.0814   21.3828 C   0  0  0  0  0  0  0  0  0  0  0  0
   10.4777  -15.7926   21.8055 O   0  0  0  0  0  0  0  0  0  0  0  0
    8.2504  -15.6754   22.2229 N   0  0  0  0  0  0  0  0  0  0  0  0
    8.4424  -14.8576   23.4365 C   0  0  1  0  0  0  0  0  0  0  0  0
    7.1718  -14.1888   23.8096 C   0  0  0  0  0  0  0  0  0  0  0  0
    7.1678  -13.3715   25.0276 C   0  0  0  0  0  0  0  0  0  0  0  0
    6.0341  -13.2525   25.8263 C   0  0  0  0  0  0  0  0  0  0  0  0
    6.0171  -12.4847   26.9757 C   0  0  0  0  0  0  0  0  0  0  0  0
    7.1401  -11.8035   27.3709 C   0  0  0  0  0  0  0  0  0  0  0  0
    8.2663  -11.9013   26.6078 C   0  0  0  0  0  0  0  0  0  0  0  0
    8.2665  -12.6676   25.4699 C   0  0  0  0  0  0  0  0  0  0  0  0
    8.9701  -15.8000   24.4383 C   0  0  0  0  0  0  0  0  0  0  0  0
    9.3626  -15.3955   25.5962 O   0  0  0  0  0  0  0  0  0  0  0  0
    9.1008  -17.2132   24.2652 N   0  0  0  0  0  0  0  0  0  0  0  0
    9.8356  -18.0175   25.2372 C   0  0  1  0  0  0  0  0  0  0  0  0
   11.3225  -18.0467   24.8811 C   0  0  0  0  0  0  0  0  0  0  0  0
   12.1298  -18.7435   25.8858 C   0  0  0  0  0  0  0  0  0  0  0  0
   12.9168  -18.1566   26.6445 O   0  0  0  0  0  0  0  0  0  0  0  0
    9.6521  -17.5782   26.6293 C   0  0  0  0  0  0  0  0  0  0  0  0
    9.2557  -16.2661   26.9426 O   0  0  0  0  0  0  0  0  0  0  0  0
   12.0224  -20.1216   26.0086 O   0  0  0  0  0  0  0  0  0  0  0  0
    9.8363  -18.3384   27.6009 O   0  0  0  0  0  0  0  0  0  0  0  0
  2  1  1  6
  2  3  1  0
  4  2  1  0
  4  5  1  1
  6  7  2  0
  6  4  1  0
  8  6  1  0
  9 10  1  1
  9  8  1  0
 11 10  1  0
 11 12  2  0
 13 12  1  0
 14 13  2  0
 15 16  2  0
 15 14  1  0
 16 11  1  0
 17  9  1  0
 18 17  2  0
 19 17  1  0
 20 24  1  0
 20 19  1  0
 20 21  1  6
 22 23  2  0
 22 21  1  0
 24 25  1  0
 26 22  1  0
 27 24  2  0
M  END
$$$$
