VFD.pdb
     RDKit          3D

 27 27  0  0  1  0  0  0  0  0999 V2000
    9.0552  -19.1865   21.8741 C   0  0  0  0  0  0  0  0  0  0  0  0
    9.8709  -18.6459   20.7483 C   0  0  1  0  0  0  0  0  0  0  0  0
    9.8391  -19.6028   19.5824 C   0  0  0  0  0  0  0  0  0  0  0  0
    9.4444  -17.2541   20.3316 C   0  0  2  0  0  0  0  0  0  0  0  0
   10.2793  -16.7472   19.2587 N   0  0  0  0  0  0  0  0  0  0  0  0
    9.4854  -16.2961   21.4403 C   0  0  0  0  0  0  0  0  0  0  0  0
   10.6029  -15.7863   21.8006 O   0  0  0  0  0  0  0  0  0  0  0  0
    8.3667  -15.8646   22.1782 N   0  0  0  0  0  0  0  0  0  0  0  0
    8.4577  -14.9812   23.3571 C   0  0  1  0  0  0  0  0  0  0  0  0
    7.1968  -14.2175   23.5232 C   0  0  0  0  0  0  0  0  0  0  0  0
    6.9981  -13.5033   24.7890 C   0  0  0  0  0  0  0  0  0  0  0  0
    6.1787  -14.0084   25.7943 C   0  0  0  0  0  0  0  0  0  0  0  0
    5.9825  -13.3446   26.9909 C   0  0  0  0  0  0  0  0  0  0  0  0
    6.6023  -12.1441   27.2274 C   0  0  0  0  0  0  0  0  0  0  0  0
    7.4115  -11.6245   26.2602 C   0  0  0  0  0  0  0  0  0  0  0  0
    7.5956  -12.2960   25.0780 C   0  0  0  0  0  0  0  0  0  0  0  0
    8.7925  -15.8846   24.4716 C   0  0  0  0  0  0  0  0  0  0  0  0
    8.2632  -17.0547   24.5668 O   0  0  0  0  0  0  0  0  0  0  0  0
    9.7066  -15.5959   25.5324 N   0  0  0  0  0  0  0  0  0  0  0  0
   10.1966  -16.6603   26.4033 C   0  0  1  0  0  0  0  0  0  0  0  0
   11.4541  -17.2934   25.8062 C   0  0  0  0  0  0  0  0  0  0  0  0
   11.2091  -18.6330   25.2658 C   0  0  0  0  0  0  0  0  0  0  0  0
   10.0983  -19.1842   25.3060 O   0  0  0  0  0  0  0  0  0  0  0  0
   10.4508  -16.2248   27.7855 C   0  0  0  0  0  0  0  0  0  0  0  0
   10.3104  -17.1040   28.8737 O   0  0  0  0  0  0  0  0  0  0  0  0
   12.2548  -19.3316   24.6788 O   0  0  0  0  0  0  0  0  0  0  0  0
   10.8020  -15.0614   28.0669 O   0  0  0  0  0  0  0  0  0  0  0  0
  2  1  1  1
  2  3  1  0
  4  2  1  0
  4  5  1  6
  6  7  2  0
  6  4  1  0
  8  6  1  0
  9 10  1  1
  9  8  1  0
 11 10  1  0
 11 12  2  0
 13 12  1  0
 14 13  2  0
 15 16  2  0
 15 14  1  0
 16 11  1  0
 17  9  1  0
 18 17  2  0
 19 17  1  0
 20 24  1  0
 20 19  1  0
 20 21  1  6
 22 23  2  0
 22 21  1  0
 24 25  1  0
 26 22  1  0
 27 24  2  0
M  END
$$$$
