YCG.pdb
     RDKit          3D

 23 23  0  0  1  0  0  0  0  0999 V2000
    5.5094  -10.6988   27.8558 O   0  0  0  0  0  0  0  0  0  0  0  0
    6.2148  -11.7771   27.2948 C   0  0  0  0  0  0  0  0  0  0  0  0
    5.8536  -12.2669   26.0559 C   0  0  0  0  0  0  0  0  0  0  0  0
    6.5383  -13.3216   25.4995 C   0  0  0  0  0  0  0  0  0  0  0  0
    7.5942  -13.9111   26.1603 C   0  0  0  0  0  0  0  0  0  0  0  0
    8.3393  -15.0558   25.5593 C   0  0  0  0  0  0  0  0  0  0  0  0
    7.3942  -16.0527   24.9055 C   0  0  2  0  0  0  0  0  0  0  0  0
    6.9514  -17.0571   25.8183 N   0  0  0  0  0  0  0  0  0  0  0  0
    8.1026  -16.6021   23.7265 C   0  0  0  0  0  0  0  0  0  0  0  0
    8.6088  -17.7416   23.7969 O   0  0  0  0  0  0  0  0  0  0  0  0
    7.9368  -13.4044   27.3969 C   0  0  0  0  0  0  0  0  0  0  0  0
    7.2688  -12.3501   27.9770 C   0  0  0  0  0  0  0  0  0  0  0  0
    8.2425  -15.8942   22.4957 N   0  0  0  0  0  0  0  0  0  0  0  0
    8.8331  -16.4683   21.3271 C   0  0  1  0  0  0  0  0  0  0  0  0
    8.3510  -15.8300   20.0425 C   0  0  0  0  0  0  0  0  0  0  0  0
    6.5678  -16.0416   19.8235 S   0  0  0  0  0  0  0  0  0  0  0  0
   10.3017  -16.2947   21.3688 C   0  0  0  0  0  0  0  0  0  0  0  0
   10.7557  -15.1822   21.7228 O   0  0  0  0  0  0  0  0  0  0  0  0
   11.2180  -17.3206   21.0292 N   0  0  0  0  0  0  0  0  0  0  0  0
   12.6403  -17.0601   21.1265 C   0  0  0  0  0  0  0  0  0  0  0  0
   13.3951  -18.3030   20.8339 C   0  0  0  0  0  0  0  0  0  0  0  0
   12.8223  -19.3939   20.5830 O   0  0  0  0  0  0  0  0  0  0  0  0
   14.7954  -18.1947   20.8524 O   0  0  0  0  0  0  0  0  0  0  0  0
  1  2  1  0
  2 12  2  0
  3  4  2  0
  3  2  1  0
  4  5  1  0
  5  6  1  0
  5 11  2  0
  6  7  1  0
  7  9  1  0
  7  8  1  1
  9 13  1  0
 10  9  2  0
 12 11  1  0
 13 14  1  0
 14 15  1  6
 14 17  1  0
 16 15  1  0
 17 18  2  0
 17 19  1  0
 19 20  1  0
 21 20  1  0
 21 23  1  0
 22 21  2  0
M  END
$$$$
