YCG.pdb
     RDKit          3D

 23 23  0  0  1  0  0  0  0  0999 V2000
    5.6044  -10.8458   28.2905 O   0  0  0  0  0  0  0  0  0  0  0  0
    6.2549  -11.7955   27.4843 C   0  0  0  0  0  0  0  0  0  0  0  0
    7.3603  -12.4670   27.9664 C   0  0  0  0  0  0  0  0  0  0  0  0
    8.0030  -13.3979   27.1845 C   0  0  0  0  0  0  0  0  0  0  0  0
    7.5625  -13.6810   25.9098 C   0  0  0  0  0  0  0  0  0  0  0  0
    8.2576  -14.6905   25.0587 C   0  0  0  0  0  0  0  0  0  0  0  0
    7.2913  -15.7507   24.5521 C   0  0  2  0  0  0  0  0  0  0  0  0
    6.8697  -16.6379   25.5881 N   0  0  0  0  0  0  0  0  0  0  0  0
    7.9652  -16.4397   23.4274 C   0  0  0  0  0  0  0  0  0  0  0  0
    8.6033  -17.4896   23.6513 O   0  0  0  0  0  0  0  0  0  0  0  0
    6.4560  -12.9972   25.4498 C   0  0  0  0  0  0  0  0  0  0  0  0
    5.7939  -12.0609   26.2109 C   0  0  0  0  0  0  0  0  0  0  0  0
    7.9271  -15.9664   22.0820 N   0  0  0  0  0  0  0  0  0  0  0  0
    8.5227  -16.6701   20.9893 C   0  0  1  0  0  0  0  0  0  0  0  0
    7.8622  -16.3734   19.6604 C   0  0  0  0  0  0  0  0  0  0  0  0
    6.2642  -15.5545   19.8804 S   0  0  0  0  0  0  0  0  0  0  0  0
    9.9449  -16.2845   20.8581 C   0  0  0  0  0  0  0  0  0  0  0  0
   10.2659  -15.1058   21.1353 O   0  0  0  0  0  0  0  0  0  0  0  0
   10.9594  -17.1788   20.4358 N   0  0  0  0  0  0  0  0  0  0  0  0
   11.7595  -17.8629   21.4318 C   0  0  0  0  0  0  0  0  0  0  0  0
   12.7687  -18.7167   20.7588 C   0  0  0  0  0  0  0  0  0  0  0  0
   13.6336  -18.2458   19.9771 O   0  0  0  0  0  0  0  0  0  0  0  0
   12.7054  -20.0905   21.0443 O   0  0  0  0  0  0  0  0  0  0  0  0
  1  2  1  0
  2 12  2  0
  3  4  2  0
  3  2  1  0
  4  5  1  0
  5  6  1  0
  5 11  2  0
  6  7  1  0
  7  9  1  0
  7  8  1  1
  9 13  1  0
 10  9  2  0
 12 11  1  0
 13 14  1  0
 14 15  1  6
 14 17  1  0
 16 15  1  0
 17 18  2  0
 17 19  1  0
 19 20  1  0
 21 20  1  0
 21 23  1  0
 22 21  2  0
M  END
$$$$
