YCG.pdb
     RDKit          3D

 23 23  0  0  1  0  0  0  0  0999 V2000
   12.5561  -16.9685   32.0256 O   0  0  0  0  0  0  0  0  0  0  0  0
   11.9312  -16.6514   30.8074 C   0  0  0  0  0  0  0  0  0  0  0  0
   12.2022  -17.3988   29.6790 C   0  0  0  0  0  0  0  0  0  0  0  0
   11.5954  -17.0956   28.4829 C   0  0  0  0  0  0  0  0  0  0  0  0
   10.7083  -16.0459   28.3822 C   0  0  0  0  0  0  0  0  0  0  0  0
   10.0481  -15.7142   27.0857 C   0  0  0  0  0  0  0  0  0  0  0  0
    8.6684  -16.3476   26.9862 C   0  0  2  0  0  0  0  0  0  0  0  0
    8.7278  -17.7739   26.9716 N   0  0  0  0  0  0  0  0  0  0  0  0
    8.0216  -15.7747   25.7832 C   0  0  0  0  0  0  0  0  0  0  0  0
    7.8826  -16.4890   24.7683 O   0  0  0  0  0  0  0  0  0  0  0  0
   10.4533  -15.3134   29.5231 C   0  0  0  0  0  0  0  0  0  0  0  0
   11.0465  -15.5949   30.7327 C   0  0  0  0  0  0  0  0  0  0  0  0
    7.5407  -14.4332   25.7153 N   0  0  0  0  0  0  0  0  0  0  0  0
    6.8336  -13.9130   24.5868 C   0  0  1  0  0  0  0  0  0  0  0  0
    6.2565  -12.5354   24.8302 C   0  0  0  0  0  0  0  0  0  0  0  0
    5.1972  -12.5079   26.2964 S   0  0  0  0  0  0  0  0  0  0  0  0
    7.7483  -13.7978   23.4298 C   0  0  0  0  0  0  0  0  0  0  0  0
    8.9134  -13.3863   23.6357 O   0  0  0  0  0  0  0  0  0  0  0  0
    7.3738  -14.1285   22.1040 N   0  0  0  0  0  0  0  0  0  0  0  0
    8.3369  -13.9623   21.0339 C   0  0  0  0  0  0  0  0  0  0  0  0
    8.9580  -15.2711   20.7156 C   0  0  0  0  0  0  0  0  0  0  0  0
    9.4157  -16.0321   21.6057 O   0  0  0  0  0  0  0  0  0  0  0  0
    9.0078  -15.6172   19.3552 O   0  0  0  0  0  0  0  0  0  0  0  0
  1  2  1  0
  2 12  2  0
  3  4  2  0
  3  2  1  0
  4  5  1  0
  5  6  1  0
  5 11  2  0
  6  7  1  0
  7  9  1  0
  7  8  1  6
  9 13  1  0
 10  9  2  0
 12 11  1  0
 13 14  1  0
 14 15  1  1
 14 17  1  0
 16 15  1  0
 17 18  2  0
 17 19  1  0
 19 20  1  0
 21 20  1  0
 21 23  1  0
 22 21  2  0
M  END
$$$$
