YCG.pdb
     RDKit          3D

 23 23  0  0  1  0  0  0  0  0999 V2000
    5.2271  -10.4850   27.3034 O   0  0  0  0  0  0  0  0  0  0  0  0
    5.9312  -11.6372   26.9138 C   0  0  0  0  0  0  0  0  0  0  0  0
    6.7306  -11.6088   25.7889 C   0  0  0  0  0  0  0  0  0  0  0  0
    7.4230  -12.7315   25.4004 C   0  0  0  0  0  0  0  0  0  0  0  0
    7.3366  -13.9039   26.1194 C   0  0  0  0  0  0  0  0  0  0  0  0
    8.0867  -15.1240   25.7006 C   0  0  0  0  0  0  0  0  0  0  0  0
    7.2435  -16.0129   24.7988 C   0  0  2  0  0  0  0  0  0  0  0  0
    6.6105  -17.0700   25.5199 N   0  0  0  0  0  0  0  0  0  0  0  0
    8.1351  -16.4917   23.7173 C   0  0  0  0  0  0  0  0  0  0  0  0
    8.7455  -17.5713   23.8648 O   0  0  0  0  0  0  0  0  0  0  0  0
    6.5316  -13.9081   27.2399 C   0  0  0  0  0  0  0  0  0  0  0  0
    5.8277  -12.7992   27.6512 C   0  0  0  0  0  0  0  0  0  0  0  0
    8.3406  -15.7803   22.4978 N   0  0  0  0  0  0  0  0  0  0  0  0
    9.1316  -16.2885   21.4208 C   0  0  1  0  0  0  0  0  0  0  0  0
    8.7560  -15.7001   20.0781 C   0  0  0  0  0  0  0  0  0  0  0  0
    7.0634  -16.1359   19.6114 S   0  0  0  0  0  0  0  0  0  0  0  0
   10.5574  -15.9656   21.6480 C   0  0  0  0  0  0  0  0  0  0  0  0
   10.8545  -14.7900   21.9626 O   0  0  0  0  0  0  0  0  0  0  0  0
   11.6008  -16.9164   21.5280 N   0  0  0  0  0  0  0  0  0  0  0  0
   12.9692  -16.4987   21.7587 C   0  0  0  0  0  0  0  0  0  0  0  0
   13.8631  -17.6820   21.7258 C   0  0  0  0  0  0  0  0  0  0  0  0
   15.1087  -17.5874   21.8694 O   0  0  0  0  0  0  0  0  0  0  0  0
   13.2381  -18.9235   21.5238 O   0  0  0  0  0  0  0  0  0  0  0  0
  1  2  1  0
  2 12  2  0
  3  4  2  0
  3  2  1  0
  4  5  1  0
  5  6  1  0
  5 11  2  0
  6  7  1  0
  7  9  1  0
  7  8  1  1
  9 13  1  0
 10  9  2  0
 12 11  1  0
 13 14  1  0
 14 15  1  6
 14 17  1  0
 16 15  1  0
 17 18  2  0
 17 19  1  0
 19 20  1  0
 21 20  1  0
 21 23  1  0
 22 21  2  0
M  END
$$$$
