YCG.pdb
     RDKit          3D

 23 23  0  0  1  0  0  0  0  0999 V2000
   10.4563  -14.9637   31.2039 O   0  0  0  0  0  0  0  0  0  0  0  0
   10.3123  -15.0645   29.8096 C   0  0  0  0  0  0  0  0  0  0  0  0
   10.2132  -16.3063   29.2152 C   0  0  0  0  0  0  0  0  0  0  0  0
   10.0721  -16.4144   27.8516 C   0  0  0  0  0  0  0  0  0  0  0  0
   10.0267  -15.2936   27.0510 C   0  0  0  0  0  0  0  0  0  0  0  0
    9.8737  -15.4073   25.5710 C   0  0  0  0  0  0  0  0  0  0  0  0
    9.5357  -16.8310   25.1546 C   0  0  2  0  0  0  0  0  0  0  0  0
   10.4175  -17.7895   25.7394 N   0  0  0  0  0  0  0  0  0  0  0  0
    9.5413  -16.8551   23.6736 C   0  0  0  0  0  0  0  0  0  0  0  0
   10.2329  -17.7098   23.0813 O   0  0  0  0  0  0  0  0  0  0  0  0
   10.1277  -14.0636   27.6676 C   0  0  0  0  0  0  0  0  0  0  0  0
   10.2695  -13.9267   29.0298 C   0  0  0  0  0  0  0  0  0  0  0  0
    8.7909  -15.9444   22.8718 N   0  0  0  0  0  0  0  0  0  0  0  0
    8.7331  -16.0240   21.4455 C   0  0  1  0  0  0  0  0  0  0  0  0
    7.7288  -15.0695   20.8369 C   0  0  0  0  0  0  0  0  0  0  0  0
    6.0500  -15.4118   21.4175 S   0  0  0  0  0  0  0  0  0  0  0  0
   10.0527  -15.6848   20.8690 C   0  0  0  0  0  0  0  0  0  0  0  0
   10.8234  -14.9616   21.5414 O   0  0  0  0  0  0  0  0  0  0  0  0
   10.4874  -16.1356   19.5981 N   0  0  0  0  0  0  0  0  0  0  0  0
   11.7950  -15.7389   19.1155 C   0  0  0  0  0  0  0  0  0  0  0  0
   12.7782  -16.8117   19.4029 C   0  0  0  0  0  0  0  0  0  0  0  0
   12.6702  -17.5735   20.3973 O   0  0  0  0  0  0  0  0  0  0  0  0
   13.8449  -16.9315   18.4969 O   0  0  0  0  0  0  0  0  0  0  0  0
  1  2  1  0
  2 12  2  0
  3  4  2  0
  3  2  1  0
  4  5  1  0
  5  6  1  0
  5 11  2  0
  6  7  1  0
  7  9  1  0
  7  8  1  1
  9 13  1  0
 10  9  2  0
 12 11  1  0
 13 14  1  0
 14 15  1  6
 14 17  1  0
 16 15  1  0
 17 18  2  0
 17 19  1  0
 19 20  1  0
 21 20  1  0
 21 23  1  0
 22 21  2  0
M  END
$$$$
