YCG.pdb
     RDKit          3D

 23 23  0  0  1  0  0  0  0  0999 V2000
    7.3288  -14.2165   16.6838 O   0  0  0  0  0  0  0  0  0  0  0  0
    7.7486  -14.0503   18.0147 C   0  0  0  0  0  0  0  0  0  0  0  0
    6.9846  -13.3054   18.8903 C   0  0  0  0  0  0  0  0  0  0  0  0
    7.3878  -13.1376   20.1942 C   0  0  0  0  0  0  0  0  0  0  0  0
    8.5559  -13.7049   20.6553 C   0  0  0  0  0  0  0  0  0  0  0  0
    8.9963  -13.5247   22.0696 C   0  0  0  0  0  0  0  0  0  0  0  0
    9.1152  -14.8598   22.7894 C   0  0  2  0  0  0  0  0  0  0  0  0
    7.8915  -15.5949   22.7715 N   0  0  0  0  0  0  0  0  0  0  0  0
    9.6034  -14.5655   24.1564 C   0  0  0  0  0  0  0  0  0  0  0  0
    9.9531  -13.4008   24.4403 O   0  0  0  0  0  0  0  0  0  0  0  0
    9.3027  -14.4449   19.7619 C   0  0  0  0  0  0  0  0  0  0  0  0
    8.9228  -14.6289   18.4519 C   0  0  0  0  0  0  0  0  0  0  0  0
    9.6989  -15.5508   25.1839 N   0  0  0  0  0  0  0  0  0  0  0  0
   10.2178  -15.2729   26.4868 C   0  0  1  0  0  0  0  0  0  0  0  0
    9.4676  -14.1709   27.2030 C   0  0  0  0  0  0  0  0  0  0  0  0
   10.0622  -13.9548   28.8978 S   0  0  0  0  0  0  0  0  0  0  0  0
   10.1203  -16.4810   27.3351 C   0  0  0  0  0  0  0  0  0  0  0  0
    8.9832  -16.9574   27.5572 O   0  0  0  0  0  0  0  0  0  0  0  0
   11.2453  -17.1246   27.9075 N   0  0  0  0  0  0  0  0  0  0  0  0
   11.5104  -18.5111   27.5797 C   0  0  0  0  0  0  0  0  0  0  0  0
   12.6380  -19.0106   28.4039 C   0  0  0  0  0  0  0  0  0  0  0  0
   13.2211  -18.2893   29.2528 O   0  0  0  0  0  0  0  0  0  0  0  0
   13.0221  -20.3435   28.1832 O   0  0  0  0  0  0  0  0  0  0  0  0
  1  2  1  0
  2 12  2  0
  3  4  2  0
  3  2  1  0
  4  5  1  0
  5  6  1  0
  5 11  2  0
  6  7  1  0
  7  9  1  0
  7  8  1  1
  9 13  1  0
 10  9  2  0
 12 11  1  0
 13 14  1  0
 14 15  1  1
 14 17  1  0
 16 15  1  0
 17 18  2  0
 17 19  1  0
 19 20  1  0
 21 20  1  0
 21 23  1  0
 22 21  2  0
M  END
$$$$
