CYD.pdb
     RDKit          3D

 27 27  0  0  1  0  0  0  0  0999 V2000
    7.9031  -12.8161   19.3925 N   0  0  0  0  0  0  0  0  0  0  0  0
    7.8312  -14.1270   19.9524 C   0  0  1  0  0  0  0  0  0  0  0  0
    8.3159  -15.2037   19.0086 C   0  0  0  0  0  0  0  0  0  0  0  0
    6.9290  -15.7016   17.9509 S   0  0  0  0  0  0  0  0  0  0  0  0
    8.4720  -14.2392   21.2890 C   0  0  0  0  0  0  0  0  0  0  0  0
    9.6446  -13.8549   21.4122 O   0  0  0  0  0  0  0  0  0  0  0  0
    5.9733  -10.2429   27.1142 O   0  0  0  0  0  0  0  0  0  0  0  0
    6.3396  -11.4714   26.5578 C   0  0  0  0  0  0  0  0  0  0  0  0
    7.6149  -11.6591   26.0735 C   0  0  0  0  0  0  0  0  0  0  0  0
    7.9921  -12.8636   25.5220 C   0  0  0  0  0  0  0  0  0  0  0  0
    7.1077  -13.9410   25.4288 C   0  0  0  0  0  0  0  0  0  0  0  0
    7.5289  -15.2032   24.8138 C   0  0  0  0  0  0  0  0  0  0  0  0
    8.4877  -15.0353   23.6919 C   0  0  2  0  0  0  0  0  0  0  0  0
    7.8087  -14.7640   22.4305 N   0  0  0  0  0  0  0  0  0  0  0  0
    9.4016  -16.1705   23.5951 C   0  0  0  0  0  0  0  0  0  0  0  0
    9.3980  -16.8620   22.5494 O   0  0  0  0  0  0  0  0  0  0  0  0
    5.8380  -13.7286   25.9200 C   0  0  0  0  0  0  0  0  0  0  0  0
    5.4533  -12.5248   26.4737 C   0  0  0  0  0  0  0  0  0  0  0  0
   10.3109  -16.5574   24.6153 N   0  0  0  0  0  0  0  0  0  0  0  0
   11.4169  -17.4684   24.2792 C   0  0  1  0  0  0  0  0  0  0  0  0
   12.2704  -16.8934   23.1969 C   0  0  0  0  0  0  0  0  0  0  0  0
   13.4839  -17.6825   22.9024 C   0  0  0  0  0  0  0  0  0  0  0  0
   13.4525  -18.8517   22.4102 O   0  0  0  0  0  0  0  0  0  0  0  0
   12.1828  -17.8265   25.4871 C   0  0  0  0  0  0  0  0  0  0  0  0
   12.0254  -17.2794   26.6045 O   0  0  0  0  0  0  0  0  0  0  0  0
   14.7523  -17.1355   23.1709 O   0  0  0  0  0  0  0  0  0  0  0  0
   13.1356  -18.8251   25.3995 O   0  0  0  0  0  0  0  0  0  0  0  0
  2  1  1  6
  2  3  1  0
  4  3  1  0
  5  2  1  0
  6  5  2  0
  8  7  1  0
  8 18  2  0
  9  8  1  0
 10  9  2  0
 10 11  1  0
 11 17  2  0
 13 12  1  1
 12 11  1  0
 13 14  1  0
 14  5  1  0
 15 13  1  0
 15 19  1  0
 16 15  2  0
 17 18  1  0
 20 24  1  0
 20 19  1  0
 20 21  1  6
 22 21  1  0
 22 23  2  0
 24 27  1  0
 25 24  2  0
 26 22  1  0
M  END
$$$$
