CYD.pdb
     RDKit          3D

 27 27  0  0  1  0  0  0  0  0999 V2000
   10.6759  -16.4818   18.6732 N   0  0  0  0  0  0  0  0  0  0  0  0
    9.4753  -16.6374   19.4291 C   0  0  1  0  0  0  0  0  0  0  0  0
    9.0415  -18.0789   19.5656 C   0  0  0  0  0  0  0  0  0  0  0  0
   10.3468  -18.9873   20.4380 S   0  0  0  0  0  0  0  0  0  0  0  0
    9.5068  -15.9464   20.7450 C   0  0  0  0  0  0  0  0  0  0  0  0
   10.6098  -15.6348   21.2182 O   0  0  0  0  0  0  0  0  0  0  0  0
    7.0576  -11.8475   28.2398 O   0  0  0  0  0  0  0  0  0  0  0  0
    7.0723  -12.4295   26.9693 C   0  0  0  0  0  0  0  0  0  0  0  0
    6.4602  -13.6447   26.7578 C   0  0  0  0  0  0  0  0  0  0  0  0
    6.4655  -14.2320   25.5118 C   0  0  0  0  0  0  0  0  0  0  0  0
    7.0856  -13.6288   24.4149 C   0  0  0  0  0  0  0  0  0  0  0  0
    7.0976  -14.2888   23.1062 C   0  0  0  0  0  0  0  0  0  0  0  0
    8.3748  -14.9789   22.7920 C   0  0  2  0  0  0  0  0  0  0  0  0
    8.3378  -15.6260   21.4859 N   0  0  0  0  0  0  0  0  0  0  0  0
    8.7595  -15.9024   23.8561 C   0  0  0  0  0  0  0  0  0  0  0  0
    8.1334  -16.9818   23.9754 O   0  0  0  0  0  0  0  0  0  0  0  0
    7.6909  -12.4137   24.6519 C   0  0  0  0  0  0  0  0  0  0  0  0
    7.6895  -11.8197   25.8972 C   0  0  0  0  0  0  0  0  0  0  0  0
    9.8091  -15.6653   24.7833 N   0  0  0  0  0  0  0  0  0  0  0  0
   10.1039  -16.6829   25.8047 C   0  0  1  0  0  0  0  0  0  0  0  0
   11.5546  -17.0375   25.8002 C   0  0  0  0  0  0  0  0  0  0  0  0
   12.0811  -17.4070   24.4704 C   0  0  0  0  0  0  0  0  0  0  0  0
   12.7911  -16.6300   23.7615 O   0  0  0  0  0  0  0  0  0  0  0  0
    9.6219  -16.2478   27.1285 C   0  0  0  0  0  0  0  0  0  0  0  0
    9.1291  -15.1179   27.3582 O   0  0  0  0  0  0  0  0  0  0  0  0
   11.7969  -18.6780   23.9376 O   0  0  0  0  0  0  0  0  0  0  0  0
    9.7108  -17.1280   28.1916 O   0  0  0  0  0  0  0  0  0  0  0  0
  2  1  1  1
  2  3  1  0
  4  3  1  0
  5  2  1  0
  6  5  2  0
  8  7  1  0
  8 18  2  0
  9  8  1  0
 10  9  2  0
 10 11  1  0
 11 17  2  0
 13 12  1  1
 12 11  1  0
 13 14  1  0
 14  5  1  0
 15 13  1  0
 15 19  1  0
 16 15  2  0
 17 18  1  0
 20 24  1  0
 20 19  1  0
 20 21  1  1
 22 21  1  0
 22 23  2  0
 24 27  1  0
 25 24  2  0
 26 22  1  0
M  END
$$$$
