CYD.pdb
     RDKit          3D

 27 27  0  0  1  0  0  0  0  0999 V2000
   10.8376  -18.0624   17.6088 N   0  0  0  0  0  0  0  0  0  0  0  0
   10.3686  -18.2687   18.9410 C   0  0  1  0  0  0  0  0  0  0  0  0
   10.6642  -19.6545   19.4672 C   0  0  0  0  0  0  0  0  0  0  0  0
    9.9117  -19.8134   21.1099 S   0  0  0  0  0  0  0  0  0  0  0  0
   10.8034  -17.2147   19.8948 C   0  0  0  0  0  0  0  0  0  0  0  0
   11.9534  -16.7634   19.7870 O   0  0  0  0  0  0  0  0  0  0  0  0
    6.9353  -12.4665   17.4862 O   0  0  0  0  0  0  0  0  0  0  0  0
    7.5464  -13.0025   18.6230 C   0  0  0  0  0  0  0  0  0  0  0  0
    6.9138  -13.9861   19.3500 C   0  0  0  0  0  0  0  0  0  0  0  0
    7.5023  -14.5249   20.4729 C   0  0  0  0  0  0  0  0  0  0  0  0
    8.7559  -14.1034   20.9228 C   0  0  0  0  0  0  0  0  0  0  0  0
    9.3468  -14.6765   22.1356 C   0  0  0  0  0  0  0  0  0  0  0  0
   10.4066  -15.6829   21.8708 C   0  0  2  0  0  0  0  0  0  0  0  0
    9.9681  -16.6997   20.9222 N   0  0  0  0  0  0  0  0  0  0  0  0
   10.9131  -16.2651   23.1108 C   0  0  0  0  0  0  0  0  0  0  0  0
   11.3778  -15.5028   23.9909 O   0  0  0  0  0  0  0  0  0  0  0  0
    9.3684  -13.1185   20.1787 C   0  0  0  0  0  0  0  0  0  0  0  0
    8.7850  -12.5744   19.0531 C   0  0  0  0  0  0  0  0  0  0  0  0
   10.9190  -17.6556   23.4003 N   0  0  0  0  0  0  0  0  0  0  0  0
   11.4767  -18.1165   24.6819 C   0  0  1  0  0  0  0  0  0  0  0  0
   10.6394  -19.2066   25.2659 C   0  0  0  0  0  0  0  0  0  0  0  0
   11.1356  -19.7218   26.5583 C   0  0  0  0  0  0  0  0  0  0  0  0
   12.1104  -19.2061   27.1861 O   0  0  0  0  0  0  0  0  0  0  0  0
   12.8924  -18.4983   24.5272 C   0  0  0  0  0  0  0  0  0  0  0  0
   13.3317  -19.1915   23.5791 O   0  0  0  0  0  0  0  0  0  0  0  0
   10.5155  -20.8396   27.1466 O   0  0  0  0  0  0  0  0  0  0  0  0
   13.8040  -18.0733   25.4764 O   0  0  0  0  0  0  0  0  0  0  0  0
  2  1  1  6
  2  3  1  0
  4  3  1  0
  5  2  1  0
  6  5  2  0
  8  7  1  0
  8 18  2  0
  9  8  1  0
 10  9  2  0
 10 11  1  0
 11 17  2  0
 13 12  1  1
 12 11  1  0
 13 14  1  0
 14  5  1  0
 15 13  1  0
 15 19  1  0
 16 15  2  0
 17 18  1  0
 20 24  1  0
 20 19  1  0
 20 21  1  6
 22 21  1  0
 22 23  2  0
 24 27  1  0
 25 24  2  0
 26 22  1  0
M  END
$$$$
