CYD.pdb
     RDKit          3D

 27 27  0  0  1  0  0  0  0  0999 V2000
    8.4995  -16.8179   19.0507 N   0  0  0  0  0  0  0  0  0  0  0  0
    8.6735  -15.4015   19.0278 C   0  0  1  0  0  0  0  0  0  0  0  0
    7.6153  -14.6857   18.2198 C   0  0  0  0  0  0  0  0  0  0  0  0
    8.0592  -12.9294   18.1273 S   0  0  0  0  0  0  0  0  0  0  0  0
    8.8343  -14.7998   20.3775 C   0  0  0  0  0  0  0  0  0  0  0  0
    9.8539  -14.1314   20.6047 O   0  0  0  0  0  0  0  0  0  0  0  0
    7.0039  -11.8212   28.5763 O   0  0  0  0  0  0  0  0  0  0  0  0
    6.9333  -12.4013   27.3069 C   0  0  0  0  0  0  0  0  0  0  0  0
    7.0509  -11.6180   26.1805 C   0  0  0  0  0  0  0  0  0  0  0  0
    6.9836  -12.1740   24.9220 C   0  0  0  0  0  0  0  0  0  0  0  0
    6.7946  -13.5449   24.7307 C   0  0  0  0  0  0  0  0  0  0  0  0
    6.7013  -14.1055   23.3796 C   0  0  0  0  0  0  0  0  0  0  0  0
    8.0172  -14.3196   22.7248 C   0  0  2  0  0  0  0  0  0  0  0  0
    7.8795  -14.9523   21.4184 N   0  0  0  0  0  0  0  0  0  0  0  0
    8.9366  -15.0457   23.5969 C   0  0  0  0  0  0  0  0  0  0  0  0
    9.1612  -14.5974   24.7458 O   0  0  0  0  0  0  0  0  0  0  0  0
    6.6797  -14.3072   25.8728 C   0  0  0  0  0  0  0  0  0  0  0  0
    6.7462  -13.7571   27.1363 C   0  0  0  0  0  0  0  0  0  0  0  0
    9.6080  -16.2438   23.2347 N   0  0  0  0  0  0  0  0  0  0  0  0
   10.4998  -16.8871   24.2128 C   0  0  1  0  0  0  0  0  0  0  0  0
    9.8310  -18.0585   24.8537 C   0  0  0  0  0  0  0  0  0  0  0  0
   10.7093  -18.8396   25.7484 C   0  0  0  0  0  0  0  0  0  0  0  0
   11.6862  -18.3341   26.3812 O   0  0  0  0  0  0  0  0  0  0  0  0
   11.7925  -17.2308   23.5926 C   0  0  0  0  0  0  0  0  0  0  0  0
   12.7353  -17.7902   24.2014 O   0  0  0  0  0  0  0  0  0  0  0  0
   10.4746  -20.2155   25.9272 O   0  0  0  0  0  0  0  0  0  0  0  0
   11.9929  -16.9254   22.2587 O   0  0  0  0  0  0  0  0  0  0  0  0
  2  1  1  1
  2  3  1  0
  4  3  1  0
  5  2  1  0
  6  5  2  0
  8  7  1  0
  8 18  2  0
  9  8  1  0
 10  9  2  0
 10 11  1  0
 11 17  2  0
 13 12  1  1
 12 11  1  0
 13 14  1  0
 14  5  1  0
 15 13  1  0
 15 19  1  0
 16 15  2  0
 17 18  1  0
 20 24  1  0
 20 19  1  0
 20 21  1  6
 22 21  1  0
 22 23  2  0
 24 27  1  0
 25 24  2  0
 26 22  1  0
M  END
$$$$
