CYD.pdb
     RDKit          3D

 27 27  0  0  1  0  0  0  0  0999 V2000
   10.3861  -16.7147   18.6542 N   0  0  0  0  0  0  0  0  0  0  0  0
    9.3558  -16.9549   19.6122 C   0  0  1  0  0  0  0  0  0  0  0  0
    9.2804  -18.3982   20.0549 C   0  0  0  0  0  0  0  0  0  0  0  0
   10.7735  -18.7802   21.0113 S   0  0  0  0  0  0  0  0  0  0  0  0
    9.3934  -16.0259   20.7721 C   0  0  0  0  0  0  0  0  0  0  0  0
   10.4407  -15.3978   20.9876 O   0  0  0  0  0  0  0  0  0  0  0  0
    6.8947  -11.2172   27.8763 O   0  0  0  0  0  0  0  0  0  0  0  0
    6.9352  -12.0618   26.7637 C   0  0  0  0  0  0  0  0  0  0  0  0
    6.2617  -11.7217   25.6117 C   0  0  0  0  0  0  0  0  0  0  0  0
    6.2913  -12.5429   24.5063 C   0  0  0  0  0  0  0  0  0  0  0  0
    6.9988  -13.7476   24.5014 C   0  0  0  0  0  0  0  0  0  0  0  0
    6.9918  -14.6141   23.3192 C   0  0  0  0  0  0  0  0  0  0  0  0
    8.3465  -14.9448   22.8076 C   0  0  2  0  0  0  0  0  0  0  0  0
    8.2908  -15.8224   21.6446 N   0  0  0  0  0  0  0  0  0  0  0  0
    9.2012  -15.4802   23.8641 C   0  0  0  0  0  0  0  0  0  0  0  0
    9.3652  -14.8065   24.9085 O   0  0  0  0  0  0  0  0  0  0  0  0
    7.6642  -14.0657   25.6653 C   0  0  0  0  0  0  0  0  0  0  0  0
    7.6389  -13.2479   26.7763 C   0  0  0  0  0  0  0  0  0  0  0  0
    9.8730  -16.7297   23.7962 N   0  0  0  0  0  0  0  0  0  0  0  0
   10.6835  -17.1688   24.9435 C   0  0  1  0  0  0  0  0  0  0  0  0
   10.0118  -18.2844   25.6744 C   0  0  0  0  0  0  0  0  0  0  0  0
   10.8049  -18.8378   26.7910 C   0  0  0  0  0  0  0  0  0  0  0  0
   11.1547  -18.1560   27.8024 O   0  0  0  0  0  0  0  0  0  0  0  0
   12.0541  -17.5039   24.5156 C   0  0  0  0  0  0  0  0  0  0  0  0
   12.9646  -17.8639   25.2991 O   0  0  0  0  0  0  0  0  0  0  0  0
   11.2068  -20.1860   26.7584 O   0  0  0  0  0  0  0  0  0  0  0  0
   12.3707  -17.4223   23.1718 O   0  0  0  0  0  0  0  0  0  0  0  0
  2  1  1  1
  2  3  1  0
  4  3  1  0
  5  2  1  0
  6  5  2  0
  8  7  1  0
  8 18  2  0
  9  8  1  0
 10  9  2  0
 10 11  1  0
 11 17  2  0
 13 12  1  1
 12 11  1  0
 13 14  1  0
 14  5  1  0
 15 13  1  0
 15 19  1  0
 16 15  2  0
 17 18  1  0
 20 24  1  0
 20 19  1  0
 20 21  1  6
 22 21  1  0
 22 23  2  0
 24 27  1  0
 25 24  2  0
 26 22  1  0
M  END
$$$$
