CYD.pdb
     RDKit          3D

 27 27  0  0  1  0  0  0  0  0999 V2000
    8.5390  -14.6448   19.1815 N   0  0  0  0  0  0  0  0  0  0  0  0
    7.8647  -15.1702   20.3244 C   0  0  1  0  0  0  0  0  0  0  0  0
    7.3966  -16.5950   20.1354 C   0  0  0  0  0  0  0  0  0  0  0  0
    7.1471  -16.8830   18.3621 S   0  0  0  0  0  0  0  0  0  0  0  0
    8.6244  -15.0053   21.5915 C   0  0  0  0  0  0  0  0  0  0  0  0
    9.8631  -14.9921   21.5360 O   0  0  0  0  0  0  0  0  0  0  0  0
   10.4674  -14.7506   30.3311 O   0  0  0  0  0  0  0  0  0  0  0  0
    9.8395  -14.6982   29.0837 C   0  0  0  0  0  0  0  0  0  0  0  0
    9.7689  -13.5085   28.3939 C   0  0  0  0  0  0  0  0  0  0  0  0
    9.1537  -13.4396   27.1634 C   0  0  0  0  0  0  0  0  0  0  0  0
    8.5779  -14.5620   26.5630 C   0  0  0  0  0  0  0  0  0  0  0  0
    7.9073  -14.4541   25.2642 C   0  0  0  0  0  0  0  0  0  0  0  0
    8.7398  -14.9011   24.1182 C   0  0  2  0  0  0  0  0  0  0  0  0
    8.0025  -14.8622   22.8608 N   0  0  0  0  0  0  0  0  0  0  0  0
    9.3364  -16.2104   24.3692 C   0  0  0  0  0  0  0  0  0  0  0  0
    8.7333  -17.2355   23.9729 O   0  0  0  0  0  0  0  0  0  0  0  0
    8.6614  -15.7402   27.2727 C   0  0  0  0  0  0  0  0  0  0  0  0
    9.2761  -15.8165   28.5056 C   0  0  0  0  0  0  0  0  0  0  0  0
   10.5712  -16.4137   25.0409 N   0  0  0  0  0  0  0  0  0  0  0  0
   11.3308  -17.6475   24.7826 C   0  0  1  0  0  0  0  0  0  0  0  0
   12.0365  -17.5734   23.4686 C   0  0  0  0  0  0  0  0  0  0  0  0
   12.8476  -18.7665   23.1514 C   0  0  0  0  0  0  0  0  0  0  0  0
   12.9016  -19.7911   23.8981 O   0  0  0  0  0  0  0  0  0  0  0  0
   12.2370  -17.9467   25.9065 C   0  0  0  0  0  0  0  0  0  0  0  0
   13.2109  -17.2271   26.2322 O   0  0  0  0  0  0  0  0  0  0  0  0
   13.6090  -18.7965   21.9683 O   0  0  0  0  0  0  0  0  0  0  0  0
   12.0122  -19.0859   26.6578 O   0  0  0  0  0  0  0  0  0  0  0  0
  2  1  1  6
  2  3  1  0
  4  3  1  0
  5  2  1  0
  6  5  2  0
  8  7  1  0
  8 18  2  0
  9  8  1  0
 10  9  2  0
 10 11  1  0
 11 17  2  0
 13 12  1  1
 12 11  1  0
 13 14  1  0
 14  5  1  0
 15 13  1  0
 15 19  1  0
 16 15  2  0
 17 18  1  0
 20 24  1  0
 20 19  1  0
 20 21  1  6
 22 21  1  0
 22 23  2  0
 24 27  1  0
 25 24  2  0
 26 22  1  0
M  END
$$$$
