CYD.pdb
     RDKit          3D

 27 27  0  0  1  0  0  0  0  0999 V2000
    7.9818  -12.9472   18.8368 N   0  0  0  0  0  0  0  0  0  0  0  0
    7.2839  -13.6916   19.8346 C   0  0  1  0  0  0  0  0  0  0  0  0
    6.8917  -15.0777   19.3764 C   0  0  0  0  0  0  0  0  0  0  0  0
    8.4008  -16.0681   19.1988 S   0  0  0  0  0  0  0  0  0  0  0  0
    7.9791  -13.7237   21.1482 C   0  0  0  0  0  0  0  0  0  0  0  0
    9.1886  -13.4520   21.1791 O   0  0  0  0  0  0  0  0  0  0  0  0
    9.6083  -13.6505   29.8545 O   0  0  0  0  0  0  0  0  0  0  0  0
    8.9715  -13.7221   28.6125 C   0  0  0  0  0  0  0  0  0  0  0  0
    8.7884  -14.9407   27.9980 C   0  0  0  0  0  0  0  0  0  0  0  0
    8.1627  -15.0289   26.7740 C   0  0  0  0  0  0  0  0  0  0  0  0
    7.6892  -13.8976   26.1049 C   0  0  0  0  0  0  0  0  0  0  0  0
    7.0500  -14.0187   24.7914 C   0  0  0  0  0  0  0  0  0  0  0  0
    8.0082  -14.0583   23.6572 C   0  0  2  0  0  0  0  0  0  0  0  0
    7.3275  -14.0497   22.3678 N   0  0  0  0  0  0  0  0  0  0  0  0
    8.9401  -15.1759   23.7832 C   0  0  0  0  0  0  0  0  0  0  0  0
    9.5786  -15.3129   24.8533 O   0  0  0  0  0  0  0  0  0  0  0  0
    7.8843  -12.6904   26.7399 C   0  0  0  0  0  0  0  0  0  0  0  0
    8.5101  -12.5947   27.9658 C   0  0  0  0  0  0  0  0  0  0  0  0
    9.1819  -16.1371   22.7659 N   0  0  0  0  0  0  0  0  0  0  0  0
   10.1609  -17.2080   23.0125 C   0  0  1  0  0  0  0  0  0  0  0  0
    9.8275  -18.4278   22.2181 C   0  0  0  0  0  0  0  0  0  0  0  0
   10.8037  -19.5270   22.3622 C   0  0  0  0  0  0  0  0  0  0  0  0
   10.9574  -20.1864   23.4355 O   0  0  0  0  0  0  0  0  0  0  0  0
   11.5334  -16.7242   22.7756 C   0  0  0  0  0  0  0  0  0  0  0  0
   12.5155  -17.0218   23.4963 O   0  0  0  0  0  0  0  0  0  0  0  0
   11.6178  -19.8827   21.2709 O   0  0  0  0  0  0  0  0  0  0  0  0
   11.7689  -15.8918   21.6966 O   0  0  0  0  0  0  0  0  0  0  0  0
  2  1  1  6
  2  3  1  0
  4  3  1  0
  5  2  1  0
  6  5  2  0
  8  7  1  0
  8 18  2  0
  9  8  1  0
 10  9  2  0
 10 11  1  0
 11 17  2  0
 13 12  1  1
 12 11  1  0
 13 14  1  0
 14  5  1  0
 15 13  1  0
 15 19  1  0
 16 15  2  0
 17 18  1  0
 20 24  1  0
 20 19  1  0
 20 21  1  6
 22 21  1  0
 22 23  2  0
 24 27  1  0
 25 24  2  0
 26 22  1  0
M  END
$$$$
