CYD.pdb
     RDKit          3D

 27 27  0  0  1  0  0  0  0  0999 V2000
   13.1491  -14.6976   16.7938 N   0  0  0  0  0  0  0  0  0  0  0  0
   12.6184  -15.6727   17.6908 C   0  0  1  0  0  0  0  0  0  0  0  0
   13.3472  -16.9956   17.6296 C   0  0  0  0  0  0  0  0  0  0  0  0
   12.4060  -18.2105   18.5931 S   0  0  0  0  0  0  0  0  0  0  0  0
   12.4830  -15.1845   19.0883 C   0  0  0  0  0  0  0  0  0  0  0  0
   13.2931  -14.3388   19.4960 O   0  0  0  0  0  0  0  0  0  0  0  0
    6.8344  -12.2265   17.7065 O   0  0  0  0  0  0  0  0  0  0  0  0
    7.5576  -12.9115   18.6867 C   0  0  0  0  0  0  0  0  0  0  0  0
    8.7861  -12.4420   19.0949 C   0  0  0  0  0  0  0  0  0  0  0  0
    9.5118  -13.1051   20.0599 C   0  0  0  0  0  0  0  0  0  0  0  0
    9.0407  -14.2733   20.6640 C   0  0  0  0  0  0  0  0  0  0  0  0
    9.8458  -14.9721   21.6699 C   0  0  0  0  0  0  0  0  0  0  0  0
   11.2836  -15.0878   21.3155 C   0  0  2  0  0  0  0  0  0  0  0  0
   11.4730  -15.6380   19.9786 N   0  0  0  0  0  0  0  0  0  0  0  0
   12.0264  -15.8311   22.3299 C   0  0  0  0  0  0  0  0  0  0  0  0
   11.9458  -15.4664   23.5265 O   0  0  0  0  0  0  0  0  0  0  0  0
    7.8095  -14.7229   20.2387 C   0  0  0  0  0  0  0  0  0  0  0  0
    7.0772  -14.0639   19.2728 C   0  0  0  0  0  0  0  0  0  0  0  0
   12.8483  -16.9570   22.0577 N   0  0  0  0  0  0  0  0  0  0  0  0
   13.5686  -17.6012   23.1678 C   0  0  1  0  0  0  0  0  0  0  0  0
   14.4350  -18.7102   22.6683 C   0  0  0  0  0  0  0  0  0  0  0  0
   13.8050  -19.5446   21.6247 C   0  0  0  0  0  0  0  0  0  0  0  0
   12.6012  -19.9418   21.6825 O   0  0  0  0  0  0  0  0  0  0  0  0
   14.3112  -16.6015   23.9572 C   0  0  0  0  0  0  0  0  0  0  0  0
   14.6987  -15.4982   23.5045 O   0  0  0  0  0  0  0  0  0  0  0  0
   14.5535  -19.9338   20.4984 O   0  0  0  0  0  0  0  0  0  0  0  0
   14.6053  -16.8821   25.2791 O   0  0  0  0  0  0  0  0  0  0  0  0
  2  1  1  6
  2  3  1  0
  4  3  1  0
  5  2  1  0
  6  5  2  0
  8  7  1  0
  8 18  2  0
  9  8  1  0
 10  9  2  0
 10 11  1  0
 11 17  2  0
 13 12  1  1
 12 11  1  0
 13 14  1  0
 14  5  1  0
 15 13  1  0
 15 19  1  0
 16 15  2  0
 17 18  1  0
 20 24  1  0
 20 19  1  0
 20 21  1  6
 22 21  1  0
 22 23  2  0
 24 27  1  0
 25 24  2  0
 26 22  1  0
M  END
$$$$
