CYD.pdb
     RDKit          3D

 27 27  0  0  1  0  0  0  0  0999 V2000
    9.8520  -16.8445   18.3220 N   0  0  0  0  0  0  0  0  0  0  0  0
    8.8154  -17.0269   19.2859 C   0  0  1  0  0  0  0  0  0  0  0  0
    8.4637  -18.4793   19.5128 C   0  0  0  0  0  0  0  0  0  0  0  0
    7.9378  -19.1929   17.9303 S   0  0  0  0  0  0  0  0  0  0  0  0
    9.0623  -16.3150   20.5673 C   0  0  0  0  0  0  0  0  0  0  0  0
   10.2288  -16.2387   20.9813 O   0  0  0  0  0  0  0  0  0  0  0  0
    7.7775  -12.1471   28.3154 O   0  0  0  0  0  0  0  0  0  0  0  0
    7.5821  -12.7050   27.0491 C   0  0  0  0  0  0  0  0  0  0  0  0
    8.6606  -12.9653   26.2335 C   0  0  0  0  0  0  0  0  0  0  0  0
    8.4854  -13.5148   24.9827 C   0  0  0  0  0  0  0  0  0  0  0  0
    7.2180  -13.8310   24.4872 C   0  0  0  0  0  0  0  0  0  0  0  0
    7.0593  -14.3914   23.1421 C   0  0  0  0  0  0  0  0  0  0  0  0
    8.2625  -15.1042   22.6415 C   0  0  2  0  0  0  0  0  0  0  0  0
    8.0299  -15.7186   21.3398 N   0  0  0  0  0  0  0  0  0  0  0  0
    8.7638  -16.0621   23.6235 C   0  0  0  0  0  0  0  0  0  0  0  0
    8.0660  -17.0665   23.8991 O   0  0  0  0  0  0  0  0  0  0  0  0
    6.1552  -13.5613   25.3217 C   0  0  0  0  0  0  0  0  0  0  0  0
    6.3233  -13.0110   26.5756 C   0  0  0  0  0  0  0  0  0  0  0  0
   10.0053  -15.9394   24.3025 N   0  0  0  0  0  0  0  0  0  0  0  0
   10.4203  -17.0030   25.2311 C   0  0  1  0  0  0  0  0  0  0  0  0
   11.8931  -17.2363   25.1498 C   0  0  0  0  0  0  0  0  0  0  0  0
   12.4183  -17.3009   23.7706 C   0  0  0  0  0  0  0  0  0  0  0  0
   11.9659  -18.0935   22.8890 O   0  0  0  0  0  0  0  0  0  0  0  0
    9.9590  -16.7089   26.6003 C   0  0  0  0  0  0  0  0  0  0  0  0
    9.3651  -15.6543   26.9284 O   0  0  0  0  0  0  0  0  0  0  0  0
   13.4733  -16.4524   23.3869 O   0  0  0  0  0  0  0  0  0  0  0  0
   10.1864  -17.6430   27.5944 O   0  0  0  0  0  0  0  0  0  0  0  0
  2  1  1  6
  2  3  1  0
  4  3  1  0
  5  2  1  0
  6  5  2  0
  8  7  1  0
  8 18  2  0
  9  8  1  0
 10  9  2  0
 10 11  1  0
 11 17  2  0
 13 12  1  1
 12 11  1  0
 13 14  1  0
 14  5  1  0
 15 13  1  0
 15 19  1  0
 16 15  2  0
 17 18  1  0
 20 24  1  0
 20 19  1  0
 20 21  1  1
 22 21  1  0
 22 23  2  0
 24 27  1  0
 25 24  2  0
 26 22  1  0
M  END
$$$$
