HRR.pdb
     RDKit          3D

 33 33  0  0  1  0  0  0  0  0999 V2000
    7.3393  -13.2685   16.5586 N   0  0  0  0  0  0  0  0  0  0  0  0
    8.1268  -14.4740   16.4953 C   0  0  1  0  0  0  0  0  0  0  0  0
    8.9972  -14.4938   15.2384 C   0  0  0  0  0  0  0  0  0  0  0  0
    8.3509  -15.3700   14.2406 C   0  0  0  0  0  0  0  0  0  0  0  0
    7.2022  -16.1120   14.3617 C   0  0  0  0  0  0  0  0  0  0  0  0
    6.9675  -16.7758   13.1951 N   0  0  0  0  0  0  0  0  0  0  0  0
    7.9613  -16.4473   12.3614 C   0  0  0  0  0  0  0  0  0  0  0  0
    8.7971  -15.5977   12.9935 N   0  0  0  0  0  0  0  0  0  0  0  0
    9.0135  -14.5353   17.6814 C   0  0  0  0  0  0  0  0  0  0  0  0
    9.7478  -13.5583   17.9792 O   0  0  0  0  0  0  0  0  0  0  0  0
   10.6756  -16.4304   24.4231 N   0  0  0  0  0  0  0  0  0  0  0  0
   11.3513  -17.6557   24.2736 C   0  0  0  0  0  0  0  0  0  0  0  0
   12.4742  -17.8553   24.8578 N   0  0  0  0  0  0  0  0  0  0  0  0
   10.7947  -18.6748   23.4762 N   0  0  0  0  0  0  0  0  0  0  0  0
    9.9480  -18.3605   22.3727 C   0  0  0  0  0  0  0  0  0  0  0  0
   10.5243  -17.1865   21.5777 C   0  0  0  0  0  0  0  0  0  0  0  0
    9.5679  -16.9347   20.4573 C   0  0  0  0  0  0  0  0  0  0  0  0
   10.0063  -15.7270   19.6031 C   0  0  2  0  0  0  0  0  0  0  0  0
    9.0606  -15.6864   18.5120 N   0  0  0  0  0  0  0  0  0  0  0  0
   11.3882  -15.9594   19.0970 C   0  0  0  0  0  0  0  0  0  0  0  0
   11.5828  -16.9439   18.3432 O   0  0  0  0  0  0  0  0  0  0  0  0
   12.9971  -18.7459   24.7858 N   0  0  0  0  0  0  0  0  0  0  0  0
   18.0938  -10.8802   15.7808 C   0  0  0  0  0  0  0  0  0  0  0  0
   18.5157  -11.8730   16.7339 N   0  0  0  0  0  0  0  0  0  0  0  0
   19.6500  -11.7614   17.3249 N   0  0  0  0  0  0  0  0  0  0  0  0
   17.7128  -12.9907   17.0492 C   0  0  0  0  0  0  0  0  0  0  0  0
   16.4289  -12.8313   17.6902 C   0  0  0  0  0  0  0  0  0  0  0  0
   15.8256  -14.1802   18.0158 C   0  0  0  0  0  0  0  0  0  0  0  0
   14.4465  -14.0517   18.5994 C   0  0  2  0  0  0  0  0  0  0  0  0
   13.8427  -15.3518   19.0116 N   0  0  0  0  0  0  0  0  0  0  0  0
   12.4771  -15.1135   19.4367 C   0  0  0  0  0  0  0  0  0  0  0  0
   14.6264  -16.0619   20.0494 O   0  0  0  0  0  0  0  0  0  0  0  0
   14.2252  -15.8976   21.3786 O   0  0  0  0  0  0  0  0  0  0  0  0
  2  3  1  0
  2  9  1  0
  2  1  1  1
  4  3  1  0
  4  5  2  0
  6  5  1  0
  7  6  1  0
  8  7  2  0
  8  4  1  0
  9 10  2  0
 11 12  1  0
 12 13  2  0
 12 14  1  0
 14 15  1  0
 15 16  1  0
 17 16  1  0
 18 17  1  1
 19 18  1  0
 19  9  1  0
 20 21  2  0
 20 18  1  0
 22 23  1  0
 23 25  1  0
 24 23  2  0
 25 26  1  0
 27 26  1  0
 27 28  1  0
 29 28  1  6
 29 30  1  0
 30 20  1  0
 31 32  1  0
 31 29  1  0
 33 31  2  0
M  END
$$$$
