HRR.pdb
     RDKit          3D

 33 33  0  0  1  0  0  0  0  0999 V2000
   14.0155  -16.1737   14.2837 N   0  0  0  0  0  0  0  0  0  0  0  0
   14.7821  -16.3692   15.4885 C   0  0  1  0  0  0  0  0  0  0  0  0
   16.2804  -16.2471   15.2096 C   0  0  0  0  0  0  0  0  0  0  0  0
   16.7469  -17.5169   14.6171 C   0  0  0  0  0  0  0  0  0  0  0  0
   17.4592  -17.7171   13.4606 C   0  0  0  0  0  0  0  0  0  0  0  0
   17.6784  -19.0509   13.2896 N   0  0  0  0  0  0  0  0  0  0  0  0
   17.1073  -19.6690   14.3301 C   0  0  0  0  0  0  0  0  0  0  0  0
   16.5445  -18.7417   15.1320 N   0  0  0  0  0  0  0  0  0  0  0  0
   14.4024  -15.3323   16.4770 C   0  0  0  0  0  0  0  0  0  0  0  0
   14.2710  -14.1322   16.1231 O   0  0  0  0  0  0  0  0  0  0  0  0
    6.9742  -14.0239   17.4486 N   0  0  0  0  0  0  0  0  0  0  0  0
    7.4446  -13.0599   18.3595 C   0  0  0  0  0  0  0  0  0  0  0  0
    6.6603  -12.1516   18.8089 N   0  0  0  0  0  0  0  0  0  0  0  0
    8.7874  -13.0874   18.7841 N   0  0  0  0  0  0  0  0  0  0  0  0
    9.7665  -13.8365   18.0672 C   0  0  0  0  0  0  0  0  0  0  0  0
   11.1108  -13.7907   18.7974 C   0  0  0  0  0  0  0  0  0  0  0  0
   12.0496  -14.6288   17.9915 C   0  0  0  0  0  0  0  0  0  0  0  0
   13.4321  -14.7354   18.6681 C   0  0  2  0  0  0  0  0  0  0  0  0
   14.1755  -15.6571   17.8409 N   0  0  0  0  0  0  0  0  0  0  0  0
   13.2640  -15.2779   20.0454 C   0  0  0  0  0  0  0  0  0  0  0  0
   12.9262  -16.4804   20.1689 O   0  0  0  0  0  0  0  0  0  0  0  0
    6.9671  -11.4199   19.4739 N   0  0  0  0  0  0  0  0  0  0  0  0
   14.7062  -19.9195   24.5836 C   0  0  0  0  0  0  0  0  0  0  0  0
   13.2810  -20.0257   24.4111 N   0  0  0  0  0  0  0  0  0  0  0  0
   12.6787  -21.1296   24.6700 N   0  0  0  0  0  0  0  0  0  0  0  0
   12.5032  -18.9389   23.9561 C   0  0  0  0  0  0  0  0  0  0  0  0
   12.4101  -17.7160   24.7181 C   0  0  0  0  0  0  0  0  0  0  0  0
   13.4322  -16.7097   24.2363 C   0  0  0  0  0  0  0  0  0  0  0  0
   13.0038  -16.0426   22.9595 C   0  0  1  0  0  0  0  0  0  0  0  0
   13.9668  -15.0180   22.4620 N   0  0  0  0  0  0  0  0  0  0  0  0
   13.4708  -14.4876   21.2070 C   0  0  0  0  0  0  0  0  0  0  0  0
   15.3531  -15.5256   22.3356 O   0  0  0  0  0  0  0  0  0  0  0  0
   16.3083  -15.0037   23.2131 O   0  0  0  0  0  0  0  0  0  0  0  0
  2  3  1  0
  2  9  1  0
  2  1  1  6
  4  3  1  0
  4  5  2  0
  6  5  1  0
  7  6  1  0
  8  7  2  0
  8  4  1  0
  9 10  2  0
 11 12  1  0
 12 13  2  0
 12 14  1  0
 14 15  1  0
 15 16  1  0
 17 16  1  0
 18 17  1  6
 19 18  1  0
 19  9  1  0
 20 21  2  0
 20 18  1  0
 22 23  1  0
 23 25  1  0
 24 23  2  0
 25 26  1  0
 27 26  1  0
 27 28  1  0
 29 28  1  1
 29 30  1  0
 30 20  1  0
 31 32  1  0
 31 29  1  0
 33 31  2  0
M  END
$$$$
