HRR.pdb
     RDKit          3D

 33 33  0  0  1  0  0  0  0  0999 V2000
    8.3310  -17.2570   18.9716 N   0  0  0  0  0  0  0  0  0  0  0  0
    9.4358  -16.3457   19.1340 C   0  0  1  0  0  0  0  0  0  0  0  0
    9.1299  -15.3004   20.2070 C   0  0  0  0  0  0  0  0  0  0  0  0
    8.1034  -14.3796   19.6783 C   0  0  0  0  0  0  0  0  0  0  0  0
    7.5464  -14.3397   18.4241 C   0  0  0  0  0  0  0  0  0  0  0  0
    6.6355  -13.3280   18.3658 N   0  0  0  0  0  0  0  0  0  0  0  0
    6.6297  -12.7485   19.5719 C   0  0  0  0  0  0  0  0  0  0  0  0
    7.5168  -13.3843   20.3648 N   0  0  0  0  0  0  0  0  0  0  0  0
   10.6355  -17.1095   19.5510 C   0  0  0  0  0  0  0  0  0  0  0  0
   10.5362  -18.0474   20.3835 O   0  0  0  0  0  0  0  0  0  0  0  0
   12.4583  -19.2103   15.4705 N   0  0  0  0  0  0  0  0  0  0  0  0
   13.6514  -19.3253   14.7334 C   0  0  0  0  0  0  0  0  0  0  0  0
   13.8294  -20.3098   13.9326 N   0  0  0  0  0  0  0  0  0  0  0  0
   14.6625  -18.3545   14.8728 N   0  0  0  0  0  0  0  0  0  0  0  0
   14.9105  -17.7317   16.1314 C   0  0  0  0  0  0  0  0  0  0  0  0
   13.7883  -18.0618   17.1184 C   0  0  0  0  0  0  0  0  0  0  0  0
   14.1342  -17.3581   18.3906 C   0  0  0  0  0  0  0  0  0  0  0  0
   13.0572  -17.5867   19.4715 C   0  0  2  0  0  0  0  0  0  0  0  0
   11.9220  -16.8112   19.0283 N   0  0  0  0  0  0  0  0  0  0  0  0
   13.5616  -17.0854   20.7807 C   0  0  0  0  0  0  0  0  0  0  0  0
   13.6214  -15.8437   20.9538 O   0  0  0  0  0  0  0  0  0  0  0  0
   14.7154  -20.4673   13.4206 N   0  0  0  0  0  0  0  0  0  0  0  0
   13.3967  -22.2241   26.5678 C   0  0  0  0  0  0  0  0  0  0  0  0
   12.5429  -21.0843   26.7770 N   0  0  0  0  0  0  0  0  0  0  0  0
   11.2764  -21.2419   26.9172 N   0  0  0  0  0  0  0  0  0  0  0  0
   13.0560  -19.7702   26.8332 C   0  0  0  0  0  0  0  0  0  0  0  0
   14.4164  -19.4821   26.4445 C   0  0  0  0  0  0  0  0  0  0  0  0
   14.4654  -18.2737   25.5352 C   0  0  0  0  0  0  0  0  0  0  0  0
   14.1667  -18.6339   24.1070 C   0  0  2  0  0  0  0  0  0  0  0  0
   14.3433  -17.5033   23.1504 N   0  0  0  0  0  0  0  0  0  0  0  0
   13.9716  -17.9568   21.8243 C   0  0  0  0  0  0  0  0  0  0  0  0
   15.7061  -16.9219   23.1715 O   0  0  0  0  0  0  0  0  0  0  0  0
   16.0724  -16.1904   24.3053 O   0  0  0  0  0  0  0  0  0  0  0  0
  2  3  1  0
  2  9  1  0
  2  1  1  1
  4  3  1  0
  4  5  2  0
  6  5  1  0
  7  6  1  0
  8  7  2  0
  8  4  1  0
  9 10  2  0
 11 12  1  0
 12 13  2  0
 12 14  1  0
 14 15  1  0
 15 16  1  0
 17 16  1  0
 18 17  1  6
 19 18  1  0
 19  9  1  0
 20 21  2  0
 20 18  1  0
 22 23  1  0
 23 25  1  0
 24 23  2  0
 25 26  1  0
 27 26  1  0
 27 28  1  0
 29 28  1  1
 29 30  1  0
 30 20  1  0
 31 32  1  0
 31 29  1  0
 33 31  2  0
M  END
$$$$
