EWW.pdb
     RDKit          3D

 38 41  0  0  1  0  0  0  0  0999 V2000
   28.0876  -22.6237  -16.8039 N   0  0  0  0  0  0  0  0  0  0  0  0
   28.9267  -21.4896  -16.6081 C   0  0  1  0  0  0  0  0  0  0  0  0
   29.0975  -20.6148  -17.7980 C   0  0  0  0  0  0  0  0  0  0  0  0
   29.7192  -21.2011  -19.0034 C   0  0  0  0  0  0  0  0  0  0  0  0
   28.8010  -21.8972  -19.9007 C   0  0  0  0  0  0  0  0  0  0  0  0
   27.5597  -21.8733  -19.9050 O   0  0  0  0  0  0  0  0  0  0  0  0
   28.4314  -20.7210  -15.4182 C   0  0  0  0  0  0  0  0  0  0  0  0
   29.0797  -19.7315  -14.9651 O   0  0  0  0  0  0  0  0  0  0  0  0
   29.3610  -22.7220  -20.9170 O   0  0  0  0  0  0  0  0  0  0  0  0
   27.2346  -21.0341  -14.7319 N   0  0  0  0  0  0  0  0  0  0  0  0
   26.7403  -20.2541  -13.5776 C   0  0  1  0  0  0  0  0  0  0  0  0
   25.4840  -19.5663  -13.9487 C   0  0  0  0  0  0  0  0  0  0  0  0
   25.5679  -18.6220  -15.0559 C   0  0  0  0  0  0  0  0  0  0  0  0
   24.9854  -18.7413  -16.3248 C   0  0  0  0  0  0  0  0  0  0  0  0
   25.2864  -17.6830  -17.0726 N   0  0  0  0  0  0  0  0  0  0  0  0
   26.0599  -16.8254  -16.3713 C   0  0  0  0  0  0  0  0  0  0  0  0
   26.5934  -15.5967  -16.7318 C   0  0  0  0  0  0  0  0  0  0  0  0
   27.3468  -14.9041  -15.7905 C   0  0  0  0  0  0  0  0  0  0  0  0
   27.5362  -15.4593  -14.5413 C   0  0  0  0  0  0  0  0  0  0  0  0
   26.9930  -16.6807  -14.2175 C   0  0  0  0  0  0  0  0  0  0  0  0
   26.2399  -17.3934  -15.1288 C   0  0  0  0  0  0  0  0  0  0  0  0
   26.6207  -21.1115  -12.3943 C   0  0  0  0  0  0  0  0  0  0  0  0
   26.3604  -22.3666  -12.5474 O   0  0  0  0  0  0  0  0  0  0  0  0
   26.7719  -20.7158  -11.0484 N   0  0  0  0  0  0  0  0  0  0  0  0
   26.4734  -21.6719   -9.9487 C   0  0  1  0  0  0  0  0  0  0  0  0
   27.6277  -21.5807   -8.9890 C   0  0  0  0  0  0  0  0  0  0  0  0
   27.6064  -20.4848   -8.0221 C   0  0  0  0  0  0  0  0  0  0  0  0
   26.7494  -19.3740   -8.0159 C   0  0  0  0  0  0  0  0  0  0  0  0
   27.0518  -18.5783   -6.9952 N   0  0  0  0  0  0  0  0  0  0  0  0
   28.0790  -19.0825   -6.2892 C   0  0  0  0  0  0  0  0  0  0  0  0
   28.7213  -18.6307   -5.1581 C   0  0  0  0  0  0  0  0  0  0  0  0
   29.7649  -19.3579   -4.5948 C   0  0  0  0  0  0  0  0  0  0  0  0
   30.1128  -20.5313   -5.2162 C   0  0  0  0  0  0  0  0  0  0  0  0
   29.4640  -20.9714   -6.3447 C   0  0  0  0  0  0  0  0  0  0  0  0
   28.4264  -20.2636   -6.9204 C   0  0  0  0  0  0  0  0  0  0  0  0
   25.2295  -21.2686   -9.3222 C   0  0  0  0  0  0  0  0  0  0  0  0
   24.6050  -20.2410   -9.6674 O   0  0  0  0  0  0  0  0  0  0  0  0
   24.6901  -22.0432   -8.2998 O   0  0  0  0  0  0  0  0  0  0  0  0
  2  1  1  6
  2  3  1  0
  3  4  1  0
  4  5  1  0
  5  9  1  0
  6  5  2  0
  7  8  2  0
  7  2  1  0
 10  7  1  0
 11 10  1  0
 11 22  1  0
 11 12  1  6
 13 12  1  0
 14 13  2  0
 15 16  1  0
 15 14  1  0
 16 21  2  0
 17 18  2  0
 17 16  1  0
 18 19  1  0
 19 20  2  0
 21 20  1  0
 21 13  1  0
 22 24  1  0
 23 22  2  0
 24 25  1  0
 25 26  1  1
 27 26  1  0
 27 28  2  0
 29 28  1  0
 30 35  2  0
 30 29  1  0
 31 30  1  0
 32 33  1  0
 32 31  2  0
 33 34  2  0
 34 35  1  0
 35 27  1  0
 36 25  1  0
 36 38  1  0
 37 36  2  0
M  END
$$$$
