EWW.pdb
     RDKit          3D

 38 41  0  0  1  0  0  0  0  0999 V2000
   27.7368  -22.6066  -15.7783 N   0  0  0  0  0  0  0  0  0  0  0  0
   27.7383  -21.3774  -15.0587 C   0  0  1  0  0  0  0  0  0  0  0  0
   27.1180  -20.2274  -15.7678 C   0  0  0  0  0  0  0  0  0  0  0  0
   27.7375  -19.7792  -17.0322 C   0  0  0  0  0  0  0  0  0  0  0  0
   29.1513  -19.4248  -16.9405 C   0  0  0  0  0  0  0  0  0  0  0  0
   29.6561  -18.3584  -16.5540 O   0  0  0  0  0  0  0  0  0  0  0  0
   27.1146  -21.6040  -13.7127 C   0  0  0  0  0  0  0  0  0  0  0  0
   26.0154  -22.2234  -13.5993 O   0  0  0  0  0  0  0  0  0  0  0  0
   30.1091  -20.4006  -17.3371 O   0  0  0  0  0  0  0  0  0  0  0  0
   27.6922  -21.1562  -12.5014 N   0  0  0  0  0  0  0  0  0  0  0  0
   27.0078  -21.2617  -11.1954 C   0  0  1  0  0  0  0  0  0  0  0  0
   27.9642  -20.9491  -10.1107 C   0  0  0  0  0  0  0  0  0  0  0  0
   27.3914  -20.7297   -8.7884 C   0  0  0  0  0  0  0  0  0  0  0  0
   26.0399  -20.7904   -8.4234 C   0  0  0  0  0  0  0  0  0  0  0  0
   25.8993  -20.5268   -7.1270 N   0  0  0  0  0  0  0  0  0  0  0  0
   27.1061  -20.2834   -6.5704 C   0  0  0  0  0  0  0  0  0  0  0  0
   27.4468  -19.9853   -5.2592 C   0  0  0  0  0  0  0  0  0  0  0  0
   28.7906  -19.8012   -4.9535 C   0  0  0  0  0  0  0  0  0  0  0  0
   29.7304  -19.9200   -5.9572 C   0  0  0  0  0  0  0  0  0  0  0  0
   29.3572  -20.2161   -7.2476 C   0  0  0  0  0  0  0  0  0  0  0  0
   28.0318  -20.4051   -7.5839 C   0  0  0  0  0  0  0  0  0  0  0  0
   25.8012  -20.4290  -11.1815 C   0  0  0  0  0  0  0  0  0  0  0  0
   25.8894  -19.1835  -11.5093 O   0  0  0  0  0  0  0  0  0  0  0  0
   24.4947  -20.8444  -10.8478 N   0  0  0  0  0  0  0  0  0  0  0  0
   23.3160  -20.1217  -11.3966 C   0  0  1  0  0  0  0  0  0  0  0  0
   23.4261  -20.2157  -12.8934 C   0  0  0  0  0  0  0  0  0  0  0  0
   22.3432  -19.6287  -13.6803 C   0  0  0  0  0  0  0  0  0  0  0  0
   22.1997  -18.2852  -14.0583 C   0  0  0  0  0  0  0  0  0  0  0  0
   21.0723  -18.1291  -14.7445 N   0  0  0  0  0  0  0  0  0  0  0  0
   20.4233  -19.3007  -14.8631 C   0  0  0  0  0  0  0  0  0  0  0  0
   19.2444  -19.6344  -15.4915 C   0  0  0  0  0  0  0  0  0  0  0  0
   18.7853  -20.9476  -15.4905 C   0  0  0  0  0  0  0  0  0  0  0  0
   19.5588  -21.8772  -14.8413 C   0  0  0  0  0  0  0  0  0  0  0  0
   20.7334  -21.5315  -14.2178 C   0  0  0  0  0  0  0  0  0  0  0  0
   21.2062  -20.2333  -14.2061 C   0  0  0  0  0  0  0  0  0  0  0  0
   22.1164  -20.7756  -10.9108 C   0  0  0  0  0  0  0  0  0  0  0  0
   22.0332  -22.0171  -10.7805 O   0  0  0  0  0  0  0  0  0  0  0  0
   21.0063  -20.0108  -10.5657 O   0  0  0  0  0  0  0  0  0  0  0  0
  2  1  1  6
  2  3  1  0
  3  4  1  0
  4  5  1  0
  5  9  1  0
  6  5  2  0
  7  8  2  0
  7  2  1  0
 10  7  1  0
 11 10  1  0
 11 22  1  0
 11 12  1  1
 13 12  1  0
 14 13  2  0
 15 16  1  0
 15 14  1  0
 16 21  2  0
 17 18  2  0
 17 16  1  0
 18 19  1  0
 19 20  2  0
 21 20  1  0
 21 13  1  0
 22 24  1  0
 23 22  2  0
 24 25  1  0
 25 26  1  6
 27 26  1  0
 27 28  2  0
 29 28  1  0
 30 35  2  0
 30 29  1  0
 31 30  1  0
 32 33  1  0
 32 31  2  0
 33 34  2  0
 34 35  1  0
 35 27  1  0
 36 25  1  0
 36 38  1  0
 37 36  2  0
M  END
$$$$
