EWW.pdb
     RDKit          3D

 38 41  0  0  1  0  0  0  0  0999 V2000
   31.0664  -23.8407  -17.1890 N   0  0  0  0  0  0  0  0  0  0  0  0
   29.6957  -23.5204  -17.4062 C   0  0  1  0  0  0  0  0  0  0  0  0
   28.7829  -24.6880  -17.5226 C   0  0  0  0  0  0  0  0  0  0  0  0
   28.9031  -25.5425  -18.7220 C   0  0  0  0  0  0  0  0  0  0  0  0
   28.4648  -24.9259  -19.9712 C   0  0  0  0  0  0  0  0  0  0  0  0
   27.9624  -23.8036  -20.1433 O   0  0  0  0  0  0  0  0  0  0  0  0
   29.2466  -22.5665  -16.3383 C   0  0  0  0  0  0  0  0  0  0  0  0
   29.5555  -22.7545  -15.1242 O   0  0  0  0  0  0  0  0  0  0  0  0
   28.6146  -25.6759  -21.1720 O   0  0  0  0  0  0  0  0  0  0  0  0
   28.4665  -21.4157  -16.5999 N   0  0  0  0  0  0  0  0  0  0  0  0
   28.0016  -20.4992  -15.5373 C   0  0  1  0  0  0  0  0  0  0  0  0
   27.6018  -19.2083  -16.1394 C   0  0  0  0  0  0  0  0  0  0  0  0
   26.8895  -18.2824  -15.2676 C   0  0  0  0  0  0  0  0  0  0  0  0
   27.4341  -17.4482  -14.2822 C   0  0  0  0  0  0  0  0  0  0  0  0
   26.4724  -16.7483  -13.6863 N   0  0  0  0  0  0  0  0  0  0  0  0
   25.2719  -17.0630  -14.2204 C   0  0  0  0  0  0  0  0  0  0  0  0
   24.0051  -16.5776  -13.9311 C   0  0  0  0  0  0  0  0  0  0  0  0
   22.9289  -17.0683  -14.6621 C   0  0  0  0  0  0  0  0  0  0  0  0
   23.1572  -18.0136  -15.6413 C   0  0  0  0  0  0  0  0  0  0  0  0
   24.4270  -18.4736  -15.9017 C   0  0  0  0  0  0  0  0  0  0  0  0
   25.5166  -18.0067  -15.1943 C   0  0  0  0  0  0  0  0  0  0  0  0
   26.9480  -21.1339  -14.7393 C   0  0  0  0  0  0  0  0  0  0  0  0
   26.1587  -21.9878  -15.2999 O   0  0  0  0  0  0  0  0  0  0  0  0
   26.6862  -20.9226  -13.3690 N   0  0  0  0  0  0  0  0  0  0  0  0
   25.7168  -21.7915  -12.6491 C   0  0  1  0  0  0  0  0  0  0  0  0
   26.3951  -22.2091  -11.3736 C   0  0  0  0  0  0  0  0  0  0  0  0
   26.4329  -21.2321  -10.2871 C   0  0  0  0  0  0  0  0  0  0  0  0
   25.3527  -20.5137   -9.7529 C   0  0  0  0  0  0  0  0  0  0  0  0
   25.7839  -19.6991   -8.7954 N   0  0  0  0  0  0  0  0  0  0  0  0
   27.1139  -19.8161   -8.6367 C   0  0  0  0  0  0  0  0  0  0  0  0
   27.9900  -19.2004   -7.7710 C   0  0  0  0  0  0  0  0  0  0  0  0
   29.3453  -19.5138   -7.7889 C   0  0  0  0  0  0  0  0  0  0  0  0
   29.7547  -20.4554   -8.7000 C   0  0  0  0  0  0  0  0  0  0  0  0
   28.8705  -21.0626   -9.5586 C   0  0  0  0  0  0  0  0  0  0  0  0
   27.5213  -20.7647   -9.5578 C   0  0  0  0  0  0  0  0  0  0  0  0
   24.5212  -21.0148  -12.3845 C   0  0  0  0  0  0  0  0  0  0  0  0
   23.4266  -21.5446  -12.0907 O   0  0  0  0  0  0  0  0  0  0  0  0
   24.5736  -19.6258  -12.4492 O   0  0  0  0  0  0  0  0  0  0  0  0
  2  1  1  1
  2  3  1  0
  3  4  1  0
  4  5  1  0
  5  9  1  0
  6  5  2  0
  7  8  2  0
  7  2  1  0
 10  7  1  0
 11 10  1  0
 11 22  1  0
 11 12  1  6
 13 12  1  0
 14 13  2  0
 15 16  1  0
 15 14  1  0
 16 21  2  0
 17 18  2  0
 17 16  1  0
 18 19  1  0
 19 20  2  0
 21 20  1  0
 21 13  1  0
 22 24  1  0
 23 22  2  0
 24 25  1  0
 25 26  1  1
 27 26  1  0
 27 28  2  0
 29 28  1  0
 30 35  2  0
 30 29  1  0
 31 30  1  0
 32 33  1  0
 32 31  2  0
 33 34  2  0
 34 35  1  0
 35 27  1  0
 36 25  1  0
 36 38  1  0
 37 36  2  0
M  END
$$$$
