EWW.pdb
     RDKit          3D

 38 41  0  0  1  0  0  0  0  0999 V2000
   28.3620  -20.6385  -15.3258 N   0  0  0  0  0  0  0  0  0  0  0  0
   28.1750  -19.2927  -14.8988 C   0  0  1  0  0  0  0  0  0  0  0  0
   27.9530  -18.3070  -15.9894 C   0  0  0  0  0  0  0  0  0  0  0  0
   28.9496  -18.2450  -17.0785 C   0  0  0  0  0  0  0  0  0  0  0  0
   28.8165  -19.2775  -18.1027 C   0  0  0  0  0  0  0  0  0  0  0  0
   27.8158  -19.5726  -18.7756 O   0  0  0  0  0  0  0  0  0  0  0  0
   27.0716  -19.2566  -13.8823 C   0  0  0  0  0  0  0  0  0  0  0  0
   26.6429  -18.1562  -13.4241 O   0  0  0  0  0  0  0  0  0  0  0  0
   29.9597  -20.0729  -18.3983 O   0  0  0  0  0  0  0  0  0  0  0  0
   26.4431  -20.4174  -13.3735 N   0  0  0  0  0  0  0  0  0  0  0  0
   25.2758  -20.3700  -12.4678 C   0  0  1  0  0  0  0  0  0  0  0  0
   24.1399  -21.0860  -13.0891 C   0  0  0  0  0  0  0  0  0  0  0  0
   23.4420  -20.3841  -14.1590 C   0  0  0  0  0  0  0  0  0  0  0  0
   23.8557  -20.2277  -15.4886 C   0  0  0  0  0  0  0  0  0  0  0  0
   22.9590  -19.5210  -16.1714 N   0  0  0  0  0  0  0  0  0  0  0  0
   21.9302  -19.1766  -15.3661 C   0  0  0  0  0  0  0  0  0  0  0  0
   20.7732  -18.4633  -15.6424 C   0  0  0  0  0  0  0  0  0  0  0  0
   19.8570  -18.2703  -14.6144 C   0  0  0  0  0  0  0  0  0  0  0  0
   20.1294  -18.7906  -13.3654 C   0  0  0  0  0  0  0  0  0  0  0  0
   21.2876  -19.4928  -13.1261 C   0  0  0  0  0  0  0  0  0  0  0  0
   22.2172  -19.7022  -14.1250 C   0  0  0  0  0  0  0  0  0  0  0  0
   25.6388  -20.8720  -11.1389 C   0  0  0  0  0  0  0  0  0  0  0  0
   26.0517  -22.0887  -11.0144 O   0  0  0  0  0  0  0  0  0  0  0  0
   25.5993  -20.1515   -9.9264 N   0  0  0  0  0  0  0  0  0  0  0  0
   25.7595  -20.8603   -8.6285 C   0  0  1  0  0  0  0  0  0  0  0  0
   26.4836  -19.9080   -7.7173 C   0  0  0  0  0  0  0  0  0  0  0  0
   27.8276  -20.2884   -7.2867 C   0  0  0  0  0  0  0  0  0  0  0  0
   28.6822  -21.2205   -7.8941 C   0  0  0  0  0  0  0  0  0  0  0  0
   29.8100  -21.3174   -7.1977 N   0  0  0  0  0  0  0  0  0  0  0  0
   29.7820  -20.4961   -6.1334 C   0  0  0  0  0  0  0  0  0  0  0  0
   30.7106  -20.2417   -5.1491 C   0  0  0  0  0  0  0  0  0  0  0  0
   30.4482  -19.3130   -4.1471 C   0  0  0  0  0  0  0  0  0  0  0  0
   29.2344  -18.6738   -4.1929 C   0  0  0  0  0  0  0  0  0  0  0  0
   28.3160  -18.9367   -5.1805 C   0  0  0  0  0  0  0  0  0  0  0  0
   28.5566  -19.8558   -6.1837 C   0  0  0  0  0  0  0  0  0  0  0  0
   24.4396  -21.1805   -8.1205 C   0  0  0  0  0  0  0  0  0  0  0  0
   23.3927  -20.7353   -8.6409 O   0  0  0  0  0  0  0  0  0  0  0  0
   24.3106  -22.0173   -7.0163 O   0  0  0  0  0  0  0  0  0  0  0  0
  2  1  1  6
  2  3  1  0
  3  4  1  0
  4  5  1  0
  5  9  1  0
  6  5  2  0
  7  8  2  0
  7  2  1  0
 10  7  1  0
 11 10  1  0
 11 22  1  0
 11 12  1  6
 13 12  1  0
 14 13  2  0
 15 16  1  0
 15 14  1  0
 16 21  2  0
 17 18  2  0
 17 16  1  0
 18 19  1  0
 19 20  2  0
 21 20  1  0
 21 13  1  0
 22 24  1  0
 23 22  2  0
 24 25  1  0
 25 26  1  1
 27 26  1  0
 27 28  2  0
 29 28  1  0
 30 35  2  0
 30 29  1  0
 31 30  1  0
 32 33  1  0
 32 31  2  0
 33 34  2  0
 34 35  1  0
 35 27  1  0
 36 25  1  0
 36 38  1  0
 37 36  2  0
M  END
$$$$
