EWW.pdb
     RDKit          3D

 38 41  0  0  1  0  0  0  0  0999 V2000
   27.6675  -24.5221  -16.1950 N   0  0  0  0  0  0  0  0  0  0  0  0
   27.0562  -23.2724  -16.5001 C   0  0  1  0  0  0  0  0  0  0  0  0
   26.1839  -23.2709  -17.7040 C   0  0  0  0  0  0  0  0  0  0  0  0
   26.8288  -23.1186  -19.0247 C   0  0  0  0  0  0  0  0  0  0  0  0
   27.3628  -21.7888  -19.3062 C   0  0  0  0  0  0  0  0  0  0  0  0
   27.3364  -20.7781  -18.5857 O   0  0  0  0  0  0  0  0  0  0  0  0
   26.3279  -22.7803  -15.2838 C   0  0  0  0  0  0  0  0  0  0  0  0
   25.6448  -23.5715  -14.5682 O   0  0  0  0  0  0  0  0  0  0  0  0
   28.0046  -21.5812  -20.5599 O   0  0  0  0  0  0  0  0  0  0  0  0
   26.3495  -21.4322  -14.8554 N   0  0  0  0  0  0  0  0  0  0  0  0
   25.6188  -20.9543  -13.6625 C   0  0  1  0  0  0  0  0  0  0  0  0
   26.3776  -19.8547  -13.0269 C   0  0  0  0  0  0  0  0  0  0  0  0
   27.4662  -20.2492  -12.1414 C   0  0  0  0  0  0  0  0  0  0  0  0
   28.7728  -20.6046  -12.5017 C   0  0  0  0  0  0  0  0  0  0  0  0
   29.4836  -20.9099  -11.4194 N   0  0  0  0  0  0  0  0  0  0  0  0
   28.7200  -20.7804  -10.3123 C   0  0  0  0  0  0  0  0  0  0  0  0
   29.0365  -20.9725   -8.9755 C   0  0  0  0  0  0  0  0  0  0  0  0
   28.0479  -20.7428   -8.0250 C   0  0  0  0  0  0  0  0  0  0  0  0
   26.7969  -20.3357   -8.4419 C   0  0  0  0  0  0  0  0  0  0  0  0
   26.5171  -20.1555   -9.7765 C   0  0  0  0  0  0  0  0  0  0  0  0
   27.4762  -20.3747  -10.7449 C   0  0  0  0  0  0  0  0  0  0  0  0
   24.2409  -20.5986  -14.0152 C   0  0  0  0  0  0  0  0  0  0  0  0
   24.0222  -19.8895  -15.0715 O   0  0  0  0  0  0  0  0  0  0  0  0
   23.0713  -20.9617  -13.3143 N   0  0  0  0  0  0  0  0  0  0  0  0
   21.7363  -20.5375  -13.8147 C   0  0  1  0  0  0  0  0  0  0  0  0
   20.7253  -21.1628  -12.8935 C   0  0  0  0  0  0  0  0  0  0  0  0
   20.5003  -20.5075  -11.6065 C   0  0  0  0  0  0  0  0  0  0  0  0
   19.3408  -19.8400  -11.1844 C   0  0  0  0  0  0  0  0  0  0  0  0
   19.5237  -19.3493   -9.9629 N   0  0  0  0  0  0  0  0  0  0  0  0
   20.7563  -19.6439   -9.5133 C   0  0  0  0  0  0  0  0  0  0  0  0
   21.3854  -19.3679   -8.3200 C   0  0  0  0  0  0  0  0  0  0  0  0
   22.6833  -19.8084   -8.0821 C   0  0  0  0  0  0  0  0  0  0  0  0
   23.2922  -20.5221   -9.0841 C   0  0  0  0  0  0  0  0  0  0  0  0
   22.6536  -20.7908  -10.2707 C   0  0  0  0  0  0  0  0  0  0  0  0
   21.3656  -20.3615  -10.5271 C   0  0  0  0  0  0  0  0  0  0  0  0
   21.6731  -19.0897  -13.7674 C   0  0  0  0  0  0  0  0  0  0  0  0
   22.5019  -18.4009  -13.1319 O   0  0  0  0  0  0  0  0  0  0  0  0
   20.6632  -18.4213  -14.4527 O   0  0  0  0  0  0  0  0  0  0  0  0
  2  1  1  1
  2  3  1  0
  3  4  1  0
  4  5  1  0
  5  9  1  0
  6  5  2  0
  7  8  2  0
  7  2  1  0
 10  7  1  0
 11 10  1  0
 11 22  1  0
 11 12  1  6
 13 12  1  0
 14 13  2  0
 15 16  1  0
 15 14  1  0
 16 21  2  0
 17 18  2  0
 17 16  1  0
 18 19  1  0
 19 20  2  0
 21 20  1  0
 21 13  1  0
 22 24  1  0
 23 22  2  0
 24 25  1  0
 25 26  1  1
 27 26  1  0
 27 28  2  0
 29 28  1  0
 30 35  2  0
 30 29  1  0
 31 30  1  0
 32 33  1  0
 32 31  2  0
 33 34  2  0
 34 35  1  0
 35 27  1  0
 36 25  1  0
 36 38  1  0
 37 36  2  0
M  END
$$$$
