EWW.pdb
     RDKit          3D

 38 41  0  0  1  0  0  0  0  0999 V2000
   24.8130   -4.6319  -20.1633 N   0  0  0  0  0  0  0  0  0  0  0  0
   25.0144   -5.9177  -19.5849 C   0  0  1  0  0  0  0  0  0  0  0  0
   25.9734   -5.9586  -18.4496 C   0  0  0  0  0  0  0  0  0  0  0  0
   27.3926   -5.6600  -18.7325 C   0  0  0  0  0  0  0  0  0  0  0  0
   28.2043   -6.8098  -19.1220 C   0  0  0  0  0  0  0  0  0  0  0  0
   27.8865   -8.0100  -19.1351 O   0  0  0  0  0  0  0  0  0  0  0  0
   23.6806   -6.4932  -19.2084 C   0  0  0  0  0  0  0  0  0  0  0  0
   22.7219   -5.7428  -18.8586 O   0  0  0  0  0  0  0  0  0  0  0  0
   29.5409   -6.5672  -19.5479 O   0  0  0  0  0  0  0  0  0  0  0  0
   23.4003   -7.8799  -19.2168 N   0  0  0  0  0  0  0  0  0  0  0  0
   22.0859   -8.4382  -18.8350 C   0  0  1  0  0  0  0  0  0  0  0  0
   21.7352   -9.5453  -19.7516 C   0  0  0  0  0  0  0  0  0  0  0  0
   20.4735  -10.2262  -19.4884 C   0  0  0  0  0  0  0  0  0  0  0  0
   19.1784   -9.7274  -19.6817 C   0  0  0  0  0  0  0  0  0  0  0  0
   18.2752  -10.6364  -19.3242 N   0  0  0  0  0  0  0  0  0  0  0  0
   18.8928  -11.7558  -18.8871 C   0  0  0  0  0  0  0  0  0  0  0  0
   18.3632  -12.9557  -18.4354 C   0  0  0  0  0  0  0  0  0  0  0  0
   19.2435  -13.9651  -18.0621 C   0  0  0  0  0  0  0  0  0  0  0  0
   20.6020  -13.7393  -18.1529 C   0  0  0  0  0  0  0  0  0  0  0  0
   21.0930  -12.5366  -18.6047 C   0  0  0  0  0  0  0  0  0  0  0  0
   20.2460  -11.5144  -18.9833 C   0  0  0  0  0  0  0  0  0  0  0  0
   22.0828   -8.8164  -17.4184 C   0  0  0  0  0  0  0  0  0  0  0  0
   23.0640   -9.5109  -16.9480 O   0  0  0  0  0  0  0  0  0  0  0  0
   21.0983   -8.4907  -16.4616 N   0  0  0  0  0  0  0  0  0  0  0  0
   21.3080   -8.8257  -15.0275 C   0  0  1  0  0  0  0  0  0  0  0  0
   22.5094   -8.0373  -14.5842 C   0  0  0  0  0  0  0  0  0  0  0  0
   22.3430   -6.5923  -14.4400 C   0  0  0  0  0  0  0  0  0  0  0  0
   21.4630   -5.9204  -13.5783 C   0  0  0  0  0  0  0  0  0  0  0  0
   21.5782   -4.6078  -13.7519 N   0  0  0  0  0  0  0  0  0  0  0  0
   22.4976   -4.3330  -14.6938 C   0  0  0  0  0  0  0  0  0  0  0  0
   22.9656   -3.1390  -15.1951 C   0  0  0  0  0  0  0  0  0  0  0  0
   23.9559   -3.1174  -16.1719 C   0  0  0  0  0  0  0  0  0  0  0  0
   24.4341   -4.3305  -16.6007 C   0  0  0  0  0  0  0  0  0  0  0  0
   23.9586   -5.5153  -16.0926 C   0  0  0  0  0  0  0  0  0  0  0  0
   22.9750   -5.5585  -15.1233 C   0  0  0  0  0  0  0  0  0  0  0  0
   20.1191   -8.4391  -14.2929 C   0  0  0  0  0  0  0  0  0  0  0  0
   19.1896   -7.7841  -14.8146 O   0  0  0  0  0  0  0  0  0  0  0  0
   19.9850   -8.8053  -12.9572 O   0  0  0  0  0  0  0  0  0  0  0  0
  2  1  1  1
  2  3  1  0
  3  4  1  0
  4  5  1  0
  5  9  1  0
  6  5  2  0
  7  8  2  0
  7  2  1  0
 10  7  1  0
 11 10  1  0
 11 22  1  0
 11 12  1  6
 13 12  1  0
 14 13  2  0
 15 16  1  0
 15 14  1  0
 16 21  2  0
 17 18  2  0
 17 16  1  0
 18 19  1  0
 19 20  2  0
 21 20  1  0
 21 13  1  0
 22 24  1  0
 23 22  2  0
 24 25  1  0
 25 26  1  1
 27 26  1  0
 27 28  2  0
 29 28  1  0
 30 35  2  0
 30 29  1  0
 31 30  1  0
 32 33  1  0
 32 31  2  0
 33 34  2  0
 34 35  1  0
 35 27  1  0
 36 25  1  0
 36 38  1  0
 37 36  2  0
M  END
$$$$
