EWW.pdb
     RDKit          3D

 38 41  0  0  1  0  0  0  0  0999 V2000
   23.3791  -24.5823  -18.6493 N   0  0  0  0  0  0  0  0  0  0  0  0
   23.1318  -23.4845  -17.7764 C   0  0  1  0  0  0  0  0  0  0  0  0
   21.8373  -23.5341  -17.0469 C   0  0  0  0  0  0  0  0  0  0  0  0
   20.6964  -22.7842  -17.6117 C   0  0  0  0  0  0  0  0  0  0  0  0
   20.6485  -21.3675  -17.2605 C   0  0  0  0  0  0  0  0  0  0  0  0
   20.5842  -20.3862  -18.0185 O   0  0  0  0  0  0  0  0  0  0  0  0
   24.2945  -23.3406  -16.8387 C   0  0  0  0  0  0  0  0  0  0  0  0
   24.8612  -24.3586  -16.3416 O   0  0  0  0  0  0  0  0  0  0  0  0
   20.6780  -21.0227  -15.8796 O   0  0  0  0  0  0  0  0  0  0  0  0
   24.8319  -22.0908  -16.4504 N   0  0  0  0  0  0  0  0  0  0  0  0
   25.9645  -21.9582  -15.5098 C   0  0  1  0  0  0  0  0  0  0  0  0
   26.8675  -20.8820  -15.9737 C   0  0  0  0  0  0  0  0  0  0  0  0
   28.0035  -20.5767  -15.1129 C   0  0  0  0  0  0  0  0  0  0  0  0
   29.1356  -21.3691  -14.8813 C   0  0  0  0  0  0  0  0  0  0  0  0
   29.9583  -20.7620  -14.0302 N   0  0  0  0  0  0  0  0  0  0  0  0
   29.4418  -19.5705  -13.6572 C   0  0  0  0  0  0  0  0  0  0  0  0
   29.9498  -18.5971  -12.8095 C   0  0  0  0  0  0  0  0  0  0  0  0
   29.2067  -17.4377  -12.6177 C   0  0  0  0  0  0  0  0  0  0  0  0
   27.9994  -17.2976  -13.2717 C   0  0  0  0  0  0  0  0  0  0  0  0
   27.5250  -18.2836  -14.1052 C   0  0  0  0  0  0  0  0  0  0  0  0
   28.2385  -19.4462  -14.3172 C   0  0  0  0  0  0  0  0  0  0  0  0
   25.4735  -21.7726  -14.1408 C   0  0  0  0  0  0  0  0  0  0  0  0
   24.4194  -21.0550  -13.9397 O   0  0  0  0  0  0  0  0  0  0  0  0
   26.0325  -22.3153  -12.9645 N   0  0  0  0  0  0  0  0  0  0  0  0
   25.5453  -21.8726  -11.6305 C   0  0  1  0  0  0  0  0  0  0  0  0
   26.7642  -21.7514  -10.7581 C   0  0  0  0  0  0  0  0  0  0  0  0
   26.6243  -20.9899   -9.5183 C   0  0  0  0  0  0  0  0  0  0  0  0
   25.4722  -20.3461   -9.0424 C   0  0  0  0  0  0  0  0  0  0  0  0
   25.7413  -19.7334   -7.8941 N   0  0  0  0  0  0  0  0  0  0  0  0
   27.0268  -19.9202   -7.5469 C   0  0  0  0  0  0  0  0  0  0  0  0
   27.7494  -19.5007   -6.4525 C   0  0  0  0  0  0  0  0  0  0  0  0
   29.0885  -19.8493   -6.3086 C   0  0  0  0  0  0  0  0  0  0  0  0
   29.6406  -20.6222   -7.2995 C   0  0  0  0  0  0  0  0  0  0  0  0
   28.9088  -21.0344   -8.3869 C   0  0  0  0  0  0  0  0  0  0  0  0
   27.5785  -20.6982   -8.5491 C   0  0  0  0  0  0  0  0  0  0  0  0
   24.8793  -20.5947  -11.7920 C   0  0  0  0  0  0  0  0  0  0  0  0
   25.4379  -19.6073  -12.3195 O   0  0  0  0  0  0  0  0  0  0  0  0
   23.5671  -20.4416  -11.3553 O   0  0  0  0  0  0  0  0  0  0  0  0
  2  1  1  1
  2  3  1  0
  3  4  1  0
  4  5  1  0
  5  9  1  0
  6  5  2  0
  7  8  2  0
  7  2  1  0
 10  7  1  0
 11 10  1  0
 11 22  1  0
 11 12  1  6
 13 12  1  0
 14 13  2  0
 15 16  1  0
 15 14  1  0
 16 21  2  0
 17 18  2  0
 17 16  1  0
 18 19  1  0
 19 20  2  0
 21 20  1  0
 21 13  1  0
 22 24  1  0
 23 22  2  0
 24 25  1  0
 25 26  1  1
 27 26  1  0
 27 28  2  0
 29 28  1  0
 30 35  2  0
 30 29  1  0
 31 30  1  0
 32 33  1  0
 32 31  2  0
 33 34  2  0
 34 35  1  0
 35 27  1  0
 36 25  1  0
 36 38  1  0
 37 36  2  0
M  END
$$$$
