EWW.pdb
     RDKit          3D

 38 41  0  0  1  0  0  0  0  0999 V2000
   26.5122  -15.7202  -20.3274 N   0  0  0  0  0  0  0  0  0  0  0  0
   25.3326  -16.5176  -20.2951 C   0  0  1  0  0  0  0  0  0  0  0  0
   25.0251  -17.2455  -21.5544 C   0  0  0  0  0  0  0  0  0  0  0  0
   24.8273  -16.4485  -22.7828 C   0  0  0  0  0  0  0  0  0  0  0  0
   26.0529  -15.9828  -23.4260 C   0  0  0  0  0  0  0  0  0  0  0  0
   26.9017  -16.6473  -24.0422 O   0  0  0  0  0  0  0  0  0  0  0  0
   25.4088  -17.4467  -19.1191 C   0  0  0  0  0  0  0  0  0  0  0  0
   26.2360  -18.4058  -19.0983 O   0  0  0  0  0  0  0  0  0  0  0  0
   26.3519  -14.5924  -23.3608 O   0  0  0  0  0  0  0  0  0  0  0  0
   24.5855  -17.3241  -17.9751 N   0  0  0  0  0  0  0  0  0  0  0  0
   24.6945  -18.2203  -16.8046 C   0  0  1  0  0  0  0  0  0  0  0  0
   24.4415  -17.4491  -15.5676 C   0  0  0  0  0  0  0  0  0  0  0  0
   24.5378  -18.1883  -14.3150 C   0  0  0  0  0  0  0  0  0  0  0  0
   23.4918  -18.5521  -13.4565 C   0  0  0  0  0  0  0  0  0  0  0  0
   23.9662  -19.2161  -12.4059 N   0  0  0  0  0  0  0  0  0  0  0  0
   25.3092  -19.3307  -12.4984 C   0  0  0  0  0  0  0  0  0  0  0  0
   26.2181  -19.9511  -11.6538 C   0  0  0  0  0  0  0  0  0  0  0  0
   27.5624  -19.9370  -12.0084 C   0  0  0  0  0  0  0  0  0  0  0  0
   27.9421  -19.3109  -13.1783 C   0  0  0  0  0  0  0  0  0  0  0  0
   27.0140  -18.7047  -13.9925 C   0  0  0  0  0  0  0  0  0  0  0  0
   25.6719  -18.7013  -13.6694 C   0  0  0  0  0  0  0  0  0  0  0  0
   23.8182  -19.3843  -16.9684 C   0  0  0  0  0  0  0  0  0  0  0  0
   22.6202  -19.2148  -17.4184 O   0  0  0  0  0  0  0  0  0  0  0  0
   24.1430  -20.7291  -16.6906 N   0  0  0  0  0  0  0  0  0  0  0  0
   23.1078  -21.7902  -16.8136 C   0  0  1  0  0  0  0  0  0  0  0  0
   23.7681  -23.0716  -16.3853 C   0  0  0  0  0  0  0  0  0  0  0  0
   24.7826  -22.9814  -15.3369 C   0  0  0  0  0  0  0  0  0  0  0  0
   24.5899  -23.1209  -13.9542 C   0  0  0  0  0  0  0  0  0  0  0  0
   25.7441  -22.9455  -13.3192 N   0  0  0  0  0  0  0  0  0  0  0  0
   26.7327  -22.6907  -14.1943 C   0  0  0  0  0  0  0  0  0  0  0  0
   28.0784  -22.4621  -14.0137 C   0  0  0  0  0  0  0  0  0  0  0  0
   28.9142  -22.2394  -15.1033 C   0  0  0  0  0  0  0  0  0  0  0  0
   28.3346  -22.2608  -16.3474 C   0  0  0  0  0  0  0  0  0  0  0  0
   26.9901  -22.4900  -16.5144 C   0  0  0  0  0  0  0  0  0  0  0  0
   26.1429  -22.7121  -15.4457 C   0  0  0  0  0  0  0  0  0  0  0  0
   22.0006  -21.4470  -15.9424 C   0  0  0  0  0  0  0  0  0  0  0  0
   22.0629  -20.5134  -15.1119 O   0  0  0  0  0  0  0  0  0  0  0  0
   20.8129  -22.1676  -16.0212 O   0  0  0  0  0  0  0  0  0  0  0  0
  2  1  1  6
  2  3  1  0
  3  4  1  0
  4  5  1  0
  5  9  1  0
  6  5  2  0
  7  8  2  0
  7  2  1  0
 10  7  1  0
 11 10  1  0
 11 22  1  0
 11 12  1  1
 13 12  1  0
 14 13  2  0
 15 16  1  0
 15 14  1  0
 16 21  2  0
 17 18  2  0
 17 16  1  0
 18 19  1  0
 19 20  2  0
 21 20  1  0
 21 13  1  0
 22 24  1  0
 23 22  2  0
 24 25  1  0
 25 26  1  1
 27 26  1  0
 27 28  2  0
 29 28  1  0
 30 35  2  0
 30 29  1  0
 31 30  1  0
 32 33  1  0
 32 31  2  0
 33 34  2  0
 34 35  1  0
 35 27  1  0
 36 25  1  0
 36 38  1  0
 37 36  2  0
M  END
$$$$
