EWW.pdb
     RDKit          3D

 38 41  0  0  1  0  0  0  0  0999 V2000
   27.2819  -20.5973  -15.9517 N   0  0  0  0  0  0  0  0  0  0  0  0
   27.5908  -19.4135  -15.2226 C   0  0  1  0  0  0  0  0  0  0  0  0
   27.4227  -18.1431  -15.9762 C   0  0  0  0  0  0  0  0  0  0  0  0
   28.5133  -17.7274  -16.8824 C   0  0  0  0  0  0  0  0  0  0  0  0
   28.6161  -18.4910  -18.1229 C   0  0  0  0  0  0  0  0  0  0  0  0
   27.7239  -19.1112  -18.7236 O   0  0  0  0  0  0  0  0  0  0  0  0
   26.8025  -19.4122  -13.9457 C   0  0  0  0  0  0  0  0  0  0  0  0
   26.4984  -18.3265  -13.3682 O   0  0  0  0  0  0  0  0  0  0  0  0
   29.8880  -18.5594  -18.7588 O   0  0  0  0  0  0  0  0  0  0  0  0
   26.3504  -20.5915  -13.3082 N   0  0  0  0  0  0  0  0  0  0  0  0
   25.4494  -20.5790  -12.1364 C   0  0  1  0  0  0  0  0  0  0  0  0
   24.1243  -21.1082  -12.5274 C   0  0  0  0  0  0  0  0  0  0  0  0
   23.2484  -20.1898  -13.2444 C   0  0  0  0  0  0  0  0  0  0  0  0
   23.2325  -19.9253  -14.6204 C   0  0  0  0  0  0  0  0  0  0  0  0
   22.2968  -19.0240  -14.9067 N   0  0  0  0  0  0  0  0  0  0  0  0
   21.6558  -18.6475  -13.7784 C   0  0  0  0  0  0  0  0  0  0  0  0
   20.6096  -17.7554  -13.5949 C   0  0  0  0  0  0  0  0  0  0  0  0
   20.1196  -17.5710  -12.3068 C   0  0  0  0  0  0  0  0  0  0  0  0
   20.6873  -18.2758  -11.2648 C   0  0  0  0  0  0  0  0  0  0  0  0
   21.7245  -19.1524  -11.4826 C   0  0  0  0  0  0  0  0  0  0  0  0
   22.2337  -19.3585  -12.7491 C   0  0  0  0  0  0  0  0  0  0  0  0
   26.0642  -21.2896  -11.0109 C   0  0  0  0  0  0  0  0  0  0  0  0
   26.5399  -22.4752  -11.1965 O   0  0  0  0  0  0  0  0  0  0  0  0
   26.2145  -20.8097   -9.6926 N   0  0  0  0  0  0  0  0  0  0  0  0
   26.6634  -21.7249   -8.6091 C   0  0  1  0  0  0  0  0  0  0  0  0
   27.9879  -21.1943   -8.1342 C   0  0  0  0  0  0  0  0  0  0  0  0
   27.9607  -20.1556   -7.1062 C   0  0  0  0  0  0  0  0  0  0  0  0
   27.2954  -18.9217   -7.1628 C   0  0  0  0  0  0  0  0  0  0  0  0
   27.5275  -18.2341   -6.0494 N   0  0  0  0  0  0  0  0  0  0  0  0
   28.3229  -18.9309   -5.2189 C   0  0  0  0  0  0  0  0  0  0  0  0
   28.8134  -18.6425   -3.9650 C   0  0  0  0  0  0  0  0  0  0  0  0
   29.6163  -19.5552   -3.2886 C   0  0  0  0  0  0  0  0  0  0  0  0
   29.8874  -20.7394   -3.9275 C   0  0  0  0  0  0  0  0  0  0  0  0
   29.3920  -21.0152   -5.1791 C   0  0  0  0  0  0  0  0  0  0  0  0
   28.5940  -20.1222   -5.8681 C   0  0  0  0  0  0  0  0  0  0  0  0
   25.6711  -21.6975   -7.5522 C   0  0  0  0  0  0  0  0  0  0  0  0
   24.6281  -21.0107   -7.6266 O   0  0  0  0  0  0  0  0  0  0  0  0
   25.8647  -22.4615   -6.4054 O   0  0  0  0  0  0  0  0  0  0  0  0
  2  1  1  6
  2  3  1  0
  3  4  1  0
  4  5  1  0
  5  9  1  0
  6  5  2  0
  7  8  2  0
  7  2  1  0
 10  7  1  0
 11 10  1  0
 11 22  1  0
 11 12  1  6
 13 12  1  0
 14 13  2  0
 15 16  1  0
 15 14  1  0
 16 21  2  0
 17 18  2  0
 17 16  1  0
 18 19  1  0
 19 20  2  0
 21 20  1  0
 21 13  1  0
 22 24  1  0
 23 22  2  0
 24 25  1  0
 25 26  1  1
 27 26  1  0
 27 28  2  0
 29 28  1  0
 30 35  2  0
 30 29  1  0
 31 30  1  0
 32 33  1  0
 32 31  2  0
 33 34  2  0
 34 35  1  0
 35 27  1  0
 36 25  1  0
 36 38  1  0
 37 36  2  0
M  END
$$$$
