EWW.pdb
     RDKit          3D

 38 41  0  0  1  0  0  0  0  0999 V2000
   28.7149  -21.4496  -14.1930 N   0  0  0  0  0  0  0  0  0  0  0  0
   27.9774  -20.4238  -13.5356 C   0  0  1  0  0  0  0  0  0  0  0  0
   27.3300  -19.4330  -14.4353 C   0  0  0  0  0  0  0  0  0  0  0  0
   28.1619  -18.8009  -15.4800 C   0  0  0  0  0  0  0  0  0  0  0  0
   28.6909  -17.4827  -15.1406 C   0  0  0  0  0  0  0  0  0  0  0  0
   28.4569  -16.7925  -14.1354 O   0  0  0  0  0  0  0  0  0  0  0  0
   26.9879  -21.0604  -12.6042 C   0  0  0  0  0  0  0  0  0  0  0  0
   26.1024  -21.8557  -13.0379 O   0  0  0  0  0  0  0  0  0  0  0  0
   29.5959  -16.8731  -16.0551 O   0  0  0  0  0  0  0  0  0  0  0  0
   26.9704  -20.8277  -11.2088 N   0  0  0  0  0  0  0  0  0  0  0  0
   25.9642  -21.4246  -10.3052 C   0  0  1  0  0  0  0  0  0  0  0  0
   26.5758  -21.6726   -8.9811 C   0  0  0  0  0  0  0  0  0  0  0  0
   26.8611  -20.4948   -8.1710 C   0  0  0  0  0  0  0  0  0  0  0  0
   26.4994  -19.1677   -8.4381 C   0  0  0  0  0  0  0  0  0  0  0  0
   26.9398  -18.3656   -7.4725 N   0  0  0  0  0  0  0  0  0  0  0  0
   27.5978  -19.0850   -6.5371 C   0  0  0  0  0  0  0  0  0  0  0  0
   28.2048  -18.6820   -5.3567 C   0  0  0  0  0  0  0  0  0  0  0  0
   28.7997  -19.6518   -4.5575 C   0  0  0  0  0  0  0  0  0  0  0  0
   28.7662  -20.9703   -4.9638 C   0  0  0  0  0  0  0  0  0  0  0  0
   28.1560  -21.3350   -6.1412 C   0  0  0  0  0  0  0  0  0  0  0  0
   27.5559  -20.3968   -6.9570 C   0  0  0  0  0  0  0  0  0  0  0  0
   24.7607  -20.5886  -10.2564 C   0  0  0  0  0  0  0  0  0  0  0  0
   24.8851  -19.3079  -10.1533 O   0  0  0  0  0  0  0  0  0  0  0  0
   23.4231  -21.0330  -10.3210 N   0  0  0  0  0  0  0  0  0  0  0  0
   22.4415  -20.3294  -11.1894 C   0  0  1  0  0  0  0  0  0  0  0  0
   22.9858  -20.4110  -12.5889 C   0  0  0  0  0  0  0  0  0  0  0  0
   22.1690  -19.8378  -13.6569 C   0  0  0  0  0  0  0  0  0  0  0  0
   21.7957  -18.4945  -13.8129 C   0  0  0  0  0  0  0  0  0  0  0  0
   21.0273  -18.3633  -14.8893 N   0  0  0  0  0  0  0  0  0  0  0  0
   20.8477  -19.5520  -15.4914 C   0  0  0  0  0  0  0  0  0  0  0  0
   20.1553  -19.9073  -16.6274 C   0  0  0  0  0  0  0  0  0  0  0  0
   20.1373  -21.2276  -17.0652 C   0  0  0  0  0  0  0  0  0  0  0  0
   20.8366  -22.1414  -16.3169 C   0  0  0  0  0  0  0  0  0  0  0  0
   21.5235  -21.7743  -15.1849 C   0  0  0  0  0  0  0  0  0  0  0  0
   21.5530  -20.4691  -14.7326 C   0  0  0  0  0  0  0  0  0  0  0  0
   21.1660  -21.0098  -11.0758 C   0  0  0  0  0  0  0  0  0  0  0  0
   21.0757  -22.2488  -10.9277 O   0  0  0  0  0  0  0  0  0  0  0  0
   19.9859  -20.2742  -11.1254 O   0  0  0  0  0  0  0  0  0  0  0  0
  2  1  1  6
  2  3  1  0
  3  4  1  0
  4  5  1  0
  5  9  1  0
  6  5  2  0
  7  8  2  0
  7  2  1  0
 10  7  1  0
 11 10  1  0
 11 22  1  0
 11 12  1  1
 13 12  1  0
 14 13  2  0
 15 16  1  0
 15 14  1  0
 16 21  2  0
 17 18  2  0
 17 16  1  0
 18 19  1  0
 19 20  2  0
 21 20  1  0
 21 13  1  0
 22 24  1  0
 23 22  2  0
 24 25  1  0
 25 26  1  6
 27 26  1  0
 27 28  2  0
 29 28  1  0
 30 35  2  0
 30 29  1  0
 31 30  1  0
 32 33  1  0
 32 31  2  0
 33 34  2  0
 34 35  1  0
 35 27  1  0
 36 25  1  0
 36 38  1  0
 37 36  2  0
M  END
$$$$
