EWW.pdb
     RDKit          3D

 38 41  0  0  1  0  0  0  0  0999 V2000
   26.7027  -19.6884  -16.3641 N   0  0  0  0  0  0  0  0  0  0  0  0
   27.4345  -19.1673  -15.2590 C   0  0  1  0  0  0  0  0  0  0  0  0
   28.0107  -17.8120  -15.4630 C   0  0  0  0  0  0  0  0  0  0  0  0
   28.9717  -17.6290  -16.5704 C   0  0  0  0  0  0  0  0  0  0  0  0
   28.4494  -16.9216  -17.7364 C   0  0  0  0  0  0  0  0  0  0  0  0
   27.3303  -16.4060  -17.8889 O   0  0  0  0  0  0  0  0  0  0  0  0
   26.5689  -19.2260  -14.0346 C   0  0  0  0  0  0  0  0  0  0  0  0
   26.1053  -18.1690  -13.5125 O   0  0  0  0  0  0  0  0  0  0  0  0
   29.3021  -16.7836  -18.8681 O   0  0  0  0  0  0  0  0  0  0  0  0
   26.2138  -20.4337  -13.3890 N   0  0  0  0  0  0  0  0  0  0  0  0
   25.3555  -20.4820  -12.1864 C   0  0  1  0  0  0  0  0  0  0  0  0
   24.0688  -21.1294  -12.5244 C   0  0  0  0  0  0  0  0  0  0  0  0
   23.1217  -20.3246  -13.2859 C   0  0  0  0  0  0  0  0  0  0  0  0
   23.0394  -20.1941  -14.6786 C   0  0  0  0  0  0  0  0  0  0  0  0
   22.0502  -19.3677  -15.0075 N   0  0  0  0  0  0  0  0  0  0  0  0
   21.4356  -18.9143  -13.8929 C   0  0  0  0  0  0  0  0  0  0  0  0
   20.3546  -18.0571  -13.7489 C   0  0  0  0  0  0  0  0  0  0  0  0
   19.9064  -17.7725  -12.4638 C   0  0  0  0  0  0  0  0  0  0  0  0
   20.5480  -18.3478  -11.3858 C   0  0  0  0  0  0  0  0  0  0  0  0
   21.6180  -19.1933  -11.5650 C   0  0  0  0  0  0  0  0  0  0  0  0
   22.0872  -19.4965  -12.8274 C   0  0  0  0  0  0  0  0  0  0  0  0
   26.0676  -21.1203  -11.0751 C   0  0  0  0  0  0  0  0  0  0  0  0
   26.6342  -22.2650  -11.2623 O   0  0  0  0  0  0  0  0  0  0  0  0
   26.2243  -20.6080   -9.7697 N   0  0  0  0  0  0  0  0  0  0  0  0
   26.7088  -21.4884   -8.6729 C   0  0  1  0  0  0  0  0  0  0  0  0
   28.0688  -20.9726   -8.2911 C   0  0  0  0  0  0  0  0  0  0  0  0
   28.1249  -19.9403   -7.2578 C   0  0  0  0  0  0  0  0  0  0  0  0
   27.5487  -18.6619   -7.3021 C   0  0  0  0  0  0  0  0  0  0  0  0
   27.8392  -17.9987   -6.1876 N   0  0  0  0  0  0  0  0  0  0  0  0
   28.5906  -18.7549   -5.3682 C   0  0  0  0  0  0  0  0  0  0  0  0
   29.1118  -18.5091   -4.1176 C   0  0  0  0  0  0  0  0  0  0  0  0
   29.8540  -19.4803   -3.4533 C   0  0  0  0  0  0  0  0  0  0  0  0
   30.0343  -20.6772   -4.1006 C   0  0  0  0  0  0  0  0  0  0  0  0
   29.5091  -20.9102   -5.3487 C   0  0  0  0  0  0  0  0  0  0  0  0
   28.7704  -19.9588   -6.0257 C   0  0  0  0  0  0  0  0  0  0  0  0
   25.7752  -21.3915   -7.5677 C   0  0  0  0  0  0  0  0  0  0  0  0
   24.8136  -20.5913   -7.5679 O   0  0  0  0  0  0  0  0  0  0  0  0
   25.9341  -22.2151   -6.4574 O   0  0  0  0  0  0  0  0  0  0  0  0
  2  1  1  6
  2  3  1  0
  3  4  1  0
  4  5  1  0
  5  9  1  0
  6  5  2  0
  7  8  2  0
  7  2  1  0
 10  7  1  0
 11 10  1  0
 11 22  1  0
 11 12  1  6
 13 12  1  0
 14 13  2  0
 15 16  1  0
 15 14  1  0
 16 21  2  0
 17 18  2  0
 17 16  1  0
 18 19  1  0
 19 20  2  0
 21 20  1  0
 21 13  1  0
 22 24  1  0
 23 22  2  0
 24 25  1  0
 25 26  1  1
 27 26  1  0
 27 28  2  0
 29 28  1  0
 30 35  2  0
 30 29  1  0
 31 30  1  0
 32 33  1  0
 32 31  2  0
 33 34  2  0
 34 35  1  0
 35 27  1  0
 36 25  1  0
 36 38  1  0
 37 36  2  0
M  END
$$$$
