EWW.pdb
     RDKit          3D

 38 41  0  0  1  0  0  0  0  0999 V2000
   26.9282  -22.1842  -17.3534 N   0  0  0  0  0  0  0  0  0  0  0  0
   25.9803  -22.3161  -16.2987 C   0  0  1  0  0  0  0  0  0  0  0  0
   25.4383  -23.6864  -16.1017 C   0  0  0  0  0  0  0  0  0  0  0  0
   24.5199  -24.2208  -17.1285 C   0  0  0  0  0  0  0  0  0  0  0  0
   23.3994  -23.3503  -17.4742 C   0  0  0  0  0  0  0  0  0  0  0  0
   22.5361  -22.8686  -16.7231 O   0  0  0  0  0  0  0  0  0  0  0  0
   26.5805  -21.7679  -15.0373 C   0  0  0  0  0  0  0  0  0  0  0  0
   27.7397  -22.1147  -14.6624 O   0  0  0  0  0  0  0  0  0  0  0  0
   23.2391  -22.9825  -18.8401 O   0  0  0  0  0  0  0  0  0  0  0  0
   25.9155  -20.8462  -14.1949 N   0  0  0  0  0  0  0  0  0  0  0  0
   26.5453  -20.2491  -12.9982 C   0  0  1  0  0  0  0  0  0  0  0  0
   26.2674  -18.7963  -12.9674 C   0  0  0  0  0  0  0  0  0  0  0  0
   26.6593  -18.0390  -14.1496 C   0  0  0  0  0  0  0  0  0  0  0  0
   25.9804  -16.9635  -14.7376 C   0  0  0  0  0  0  0  0  0  0  0  0
   26.6405  -16.5303  -15.8082 N   0  0  0  0  0  0  0  0  0  0  0  0
   27.7595  -17.2650  -15.9910 C   0  0  0  0  0  0  0  0  0  0  0  0
   28.7515  -17.1661  -16.9556 C   0  0  0  0  0  0  0  0  0  0  0  0
   29.8213  -18.0520  -16.8934 C   0  0  0  0  0  0  0  0  0  0  0  0
   29.8579  -18.9912  -15.8829 C   0  0  0  0  0  0  0  0  0  0  0  0
   28.8565  -19.0618  -14.9427 C   0  0  0  0  0  0  0  0  0  0  0  0
   27.7810  -18.1969  -14.9761 C   0  0  0  0  0  0  0  0  0  0  0  0
   26.1215  -20.9606  -11.7883 C   0  0  0  0  0  0  0  0  0  0  0  0
   25.1011  -21.7494  -11.8442 O   0  0  0  0  0  0  0  0  0  0  0  0
   26.7263  -20.8924  -10.5154 N   0  0  0  0  0  0  0  0  0  0  0  0
   26.1530  -21.6521   -9.3722 C   0  0  1  0  0  0  0  0  0  0  0  0
   27.2349  -21.7210   -8.3299 C   0  0  0  0  0  0  0  0  0  0  0  0
   27.4638  -20.5221   -7.5257 C   0  0  0  0  0  0  0  0  0  0  0  0
   27.0199  -19.2193   -7.7977 C   0  0  0  0  0  0  0  0  0  0  0  0
   27.4490  -18.3911   -6.8510 N   0  0  0  0  0  0  0  0  0  0  0  0
   28.1708  -19.0554   -5.9314 C   0  0  0  0  0  0  0  0  0  0  0  0
   28.7950  -18.6340   -4.7787 C   0  0  0  0  0  0  0  0  0  0  0  0
   29.4754  -19.5367   -3.9679 C   0  0  0  0  0  0  0  0  0  0  0  0
   29.4895  -20.8485   -4.3718 C   0  0  0  0  0  0  0  0  0  0  0  0
   28.8629  -21.2565   -5.5246 C   0  0  0  0  0  0  0  0  0  0  0  0
   28.1830  -20.3760   -6.3440 C   0  0  0  0  0  0  0  0  0  0  0  0
   24.9924  -20.9319   -8.8854 C   0  0  0  0  0  0  0  0  0  0  0  0
   24.6310  -19.8352   -9.3668 O   0  0  0  0  0  0  0  0  0  0  0  0
   24.2352  -21.4664   -7.8476 O   0  0  0  0  0  0  0  0  0  0  0  0
  2  1  1  6
  2  3  1  0
  3  4  1  0
  4  5  1  0
  5  9  1  0
  6  5  2  0
  7  8  2  0
  7  2  1  0
 10  7  1  0
 11 10  1  0
 11 22  1  0
 11 12  1  1
 13 12  1  0
 14 13  2  0
 15 16  1  0
 15 14  1  0
 16 21  2  0
 17 18  2  0
 17 16  1  0
 18 19  1  0
 19 20  2  0
 21 20  1  0
 21 13  1  0
 22 24  1  0
 23 22  2  0
 24 25  1  0
 25 26  1  1
 27 26  1  0
 27 28  2  0
 29 28  1  0
 30 35  2  0
 30 29  1  0
 31 30  1  0
 32 33  1  0
 32 31  2  0
 33 34  2  0
 34 35  1  0
 35 27  1  0
 36 25  1  0
 36 38  1  0
 37 36  2  0
M  END
$$$$
