EWW.pdb
     RDKit          3D

 38 41  0  0  1  0  0  0  0  0999 V2000
   27.2719  -18.1051  -17.9797 N   0  0  0  0  0  0  0  0  0  0  0  0
   27.4519  -18.7419  -16.7186 C   0  0  1  0  0  0  0  0  0  0  0  0
   28.6796  -18.3471  -15.9789 C   0  0  0  0  0  0  0  0  0  0  0  0
   29.9859  -18.6111  -16.6169 C   0  0  0  0  0  0  0  0  0  0  0  0
   30.1437  -19.9491  -17.1804 C   0  0  0  0  0  0  0  0  0  0  0  0
   29.5575  -20.9956  -16.8599 O   0  0  0  0  0  0  0  0  0  0  0  0
   26.2150  -18.5392  -15.8934 C   0  0  0  0  0  0  0  0  0  0  0  0
   25.9736  -17.4239  -15.3434 O   0  0  0  0  0  0  0  0  0  0  0  0
   31.0827  -20.1199  -18.2368 O   0  0  0  0  0  0  0  0  0  0  0  0
   25.2505  -19.5507  -15.6743 N   0  0  0  0  0  0  0  0  0  0  0  0
   23.9872  -19.3144  -14.9440 C   0  0  1  0  0  0  0  0  0  0  0  0
   22.8540  -19.3489  -15.8946 C   0  0  0  0  0  0  0  0  0  0  0  0
   22.7070  -18.1898  -16.7660 C   0  0  0  0  0  0  0  0  0  0  0  0
   23.2401  -18.0146  -18.0500 C   0  0  0  0  0  0  0  0  0  0  0  0
   22.8975  -16.8237  -18.5338 N   0  0  0  0  0  0  0  0  0  0  0  0
   22.1420  -16.1577  -17.6331 C   0  0  0  0  0  0  0  0  0  0  0  0
   21.5511  -14.9050  -17.7076 C   0  0  0  0  0  0  0  0  0  0  0  0
   20.7957  -14.4676  -16.6253 C   0  0  0  0  0  0  0  0  0  0  0  0
   20.6622  -15.2884  -15.5238 C   0  0  0  0  0  0  0  0  0  0  0  0
   21.2627  -16.5251  -15.4831 C   0  0  0  0  0  0  0  0  0  0  0  0
   22.0188  -16.9889  -16.5410 C   0  0  0  0  0  0  0  0  0  0  0  0
   23.8564  -20.2582  -13.8295 C   0  0  0  0  0  0  0  0  0  0  0  0
   23.8376  -21.5256  -14.0740 O   0  0  0  0  0  0  0  0  0  0  0  0
   23.7537  -19.9354  -12.4598 N   0  0  0  0  0  0  0  0  0  0  0  0
   23.4596  -20.9970  -11.4603 C   0  0  1  0  0  0  0  0  0  0  0  0
   24.2054  -20.6152  -10.2114 C   0  0  0  0  0  0  0  0  0  0  0  0
   25.6429  -20.8787  -10.1860 C   0  0  0  0  0  0  0  0  0  0  0  0
   26.4010  -21.5485  -11.1581 C   0  0  0  0  0  0  0  0  0  0  0  0
   27.6701  -21.6177  -10.7697 N   0  0  0  0  0  0  0  0  0  0  0  0
   27.8326  -21.0271   -9.5727 C   0  0  0  0  0  0  0  0  0  0  0  0
   28.9491  -20.8379   -8.7895 C   0  0  0  0  0  0  0  0  0  0  0  0
   28.8603  -20.1639   -7.5758 C   0  0  0  0  0  0  0  0  0  0  0  0
   27.6202  -19.7043   -7.2081 C   0  0  0  0  0  0  0  0  0  0  0  0
   26.5135  -19.8996   -7.9986 C   0  0  0  0  0  0  0  0  0  0  0  0
   26.5802  -20.5672   -9.2065 C   0  0  0  0  0  0  0  0  0  0  0  0
   22.0273  -21.0241  -11.2355 C   0  0  0  0  0  0  0  0  0  0  0  0
   21.2608  -20.1384  -11.6751 O   0  0  0  0  0  0  0  0  0  0  0  0
   21.4633  -22.0691  -10.5102 O   0  0  0  0  0  0  0  0  0  0  0  0
  2  1  1  6
  2  3  1  0
  3  4  1  0
  4  5  1  0
  5  9  1  0
  6  5  2  0
  7  8  2  0
  7  2  1  0
 10  7  1  0
 11 10  1  0
 11 22  1  0
 11 12  1  6
 13 12  1  0
 14 13  2  0
 15 16  1  0
 15 14  1  0
 16 21  2  0
 17 18  2  0
 17 16  1  0
 18 19  1  0
 19 20  2  0
 21 20  1  0
 21 13  1  0
 22 24  1  0
 23 22  2  0
 24 25  1  0
 25 26  1  1
 27 26  1  0
 27 28  2  0
 29 28  1  0
 30 35  2  0
 30 29  1  0
 31 30  1  0
 32 33  1  0
 32 31  2  0
 33 34  2  0
 34 35  1  0
 35 27  1  0
 36 25  1  0
 36 38  1  0
 37 36  2  0
M  END
$$$$
