EWW.pdb
     RDKit          3D

 38 41  0  0  1  0  0  0  0  0999 V2000
   28.3637  -21.9358  -15.6379 N   0  0  0  0  0  0  0  0  0  0  0  0
   28.6321  -20.5481  -15.4628 C   0  0  1  0  0  0  0  0  0  0  0  0
   28.7502  -19.7621  -16.7192 C   0  0  0  0  0  0  0  0  0  0  0  0
   28.9322  -20.5039  -17.9841 C   0  0  0  0  0  0  0  0  0  0  0  0
   27.8066  -20.4365  -18.9120 C   0  0  0  0  0  0  0  0  0  0  0  0
   26.9926  -19.5128  -19.0722 O   0  0  0  0  0  0  0  0  0  0  0  0
   27.6018  -19.9689  -14.5382 C   0  0  0  0  0  0  0  0  0  0  0  0
   27.6576  -18.7558  -14.1776 O   0  0  0  0  0  0  0  0  0  0  0  0
   27.5765  -21.5555  -19.7615 O   0  0  0  0  0  0  0  0  0  0  0  0
   26.5188  -20.7135  -14.0145 N   0  0  0  0  0  0  0  0  0  0  0  0
   25.4996  -20.1300  -13.1168 C   0  0  1  0  0  0  0  0  0  0  0  0
   24.1763  -20.1763  -13.7769 C   0  0  0  0  0  0  0  0  0  0  0  0
   24.1712  -20.0104  -15.2251 C   0  0  0  0  0  0  0  0  0  0  0  0
   24.6720  -20.8976  -16.1871 C   0  0  0  0  0  0  0  0  0  0  0  0
   24.4944  -20.4025  -17.4090 N   0  0  0  0  0  0  0  0  0  0  0  0
   23.8858  -19.1983  -17.3367 C   0  0  0  0  0  0  0  0  0  0  0  0
   23.4890  -18.3306  -18.3436 C   0  0  0  0  0  0  0  0  0  0  0  0
   22.8533  -17.1482  -17.9815 C   0  0  0  0  0  0  0  0  0  0  0  0
   22.6420  -16.8815  -16.6440 C   0  0  0  0  0  0  0  0  0  0  0  0
   23.0493  -17.7643  -15.6711 C   0  0  0  0  0  0  0  0  0  0  0  0
   23.6826  -18.9468  -15.9972 C   0  0  0  0  0  0  0  0  0  0  0  0
   25.5335  -20.7892  -11.8076 C   0  0  0  0  0  0  0  0  0  0  0  0
   25.6181  -22.0761  -11.7504 O   0  0  0  0  0  0  0  0  0  0  0  0
   25.4928  -20.1592  -10.5458 N   0  0  0  0  0  0  0  0  0  0  0  0
   25.2469  -20.9599   -9.3165 C   0  0  1  0  0  0  0  0  0  0  0  0
   25.8786  -20.1961   -8.1854 C   0  0  0  0  0  0  0  0  0  0  0  0
   27.3148  -20.3738   -7.9805 C   0  0  0  0  0  0  0  0  0  0  0  0
   28.2106  -21.0714   -8.8047 C   0  0  0  0  0  0  0  0  0  0  0  0
   29.4289  -21.0374   -8.2749 N   0  0  0  0  0  0  0  0  0  0  0  0
   29.4248  -20.3484   -7.1202 C   0  0  0  0  0  0  0  0  0  0  0  0
   30.4342  -20.0357   -6.2374 C   0  0  0  0  0  0  0  0  0  0  0  0
   30.1748  -19.2769   -5.1008 C   0  0  0  0  0  0  0  0  0  0  0  0
   28.8801  -18.8625   -4.9108 C   0  0  0  0  0  0  0  0  0  0  0  0
   27.8815  -19.1813   -5.7992 C   0  0  0  0  0  0  0  0  0  0  0  0
   28.1180  -19.9346   -6.9331 C   0  0  0  0  0  0  0  0  0  0  0  0
   23.8137  -21.0858   -9.1364 C   0  0  0  0  0  0  0  0  0  0  0  0
   22.9894  -20.4993   -9.8724 O   0  0  0  0  0  0  0  0  0  0  0  0
   23.3155  -21.8893   -8.1153 O   0  0  0  0  0  0  0  0  0  0  0  0
  2  1  1  6
  2  3  1  0
  3  4  1  0
  4  5  1  0
  5  9  1  0
  6  5  2  0
  7  8  2  0
  7  2  1  0
 10  7  1  0
 11 10  1  0
 11 22  1  0
 11 12  1  6
 13 12  1  0
 14 13  2  0
 15 16  1  0
 15 14  1  0
 16 21  2  0
 17 18  2  0
 17 16  1  0
 18 19  1  0
 19 20  2  0
 21 20  1  0
 21 13  1  0
 22 24  1  0
 23 22  2  0
 24 25  1  0
 25 26  1  1
 27 26  1  0
 27 28  2  0
 29 28  1  0
 30 35  2  0
 30 29  1  0
 31 30  1  0
 32 33  1  0
 32 31  2  0
 33 34  2  0
 34 35  1  0
 35 27  1  0
 36 25  1  0
 36 38  1  0
 37 36  2  0
M  END
$$$$
