RVF.pdb
     RDKit          3D

 30 30  0  0  1  0  0  0  0  0999 V2000
   27.5330  -15.6144  -19.3410 N   0  0  0  0  0  0  0  0  0  0  0  0
   26.2004  -16.0990  -19.5827 C   0  0  0  0  0  0  0  0  0  0  0  0
   25.2867  -15.3635  -20.0625 N   0  0  0  0  0  0  0  0  0  0  0  0
   25.9284  -17.4517  -19.2621 N   0  0  0  0  0  0  0  0  0  0  0  0
   26.8720  -18.3639  -18.6807 C   0  0  0  0  0  0  0  0  0  0  0  0
   26.3201  -19.7339  -18.5476 C   0  0  0  0  0  0  0  0  0  0  0  0
   26.3099  -20.3120  -17.1992 C   0  0  0  0  0  0  0  0  0  0  0  0
   27.4538  -21.0490  -16.6339 C   0  0  2  0  0  0  0  0  0  0  0  0
   27.9706  -22.1117  -17.4272 N   0  0  0  0  0  0  0  0  0  0  0  0
   27.0735  -21.5673  -15.2670 C   0  0  0  0  0  0  0  0  0  0  0  0
   26.5005  -22.6853  -15.1914 O   0  0  0  0  0  0  0  0  0  0  0  0
   24.3510  -15.7432  -20.2724 C   0  0  0  0  0  0  0  0  0  0  0  0
   27.5892  -19.2347  -11.5736 C   0  0  1  0  0  0  0  0  0  0  0  0
   27.5139  -20.7295  -11.6406 C   0  0  0  0  0  0  0  0  0  0  0  0
   28.8807  -21.3777  -11.6593 C   0  0  1  0  0  0  0  0  0  0  0  0
   26.6688  -21.2061  -12.8349 N   0  0  0  0  0  0  0  0  0  0  0  0
   27.3252  -20.8669  -14.0653 C   0  0  0  0  0  0  0  0  0  0  0  0
   25.3406  -20.6173  -12.6781 O   0  0  0  0  0  0  0  0  0  0  0  0
   24.9483  -19.5672  -13.2476 N   0  0  0  0  0  0  0  0  0  0  0  0
   24.4182  -21.2755  -11.8195 C   0  0  1  0  0  0  0  0  0  0  0  0
   23.0966  -20.7277  -11.5623 C   0  0  0  0  0  0  0  0  0  0  0  0
   22.0502  -21.3118  -12.4448 C   0  0  0  0  0  0  0  0  0  0  0  0
   20.7300  -20.7261  -12.1312 C   0  0  0  0  0  0  0  0  0  0  0  0
   19.8771  -21.1990  -11.1611 C   0  0  0  0  0  0  0  0  0  0  0  0
   18.6528  -20.5820  -10.9295 C   0  0  0  0  0  0  0  0  0  0  0  0
   18.2556  -19.4891  -11.6550 C   0  0  0  0  0  0  0  0  0  0  0  0
   19.1139  -19.0206  -12.6248 C   0  0  0  0  0  0  0  0  0  0  0  0
   20.3329  -19.6099  -12.8776 C   0  0  0  0  0  0  0  0  0  0  0  0
   22.7780  -20.7580  -10.1175 O   0  0  0  0  0  0  0  0  0  0  0  0
   23.0077  -21.7081   -9.3382 O   0  0  0  0  0  0  0  0  0  0  0  0
  2  3  2  0
  2  1  1  0
  4  2  1  0
  5  4  1  0
  6  5  1  0
  7  6  1  0
  8  9  1  6
  8  7  1  0
 10 16  1  0
 10  8  1  0
 11 10  2  0
 13 12  1  1
 13 15  1  0
 14 13  1  0
 15 17  1  0
 15 16  1  6
 17 18  2  0
 19 20  1  0
 19 17  1  0
 20 28  1  0
 21 22  1  0
 20 21  1  1
 22 23  2  0
 23 24  1  0
 25 24  2  0
 26 25  1  0
 27 26  2  0
 27 22  1  0
 28 29  2  0
 28 30  1  0
M  END
$$$$
