RVF.pdb
     RDKit          3D

 30 30  0  0  1  0  0  0  0  0999 V2000
   24.9879  -25.1333  -15.7374 N   0  0  0  0  0  0  0  0  0  0  0  0
   25.2734  -26.3559  -16.4396 C   0  0  0  0  0  0  0  0  0  0  0  0
   24.3715  -27.1952  -16.7368 N   0  0  0  0  0  0  0  0  0  0  0  0
   26.6211  -26.6045  -16.7983 N   0  0  0  0  0  0  0  0  0  0  0  0
   27.6819  -25.6402  -16.7246 C   0  0  0  0  0  0  0  0  0  0  0  0
   27.6781  -24.7117  -17.8810 C   0  0  0  0  0  0  0  0  0  0  0  0
   27.2035  -23.3466  -17.6283 C   0  0  0  0  0  0  0  0  0  0  0  0
   28.1118  -22.1948  -17.4882 C   0  0  2  0  0  0  0  0  0  0  0  0
   29.4564  -22.4001  -17.9075 N   0  0  0  0  0  0  0  0  0  0  0  0
   28.0880  -21.7258  -16.0526 C   0  0  0  0  0  0  0  0  0  0  0  0
   28.9333  -22.2071  -15.2539 O   0  0  0  0  0  0  0  0  0  0  0  0
   24.6032  -28.0838  -17.2063 C   0  0  0  0  0  0  0  0  0  0  0  0
   25.9741  -18.1902  -14.7219 C   0  0  1  0  0  0  0  0  0  0  0  0
   27.2334  -18.7772  -14.1614 C   0  0  0  0  0  0  0  0  0  0  0  0
   28.4740  -18.2448  -14.8442 C   0  0  1  0  0  0  0  0  0  0  0  0
   27.2111  -20.3154  -14.1948 N   0  0  0  0  0  0  0  0  0  0  0  0
   27.1687  -20.7749  -15.5539 C   0  0  0  0  0  0  0  0  0  0  0  0
   26.0766  -20.7422  -13.3787 O   0  0  0  0  0  0  0  0  0  0  0  0
   24.9266  -20.9923  -13.8214 N   0  0  0  0  0  0  0  0  0  0  0  0
   26.2811  -20.8878  -11.9793 C   0  0  1  0  0  0  0  0  0  0  0  0
   25.2066  -21.3067  -11.0946 C   0  0  0  0  0  0  0  0  0  0  0  0
   25.7022  -22.0153   -9.8833 C   0  0  0  0  0  0  0  0  0  0  0  0
   26.4342  -21.0787   -9.0052 C   0  0  0  0  0  0  0  0  0  0  0  0
   25.8375  -20.1443   -8.1910 C   0  0  0  0  0  0  0  0  0  0  0  0
   26.6052  -19.3046   -7.3918 C   0  0  0  0  0  0  0  0  0  0  0  0
   27.9739  -19.3778   -7.3878 C   0  0  0  0  0  0  0  0  0  0  0  0
   28.5653  -20.3153   -8.2051 C   0  0  0  0  0  0  0  0  0  0  0  0
   27.8321  -21.1611   -9.0078 C   0  0  0  0  0  0  0  0  0  0  0  0
   24.2731  -20.1911  -10.8228 O   0  0  0  0  0  0  0  0  0  0  0  0
   24.5356  -18.9743  -10.9370 O   0  0  0  0  0  0  0  0  0  0  0  0
  2  3  2  0
  2  1  1  0
  4  2  1  0
  5  4  1  0
  6  5  1  0
  7  6  1  0
  8  9  1  1
  8  7  1  0
 10 16  1  0
 10  8  1  0
 11 10  2  0
 13 12  1  1
 13 15  1  0
 14 13  1  0
 15 17  1  0
 15 16  1  6
 17 18  2  0
 19 20  1  0
 19 17  1  0
 20 28  1  0
 21 22  1  0
 20 21  1  1
 22 23  2  0
 23 24  1  0
 25 24  2  0
 26 25  1  0
 27 26  2  0
 27 22  1  0
 28 29  2  0
 28 30  1  0
M  END
$$$$
