RVF.pdb
     RDKit          3D

 30 30  0  0  1  0  0  0  0  0999 V2000
   30.2148  -24.9956  -16.4820 N   0  0  0  0  0  0  0  0  0  0  0  0
   28.7772  -25.0418  -16.5038 C   0  0  0  0  0  0  0  0  0  0  0  0
   28.1338  -26.1296  -16.5969 N   0  0  0  0  0  0  0  0  0  0  0  0
   28.0820  -23.8105  -16.4176 N   0  0  0  0  0  0  0  0  0  0  0  0
   28.6997  -22.5150  -16.4429 C   0  0  0  0  0  0  0  0  0  0  0  0
   29.3972  -22.2004  -15.1725 C   0  0  0  0  0  0  0  0  0  0  0  0
   28.7635  -21.2036  -14.3023 C   0  0  0  0  0  0  0  0  0  0  0  0
   27.4690  -20.5730  -14.6152 C   0  0  2  0  0  0  0  0  0  0  0  0
   27.4951  -19.5327  -15.5862 N   0  0  0  0  0  0  0  0  0  0  0  0
   26.8514  -20.0639  -13.3342 C   0  0  0  0  0  0  0  0  0  0  0  0
   27.1180  -18.8892  -12.9694 O   0  0  0  0  0  0  0  0  0  0  0  0
   27.1026  -26.1428  -16.5813 C   0  0  0  0  0  0  0  0  0  0  0  0
   23.5154  -21.8484  -11.1876 C   0  0  1  0  0  0  0  0  0  0  0  0
   24.0214  -20.4391  -11.1390 C   0  0  0  0  0  0  0  0  0  0  0  0
   23.3888  -19.5603  -12.1956 C   0  0  1  0  0  0  0  0  0  0  0  0
   25.5564  -20.3797  -11.2289 N   0  0  0  0  0  0  0  0  0  0  0  0
   25.9890  -20.8329  -12.5202 C   0  0  0  0  0  0  0  0  0  0  0  0
   26.0785  -21.1610  -10.1098 O   0  0  0  0  0  0  0  0  0  0  0  0
   26.4360  -22.3645  -10.1785 N   0  0  0  0  0  0  0  0  0  0  0  0
   26.1938  -20.5190   -8.8466 C   0  0  1  0  0  0  0  0  0  0  0  0
   26.6695  -21.2325   -7.6730 C   0  0  0  0  0  0  0  0  0  0  0  0
   28.1196  -21.0159   -7.4168 C   0  0  0  0  0  0  0  0  0  0  0  0
   28.3065  -20.0760   -6.2918 C   0  0  0  0  0  0  0  0  0  0  0  0
   28.3028  -18.7057   -6.4109 C   0  0  0  0  0  0  0  0  0  0  0  0
   28.4817  -17.8951   -5.2954 C   0  0  0  0  0  0  0  0  0  0  0  0
   28.6672  -18.4296   -4.0470 C   0  0  0  0  0  0  0  0  0  0  0  0
   28.6700  -19.8021   -3.9344 C   0  0  0  0  0  0  0  0  0  0  0  0
   28.4953  -20.6314   -5.0202 C   0  0  0  0  0  0  0  0  0  0  0  0
   25.7903  -20.9899   -6.5077 O   0  0  0  0  0  0  0  0  0  0  0  0
   24.9599  -20.0618   -6.3994 O   0  0  0  0  0  0  0  0  0  0  0  0
  2  3  2  0
  2  1  1  0
  4  2  1  0
  5  4  1  0
  6  5  1  0
  7  6  1  0
  8  9  1  6
  8  7  1  0
 10 16  1  0
 10  8  1  0
 11 10  2  0
 13 12  1  1
 13 15  1  0
 14 13  1  0
 15 17  1  0
 15 16  1  6
 17 18  2  0
 19 20  1  0
 19 17  1  0
 20 28  1  0
 21 22  1  0
 20 21  1  1
 22 23  2  0
 23 24  1  0
 25 24  2  0
 26 25  1  0
 27 26  2  0
 27 22  1  0
 28 29  2  0
 28 30  1  0
M  END
$$$$
