RVF.pdb
     RDKit          3D

 30 30  0  0  1  0  0  0  0  0999 V2000
   23.1647  -18.8928  -15.3744 N   0  0  0  0  0  0  0  0  0  0  0  0
   22.1917  -19.4986  -16.2436 C   0  0  0  0  0  0  0  0  0  0  0  0
   21.4416  -18.8162  -17.0038 N   0  0  0  0  0  0  0  0  0  0  0  0
   22.0899  -20.9114  -16.2272 N   0  0  0  0  0  0  0  0  0  0  0  0
   23.1673  -21.8090  -15.9207 C   0  0  0  0  0  0  0  0  0  0  0  0
   23.5449  -22.6504  -17.0821 C   0  0  0  0  0  0  0  0  0  0  0  0
   24.7227  -22.2266  -17.8475 C   0  0  0  0  0  0  0  0  0  0  0  0
   26.0932  -22.6506  -17.5108 C   0  0  2  0  0  0  0  0  0  0  0  0
   26.3080  -24.0534  -17.4016 N   0  0  0  0  0  0  0  0  0  0  0  0
   26.5161  -21.9658  -16.2327 C   0  0  0  0  0  0  0  0  0  0  0  0
   26.8892  -22.6822  -15.2675 O   0  0  0  0  0  0  0  0  0  0  0  0
   20.7265  -19.2683  -17.5937 C   0  0  0  0  0  0  0  0  0  0  0  0
   26.3644  -17.6259  -15.5639 C   0  0  1  0  0  0  0  0  0  0  0  0
   27.5305  -18.5069  -15.2341 C   0  0  0  0  0  0  0  0  0  0  0  0
   28.5776  -18.5139  -16.3260 C   0  0  1  0  0  0  0  0  0  0  0  0
   27.0858  -19.9409  -14.8968 N   0  0  0  0  0  0  0  0  0  0  0  0
   26.5172  -20.5630  -16.0585 C   0  0  0  0  0  0  0  0  0  0  0  0
   26.1762  -19.8471  -13.7570 O   0  0  0  0  0  0  0  0  0  0  0  0
   24.9258  -19.7462  -13.8421 N   0  0  0  0  0  0  0  0  0  0  0  0
   26.7399  -19.8715  -12.4521 C   0  0  1  0  0  0  0  0  0  0  0  0
   25.9122  -20.0507  -11.2708 C   0  0  0  0  0  0  0  0  0  0  0  0
   25.0470  -21.2590  -11.3527 C   0  0  0  0  0  0  0  0  0  0  0  0
   24.0824  -21.2754  -10.2331 C   0  0  0  0  0  0  0  0  0  0  0  0
   24.4199  -21.4782   -8.9151 C   0  0  0  0  0  0  0  0  0  0  0  0
   23.4455  -21.4728   -7.9232 C   0  0  0  0  0  0  0  0  0  0  0  0
   22.1238  -21.2670   -8.2222 C   0  0  0  0  0  0  0  0  0  0  0  0
   21.7923  -21.0646   -9.5435 C   0  0  0  0  0  0  0  0  0  0  0  0
   22.7345  -21.0642  -10.5483 C   0  0  0  0  0  0  0  0  0  0  0  0
   26.7174  -19.9464  -10.0337 O   0  0  0  0  0  0  0  0  0  0  0  0
   27.7935  -20.5419   -9.8097 O   0  0  0  0  0  0  0  0  0  0  0  0
  2  3  2  0
  2  1  1  0
  4  2  1  0
  5  4  1  0
  6  5  1  0
  7  6  1  0
  8  9  1  1
  8  7  1  0
 10 16  1  0
 10  8  1  0
 11 10  2  0
 13 12  1  1
 13 15  1  0
 14 13  1  0
 15 17  1  0
 15 16  1  6
 17 18  2  0
 19 20  1  0
 19 17  1  0
 20 28  1  0
 21 22  1  0
 20 21  1  1
 22 23  2  0
 23 24  1  0
 25 24  2  0
 26 25  1  0
 27 26  2  0
 27 22  1  0
 28 29  2  0
 28 30  1  0
M  END
$$$$
