RVF.pdb
     RDKit          3D

 30 30  0  0  1  0  0  0  0  0999 V2000
   26.2488  -25.4333  -17.0966 N   0  0  0  0  0  0  0  0  0  0  0  0
   27.6731  -25.5455  -16.9295 C   0  0  0  0  0  0  0  0  0  0  0  0
   28.3988  -26.2198  -17.7199 N   0  0  0  0  0  0  0  0  0  0  0  0
   28.2581  -24.8678  -15.8316 N   0  0  0  0  0  0  0  0  0  0  0  0
   27.7576  -23.6519  -15.2558 C   0  0  0  0  0  0  0  0  0  0  0  0
   28.1128  -22.4601  -16.0639 C   0  0  0  0  0  0  0  0  0  0  0  0
   27.5450  -21.1781  -15.6319 C   0  0  0  0  0  0  0  0  0  0  0  0
   26.0976  -20.9579  -15.4643 C   0  0  2  0  0  0  0  0  0  0  0  0
   25.4574  -20.1900  -16.4774 N   0  0  0  0  0  0  0  0  0  0  0  0
   25.8525  -20.3299  -14.1127 C   0  0  0  0  0  0  0  0  0  0  0  0
   26.1212  -19.1092  -13.9646 O   0  0  0  0  0  0  0  0  0  0  0  0
   29.4188  -26.2864  -17.5823 C   0  0  0  0  0  0  0  0  0  0  0  0
   23.0717  -21.8737  -11.3321 C   0  0  1  0  0  0  0  0  0  0  0  0
   23.5510  -20.4591  -11.4494 C   0  0  0  0  0  0  0  0  0  0  0  0
   22.7638  -19.6637  -12.4675 C   0  0  1  0  0  0  0  0  0  0  0  0
   25.0582  -20.3897  -11.7515 N   0  0  0  0  0  0  0  0  0  0  0  0
   25.3371  -21.0363  -13.0021 C   0  0  0  0  0  0  0  0  0  0  0  0
   25.7494  -20.9733  -10.6039 O   0  0  0  0  0  0  0  0  0  0  0  0
   25.9341  -22.2043  -10.4262 N   0  0  0  0  0  0  0  0  0  0  0  0
   26.2532  -20.0896   -9.6107 C   0  0  1  0  0  0  0  0  0  0  0  0
   26.8448  -20.5884   -8.3803 C   0  0  0  0  0  0  0  0  0  0  0  0
   28.1549  -19.9525   -8.0730 C   0  0  0  0  0  0  0  0  0  0  0  0
   28.3614  -19.8848   -6.6111 C   0  0  0  0  0  0  0  0  0  0  0  0
   28.8102  -20.9297   -5.8373 C   0  0  0  0  0  0  0  0  0  0  0  0
   28.9809  -20.7759   -4.4659 C   0  0  0  0  0  0  0  0  0  0  0  0
   28.7092  -19.5863   -3.8417 C   0  0  0  0  0  0  0  0  0  0  0  0
   28.2601  -18.5441   -4.6220 C   0  0  0  0  0  0  0  0  0  0  0  0
   28.0813  -18.6654   -5.9824 C   0  0  0  0  0  0  0  0  0  0  0  0
   25.8673  -20.5643   -7.2696 O   0  0  0  0  0  0  0  0  0  0  0  0
   24.9162  -19.7618   -7.1504 O   0  0  0  0  0  0  0  0  0  0  0  0
  2  3  2  0
  2  1  1  0
  4  2  1  0
  5  4  1  0
  6  5  1  0
  7  6  1  0
  8  9  1  6
  8  7  1  0
 10 16  1  0
 10  8  1  0
 11 10  2  0
 13 12  1  1
 13 15  1  0
 14 13  1  0
 15 17  1  0
 15 16  1  6
 17 18  2  0
 19 20  1  0
 19 17  1  0
 20 28  1  0
 21 22  1  0
 20 21  1  1
 22 23  2  0
 23 24  1  0
 25 24  2  0
 26 25  1  0
 27 26  2  0
 27 22  1  0
 28 29  2  0
 28 30  1  0
M  END
$$$$
