RVF.pdb
     RDKit          3D

 30 30  0  0  1  0  0  0  0  0999 V2000
   23.8880  -30.2354  -16.6397 N   0  0  0  0  0  0  0  0  0  0  0  0
   22.9346  -29.3642  -17.2731 C   0  0  0  0  0  0  0  0  0  0  0  0
   21.6832  -29.5242  -17.1526 N   0  0  0  0  0  0  0  0  0  0  0  0
   23.4422  -28.2975  -18.0550 N   0  0  0  0  0  0  0  0  0  0  0  0
   24.7960  -27.8217  -18.0151 C   0  0  0  0  0  0  0  0  0  0  0  0
   25.2455  -27.5221  -16.6339 C   0  0  0  0  0  0  0  0  0  0  0  0
   25.9287  -26.2404  -16.4268 C   0  0  0  0  0  0  0  0  0  0  0  0
   27.1317  -25.8422  -17.1788 C   0  0  2  0  0  0  0  0  0  0  0  0
   28.2012  -26.7811  -17.1965 N   0  0  0  0  0  0  0  0  0  0  0  0
   27.6223  -24.5157  -16.6485 C   0  0  0  0  0  0  0  0  0  0  0  0
   28.3512  -24.5164  -15.6225 O   0  0  0  0  0  0  0  0  0  0  0  0
   21.0176  -28.8394  -17.5421 C   0  0  0  0  0  0  0  0  0  0  0  0
   28.3753  -21.2141  -18.8565 C   0  0  2  0  0  0  0  0  0  0  0  0
   27.5824  -20.8818  -17.6296 C   0  0  0  0  0  0  0  0  0  0  0  0
   28.0144  -19.5771  -16.9971 C   0  0  2  0  0  0  0  0  0  0  0  0
   27.6179  -22.0243  -16.5995 N   0  0  0  0  0  0  0  0  0  0  0  0
   27.3091  -23.2708  -17.2403 C   0  0  0  0  0  0  0  0  0  0  0  0
   26.7000  -21.6559  -15.5238 O   0  0  0  0  0  0  0  0  0  0  0  0
   25.8200  -22.4123  -15.0395 N   0  0  0  0  0  0  0  0  0  0  0  0
   26.8040  -20.3467  -14.9796 C   0  0  1  0  0  0  0  0  0  0  0  0
   26.4324  -20.0651  -13.6028 C   0  0  0  0  0  0  0  0  0  0  0  0
   27.1230  -20.9525  -12.6278 C   0  0  0  0  0  0  0  0  0  0  0  0
   26.6476  -20.6749  -11.2562 C   0  0  0  0  0  0  0  0  0  0  0  0
   27.3639  -19.9834  -10.3070 C   0  0  0  0  0  0  0  0  0  0  0  0
   26.8362  -19.7633   -9.0396 C   0  0  0  0  0  0  0  0  0  0  0  0
   25.5927  -20.2249   -8.6941 C   0  0  0  0  0  0  0  0  0  0  0  0
   24.8806  -20.9165   -9.6488 C   0  0  0  0  0  0  0  0  0  0  0  0
   25.3761  -21.1503  -10.9126 C   0  0  0  0  0  0  0  0  0  0  0  0
   26.5352  -18.6188  -13.3071 O   0  0  0  0  0  0  0  0  0  0  0  0
   27.5345  -17.8986  -13.5200 O   0  0  0  0  0  0  0  0  0  0  0  0
  2  3  2  0
  2  1  1  0
  4  2  1  0
  5  4  1  0
  6  5  1  0
  7  6  1  0
  8  9  1  1
  8  7  1  0
 10 16  1  0
 10  8  1  0
 11 10  2  0
 13 12  1  6
 13 15  1  0
 14 13  1  0
 15 17  1  0
 15 16  1  1
 17 18  2  0
 19 20  1  0
 19 17  1  0
 20 28  1  0
 21 22  1  0
 20 21  1  6
 22 23  2  0
 23 24  1  0
 25 24  2  0
 26 25  1  0
 27 26  2  0
 27 22  1  0
 28 29  2  0
 28 30  1  0
M  END
$$$$
