RVF.pdb
     RDKit          3D

 30 30  0  0  1  0  0  0  0  0999 V2000
   28.6435  -17.7764  -20.4623 N   0  0  0  0  0  0  0  0  0  0  0  0
   27.8615  -16.6872  -19.9414 C   0  0  0  0  0  0  0  0  0  0  0  0
   27.5085  -15.7018  -20.6557 N   0  0  0  0  0  0  0  0  0  0  0  0
   27.4880  -16.7448  -18.5761 N   0  0  0  0  0  0  0  0  0  0  0  0
   27.6981  -17.8732  -17.7140 C   0  0  0  0  0  0  0  0  0  0  0  0
   26.5990  -18.8644  -17.8083 C   0  0  0  0  0  0  0  0  0  0  0  0
   26.6830  -20.0278  -16.9184 C   0  0  0  0  0  0  0  0  0  0  0  0
   27.9585  -20.5441  -16.3914 C   0  0  2  0  0  0  0  0  0  0  0  0
   28.5927  -21.5583  -17.1626 N   0  0  0  0  0  0  0  0  0  0  0  0
   27.7409  -21.0340  -14.9793 C   0  0  0  0  0  0  0  0  0  0  0  0
   26.8808  -21.9321  -14.7855 O   0  0  0  0  0  0  0  0  0  0  0  0
   27.0004  -14.9021  -20.2483 C   0  0  0  0  0  0  0  0  0  0  0  0
   29.8324  -19.4323  -11.4489 C   0  0  1  0  0  0  0  0  0  0  0  0
   29.4002  -20.8541  -11.6395 C   0  0  0  0  0  0  0  0  0  0  0  0
   30.5086  -21.7279  -12.1843 C   0  0  1  0  0  0  0  0  0  0  0  0
   28.1434  -20.9559  -12.5213 N   0  0  0  0  0  0  0  0  0  0  0  0
   28.4500  -20.5405  -13.8605 C   0  0  0  0  0  0  0  0  0  0  0  0
   27.1010  -20.1662  -11.8691 O   0  0  0  0  0  0  0  0  0  0  0  0
   26.7915  -18.9880  -12.1803 N   0  0  0  0  0  0  0  0  0  0  0  0
   26.3792  -20.7687  -10.8027 C   0  0  1  0  0  0  0  0  0  0  0  0
   25.3427  -20.0462  -10.0841 C   0  0  0  0  0  0  0  0  0  0  0  0
   24.3645  -19.3886  -10.9929 C   0  0  0  0  0  0  0  0  0  0  0  0
   23.4969  -20.4009  -11.6307 C   0  0  0  0  0  0  0  0  0  0  0  0
   22.2182  -20.7015  -11.2224 C   0  0  0  0  0  0  0  0  0  0  0  0
   21.4694  -21.6674  -11.8855 C   0  0  0  0  0  0  0  0  0  0  0  0
   21.9759  -22.3492  -12.9613 C   0  0  0  0  0  0  0  0  0  0  0  0
   23.2566  -22.0436  -13.3651 C   0  0  0  0  0  0  0  0  0  0  0  0
   24.0230  -21.0921  -12.7290 C   0  0  0  0  0  0  0  0  0  0  0  0
   24.7394  -20.8884   -9.0274 O   0  0  0  0  0  0  0  0  0  0  0  0
   24.9286  -22.1144   -8.8730 O   0  0  0  0  0  0  0  0  0  0  0  0
  2  3  2  0
  2  1  1  0
  4  2  1  0
  5  4  1  0
  6  5  1  0
  7  6  1  0
  8  9  1  6
  8  7  1  0
 10 16  1  0
 10  8  1  0
 11 10  2  0
 13 12  1  1
 13 15  1  0
 14 13  1  0
 15 17  1  0
 15 16  1  6
 17 18  2  0
 19 20  1  0
 19 17  1  0
 20 28  1  0
 21 22  1  0
 20 21  1  1
 22 23  2  0
 23 24  1  0
 25 24  2  0
 26 25  1  0
 27 26  2  0
 27 22  1  0
 28 29  2  0
 28 30  1  0
M  END
$$$$
