RVF.pdb
     RDKit          3D

 30 30  0  0  1  0  0  0  0  0999 V2000
   19.0961  -22.8211  -11.1683 N   0  0  0  0  0  0  0  0  0  0  0  0
   19.2786  -24.2273  -11.4102 C   0  0  0  0  0  0  0  0  0  0  0  0
   19.2017  -24.7327  -12.5698 N   0  0  0  0  0  0  0  0  0  0  0  0
   19.5518  -25.0531  -10.2920 N   0  0  0  0  0  0  0  0  0  0  0  0
   19.2739  -24.7060   -8.9272 C   0  0  0  0  0  0  0  0  0  0  0  0
   17.8520  -24.3392   -8.7193 C   0  0  0  0  0  0  0  0  0  0  0  0
   17.1989  -24.8843   -7.5240 C   0  0  0  0  0  0  0  0  0  0  0  0
   17.4184  -26.2614   -7.0478 C   0  0  2  0  0  0  0  0  0  0  0  0
   16.9929  -27.3031   -7.9193 N   0  0  0  0  0  0  0  0  0  0  0  0
   16.7610  -26.4218   -5.6974 C   0  0  0  0  0  0  0  0  0  0  0  0
   15.5069  -26.5190   -5.6524 O   0  0  0  0  0  0  0  0  0  0  0  0
   19.3060  -25.7481  -12.7174 C   0  0  0  0  0  0  0  0  0  0  0  0
   18.8785  -26.0320   -1.8456 C   0  0  1  0  0  0  0  0  0  0  0  0
   17.7651  -26.9967   -2.1181 C   0  0  0  0  0  0  0  0  0  0  0  0
   18.2698  -28.3797   -2.4665 C   0  0  1  0  0  0  0  0  0  0  0  0
   16.8106  -26.4751   -3.2065 N   0  0  0  0  0  0  0  0  0  0  0  0
   17.4753  -26.4694   -4.4786 C   0  0  0  0  0  0  0  0  0  0  0  0
   16.3399  -25.1635   -2.7666 O   0  0  0  0  0  0  0  0  0  0  0  0
   16.4271  -24.1056   -3.4405 N   0  0  0  0  0  0  0  0  0  0  0  0
   15.7373  -25.0693   -1.4824 C   0  0  1  0  0  0  0  0  0  0  0  0
   14.6014  -24.1957   -1.2390 C   0  0  0  0  0  0  0  0  0  0  0  0
   13.4655  -24.4580   -2.1643 C   0  0  0  0  0  0  0  0  0  0  0  0
   13.2432  -23.2929   -3.0460 C   0  0  0  0  0  0  0  0  0  0  0  0
   12.4717  -22.2023   -2.7182 C   0  0  0  0  0  0  0  0  0  0  0  0
   12.3207  -21.1454   -3.6091 C   0  0  0  0  0  0  0  0  0  0  0  0
   12.9307  -21.1537   -4.8365 C   0  0  0  0  0  0  0  0  0  0  0  0
   13.7016  -22.2485   -5.1587 C   0  0  0  0  0  0  0  0  0  0  0  0
   13.8704  -23.3104   -4.2978 C   0  0  0  0  0  0  0  0  0  0  0  0
   14.2412  -24.1754    0.1961 O   0  0  0  0  0  0  0  0  0  0  0  0
   14.5682  -25.0339    1.0439 O   0  0  0  0  0  0  0  0  0  0  0  0
  2  3  2  0
  2  1  1  0
  4  2  1  0
  5  4  1  0
  6  5  1  0
  7  6  1  0
  8  9  1  6
  8  7  1  0
 10 16  1  0
 10  8  1  0
 11 10  2  0
 13 12  1  1
 13 15  1  0
 14 13  1  0
 15 17  1  0
 15 16  1  6
 17 18  2  0
 19 20  1  0
 19 17  1  0
 20 28  1  0
 21 22  1  0
 20 21  1  1
 22 23  2  0
 23 24  1  0
 25 24  2  0
 26 25  1  0
 27 26  2  0
 27 22  1  0
 28 29  2  0
 28 30  1  0
M  END
$$$$
