RVF.pdb
     RDKit          3D

 30 30  0  0  1  0  0  0  0  0999 V2000
   26.6905  -16.0586  -18.7065 N   0  0  0  0  0  0  0  0  0  0  0  0
   27.8452  -15.2518  -18.4151 C   0  0  0  0  0  0  0  0  0  0  0  0
   28.1958  -14.2781  -19.1466 N   0  0  0  0  0  0  0  0  0  0  0  0
   28.5995  -15.5819  -17.2624 N   0  0  0  0  0  0  0  0  0  0  0  0
   28.1142  -16.3608  -16.1585 C   0  0  0  0  0  0  0  0  0  0  0  0
   26.7602  -15.9384  -15.7255 C   0  0  0  0  0  0  0  0  0  0  0  0
   26.1205  -16.7465  -14.6812 C   0  0  0  0  0  0  0  0  0  0  0  0
   25.8182  -18.1790  -14.8482 C   0  0  2  0  0  0  0  0  0  0  0  0
   24.9315  -18.5146  -15.9097 N   0  0  0  0  0  0  0  0  0  0  0  0
   25.2844  -18.7208  -13.5432 C   0  0  0  0  0  0  0  0  0  0  0  0
   24.2507  -18.1928  -13.0565 O   0  0  0  0  0  0  0  0  0  0  0  0
   29.0478  -13.7349  -18.9399 C   0  0  0  0  0  0  0  0  0  0  0  0
   25.8329  -22.6785  -12.1147 C   0  0  1  0  0  0  0  0  0  0  0  0
   24.7701  -21.6794  -11.7732 C   0  0  0  0  0  0  0  0  0  0  0  0
   23.6418  -21.6673  -12.7810 C   0  0  1  0  0  0  0  0  0  0  0  0
   25.3516  -20.2666  -11.5899 N   0  0  0  0  0  0  0  0  0  0  0  0
   25.8806  -19.7895  -12.8358 C   0  0  0  0  0  0  0  0  0  0  0  0
   26.3327  -20.3473  -10.5099 O   0  0  0  0  0  0  0  0  0  0  0  0
   27.5057  -20.7821  -10.6358 N   0  0  0  0  0  0  0  0  0  0  0  0
   25.9385  -19.9026   -9.2183 C   0  0  2  0  0  0  0  0  0  0  0  0
   26.8005  -20.0741   -8.0606 C   0  0  0  0  0  0  0  0  0  0  0  0
   26.8483  -18.8643   -7.1950 C   0  0  0  0  0  0  0  0  0  0  0  0
   27.7267  -19.1018   -6.0304 C   0  0  0  0  0  0  0  0  0  0  0  0
   29.0575  -18.7585   -5.9738 C   0  0  0  0  0  0  0  0  0  0  0  0
   29.8095  -19.0155   -4.8328 C   0  0  0  0  0  0  0  0  0  0  0  0
   29.2550  -19.6160   -3.7326 C   0  0  0  0  0  0  0  0  0  0  0  0
   27.9223  -19.9574   -3.7956 C   0  0  0  0  0  0  0  0  0  0  0  0
   27.1512  -19.7158   -4.9111 C   0  0  0  0  0  0  0  0  0  0  0  0
   26.4945  -21.3349   -7.3490 O   0  0  0  0  0  0  0  0  0  0  0  0
   25.3522  -21.7982   -7.1413 O   0  0  0  0  0  0  0  0  0  0  0  0
  2  3  2  0
  2  1  1  0
  4  2  1  0
  5  4  1  0
  6  5  1  0
  7  6  1  0
  8  9  1  6
  8  7  1  0
 10 16  1  0
 10  8  1  0
 11 10  2  0
 13 12  1  1
 13 15  1  0
 14 13  1  0
 15 17  1  0
 15 16  1  6
 17 18  2  0
 19 20  1  0
 19 17  1  0
 20 28  1  0
 21 22  1  0
 20 21  1  1
 22 23  2  0
 23 24  1  0
 25 24  2  0
 26 25  1  0
 27 26  2  0
 27 22  1  0
 28 29  2  0
 28 30  1  0
M  END
$$$$
