RVF.pdb
     RDKit          3D

 30 30  0  0  1  0  0  0  0  0999 V2000
   18.9995  -16.8666  -13.3114 N   0  0  0  0  0  0  0  0  0  0  0  0
   18.5837  -17.6392  -14.4513 C   0  0  0  0  0  0  0  0  0  0  0  0
   17.3945  -17.6187  -14.8887 N   0  0  0  0  0  0  0  0  0  0  0  0
   19.5607  -18.4440  -15.0874 N   0  0  0  0  0  0  0  0  0  0  0  0
   20.8717  -18.7099  -14.5666 C   0  0  0  0  0  0  0  0  0  0  0  0
   20.8310  -19.2051  -13.1692 C   0  0  0  0  0  0  0  0  0  0  0  0
   21.6902  -20.3509  -12.8509 C   0  0  0  0  0  0  0  0  0  0  0  0
   22.6379  -20.9352  -13.8162 C   0  0  2  0  0  0  0  0  0  0  0  0
   22.1428  -22.0049  -14.6141 N   0  0  0  0  0  0  0  0  0  0  0  0
   23.8778  -21.3785  -13.0762 C   0  0  0  0  0  0  0  0  0  0  0  0
   23.8047  -22.4047  -12.3512 O   0  0  0  0  0  0  0  0  0  0  0  0
   17.1220  -18.1652  -15.7199 C   0  0  0  0  0  0  0  0  0  0  0  0
   27.7682  -21.0244  -14.2886 C   0  0  1  0  0  0  0  0  0  0  0  0
   27.5333  -20.5064  -12.9026 C   0  0  0  0  0  0  0  0  0  0  0  0
   28.6988  -20.7794  -11.9774 C   0  0  2  0  0  0  0  0  0  0  0  0
   26.2240  -21.0494  -12.3039 N   0  0  0  0  0  0  0  0  0  0  0  0
   25.1184  -20.7052  -13.1518 C   0  0  0  0  0  0  0  0  0  0  0  0
   26.1275  -20.5229  -10.9441 O   0  0  0  0  0  0  0  0  0  0  0  0
   25.6154  -19.4165  -10.6367 N   0  0  0  0  0  0  0  0  0  0  0  0
   26.6493  -21.3152   -9.8853 C   0  0  2  0  0  0  0  0  0  0  0  0
   26.7223  -20.8104   -8.5242 C   0  0  0  0  0  0  0  0  0  0  0  0
   27.3395  -21.7834   -7.5822 C   0  0  0  0  0  0  0  0  0  0  0  0
   27.6295  -21.1307   -6.2883 C   0  0  0  0  0  0  0  0  0  0  0  0
   26.8875  -21.3043   -5.1432 C   0  0  0  0  0  0  0  0  0  0  0  0
   27.2361  -20.6530   -3.9652 C   0  0  0  0  0  0  0  0  0  0  0  0
   28.3235  -19.8207   -3.9047 C   0  0  0  0  0  0  0  0  0  0  0  0
   29.0622  -19.6510   -5.0545 C   0  0  0  0  0  0  0  0  0  0  0  0
   28.7423  -20.2824   -6.2362 C   0  0  0  0  0  0  0  0  0  0  0  0
   27.3109  -19.4532   -8.4889 O   0  0  0  0  0  0  0  0  0  0  0  0
   26.8098  -18.4535   -7.9300 O   0  0  0  0  0  0  0  0  0  0  0  0
  2  3  2  0
  2  1  1  0
  4  2  1  0
  5  4  1  0
  6  5  1  0
  7  6  1  0
  8  9  1  1
  8  7  1  0
 10 16  1  0
 10  8  1  0
 11 10  2  0
 13 12  1  6
 13 15  1  0
 14 13  1  0
 15 17  1  0
 15 16  1  1
 17 18  2  0
 19 20  1  0
 19 17  1  0
 20 28  1  0
 21 22  1  0
 20 21  1  6
 22 23  2  0
 23 24  1  0
 25 24  2  0
 26 25  1  0
 27 26  2  0
 27 22  1  0
 28 29  2  0
 28 30  1  0
M  END
$$$$
