WMS.pdb
     RDKit          3D

 29 30  0  0  1  0  0  0  0  0999 V2000
    8.5837  -16.6422   20.1626 N   0  0  0  0  0  0  0  0  0  0  0  0
    7.9609  -17.0130   21.4001 C   0  0  1  0  0  0  0  0  0  0  0  0
    8.5664  -18.3488   21.8340 C   0  0  0  0  0  0  0  0  0  0  0  0
    7.7593  -19.5016   21.4436 C   0  0  0  0  0  0  0  0  0  0  0  0
    7.7073  -20.1424   20.2273 C   0  0  0  0  0  0  0  0  0  0  0  0
    6.8394  -21.1545   20.2907 N   0  0  0  0  0  0  0  0  0  0  0  0
    6.2934  -21.2192   21.5335 C   0  0  0  0  0  0  0  0  0  0  0  0
    5.3597  -22.0606   22.1227 C   0  0  0  0  0  0  0  0  0  0  0  0
    5.0315  -21.8255   23.4460 C   0  0  0  0  0  0  0  0  0  0  0  0
    5.5847  -20.8065   24.1925 C   0  0  0  0  0  0  0  0  0  0  0  0
    6.5085  -19.9893   23.5777 C   0  0  0  0  0  0  0  0  0  0  0  0
    6.8752  -20.1785   22.2530 C   0  0  0  0  0  0  0  0  0  0  0  0
    8.2857  -16.0526   22.4854 C   0  0  0  0  0  0  0  0  0  0  0  0
    9.4736  -15.6585   22.5509 O   0  0  0  0  0  0  0  0  0  0  0  0
    8.3238  -11.1724   27.2796 C   0  0  0  0  0  0  0  0  0  0  0  0
    6.7582  -11.8449   26.6936 S   0  0  0  0  0  0  0  0  0  0  0  0
    6.8313  -13.6480   26.6450 C   0  0  0  0  0  0  0  0  0  0  0  0
    6.5995  -14.2225   25.3038 C   0  0  0  0  0  0  0  0  0  0  0  0
    7.6726  -15.1035   24.7347 C   0  0  2  0  0  0  0  0  0  0  0  0
    7.3286  -15.5719   23.4315 N   0  0  0  0  0  0  0  0  0  0  0  0
    8.0358  -16.2085   25.6595 C   0  0  0  0  0  0  0  0  0  0  0  0
    7.1801  -16.9698   26.1825 O   0  0  0  0  0  0  0  0  0  0  0  0
   11.8077  -17.1966   25.6014 O   0  0  0  0  0  0  0  0  0  0  0  0
   10.9724  -18.2133   26.0883 C   0  0  0  0  0  0  0  0  0  0  0  0
    9.8106  -17.5693   26.8175 C   0  0  2  0  0  0  0  0  0  0  0  0
    9.3881  -16.4406   25.9855 N   0  0  0  0  0  0  0  0  0  0  0  0
   10.3563  -17.0581   28.1152 C   0  0  0  0  0  0  0  0  0  0  0  0
   10.3611  -15.8538   28.4135 O   0  0  0  0  0  0  0  0  0  0  0  0
   10.8697  -17.9984   28.9968 O   0  0  0  0  0  0  0  0  0  0  0  0
  2  1  1  6
  2  3  1  0
  2 13  1  0
  3  4  1  0
  4 12  1  0
  4  5  2  0
  5  6  1  0
  7  8  2  0
  7  6  1  0
  9  8  1  0
 10  9  2  0
 11 10  1  0
 11 12  2  0
 12  7  1  0
 13 20  1  0
 14 13  2  0
 16 17  1  0
 16 15  1  0
 18 17  1  0
 19 18  1  1
 20 19  1  0
 21 22  2  0
 21 19  1  0
 23 24  1  0
 25 24  1  6
 25 27  1  0
 25 26  1  0
 26 21  1  0
 27 29  1  0
 28 27  2  0
M  END
$$$$
