WMS.pdb
     RDKit          3D

 29 30  0  0  1  0  0  0  0  0999 V2000
    7.2495  -18.5135   24.9616 N   0  0  0  0  0  0  0  0  0  0  0  0
    7.1546  -17.3584   24.1169 C   0  0  1  0  0  0  0  0  0  0  0  0
    7.9847  -16.2492   24.7647 C   0  0  0  0  0  0  0  0  0  0  0  0
    7.1855  -15.3196   25.5585 C   0  0  0  0  0  0  0  0  0  0  0  0
    5.9856  -15.5427   26.1934 C   0  0  0  0  0  0  0  0  0  0  0  0
    5.5918  -14.4276   26.8122 N   0  0  0  0  0  0  0  0  0  0  0  0
    6.5039  -13.4401   26.6121 C   0  0  0  0  0  0  0  0  0  0  0  0
    6.5826  -12.1165   27.0226 C   0  0  0  0  0  0  0  0  0  0  0  0
    7.6864  -11.3860   26.6200 C   0  0  0  0  0  0  0  0  0  0  0  0
    8.6959  -11.9097   25.8401 C   0  0  0  0  0  0  0  0  0  0  0  0
    8.5873  -13.2269   25.4496 C   0  0  0  0  0  0  0  0  0  0  0  0
    7.5025  -14.0066   25.8239 C   0  0  0  0  0  0  0  0  0  0  0  0
    7.7728  -17.5999   22.7883 C   0  0  0  0  0  0  0  0  0  0  0  0
    8.2395  -18.7451   22.5848 O   0  0  0  0  0  0  0  0  0  0  0  0
    8.0297  -11.8284   20.4559 C   0  0  0  0  0  0  0  0  0  0  0  0
    7.4046  -13.5043   20.6736 S   0  0  0  0  0  0  0  0  0  0  0  0
    8.0432  -14.5834   19.3749 C   0  0  0  0  0  0  0  0  0  0  0  0
    7.5427  -15.9715   19.4473 C   0  0  0  0  0  0  0  0  0  0  0  0
    8.2195  -16.9005   20.4118 C   0  0  2  0  0  0  0  0  0  0  0  0
    7.8559  -16.6101   21.7607 N   0  0  0  0  0  0  0  0  0  0  0  0
    9.6919  -16.9344   20.2137 C   0  0  0  0  0  0  0  0  0  0  0  0
   10.2265  -17.2807   19.1275 O   0  0  0  0  0  0  0  0  0  0  0  0
   13.8896  -15.1936   21.0096 O   0  0  0  0  0  0  0  0  0  0  0  0
   12.4916  -15.1932   21.1292 C   0  0  0  0  0  0  0  0  0  0  0  0
   12.0126  -16.6308   21.1434 C   0  0  2  0  0  0  0  0  0  0  0  0
   10.5548  -16.5689   21.2676 N   0  0  0  0  0  0  0  0  0  0  0  0
   12.5936  -17.2585   22.3729 C   0  0  0  0  0  0  0  0  0  0  0  0
   11.9120  -17.5332   23.3725 O   0  0  0  0  0  0  0  0  0  0  0  0
   13.9541  -17.5304   22.3586 O   0  0  0  0  0  0  0  0  0  0  0  0
  2  1  1  1
  2  3  1  0
  2 13  1  0
  3  4  1  0
  4 12  1  0
  4  5  2  0
  5  6  1  0
  7  8  2  0
  7  6  1  0
  9  8  1  0
 10  9  2  0
 11 10  1  0
 11 12  2  0
 12  7  1  0
 13 20  1  0
 14 13  2  0
 16 17  1  0
 16 15  1  0
 18 17  1  0
 19 18  1  6
 20 19  1  0
 21 22  2  0
 21 19  1  0
 23 24  1  0
 25 24  1  1
 25 27  1  0
 25 26  1  0
 26 21  1  0
 27 29  1  0
 28 27  2  0
M  END
$$$$
