WMS.pdb
     RDKit          3D

 29 30  0  0  1  0  0  0  0  0999 V2000
    6.1768  -17.7458   24.2535 N   0  0  0  0  0  0  0  0  0  0  0  0
    6.9387  -16.7403   23.5714 C   0  0  1  0  0  0  0  0  0  0  0  0
    7.7987  -16.0303   24.6180 C   0  0  0  0  0  0  0  0  0  0  0  0
    7.0207  -15.2143   25.5464 C   0  0  0  0  0  0  0  0  0  0  0  0
    6.0015  -15.6018   26.3852 C   0  0  0  0  0  0  0  0  0  0  0  0
    5.5580  -14.5451   27.0695 N   0  0  0  0  0  0  0  0  0  0  0  0
    6.2578  -13.4358   26.7133 C   0  0  0  0  0  0  0  0  0  0  0  0
    6.2045  -12.1063   27.1089 C   0  0  0  0  0  0  0  0  0  0  0  0
    7.0940  -11.2267   26.5180 C   0  0  0  0  0  0  0  0  0  0  0  0
    8.0167  -11.6094   25.5675 C   0  0  0  0  0  0  0  0  0  0  0  0
    8.0435  -12.9365   25.1970 C   0  0  0  0  0  0  0  0  0  0  0  0
    7.1749  -13.8627   25.7564 C   0  0  0  0  0  0  0  0  0  0  0  0
    7.8941  -17.3395   22.6050 C   0  0  0  0  0  0  0  0  0  0  0  0
    7.4494  -18.2466   21.8634 O   0  0  0  0  0  0  0  0  0  0  0  0
    8.4063  -12.0823   19.9805 C   0  0  0  0  0  0  0  0  0  0  0  0
    7.1177  -13.3367   19.8657 S   0  0  0  0  0  0  0  0  0  0  0  0
    7.7694  -14.9487   20.3509 C   0  0  0  0  0  0  0  0  0  0  0  0
    8.9326  -14.8776   21.2591 C   0  0  0  0  0  0  0  0  0  0  0  0
    9.7552  -16.1212   21.4266 C   0  0  2  0  0  0  0  0  0  0  0  0
    9.2603  -16.9370   22.4876 N   0  0  0  0  0  0  0  0  0  0  0  0
   11.2028  -15.8175   21.5695 C   0  0  0  0  0  0  0  0  0  0  0  0
   11.8626  -15.2084   20.6868 O   0  0  0  0  0  0  0  0  0  0  0  0
   14.8080  -18.0528   23.8333 O   0  0  0  0  0  0  0  0  0  0  0  0
   13.4906  -17.5710   23.8636 C   0  0  0  0  0  0  0  0  0  0  0  0
   13.3056  -16.6120   22.7050 C   0  0  2  0  0  0  0  0  0  0  0  0
   11.8964  -16.2147   22.7314 N   0  0  0  0  0  0  0  0  0  0  0  0
   13.5818  -17.3954   21.4588 C   0  0  0  0  0  0  0  0  0  0  0  0
   12.7502  -18.1630   20.9503 O   0  0  0  0  0  0  0  0  0  0  0  0
   14.8298  -17.2314   20.8751 O   0  0  0  0  0  0  0  0  0  0  0  0
  2  1  1  1
  2  3  1  0
  2 13  1  0
  3  4  1  0
  4 12  1  0
  4  5  2  0
  5  6  1  0
  7  8  2  0
  7  6  1  0
  9  8  1  0
 10  9  2  0
 11 10  1  0
 11 12  2  0
 12  7  1  0
 13 20  1  0
 14 13  2  0
 16 17  1  0
 16 15  1  0
 18 17  1  0
 19 18  1  1
 20 19  1  0
 21 22  2  0
 21 19  1  0
 23 24  1  0
 25 24  1  1
 25 27  1  0
 25 26  1  0
 26 21  1  0
 27 29  1  0
 28 27  2  0
M  END
$$$$
