WMS.pdb
     RDKit          3D

 29 30  0  0  1  0  0  0  0  0999 V2000
    6.7579  -17.7054   25.6964 N   0  0  0  0  0  0  0  0  0  0  0  0
    7.2272  -16.5620   24.9690 C   0  0  1  0  0  0  0  0  0  0  0  0
    8.5340  -16.1096   25.6223 C   0  0  0  0  0  0  0  0  0  0  0  0
    8.3389  -15.1148   26.6736 C   0  0  0  0  0  0  0  0  0  0  0  0
    8.8561  -15.0983   27.9483 C   0  0  0  0  0  0  0  0  0  0  0  0
    8.4322  -14.0073   28.5899 N   0  0  0  0  0  0  0  0  0  0  0  0
    7.6305  -13.2728   27.7746 C   0  0  0  0  0  0  0  0  0  0  0  0
    6.9427  -12.0781   27.9370 C   0  0  0  0  0  0  0  0  0  0  0  0
    6.2044  -11.6135   26.8631 C   0  0  0  0  0  0  0  0  0  0  0  0
    6.1247  -12.2772   25.6570 C   0  0  0  0  0  0  0  0  0  0  0  0
    6.8194  -13.4605   25.5286 C   0  0  0  0  0  0  0  0  0  0  0  0
    7.5758  -13.9736   26.5725 C   0  0  0  0  0  0  0  0  0  0  0  0
    7.5774  -16.9105   23.5684 C   0  0  0  0  0  0  0  0  0  0  0  0
    7.7498  -18.1262   23.3176 O   0  0  0  0  0  0  0  0  0  0  0  0
    6.5561  -12.0617   19.6568 C   0  0  0  0  0  0  0  0  0  0  0  0
    8.2707  -12.5368   19.3715 S   0  0  0  0  0  0  0  0  0  0  0  0
    8.7378  -13.8854   20.4769 C   0  0  0  0  0  0  0  0  0  0  0  0
    7.9760  -15.1323   20.2585 C   0  0  0  0  0  0  0  0  0  0  0  0
    8.2080  -16.2609   21.2196 C   0  0  2  0  0  0  0  0  0  0  0  0
    7.7218  -15.9461   22.5237 N   0  0  0  0  0  0  0  0  0  0  0  0
    9.6276  -16.7002   21.2319 C   0  0  0  0  0  0  0  0  0  0  0  0
   10.5059  -16.1505   21.9474 O   0  0  0  0  0  0  0  0  0  0  0  0
   10.2929  -19.5349   18.7483 O   0  0  0  0  0  0  0  0  0  0  0  0
   11.4344  -19.5049   19.5636 C   0  0  0  0  0  0  0  0  0  0  0  0
   11.4405  -18.1974   20.3296 C   0  0  2  0  0  0  0  0  0  0  0  0
   10.0409  -17.7758   20.4188 N   0  0  0  0  0  0  0  0  0  0  0  0
   12.2055  -17.2196   19.4920 C   0  0  0  0  0  0  0  0  0  0  0  0
   11.6745  -16.2341   18.9571 O   0  0  0  0  0  0  0  0  0  0  0  0
   13.5628  -17.4566   19.3285 O   0  0  0  0  0  0  0  0  0  0  0  0
  2  1  1  1
  2  3  1  0
  2 13  1  0
  3  4  1  0
  4 12  1  0
  4  5  2  0
  5  6  1  0
  7  8  2  0
  7  6  1  0
  9  8  1  0
 10  9  2  0
 11 10  1  0
 11 12  2  0
 12  7  1  0
 13 20  1  0
 14 13  2  0
 16 17  1  0
 16 15  1  0
 18 17  1  0
 19 18  1  6
 20 19  1  0
 21 22  2  0
 21 19  1  0
 23 24  1  0
 25 24  1  6
 25 27  1  0
 25 26  1  0
 26 21  1  0
 27 29  1  0
 28 27  2  0
M  END
$$$$
