WMS.pdb
     RDKit          3D

 29 30  0  0  1  0  0  0  0  0999 V2000
    6.2965  -18.7265   25.2979 N   0  0  0  0  0  0  0  0  0  0  0  0
    6.6393  -17.4558   24.7283 C   0  0  1  0  0  0  0  0  0  0  0  0
    7.4169  -16.6746   25.7886 C   0  0  0  0  0  0  0  0  0  0  0  0
    6.7818  -15.4118   26.1557 C   0  0  0  0  0  0  0  0  0  0  0  0
    5.4441  -15.1402   26.3272 C   0  0  0  0  0  0  0  0  0  0  0  0
    5.2865  -13.8582   26.6637 N   0  0  0  0  0  0  0  0  0  0  0  0
    6.4971  -13.2437   26.7263 C   0  0  0  0  0  0  0  0  0  0  0  0
    6.8948  -11.9476   27.0239 C   0  0  0  0  0  0  0  0  0  0  0  0
    8.2498  -11.6702   26.9900 C   0  0  0  0  0  0  0  0  0  0  0  0
    9.2067  -12.6128   26.6781 C   0  0  0  0  0  0  0  0  0  0  0  0
    8.7785  -13.8901   26.3877 C   0  0  0  0  0  0  0  0  0  0  0  0
    7.4322  -14.2247   26.4062 C   0  0  0  0  0  0  0  0  0  0  0  0
    7.5664  -17.6042   23.5776 C   0  0  0  0  0  0  0  0  0  0  0  0
    8.6251  -18.2415   23.7867 O   0  0  0  0  0  0  0  0  0  0  0  0
    8.4842  -12.4567   19.0007 C   0  0  0  0  0  0  0  0  0  0  0  0
    7.8387  -12.5077   20.6823 S   0  0  0  0  0  0  0  0  0  0  0  0
    8.3524  -14.0311   21.5032 C   0  0  0  0  0  0  0  0  0  0  0  0
    7.9439  -15.2619   20.7955 C   0  0  0  0  0  0  0  0  0  0  0  0
    8.3311  -16.5740   21.4119 C   0  0  2  0  0  0  0  0  0  0  0  0
    7.3101  -17.0667   22.2784 N   0  0  0  0  0  0  0  0  0  0  0  0
    9.6589  -16.5081   22.0760 C   0  0  0  0  0  0  0  0  0  0  0  0
    9.8984  -15.7446   23.0482 O   0  0  0  0  0  0  0  0  0  0  0  0
   12.0500  -19.4023   21.5561 O   0  0  0  0  0  0  0  0  0  0  0  0
   12.6974  -18.4319   22.3358 C   0  0  0  0  0  0  0  0  0  0  0  0
   12.1110  -17.0765   21.9960 C   0  0  2  0  0  0  0  0  0  0  0  0
   10.7167  -17.3227   21.6219 N   0  0  0  0  0  0  0  0  0  0  0  0
   12.8677  -16.5743   20.8051 C   0  0  0  0  0  0  0  0  0  0  0  0
   12.3466  -16.4375   19.6874 O   0  0  0  0  0  0  0  0  0  0  0  0
   14.2052  -16.2584   20.9958 O   0  0  0  0  0  0  0  0  0  0  0  0
  2  1  1  1
  2  3  1  0
  2 13  1  0
  3  4  1  0
  4 12  1  0
  4  5  2  0
  5  6  1  0
  7  8  2  0
  7  6  1  0
  9  8  1  0
 10  9  2  0
 11 10  1  0
 11 12  2  0
 12  7  1  0
 13 20  1  0
 14 13  2  0
 16 17  1  0
 16 15  1  0
 18 17  1  0
 19 18  1  1
 20 19  1  0
 21 22  2  0
 21 19  1  0
 23 24  1  0
 25 24  1  6
 25 27  1  0
 25 26  1  0
 26 21  1  0
 27 29  1  0
 28 27  2  0
M  END
$$$$
