WMS.pdb
     RDKit          3D

 29 30  0  0  1  0  0  0  0  0999 V2000
    6.7918  -19.0945   25.0294 N   0  0  0  0  0  0  0  0  0  0  0  0
    6.7322  -17.7081   24.6671 C   0  0  1  0  0  0  0  0  0  0  0  0
    7.4180  -16.9150   25.7806 C   0  0  0  0  0  0  0  0  0  0  0  0
    6.8219  -15.6004   26.0032 C   0  0  0  0  0  0  0  0  0  0  0  0
    5.4935  -15.2715   26.1441 C   0  0  0  0  0  0  0  0  0  0  0  0
    5.3753  -13.9556   26.3338 N   0  0  0  0  0  0  0  0  0  0  0  0
    6.6038  -13.3743   26.3255 C   0  0  0  0  0  0  0  0  0  0  0  0
    7.0409  -12.0653   26.4744 C   0  0  0  0  0  0  0  0  0  0  0  0
    8.4033  -11.8340   26.4083 C   0  0  0  0  0  0  0  0  0  0  0  0
    9.3306  -12.8339   26.2040 C   0  0  0  0  0  0  0  0  0  0  0  0
    8.8637  -14.1225   26.0601 C   0  0  0  0  0  0  0  0  0  0  0  0
    7.5081  -14.4126   26.1175 C   0  0  0  0  0  0  0  0  0  0  0  0
    7.5141  -17.4305   23.4353 C   0  0  0  0  0  0  0  0  0  0  0  0
    8.2000  -18.3753   22.9796 O   0  0  0  0  0  0  0  0  0  0  0  0
    7.3579  -11.7629   20.2077 C   0  0  0  0  0  0  0  0  0  0  0  0
    8.2318  -12.8330   19.0509 S   0  0  0  0  0  0  0  0  0  0  0  0
    7.8131  -14.5615   19.3598 C   0  0  0  0  0  0  0  0  0  0  0  0
    7.3894  -14.8381   20.7479 C   0  0  0  0  0  0  0  0  0  0  0  0
    8.0727  -15.9635   21.4675 C   0  0  2  0  0  0  0  0  0  0  0  0
    7.5177  -16.1678   22.7661 N   0  0  0  0  0  0  0  0  0  0  0  0
    9.5483  -15.7908   21.4996 C   0  0  0  0  0  0  0  0  0  0  0  0
   10.2420  -15.6521   20.4580 O   0  0  0  0  0  0  0  0  0  0  0  0
   11.2899  -16.5425   24.9566 O   0  0  0  0  0  0  0  0  0  0  0  0
   12.0003  -15.5232   24.3046 C   0  0  0  0  0  0  0  0  0  0  0  0
   11.6803  -15.5888   22.8248 C   0  0  2  0  0  0  0  0  0  0  0  0
   10.2309  -15.7771   22.7336 N   0  0  0  0  0  0  0  0  0  0  0  0
   12.3774  -16.8037   22.2945 C   0  0  0  0  0  0  0  0  0  0  0  0
   11.7690  -17.7601   21.7899 O   0  0  0  0  0  0  0  0  0  0  0  0
   13.7615  -16.8267   22.3873 O   0  0  0  0  0  0  0  0  0  0  0  0
  2  1  1  1
  2  3  1  0
  2 13  1  0
  3  4  1  0
  4 12  1  0
  4  5  2  0
  5  6  1  0
  7  8  2  0
  7  6  1  0
  9  8  1  0
 10  9  2  0
 11 10  1  0
 11 12  2  0
 12  7  1  0
 13 20  1  0
 14 13  2  0
 16 17  1  0
 16 15  1  0
 18 17  1  0
 19 18  1  1
 20 19  1  0
 21 22  2  0
 21 19  1  0
 23 24  1  0
 25 24  1  1
 25 27  1  0
 25 26  1  0
 26 21  1  0
 27 29  1  0
 28 27  2  0
M  END
$$$$
