WMS.pdb
     RDKit          3D

 29 30  0  0  1  0  0  0  0  0999 V2000
    6.6044  -17.4247   25.7125 N   0  0  0  0  0  0  0  0  0  0  0  0
    7.0059  -16.3525   24.8488 C   0  0  1  0  0  0  0  0  0  0  0  0
    8.3125  -15.7835   25.4037 C   0  0  0  0  0  0  0  0  0  0  0  0
    8.1108  -14.8387   26.4990 C   0  0  0  0  0  0  0  0  0  0  0  0
    8.4820  -14.9599   27.8182 C   0  0  0  0  0  0  0  0  0  0  0  0
    8.1101  -13.8684   28.4904 N   0  0  0  0  0  0  0  0  0  0  0  0
    7.4882  -12.9978   27.6524 C   0  0  0  0  0  0  0  0  0  0  0  0
    6.9202  -11.7437   27.8296 C   0  0  0  0  0  0  0  0  0  0  0  0
    6.3606  -11.1323   26.7219 C   0  0  0  0  0  0  0  0  0  0  0  0
    6.3439  -11.7075   25.4688 C   0  0  0  0  0  0  0  0  0  0  0  0
    6.9162  -12.9531   25.3268 C   0  0  0  0  0  0  0  0  0  0  0  0
    7.4918  -13.6130   26.4031 C   0  0  0  0  0  0  0  0  0  0  0  0
    7.3276  -16.8411   23.4836 C   0  0  0  0  0  0  0  0  0  0  0  0
    7.6379  -18.0507   23.3776 O   0  0  0  0  0  0  0  0  0  0  0  0
    8.3833  -11.2742   19.1657 C   0  0  0  0  0  0  0  0  0  0  0  0
    7.6180  -12.8785   18.8701 S   0  0  0  0  0  0  0  0  0  0  0  0
    8.0700  -14.0374   20.1783 C   0  0  0  0  0  0  0  0  0  0  0  0
    7.5274  -15.3984   19.9889 C   0  0  0  0  0  0  0  0  0  0  0  0
    7.8232  -16.4142   21.0528 C   0  0  2  0  0  0  0  0  0  0  0  0
    7.2992  -16.0142   22.3184 N   0  0  0  0  0  0  0  0  0  0  0  0
    9.2691  -16.7512   21.1159 C   0  0  0  0  0  0  0  0  0  0  0  0
   10.1012  -16.0677   21.7686 O   0  0  0  0  0  0  0  0  0  0  0  0
   10.1798  -20.0139   19.2390 O   0  0  0  0  0  0  0  0  0  0  0  0
   11.2945  -19.6507   20.0099 C   0  0  0  0  0  0  0  0  0  0  0  0
   11.1934  -18.1730   20.3299 C   0  0  2  0  0  0  0  0  0  0  0  0
    9.7623  -17.8783   20.4265 N   0  0  0  0  0  0  0  0  0  0  0  0
   11.7765  -17.4452   19.1580 C   0  0  0  0  0  0  0  0  0  0  0  0
   11.0884  -16.7695   18.3774 O   0  0  0  0  0  0  0  0  0  0  0  0
   13.1466  -17.5530   18.9675 O   0  0  0  0  0  0  0  0  0  0  0  0
  2  1  1  1
  2  3  1  0
  2 13  1  0
  3  4  1  0
  4 12  1  0
  4  5  2  0
  5  6  1  0
  7  8  2  0
  7  6  1  0
  9  8  1  0
 10  9  2  0
 11 10  1  0
 11 12  2  0
 12  7  1  0
 13 20  1  0
 14 13  2  0
 16 17  1  0
 16 15  1  0
 18 17  1  0
 19 18  1  6
 20 19  1  0
 21 22  2  0
 21 19  1  0
 23 24  1  0
 25 24  1  6
 25 27  1  0
 25 26  1  0
 26 21  1  0
 27 29  1  0
 28 27  2  0
M  END
$$$$
