WMS.pdb
     RDKit          3D

 29 30  0  0  1  0  0  0  0  0999 V2000
    6.5400  -17.4369   24.9996 N   0  0  0  0  0  0  0  0  0  0  0  0
    7.0934  -16.1683   24.6238 C   0  0  1  0  0  0  0  0  0  0  0  0
    8.3031  -15.9127   25.5241 C   0  0  0  0  0  0  0  0  0  0  0  0
    8.0267  -14.9746   26.6088 C   0  0  0  0  0  0  0  0  0  0  0  0
    8.1724  -15.1604   27.9641 C   0  0  0  0  0  0  0  0  0  0  0  0
    7.8097  -14.0502   28.6102 N   0  0  0  0  0  0  0  0  0  0  0  0
    7.4165  -13.1030   27.7185 C   0  0  0  0  0  0  0  0  0  0  0  0
    6.9549  -11.8007   27.8515 C   0  0  0  0  0  0  0  0  0  0  0  0
    6.6394  -11.1121   26.6937 C   0  0  0  0  0  0  0  0  0  0  0  0
    6.7626  -11.6570   25.4329 C   0  0  0  0  0  0  0  0  0  0  0  0
    7.2237  -12.9520   25.3358 C   0  0  0  0  0  0  0  0  0  0  0  0
    7.5550  -13.6897   26.4632 C   0  0  0  0  0  0  0  0  0  0  0  0
    7.6224  -16.1915   23.2363 C   0  0  0  0  0  0  0  0  0  0  0  0
    7.4186  -17.2358   22.5740 O   0  0  0  0  0  0  0  0  0  0  0  0
    7.0592  -14.2915   17.8012 C   0  0  0  0  0  0  0  0  0  0  0  0
    7.0517  -12.7785   18.7798 S   0  0  0  0  0  0  0  0  0  0  0  0
    7.4661  -13.1436   20.4984 C   0  0  0  0  0  0  0  0  0  0  0  0
    8.7938  -13.7666   20.6769 C   0  0  0  0  0  0  0  0  0  0  0  0
    8.8391  -15.1279   21.3063 C   0  0  2  0  0  0  0  0  0  0  0  0
    8.3337  -15.1045   22.6405 N   0  0  0  0  0  0  0  0  0  0  0  0
   10.1916  -15.7374   21.2203 C   0  0  0  0  0  0  0  0  0  0  0  0
   10.7801  -15.9409   20.1259 O   0  0  0  0  0  0  0  0  0  0  0  0
   11.5884  -17.1394   24.6093 O   0  0  0  0  0  0  0  0  0  0  0  0
   12.6757  -16.7428   23.8162 C   0  0  0  0  0  0  0  0  0  0  0  0
   12.2193  -16.6883   22.3722 C   0  0  2  0  0  0  0  0  0  0  0  0
   10.8719  -16.1152   22.3965 N   0  0  0  0  0  0  0  0  0  0  0  0
   12.1518  -18.1065   21.8957 C   0  0  0  0  0  0  0  0  0  0  0  0
   11.0834  -18.6678   21.6077 O   0  0  0  0  0  0  0  0  0  0  0  0
   13.3532  -18.7914   21.7834 O   0  0  0  0  0  0  0  0  0  0  0  0
  2  1  1  1
  2  3  1  0
  2 13  1  0
  3  4  1  0
  4 12  1  0
  4  5  2  0
  5  6  1  0
  7  8  2  0
  7  6  1  0
  9  8  1  0
 10  9  2  0
 11 10  1  0
 11 12  2  0
 12  7  1  0
 13 20  1  0
 14 13  2  0
 16 17  1  0
 16 15  1  0
 18 17  1  0
 19 18  1  1
 20 19  1  0
 21 22  2  0
 21 19  1  0
 23 24  1  0
 25 24  1  1
 25 27  1  0
 25 26  1  0
 26 21  1  0
 27 29  1  0
 28 27  2  0
M  END
$$$$
