WMS.pdb
     RDKit          3D

 29 30  0  0  1  0  0  0  0  0999 V2000
    6.6029  -18.4273   24.5514 N   0  0  0  0  0  0  0  0  0  0  0  0
    6.9707  -17.1182   24.0957 C   0  0  1  0  0  0  0  0  0  0  0  0
    7.8939  -16.5092   25.1521 C   0  0  0  0  0  0  0  0  0  0  0  0
    7.2380  -15.4986   25.9776 C   0  0  0  0  0  0  0  0  0  0  0  0
    6.2728  -15.6710   26.9427 C   0  0  0  0  0  0  0  0  0  0  0  0
    5.9420  -14.4868   27.4622 N   0  0  0  0  0  0  0  0  0  0  0  0
    6.6661  -13.5020   26.8683 C   0  0  0  0  0  0  0  0  0  0  0  0
    6.7140  -12.1240   27.0285 C   0  0  0  0  0  0  0  0  0  0  0  0
    7.5957  -11.4171   26.2304 C   0  0  0  0  0  0  0  0  0  0  0  0
    8.4161  -12.0149   25.2971 C   0  0  0  0  0  0  0  0  0  0  0  0
    8.3441  -13.3846   25.1630 C   0  0  0  0  0  0  0  0  0  0  0  0
    7.4782  -14.1438   25.9367 C   0  0  0  0  0  0  0  0  0  0  0  0
    7.7730  -17.1788   22.8473 C   0  0  0  0  0  0  0  0  0  0  0  0
    8.4783  -18.2014   22.6810 O   0  0  0  0  0  0  0  0  0  0  0  0
    8.3480  -12.5086   18.0300 C   0  0  0  0  0  0  0  0  0  0  0  0
    6.9451  -12.8282   19.1147 S   0  0  0  0  0  0  0  0  0  0  0  0
    7.4664  -13.8069   20.5392 C   0  0  0  0  0  0  0  0  0  0  0  0
    8.7391  -14.5297   20.3379 C   0  0  0  0  0  0  0  0  0  0  0  0
    8.8991  -15.8522   21.0284 C   0  0  2  0  0  0  0  0  0  0  0  0
    7.7749  -16.1501   21.8552 N   0  0  0  0  0  0  0  0  0  0  0  0
   10.1873  -15.9454   21.7635 C   0  0  0  0  0  0  0  0  0  0  0  0
   10.7016  -14.9666   22.3659 O   0  0  0  0  0  0  0  0  0  0  0  0
   13.7285  -18.6959   23.4391 O   0  0  0  0  0  0  0  0  0  0  0  0
   12.3819  -18.4959   23.0995 C   0  0  0  0  0  0  0  0  0  0  0  0
   12.2862  -17.2548   22.2352 C   0  0  2  0  0  0  0  0  0  0  0  0
   10.8884  -17.1683   21.8072 N   0  0  0  0  0  0  0  0  0  0  0  0
   13.1603  -17.4999   21.0441 C   0  0  0  0  0  0  0  0  0  0  0  0
   12.7261  -17.9569   19.9754 O   0  0  0  0  0  0  0  0  0  0  0  0
   14.5066  -17.1918   21.1765 O   0  0  0  0  0  0  0  0  0  0  0  0
  2  1  1  1
  2  3  1  0
  2 13  1  0
  3  4  1  0
  4 12  1  0
  4  5  2  0
  5  6  1  0
  7  8  2  0
  7  6  1  0
  9  8  1  0
 10  9  2  0
 11 10  1  0
 11 12  2  0
 12  7  1  0
 13 20  1  0
 14 13  2  0
 16 17  1  0
 16 15  1  0
 18 17  1  0
 19 18  1  1
 20 19  1  0
 21 22  2  0
 21 19  1  0
 23 24  1  0
 25 24  1  1
 25 27  1  0
 25 26  1  0
 26 21  1  0
 27 29  1  0
 28 27  2  0
M  END
$$$$
