WMS.pdb
     RDKit          3D

 29 30  0  0  1  0  0  0  0  0999 V2000
    6.3730  -17.2331   25.1937 N   0  0  0  0  0  0  0  0  0  0  0  0
    7.2766  -16.2464   24.6774 C   0  0  1  0  0  0  0  0  0  0  0  0
    8.4442  -16.1377   25.6592 C   0  0  0  0  0  0  0  0  0  0  0  0
    8.2751  -15.0689   26.6401 C   0  0  0  0  0  0  0  0  0  0  0  0
    8.7322  -15.0116   27.9364 C   0  0  0  0  0  0  0  0  0  0  0  0
    8.3615  -13.8558   28.4916 N   0  0  0  0  0  0  0  0  0  0  0  0
    7.6556  -13.1170   27.5956 C   0  0  0  0  0  0  0  0  0  0  0  0
    7.0521  -11.8683   27.6536 C   0  0  0  0  0  0  0  0  0  0  0  0
    6.4015  -11.4185   26.5185 C   0  0  0  0  0  0  0  0  0  0  0  0
    6.3287  -12.1474   25.3502 C   0  0  0  0  0  0  0  0  0  0  0  0
    6.9384  -13.3831   25.3258 C   0  0  0  0  0  0  0  0  0  0  0  0
    7.6048  -13.8843   26.4347 C   0  0  0  0  0  0  0  0  0  0  0  0
    7.8747  -16.6742   23.3870 C   0  0  0  0  0  0  0  0  0  0  0  0
    7.8472  -17.9013   23.1336 O   0  0  0  0  0  0  0  0  0  0  0  0
    6.5914  -11.6531   19.2896 C   0  0  0  0  0  0  0  0  0  0  0  0
    7.9299  -12.8300   19.0245 S   0  0  0  0  0  0  0  0  0  0  0  0
    7.8947  -14.1132   20.2936 C   0  0  0  0  0  0  0  0  0  0  0  0
    8.9932  -15.0952   20.1855 C   0  0  0  0  0  0  0  0  0  0  0  0
    9.0483  -16.1861   21.2142 C   0  0  2  0  0  0  0  0  0  0  0  0
    8.4635  -15.7718   22.4481 N   0  0  0  0  0  0  0  0  0  0  0  0
   10.4239  -16.7209   21.3871 C   0  0  0  0  0  0  0  0  0  0  0  0
   11.2948  -16.1482   22.0935 O   0  0  0  0  0  0  0  0  0  0  0  0
   11.4692  -20.6433   20.8323 O   0  0  0  0  0  0  0  0  0  0  0  0
   12.1593  -19.7326   20.0180 C   0  0  0  0  0  0  0  0  0  0  0  0
   12.1879  -18.3900   20.7202 C   0  0  2  0  0  0  0  0  0  0  0  0
   10.8016  -17.9189   20.7461 N   0  0  0  0  0  0  0  0  0  0  0  0
   13.0100  -17.4800   19.8604 C   0  0  0  0  0  0  0  0  0  0  0  0
   12.5133  -16.7504   18.9884 O   0  0  0  0  0  0  0  0  0  0  0  0
   14.3807  -17.4783   20.0753 O   0  0  0  0  0  0  0  0  0  0  0  0
  2  1  1  1
  2  3  1  0
  2 13  1  0
  3  4  1  0
  4 12  1  0
  4  5  2  0
  5  6  1  0
  7  8  2  0
  7  6  1  0
  9  8  1  0
 10  9  2  0
 11 10  1  0
 11 12  2  0
 12  7  1  0
 13 20  1  0
 14 13  2  0
 16 17  1  0
 16 15  1  0
 18 17  1  0
 19 18  1  6
 20 19  1  0
 21 22  2  0
 21 19  1  0
 23 24  1  0
 25 24  1  6
 25 27  1  0
 25 26  1  0
 26 21  1  0
 27 29  1  0
 28 27  2  0
M  END
$$$$
