WMS.pdb
     RDKit          3D

 29 30  0  0  1  0  0  0  0  0999 V2000
   10.4689  -17.8484   23.5876 N   0  0  0  0  0  0  0  0  0  0  0  0
    9.5217  -17.0281   24.2853 C   0  0  1  0  0  0  0  0  0  0  0  0
   10.2474  -15.7495   24.7065 C   0  0  0  0  0  0  0  0  0  0  0  0
   10.1043  -15.4469   26.1281 C   0  0  0  0  0  0  0  0  0  0  0  0
   10.6269  -16.1212   27.2074 C   0  0  0  0  0  0  0  0  0  0  0  0
   10.2581  -15.5133   28.3370 N   0  0  0  0  0  0  0  0  0  0  0  0
    9.4891  -14.4301   28.0502 C   0  0  0  0  0  0  0  0  0  0  0  0
    8.8597  -13.4725   28.8336 C   0  0  0  0  0  0  0  0  0  0  0  0
    8.1402  -12.4858   28.1835 C   0  0  0  0  0  0  0  0  0  0  0  0
    8.0240  -12.4149   26.8112 C   0  0  0  0  0  0  0  0  0  0  0  0
    8.6609  -13.3808   26.0626 C   0  0  0  0  0  0  0  0  0  0  0  0
    9.3961  -14.3938   26.6613 C   0  0  0  0  0  0  0  0  0  0  0  0
    8.4175  -16.5890   23.3944 C   0  0  0  0  0  0  0  0  0  0  0  0
    7.2997  -16.4076   23.9314 O   0  0  0  0  0  0  0  0  0  0  0  0
    9.1460  -11.7438   19.9031 C   0  0  0  0  0  0  0  0  0  0  0  0
    7.5194  -12.3689   20.3616 S   0  0  0  0  0  0  0  0  0  0  0  0
    7.6798  -13.9143   21.2807 C   0  0  0  0  0  0  0  0  0  0  0  0
    7.0570  -15.0766   20.6146 C   0  0  0  0  0  0  0  0  0  0  0  0
    7.4933  -16.4422   21.0576 C   0  0  2  0  0  0  0  0  0  0  0  0
    8.5707  -16.3704   21.9904 N   0  0  0  0  0  0  0  0  0  0  0  0
    7.7951  -17.3322   19.9064 C   0  0  0  0  0  0  0  0  0  0  0  0
    6.9250  -17.6777   19.0644 O   0  0  0  0  0  0  0  0  0  0  0  0
   11.7164  -18.3219   18.1052 O   0  0  0  0  0  0  0  0  0  0  0  0
   10.4060  -17.9825   17.7360 C   0  0  0  0  0  0  0  0  0  0  0  0
    9.4459  -18.7417   18.6293 C   0  0  2  0  0  0  0  0  0  0  0  0
    9.1024  -17.8278   19.7208 N   0  0  0  0  0  0  0  0  0  0  0  0
   10.2087  -19.9092   19.1752 C   0  0  0  0  0  0  0  0  0  0  0  0
   10.4191  -20.0659   20.3879 O   0  0  0  0  0  0  0  0  0  0  0  0
   10.6854  -20.8347   18.2581 O   0  0  0  0  0  0  0  0  0  0  0  0
  2  1  1  6
  2  3  1  0
  2 13  1  0
  3  4  1  0
  4 12  1  0
  4  5  2  0
  5  6  1  0
  7  8  2  0
  7  6  1  0
  9  8  1  0
 10  9  2  0
 11 10  1  0
 11 12  2  0
 12  7  1  0
 13 20  1  0
 14 13  2  0
 16 17  1  0
 16 15  1  0
 18 17  1  0
 19 18  1  6
 20 19  1  0
 21 22  2  0
 21 19  1  0
 23 24  1  0
 25 24  1  6
 25 27  1  0
 25 26  1  0
 26 21  1  0
 27 29  1  0
 28 27  2  0
M  END
$$$$
