WHV.pdb
     RDKit          3D

 32 34  0  0  1  0  0  0  0  0999 V2000
   10.1083  -16.5804   21.1143 N   0  0  0  0  0  0  0  0  0  0  0  0
    9.5125  -15.8250   22.1664 C   0  0  1  0  0  0  0  0  0  0  0  0
    8.0367  -15.8006   22.0428 C   0  0  0  0  0  0  0  0  0  0  0  0
    7.4139  -14.4835   22.2500 C   0  0  0  0  0  0  0  0  0  0  0  0
    7.0041  -13.5270   21.3739 C   0  0  0  0  0  0  0  0  0  0  0  0
    6.5019  -12.5055   22.0497 N   0  0  0  0  0  0  0  0  0  0  0  0
    6.5670  -12.7586   23.3672 C   0  0  0  0  0  0  0  0  0  0  0  0
    6.1804  -12.0216   24.4658 C   0  0  0  0  0  0  0  0  0  0  0  0
    6.3803  -12.5584   25.7119 C   0  0  0  0  0  0  0  0  0  0  0  0
    6.9506  -13.8005   25.8990 C   0  0  0  0  0  0  0  0  0  0  0  0
    7.3353  -14.5339   24.8023 C   0  0  0  0  0  0  0  0  0  0  0  0
    7.1378  -14.0003   23.5310 C   0  0  0  0  0  0  0  0  0  0  0  0
   10.0119  -16.2151   23.5071 C   0  0  0  0  0  0  0  0  0  0  0  0
   10.6817  -17.2821   23.5835 O   0  0  0  0  0  0  0  0  0  0  0  0
    9.7647  -15.4459   24.6696 N   0  0  0  0  0  0  0  0  0  0  0  0
   10.3845  -15.8155   25.9086 C   0  0  1  0  0  0  0  0  0  0  0  0
    9.9967  -14.8609   27.0370 C   0  0  0  0  0  0  0  0  0  0  0  0
   10.6499  -15.2312   28.3151 C   0  0  0  0  0  0  0  0  0  0  0  0
   11.8508  -14.7676   28.8103 C   0  0  0  0  0  0  0  0  0  0  0  0
   12.1057  -15.3369   29.9979 N   0  0  0  0  0  0  0  0  0  0  0  0
   11.0883  -16.1626   30.2809 C   0  0  0  0  0  0  0  0  0  0  0  0
   10.1944  -16.0986   29.2490 N   0  0  0  0  0  0  0  0  0  0  0  0
   10.0166  -17.2023   26.3221 C   0  0  0  0  0  0  0  0  0  0  0  0
    8.8288  -17.6030   26.2552 O   0  0  0  0  0  0  0  0  0  0  0  0
   12.9320  -20.4272   26.5475 C   0  0  0  0  0  0  0  0  0  0  0  0
   11.4445  -20.5085   26.4384 C   0  0  2  0  0  0  0  0  0  0  0  0
   10.9413  -20.5585   25.0125 C   0  0  0  0  0  0  0  0  0  0  0  0
   10.7168  -19.4591   27.2505 C   0  0  2  0  0  0  0  0  0  0  0  0
   10.9975  -18.1123   26.8044 N   0  0  0  0  0  0  0  0  0  0  0  0
   11.0995  -19.5786   28.6797 C   0  0  0  0  0  0  0  0  0  0  0  0
   11.7492  -18.6785   29.2515 O   0  0  0  0  0  0  0  0  0  0  0  0
   10.7273  -20.7218   29.4089 O   0  0  0  0  0  0  0  0  0  0  0  0
  2  1  1  6
  3  2  1  0
  3  4  1  0
  4  5  2  0
  5  6  1  0
  7  6  1  0
  8  7  2  0
  9  8  1  0
 10 11  1  0
 10  9  2  0
 11 12  2  0
 12  4  1  0
 12  7  1  0
 13  2  1  0
 13 14  2  0
 15 13  1  0
 16 15  1  0
 16 17  1  1
 18 22  1  0
 18 17  1  0
 19 18  2  0
 20 19  1  0
 20 21  1  0
 21 22  2  0
 23 16  1  0
 24 23  2  0
 26 25  1  6
 27 26  1  0
 28 26  1  0
 28 29  1  6
 29 23  1  0
 30 28  1  0
 31 30  2  0
 32 30  1  0
M  END
$$$$
