WHV.pdb
     RDKit          3D

 32 34  0  0  1  0  0  0  0  0999 V2000
    6.3851  -17.5791   24.4308 N   0  0  0  0  0  0  0  0  0  0  0  0
    7.4442  -16.6267   24.3693 C   0  0  1  0  0  0  0  0  0  0  0  0
    7.5155  -15.8199   25.6093 C   0  0  0  0  0  0  0  0  0  0  0  0
    6.4155  -14.8601   25.7945 C   0  0  0  0  0  0  0  0  0  0  0  0
    5.1048  -15.0347   26.1141 C   0  0  0  0  0  0  0  0  0  0  0  0
    4.5086  -13.8537   26.1627 N   0  0  0  0  0  0  0  0  0  0  0  0
    5.3969  -12.8864   25.8810 C   0  0  0  0  0  0  0  0  0  0  0  0
    5.2714  -11.5159   25.8050 C   0  0  0  0  0  0  0  0  0  0  0  0
    6.3832  -10.7779   25.4885 C   0  0  0  0  0  0  0  0  0  0  0  0
    7.6112  -11.3579   25.2461 C   0  0  0  0  0  0  0  0  0  0  0  0
    7.7343  -12.7245   25.3225 C   0  0  0  0  0  0  0  0  0  0  0  0
    6.6128  -13.4858   25.6430 C   0  0  0  0  0  0  0  0  0  0  0  0
    8.7335  -17.2283   23.9509 C   0  0  0  0  0  0  0  0  0  0  0  0
    8.8938  -18.4598   24.1762 O   0  0  0  0  0  0  0  0  0  0  0  0
    9.7595  -16.4807   23.3244 N   0  0  0  0  0  0  0  0  0  0  0  0
   11.1048  -16.9767   23.3348 C   0  0  1  0  0  0  0  0  0  0  0  0
   11.9706  -16.2732   22.2906 C   0  0  0  0  0  0  0  0  0  0  0  0
   11.4182  -16.4338   20.9244 C   0  0  0  0  0  0  0  0  0  0  0  0
   11.6994  -17.4333   20.0165 C   0  0  0  0  0  0  0  0  0  0  0  0
   11.0021  -17.2348   18.8879 N   0  0  0  0  0  0  0  0  0  0  0  0
   10.2726  -16.1218   19.0497 C   0  0  0  0  0  0  0  0  0  0  0  0
   10.5272  -15.6296   20.2991 N   0  0  0  0  0  0  0  0  0  0  0  0
   11.7502  -16.8046   24.6703 C   0  0  0  0  0  0  0  0  0  0  0  0
   12.9694  -16.5219   24.7672 O   0  0  0  0  0  0  0  0  0  0  0  0
   10.8942  -14.1833   27.0240 C   0  0  0  0  0  0  0  0  0  0  0  0
   10.7731  -15.4480   27.8095 C   0  0  2  0  0  0  0  0  0  0  0  0
   11.1154  -15.2889   29.2745 C   0  0  0  0  0  0  0  0  0  0  0  0
   11.5018  -16.6209   27.1902 C   0  0  2  0  0  0  0  0  0  0  0  0
   11.0064  -16.9552   25.8732 N   0  0  0  0  0  0  0  0  0  0  0  0
   11.3696  -17.8113   28.0670 C   0  0  0  0  0  0  0  0  0  0  0  0
   10.7519  -18.8277   27.6867 O   0  0  0  0  0  0  0  0  0  0  0  0
   11.9472  -17.8020   29.3489 O   0  0  0  0  0  0  0  0  0  0  0  0
  2  1  1  1
  3  2  1  0
  3  4  1  0
  4  5  2  0
  5  6  1  0
  7  6  1  0
  8  7  2  0
  9  8  1  0
 10 11  1  0
 10  9  2  0
 11 12  2  0
 12  4  1  0
 12  7  1  0
 13  2  1  0
 13 14  2  0
 15 13  1  0
 16 15  1  0
 16 17  1  6
 18 22  1  0
 18 17  1  0
 19 18  2  0
 20 19  1  0
 20 21  1  0
 21 22  2  0
 23 16  1  0
 24 23  2  0
 26 25  1  6
 27 26  1  0
 28 26  1  0
 28 29  1  6
 29 23  1  0
 30 28  1  0
 31 30  2  0
 32 30  1  0
M  END
$$$$
