WHV.pdb
     RDKit          3D

 32 34  0  0  1  0  0  0  0  0999 V2000
    6.6182  -17.2004   24.2323 N   0  0  0  0  0  0  0  0  0  0  0  0
    7.7969  -16.3988   24.2582 C   0  0  1  0  0  0  0  0  0  0  0  0
    7.8714  -15.5905   25.4971 C   0  0  0  0  0  0  0  0  0  0  0  0
    6.7689  -14.6343   25.6865 C   0  0  0  0  0  0  0  0  0  0  0  0
    5.4854  -14.8025   26.1047 C   0  0  0  0  0  0  0  0  0  0  0  0
    4.8728  -13.6290   26.1089 N   0  0  0  0  0  0  0  0  0  0  0  0
    5.7231  -12.6730   25.7002 C   0  0  0  0  0  0  0  0  0  0  0  0
    5.5685  -11.3134   25.5354 C   0  0  0  0  0  0  0  0  0  0  0  0
    6.6437  -10.5857   25.0935 C   0  0  0  0  0  0  0  0  0  0  0  0
    7.8632  -11.1655   24.8114 C   0  0  0  0  0  0  0  0  0  0  0  0
    8.0155  -12.5213   24.9765 C   0  0  0  0  0  0  0  0  0  0  0  0
    6.9313  -13.2721   25.4247 C   0  0  0  0  0  0  0  0  0  0  0  0
    9.0244  -17.1731   23.9532 C   0  0  0  0  0  0  0  0  0  0  0  0
    9.0590  -18.3733   24.3422 O   0  0  0  0  0  0  0  0  0  0  0  0
   10.1262  -16.6188   23.2583 N   0  0  0  0  0  0  0  0  0  0  0  0
   11.4524  -17.0783   23.5514 C   0  0  1  0  0  0  0  0  0  0  0  0
   12.4513  -16.6258   22.4873 C   0  0  0  0  0  0  0  0  0  0  0  0
   11.9751  -16.9439   21.1201 C   0  0  0  0  0  0  0  0  0  0  0  0
   12.0719  -18.1487   20.4556 C   0  0  0  0  0  0  0  0  0  0  0  0
   11.5247  -18.0428   19.2354 N   0  0  0  0  0  0  0  0  0  0  0  0
   11.0743  -16.7877   19.0981 C   0  0  0  0  0  0  0  0  0  0  0  0
   11.3501  -16.1125   20.2540 N   0  0  0  0  0  0  0  0  0  0  0  0
   11.9294  -16.5887   24.8790 C   0  0  0  0  0  0  0  0  0  0  0  0
   12.8309  -15.7189   24.9613 O   0  0  0  0  0  0  0  0  0  0  0  0
    9.6258  -16.0448   28.4105 C   0  0  0  0  0  0  0  0  0  0  0  0
   11.0060  -15.6178   28.0313 C   0  0  2  0  0  0  0  0  0  0  0  0
   11.0445  -14.3565   27.1968 C   0  0  0  0  0  0  0  0  0  0  0  0
   11.8358  -16.7218   27.4126 C   0  0  2  0  0  0  0  0  0  0  0  0
   11.3795  -17.0909   26.0908 N   0  0  0  0  0  0  0  0  0  0  0  0
   11.7991  -17.9231   28.2836 C   0  0  0  0  0  0  0  0  0  0  0  0
   11.2775  -18.9882   27.8928 O   0  0  0  0  0  0  0  0  0  0  0  0
   12.3594  -17.8687   29.5721 O   0  0  0  0  0  0  0  0  0  0  0  0
  2  1  1  1
  3  2  1  0
  3  4  1  0
  4  5  2  0
  5  6  1  0
  7  6  1  0
  8  7  2  0
  9  8  1  0
 10 11  1  0
 10  9  2  0
 11 12  2  0
 12  4  1  0
 12  7  1  0
 13  2  1  0
 13 14  2  0
 15 13  1  0
 16 15  1  0
 16 17  1  6
 18 22  1  0
 18 17  1  0
 19 18  2  0
 20 19  1  0
 20 21  1  0
 21 22  2  0
 23 16  1  0
 24 23  2  0
 26 25  1  6
 27 26  1  0
 28 26  1  0
 28 29  1  6
 29 23  1  0
 30 28  1  0
 31 30  2  0
 32 30  1  0
M  END
$$$$
