WHV.pdb
     RDKit          3D

 32 34  0  0  1  0  0  0  0  0999 V2000
    6.5095  -17.2705   24.9659 N   0  0  0  0  0  0  0  0  0  0  0  0
    7.5844  -16.3906   24.6451 C   0  0  1  0  0  0  0  0  0  0  0  0
    7.7396  -15.3337   25.6710 C   0  0  0  0  0  0  0  0  0  0  0  0
    6.5654  -14.4664   25.8573 C   0  0  0  0  0  0  0  0  0  0  0  0
    5.2563  -14.7517   26.0930 C   0  0  0  0  0  0  0  0  0  0  0  0
    4.5750  -13.6204   26.1850 N   0  0  0  0  0  0  0  0  0  0  0  0
    5.4043  -12.5776   26.0149 C   0  0  0  0  0  0  0  0  0  0  0  0
    5.1844  -11.2170   26.0205 C   0  0  0  0  0  0  0  0  0  0  0  0
    6.2546  -10.3846   25.8133 C   0  0  0  0  0  0  0  0  0  0  0  0
    7.5316  -10.8613   25.6014 C   0  0  0  0  0  0  0  0  0  0  0  0
    7.7489  -12.2183   25.5963 C   0  0  0  0  0  0  0  0  0  0  0  0
    6.6706  -13.0747   25.8055 C   0  0  0  0  0  0  0  0  0  0  0  0
    8.8359  -17.1119   24.3096 C   0  0  0  0  0  0  0  0  0  0  0  0
    9.0465  -18.2055   24.9034 O   0  0  0  0  0  0  0  0  0  0  0  0
    9.7736  -16.6213   23.3693 N   0  0  0  0  0  0  0  0  0  0  0  0
   11.1166  -17.1235   23.3799 C   0  0  1  0  0  0  0  0  0  0  0  0
   11.8975  -16.6640   22.1495 C   0  0  0  0  0  0  0  0  0  0  0  0
   13.2271  -17.3148   22.0715 C   0  0  0  0  0  0  0  0  0  0  0  0
   14.2430  -17.2649   23.0029 C   0  0  0  0  0  0  0  0  0  0  0  0
   15.2923  -17.9820   22.5735 N   0  0  0  0  0  0  0  0  0  0  0  0
   14.9725  -18.4964   21.3777 C   0  0  0  0  0  0  0  0  0  0  0  0
   13.7054  -18.0877   21.0686 N   0  0  0  0  0  0  0  0  0  0  0  0
   11.8633  -16.6877   24.5974 C   0  0  0  0  0  0  0  0  0  0  0  0
   12.8651  -15.9368   24.5068 O   0  0  0  0  0  0  0  0  0  0  0  0
    9.9814  -16.0628   28.3315 C   0  0  0  0  0  0  0  0  0  0  0  0
   11.3211  -15.6115   27.8493 C   0  0  2  0  0  0  0  0  0  0  0  0
   11.2799  -14.3234   27.0570 C   0  0  0  0  0  0  0  0  0  0  0  0
   12.1010  -16.6875   27.1250 C   0  0  2  0  0  0  0  0  0  0  0  0
   11.4648  -17.1084   25.8963 N   0  0  0  0  0  0  0  0  0  0  0  0
   12.2622  -17.8691   28.0089 C   0  0  0  0  0  0  0  0  0  0  0  0
   12.8604  -17.7812   29.1014 O   0  0  0  0  0  0  0  0  0  0  0  0
   11.7347  -19.1119   27.6162 O   0  0  0  0  0  0  0  0  0  0  0  0
  2  1  1  1
  3  2  1  0
  3  4  1  0
  4  5  2  0
  5  6  1  0
  7  6  1  0
  8  7  2  0
  9  8  1  0
 10 11  1  0
 10  9  2  0
 11 12  2  0
 12  4  1  0
 12  7  1  0
 13  2  1  0
 13 14  2  0
 15 13  1  0
 16 15  1  0
 16 17  1  6
 18 22  1  0
 18 17  1  0
 19 18  2  0
 20 19  1  0
 20 21  1  0
 21 22  2  0
 23 16  1  0
 24 23  2  0
 26 25  1  6
 27 26  1  0
 28 26  1  0
 28 29  1  6
 29 23  1  0
 30 28  1  0
 31 30  2  0
 32 30  1  0
M  END
$$$$
