WHV.pdb
     RDKit          3D

 32 34  0  0  1  0  0  0  0  0999 V2000
    5.6506  -17.1995   24.1323 N   0  0  0  0  0  0  0  0  0  0  0  0
    6.7337  -16.3020   24.3644 C   0  0  1  0  0  0  0  0  0  0  0  0
    6.8703  -15.9839   25.8046 C   0  0  0  0  0  0  0  0  0  0  0  0
    6.0663  -14.8432   26.2715 C   0  0  0  0  0  0  0  0  0  0  0  0
    4.8039  -14.7693   26.7730 C   0  0  0  0  0  0  0  0  0  0  0  0
    4.5205  -13.5065   27.0516 N   0  0  0  0  0  0  0  0  0  0  0  0
    5.5720  -12.7287   26.7457 C   0  0  0  0  0  0  0  0  0  0  0  0
    5.7712  -11.3688   26.8491 C   0  0  0  0  0  0  0  0  0  0  0  0
    6.9782  -10.8562   26.4473 C   0  0  0  0  0  0  0  0  0  0  0  0
    7.9893  -11.6506   25.9477 C   0  0  0  0  0  0  0  0  0  0  0  0
    7.7887  -13.0063   25.8454 C   0  0  0  0  0  0  0  0  0  0  0  0
    6.5674  -13.5398   26.2501 C   0  0  0  0  0  0  0  0  0  0  0  0
    7.9903  -16.7370   23.7079 C   0  0  0  0  0  0  0  0  0  0  0  0
    8.2321  -17.9756   23.6919 O   0  0  0  0  0  0  0  0  0  0  0  0
    8.8995  -15.8274   23.1164 N   0  0  0  0  0  0  0  0  0  0  0  0
   10.2264  -16.2625   22.7913 C   0  0  1  0  0  0  0  0  0  0  0  0
   10.8538  -15.3886   21.7062 C   0  0  0  0  0  0  0  0  0  0  0  0
    9.8627  -15.0037   20.6733 C   0  0  0  0  0  0  0  0  0  0  0  0
    8.5729  -15.4710   20.5309 C   0  0  0  0  0  0  0  0  0  0  0  0
    7.9881  -14.8843   19.4758 N   0  0  0  0  0  0  0  0  0  0  0  0
    8.8788  -14.0432   18.9315 C   0  0  0  0  0  0  0  0  0  0  0  0
   10.0295  -14.1157   19.6656 N   0  0  0  0  0  0  0  0  0  0  0  0
   11.1249  -16.2446   23.9838 C   0  0  0  0  0  0  0  0  0  0  0  0
   12.3585  -16.4456   23.8666 O   0  0  0  0  0  0  0  0  0  0  0  0
    9.6839  -15.1195   28.1257 C   0  0  0  0  0  0  0  0  0  0  0  0
   10.9543  -14.7938   27.4107 C   0  0  2  0  0  0  0  0  0  0  0  0
   10.9366  -13.4464   26.7230 C   0  0  0  0  0  0  0  0  0  0  0  0
   11.4262  -15.8895   26.4795 C   0  0  2  0  0  0  0  0  0  0  0  0
   10.6136  -15.9999   25.2883 N   0  0  0  0  0  0  0  0  0  0  0  0
   11.4104  -17.1919   27.1913 C   0  0  0  0  0  0  0  0  0  0  0  0
   10.6911  -18.1338   26.7980 O   0  0  0  0  0  0  0  0  0  0  0  0
   12.2167  -17.3760   28.3285 O   0  0  0  0  0  0  0  0  0  0  0  0
  2  1  1  1
  3  2  1  0
  3  4  1  0
  4  5  2  0
  5  6  1  0
  7  6  1  0
  8  7  2  0
  9  8  1  0
 10 11  1  0
 10  9  2  0
 11 12  2  0
 12  4  1  0
 12  7  1  0
 13  2  1  0
 13 14  2  0
 15 13  1  0
 16 15  1  0
 16 17  1  6
 18 22  1  0
 18 17  1  0
 19 18  2  0
 20 19  1  0
 20 21  1  0
 21 22  2  0
 23 16  1  0
 24 23  2  0
 26 25  1  6
 27 26  1  0
 28 26  1  0
 28 29  1  6
 29 23  1  0
 30 28  1  0
 31 30  2  0
 32 30  1  0
M  END
$$$$
