WHV.pdb
     RDKit          3D

 32 34  0  0  1  0  0  0  0  0999 V2000
    6.5078  -17.2717   24.3326 N   0  0  0  0  0  0  0  0  0  0  0  0
    7.6705  -16.4495   24.4002 C   0  0  1  0  0  0  0  0  0  0  0  0
    7.7508  -15.7357   25.6955 C   0  0  0  0  0  0  0  0  0  0  0  0
    6.7024  -14.7276   25.9195 C   0  0  0  0  0  0  0  0  0  0  0  0
    5.4294  -14.8327   26.3874 C   0  0  0  0  0  0  0  0  0  0  0  0
    4.8730  -13.6316   26.4059 N   0  0  0  0  0  0  0  0  0  0  0  0
    5.7509  -12.7192   25.9578 C   0  0  0  0  0  0  0  0  0  0  0  0
    5.6539  -11.3548   25.7885 C   0  0  0  0  0  0  0  0  0  0  0  0
    6.7443  -10.6811   25.3005 C   0  0  0  0  0  0  0  0  0  0  0  0
    7.9236  -11.3194   24.9767 C   0  0  0  0  0  0  0  0  0  0  0  0
    8.0184  -12.6799   25.1463 C   0  0  0  0  0  0  0  0  0  0  0  0
    6.9182  -13.3761   25.6412 C   0  0  0  0  0  0  0  0  0  0  0  0
    8.9076  -17.1723   24.0175 C   0  0  0  0  0  0  0  0  0  0  0  0
    8.9462  -18.4115   24.2534 O   0  0  0  0  0  0  0  0  0  0  0  0
   10.0142  -16.5288   23.4130 N   0  0  0  0  0  0  0  0  0  0  0  0
   11.3311  -17.0668   23.5918 C   0  0  1  0  0  0  0  0  0  0  0  0
   12.2970  -16.5536   22.5248 C   0  0  0  0  0  0  0  0  0  0  0  0
   11.7657  -16.7686   21.1577 C   0  0  0  0  0  0  0  0  0  0  0  0
   11.2582  -17.9363   20.6274 C   0  0  0  0  0  0  0  0  0  0  0  0
   10.8763  -17.7334   19.3576 N   0  0  0  0  0  0  0  0  0  0  0  0
   11.1283  -16.4518   19.0559 C   0  0  0  0  0  0  0  0  0  0  0  0
   11.6740  -15.8588   20.1598 N   0  0  0  0  0  0  0  0  0  0  0  0
   11.8927  -16.7275   24.9331 C   0  0  0  0  0  0  0  0  0  0  0  0
   13.0390  -16.2285   25.0464 O   0  0  0  0  0  0  0  0  0  0  0  0
    9.3546  -15.7873   28.4020 C   0  0  0  0  0  0  0  0  0  0  0  0
   10.7270  -15.3837   27.9723 C   0  0  2  0  0  0  0  0  0  0  0  0
   10.7459  -14.1991   27.0316 C   0  0  0  0  0  0  0  0  0  0  0  0
   11.5602  -16.5306   27.4423 C   0  0  2  0  0  0  0  0  0  0  0  0
   11.1490  -16.9582   26.1234 N   0  0  0  0  0  0  0  0  0  0  0  0
   11.4681  -17.6860   28.3696 C   0  0  0  0  0  0  0  0  0  0  0  0
   10.8986  -18.7437   28.0286 O   0  0  0  0  0  0  0  0  0  0  0  0
   12.0294  -17.5957   29.6557 O   0  0  0  0  0  0  0  0  0  0  0  0
  2  1  1  1
  3  2  1  0
  3  4  1  0
  4  5  2  0
  5  6  1  0
  7  6  1  0
  8  7  2  0
  9  8  1  0
 10 11  1  0
 10  9  2  0
 11 12  2  0
 12  4  1  0
 12  7  1  0
 13  2  1  0
 13 14  2  0
 15 13  1  0
 16 15  1  0
 16 17  1  6
 18 22  1  0
 18 17  1  0
 19 18  2  0
 20 19  1  0
 20 21  1  0
 21 22  2  0
 23 16  1  0
 24 23  2  0
 26 25  1  6
 27 26  1  0
 28 26  1  0
 28 29  1  6
 29 23  1  0
 30 28  1  0
 31 30  2  0
 32 30  1  0
M  END
$$$$
