WHV.pdb
     RDKit          3D

 32 34  0  0  1  0  0  0  0  0999 V2000
    6.2362  -17.1953   23.6387 N   0  0  0  0  0  0  0  0  0  0  0  0
    7.2255  -16.1830   23.4681 C   0  0  1  0  0  0  0  0  0  0  0  0
    7.7620  -15.7292   24.7719 C   0  0  0  0  0  0  0  0  0  0  0  0
    6.8319  -14.9313   25.5867 C   0  0  0  0  0  0  0  0  0  0  0  0
    5.7300  -15.2780   26.3051 C   0  0  0  0  0  0  0  0  0  0  0  0
    5.2221  -14.1946   26.8714 N   0  0  0  0  0  0  0  0  0  0  0  0
    5.9644  -13.1235   26.5458 C   0  0  0  0  0  0  0  0  0  0  0  0
    5.8515  -11.7906   26.8781 C   0  0  0  0  0  0  0  0  0  0  0  0
    6.7830  -10.9155   26.3807 C   0  0  0  0  0  0  0  0  0  0  0  0
    7.8193  -11.3228   25.5663 C   0  0  0  0  0  0  0  0  0  0  0  0
    7.9302  -12.6523   25.2363 C   0  0  0  0  0  0  0  0  0  0  0  0
    6.9907  -13.5516   25.7348 C   0  0  0  0  0  0  0  0  0  0  0  0
    8.2596  -16.5532   22.4717 C   0  0  0  0  0  0  0  0  0  0  0  0
    8.5509  -17.7772   22.3725 O   0  0  0  0  0  0  0  0  0  0  0  0
    8.9102  -15.5989   21.6532 N   0  0  0  0  0  0  0  0  0  0  0  0
   10.0588  -15.9875   20.8878 C   0  0  1  0  0  0  0  0  0  0  0  0
   10.3875  -14.9586   19.8071 C   0  0  0  0  0  0  0  0  0  0  0  0
    9.2162  -14.6810   18.9420 C   0  0  0  0  0  0  0  0  0  0  0  0
    8.4935  -15.5842   18.1909 C   0  0  0  0  0  0  0  0  0  0  0  0
    7.5048  -14.9512   17.5419 N   0  0  0  0  0  0  0  0  0  0  0  0
    7.5749  -13.6510   17.8606 C   0  0  0  0  0  0  0  0  0  0  0  0
    8.6247  -13.4841   18.7198 N   0  0  0  0  0  0  0  0  0  0  0  0
   11.2663  -16.1641   21.7483 C   0  0  0  0  0  0  0  0  0  0  0  0
   12.0802  -15.2240   21.9205 O   0  0  0  0  0  0  0  0  0  0  0  0
   11.3971  -19.1733   24.8318 C   0  0  0  0  0  0  0  0  0  0  0  0
   12.2245  -17.9363   24.7036 C   0  0  2  0  0  0  0  0  0  0  0  0
   11.6128  -16.7239   25.3703 C   0  0  0  0  0  0  0  0  0  0  0  0
   12.6529  -17.6356   23.2835 C   0  0  2  0  0  0  0  0  0  0  0  0
   11.5330  -17.4002   22.3992 N   0  0  0  0  0  0  0  0  0  0  0  0
   13.4520  -18.7679   22.7519 C   0  0  0  0  0  0  0  0  0  0  0  0
   12.9843  -19.5385   21.8877 O   0  0  0  0  0  0  0  0  0  0  0  0
   14.7587  -18.9829   23.2243 O   0  0  0  0  0  0  0  0  0  0  0  0
  2  1  1  1
  3  2  1  0
  3  4  1  0
  4  5  2  0
  5  6  1  0
  7  6  1  0
  8  7  2  0
  9  8  1  0
 10 11  1  0
 10  9  2  0
 11 12  2  0
 12  4  1  0
 12  7  1  0
 13  2  1  0
 13 14  2  0
 15 13  1  0
 16 15  1  0
 16 17  1  6
 18 22  1  0
 18 17  1  0
 19 18  2  0
 20 19  1  0
 20 21  1  0
 21 22  2  0
 23 16  1  0
 24 23  2  0
 26 25  1  6
 27 26  1  0
 28 26  1  0
 28 29  1  6
 29 23  1  0
 30 28  1  0
 31 30  2  0
 32 30  1  0
M  END
$$$$
