WHV.pdb
     RDKit          3D

 32 34  0  0  1  0  0  0  0  0999 V2000
    6.4963  -17.2239   24.1603 N   0  0  0  0  0  0  0  0  0  0  0  0
    7.6770  -16.4404   24.3167 C   0  0  1  0  0  0  0  0  0  0  0  0
    7.6978  -15.7538   25.6289 C   0  0  0  0  0  0  0  0  0  0  0  0
    6.6707  -14.7151   25.8070 C   0  0  0  0  0  0  0  0  0  0  0  0
    5.3716  -14.7841   26.2046 C   0  0  0  0  0  0  0  0  0  0  0  0
    4.8527  -13.5663   26.2062 N   0  0  0  0  0  0  0  0  0  0  0  0
    5.7815  -12.6780   25.8159 C   0  0  0  0  0  0  0  0  0  0  0  0
    5.7363  -11.3097   25.6566 C   0  0  0  0  0  0  0  0  0  0  0  0
    6.8720  -10.6664   25.2353 C   0  0  0  0  0  0  0  0  0  0  0  0
    8.0467  -11.3388   24.9686 C   0  0  0  0  0  0  0  0  0  0  0  0
    8.0897  -12.7031   25.1282 C   0  0  0  0  0  0  0  0  0  0  0  0
    6.9433  -13.3686   25.5555 C   0  0  0  0  0  0  0  0  0  0  0  0
    8.9130  -17.1948   23.9966 C   0  0  0  0  0  0  0  0  0  0  0  0
    8.9433  -18.4140   24.3215 O   0  0  0  0  0  0  0  0  0  0  0  0
   10.0274  -16.6019   23.3557 N   0  0  0  0  0  0  0  0  0  0  0  0
   11.3486  -17.0736   23.6517 C   0  0  1  0  0  0  0  0  0  0  0  0
   12.3489  -16.6536   22.5756 C   0  0  0  0  0  0  0  0  0  0  0  0
   11.9162  -17.0901   21.2267 C   0  0  0  0  0  0  0  0  0  0  0  0
   11.3239  -18.2867   20.8805 C   0  0  0  0  0  0  0  0  0  0  0  0
   11.0793  -18.3107   19.5618 N   0  0  0  0  0  0  0  0  0  0  0  0
   11.5036  -17.1480   19.0471 C   0  0  0  0  0  0  0  0  0  0  0  0
   12.0173  -16.3982   20.0679 N   0  0  0  0  0  0  0  0  0  0  0  0
   11.8377  -16.5668   24.9683 C   0  0  0  0  0  0  0  0  0  0  0  0
   12.4408  -15.4692   25.0547 O   0  0  0  0  0  0  0  0  0  0  0  0
    9.7905  -15.7570   28.1436 C   0  0  0  0  0  0  0  0  0  0  0  0
   11.2423  -15.5585   27.8540 C   0  0  2  0  0  0  0  0  0  0  0  0
   11.5181  -14.4548   26.8569 C   0  0  0  0  0  0  0  0  0  0  0  0
   11.9698  -16.8345   27.4895 C   0  0  2  0  0  0  0  0  0  0  0  0
   11.6369  -17.3094   26.1646 N   0  0  0  0  0  0  0  0  0  0  0  0
   11.6420  -17.8959   28.4741 C   0  0  0  0  0  0  0  0  0  0  0  0
   11.0237  -18.9253   28.1317 O   0  0  0  0  0  0  0  0  0  0  0  0
   12.0311  -17.7468   29.8170 O   0  0  0  0  0  0  0  0  0  0  0  0
  2  1  1  1
  3  2  1  0
  3  4  1  0
  4  5  2  0
  5  6  1  0
  7  6  1  0
  8  7  2  0
  9  8  1  0
 10 11  1  0
 10  9  2  0
 11 12  2  0
 12  4  1  0
 12  7  1  0
 13  2  1  0
 13 14  2  0
 15 13  1  0
 16 15  1  0
 16 17  1  6
 18 22  1  0
 18 17  1  0
 19 18  2  0
 20 19  1  0
 20 21  1  0
 21 22  2  0
 23 16  1  0
 24 23  2  0
 26 25  1  6
 27 26  1  0
 28 26  1  0
 28 29  1  6
 29 23  1  0
 30 28  1  0
 31 30  2  0
 32 30  1  0
M  END
$$$$
