YLV.pdb
     RDKit          3D

 28 28  0  0  1  0  0  0  0  0999 V2000
   28.2982  -13.1717  -17.7140 O   0  0  0  0  0  0  0  0  0  0  0  0
   27.6589  -14.3139  -17.2384 C   0  0  0  0  0  0  0  0  0  0  0  0
   27.2566  -14.3683  -15.9280 C   0  0  0  0  0  0  0  0  0  0  0  0
   26.6261  -15.4991  -15.4656 C   0  0  0  0  0  0  0  0  0  0  0  0
   26.4025  -16.5683  -16.3182 C   0  0  0  0  0  0  0  0  0  0  0  0
   25.7218  -17.7839  -15.8109 C   0  0  0  0  0  0  0  0  0  0  0  0
   26.6642  -18.6274  -14.9720 C   0  0  2  0  0  0  0  0  0  0  0  0
   27.6640  -19.2021  -15.8488 N   0  0  0  0  0  0  0  0  0  0  0  0
   25.8370  -19.7103  -14.3355 C   0  0  0  0  0  0  0  0  0  0  0  0
   25.6867  -20.8082  -14.9140 O   0  0  0  0  0  0  0  0  0  0  0  0
   26.8064  -16.5091  -17.6268 C   0  0  0  0  0  0  0  0  0  0  0  0
   27.4411  -15.3739  -18.0972 C   0  0  0  0  0  0  0  0  0  0  0  0
   26.2095  -22.2951  -10.9732 C   0  0  0  0  0  0  0  0  0  0  0  0
   25.9760  -20.8424  -10.5766 C   0  0  2  0  0  0  0  0  0  0  0  0
   26.1190  -20.7643   -9.0770 C   0  0  0  0  0  0  0  0  0  0  0  0
   24.5748  -20.4914  -10.9923 C   0  0  0  0  0  0  0  0  0  0  0  0
   24.3612  -20.5388  -12.4798 C   0  0  2  0  0  0  0  0  0  0  0  0
   25.2197  -19.5077  -13.0821 N   0  0  0  0  0  0  0  0  0  0  0  0
   22.9757  -20.2515  -12.8846 C   0  0  0  0  0  0  0  0  0  0  0  0
   22.3580  -19.2131  -12.5352 O   0  0  0  0  0  0  0  0  0  0  0  0
   19.2168  -20.8713  -15.9544 C   0  0  0  0  0  0  0  0  0  0  0  0
   20.6548  -21.1804  -15.6092 C   0  0  1  0  0  0  0  0  0  0  0  0
   21.6234  -20.4723  -16.5037 C   0  0  0  0  0  0  0  0  0  0  0  0
   20.8820  -20.8794  -14.1452 C   0  0  2  0  0  0  0  0  0  0  0  0
   22.2224  -21.1544  -13.7210 N   0  0  0  0  0  0  0  0  0  0  0  0
   19.8630  -21.5531  -13.3047 C   0  0  0  0  0  0  0  0  0  0  0  0
   18.7165  -20.9483  -12.8174 O   0  0  0  0  0  0  0  0  0  0  0  0
   20.0541  -22.7589  -13.0143 O   0  0  0  0  0  0  0  0  0  0  0  0
  2  1  1  0
  3  2  2  0
  4  3  1  0
  5  4  2  0
  5 11  1  0
  6  5  1  0
  7  9  1  0
  7  6  1  0
  7  8  1  6
  9 18  1  0
 10  9  2  0
 11 12  2  0
 12  2  1  0
 14 13  1  1
 14 15  1  0
 17 16  1  1
 16 14  1  0
 18 17  1  0
 19 17  1  0
 19 20  2  0
 22 21  1  6
 22 24  1  0
 23 22  1  0
 24 25  1  1
 24 26  1  0
 25 19  1  0
 26 27  1  0
 28 26  2  0
M  END
$$$$
