YLV.pdb
     RDKit          3D

 28 28  0  0  1  0  0  0  0  0999 V2000
   17.3530  -24.1074  -17.7520 O   0  0  0  0  0  0  0  0  0  0  0  0
   18.4169  -23.4402  -17.1501 C   0  0  0  0  0  0  0  0  0  0  0  0
   19.1996  -24.0997  -16.2365 C   0  0  0  0  0  0  0  0  0  0  0  0
   20.2482  -23.4347  -15.6464 C   0  0  0  0  0  0  0  0  0  0  0  0
   20.5065  -22.1134  -15.9747 C   0  0  0  0  0  0  0  0  0  0  0  0
   21.6395  -21.4040  -15.3333 C   0  0  0  0  0  0  0  0  0  0  0  0
   21.3426  -21.1075  -13.8748 C   0  0  2  0  0  0  0  0  0  0  0  0
   20.2561  -20.1510  -13.8165 N   0  0  0  0  0  0  0  0  0  0  0  0
   22.5937  -20.5200  -13.2817 C   0  0  0  0  0  0  0  0  0  0  0  0
   22.9076  -19.3347  -13.5245 O   0  0  0  0  0  0  0  0  0  0  0  0
   19.7215  -21.4588  -16.8881 C   0  0  0  0  0  0  0  0  0  0  0  0
   18.6654  -22.1231  -17.4847 C   0  0  0  0  0  0  0  0  0  0  0  0
   26.2790  -21.5889   -8.5624 C   0  0  0  0  0  0  0  0  0  0  0  0
   26.1561  -20.8382   -9.8827 C   0  0  2  0  0  0  0  0  0  0  0  0
   26.0211  -19.3735   -9.5485 C   0  0  0  0  0  0  0  0  0  0  0  0
   24.9133  -21.3415  -10.5623 C   0  0  0  0  0  0  0  0  0  0  0  0
   24.6967  -20.7521  -11.9283 C   0  0  2  0  0  0  0  0  0  0  0  0
   23.4301  -21.2914  -12.4459 N   0  0  0  0  0  0  0  0  0  0  0  0
   25.7519  -21.1001  -12.8933 C   0  0  0  0  0  0  0  0  0  0  0  0
   26.2109  -22.2642  -13.0209 O   0  0  0  0  0  0  0  0  0  0  0  0
   26.1692  -22.6745  -15.0512 C   0  0  0  0  0  0  0  0  0  0  0  0
   26.6149  -21.4481  -15.8125 C   0  0  1  0  0  0  0  0  0  0  0  0
   25.5131  -20.8491  -16.6292 C   0  0  0  0  0  0  0  0  0  0  0  0
   27.2249  -20.4637  -14.8406 C   0  0  2  0  0  0  0  0  0  0  0  0
   26.3392  -20.1157  -13.7698 N   0  0  0  0  0  0  0  0  0  0  0  0
   27.7566  -19.2785  -15.5556 C   0  0  0  0  0  0  0  0  0  0  0  0
   28.7587  -19.3166  -16.5105 O   0  0  0  0  0  0  0  0  0  0  0  0
   27.2619  -18.1599  -15.2744 O   0  0  0  0  0  0  0  0  0  0  0  0
  2  1  1  0
  3  2  2  0
  4  3  1  0
  5  4  2  0
  5 11  1  0
  6  5  1  0
  7  9  1  0
  7  6  1  0
  7  8  1  6
  9 18  1  0
 10  9  2  0
 11 12  2  0
 12  2  1  0
 14 13  1  1
 14 15  1  0
 17 16  1  1
 16 14  1  0
 18 17  1  0
 19 17  1  0
 19 20  2  0
 22 21  1  1
 22 24  1  0
 23 22  1  0
 24 25  1  1
 24 26  1  0
 25 19  1  0
 26 27  1  0
 28 26  2  0
M  END
$$$$
