YLV.pdb
     RDKit          3D

 28 28  0  0  1  0  0  0  0  0999 V2000
   15.9088  -24.4605  -12.7719 O   0  0  0  0  0  0  0  0  0  0  0  0
   17.0006  -23.6562  -13.0888 C   0  0  0  0  0  0  0  0  0  0  0  0
   18.1855  -24.2390  -13.4603 C   0  0  0  0  0  0  0  0  0  0  0  0
   19.2591  -23.4387  -13.7718 C   0  0  0  0  0  0  0  0  0  0  0  0
   19.1392  -22.0595  -13.7091 C   0  0  0  0  0  0  0  0  0  0  0  0
   20.3022  -21.2040  -14.0467 C   0  0  0  0  0  0  0  0  0  0  0  0
   21.2897  -21.1460  -12.8956 C   0  0  2  0  0  0  0  0  0  0  0  0
   20.6530  -20.4714  -11.7828 N   0  0  0  0  0  0  0  0  0  0  0  0
   22.4796  -20.3614  -13.3758 C   0  0  0  0  0  0  0  0  0  0  0  0
   22.4569  -19.1118  -13.3585 O   0  0  0  0  0  0  0  0  0  0  0  0
   17.9531  -21.4818  -13.3372 C   0  0  0  0  0  0  0  0  0  0  0  0
   16.8700  -22.2825  -13.0229 C   0  0  0  0  0  0  0  0  0  0  0  0
   28.4408  -21.2662  -14.0645 C   0  0  0  0  0  0  0  0  0  0  0  0
   27.2873  -20.3769  -14.5123 C   0  0  2  0  0  0  0  0  0  0  0  0
   27.5529  -18.9972  -13.9636 C   0  0  0  0  0  0  0  0  0  0  0  0
   26.0317  -20.9495  -13.9164 C   0  0  0  0  0  0  0  0  0  0  0  0
   24.7792  -20.2595  -14.3806 C   0  0  2  0  0  0  0  0  0  0  0  0
   23.6355  -21.0178  -13.8514 N   0  0  0  0  0  0  0  0  0  0  0  0
   24.6401  -20.2152  -15.8450 C   0  0  0  0  0  0  0  0  0  0  0  0
   24.3645  -21.2260  -16.5409 O   0  0  0  0  0  0  0  0  0  0  0  0
   22.2694  -18.3741  -17.9707 C   0  0  0  0  0  0  0  0  0  0  0  0
   23.6270  -17.9190  -18.4525 C   0  0  1  0  0  0  0  0  0  0  0  0
   23.9522  -16.5252  -18.0150 C   0  0  0  0  0  0  0  0  0  0  0  0
   24.6649  -18.9273  -18.0146 C   0  0  2  0  0  0  0  0  0  0  0  0
   24.8132  -18.9924  -16.5913 N   0  0  0  0  0  0  0  0  0  0  0  0
   25.9505  -18.6985  -18.7171 C   0  0  0  0  0  0  0  0  0  0  0  0
   26.2295  -19.1144  -20.0082 O   0  0  0  0  0  0  0  0  0  0  0  0
   26.8507  -18.0831  -18.0959 O   0  0  0  0  0  0  0  0  0  0  0  0
  2  1  1  0
  3  2  2  0
  4  3  1  0
  5  4  2  0
  5 11  1  0
  6  5  1  0
  7  9  1  0
  7  6  1  0
  7  8  1  1
  9 18  1  0
 10  9  2  0
 11 12  2  0
 12  2  1  0
 14 13  1  1
 14 15  1  0
 17 16  1  6
 16 14  1  0
 18 17  1  0
 19 17  1  0
 19 20  2  0
 22 21  1  1
 22 24  1  0
 23 22  1  0
 24 25  1  1
 24 26  1  0
 25 19  1  0
 26 27  1  0
 28 26  2  0
M  END
$$$$
