YLV.pdb
     RDKit          3D

 28 28  0  0  1  0  0  0  0  0999 V2000
   24.9656  -16.5644  -18.0148 O   0  0  0  0  0  0  0  0  0  0  0  0
   24.9695  -17.2864  -16.8240 C   0  0  0  0  0  0  0  0  0  0  0  0
   24.3685  -18.5187  -16.7775 C   0  0  0  0  0  0  0  0  0  0  0  0
   24.3763  -19.2257  -15.5985 C   0  0  0  0  0  0  0  0  0  0  0  0
   24.9858  -18.6942  -14.4732 C   0  0  0  0  0  0  0  0  0  0  0  0
   24.9895  -19.4637  -13.2058 C   0  0  0  0  0  0  0  0  0  0  0  0
   26.3958  -19.8965  -12.8340 C   0  0  2  0  0  0  0  0  0  0  0  0
   26.8471  -20.8666  -13.8107 N   0  0  0  0  0  0  0  0  0  0  0  0
   26.3171  -20.5217  -11.4683 C   0  0  0  0  0  0  0  0  0  0  0  0
   25.8491  -21.6725  -11.3301 O   0  0  0  0  0  0  0  0  0  0  0  0
   25.5850  -17.4624  -14.5246 C   0  0  0  0  0  0  0  0  0  0  0  0
   25.5800  -16.7470  -15.7082 C   0  0  0  0  0  0  0  0  0  0  0  0
   26.2603  -19.9250   -6.0750 C   0  0  0  0  0  0  0  0  0  0  0  0
   27.6314  -20.2070   -6.6771 C   0  0  2  0  0  0  0  0  0  0  0  0
   28.6426  -19.4563   -5.8470 C   0  0  0  0  0  0  0  0  0  0  0  0
   27.6110  -19.6826   -8.0858 C   0  0  0  0  0  0  0  0  0  0  0  0
   26.6436  -20.4062   -8.9807 C   0  0  2  0  0  0  0  0  0  0  0  0
   26.7673  -19.8249  -10.3260 N   0  0  0  0  0  0  0  0  0  0  0  0
   25.2388  -20.2639   -8.5656 C   0  0  0  0  0  0  0  0  0  0  0  0
   24.6611  -19.1514   -8.4629 O   0  0  0  0  0  0  0  0  0  0  0  0
   22.3776  -20.3696  -10.0150 C   0  0  0  0  0  0  0  0  0  0  0  0
   22.0786  -21.4322   -8.9836 C   0  0  1  0  0  0  0  0  0  0  0  0
   22.0721  -22.8106   -9.5666 C   0  0  0  0  0  0  0  0  0  0  0  0
   23.0510  -21.2868   -7.8351 C   0  0  2  0  0  0  0  0  0  0  0  0
   24.4187  -21.4067   -8.2441 N   0  0  0  0  0  0  0  0  0  0  0  0
   22.6990  -22.2073   -6.7273 C   0  0  0  0  0  0  0  0  0  0  0  0
   21.5434  -22.1241   -5.9688 O   0  0  0  0  0  0  0  0  0  0  0  0
   23.5075  -23.1286   -6.4581 O   0  0  0  0  0  0  0  0  0  0  0  0
  2  1  1  0
  3  2  2  0
  4  3  1  0
  5  4  2  0
  5 11  1  0
  6  5  1  0
  7  9  1  0
  7  6  1  0
  7  8  1  6
  9 18  1  0
 10  9  2  0
 11 12  2  0
 12  2  1  0
 14 13  1  1
 14 15  1  0
 17 16  1  1
 16 14  1  0
 18 17  1  0
 19 17  1  0
 19 20  2  0
 22 21  1  6
 22 24  1  0
 23 22  1  0
 24 25  1  6
 24 26  1  0
 25 19  1  0
 26 27  1  0
 28 26  2  0
M  END
$$$$
