YLV.pdb
     RDKit          3D

 28 28  0  0  1  0  0  0  0  0999 V2000
   30.5366  -27.8208  -17.5406 O   0  0  0  0  0  0  0  0  0  0  0  0
   30.0448  -26.5994  -17.0870 C   0  0  0  0  0  0  0  0  0  0  0  0
   28.6962  -26.4443  -16.8890 C   0  0  0  0  0  0  0  0  0  0  0  0
   28.2178  -25.2357  -16.4411 C   0  0  0  0  0  0  0  0  0  0  0  0
   29.0930  -24.1900  -16.1943 C   0  0  0  0  0  0  0  0  0  0  0  0
   28.5683  -22.8900  -15.7114 C   0  0  0  0  0  0  0  0  0  0  0  0
   27.8058  -22.1681  -16.8072 C   0  0  2  0  0  0  0  0  0  0  0  0
   28.7626  -21.4853  -17.6540 N   0  0  0  0  0  0  0  0  0  0  0  0
   26.8985  -21.1767  -16.1320 C   0  0  0  0  0  0  0  0  0  0  0  0
   27.3461  -20.0737  -15.7505 O   0  0  0  0  0  0  0  0  0  0  0  0
   30.4398  -24.3500  -16.3936 C   0  0  0  0  0  0  0  0  0  0  0  0
   30.9262  -25.5638  -16.8441 C   0  0  0  0  0  0  0  0  0  0  0  0
   21.3995  -19.1176  -16.6177 C   0  0  0  0  0  0  0  0  0  0  0  0
   22.5423  -19.2022  -15.6133 C   0  0  2  0  0  0  0  0  0  0  0  0
   23.0816  -17.8046  -15.4373 C   0  0  0  0  0  0  0  0  0  0  0  0
   23.5890  -20.1007  -16.2105 C   0  0  0  0  0  0  0  0  0  0  0  0
   24.6478  -20.5219  -15.2299 C   0  0  2  0  0  0  0  0  0  0  0  0
   25.5345  -21.4719  -15.9185 N   0  0  0  0  0  0  0  0  0  0  0  0
   24.1108  -21.2019  -14.0403 C   0  0  0  0  0  0  0  0  0  0  0  0
   23.3984  -22.2366  -14.1020 O   0  0  0  0  0  0  0  0  0  0  0  0
   26.0172  -21.8118  -10.6481 C   0  0  0  0  0  0  0  0  0  0  0  0
   24.6669  -21.2190  -10.3200 C   0  0  1  0  0  0  0  0  0  0  0  0
   24.7682  -19.8249   -9.7850 C   0  0  0  0  0  0  0  0  0  0  0  0
   23.7809  -21.3145  -11.5412 C   0  0  2  0  0  0  0  0  0  0  0  0
   24.3691  -20.7206  -12.7047 N   0  0  0  0  0  0  0  0  0  0  0  0
   22.4251  -20.7894  -11.2505 C   0  0  0  0  0  0  0  0  0  0  0  0
   21.8649  -19.6742  -11.8508 O   0  0  0  0  0  0  0  0  0  0  0  0
   21.7356  -21.4004  -10.3983 O   0  0  0  0  0  0  0  0  0  0  0  0
  2  1  1  0
  3  2  2  0
  4  3  1  0
  5  4  2  0
  5 11  1  0
  6  5  1  0
  7  9  1  0
  7  6  1  0
  7  8  1  6
  9 18  1  0
 10  9  2  0
 11 12  2  0
 12  2  1  0
 14 13  1  6
 14 15  1  0
 17 16  1  6
 16 14  1  0
 18 17  1  0
 19 17  1  0
 19 20  2  0
 22 21  1  6
 22 24  1  0
 23 22  1  0
 24 25  1  6
 24 26  1  0
 25 19  1  0
 26 27  1  0
 28 26  2  0
M  END
$$$$
