YLV.pdb
     RDKit          3D

 28 28  0  0  1  0  0  0  0  0999 V2000
   19.4487  -23.4307   -6.4899 O   0  0  0  0  0  0  0  0  0  0  0  0
   20.2158  -22.6534   -7.3540 C   0  0  0  0  0  0  0  0  0  0  0  0
   21.0269  -21.6724   -6.8424 C   0  0  0  0  0  0  0  0  0  0  0  0
   21.7813  -20.9089   -7.7015 C   0  0  0  0  0  0  0  0  0  0  0  0
   21.7187  -21.1326   -9.0676 C   0  0  0  0  0  0  0  0  0  0  0  0
   22.5359  -20.3044   -9.9868 C   0  0  0  0  0  0  0  0  0  0  0  0
   23.8446  -20.9942  -10.3256 C   0  0  2  0  0  0  0  0  0  0  0  0
   24.7406  -20.8512   -9.1962 N   0  0  0  0  0  0  0  0  0  0  0  0
   24.4075  -20.3003  -11.5354 C   0  0  0  0  0  0  0  0  0  0  0  0
   24.5204  -19.0555  -11.5500 O   0  0  0  0  0  0  0  0  0  0  0  0
   20.9067  -22.1140   -9.5741 C   0  0  0  0  0  0  0  0  0  0  0  0
   20.1457  -22.8849   -8.7142 C   0  0  0  0  0  0  0  0  0  0  0  0
   27.8619  -18.7900  -13.2511 C   0  0  0  0  0  0  0  0  0  0  0  0
   27.7633  -20.2820  -12.9576 C   0  0  2  0  0  0  0  0  0  0  0  0
   29.1473  -20.8584  -13.1235 C   0  0  0  0  0  0  0  0  0  0  0  0
   26.8216  -20.8697  -13.9713 C   0  0  0  0  0  0  0  0  0  0  0  0
   25.4095  -20.3713  -13.8373 C   0  0  2  0  0  0  0  0  0  0  0  0
   24.8154  -21.0373  -12.6684 N   0  0  0  0  0  0  0  0  0  0  0  0
   24.5631  -20.6825  -15.0003 C   0  0  0  0  0  0  0  0  0  0  0  0
   24.0868  -21.8260  -15.2185 O   0  0  0  0  0  0  0  0  0  0  0  0
   22.5879  -17.9742  -18.3333 C   0  0  0  0  0  0  0  0  0  0  0  0
   22.2370  -18.9410  -17.2266 C   0  0  1  0  0  0  0  0  0  0  0  0
   20.8968  -19.5768  -17.4253 C   0  0  0  0  0  0  0  0  0  0  0  0
   23.3511  -19.9537  -17.0900 C   0  0  2  0  0  0  0  0  0  0  0  0
   24.2179  -19.6829  -15.9821 N   0  0  0  0  0  0  0  0  0  0  0  0
   24.0840  -20.1062  -18.3699 C   0  0  0  0  0  0  0  0  0  0  0  0
   23.6202  -20.8148  -19.4656 O   0  0  0  0  0  0  0  0  0  0  0  0
   25.2061  -19.5525  -18.4667 O   0  0  0  0  0  0  0  0  0  0  0  0
  2  1  1  0
  3  2  2  0
  4  3  1  0
  5  4  2  0
  5 11  1  0
  6  5  1  0
  7  9  1  0
  7  6  1  0
  7  8  1  1
  9 18  1  0
 10  9  2  0
 11 12  2  0
 12  2  1  0
 14 13  1  6
 14 15  1  0
 17 16  1  6
 16 14  1  0
 18 17  1  0
 19 17  1  0
 19 20  2  0
 22 21  1  6
 22 24  1  0
 23 22  1  0
 24 25  1  1
 24 26  1  0
 25 19  1  0
 26 27  1  0
 28 26  2  0
M  END
$$$$
