YLV.pdb
     RDKit          3D

 28 28  0  0  1  0  0  0  0  0999 V2000
   19.2328  -10.3291  -26.1515 O   0  0  0  0  0  0  0  0  0  0  0  0
   19.1519  -10.3257  -24.7613 C   0  0  0  0  0  0  0  0  0  0  0  0
   19.6938   -9.2823  -24.0543 C   0  0  0  0  0  0  0  0  0  0  0  0
   19.6102   -9.2856  -22.6821 C   0  0  0  0  0  0  0  0  0  0  0  0
   18.9844  -10.3338  -22.0263 C   0  0  0  0  0  0  0  0  0  0  0  0
   18.8988  -10.3292  -20.5461 C   0  0  0  0  0  0  0  0  0  0  0  0
   19.9231  -11.2690  -19.9371 C   0  0  2  0  0  0  0  0  0  0  0  0
   19.4843  -12.6307  -20.1653 N   0  0  0  0  0  0  0  0  0  0  0  0
   19.9719  -10.9715  -18.4636 C   0  0  0  0  0  0  0  0  0  0  0  0
   19.2285  -11.5911  -17.6725 O   0  0  0  0  0  0  0  0  0  0  0  0
   18.4445  -11.3741  -22.7371 C   0  0  0  0  0  0  0  0  0  0  0  0
   18.5259  -11.3757  -24.1178 C   0  0  0  0  0  0  0  0  0  0  0  0
   24.0309  -10.0945  -14.3242 C   0  0  0  0  0  0  0  0  0  0  0  0
   22.5787   -9.7334  -14.6118 C   0  0  2  0  0  0  0  0  0  0  0  0
   21.7226  -10.5929  -13.7154 C   0  0  0  0  0  0  0  0  0  0  0  0
   22.3213  -10.0577  -16.0569 C   0  0  0  0  0  0  0  0  0  0  0  0
   20.9282   -9.7179  -16.5086 C   0  0  2  0  0  0  0  0  0  0  0  0
   20.8522   -9.9939  -17.9511 N   0  0  0  0  0  0  0  0  0  0  0  0
   20.5742   -8.3032  -16.3104 C   0  0  0  0  0  0  0  0  0  0  0  0
   21.2753   -7.3517  -16.7404 O   0  0  0  0  0  0  0  0  0  0  0  0
   17.7015   -6.4013  -17.4930 C   0  0  0  0  0  0  0  0  0  0  0  0
   17.6524   -6.2120  -15.9950 C   0  0  1  0  0  0  0  0  0  0  0  0
   16.5482   -6.9936  -15.3549 C   0  0  0  0  0  0  0  0  0  0  0  0
   19.0109   -6.5360  -15.4161 C   0  0  2  0  0  0  0  0  0  0  0  0
   19.3825   -7.9073  -15.5995 N   0  0  0  0  0  0  0  0  0  0  0  0
   19.0978   -6.1008  -14.0013 C   0  0  0  0  0  0  0  0  0  0  0  0
   19.0486   -4.7837  -13.5762 O   0  0  0  0  0  0  0  0  0  0  0  0
   19.2252   -6.9911  -13.1261 O   0  0  0  0  0  0  0  0  0  0  0  0
  2  1  1  0
  3  2  2  0
  4  3  1  0
  5  4  2  0
  5 11  1  0
  6  5  1  0
  7  9  1  0
  7  6  1  0
  7  8  1  1
  9 18  1  0
 10  9  2  0
 11 12  2  0
 12  2  1  0
 14 13  1  1
 14 15  1  0
 17 16  1  6
 16 14  1  0
 18 17  1  0
 19 17  1  0
 19 20  2  0
 22 21  1  6
 22 24  1  0
 23 22  1  0
 24 25  1  1
 24 26  1  0
 25 19  1  0
 26 27  1  0
 28 26  2  0
M  END
$$$$
