VDG.pdb
     RDKit          3D

 20 19  0  0  1  0  0  0  0  0999 V2000
   20.3775  -13.4357  -17.7044 C   0  0  0  0  0  0  0  0  0  0  0  0
   19.9031  -12.0183  -17.9805 C   0  0  1  0  0  0  0  0  0  0  0  0
   18.4003  -11.9948  -17.8830 C   0  0  0  0  0  0  0  0  0  0  0  0
   20.5642  -11.1034  -16.9639 C   0  0  2  0  0  0  0  0  0  0  0  0
   20.2939  -11.6045  -15.6441 N   0  0  0  0  0  0  0  0  0  0  0  0
   20.1383   -9.6992  -17.1436 C   0  0  0  0  0  0  0  0  0  0  0  0
   20.4359   -9.0532  -18.1791 O   0  0  0  0  0  0  0  0  0  0  0  0
   19.3775   -9.0650  -16.1304 N   0  0  0  0  0  0  0  0  0  0  0  0
   18.9238   -7.6885  -16.2425 C   0  0  1  0  0  0  0  0  0  0  0  0
   17.4158   -7.6739  -16.1346 C   0  0  0  0  0  0  0  0  0  0  0  0
   16.7269   -8.2539  -17.2889 C   0  0  0  0  0  0  0  0  0  0  0  0
   15.8100   -9.1213  -17.1395 O   0  0  0  0  0  0  0  0  0  0  0  0
   19.6154   -6.8560  -15.2647 C   0  0  0  0  0  0  0  0  0  0  0  0
   19.3077   -5.6583  -15.0111 O   0  0  0  0  0  0  0  0  0  0  0  0
   17.0126   -7.9112  -18.6142 O   0  0  0  0  0  0  0  0  0  0  0  0
   20.7133   -7.3976  -14.5293 N   0  0  0  0  0  0  0  0  0  0  0  0
   21.5031   -6.5920  -13.6255 C   0  0  0  0  0  0  0  0  0  0  0  0
   22.3267   -5.6219  -14.3873 C   0  0  0  0  0  0  0  0  0  0  0  0
   22.2848   -5.6555  -15.6427 O   0  0  0  0  0  0  0  0  0  0  0  0
   23.1307   -4.6916  -13.7530 O   0  0  0  0  0  0  0  0  0  0  0  0
  2  1  1  1
  3  2  1  0
  4  2  1  0
  4  5  1  1
  6  7  2  0
  6  4  1  0
  8  6  1  0
  9  8  1  0
  9 13  1  0
  9 10  1  1
 11 10  1  0
 11 15  1  0
 12 11  2  0
 13 16  1  0
 14 13  2  0
 16 17  1  0
 17 18  1  0
 18 19  2  0
 18 20  1  0
M  END
$$$$
