VDG.pdb
     RDKit          3D

 20 19  0  0  1  0  0  0  0  0999 V2000
   26.9911  -10.6015  -15.0051 C   0  0  0  0  0  0  0  0  0  0  0  0
   27.1291  -11.5769  -16.1627 C   0  0  1  0  0  0  0  0  0  0  0  0
   28.2406  -12.5406  -15.8395 C   0  0  0  0  0  0  0  0  0  0  0  0
   25.7915  -12.2741  -16.3416 C   0  0  2  0  0  0  0  0  0  0  0  0
   25.9602  -13.3756  -17.2495 N   0  0  0  0  0  0  0  0  0  0  0  0
   24.7426  -11.3272  -16.7760 C   0  0  0  0  0  0  0  0  0  0  0  0
   24.7843  -10.7786  -17.9054 O   0  0  0  0  0  0  0  0  0  0  0  0
   23.6654  -11.0302  -15.9048 N   0  0  0  0  0  0  0  0  0  0  0  0
   22.6008  -10.1091  -16.2673 C   0  0  1  0  0  0  0  0  0  0  0  0
   21.3246  -10.9010  -16.4410 C   0  0  0  0  0  0  0  0  0  0  0  0
   21.4252  -11.9944  -17.4094 C   0  0  0  0  0  0  0  0  0  0  0  0
   21.6286  -11.7637  -18.6426 O   0  0  0  0  0  0  0  0  0  0  0  0
   22.5230   -9.0298  -15.2891 C   0  0  0  0  0  0  0  0  0  0  0  0
   22.6710   -9.1896  -14.0458 O   0  0  0  0  0  0  0  0  0  0  0  0
   21.3092  -13.3453  -17.0672 O   0  0  0  0  0  0  0  0  0  0  0  0
   22.2654   -7.6964  -15.7306 N   0  0  0  0  0  0  0  0  0  0  0  0
   22.2058   -6.5821  -14.8115 C   0  0  0  0  0  0  0  0  0  0  0  0
   21.9492   -5.3209  -15.5483 C   0  0  0  0  0  0  0  0  0  0  0  0
   21.8480   -4.2536  -14.8930 O   0  0  0  0  0  0  0  0  0  0  0  0
   21.8200   -5.2943  -16.9257 O   0  0  0  0  0  0  0  0  0  0  0  0
  2  1  1  1
  3  2  1  0
  4  2  1  0
  4  5  1  6
  6  7  2  0
  6  4  1  0
  8  6  1  0
  9  8  1  0
  9 13  1  0
  9 10  1  1
 11 10  1  0
 11 15  1  0
 12 11  2  0
 13 16  1  0
 14 13  2  0
 16 17  1  0
 17 18  1  0
 18 19  2  0
 18 20  1  0
M  END
$$$$
