VDG.pdb
     RDKit          3D

 20 19  0  0  1  0  0  0  0  0999 V2000
   28.2135  -22.7835  -15.8028 C   0  0  0  0  0  0  0  0  0  0  0  0
   28.4626  -21.8024  -16.9368 C   0  0  1  0  0  0  0  0  0  0  0  0
   28.9782  -22.5726  -18.1241 C   0  0  0  0  0  0  0  0  0  0  0  0
   27.1518  -21.0934  -17.2308 C   0  0  2  0  0  0  0  0  0  0  0  0
   27.3208  -20.2711  -18.3975 N   0  0  0  0  0  0  0  0  0  0  0  0
   26.6737  -20.3331  -16.0566 C   0  0  0  0  0  0  0  0  0  0  0  0
   27.2571  -19.2892  -15.6720 O   0  0  0  0  0  0  0  0  0  0  0  0
   25.5336  -20.7865  -15.3479 N   0  0  0  0  0  0  0  0  0  0  0  0
   25.0145  -20.0929  -14.1807 C   0  0  1  0  0  0  0  0  0  0  0  0
   23.5437  -19.8218  -14.4028 C   0  0  0  0  0  0  0  0  0  0  0  0
   23.2640  -18.9041  -15.5085 C   0  0  0  0  0  0  0  0  0  0  0  0
   22.5187  -19.2508  -16.4780 O   0  0  0  0  0  0  0  0  0  0  0  0
   25.3214  -20.8526  -12.9739 C   0  0  0  0  0  0  0  0  0  0  0  0
   25.1140  -22.0911  -12.8454 O   0  0  0  0  0  0  0  0  0  0  0  0
   23.7789  -17.6063  -15.5874 O   0  0  0  0  0  0  0  0  0  0  0  0
   25.8938  -20.1857  -11.8483 N   0  0  0  0  0  0  0  0  0  0  0  0
   26.1346  -20.8650  -10.5951 C   0  0  0  0  0  0  0  0  0  0  0  0
   24.9226  -20.8148   -9.7418 C   0  0  0  0  0  0  0  0  0  0  0  0
   23.8953  -20.2483  -10.1919 O   0  0  0  0  0  0  0  0  0  0  0  0
   24.8989  -21.3719   -8.4754 O   0  0  0  0  0  0  0  0  0  0  0  0
  2  1  1  1
  3  2  1  0
  4  2  1  0
  4  5  1  6
  6  7  2  0
  6  4  1  0
  8  6  1  0
  9  8  1  0
  9 13  1  0
  9 10  1  6
 11 10  1  0
 11 15  1  0
 12 11  2  0
 13 16  1  0
 14 13  2  0
 16 17  1  0
 17 18  1  0
 18 19  2  0
 18 20  1  0
M  END
$$$$
