VDG.pdb
     RDKit          3D

 20 19  0  0  1  0  0  0  0  0999 V2000
   14.7470  -12.2179  -11.3551 C   0  0  0  0  0  0  0  0  0  0  0  0
   15.7659  -11.2634  -11.9559 C   0  0  1  0  0  0  0  0  0  0  0  0
   17.0876  -11.4887  -11.2695 C   0  0  0  0  0  0  0  0  0  0  0  0
   15.8336  -11.5389  -13.4481 C   0  0  2  0  0  0  0  0  0  0  0  0
   16.1350  -12.9297  -13.6499 N   0  0  0  0  0  0  0  0  0  0  0  0
   16.7949  -10.6394  -14.1205 C   0  0  0  0  0  0  0  0  0  0  0  0
   17.9469  -11.0305  -14.4339 O   0  0  0  0  0  0  0  0  0  0  0  0
   16.4135   -9.3083  -14.4210 N   0  0  0  0  0  0  0  0  0  0  0  0
   17.3067   -8.3720  -15.0833 C   0  0  1  0  0  0  0  0  0  0  0  0
   16.4846   -7.5012  -16.0063 C   0  0  0  0  0  0  0  0  0  0  0  0
   17.2720   -6.5459  -16.7877 C   0  0  0  0  0  0  0  0  0  0  0  0
   17.1015   -5.2930  -16.6592 O   0  0  0  0  0  0  0  0  0  0  0  0
   18.0886   -7.6439  -14.0902 C   0  0  0  0  0  0  0  0  0  0  0  0
   17.6365   -7.2611  -12.9755 O   0  0  0  0  0  0  0  0  0  0  0  0
   18.2497   -6.9222  -17.7140 O   0  0  0  0  0  0  0  0  0  0  0  0
   19.4544   -7.3281  -14.3625 N   0  0  0  0  0  0  0  0  0  0  0  0
   20.2702   -6.5836  -13.4298 C   0  0  0  0  0  0  0  0  0  0  0  0
   21.6083   -6.3209  -14.0128 C   0  0  0  0  0  0  0  0  0  0  0  0
   21.8902   -6.8364  -15.1235 O   0  0  0  0  0  0  0  0  0  0  0  0
   22.5423   -5.5297  -13.3676 O   0  0  0  0  0  0  0  0  0  0  0  0
  2  1  1  1
  3  2  1  0
  4  2  1  0
  4  5  1  1
  6  7  2  0
  6  4  1  0
  8  6  1  0
  9  8  1  0
  9 13  1  0
  9 10  1  1
 11 10  1  0
 11 15  1  0
 12 11  2  0
 13 16  1  0
 14 13  2  0
 16 17  1  0
 17 18  1  0
 18 19  2  0
 18 20  1  0
M  END
$$$$
