VDG.pdb
     RDKit          3D

 20 19  0  0  1  0  0  0  0  0999 V2000
   19.3026  -11.8555  -17.4258 C   0  0  0  0  0  0  0  0  0  0  0  0
   20.7907  -11.5526  -17.3627 C   0  0  1  0  0  0  0  0  0  0  0  0
   21.5263  -12.6373  -18.1050 C   0  0  0  0  0  0  0  0  0  0  0  0
   21.0095  -10.1801  -17.9757 C   0  0  2  0  0  0  0  0  0  0  0  0
   22.4009  -10.0359  -18.3059 N   0  0  0  0  0  0  0  0  0  0  0  0
   20.5158   -9.1067  -17.0872 C   0  0  0  0  0  0  0  0  0  0  0  0
   19.3102   -9.0495  -16.7385 O   0  0  0  0  0  0  0  0  0  0  0  0
   21.4172   -8.1206  -16.6154 N   0  0  0  0  0  0  0  0  0  0  0  0
   21.0013   -7.0419  -15.7342 C   0  0  1  0  0  0  0  0  0  0  0  0
   22.0790   -6.8341  -14.6943 C   0  0  0  0  0  0  0  0  0  0  0  0
   21.7583   -5.8135  -13.6949 C   0  0  0  0  0  0  0  0  0  0  0  0
   20.5598   -5.6110  -13.3234 O   0  0  0  0  0  0  0  0  0  0  0  0
   20.6722   -5.8576  -16.5196 C   0  0  0  0  0  0  0  0  0  0  0  0
   21.4484   -5.3300  -17.3638 O   0  0  0  0  0  0  0  0  0  0  0  0
   22.7172   -4.9998  -13.0834 O   0  0  0  0  0  0  0  0  0  0  0  0
   19.4006   -5.2303  -16.3490 N   0  0  0  0  0  0  0  0  0  0  0  0
   19.0128   -4.0636  -17.1093 C   0  0  0  0  0  0  0  0  0  0  0  0
   19.6970   -2.8569  -16.5847 C   0  0  0  0  0  0  0  0  0  0  0  0
   20.4845   -2.9884  -15.6144 O   0  0  0  0  0  0  0  0  0  0  0  0
   19.4893   -1.6041  -17.1340 O   0  0  0  0  0  0  0  0  0  0  0  0
  2  1  1  6
  3  2  1  0
  4  2  1  0
  4  5  1  1
  6  7  2  0
  6  4  1  0
  8  6  1  0
  9  8  1  0
  9 13  1  0
  9 10  1  1
 11 10  1  0
 11 15  1  0
 12 11  2  0
 13 16  1  0
 14 13  2  0
 16 17  1  0
 17 18  1  0
 18 19  2  0
 18 20  1  0
M  END
$$$$
