VDG.pdb
     RDKit          3D

 20 19  0  0  1  0  0  0  0  0999 V2000
   23.8435  -12.1286  -14.2146 C   0  0  0  0  0  0  0  0  0  0  0  0
   23.3640  -10.8731  -14.9248 C   0  0  1  0  0  0  0  0  0  0  0  0
   24.4642  -10.3956  -15.8361 C   0  0  0  0  0  0  0  0  0  0  0  0
   22.0961  -11.2266  -15.6829 C   0  0  2  0  0  0  0  0  0  0  0  0
   22.3502  -12.3828  -16.4983 N   0  0  0  0  0  0  0  0  0  0  0  0
   21.5929  -10.0746  -16.4607 C   0  0  0  0  0  0  0  0  0  0  0  0
   21.8206   -9.9673  -17.6915 O   0  0  0  0  0  0  0  0  0  0  0  0
   20.8365   -9.0689  -15.8095 N   0  0  0  0  0  0  0  0  0  0  0  0
   20.2868   -7.9251  -16.5183 C   0  0  1  0  0  0  0  0  0  0  0  0
   18.7833   -7.9438  -16.3591 C   0  0  0  0  0  0  0  0  0  0  0  0
   18.0993   -6.8176  -16.9971 C   0  0  0  0  0  0  0  0  0  0  0  0
   18.2521   -6.5714  -18.2346 O   0  0  0  0  0  0  0  0  0  0  0  0
   20.9351   -6.7001  -16.0635 C   0  0  0  0  0  0  0  0  0  0  0  0
   20.7444   -5.5645  -16.5806 O   0  0  0  0  0  0  0  0  0  0  0  0
   17.2450   -5.9441  -16.3169 O   0  0  0  0  0  0  0  0  0  0  0  0
   21.8481   -6.7518  -14.9667 N   0  0  0  0  0  0  0  0  0  0  0  0
   22.6326   -5.6053  -14.5669 C   0  0  0  0  0  0  0  0  0  0  0  0
   21.8123   -4.6816  -13.7464 C   0  0  0  0  0  0  0  0  0  0  0  0
   22.3640   -3.6651  -13.2554 O   0  0  0  0  0  0  0  0  0  0  0  0
   20.4682   -4.9124  -13.5125 O   0  0  0  0  0  0  0  0  0  0  0  0
  2  1  1  6
  3  2  1  0
  4  2  1  0
  4  5  1  6
  6  7  2  0
  6  4  1  0
  8  6  1  0
  9  8  1  0
  9 13  1  0
  9 10  1  1
 11 10  1  0
 11 15  1  0
 12 11  2  0
 13 16  1  0
 14 13  2  0
 16 17  1  0
 17 18  1  0
 18 19  2  0
 18 20  1  0
M  END
$$$$
