VDG.pdb
     RDKit          3D

 20 19  0  0  1  0  0  0  0  0999 V2000
   20.3210  -12.9913  -17.7976 C   0  0  0  0  0  0  0  0  0  0  0  0
   18.9846  -12.4774  -17.2872 C   0  0  1  0  0  0  0  0  0  0  0  0
   18.0749  -13.6583  -17.0712 C   0  0  0  0  0  0  0  0  0  0  0  0
   19.2454  -11.7048  -16.0057 C   0  0  2  0  0  0  0  0  0  0  0  0
   17.9938  -11.4837  -15.3344 N   0  0  0  0  0  0  0  0  0  0  0  0
   19.9840  -10.4520  -16.2710 C   0  0  0  0  0  0  0  0  0  0  0  0
   21.1516  -10.4672  -16.7345 O   0  0  0  0  0  0  0  0  0  0  0  0
   19.3662   -9.2061  -15.9998 N   0  0  0  0  0  0  0  0  0  0  0  0
   20.0031   -7.9365  -16.3089 C   0  0  1  0  0  0  0  0  0  0  0  0
   19.0102   -7.0750  -17.0559 C   0  0  0  0  0  0  0  0  0  0  0  0
   18.5992   -7.6201  -18.3509 C   0  0  0  0  0  0  0  0  0  0  0  0
   19.4556   -7.9060  -19.2455 O   0  0  0  0  0  0  0  0  0  0  0  0
   20.5371   -7.3386  -15.0903 C   0  0  0  0  0  0  0  0  0  0  0  0
   19.9457   -7.3568  -13.9752 O   0  0  0  0  0  0  0  0  0  0  0  0
   17.2676   -7.8648  -18.7011 O   0  0  0  0  0  0  0  0  0  0  0  0
   21.8059   -6.6842  -15.1241 N   0  0  0  0  0  0  0  0  0  0  0  0
   22.4440   -6.1857  -13.9266 C   0  0  0  0  0  0  0  0  0  0  0  0
   21.9742   -4.8111  -13.6277 C   0  0  0  0  0  0  0  0  0  0  0  0
   21.0952   -4.3035  -14.3683 O   0  0  0  0  0  0  0  0  0  0  0  0
   22.4772   -4.0840  -12.5633 O   0  0  0  0  0  0  0  0  0  0  0  0
  2  1  1  1
  3  2  1  0
  4  2  1  0
  4  5  1  6
  6  7  2  0
  6  4  1  0
  8  6  1  0
  9  8  1  0
  9 13  1  0
  9 10  1  1
 11 10  1  0
 11 15  1  0
 12 11  2  0
 13 16  1  0
 14 13  2  0
 16 17  1  0
 17 18  1  0
 18 19  2  0
 18 20  1  0
M  END
$$$$
