VDG.pdb
     RDKit          3D

 20 19  0  0  1  0  0  0  0  0999 V2000
   23.4065  -10.4108  -15.6555 C   0  0  0  0  0  0  0  0  0  0  0  0
   22.9951  -11.5377  -16.5890 C   0  0  1  0  0  0  0  0  0  0  0  0
   23.9875  -12.6610  -16.4408 C   0  0  0  0  0  0  0  0  0  0  0  0
   21.5845  -11.9574  -16.2132 C   0  0  2  0  0  0  0  0  0  0  0  0
   21.2432  -13.1457  -16.9463 N   0  0  0  0  0  0  0  0  0  0  0  0
   20.6197  -10.8569  -16.4218 C   0  0  0  0  0  0  0  0  0  0  0  0
   20.1957  -10.5679  -17.5685 O   0  0  0  0  0  0  0  0  0  0  0  0
   20.1598  -10.1108  -15.3086 N   0  0  0  0  0  0  0  0  0  0  0  0
   19.2326   -8.9995  -15.4443 C   0  0  1  0  0  0  0  0  0  0  0  0
   18.2090   -9.0951  -14.3356 C   0  0  0  0  0  0  0  0  0  0  0  0
   17.2151  -10.1528  -14.5274 C   0  0  0  0  0  0  0  0  0  0  0  0
   16.8042  -10.4658  -15.6887 O   0  0  0  0  0  0  0  0  0  0  0  0
   19.9686   -7.7410  -15.4908 C   0  0  0  0  0  0  0  0  0  0  0  0
   19.4928   -6.6588  -15.9334 O   0  0  0  0  0  0  0  0  0  0  0  0
   16.6515  -10.8857  -13.4783 O   0  0  0  0  0  0  0  0  0  0  0  0
   21.3137   -7.6936  -15.0133 N   0  0  0  0  0  0  0  0  0  0  0  0
   22.0499   -6.4533  -14.9165 C   0  0  0  0  0  0  0  0  0  0  0  0
   21.8021   -5.8092  -13.6038 C   0  0  0  0  0  0  0  0  0  0  0  0
   20.9877   -6.3503  -12.8146 O   0  0  0  0  0  0  0  0  0  0  0  0
   22.4407   -4.6389  -13.2337 O   0  0  0  0  0  0  0  0  0  0  0  0
  2  1  1  1
  3  2  1  0
  4  2  1  0
  4  5  1  6
  6  7  2  0
  6  4  1  0
  8  6  1  0
  9  8  1  0
  9 13  1  0
  9 10  1  1
 11 10  1  0
 11 15  1  0
 12 11  2  0
 13 16  1  0
 14 13  2  0
 16 17  1  0
 17 18  1  0
 18 19  2  0
 18 20  1  0
M  END
$$$$
