VDG.pdb
     RDKit          3D

 20 19  0  0  1  0  0  0  0  0999 V2000
   23.5934  -10.0593  -14.6288 C   0  0  0  0  0  0  0  0  0  0  0  0
   23.4334  -11.0770  -15.7464 C   0  0  1  0  0  0  0  0  0  0  0  0
   24.4495  -12.1696  -15.5405 C   0  0  0  0  0  0  0  0  0  0  0  0
   22.0066  -11.5960  -15.6981 C   0  0  2  0  0  0  0  0  0  0  0  0
   21.8961  -12.7314  -16.5725 N   0  0  0  0  0  0  0  0  0  0  0  0
   21.0329  -10.5298  -16.0154 C   0  0  0  0  0  0  0  0  0  0  0  0
   20.8650  -10.1275  -17.1936 O   0  0  0  0  0  0  0  0  0  0  0  0
   20.2702   -9.9476  -14.9729 N   0  0  0  0  0  0  0  0  0  0  0  0
   19.2774   -8.9142  -15.2169 C   0  0  1  0  0  0  0  0  0  0  0  0
   17.9307   -9.4312  -14.7641 C   0  0  0  0  0  0  0  0  0  0  0  0
   17.3625  -10.4637  -15.6327 C   0  0  0  0  0  0  0  0  0  0  0  0
   17.5507  -10.4420  -16.8895 O   0  0  0  0  0  0  0  0  0  0  0  0
   19.6957   -7.6653  -14.5901 C   0  0  0  0  0  0  0  0  0  0  0  0
   19.0022   -6.6105  -14.5821 O   0  0  0  0  0  0  0  0  0  0  0  0
   16.5875  -11.5295  -15.1647 O   0  0  0  0  0  0  0  0  0  0  0  0
   20.9627   -7.5958  -13.9349 N   0  0  0  0  0  0  0  0  0  0  0  0
   21.4559   -6.3708  -13.3468 C   0  0  0  0  0  0  0  0  0  0  0  0
   22.3549   -5.6702  -14.2958 C   0  0  0  0  0  0  0  0  0  0  0  0
   22.4453   -6.1077  -15.4702 O   0  0  0  0  0  0  0  0  0  0  0  0
   23.0877   -4.5582  -13.9203 O   0  0  0  0  0  0  0  0  0  0  0  0
  2  1  1  1
  3  2  1  0
  4  2  1  0
  4  5  1  6
  6  7  2  0
  6  4  1  0
  8  6  1  0
  9  8  1  0
  9 13  1  0
  9 10  1  1
 11 10  1  0
 11 15  1  0
 12 11  2  0
 13 16  1  0
 14 13  2  0
 16 17  1  0
 17 18  1  0
 18 19  2  0
 18 20  1  0
M  END
$$$$
