VDG.pdb
     RDKit          3D

 20 19  0  0  1  0  0  0  0  0999 V2000
   25.0609  -13.4272  -15.3766 C   0  0  0  0  0  0  0  0  0  0  0  0
   24.3423  -12.1468  -15.7696 C   0  0  1  0  0  0  0  0  0  0  0  0
   24.9016  -11.6753  -17.0863 C   0  0  0  0  0  0  0  0  0  0  0  0
   22.8571  -12.4558  -15.8483 C   0  0  2  0  0  0  0  0  0  0  0  0
   22.6558  -13.5311  -16.7805 N   0  0  0  0  0  0  0  0  0  0  0  0
   22.0715  -11.2495  -16.1845 C   0  0  0  0  0  0  0  0  0  0  0  0
   21.2780  -11.2366  -17.1584 O   0  0  0  0  0  0  0  0  0  0  0  0
   22.2118  -10.0818  -15.3943 N   0  0  0  0  0  0  0  0  0  0  0  0
   21.4057   -8.8919  -15.6117 C   0  0  1  0  0  0  0  0  0  0  0  0
   19.9503   -9.2654  -15.4439 C   0  0  0  0  0  0  0  0  0  0  0  0
   19.0264   -8.1338  -15.5399 C   0  0  0  0  0  0  0  0  0  0  0  0
   19.1601   -7.2511  -16.4445 O   0  0  0  0  0  0  0  0  0  0  0  0
   21.8653   -7.8146  -14.7422 C   0  0  0  0  0  0  0  0  0  0  0  0
   21.9729   -7.9143  -13.4884 O   0  0  0  0  0  0  0  0  0  0  0  0
   17.9505   -7.9360  -14.6688 O   0  0  0  0  0  0  0  0  0  0  0  0
   22.2251   -6.5551  -15.3111 N   0  0  0  0  0  0  0  0  0  0  0  0
   22.6193   -5.4292  -14.4946 C   0  0  0  0  0  0  0  0  0  0  0  0
   21.4222   -4.6917  -14.0229 C   0  0  0  0  0  0  0  0  0  0  0  0
   20.2878   -5.1038  -14.3725 O   0  0  0  0  0  0  0  0  0  0  0  0
   21.5262   -3.5728  -13.2158 O   0  0  0  0  0  0  0  0  0  0  0  0
  2  1  1  6
  3  2  1  0
  4  2  1  0
  4  5  1  6
  6  7  2  0
  6  4  1  0
  8  6  1  0
  9  8  1  0
  9 13  1  0
  9 10  1  1
 11 10  1  0
 11 15  1  0
 12 11  2  0
 13 16  1  0
 14 13  2  0
 16 17  1  0
 17 18  1  0
 18 19  2  0
 18 20  1  0
M  END
$$$$
