VDG.pdb
     RDKit          3D

 20 19  0  0  1  0  0  0  0  0999 V2000
   12.5553   -7.3562   -8.3186 C   0  0  0  0  0  0  0  0  0  0  0  0
   13.9320   -7.4524   -8.9558 C   0  0  1  0  0  0  0  0  0  0  0  0
   14.9558   -7.5595   -7.8563 C   0  0  0  0  0  0  0  0  0  0  0  0
   13.9343   -8.6655   -9.8700 C   0  0  2  0  0  0  0  0  0  0  0  0
   13.6571   -9.8378   -9.0858 N   0  0  0  0  0  0  0  0  0  0  0  0
   15.1990   -8.7678  -10.6286 C   0  0  0  0  0  0  0  0  0  0  0  0
   16.1947   -9.3744  -10.1607 O   0  0  0  0  0  0  0  0  0  0  0  0
   15.2946   -8.1722  -11.9106 N   0  0  0  0  0  0  0  0  0  0  0  0
   16.4553   -8.3489  -12.7677 C   0  0  1  0  0  0  0  0  0  0  0  0
   16.1672   -9.4762  -13.7332 C   0  0  0  0  0  0  0  0  0  0  0  0
   16.2220  -10.8095  -13.1311 C   0  0  0  0  0  0  0  0  0  0  0  0
   17.2227  -11.1777  -12.4394 O   0  0  0  0  0  0  0  0  0  0  0  0
   16.8073   -7.0803  -13.3956 C   0  0  0  0  0  0  0  0  0  0  0  0
   15.9685   -6.1941  -13.7191 O   0  0  0  0  0  0  0  0  0  0  0  0
   15.2063  -11.7616  -13.2632 O   0  0  0  0  0  0  0  0  0  0  0  0
   18.1770   -6.7889  -13.6756 N   0  0  0  0  0  0  0  0  0  0  0  0
   18.5931   -5.5219  -14.2335 C   0  0  0  0  0  0  0  0  0  0  0  0
   18.0706   -5.3710  -15.6133 C   0  0  0  0  0  0  0  0  0  0  0  0
   18.3172   -4.3072  -16.2349 O   0  0  0  0  0  0  0  0  0  0  0  0
   17.3261   -6.3648  -16.2238 O   0  0  0  0  0  0  0  0  0  0  0  0
  2  1  1  1
  3  2  1  0
  4  2  1  0
  4  5  1  1
  6  7  2  0
  6  4  1  0
  8  6  1  0
  9  8  1  0
  9 13  1  0
  9 10  1  6
 11 10  1  0
 11 15  1  0
 12 11  2  0
 13 16  1  0
 14 13  2  0
 16 17  1  0
 17 18  1  0
 18 19  2  0
 18 20  1  0
M  END
$$$$
