GKS.pdb
     RDKit          3D

 20 19  0  0  1  0  0  0  0  0999 V2000
   24.4137  -14.5123  -15.6163 N   0  0  0  0  0  0  0  0  0  0  0  0
   25.6483  -15.0671  -15.1267 C   0  0  0  0  0  0  0  0  0  0  0  0
   25.5484  -16.5533  -15.1008 C   0  0  0  0  0  0  0  0  0  0  0  0
   24.4440  -17.0822  -15.3200 O   0  0  0  0  0  0  0  0  0  0  0  0
   26.7118  -17.3250  -14.8277 N   0  0  0  0  0  0  0  0  0  0  0  0
   26.6843  -18.7423  -14.8930 C   0  0  1  0  0  0  0  0  0  0  0  0
   27.8777  -19.4494  -15.3923 C   0  0  0  0  0  0  0  0  0  0  0  0
   27.7455  -20.9297  -15.5435 C   0  0  0  0  0  0  0  0  0  0  0  0
   28.9412  -21.6644  -16.0213 C   0  0  0  0  0  0  0  0  0  0  0  0
   28.5988  -23.1102  -16.3251 C   0  0  0  0  0  0  0  0  0  0  0  0
   29.8165  -23.8120  -16.7408 N   0  0  0  0  0  0  0  0  0  0  0  0
   26.2471  -19.2679  -13.5374 C   0  0  0  0  0  0  0  0  0  0  0  0
   26.7919  -18.8828  -12.4737 O   0  0  0  0  0  0  0  0  0  0  0  0
   22.5201  -19.9236  -12.0140 O   0  0  0  0  0  0  0  0  0  0  0  0
   23.2998  -21.0564  -12.1619 C   0  0  0  0  0  0  0  0  0  0  0  0
   24.7671  -20.6875  -12.0786 C   0  0  2  0  0  0  0  0  0  0  0  0
   25.2050  -20.2172  -13.3969 N   0  0  0  0  0  0  0  0  0  0  0  0
   25.5689  -21.8342  -11.6241 C   0  0  0  0  0  0  0  0  0  0  0  0
   25.5156  -22.1624  -10.2771 O   0  0  0  0  0  0  0  0  0  0  0  0
   26.2857  -22.5133  -12.3959 O   0  0  0  0  0  0  0  0  0  0  0  0
  2  1  1  0
  3  4  2  0
  3  2  1  0
  5  3  1  0
  6  5  1  0
  6  7  1  1
  8  7  1  0
  9  8  1  0
 10 11  1  0
 10  9  1  0
 12  6  1  0
 12 13  2  0
 15 14  1  0
 16 15  1  6
 17 16  1  0
 17 12  1  0
 18 19  1  0
 18 16  1  0
 20 18  2  0
M  END
$$$$
