GKS.pdb
     RDKit          3D

 20 19  0  0  1  0  0  0  0  0999 V2000
   16.0800   -6.7511   -8.2545 N   0  0  0  0  0  0  0  0  0  0  0  0
   15.5707   -6.7062   -9.5999 C   0  0  0  0  0  0  0  0  0  0  0  0
   16.5646   -7.3158  -10.5271 C   0  0  0  0  0  0  0  0  0  0  0  0
   17.3843   -8.1333  -10.0716 O   0  0  0  0  0  0  0  0  0  0  0  0
   16.5510   -6.9497  -11.9017 N   0  0  0  0  0  0  0  0  0  0  0  0
   17.3660   -7.6229  -12.8485 C   0  0  1  0  0  0  0  0  0  0  0  0
   16.7904   -7.9583  -14.1637 C   0  0  0  0  0  0  0  0  0  0  0  0
   17.6261   -8.8336  -15.0395 C   0  0  0  0  0  0  0  0  0  0  0  0
   17.4362  -10.2974  -14.9016 C   0  0  0  0  0  0  0  0  0  0  0  0
   18.3695  -11.0510  -15.8292 C   0  0  0  0  0  0  0  0  0  0  0  0
   18.0381  -12.4780  -15.7838 N   0  0  0  0  0  0  0  0  0  0  0  0
   18.6654   -6.8497  -12.9856 C   0  0  0  0  0  0  0  0  0  0  0  0
   18.6976   -5.5964  -12.9177 O   0  0  0  0  0  0  0  0  0  0  0  0
   23.3213   -6.8856  -14.3088 O   0  0  0  0  0  0  0  0  0  0  0  0
   22.1357   -7.5781  -14.1410 C   0  0  0  0  0  0  0  0  0  0  0  0
   21.1522   -6.7346  -13.3555 C   0  0  2  0  0  0  0  0  0  0  0  0
   19.9086   -7.4956  -13.1964 N   0  0  0  0  0  0  0  0  0  0  0  0
   20.9124   -5.4488  -14.0289 C   0  0  0  0  0  0  0  0  0  0  0  0
   20.2260   -5.4727  -15.2344 O   0  0  0  0  0  0  0  0  0  0  0  0
   21.2988   -4.3521  -13.5614 O   0  0  0  0  0  0  0  0  0  0  0  0
  2  1  1  0
  3  4  2  0
  3  2  1  0
  5  3  1  0
  6  5  1  0
  6  7  1  6
  8  7  1  0
  9  8  1  0
 10 11  1  0
 10  9  1  0
 12  6  1  0
 12 13  2  0
 15 14  1  0
 16 15  1  6
 17 16  1  0
 17 12  1  0
 18 19  1  0
 18 16  1  0
 20 18  2  0
M  END
$$$$
