GKS.pdb
     RDKit          3D

 20 19  0  0  1  0  0  0  0  0999 V2000
   19.3839   -9.6792  -12.8664 N   0  0  0  0  0  0  0  0  0  0  0  0
   18.5363  -10.2359  -11.8450 C   0  0  0  0  0  0  0  0  0  0  0  0
   17.4107   -9.2995  -11.5698 C   0  0  0  0  0  0  0  0  0  0  0  0
   16.9936   -8.5782  -12.4935 O   0  0  0  0  0  0  0  0  0  0  0  0
   16.8451   -9.2545  -10.2653 N   0  0  0  0  0  0  0  0  0  0  0  0
   15.6482   -8.5366  -10.0089 C   0  0  1  0  0  0  0  0  0  0  0  0
   14.6270   -9.1529   -9.1423 C   0  0  0  0  0  0  0  0  0  0  0  0
   13.3467   -8.3965   -9.0000 C   0  0  0  0  0  0  0  0  0  0  0  0
   12.3159   -8.9840   -8.1112 C   0  0  0  0  0  0  0  0  0  0  0  0
   11.0472   -8.1538   -8.1360 C   0  0  0  0  0  0  0  0  0  0  0  0
   10.1378   -8.6402   -7.0946 N   0  0  0  0  0  0  0  0  0  0  0  0
   16.0263   -7.1467   -9.5289 C   0  0  0  0  0  0  0  0  0  0  0  0
   16.7307   -6.9716   -8.5044 O   0  0  0  0  0  0  0  0  0  0  0  0
   16.8890   -2.5816  -10.5221 O   0  0  0  0  0  0  0  0  0  0  0  0
   16.5388   -3.8584  -10.9229 C   0  0  0  0  0  0  0  0  0  0  0  0
   15.9970   -4.6392   -9.7428 C   0  0  2  0  0  0  0  0  0  0  0  0
   15.6083   -5.9751  -10.2068 N   0  0  0  0  0  0  0  0  0  0  0  0
   14.8626   -3.9339   -9.1263 C   0  0  0  0  0  0  0  0  0  0  0  0
   15.1473   -2.9793   -8.1606 O   0  0  0  0  0  0  0  0  0  0  0  0
   13.6696   -4.1601   -9.4364 O   0  0  0  0  0  0  0  0  0  0  0  0
  2  1  1  0
  3  4  2  0
  3  2  1  0
  5  3  1  0
  6  5  1  0
  6  7  1  1
  8  7  1  0
  9  8  1  0
 10 11  1  0
 10  9  1  0
 12  6  1  0
 12 13  2  0
 15 14  1  0
 16 15  1  6
 17 16  1  0
 17 12  1  0
 18 19  1  0
 18 16  1  0
 20 18  2  0
M  END
$$$$
