GKS.pdb
     RDKit          3D

 20 19  0  0  1  0  0  0  0  0999 V2000
   28.6579  -29.1672  -16.1611 N   0  0  0  0  0  0  0  0  0  0  0  0
   28.9125  -28.3201  -17.2966 C   0  0  0  0  0  0  0  0  0  0  0  0
   29.1580  -26.9266  -16.8306 C   0  0  0  0  0  0  0  0  0  0  0  0
   28.9216  -26.6430  -15.6426 O   0  0  0  0  0  0  0  0  0  0  0  0
   29.6536  -25.9615  -17.7507 N   0  0  0  0  0  0  0  0  0  0  0  0
   30.0125  -24.6567  -17.3233 C   0  0  1  0  0  0  0  0  0  0  0  0
   31.1917  -24.0140  -17.9315 C   0  0  0  0  0  0  0  0  0  0  0  0
   32.5024  -24.2934  -17.2714 C   0  0  0  0  0  0  0  0  0  0  0  0
   33.3766  -25.3021  -17.9164 C   0  0  0  0  0  0  0  0  0  0  0  0
   34.7127  -25.3904  -17.2045 C   0  0  0  0  0  0  0  0  0  0  0  0
   35.5442  -26.3952  -17.8729 N   0  0  0  0  0  0  0  0  0  0  0  0
   28.7808  -23.7742  -17.4193 C   0  0  0  0  0  0  0  0  0  0  0  0
   28.0162  -23.8148  -18.4144 O   0  0  0  0  0  0  0  0  0  0  0  0
   26.0400  -20.3209  -15.3437 O   0  0  0  0  0  0  0  0  0  0  0  0
   27.1562  -21.1346  -15.2705 C   0  0  0  0  0  0  0  0  0  0  0  0
   27.2763  -21.9609  -16.5349 C   0  0  2  0  0  0  0  0  0  0  0  0
   28.4264  -22.8602  -16.3965 N   0  0  0  0  0  0  0  0  0  0  0  0
   27.4124  -21.0930  -17.7150 C   0  0  0  0  0  0  0  0  0  0  0  0
   26.2807  -20.8769  -18.4881 O   0  0  0  0  0  0  0  0  0  0  0  0
   28.4944  -20.5514  -18.0415 O   0  0  0  0  0  0  0  0  0  0  0  0
  2  1  1  0
  3  4  2  0
  3  2  1  0
  5  3  1  0
  6  5  1  0
  6  7  1  6
  8  7  1  0
  9  8  1  0
 10 11  1  0
 10  9  1  0
 12  6  1  0
 12 13  2  0
 15 14  1  0
 16 15  1  1
 17 16  1  0
 17 12  1  0
 18 19  1  0
 18 16  1  0
 20 18  2  0
M  END
$$$$
