GKS.pdb
     RDKit          3D

 20 19  0  0  1  0  0  0  0  0999 V2000
   15.5031  -10.9629  -14.0356 N   0  0  0  0  0  0  0  0  0  0  0  0
   15.8149   -9.7575  -14.7577 C   0  0  0  0  0  0  0  0  0  0  0  0
   17.2753   -9.4818  -14.6553 C   0  0  0  0  0  0  0  0  0  0  0  0
   17.8016   -9.4571  -13.5284 O   0  0  0  0  0  0  0  0  0  0  0  0
   18.0263   -9.2550  -15.8420 N   0  0  0  0  0  0  0  0  0  0  0  0
   19.4249   -9.0199  -15.7917 C   0  0  1  0  0  0  0  0  0  0  0  0
   20.2549   -9.4518  -16.9311 C   0  0  0  0  0  0  0  0  0  0  0  0
   20.3117  -10.9240  -17.1782 C   0  0  0  0  0  0  0  0  0  0  0  0
   21.0494  -11.3738  -18.3828 C   0  0  0  0  0  0  0  0  0  0  0  0
   21.0295  -12.8862  -18.4926 C   0  0  0  0  0  0  0  0  0  0  0  0
   21.7271  -13.2851  -19.7183 N   0  0  0  0  0  0  0  0  0  0  0  0
   19.6446   -7.5544  -15.4616 C   0  0  0  0  0  0  0  0  0  0  0  0
   18.9791   -6.6461  -16.0172 O   0  0  0  0  0  0  0  0  0  0  0  0
   22.2724   -6.3769  -12.4349 O   0  0  0  0  0  0  0  0  0  0  0  0
   21.1050   -5.6670  -12.6504 C   0  0  0  0  0  0  0  0  0  0  0  0
   20.7296   -5.7242  -14.1172 C   0  0  2  0  0  0  0  0  0  0  0  0
   20.6075   -7.1313  -14.5125 N   0  0  0  0  0  0  0  0  0  0  0  0
   21.7260   -5.0201  -14.9393 C   0  0  0  0  0  0  0  0  0  0  0  0
   21.8671   -3.6532  -14.7479 O   0  0  0  0  0  0  0  0  0  0  0  0
   22.4394   -5.6001  -15.7910 O   0  0  0  0  0  0  0  0  0  0  0  0
  2  1  1  0
  3  4  2  0
  3  2  1  0
  5  3  1  0
  6  5  1  0
  6  7  1  6
  8  7  1  0
  9  8  1  0
 10 11  1  0
 10  9  1  0
 12  6  1  0
 12 13  2  0
 15 14  1  0
 16 15  1  1
 17 16  1  0
 17 12  1  0
 18 19  1  0
 18 16  1  0
 20 18  2  0
M  END
$$$$
