GKS.pdb
     RDKit          3D

 20 19  0  0  1  0  0  0  0  0999 V2000
   25.9481  -11.2005  -15.8098 N   0  0  0  0  0  0  0  0  0  0  0  0
   24.7624  -11.2602  -14.9961 C   0  0  0  0  0  0  0  0  0  0  0  0
   23.8392  -10.1569  -15.3831 C   0  0  0  0  0  0  0  0  0  0  0  0
   24.1764   -9.3900  -16.3027 O   0  0  0  0  0  0  0  0  0  0  0  0
   22.6028  -10.0095  -14.6952 N   0  0  0  0  0  0  0  0  0  0  0  0
   21.6051   -9.1152  -15.1625 C   0  0  1  0  0  0  0  0  0  0  0  0
   20.1887   -9.4935  -15.0066 C   0  0  0  0  0  0  0  0  0  0  0  0
   19.7818  -10.7820  -15.6435 C   0  0  0  0  0  0  0  0  0  0  0  0
   18.3409  -11.1274  -15.5971 C   0  0  0  0  0  0  0  0  0  0  0  0
   18.0823  -12.4521  -16.2885 C   0  0  0  0  0  0  0  0  0  0  0  0
   16.6982  -12.8612  -16.0340 N   0  0  0  0  0  0  0  0  0  0  0  0
   21.8877   -7.7447  -14.5734 C   0  0  0  0  0  0  0  0  0  0  0  0
   22.0100   -7.5712  -13.3359 O   0  0  0  0  0  0  0  0  0  0  0  0
   22.2243   -4.3848  -16.9977 O   0  0  0  0  0  0  0  0  0  0  0  0
   23.0456   -4.4524  -15.8868 C   0  0  0  0  0  0  0  0  0  0  0  0
   22.3876   -5.2894  -14.8087 C   0  0  2  0  0  0  0  0  0  0  0  0
   22.0292   -6.5905  -15.3826 N   0  0  0  0  0  0  0  0  0  0  0  0
   21.2085   -4.6014  -14.2602 C   0  0  0  0  0  0  0  0  0  0  0  0
   21.4232   -3.4433  -13.5270 O   0  0  0  0  0  0  0  0  0  0  0  0
   20.0379   -5.0162  -14.4283 O   0  0  0  0  0  0  0  0  0  0  0  0
  2  1  1  0
  3  4  2  0
  3  2  1  0
  5  3  1  0
  6  5  1  0
  6  7  1  1
  8  7  1  0
  9  8  1  0
 10 11  1  0
 10  9  1  0
 12  6  1  0
 12 13  2  0
 15 14  1  0
 16 15  1  6
 17 16  1  0
 17 12  1  0
 18 19  1  0
 18 16  1  0
 20 18  2  0
M  END
$$$$
