GKS.pdb
     RDKit          3D

 20 19  0  0  1  0  0  0  0  0999 V2000
   25.9199  -11.4840  -16.0637 N   0  0  0  0  0  0  0  0  0  0  0  0
   24.7716  -11.2888  -15.2183 C   0  0  0  0  0  0  0  0  0  0  0  0
   23.9116  -10.2150  -15.7899 C   0  0  0  0  0  0  0  0  0  0  0  0
   24.2109   -9.7358  -16.8982 O   0  0  0  0  0  0  0  0  0  0  0  0
   22.7767   -9.7678  -15.0580 N   0  0  0  0  0  0  0  0  0  0  0  0
   21.9024   -8.7839  -15.5886 C   0  0  1  0  0  0  0  0  0  0  0  0
   20.4488   -9.0193  -15.5182 C   0  0  0  0  0  0  0  0  0  0  0  0
   19.9084  -10.0573  -16.4467 C   0  0  0  0  0  0  0  0  0  0  0  0
   19.4358  -11.3228  -15.8360 C   0  0  0  0  0  0  0  0  0  0  0  0
   19.0895  -12.3403  -16.9057 C   0  0  0  0  0  0  0  0  0  0  0  0
   18.6865  -13.5930  -16.2604 N   0  0  0  0  0  0  0  0  0  0  0  0
   22.2831   -7.4425  -14.9880 C   0  0  0  0  0  0  0  0  0  0  0  0
   22.6761   -7.3393  -13.8000 O   0  0  0  0  0  0  0  0  0  0  0  0
   23.7066   -4.3864  -17.2134 O   0  0  0  0  0  0  0  0  0  0  0  0
   22.7794   -3.9495  -16.2845 C   0  0  0  0  0  0  0  0  0  0  0  0
   22.6582   -4.9599  -15.1619 C   0  0  2  0  0  0  0  0  0  0  0  0
   22.2170   -6.2378  -15.7305 N   0  0  0  0  0  0  0  0  0  0  0  0
   21.7271   -4.4825  -14.1277 C   0  0  0  0  0  0  0  0  0  0  0  0
   22.2389   -3.6669  -13.1289 O   0  0  0  0  0  0  0  0  0  0  0  0
   20.5099   -4.7806  -14.1166 O   0  0  0  0  0  0  0  0  0  0  0  0
  2  1  1  0
  3  4  2  0
  3  2  1  0
  5  3  1  0
  6  5  1  0
  6  7  1  1
  8  7  1  0
  9  8  1  0
 10 11  1  0
 10  9  1  0
 12  6  1  0
 12 13  2  0
 15 14  1  0
 16 15  1  6
 17 16  1  0
 17 12  1  0
 18 19  1  0
 18 16  1  0
 20 18  2  0
M  END
$$$$
