GKS.pdb
     RDKit          3D

 20 19  0  0  1  0  0  0  0  0999 V2000
   26.4437  -10.0427  -17.8649 N   0  0  0  0  0  0  0  0  0  0  0  0
   26.0741   -9.2844  -16.6986 C   0  0  0  0  0  0  0  0  0  0  0  0
   24.6289   -8.9308  -16.7743 C   0  0  0  0  0  0  0  0  0  0  0  0
   24.2838   -7.9758  -17.4929 O   0  0  0  0  0  0  0  0  0  0  0  0
   23.6859   -9.6901  -16.0273 N   0  0  0  0  0  0  0  0  0  0  0  0
   22.3137   -9.3299  -15.9959 C   0  0  1  0  0  0  0  0  0  0  0  0
   21.3282  -10.3397  -15.5688 C   0  0  0  0  0  0  0  0  0  0  0  0
   19.8946   -9.9260  -15.6404 C   0  0  0  0  0  0  0  0  0  0  0  0
   18.8890  -10.9072  -15.1673 C   0  0  0  0  0  0  0  0  0  0  0  0
   17.4910  -10.3246  -15.2435 C   0  0  0  0  0  0  0  0  0  0  0  0
   16.5318  -11.3199  -14.7565 N   0  0  0  0  0  0  0  0  0  0  0  0
   22.1821   -8.0451  -15.1977 C   0  0  0  0  0  0  0  0  0  0  0  0
   22.5810   -7.9627  -14.0100 O   0  0  0  0  0  0  0  0  0  0  0  0
   22.3005   -3.4715  -14.6500 O   0  0  0  0  0  0  0  0  0  0  0  0
   22.4006   -4.6081  -15.4319 C   0  0  0  0  0  0  0  0  0  0  0  0
   21.4245   -5.6587  -14.9425 C   0  0  2  0  0  0  0  0  0  0  0  0
   21.6053   -6.8727  -15.7453 N   0  0  0  0  0  0  0  0  0  0  0  0
   20.0413   -5.1638  -15.0217 C   0  0  0  0  0  0  0  0  0  0  0  0
   19.4954   -4.5960  -13.8795 O   0  0  0  0  0  0  0  0  0  0  0  0
   19.3506   -5.2352  -16.0650 O   0  0  0  0  0  0  0  0  0  0  0  0
  2  1  1  0
  3  4  2  0
  3  2  1  0
  5  3  1  0
  6  5  1  0
  6  7  1  1
  8  7  1  0
  9  8  1  0
 10 11  1  0
 10  9  1  0
 12  6  1  0
 12 13  2  0
 15 14  1  0
 16 15  1  6
 17 16  1  0
 17 12  1  0
 18 19  1  0
 18 16  1  0
 20 18  2  0
M  END
$$$$
