HPE.pdb
     RDKit          3D

 27 28  0  0  1  0  0  0  0  0999 V2000
   10.0642  -13.9772   21.1956 N   0  0  0  0  0  0  0  0  0  0  0  0
    8.8875  -13.8708   21.9828 C   0  0  1  0  0  0  0  0  0  0  0  0
    7.7021  -14.6018   21.3637 C   0  0  0  0  0  0  0  0  0  0  0  0
    7.4078  -14.0986   20.0017 C   0  0  0  0  0  0  0  0  0  0  0  0
    8.0564  -13.1184   19.2919 C   0  0  0  0  0  0  0  0  0  0  0  0
    7.4338  -13.0043   18.1020 N   0  0  0  0  0  0  0  0  0  0  0  0
    6.4218  -13.8883   18.0647 C   0  0  0  0  0  0  0  0  0  0  0  0
    6.4154  -14.5500   19.2282 N   0  0  0  0  0  0  0  0  0  0  0  0
    9.0561  -14.2891   23.4129 C   0  0  0  0  0  0  0  0  0  0  0  0
   10.1010  -14.9836   23.6751 O   0  0  0  0  0  0  0  0  0  0  0  0
    8.1251  -13.9439   24.4306 N   0  0  0  0  0  0  0  0  0  0  0  0
    6.8251  -13.3507   24.3304 C   0  0  0  0  0  0  0  0  0  0  0  0
    6.2234  -13.4305   25.7016 C   0  0  0  0  0  0  0  0  0  0  0  0
    7.4425  -13.2672   26.5784 C   0  0  0  0  0  0  0  0  0  0  0  0
    8.4119  -14.1561   25.8344 C   0  0  1  0  0  0  0  0  0  0  0  0
    8.2764  -15.5734   26.2261 C   0  0  0  0  0  0  0  0  0  0  0  0
    7.1460  -16.1318   26.0444 O   0  0  0  0  0  0  0  0  0  0  0  0
    9.3023  -16.3457   26.7837 N   0  0  0  0  0  0  0  0  0  0  0  0
    9.1933  -17.7797   27.1163 C   0  0  1  0  0  0  0  0  0  0  0  0
    9.8664  -18.6029   26.0931 C   0  0  0  0  0  0  0  0  0  0  0  0
   11.3475  -18.4611   26.0771 C   0  0  0  0  0  0  0  0  0  0  0  0
   11.9799  -18.6128   24.7480 C   0  0  0  0  0  0  0  0  0  0  0  0
   11.3361  -18.8451   23.6812 O   0  0  0  0  0  0  0  0  0  0  0  0
    9.3540  -18.0440   28.5159 C   0  0  0  0  0  0  0  0  0  0  0  0
    9.1944  -19.1263   29.1391 O   0  0  0  0  0  0  0  0  0  0  0  0
   13.3761  -18.5002   24.6077 O   0  0  0  0  0  0  0  0  0  0  0  0
    9.7467  -16.9532   29.3364 O   0  0  0  0  0  0  0  0  0  0  0  0
  2  1  1  6
  2  9  1  0
  3  4  1  0
  3  2  1  0
  4  8  1  0
  4  5  2  0
  5  6  1  0
  7  6  1  0
  8  7  2  0
  9 11  1  0
  9 10  2  0
 11 12  1  0
 13 12  1  0
 14 15  1  0
 14 13  1  0
 15 11  1  0
 15 16  1  1
 16 17  2  0
 18 16  1  0
 19 18  1  0
 19 20  1  6
 21 20  1  0
 22 21  1  0
 23 22  2  0
 24 19  1  0
 25 24  2  0
 26 22  1  0
 27 24  1  0
M  END
$$$$
