HPE.pdb
     RDKit          3D

 27 28  0  0  1  0  0  0  0  0999 V2000
   10.3038  -14.1821   20.5425 N   0  0  0  0  0  0  0  0  0  0  0  0
    9.1358  -14.0765   21.3427 C   0  0  1  0  0  0  0  0  0  0  0  0
    7.9244  -14.7405   20.6990 C   0  0  0  0  0  0  0  0  0  0  0  0
    7.7510  -14.3033   19.2941 C   0  0  0  0  0  0  0  0  0  0  0  0
    7.6707  -13.0254   18.7983 C   0  0  0  0  0  0  0  0  0  0  0  0
    7.5134  -13.1209   17.4631 N   0  0  0  0  0  0  0  0  0  0  0  0
    7.4952  -14.4227   17.1288 C   0  0  0  0  0  0  0  0  0  0  0  0
    7.6408  -15.1345   18.2530 N   0  0  0  0  0  0  0  0  0  0  0  0
    9.2999  -14.5668   22.7503 C   0  0  0  0  0  0  0  0  0  0  0  0
   10.2988  -15.3414   22.9619 O   0  0  0  0  0  0  0  0  0  0  0  0
    8.4128  -14.2032   23.8002 N   0  0  0  0  0  0  0  0  0  0  0  0
    7.0901  -13.6561   23.7438 C   0  0  0  0  0  0  0  0  0  0  0  0
    6.5643  -13.6901   25.1478 C   0  0  0  0  0  0  0  0  0  0  0  0
    7.8217  -13.4481   25.9491 C   0  0  0  0  0  0  0  0  0  0  0  0
    8.7800  -14.3403   25.1946 C   0  0  1  0  0  0  0  0  0  0  0  0
    8.7128  -15.7412   25.6567 C   0  0  0  0  0  0  0  0  0  0  0  0
    7.7008  -16.4315   25.3073 O   0  0  0  0  0  0  0  0  0  0  0  0
    9.6824  -16.3633   26.4522 N   0  0  0  0  0  0  0  0  0  0  0  0
    9.7396  -17.8109   26.7353 C   0  0  1  0  0  0  0  0  0  0  0  0
   10.7308  -18.4717   25.8645 C   0  0  0  0  0  0  0  0  0  0  0  0
   10.9404  -19.9133   26.1677 C   0  0  0  0  0  0  0  0  0  0  0  0
   11.9645  -20.5880   25.3396 C   0  0  0  0  0  0  0  0  0  0  0  0
   13.1954  -20.2860   25.3525 O   0  0  0  0  0  0  0  0  0  0  0  0
    9.6510  -18.1121   28.1338 C   0  0  0  0  0  0  0  0  0  0  0  0
    9.4238  -19.2180   28.6911 O   0  0  0  0  0  0  0  0  0  0  0  0
   11.6003  -21.6339   24.4707 O   0  0  0  0  0  0  0  0  0  0  0  0
    9.8420  -17.0338   29.0383 O   0  0  0  0  0  0  0  0  0  0  0  0
  2  1  1  6
  2  9  1  0
  3  4  1  0
  3  2  1  0
  4  8  1  0
  4  5  2  0
  5  6  1  0
  7  6  1  0
  8  7  2  0
  9 11  1  0
  9 10  2  0
 11 12  1  0
 13 12  1  0
 14 15  1  0
 14 13  1  0
 15 11  1  0
 15 16  1  1
 16 17  2  0
 18 16  1  0
 19 18  1  0
 19 20  1  1
 21 20  1  0
 22 21  1  0
 23 22  2  0
 24 19  1  0
 25 24  2  0
 26 22  1  0
 27 24  1  0
M  END
$$$$
