HPE.pdb
     RDKit          3D

 27 28  0  0  1  0  0  0  0  0999 V2000
   10.4998  -13.8045   20.1908 N   0  0  0  0  0  0  0  0  0  0  0  0
    9.2923  -13.9600   20.9213 C   0  0  1  0  0  0  0  0  0  0  0  0
    8.3025  -14.8856   20.2240 C   0  0  0  0  0  0  0  0  0  0  0  0
    8.1389  -14.5253   18.7963 C   0  0  0  0  0  0  0  0  0  0  0  0
    7.7694  -13.3192   18.2540 C   0  0  0  0  0  0  0  0  0  0  0  0
    7.7546  -13.4678   16.9144 N   0  0  0  0  0  0  0  0  0  0  0  0
    8.1050  -14.7323   16.6227 C   0  0  0  0  0  0  0  0  0  0  0  0
    8.3370  -15.3679   17.7776 N   0  0  0  0  0  0  0  0  0  0  0  0
    9.4783  -14.3900   22.3457 C   0  0  0  0  0  0  0  0  0  0  0  0
   10.6077  -14.9267   22.6271 O   0  0  0  0  0  0  0  0  0  0  0  0
    8.4750  -14.2189   23.3386 N   0  0  0  0  0  0  0  0  0  0  0  0
    7.1000  -13.8397   23.2062 C   0  0  0  0  0  0  0  0  0  0  0  0
    6.4795  -14.0424   24.5563 C   0  0  0  0  0  0  0  0  0  0  0  0
    7.6307  -13.7038   25.4737 C   0  0  0  0  0  0  0  0  0  0  0  0
    8.7515  -14.4108   24.7473 C   0  0  1  0  0  0  0  0  0  0  0  0
    8.8342  -15.8391   25.1128 C   0  0  0  0  0  0  0  0  0  0  0  0
    8.0358  -16.6451   24.5334 O   0  0  0  0  0  0  0  0  0  0  0  0
    9.7274  -16.3692   26.0515 N   0  0  0  0  0  0  0  0  0  0  0  0
   10.0151  -17.8066   26.2244 C   0  0  1  0  0  0  0  0  0  0  0  0
   11.3225  -18.1495   25.6320 C   0  0  0  0  0  0  0  0  0  0  0  0
   11.6735  -19.5923   25.7284 C   0  0  0  0  0  0  0  0  0  0  0  0
   12.9931  -19.9576   25.1676 C   0  0  0  0  0  0  0  0  0  0  0  0
   13.4950  -19.4220   24.1343 O   0  0  0  0  0  0  0  0  0  0  0  0
    9.6191  -18.3069   27.5078 C   0  0  0  0  0  0  0  0  0  0  0  0
    9.3300  -17.6646   28.5514 O   0  0  0  0  0  0  0  0  0  0  0  0
   13.7763  -20.9528   25.7824 O   0  0  0  0  0  0  0  0  0  0  0  0
    9.5322  -19.7173   27.6505 O   0  0  0  0  0  0  0  0  0  0  0  0
  2  1  1  6
  2  9  1  0
  3  4  1  0
  3  2  1  0
  4  8  1  0
  4  5  2  0
  5  6  1  0
  7  6  1  0
  8  7  2  0
  9 11  1  0
  9 10  2  0
 11 12  1  0
 13 12  1  0
 14 15  1  0
 14 13  1  0
 15 11  1  0
 15 16  1  6
 16 17  2  0
 18 16  1  0
 19 18  1  0
 19 20  1  1
 21 20  1  0
 22 21  1  0
 23 22  2  0
 24 19  1  0
 25 24  2  0
 26 22  1  0
 27 24  1  0
M  END
$$$$
