HPE.pdb
     RDKit          3D

 27 28  0  0  1  0  0  0  0  0999 V2000
    9.9824  -14.3268   21.4236 N   0  0  0  0  0  0  0  0  0  0  0  0
    8.8044  -14.0038   22.1473 C   0  0  1  0  0  0  0  0  0  0  0  0
    7.5436  -14.5432   21.4824 C   0  0  0  0  0  0  0  0  0  0  0  0
    7.4622  -14.1299   20.0620 C   0  0  0  0  0  0  0  0  0  0  0  0
    8.3761  -13.4206   19.3225 C   0  0  0  0  0  0  0  0  0  0  0  0
    7.8695  -13.2831   18.0811 N   0  0  0  0  0  0  0  0  0  0  0  0
    6.6704  -13.8891   18.0412 C   0  0  0  0  0  0  0  0  0  0  0  0
    6.4322  -14.4019   19.2545 N   0  0  0  0  0  0  0  0  0  0  0  0
    8.8324  -14.4050   23.5919 C   0  0  0  0  0  0  0  0  0  0  0  0
    9.6981  -15.2948   23.9106 O   0  0  0  0  0  0  0  0  0  0  0  0
    7.9609  -13.8421   24.5641 N   0  0  0  0  0  0  0  0  0  0  0  0
    6.8311  -12.9767   24.4007 C   0  0  0  0  0  0  0  0  0  0  0  0
    6.1709  -12.8944   25.7446 C   0  0  0  0  0  0  0  0  0  0  0  0
    7.3587  -12.9897   26.6730 C   0  0  0  0  0  0  0  0  0  0  0  0
    8.1352  -14.0859   25.9811 C   0  0  1  0  0  0  0  0  0  0  0  0
    7.6711  -15.4299   26.3798 C   0  0  0  0  0  0  0  0  0  0  0  0
    6.7247  -15.9528   25.7062 O   0  0  0  0  0  0  0  0  0  0  0  0
    8.1972  -16.1688   27.4461 N   0  0  0  0  0  0  0  0  0  0  0  0
    8.9368  -17.4389   27.3088 C   0  0  1  0  0  0  0  0  0  0  0  0
    9.7575  -17.4320   26.0824 C   0  0  0  0  0  0  0  0  0  0  0  0
   10.6072  -18.6418   25.9134 C   0  0  0  0  0  0  0  0  0  0  0  0
   11.4058  -18.6808   24.6683 C   0  0  0  0  0  0  0  0  0  0  0  0
   10.9229  -18.4883   23.5124 O   0  0  0  0  0  0  0  0  0  0  0  0
    9.4540  -17.9235   28.5546 C   0  0  0  0  0  0  0  0  0  0  0  0
   10.1549  -17.3187   29.4079 O   0  0  0  0  0  0  0  0  0  0  0  0
   12.7881  -18.9427   24.7179 O   0  0  0  0  0  0  0  0  0  0  0  0
    9.1494  -19.2671   28.8994 O   0  0  0  0  0  0  0  0  0  0  0  0
  2  1  1  6
  2  9  1  0
  3  4  1  0
  3  2  1  0
  4  8  1  0
  4  5  2  0
  5  6  1  0
  7  6  1  0
  8  7  2  0
  9 11  1  0
  9 10  2  0
 11 12  1  0
 13 12  1  0
 14 15  1  0
 14 13  1  0
 15 11  1  0
 15 16  1  1
 16 17  2  0
 18 16  1  0
 19 18  1  0
 19 20  1  6
 21 20  1  0
 22 21  1  0
 23 22  2  0
 24 19  1  0
 25 24  2  0
 26 22  1  0
 27 24  1  0
M  END
$$$$
