HPE.pdb
     RDKit          3D

 27 28  0  0  1  0  0  0  0  0999 V2000
   10.2615  -14.8004   20.9399 N   0  0  0  0  0  0  0  0  0  0  0  0
    9.1832  -14.2558   21.6857 C   0  0  1  0  0  0  0  0  0  0  0  0
    7.8306  -14.5181   21.0343 C   0  0  0  0  0  0  0  0  0  0  0  0
    7.8450  -14.1622   19.5962 C   0  0  0  0  0  0  0  0  0  0  0  0
    8.1030  -12.9440   19.0176 C   0  0  0  0  0  0  0  0  0  0  0  0
    8.0005  -13.1024   17.6831 N   0  0  0  0  0  0  0  0  0  0  0  0
    7.6869  -14.3847   17.4296 C   0  0  0  0  0  0  0  0  0  0  0  0
    7.5945  -15.0215   18.6033 N   0  0  0  0  0  0  0  0  0  0  0  0
    9.1477  -14.6759   23.1248 C   0  0  0  0  0  0  0  0  0  0  0  0
   10.0479  -15.5130   23.4875 O   0  0  0  0  0  0  0  0  0  0  0  0
    8.1830  -14.1844   24.0464 N   0  0  0  0  0  0  0  0  0  0  0  0
    6.9935  -13.4197   23.8182 C   0  0  0  0  0  0  0  0  0  0  0  0
    6.2611  -13.3871   25.1264 C   0  0  0  0  0  0  0  0  0  0  0  0
    7.4037  -13.3757   26.1142 C   0  0  0  0  0  0  0  0  0  0  0  0
    8.3050  -14.4051   25.4728 C   0  0  1  0  0  0  0  0  0  0  0  0
    7.9372  -15.7817   25.8603 C   0  0  0  0  0  0  0  0  0  0  0  0
    6.9860  -16.3413   25.2240 O   0  0  0  0  0  0  0  0  0  0  0  0
    8.5596  -16.5143   26.8781 N   0  0  0  0  0  0  0  0  0  0  0  0
    8.9167  -17.9439   26.7913 C   0  0  1  0  0  0  0  0  0  0  0  0
    9.4920  -18.2562   25.4688 C   0  0  0  0  0  0  0  0  0  0  0  0
   10.9780  -18.1950   25.4229 C   0  0  0  0  0  0  0  0  0  0  0  0
   11.5834  -18.5704   24.1259 C   0  0  0  0  0  0  0  0  0  0  0  0
   10.9144  -18.9280   23.1106 O   0  0  0  0  0  0  0  0  0  0  0  0
    9.4968  -18.4508   28.0001 C   0  0  0  0  0  0  0  0  0  0  0  0
    9.5074  -19.6316   28.4367 O   0  0  0  0  0  0  0  0  0  0  0  0
   12.9810  -18.5440   23.9594 O   0  0  0  0  0  0  0  0  0  0  0  0
   10.1569  -17.5146   28.8397 O   0  0  0  0  0  0  0  0  0  0  0  0
  2  1  1  6
  2  9  1  0
  3  4  1  0
  3  2  1  0
  4  8  1  0
  4  5  2  0
  5  6  1  0
  7  6  1  0
  8  7  2  0
  9 11  1  0
  9 10  2  0
 11 12  1  0
 13 12  1  0
 14 15  1  0
 14 13  1  0
 15 11  1  0
 15 16  1  6
 16 17  2  0
 18 16  1  0
 19 18  1  0
 19 20  1  6
 21 20  1  0
 22 21  1  0
 23 22  2  0
 24 19  1  0
 25 24  2  0
 26 22  1  0
 27 24  1  0
M  END
$$$$
