HPE.pdb
     RDKit          3D

 27 28  0  0  1  0  0  0  0  0999 V2000
   11.7441  -13.5140   17.8713 N   0  0  0  0  0  0  0  0  0  0  0  0
   10.4732  -13.9270   18.3510 C   0  0  1  0  0  0  0  0  0  0  0  0
    9.9553  -15.1705   17.6382 C   0  0  0  0  0  0  0  0  0  0  0  0
   10.0064  -15.0108   16.1662 C   0  0  0  0  0  0  0  0  0  0  0  0
    9.1247  -14.3527   15.3448 C   0  0  0  0  0  0  0  0  0  0  0  0
    9.5820  -14.4755   14.0828 N   0  0  0  0  0  0  0  0  0  0  0  0
   10.7196  -15.1910   14.1102 C   0  0  0  0  0  0  0  0  0  0  0  0
   10.9688  -15.5121   15.3855 N   0  0  0  0  0  0  0  0  0  0  0  0
   10.4025  -14.1220   19.8361 C   0  0  0  0  0  0  0  0  0  0  0  0
   11.5149  -14.3668   20.4237 O   0  0  0  0  0  0  0  0  0  0  0  0
    9.1848  -14.0417   20.5657 N   0  0  0  0  0  0  0  0  0  0  0  0
    7.8566  -13.7488   20.1164 C   0  0  0  0  0  0  0  0  0  0  0  0
    6.9519  -14.0259   21.2798 C   0  0  0  0  0  0  0  0  0  0  0  0
    7.8294  -13.6374   22.4463 C   0  0  0  0  0  0  0  0  0  0  0  0
    9.1353  -14.2516   21.9980 C   0  0  1  0  0  0  0  0  0  0  0  0
    9.2280  -15.6806   22.3586 C   0  0  0  0  0  0  0  0  0  0  0  0
    8.9403  -16.5371   21.4605 O   0  0  0  0  0  0  0  0  0  0  0  0
    9.6086  -16.1598   23.6177 N   0  0  0  0  0  0  0  0  0  0  0  0
   10.8275  -16.9474   23.8875 C   0  0  1  0  0  0  0  0  0  0  0  0
   11.9742  -16.4045   23.1339 C   0  0  0  0  0  0  0  0  0  0  0  0
   13.2514  -17.1328   23.3631 C   0  0  0  0  0  0  0  0  0  0  0  0
   14.4099  -16.6291   22.5926 C   0  0  0  0  0  0  0  0  0  0  0  0
   14.3577  -16.3046   21.3685 O   0  0  0  0  0  0  0  0  0  0  0  0
   10.9500  -17.3370   25.2614 C   0  0  0  0  0  0  0  0  0  0  0  0
   11.2243  -18.4686   25.7404 O   0  0  0  0  0  0  0  0  0  0  0  0
   15.6660  -16.4830   23.2112 O   0  0  0  0  0  0  0  0  0  0  0  0
   10.7382  -16.3281   26.2384 O   0  0  0  0  0  0  0  0  0  0  0  0
  2  1  1  6
  2  9  1  0
  3  4  1  0
  3  2  1  0
  4  8  1  0
  4  5  2  0
  5  6  1  0
  7  6  1  0
  8  7  2  0
  9 11  1  0
  9 10  2  0
 11 12  1  0
 13 12  1  0
 14 15  1  0
 14 13  1  0
 15 11  1  0
 15 16  1  6
 16 17  2  0
 18 16  1  0
 19 18  1  0
 19 20  1  1
 21 20  1  0
 22 21  1  0
 23 22  2  0
 24 19  1  0
 25 24  2  0
 26 22  1  0
 27 24  1  0
M  END
$$$$
