HPE.pdb
     RDKit          3D

 27 28  0  0  1  0  0  0  0  0999 V2000
    5.3313  -18.0832   24.6468 N   0  0  0  0  0  0  0  0  0  0  0  0
    6.0458  -16.8576   24.7036 C   0  0  1  0  0  0  0  0  0  0  0  0
    6.4360  -16.4739   26.1260 C   0  0  0  0  0  0  0  0  0  0  0  0
    6.9699  -15.0932   26.1865 C   0  0  0  0  0  0  0  0  0  0  0  0
    6.3233  -13.9402   26.5576 C   0  0  0  0  0  0  0  0  0  0  0  0
    7.2102  -12.9305   26.4548 N   0  0  0  0  0  0  0  0  0  0  0  0
    8.3818  -13.4347   26.0307 C   0  0  0  0  0  0  0  0  0  0  0  0
    8.2237  -14.7542   25.8703 N   0  0  0  0  0  0  0  0  0  0  0  0
    7.2481  -16.7968   23.8095 C   0  0  0  0  0  0  0  0  0  0  0  0
    7.9966  -17.8372   23.8038 O   0  0  0  0  0  0  0  0  0  0  0  0
    7.5544  -15.6632   23.0077 N   0  0  0  0  0  0  0  0  0  0  0  0
    6.8810  -14.4042   22.8929 C   0  0  0  0  0  0  0  0  0  0  0  0
    7.7783  -13.5242   22.0747 C   0  0  0  0  0  0  0  0  0  0  0  0
    8.4095  -14.5240   21.1347 C   0  0  0  0  0  0  0  0  0  0  0  0
    8.6887  -15.6465   22.1071 C   0  0  1  0  0  0  0  0  0  0  0  0
    9.9677  -15.4563   22.8203 C   0  0  0  0  0  0  0  0  0  0  0  0
   10.0513  -14.4807   23.6350 O   0  0  0  0  0  0  0  0  0  0  0  0
   11.0946  -16.2720   22.6630 N   0  0  0  0  0  0  0  0  0  0  0  0
   12.3906  -16.0595   23.3367 C   0  0  1  0  0  0  0  0  0  0  0  0
   12.3967  -16.7012   24.6655 C   0  0  0  0  0  0  0  0  0  0  0  0
   11.8991  -18.1036   24.6652 C   0  0  0  0  0  0  0  0  0  0  0  0
   11.9234  -18.7801   25.9809 C   0  0  0  0  0  0  0  0  0  0  0  0
   12.4870  -18.3030   27.0109 O   0  0  0  0  0  0  0  0  0  0  0  0
   13.5090  -16.1674   22.4467 C   0  0  0  0  0  0  0  0  0  0  0  0
   13.5349  -16.5765   21.2563 O   0  0  0  0  0  0  0  0  0  0  0  0
   11.2966  -20.0293   26.1498 O   0  0  0  0  0  0  0  0  0  0  0  0
   14.7742  -15.7641   22.9505 O   0  0  0  0  0  0  0  0  0  0  0  0
  2  1  1  1
  2  9  1  0
  3  4  1  0
  3  2  1  0
  4  8  1  0
  4  5  2  0
  5  6  1  0
  7  6  1  0
  8  7  2  0
  9 11  1  0
  9 10  2  0
 11 12  1  0
 13 12  1  0
 14 15  1  0
 14 13  1  0
 15 11  1  0
 15 16  1  1
 16 17  2  0
 18 16  1  0
 19 18  1  0
 19 20  1  1
 21 20  1  0
 22 21  1  0
 23 22  2  0
 24 19  1  0
 25 24  2  0
 26 22  1  0
 27 24  1  0
M  END
$$$$
