HPE.pdb
     RDKit          3D

 27 28  0  0  1  0  0  0  0  0999 V2000
   11.2384  -13.9317   18.8507 N   0  0  0  0  0  0  0  0  0  0  0  0
   10.0287  -14.1068   19.5731 C   0  0  1  0  0  0  0  0  0  0  0  0
    9.0731  -15.0756   18.8869 C   0  0  0  0  0  0  0  0  0  0  0  0
    8.8031  -14.6689   17.4881 C   0  0  0  0  0  0  0  0  0  0  0  0
    8.5020  -13.4207   17.0017 C   0  0  0  0  0  0  0  0  0  0  0  0
    8.3379  -13.5369   15.6690 N   0  0  0  0  0  0  0  0  0  0  0  0
    8.5303  -14.8225   15.3269 C   0  0  0  0  0  0  0  0  0  0  0  0
    8.8133  -15.5036   16.4439 N   0  0  0  0  0  0  0  0  0  0  0  0
   10.2130  -14.5008   21.0082 C   0  0  0  0  0  0  0  0  0  0  0  0
   11.3459  -15.0208   21.3065 O   0  0  0  0  0  0  0  0  0  0  0  0
    9.2046  -14.3144   21.9931 N   0  0  0  0  0  0  0  0  0  0  0  0
    7.8452  -13.8852   21.8531 C   0  0  0  0  0  0  0  0  0  0  0  0
    7.2023  -14.0926   23.1919 C   0  0  0  0  0  0  0  0  0  0  0  0
    8.3536  -13.8120   24.1286 C   0  0  0  0  0  0  0  0  0  0  0  0
    9.4578  -14.5431   23.4008 C   0  0  1  0  0  0  0  0  0  0  0  0
    9.4870  -15.9803   23.7387 C   0  0  0  0  0  0  0  0  0  0  0  0
    8.6233  -16.7357   23.1853 O   0  0  0  0  0  0  0  0  0  0  0  0
   10.3961  -16.5703   24.6248 N   0  0  0  0  0  0  0  0  0  0  0  0
   10.4134  -18.0012   24.9872 C   0  0  1  0  0  0  0  0  0  0  0  0
   11.7297  -18.5970   24.6875 C   0  0  0  0  0  0  0  0  0  0  0  0
   12.3458  -18.1055   23.4253 C   0  0  0  0  0  0  0  0  0  0  0  0
   13.6759  -18.6731   23.1118 C   0  0  0  0  0  0  0  0  0  0  0  0
   13.9436  -19.2981   22.0422 O   0  0  0  0  0  0  0  0  0  0  0  0
    9.7280  -18.2763   26.2156 C   0  0  0  0  0  0  0  0  0  0  0  0
    9.2538  -17.4660   27.0545 O   0  0  0  0  0  0  0  0  0  0  0  0
   14.7402  -18.5363   24.0231 O   0  0  0  0  0  0  0  0  0  0  0  0
    9.5440  -19.6422   26.5586 O   0  0  0  0  0  0  0  0  0  0  0  0
  2  1  1  6
  2  9  1  0
  3  4  1  0
  3  2  1  0
  4  8  1  0
  4  5  2  0
  5  6  1  0
  7  6  1  0
  8  7  2  0
  9 11  1  0
  9 10  2  0
 11 12  1  0
 13 12  1  0
 14 15  1  0
 14 13  1  0
 15 11  1  0
 15 16  1  6
 16 17  2  0
 18 16  1  0
 19 18  1  0
 19 20  1  1
 21 20  1  0
 22 21  1  0
 23 22  2  0
 24 19  1  0
 25 24  2  0
 26 22  1  0
 27 24  1  0
M  END
$$$$
