HPE.pdb
     RDKit          3D

 27 28  0  0  1  0  0  0  0  0999 V2000
    9.8056  -13.1402   17.4663 N   0  0  0  0  0  0  0  0  0  0  0  0
    9.1418  -14.1117   18.2610 C   0  0  1  0  0  0  0  0  0  0  0  0
    9.2801  -15.5211   17.6978 C   0  0  0  0  0  0  0  0  0  0  0  0
    8.9206  -15.5670   16.2613 C   0  0  0  0  0  0  0  0  0  0  0  0
    7.6823  -15.4337   15.6834 C   0  0  0  0  0  0  0  0  0  0  0  0
    7.8461  -15.5464   14.3503 N   0  0  0  0  0  0  0  0  0  0  0  0
    9.1512  -15.7451   14.0972 C   0  0  0  0  0  0  0  0  0  0  0  0
    9.7969  -15.7559   15.2696 N   0  0  0  0  0  0  0  0  0  0  0  0
    9.5288  -14.0996   19.7097 C   0  0  0  0  0  0  0  0  0  0  0  0
   10.7553  -13.8252   19.9608 O   0  0  0  0  0  0  0  0  0  0  0  0
    8.6046  -14.3714   20.7555 N   0  0  0  0  0  0  0  0  0  0  0  0
    7.2105  -14.6951   20.6949 C   0  0  0  0  0  0  0  0  0  0  0  0
    6.8145  -15.0958   22.0846 C   0  0  0  0  0  0  0  0  0  0  0  0
    7.7017  -14.2052   22.9221 C   0  0  0  0  0  0  0  0  0  0  0  0
    8.9942  -14.3352   22.1500 C   0  0  1  0  0  0  0  0  0  0  0  0
    9.7598  -15.5332   22.5493 C   0  0  0  0  0  0  0  0  0  0  0  0
    9.5291  -16.6184   21.9233 O   0  0  0  0  0  0  0  0  0  0  0  0
   10.7202  -15.5601   23.5675 N   0  0  0  0  0  0  0  0  0  0  0  0
   11.7487  -16.6063   23.7298 C   0  0  1  0  0  0  0  0  0  0  0  0
   13.0925  -16.0603   23.4582 C   0  0  0  0  0  0  0  0  0  0  0  0
   14.1933  -17.0488   23.6167 C   0  0  0  0  0  0  0  0  0  0  0  0
   15.5575  -16.5066   23.4308 C   0  0  0  0  0  0  0  0  0  0  0  0
   15.8105  -15.2795   23.2399 O   0  0  0  0  0  0  0  0  0  0  0  0
   11.5011  -17.4665   24.8494 C   0  0  0  0  0  0  0  0  0  0  0  0
   10.8140  -17.2433   25.8805 O   0  0  0  0  0  0  0  0  0  0  0  0
   16.6736  -17.3640   23.4602 O   0  0  0  0  0  0  0  0  0  0  0  0
   12.1006  -18.7536   24.8176 O   0  0  0  0  0  0  0  0  0  0  0  0
  2  1  1  6
  2  9  1  0
  3  4  1  0
  3  2  1  0
  4  8  1  0
  4  5  2  0
  5  6  1  0
  7  6  1  0
  8  7  2  0
  9 11  1  0
  9 10  2  0
 11 12  1  0
 13 12  1  0
 14 15  1  0
 14 13  1  0
 15 11  1  0
 15 16  1  1
 16 17  2  0
 18 16  1  0
 19 18  1  0
 19 20  1  1
 21 20  1  0
 22 21  1  0
 23 22  2  0
 24 19  1  0
 25 24  2  0
 26 22  1  0
 27 24  1  0
M  END
$$$$
