TLT.pdb
     RDKit          3D

 23 22  0  0  1  0  0  0  0  0999 V2000
   20.7066   -6.7767  -20.2997 C   0  0  0  0  0  0  0  0  0  0  0  0
   19.3524   -7.4081  -20.4269 C   0  0  1  0  0  0  0  0  0  0  0  0
   18.9919   -7.6051  -21.7527 O   0  0  0  0  0  0  0  0  0  0  0  0
   19.2266   -8.7053  -19.6899 C   0  0  2  0  0  0  0  0  0  0  0  0
   17.9405   -9.3316  -19.9022 N   0  0  0  0  0  0  0  0  0  0  0  0
   19.5295   -8.6115  -18.2599 C   0  0  0  0  0  0  0  0  0  0  0  0
   18.7586   -8.0848  -17.4189 O   0  0  0  0  0  0  0  0  0  0  0  0
   21.7564  -10.1451  -13.5504 C   0  0  0  0  0  0  0  0  0  0  0  0
   22.7085  -10.0474  -14.6912 C   0  0  1  0  0  0  0  0  0  0  0  0
   23.7112  -11.2086  -14.5496 C   0  0  0  0  0  0  0  0  0  0  0  0
   22.1370  -10.0822  -16.0629 C   0  0  0  0  0  0  0  0  0  0  0  0
   21.2171   -8.9424  -16.4170 C   0  0  2  0  0  0  0  0  0  0  0  0
   20.7533   -9.1360  -17.7709 N   0  0  0  0  0  0  0  0  0  0  0  0
   21.8798   -7.6680  -16.1505 C   0  0  0  0  0  0  0  0  0  0  0  0
   23.0038   -7.4505  -16.6945 O   0  0  0  0  0  0  0  0  0  0  0  0
   20.7425   -4.3444  -17.1368 C   0  0  0  0  0  0  0  0  0  0  0  0
   21.0317   -4.2312  -15.6390 C   0  0  1  0  0  0  0  0  0  0  0  0
   19.8193   -4.4519  -14.9877 O   0  0  0  0  0  0  0  0  0  0  0  0
   21.9807   -5.3310  -15.1994 C   0  0  2  0  0  0  0  0  0  0  0  0
   21.3734   -6.6388  -15.3323 N   0  0  0  0  0  0  0  0  0  0  0  0
   22.2449   -5.0939  -13.7590 C   0  0  0  0  0  0  0  0  0  0  0  0
   21.7942   -5.9872  -12.7742 O   0  0  0  0  0  0  0  0  0  0  0  0
   22.8787   -4.0978  -13.3146 O   0  0  0  0  0  0  0  0  0  0  0  0
  2  1  1  6
  2  3  1  0
  4  2  1  0
  4  6  1  0
  4  5  1  1
  6 13  1  0
  6  7  2  0
  9  8  1  1
  9 10  1  0
 11  9  1  0
 12 11  1  6
 13 12  1  0
 14 12  1  0
 14 15  2  0
 17 16  1  6
 17 19  1  0
 18 17  1  0
 19 20  1  1
 20 14  1  0
 21 19  1  0
 22 21  1  0
 23 21  2  0
M  END
$$$$
