TLT.pdb
     RDKit          3D

 23 22  0  0  1  0  0  0  0  0999 V2000
   16.5506  -12.5366  -17.4943 C   0  0  0  0  0  0  0  0  0  0  0  0
   17.2338  -11.6226  -16.5215 C   0  0  1  0  0  0  0  0  0  0  0  0
   18.0232  -12.3200  -15.6175 O   0  0  0  0  0  0  0  0  0  0  0  0
   18.0648  -10.5645  -17.1786 C   0  0  2  0  0  0  0  0  0  0  0  0
   19.1152  -11.1260  -17.9989 N   0  0  0  0  0  0  0  0  0  0  0  0
   18.6058   -9.5683  -16.2510 C   0  0  0  0  0  0  0  0  0  0  0  0
   17.9188   -8.9932  -15.3700 O   0  0  0  0  0  0  0  0  0  0  0  0
   23.6502   -9.9705  -14.1653 C   0  0  0  0  0  0  0  0  0  0  0  0
   22.2445   -9.5145  -14.3479 C   0  0  1  0  0  0  0  0  0  0  0  0
   21.7306   -9.0559  -12.9696 C   0  0  0  0  0  0  0  0  0  0  0  0
   22.0018   -8.4240  -15.3284 C   0  0  0  0  0  0  0  0  0  0  0  0
   20.5556   -8.1060  -15.6079 C   0  0  2  0  0  0  0  0  0  0  0  0
   19.9772   -9.2150  -16.3298 N   0  0  0  0  0  0  0  0  0  0  0  0
   20.4506   -6.8024  -16.2591 C   0  0  0  0  0  0  0  0  0  0  0  0
   21.2741   -6.5239  -17.1814 O   0  0  0  0  0  0  0  0  0  0  0  0
   18.0137   -5.4146  -18.5747 C   0  0  0  0  0  0  0  0  0  0  0  0
   18.0463   -4.4522  -17.3861 C   0  0  1  0  0  0  0  0  0  0  0  0
   17.0626   -4.8890  -16.5006 O   0  0  0  0  0  0  0  0  0  0  0  0
   19.3757   -4.5531  -16.6608 C   0  0  2  0  0  0  0  0  0  0  0  0
   19.4984   -5.8100  -15.9526 N   0  0  0  0  0  0  0  0  0  0  0  0
   19.3798   -3.4606  -15.6572 C   0  0  0  0  0  0  0  0  0  0  0  0
   19.3877   -2.1107  -16.0430 O   0  0  0  0  0  0  0  0  0  0  0  0
   19.3766   -3.6508  -14.4102 O   0  0  0  0  0  0  0  0  0  0  0  0
  2  1  1  6
  2  3  1  0
  4  2  1  0
  4  6  1  0
  4  5  1  1
  6 13  1  0
  6  7  2  0
  9  8  1  1
  9 10  1  0
 11  9  1  0
 12 11  1  6
 13 12  1  0
 14 12  1  0
 14 15  2  0
 17 16  1  6
 17 19  1  0
 18 17  1  0
 19 20  1  1
 20 14  1  0
 21 19  1  0
 22 21  1  0
 23 21  2  0
M  END
$$$$
