TLT.pdb
     RDKit          3D

 23 22  0  0  1  0  0  0  0  0999 V2000
   18.3468   -8.7695  -18.5481 C   0  0  0  0  0  0  0  0  0  0  0  0
   17.6175   -9.7818  -17.7162 C   0  0  1  0  0  0  0  0  0  0  0  0
   16.6708  -10.4783  -18.4547 O   0  0  0  0  0  0  0  0  0  0  0  0
   18.5236  -10.7620  -17.0379 C   0  0  2  0  0  0  0  0  0  0  0  0
   17.7897  -11.8269  -16.3909 N   0  0  0  0  0  0  0  0  0  0  0  0
   19.4779  -10.1500  -16.1103 C   0  0  0  0  0  0  0  0  0  0  0  0
   19.1481   -9.6352  -15.0126 O   0  0  0  0  0  0  0  0  0  0  0  0
   24.4903  -12.3855  -15.7809 C   0  0  0  0  0  0  0  0  0  0  0  0
   23.2428  -11.6382  -15.4606 C   0  0  1  0  0  0  0  0  0  0  0  0
   23.0409  -11.7193  -13.9353 C   0  0  0  0  0  0  0  0  0  0  0  0
   23.1773  -10.2107  -15.8698 C   0  0  0  0  0  0  0  0  0  0  0  0
   21.8656   -9.5157  -15.6105 C   0  0  2  0  0  0  0  0  0  0  0  0
   20.8560  -10.1237  -16.4451 N   0  0  0  0  0  0  0  0  0  0  0  0
   22.0295   -8.0721  -15.7641 C   0  0  0  0  0  0  0  0  0  0  0  0
   22.5263   -7.6360  -16.8455 O   0  0  0  0  0  0  0  0  0  0  0  0
   19.7487   -5.5535  -16.4430 C   0  0  0  0  0  0  0  0  0  0  0  0
   20.4350   -5.0235  -15.1828 C   0  0  1  0  0  0  0  0  0  0  0  0
   19.6466   -5.4283  -14.1070 O   0  0  0  0  0  0  0  0  0  0  0  0
   21.7951   -5.6741  -15.0084 C   0  0  2  0  0  0  0  0  0  0  0  0
   21.6764   -7.1028  -14.8044 N   0  0  0  0  0  0  0  0  0  0  0  0
   22.3782   -5.0837  -13.7788 C   0  0  0  0  0  0  0  0  0  0  0  0
   22.6134   -5.8601  -12.6330 O   0  0  0  0  0  0  0  0  0  0  0  0
   22.7009   -3.8694  -13.6661 O   0  0  0  0  0  0  0  0  0  0  0  0
  2  1  1  6
  2  3  1  0
  4  2  1  0
  4  6  1  0
  4  5  1  1
  6 13  1  0
  6  7  2  0
  9  8  1  1
  9 10  1  0
 11  9  1  0
 12 11  1  6
 13 12  1  0
 14 12  1  0
 14 15  2  0
 17 16  1  6
 17 19  1  0
 18 17  1  0
 19 20  1  1
 20 14  1  0
 21 19  1  0
 22 21  1  0
 23 21  2  0
M  END
$$$$
