TLT.pdb
     RDKit          3D

 23 22  0  0  1  0  0  0  0  0999 V2000
   18.9995  -11.6881  -20.5426 C   0  0  0  0  0  0  0  0  0  0  0  0
   19.0070  -10.7152  -19.4015 C   0  0  1  0  0  0  0  0  0  0  0  0
   17.7568  -10.1504  -19.1903 O   0  0  0  0  0  0  0  0  0  0  0  0
   19.4981  -11.3057  -18.1163 C   0  0  2  0  0  0  0  0  0  0  0  0
   18.7117  -12.4472  -17.7040 N   0  0  0  0  0  0  0  0  0  0  0  0
   19.6228  -10.3381  -17.0237 C   0  0  0  0  0  0  0  0  0  0  0  0
   18.7013  -10.0898  -16.2063 O   0  0  0  0  0  0  0  0  0  0  0  0
   23.6446   -9.9512  -13.4707 C   0  0  0  0  0  0  0  0  0  0  0  0
   22.3452   -9.7192  -14.1600 C   0  0  1  0  0  0  0  0  0  0  0  0
   21.3153   -9.3420  -13.0779 C   0  0  0  0  0  0  0  0  0  0  0  0
   22.3121   -8.6823  -15.2246 C   0  0  0  0  0  0  0  0  0  0  0  0
   20.9961   -8.5228  -15.9411 C   0  0  2  0  0  0  0  0  0  0  0  0
   20.8396   -9.6287  -16.8565 N   0  0  0  0  0  0  0  0  0  0  0  0
   20.9128   -7.1912  -16.5362 C   0  0  0  0  0  0  0  0  0  0  0  0
   21.9096   -6.7630  -17.1916 O   0  0  0  0  0  0  0  0  0  0  0  0
   18.5148   -5.8874  -19.1841 C   0  0  0  0  0  0  0  0  0  0  0  0
   18.4278   -4.9730  -17.9608 C   0  0  1  0  0  0  0  0  0  0  0  0
   17.3997   -5.4776  -17.1664 O   0  0  0  0  0  0  0  0  0  0  0  0
   19.7047   -5.0589  -17.1450 C   0  0  2  0  0  0  0  0  0  0  0  0
   19.8047   -6.3251  -16.4497 N   0  0  0  0  0  0  0  0  0  0  0  0
   19.6145   -3.9840  -16.1266 C   0  0  0  0  0  0  0  0  0  0  0  0
   19.4749   -4.2778  -14.7609 O   0  0  0  0  0  0  0  0  0  0  0  0
   19.6547   -2.7527  -16.3978 O   0  0  0  0  0  0  0  0  0  0  0  0
  2  1  1  6
  2  3  1  0
  4  2  1  0
  4  6  1  0
  4  5  1  1
  6 13  1  0
  6  7  2  0
  9  8  1  1
  9 10  1  0
 11  9  1  0
 12 11  1  6
 13 12  1  0
 14 12  1  0
 14 15  2  0
 17 16  1  6
 17 19  1  0
 18 17  1  0
 19 20  1  1
 20 14  1  0
 21 19  1  0
 22 21  1  0
 23 21  2  0
M  END
$$$$
