TLT.pdb
     RDKit          3D

 23 22  0  0  1  0  0  0  0  0999 V2000
   20.9754   -8.9053  -20.9210 C   0  0  0  0  0  0  0  0  0  0  0  0
   20.1169  -10.0889  -20.5887 C   0  0  1  0  0  0  0  0  0  0  0  0
   20.2112  -11.0869  -21.5488 O   0  0  0  0  0  0  0  0  0  0  0  0
   20.4071  -10.6784  -19.2433 C   0  0  2  0  0  0  0  0  0  0  0  0
   19.6652  -11.8976  -19.0096 N   0  0  0  0  0  0  0  0  0  0  0  0
   20.2321   -9.7419  -18.1307 C   0  0  0  0  0  0  0  0  0  0  0  0
   19.1119   -9.4281  -17.6557 O   0  0  0  0  0  0  0  0  0  0  0  0
   23.6185  -10.0136  -13.8764 C   0  0  0  0  0  0  0  0  0  0  0  0
   22.4152   -9.6718  -14.6843 C   0  0  1  0  0  0  0  0  0  0  0  0
   21.2368   -9.5150  -13.7042 C   0  0  0  0  0  0  0  0  0  0  0  0
   22.4864   -8.4548  -15.5349 C   0  0  0  0  0  0  0  0  0  0  0  0
   21.3009   -8.2151  -16.4337 C   0  0  2  0  0  0  0  0  0  0  0  0
   21.3729   -9.1422  -17.5386 N   0  0  0  0  0  0  0  0  0  0  0  0
   21.2302   -6.8016  -16.7962 C   0  0  0  0  0  0  0  0  0  0  0  0
   22.2783   -6.2418  -17.2374 O   0  0  0  0  0  0  0  0  0  0  0  0
   19.8144   -5.0644  -19.5854 C   0  0  0  0  0  0  0  0  0  0  0  0
   19.1408   -4.4480  -18.3581 C   0  0  1  0  0  0  0  0  0  0  0  0
   17.9846   -5.1921  -18.1300 O   0  0  0  0  0  0  0  0  0  0  0  0
   20.0236   -4.6093  -17.1341 C   0  0  2  0  0  0  0  0  0  0  0  0
   20.0823   -5.9900  -16.7018 N   0  0  0  0  0  0  0  0  0  0  0  0
   19.3791   -3.8198  -16.0561 C   0  0  0  0  0  0  0  0  0  0  0  0
   19.3233   -2.4179  -16.1073 O   0  0  0  0  0  0  0  0  0  0  0  0
   18.8437   -4.3301  -15.0342 O   0  0  0  0  0  0  0  0  0  0  0  0
  2  1  1  6
  2  3  1  0
  4  2  1  0
  4  6  1  0
  4  5  1  1
  6 13  1  0
  6  7  2  0
  9  8  1  1
  9 10  1  0
 11  9  1  0
 12 11  1  1
 13 12  1  0
 14 12  1  0
 14 15  2  0
 17 16  1  6
 17 19  1  0
 18 17  1  0
 19 20  1  1
 20 14  1  0
 21 19  1  0
 22 21  1  0
 23 21  2  0
M  END
$$$$
