TLT.pdb
     RDKit          3D

 23 22  0  0  1  0  0  0  0  0999 V2000
   19.9553  -10.1363  -17.2480 C   0  0  0  0  0  0  0  0  0  0  0  0
   19.2464  -11.4247  -17.5411 C   0  0  1  0  0  0  0  0  0  0  0  0
   20.0785  -12.3484  -18.1585 O   0  0  0  0  0  0  0  0  0  0  0  0
   18.6305  -12.0562  -16.3313 C   0  0  2  0  0  0  0  0  0  0  0  0
   18.1027  -13.3731  -16.6115 N   0  0  0  0  0  0  0  0  0  0  0  0
   17.6242  -11.2227  -15.6695 C   0  0  0  0  0  0  0  0  0  0  0  0
   16.4488  -11.0845  -16.0918 O   0  0  0  0  0  0  0  0  0  0  0  0
   14.6894   -8.8501  -11.9739 C   0  0  0  0  0  0  0  0  0  0  0  0
   16.1341   -8.9213  -11.6200 C   0  0  1  0  0  0  0  0  0  0  0  0
   16.2211   -9.3222  -10.1349 C   0  0  0  0  0  0  0  0  0  0  0  0
   16.9860   -9.8488  -12.4097 C   0  0  0  0  0  0  0  0  0  0  0  0
   17.1204   -9.5254  -13.8754 C   0  0  2  0  0  0  0  0  0  0  0  0
   17.9688  -10.5223  -14.4852 N   0  0  0  0  0  0  0  0  0  0  0  0
   17.5516   -8.1394  -14.0407 C   0  0  0  0  0  0  0  0  0  0  0  0
   18.6659   -7.7941  -13.5450 O   0  0  0  0  0  0  0  0  0  0  0  0
   18.3214   -6.2343  -17.2211 C   0  0  0  0  0  0  0  0  0  0  0  0
   17.2689   -5.4468  -16.4386 C   0  0  1  0  0  0  0  0  0  0  0  0
   16.0287   -5.8762  -16.9079 O   0  0  0  0  0  0  0  0  0  0  0  0
   17.3338   -5.7991  -14.9638 C   0  0  2  0  0  0  0  0  0  0  0  0
   16.8311   -7.1342  -14.7156 N   0  0  0  0  0  0  0  0  0  0  0  0
   16.4400   -4.8381  -14.2723 C   0  0  0  0  0  0  0  0  0  0  0  0
   16.7898   -3.4864  -14.1259 O   0  0  0  0  0  0  0  0  0  0  0  0
   15.3238   -5.1491  -13.7735 O   0  0  0  0  0  0  0  0  0  0  0  0
  2  1  1  1
  2  3  1  0
  4  2  1  0
  4  6  1  0
  4  5  1  6
  6 13  1  0
  6  7  2  0
  9  8  1  6
  9 10  1  0
 11  9  1  0
 12 11  1  1
 13 12  1  0
 14 12  1  0
 14 15  2  0
 17 16  1  6
 17 19  1  0
 18 17  1  0
 19 20  1  6
 20 14  1  0
 21 19  1  0
 22 21  1  0
 23 21  2  0
M  END
$$$$
