IIW.pdb
     RDKit          3D

 31 32  0  0  1  0  0  0  0  0999 V2000
   18.7402  -21.2971  -14.0318 C   0  0  0  0  0  0  0  0  0  0  0  0
   19.9780  -21.5425  -14.8561 C   0  0  0  0  0  0  0  0  0  0  0  0
   21.1645  -21.9303  -14.0259 C   0  0  2  0  0  0  0  0  0  0  0  0
   21.4226  -20.9306  -12.9364 C   0  0  0  0  0  0  0  0  0  0  0  0
   22.3779  -22.0281  -14.8993 C   0  0  2  0  0  0  0  0  0  0  0  0
   22.2719  -23.0823  -15.8932 N   0  0  0  0  0  0  0  0  0  0  0  0
   23.6314  -22.1792  -14.1005 C   0  0  0  0  0  0  0  0  0  0  0  0
   23.9095  -23.2896  -13.5803 O   0  0  0  0  0  0  0  0  0  0  0  0
   28.4938  -21.3204  -15.7254 C   0  0  0  0  0  0  0  0  0  0  0  0
   27.2629  -21.6687  -14.9663 C   0  0  0  0  0  0  0  0  0  0  0  0
   26.9888  -20.8588  -13.7469 C   0  0  2  0  0  0  0  0  0  0  0  0
   28.1445  -21.0528  -12.7850 C   0  0  0  0  0  0  0  0  0  0  0  0
   25.7163  -21.2365  -13.0274 C   0  0  2  0  0  0  0  0  0  0  0  0
   24.5581  -21.1230  -13.8824 N   0  0  0  0  0  0  0  0  0  0  0  0
   25.5566  -20.5765  -11.7125 C   0  0  0  0  0  0  0  0  0  0  0  0
   25.0379  -19.4339  -11.6353 O   0  0  0  0  0  0  0  0  0  0  0  0
   25.9663  -21.1779  -10.4915 N   0  0  0  0  0  0  0  0  0  0  0  0
   25.9861  -20.4292   -9.2343 C   0  0  1  0  0  0  0  0  0  0  0  0
   26.7542  -21.2036   -8.1763 C   0  0  0  0  0  0  0  0  0  0  0  0
   27.1256  -20.3113   -7.0567 C   0  0  0  0  0  0  0  0  0  0  0  0
   26.5524  -19.0928   -6.6850 C   0  0  0  0  0  0  0  0  0  0  0  0
   27.2318  -18.6600   -5.6093 N   0  0  0  0  0  0  0  0  0  0  0  0
   28.1938  -19.5120   -5.2693 C   0  0  0  0  0  0  0  0  0  0  0  0
   29.1546  -19.5544   -4.2769 C   0  0  0  0  0  0  0  0  0  0  0  0
   30.0421  -20.5908   -4.1656 C   0  0  0  0  0  0  0  0  0  0  0  0
   29.9893  -21.6336   -5.0647 C   0  0  0  0  0  0  0  0  0  0  0  0
   29.0373  -21.6068   -6.0605 C   0  0  0  0  0  0  0  0  0  0  0  0
   28.1490  -20.5528   -6.1578 C   0  0  0  0  0  0  0  0  0  0  0  0
   26.6592  -19.1201   -9.4165 C   0  0  0  0  0  0  0  0  0  0  0  0
   26.1612  -17.9137   -8.9516 O   0  0  0  0  0  0  0  0  0  0  0  0
   27.7660  -19.0459  -10.0331 O   0  0  0  0  0  0  0  0  0  0  0  0
  2  1  1  0
  2  3  1  0
  3  4  1  1
  5  3  1  0
  5  6  1  6
  7  5  1  0
  7  8  2  0
  9 10  1  0
 10 11  1  0
 11 13  1  0
 11 12  1  1
 13 14  1  6
 13 15  1  0
 14  7  1  0
 15 17  1  0
 16 15  2  0
 17 18  1  0
 18 19  1  1
 19 20  1  0
 20 21  2  0
 22 21  1  0
 23 22  1  0
 24 23  2  0
 25 24  1  0
 26 27  1  0
 26 25  2  0
 27 28  2  0
 28 20  1  0
 28 23  1  0
 29 18  1  0
 30 29  1  0
 31 29  2  0
M  END
$$$$
