IIW.pdb
     RDKit          3D

 31 32  0  0  1  0  0  0  0  0999 V2000
   23.2722  -26.1202  -16.6455 C   0  0  0  0  0  0  0  0  0  0  0  0
   24.1107  -24.9784  -17.1607 C   0  0  0  0  0  0  0  0  0  0  0  0
   24.9939  -24.3812  -16.1070 C   0  0  2  0  0  0  0  0  0  0  0  0
   24.1911  -23.8383  -14.9607 C   0  0  0  0  0  0  0  0  0  0  0  0
   25.8084  -23.2739  -16.7031 C   0  0  2  0  0  0  0  0  0  0  0  0
   26.7344  -23.7418  -17.7200 N   0  0  0  0  0  0  0  0  0  0  0  0
   26.5263  -22.4827  -15.6587 C   0  0  0  0  0  0  0  0  0  0  0  0
   27.5717  -22.9449  -15.1349 O   0  0  0  0  0  0  0  0  0  0  0  0
   27.9847  -17.3495  -15.9640 C   0  0  0  0  0  0  0  0  0  0  0  0
   27.8558  -18.7670  -15.5317 C   0  0  0  0  0  0  0  0  0  0  0  0
   26.9043  -19.0326  -14.4172 C   0  0  2  0  0  0  0  0  0  0  0  0
   27.4414  -18.3573  -13.1705 C   0  0  0  0  0  0  0  0  0  0  0  0
   26.7104  -20.4973  -14.1060 C   0  0  2  0  0  0  0  0  0  0  0  0
   26.0959  -21.2061  -15.2038 N   0  0  0  0  0  0  0  0  0  0  0  0
   26.0679  -20.7486  -12.7968 C   0  0  0  0  0  0  0  0  0  0  0  0
   24.8182  -20.6772  -12.6795 O   0  0  0  0  0  0  0  0  0  0  0  0
   26.8034  -21.0785  -11.6261 N   0  0  0  0  0  0  0  0  0  0  0  0
   26.1404  -21.3183  -10.3437 C   0  0  1  0  0  0  0  0  0  0  0  0
   27.1678  -21.6733   -9.2819 C   0  0  0  0  0  0  0  0  0  0  0  0
   27.2114  -20.6244   -8.2399 C   0  0  0  0  0  0  0  0  0  0  0  0
   26.3859  -19.5074   -8.0913 C   0  0  0  0  0  0  0  0  0  0  0  0
   26.8164  -18.8531   -6.9991 N   0  0  0  0  0  0  0  0  0  0  0  0
   27.8537  -19.4706   -6.4424 C   0  0  0  0  0  0  0  0  0  0  0  0
   28.6535  -19.2352   -5.3404 C   0  0  0  0  0  0  0  0  0  0  0  0
   29.6836  -20.0687   -4.9962 C   0  0  0  0  0  0  0  0  0  0  0  0
   29.9447  -21.1832   -5.7633 C   0  0  0  0  0  0  0  0  0  0  0  0
   29.1566  -21.4325   -6.8656 C   0  0  0  0  0  0  0  0  0  0  0  0
   28.1208  -20.5805   -7.1983 C   0  0  0  0  0  0  0  0  0  0  0  0
   25.4221  -20.1020   -9.8914 C   0  0  0  0  0  0  0  0  0  0  0  0
   24.2229  -20.1149   -9.1978 O   0  0  0  0  0  0  0  0  0  0  0  0
   25.8947  -18.9489  -10.1318 O   0  0  0  0  0  0  0  0  0  0  0  0
  2  1  1  0
  2  3  1  0
  3  4  1  1
  5  3  1  0
  5  6  1  6
  7  5  1  0
  7  8  2  0
  9 10  1  0
 10 11  1  0
 11 13  1  0
 11 12  1  1
 13 14  1  6
 13 15  1  0
 14  7  1  0
 15 17  1  0
 16 15  2  0
 17 18  1  0
 18 19  1  1
 19 20  1  0
 20 21  2  0
 22 21  1  0
 23 22  1  0
 24 23  2  0
 25 24  1  0
 26 27  1  0
 26 25  2  0
 27 28  2  0
 28 20  1  0
 28 23  1  0
 29 18  1  0
 30 29  1  0
 31 29  2  0
M  END
$$$$
