IIW.pdb
     RDKit          3D

 31 32  0  0  1  0  0  0  0  0999 V2000
   22.3895  -16.5912  -24.2395 C   0  0  0  0  0  0  0  0  0  0  0  0
   23.3966  -16.9608  -23.1806 C   0  0  0  0  0  0  0  0  0  0  0  0
   23.0899  -16.3519  -21.8456 C   0  0  2  0  0  0  0  0  0  0  0  0
   23.1797  -14.8543  -21.8916 C   0  0  0  0  0  0  0  0  0  0  0  0
   24.0554  -16.8699  -20.8238 C   0  0  2  0  0  0  0  0  0  0  0  0
   24.0296  -18.3179  -20.7091 N   0  0  0  0  0  0  0  0  0  0  0  0
   23.8536  -16.2305  -19.4887 C   0  0  0  0  0  0  0  0  0  0  0  0
   22.9821  -16.6851  -18.7047 O   0  0  0  0  0  0  0  0  0  0  0  0
   27.4168  -15.5465  -15.7544 C   0  0  0  0  0  0  0  0  0  0  0  0
   26.1835  -15.6061  -16.5839 C   0  0  0  0  0  0  0  0  0  0  0  0
   25.5554  -14.2998  -16.9264 C   0  0  2  0  0  0  0  0  0  0  0  0
   25.1505  -13.6202  -15.6330 C   0  0  0  0  0  0  0  0  0  0  0  0
   24.3266  -14.4142  -17.7962 C   0  0  2  0  0  0  0  0  0  0  0  0
   24.6014  -15.1111  -19.0308 N   0  0  0  0  0  0  0  0  0  0  0  0
   23.6043  -13.1356  -17.9788 C   0  0  0  0  0  0  0  0  0  0  0  0
   24.1988  -12.1331  -18.4502 O   0  0  0  0  0  0  0  0  0  0  0  0
   22.2332  -12.9682  -17.6437 N   0  0  0  0  0  0  0  0  0  0  0  0
   21.5619  -11.6746  -17.7751 C   0  0  1  0  0  0  0  0  0  0  0  0
   20.6219  -11.6918  -18.9690 C   0  0  0  0  0  0  0  0  0  0  0  0
   19.9730  -10.3724  -19.1295 C   0  0  0  0  0  0  0  0  0  0  0  0
   20.5255   -9.1013  -18.9548 C   0  0  0  0  0  0  0  0  0  0  0  0
   19.5467   -8.2173  -19.2131 N   0  0  0  0  0  0  0  0  0  0  0  0
   18.4136   -8.8312  -19.5389 C   0  0  0  0  0  0  0  0  0  0  0  0
   17.1425   -8.4147  -19.8863 C   0  0  0  0  0  0  0  0  0  0  0  0
   16.1404   -9.3000  -20.1799 C   0  0  0  0  0  0  0  0  0  0  0  0
   16.3908  -10.6541  -20.1320 C   0  0  0  0  0  0  0  0  0  0  0  0
   17.6529  -11.0863  -19.7874 C   0  0  0  0  0  0  0  0  0  0  0  0
   18.6528  -10.1786  -19.4943 C   0  0  0  0  0  0  0  0  0  0  0  0
   20.7547  -11.3797  -16.5663 C   0  0  0  0  0  0  0  0  0  0  0  0
   20.6115  -10.1187  -16.0104 O   0  0  0  0  0  0  0  0  0  0  0  0
   20.1355  -12.3092  -15.9634 O   0  0  0  0  0  0  0  0  0  0  0  0
  2  1  1  0
  2  3  1  0
  3  4  1  6
  5  3  1  0
  5  6  1  1
  7  5  1  0
  7  8  2  0
  9 10  1  0
 10 11  1  0
 11 13  1  0
 11 12  1  1
 13 14  1  6
 13 15  1  0
 14  7  1  0
 15 17  1  0
 16 15  2  0
 17 18  1  0
 18 19  1  6
 19 20  1  0
 20 21  2  0
 22 21  1  0
 23 22  1  0
 24 23  2  0
 25 24  1  0
 26 27  1  0
 26 25  2  0
 27 28  2  0
 28 20  1  0
 28 23  1  0
 29 18  1  0
 30 29  1  0
 31 29  2  0
M  END
$$$$
