IIW.pdb
     RDKit          3D

 31 32  0  0  1  0  0  0  0  0999 V2000
   19.7292  -18.6496  -16.4167 C   0  0  0  0  0  0  0  0  0  0  0  0
   21.0011  -18.7912  -17.2133 C   0  0  0  0  0  0  0  0  0  0  0  0
   22.1069  -19.4399  -16.4364 C   0  0  2  0  0  0  0  0  0  0  0  0
   22.2973  -18.7836  -15.1000 C   0  0  0  0  0  0  0  0  0  0  0  0
   23.3851  -19.3509  -17.2130 C   0  0  2  0  0  0  0  0  0  0  0  0
   23.3125  -20.0301  -18.4951 N   0  0  0  0  0  0  0  0  0  0  0  0
   24.5552  -19.8385  -16.4223 C   0  0  0  0  0  0  0  0  0  0  0  0
   24.7639  -21.0736  -16.3142 O   0  0  0  0  0  0  0  0  0  0  0  0
   29.5073  -18.3262  -17.1449 C   0  0  0  0  0  0  0  0  0  0  0  0
   28.2533  -18.9984  -16.7105 C   0  0  0  0  0  0  0  0  0  0  0  0
   27.8711  -18.8215  -15.2820 C   0  0  2  0  0  0  0  0  0  0  0  0
   28.9431  -19.4671  -14.4259 C   0  0  0  0  0  0  0  0  0  0  0  0
   26.5454  -19.4441  -14.9154 C   0  0  2  0  0  0  0  0  0  0  0  0
   25.4755  -18.9765  -15.7651 N   0  0  0  0  0  0  0  0  0  0  0  0
   26.2347  -19.3772  -13.4701 C   0  0  0  0  0  0  0  0  0  0  0  0
   25.9265  -18.2807  -12.9378 O   0  0  0  0  0  0  0  0  0  0  0  0
   26.2631  -20.5162  -12.6203 N   0  0  0  0  0  0  0  0  0  0  0  0
   25.8959  -20.4300  -11.2064 C   0  0  1  0  0  0  0  0  0  0  0  0
   24.7885  -21.4218  -10.8919 C   0  0  0  0  0  0  0  0  0  0  0  0
   23.4931  -20.9225  -11.4021 C   0  0  0  0  0  0  0  0  0  0  0  0
   22.6064  -20.0254  -10.8019 C   0  0  0  0  0  0  0  0  0  0  0  0
   21.5710  -19.8840  -11.6471 N   0  0  0  0  0  0  0  0  0  0  0  0
   21.7333  -20.6239  -12.7394 C   0  0  0  0  0  0  0  0  0  0  0  0
   20.9968  -20.8440  -13.8878 C   0  0  0  0  0  0  0  0  0  0  0  0
   21.4248  -21.6875  -14.8776 C   0  0  0  0  0  0  0  0  0  0  0  0
   22.6271  -22.3464  -14.7397 C   0  0  0  0  0  0  0  0  0  0  0  0
   23.3739  -22.1380  -13.6007 C   0  0  0  0  0  0  0  0  0  0  0  0
   22.9266  -21.2829  -12.6116 C   0  0  0  0  0  0  0  0  0  0  0  0
   27.0573  -20.7581  -10.3441 C   0  0  0  0  0  0  0  0  0  0  0  0
   27.1768  -20.3800   -9.0166 O   0  0  0  0  0  0  0  0  0  0  0  0
   28.0327  -21.4263  -10.8054 O   0  0  0  0  0  0  0  0  0  0  0  0
  2  1  1  0
  2  3  1  0
  3  4  1  1
  5  3  1  0
  5  6  1  6
  7  5  1  0
  7  8  2  0
  9 10  1  0
 10 11  1  0
 11 13  1  0
 11 12  1  1
 13 14  1  6
 13 15  1  0
 14  7  1  0
 15 17  1  0
 16 15  2  0
 17 18  1  0
 18 19  1  6
 19 20  1  0
 20 21  2  0
 22 21  1  0
 23 22  1  0
 24 23  2  0
 25 24  1  0
 26 27  1  0
 26 25  2  0
 27 28  2  0
 28 20  1  0
 28 23  1  0
 29 18  1  0
 30 29  1  0
 31 29  2  0
M  END
$$$$
