IIW.pdb
     RDKit          3D

 31 32  0  0  1  0  0  0  0  0999 V2000
   19.3977  -18.3520  -13.7809 C   0  0  0  0  0  0  0  0  0  0  0  0
   20.6096  -17.9852  -14.5989 C   0  0  0  0  0  0  0  0  0  0  0  0
   21.8303  -18.7666  -14.2161 C   0  0  2  0  0  0  0  0  0  0  0  0
   22.1973  -18.5420  -12.7780 C   0  0  0  0  0  0  0  0  0  0  0  0
   22.9804  -18.3585  -15.0852 C   0  0  2  0  0  0  0  0  0  0  0  0
   22.6901  -18.4938  -16.5021 N   0  0  0  0  0  0  0  0  0  0  0  0
   24.2354  -19.0876  -14.7310 C   0  0  0  0  0  0  0  0  0  0  0  0
   24.2666  -20.3429  -14.7946 O   0  0  0  0  0  0  0  0  0  0  0  0
   28.8578  -17.7072  -16.8319 C   0  0  0  0  0  0  0  0  0  0  0  0
   27.7111  -18.3440  -16.1302 C   0  0  0  0  0  0  0  0  0  0  0  0
   27.8547  -18.5213  -14.6585 C   0  0  2  0  0  0  0  0  0  0  0  0
   29.0456  -19.4257  -14.4087 C   0  0  0  0  0  0  0  0  0  0  0  0
   26.6511  -19.1418  -13.9906 C   0  0  2  0  0  0  0  0  0  0  0  0
   25.4314  -18.4404  -14.3155 N   0  0  0  0  0  0  0  0  0  0  0  0
   26.8332  -19.3866  -12.5425 C   0  0  0  0  0  0  0  0  0  0  0  0
   27.0393  -18.4261  -11.7579 O   0  0  0  0  0  0  0  0  0  0  0  0
   26.7857  -20.6852  -11.9666 N   0  0  0  0  0  0  0  0  0  0  0  0
   26.9923  -20.8990  -10.5338 C   0  0  1  0  0  0  0  0  0  0  0  0
   25.8677  -20.2543   -9.7410 C   0  0  0  0  0  0  0  0  0  0  0  0
   25.9934  -20.5909   -8.3063 C   0  0  0  0  0  0  0  0  0  0  0  0
   25.3249  -21.5795   -7.5802 C   0  0  0  0  0  0  0  0  0  0  0  0
   25.7728  -21.4976   -6.3157 N   0  0  0  0  0  0  0  0  0  0  0  0
   26.6759  -20.5311   -6.1837 C   0  0  0  0  0  0  0  0  0  0  0  0
   27.4293  -20.0353   -5.1367 C   0  0  0  0  0  0  0  0  0  0  0  0
   28.3083  -18.9982   -5.2984 C   0  0  0  0  0  0  0  0  0  0  0  0
   28.4585  -18.4186   -6.5394 C   0  0  0  0  0  0  0  0  0  0  0  0
   27.7147  -18.9011   -7.5942 C   0  0  0  0  0  0  0  0  0  0  0  0
   26.8322  -19.9489   -7.4130 C   0  0  0  0  0  0  0  0  0  0  0  0
   26.9978  -22.3480  -10.2172 C   0  0  0  0  0  0  0  0  0  0  0  0
   26.2234  -23.2936  -10.8697 O   0  0  0  0  0  0  0  0  0  0  0  0
   27.7426  -22.8025   -9.2956 O   0  0  0  0  0  0  0  0  0  0  0  0
  2  1  1  0
  2  3  1  0
  3  4  1  1
  5  3  1  0
  5  6  1  6
  7  5  1  0
  7  8  2  0
  9 10  1  0
 10 11  1  0
 11 13  1  0
 11 12  1  6
 13 14  1  1
 13 15  1  0
 14  7  1  0
 15 17  1  0
 16 15  2  0
 17 18  1  0
 18 19  1  1
 19 20  1  0
 20 21  2  0
 22 21  1  0
 23 22  1  0
 24 23  2  0
 25 24  1  0
 26 27  1  0
 26 25  2  0
 27 28  2  0
 28 20  1  0
 28 23  1  0
 29 18  1  0
 30 29  1  0
 31 29  2  0
M  END
$$$$
