IIW.pdb
     RDKit          3D

 31 32  0  0  1  0  0  0  0  0999 V2000
   19.3605  -18.3628  -13.1974 C   0  0  0  0  0  0  0  0  0  0  0  0
   20.2294  -19.2153  -14.0865 C   0  0  0  0  0  0  0  0  0  0  0  0
   21.3829  -19.8336  -13.3555 C   0  0  2  0  0  0  0  0  0  0  0  0
   22.2609  -18.7885  -12.7310 C   0  0  0  0  0  0  0  0  0  0  0  0
   22.1985  -20.6543  -14.3074 C   0  0  2  0  0  0  0  0  0  0  0  0
   21.4331  -21.7219  -14.9277 N   0  0  0  0  0  0  0  0  0  0  0  0
   23.4336  -21.1949  -13.6636 C   0  0  0  0  0  0  0  0  0  0  0  0
   23.3380  -22.0817  -12.7775 O   0  0  0  0  0  0  0  0  0  0  0  0
   28.1096  -22.2833  -16.2825 C   0  0  0  0  0  0  0  0  0  0  0  0
   26.9662  -22.1929  -15.3352 C   0  0  0  0  0  0  0  0  0  0  0  0
   27.1366  -21.2653  -14.1826 C   0  0  2  0  0  0  0  0  0  0  0  0
   28.3073  -21.7566  -13.3538 C   0  0  0  0  0  0  0  0  0  0  0  0
   25.9311  -21.1760  -13.2778 C   0  0  2  0  0  0  0  0  0  0  0  0
   24.7473  -20.7629  -13.9943 N   0  0  0  0  0  0  0  0  0  0  0  0
   26.1748  -20.4125  -12.0338 C   0  0  0  0  0  0  0  0  0  0  0  0
   26.2416  -19.1574  -12.0627 O   0  0  0  0  0  0  0  0  0  0  0  0
   26.3413  -21.0338  -10.7662 N   0  0  0  0  0  0  0  0  0  0  0  0
   27.0286  -20.3599   -9.6640 C   0  0  1  0  0  0  0  0  0  0  0  0
   26.2211  -20.4940   -8.3838 C   0  0  0  0  0  0  0  0  0  0  0  0
   26.7905  -19.6315   -7.3258 C   0  0  0  0  0  0  0  0  0  0  0  0
   26.7449  -18.2396   -7.2162 C   0  0  0  0  0  0  0  0  0  0  0  0
   27.4020  -17.9205   -6.0881 N   0  0  0  0  0  0  0  0  0  0  0  0
   27.8617  -19.0053   -5.4723 C   0  0  0  0  0  0  0  0  0  0  0  0
   28.5805  -19.2406   -4.3158 C   0  0  0  0  0  0  0  0  0  0  0  0
   28.9242  -20.5040   -3.9157 C   0  0  0  0  0  0  0  0  0  0  0  0
   28.5489  -21.5873   -4.6800 C   0  0  0  0  0  0  0  0  0  0  0  0
   27.8318  -21.3701   -5.8363 C   0  0  0  0  0  0  0  0  0  0  0  0
   27.4932  -20.0880   -6.2250 C   0  0  0  0  0  0  0  0  0  0  0  0
   28.3594  -20.9704   -9.4271 C   0  0  0  0  0  0  0  0  0  0  0  0
   29.4736  -20.2717   -8.9913 O   0  0  0  0  0  0  0  0  0  0  0  0
   28.5423  -22.2110   -9.6228 O   0  0  0  0  0  0  0  0  0  0  0  0
  2  1  1  0
  2  3  1  0
  3  4  1  6
  5  3  1  0
  5  6  1  1
  7  5  1  0
  7  8  2  0
  9 10  1  0
 10 11  1  0
 11 13  1  0
 11 12  1  1
 13 14  1  6
 13 15  1  0
 14  7  1  0
 15 17  1  0
 16 15  2  0
 17 18  1  0
 18 19  1  1
 19 20  1  0
 20 21  2  0
 22 21  1  0
 23 22  1  0
 24 23  2  0
 25 24  1  0
 26 27  1  0
 26 25  2  0
 27 28  2  0
 28 20  1  0
 28 23  1  0
 29 18  1  0
 30 29  1  0
 31 29  2  0
M  END
$$$$
