IIW.pdb
     RDKit          3D

 31 32  0  0  1  0  0  0  0  0999 V2000
   18.4245  -20.7350  -14.4678 C   0  0  0  0  0  0  0  0  0  0  0  0
   19.6634  -19.8954  -14.2884 C   0  0  0  0  0  0  0  0  0  0  0  0
   20.8285  -20.6793  -13.7635 C   0  0  2  0  0  0  0  0  0  0  0  0
   20.4970  -21.3509  -12.4628 C   0  0  0  0  0  0  0  0  0  0  0  0
   21.9975  -19.7647  -13.5592 C   0  0  2  0  0  0  0  0  0  0  0  0
   22.3752  -19.0559  -14.7697 N   0  0  0  0  0  0  0  0  0  0  0  0
   23.1729  -20.4807  -12.9777 C   0  0  0  0  0  0  0  0  0  0  0  0
   23.0226  -21.2013  -11.9584 O   0  0  0  0  0  0  0  0  0  0  0  0
   27.4227  -22.2953  -16.0491 C   0  0  0  0  0  0  0  0  0  0  0  0
   26.3701  -22.0526  -15.0264 C   0  0  0  0  0  0  0  0  0  0  0  0
   26.7681  -21.2250  -13.8540 C   0  0  2  0  0  0  0  0  0  0  0  0
   27.8763  -21.9538  -13.1195 C   0  0  0  0  0  0  0  0  0  0  0  0
   25.6507  -20.9667  -12.8720 C   0  0  2  0  0  0  0  0  0  0  0  0
   24.4875  -20.4008  -13.5138 N   0  0  0  0  0  0  0  0  0  0  0  0
   26.0801  -20.2357  -11.6591 C   0  0  0  0  0  0  0  0  0  0  0  0
   26.2403  -18.9892  -11.6932 O   0  0  0  0  0  0  0  0  0  0  0  0
   26.3286  -20.8797  -10.4165 N   0  0  0  0  0  0  0  0  0  0  0  0
   27.1307  -20.2463   -9.3691 C   0  0  1  0  0  0  0  0  0  0  0  0
   26.3505  -20.2049   -8.0658 C   0  0  0  0  0  0  0  0  0  0  0  0
   27.0920  -19.4276   -7.0491 C   0  0  0  0  0  0  0  0  0  0  0  0
   27.3074  -18.0486   -6.9911 C   0  0  0  0  0  0  0  0  0  0  0  0
   28.0357  -17.8189   -5.8852 N   0  0  0  0  0  0  0  0  0  0  0  0
   28.2992  -18.9485   -5.2358 C   0  0  0  0  0  0  0  0  0  0  0  0
   28.9861  -19.2736   -4.0816 C   0  0  0  0  0  0  0  0  0  0  0  0
   29.0981  -20.5645   -3.6394 C   0  0  0  0  0  0  0  0  0  0  0  0
   28.5127  -21.5846   -4.3572 C   0  0  0  0  0  0  0  0  0  0  0  0
   27.8241  -21.2775   -5.5105 C   0  0  0  0  0  0  0  0  0  0  0  0
   27.7208  -19.9689   -5.9421 C   0  0  0  0  0  0  0  0  0  0  0  0
   28.3761  -21.0149   -9.1282 C   0  0  0  0  0  0  0  0  0  0  0  0
   29.5984  -20.4438   -8.8128 O   0  0  0  0  0  0  0  0  0  0  0  0
   28.3756  -22.2817   -9.2051 O   0  0  0  0  0  0  0  0  0  0  0  0
  2  1  1  0
  2  3  1  0
  3  4  1  1
  5  3  1  0
  5  6  1  6
  7  5  1  0
  7  8  2  0
  9 10  1  0
 10 11  1  0
 11 13  1  0
 11 12  1  1
 13 14  1  6
 13 15  1  0
 14  7  1  0
 15 17  1  0
 16 15  2  0
 17 18  1  0
 18 19  1  1
 19 20  1  0
 20 21  2  0
 22 21  1  0
 23 22  1  0
 24 23  2  0
 25 24  1  0
 26 27  1  0
 26 25  2  0
 27 28  2  0
 28 20  1  0
 28 23  1  0
 29 18  1  0
 30 29  1  0
 31 29  2  0
M  END
$$$$
