IIW.pdb
     RDKit          3D

 31 32  0  0  1  0  0  0  0  0999 V2000
   21.2349  -21.0566  -17.4488 C   0  0  0  0  0  0  0  0  0  0  0  0
   21.2170  -22.4034  -16.7722 C   0  0  0  0  0  0  0  0  0  0  0  0
   22.3410  -22.5812  -15.7964 C   0  0  2  0  0  0  0  0  0  0  0  0
   22.1990  -21.6581  -14.6213 C   0  0  0  0  0  0  0  0  0  0  0  0
   23.6465  -22.3084  -16.4792 C   0  0  2  0  0  0  0  0  0  0  0  0
   23.9195  -23.2376  -17.5620 N   0  0  0  0  0  0  0  0  0  0  0  0
   24.7861  -22.2727  -15.5137 C   0  0  0  0  0  0  0  0  0  0  0  0
   25.1617  -23.3333  -14.9526 O   0  0  0  0  0  0  0  0  0  0  0  0
   29.7832  -19.0071  -13.7464 C   0  0  0  0  0  0  0  0  0  0  0  0
   28.7303  -20.0333  -13.5201 C   0  0  0  0  0  0  0  0  0  0  0  0
   27.5768  -20.0134  -14.4620 C   0  0  2  0  0  0  0  0  0  0  0  0
   26.9541  -18.6319  -14.4123 C   0  0  0  0  0  0  0  0  0  0  0  0
   26.4994  -21.0211  -14.1408 C   0  0  2  0  0  0  0  0  0  0  0  0
   25.4954  -21.0873  -15.1766 N   0  0  0  0  0  0  0  0  0  0  0  0
   25.9434  -20.8848  -12.7761 C   0  0  0  0  0  0  0  0  0  0  0  0
   24.9457  -20.1485  -12.5684 O   0  0  0  0  0  0  0  0  0  0  0  0
   26.4866  -21.5602  -11.6496 N   0  0  0  0  0  0  0  0  0  0  0  0
   26.0700  -21.2367  -10.2846 C   0  0  1  0  0  0  0  0  0  0  0  0
   27.2527  -21.3458   -9.3368 C   0  0  0  0  0  0  0  0  0  0  0  0
   26.9454  -20.6759   -8.0545 C   0  0  0  0  0  0  0  0  0  0  0  0
   25.7155  -20.2051   -7.5888 C   0  0  0  0  0  0  0  0  0  0  0  0
   25.9410  -19.6744   -6.3748 N   0  0  0  0  0  0  0  0  0  0  0  0
   27.2221  -19.7729   -6.0339 C   0  0  0  0  0  0  0  0  0  0  0  0
   27.9706  -19.4022   -4.9330 C   0  0  0  0  0  0  0  0  0  0  0  0
   29.3169  -19.6381   -4.8542 C   0  0  0  0  0  0  0  0  0  0  0  0
   29.9619  -20.2646   -5.8983 C   0  0  0  0  0  0  0  0  0  0  0  0
   29.2301  -20.6408   -7.0035 C   0  0  0  0  0  0  0  0  0  0  0  0
   27.8718  -20.3950   -7.0661 C   0  0  0  0  0  0  0  0  0  0  0  0
   25.5560  -19.8474  -10.2107 C   0  0  0  0  0  0  0  0  0  0  0  0
   26.3088  -18.7193  -10.4938 O   0  0  0  0  0  0  0  0  0  0  0  0
   24.3543  -19.6231   -9.8693 O   0  0  0  0  0  0  0  0  0  0  0  0
  2  1  1  0
  2  3  1  0
  3  4  1  1
  5  3  1  0
  5  6  1  6
  7  5  1  0
  7  8  2  0
  9 10  1  0
 10 11  1  0
 11 13  1  0
 11 12  1  1
 13 14  1  6
 13 15  1  0
 14  7  1  0
 15 17  1  0
 16 15  2  0
 17 18  1  0
 18 19  1  1
 19 20  1  0
 20 21  2  0
 22 21  1  0
 23 22  1  0
 24 23  2  0
 25 24  1  0
 26 27  1  0
 26 25  2  0
 27 28  2  0
 28 20  1  0
 28 23  1  0
 29 18  1  0
 30 29  1  0
 31 29  2  0
M  END
$$$$
