IIW.pdb
     RDKit          3D

 31 32  0  0  1  0  0  0  0  0999 V2000
   32.5129  -25.7288  -16.0879 C   0  0  0  0  0  0  0  0  0  0  0  0
   31.3866  -25.1416  -16.8995 C   0  0  0  0  0  0  0  0  0  0  0  0
   30.8177  -23.8949  -16.2916 C   0  0  2  0  0  0  0  0  0  0  0  0
   30.2896  -24.1495  -14.9098 C   0  0  0  0  0  0  0  0  0  0  0  0
   29.7067  -23.3779  -17.1536 C   0  0  2  0  0  0  0  0  0  0  0  0
   30.1618  -22.9664  -18.4705 N   0  0  0  0  0  0  0  0  0  0  0  0
   28.9490  -22.2756  -16.4882 C   0  0  0  0  0  0  0  0  0  0  0  0
   29.4649  -21.1330  -16.3931 O   0  0  0  0  0  0  0  0  0  0  0  0
   25.0446  -19.8047  -18.3294 C   0  0  0  0  0  0  0  0  0  0  0  0
   26.1494  -20.2860  -17.4573 C   0  0  0  0  0  0  0  0  0  0  0  0
   25.7465  -20.9070  -16.1650 C   0  0  2  0  0  0  0  0  0  0  0  0
   24.9635  -19.8778  -15.3736 C   0  0  0  0  0  0  0  0  0  0  0  0
   26.9049  -21.3664  -15.3125 C   0  0  2  0  0  0  0  0  0  0  0  0
   27.6468  -22.4349  -15.9396 N   0  0  0  0  0  0  0  0  0  0  0  0
   26.5382  -21.6383  -13.9049 C   0  0  0  0  0  0  0  0  0  0  0  0
   26.0239  -22.7400  -13.5850 O   0  0  0  0  0  0  0  0  0  0  0  0
   26.7410  -20.6982  -12.8583 N   0  0  0  0  0  0  0  0  0  0  0  0
   26.4264  -21.0183  -11.4655 C   0  0  1  0  0  0  0  0  0  0  0  0
   27.4256  -20.3494  -10.5364 C   0  0  0  0  0  0  0  0  0  0  0  0
   26.9921  -20.4917   -9.1294 C   0  0  0  0  0  0  0  0  0  0  0  0
   25.8413  -21.1052   -8.6289 C   0  0  0  0  0  0  0  0  0  0  0  0
   25.8887  -20.9795   -7.2916 N   0  0  0  0  0  0  0  0  0  0  0  0
   26.9834  -20.3321   -6.9048 C   0  0  0  0  0  0  0  0  0  0  0  0
   27.5095  -19.9447   -5.6871 C   0  0  0  0  0  0  0  0  0  0  0  0
   28.6950  -19.2671   -5.5878 C   0  0  0  0  0  0  0  0  0  0  0  0
   29.3990  -18.9534   -6.7299 C   0  0  0  0  0  0  0  0  0  0  0  0
   28.8884  -19.3325   -7.9523 C   0  0  0  0  0  0  0  0  0  0  0  0
   27.6903  -20.0161   -8.0339 C   0  0  0  0  0  0  0  0  0  0  0  0
   25.0741  -20.5247  -11.1086 C   0  0  0  0  0  0  0  0  0  0  0  0
   24.4062  -19.5168  -11.7850 O   0  0  0  0  0  0  0  0  0  0  0  0
   24.4450  -21.0248  -10.1263 O   0  0  0  0  0  0  0  0  0  0  0  0
  2  1  1  0
  2  3  1  0
  3  4  1  1
  5  3  1  0
  5  6  1  6
  7  5  1  0
  7  8  2  0
  9 10  1  0
 10 11  1  0
 11 13  1  0
 11 12  1  1
 13 14  1  6
 13 15  1  0
 14  7  1  0
 15 17  1  0
 16 15  2  0
 17 18  1  0
 18 19  1  1
 19 20  1  0
 20 21  2  0
 22 21  1  0
 23 22  1  0
 24 23  2  0
 25 24  1  0
 26 27  1  0
 26 25  2  0
 27 28  2  0
 28 20  1  0
 28 23  1  0
 29 18  1  0
 30 29  1  0
 31 29  2  0
M  END
$$$$
