IIW.pdb
     RDKit          3D

 31 32  0  0  1  0  0  0  0  0999 V2000
   12.3674  -26.2337   -3.5312 C   0  0  0  0  0  0  0  0  0  0  0  0
   13.4598  -25.1976   -3.4563 C   0  0  0  0  0  0  0  0  0  0  0  0
   13.7836  -24.7917   -2.0500 C   0  0  2  0  0  0  0  0  0  0  0  0
   12.5733  -24.2585   -1.3401 C   0  0  0  0  0  0  0  0  0  0  0  0
   14.8479  -23.7373   -2.0644 C   0  0  2  0  0  0  0  0  0  0  0  0
   16.0428  -24.1543   -2.7775 N   0  0  0  0  0  0  0  0  0  0  0  0
   15.1906  -23.2696   -0.6874 C   0  0  0  0  0  0  0  0  0  0  0  0
   15.7215  -24.0662    0.1278 O   0  0  0  0  0  0  0  0  0  0  0  0
   18.2498  -19.2068    0.7913 C   0  0  0  0  0  0  0  0  0  0  0  0
   17.3865  -20.4158    0.7152 C   0  0  0  0  0  0  0  0  0  0  0  0
   15.9930  -20.2638    1.2182 C   0  0  2  0  0  0  0  0  0  0  0  0
   16.0624  -19.8388    2.6719 C   0  0  0  0  0  0  0  0  0  0  0  0
   15.1673  -21.5256    1.1414 C   0  0  2  0  0  0  0  0  0  0  0  0
   14.9508  -21.9474   -0.2226 N   0  0  0  0  0  0  0  0  0  0  0  0
   13.9333  -21.4810    1.9570 C   0  0  0  0  0  0  0  0  0  0  0  0
   12.8631  -21.0419    1.4646 O   0  0  0  0  0  0  0  0  0  0  0  0
   13.8838  -21.9211    3.3076 N   0  0  0  0  0  0  0  0  0  0  0  0
   12.6444  -21.8805    4.0847 C   0  0  1  0  0  0  0  0  0  0  0  0
   12.1984  -23.2908    4.4325 C   0  0  0  0  0  0  0  0  0  0  0  0
   13.2432  -23.9789    5.2214 C   0  0  0  0  0  0  0  0  0  0  0  0
   13.9714  -23.4980    6.3122 C   0  0  0  0  0  0  0  0  0  0  0  0
   14.8010  -24.4865    6.6873 N   0  0  0  0  0  0  0  0  0  0  0  0
   14.6547  -25.5598    5.9167 C   0  0  0  0  0  0  0  0  0  0  0  0
   15.2375  -26.8117    5.8655 C   0  0  0  0  0  0  0  0  0  0  0  0
   14.8768  -27.7459    4.9320 C   0  0  0  0  0  0  0  0  0  0  0  0
   13.9023  -27.4438    4.0059 C   0  0  0  0  0  0  0  0  0  0  0  0
   13.3109  -26.1998    4.0431 C   0  0  0  0  0  0  0  0  0  0  0  0
   13.6872  -25.2690    4.9926 C   0  0  0  0  0  0  0  0  0  0  0  0
   12.8482  -21.1427    5.3551 C   0  0  0  0  0  0  0  0  0  0  0  0
   11.8240  -20.7236    6.1887 O   0  0  0  0  0  0  0  0  0  0  0  0
   14.0189  -20.8506    5.7489 O   0  0  0  0  0  0  0  0  0  0  0  0
  2  1  1  0
  2  3  1  0
  3  4  1  6
  5  3  1  0
  5  6  1  1
  7  5  1  0
  7  8  2  0
  9 10  1  0
 10 11  1  0
 11 13  1  0
 11 12  1  1
 13 14  1  6
 13 15  1  0
 14  7  1  0
 15 17  1  0
 16 15  2  0
 17 18  1  0
 18 19  1  1
 19 20  1  0
 20 21  2  0
 22 21  1  0
 23 22  1  0
 24 23  2  0
 25 24  1  0
 26 27  1  0
 26 25  2  0
 27 28  2  0
 28 20  1  0
 28 23  1  0
 29 18  1  0
 30 29  1  0
 31 29  2  0
M  END
$$$$
