IIW.pdb
     RDKit          3D

 31 32  0  0  1  0  0  0  0  0999 V2000
   24.8700  -12.3840  -15.3178 C   0  0  0  0  0  0  0  0  0  0  0  0
   25.4064  -13.2070  -16.4611 C   0  0  0  0  0  0  0  0  0  0  0  0
   25.3424  -14.6816  -16.1990 C   0  0  2  0  0  0  0  0  0  0  0  0
   26.2457  -15.0778  -15.0676 C   0  0  0  0  0  0  0  0  0  0  0  0
   25.7459  -15.4288  -17.4333 C   0  0  2  0  0  0  0  0  0  0  0  0
   24.9928  -15.0231  -18.6075 N   0  0  0  0  0  0  0  0  0  0  0  0
   25.6692  -16.9085  -17.2417 C   0  0  0  0  0  0  0  0  0  0  0  0
   24.5499  -17.4812  -17.2493 O   0  0  0  0  0  0  0  0  0  0  0  0
   27.3338  -22.2522  -18.4789 C   0  0  0  0  0  0  0  0  0  0  0  0
   27.7577  -21.3925  -17.3414 C   0  0  0  0  0  0  0  0  0  0  0  0
   27.7647  -19.9243  -17.5912 C   0  0  2  0  0  0  0  0  0  0  0  0
   29.1331  -19.3907  -17.2153 C   0  0  0  0  0  0  0  0  0  0  0  0
   26.7328  -19.1578  -16.7991 C   0  0  2  0  0  0  0  0  0  0  0  0
   26.8080  -17.7370  -17.0460 N   0  0  0  0  0  0  0  0  0  0  0  0
   26.6976  -19.5147  -15.3634 C   0  0  0  0  0  0  0  0  0  0  0  0
   27.5584  -19.0508  -14.5732 O   0  0  0  0  0  0  0  0  0  0  0  0
   25.7153  -20.3776  -14.8057 N   0  0  0  0  0  0  0  0  0  0  0  0
   25.7622  -20.7908  -13.4027 C   0  0  1  0  0  0  0  0  0  0  0  0
   24.9229  -19.8519  -12.5524 C   0  0  0  0  0  0  0  0  0  0  0  0
   24.9959  -20.2463  -11.1288 C   0  0  0  0  0  0  0  0  0  0  0  0
   26.1115  -20.2792  -10.2886 C   0  0  0  0  0  0  0  0  0  0  0  0
   25.6781  -20.7049   -9.0898 N   0  0  0  0  0  0  0  0  0  0  0  0
   24.3708  -20.9451   -9.1050 C   0  0  0  0  0  0  0  0  0  0  0  0
   23.4481  -21.3850   -8.1750 C   0  0  0  0  0  0  0  0  0  0  0  0
   22.1235  -21.5447   -8.4819 C   0  0  0  0  0  0  0  0  0  0  0  0
   21.6794  -21.2618   -9.7552 C   0  0  0  0  0  0  0  0  0  0  0  0
   22.5865  -20.8220  -10.6946 C   0  0  0  0  0  0  0  0  0  0  0  0
   23.9200  -20.6663  -10.3674 C   0  0  0  0  0  0  0  0  0  0  0  0
   25.2142  -22.1598  -13.2427 C   0  0  0  0  0  0  0  0  0  0  0  0
   25.8002  -23.1513  -12.4726 O   0  0  0  0  0  0  0  0  0  0  0  0
   24.1406  -22.4959  -13.8302 O   0  0  0  0  0  0  0  0  0  0  0  0
  2  1  1  0
  2  3  1  0
  3  4  1  1
  5  3  1  0
  5  6  1  6
  7  5  1  0
  7  8  2  0
  9 10  1  0
 10 11  1  0
 11 13  1  0
 11 12  1  1
 13 14  1  1
 13 15  1  0
 14  7  1  0
 15 17  1  0
 16 15  2  0
 17 18  1  0
 18 19  1  1
 19 20  1  0
 20 21  2  0
 22 21  1  0
 23 22  1  0
 24 23  2  0
 25 24  1  0
 26 27  1  0
 26 25  2  0
 27 28  2  0
 28 20  1  0
 28 23  1  0
 29 18  1  0
 30 29  1  0
 31 29  2  0
M  END
$$$$
