VTA.pdb
     RDKit          3D

 20 19  0  0  1  0  0  0  0  0999 V2000
   17.8994  -13.7969  -15.0107 C   0  0  0  0  0  0  0  0  0  0  0  0
   18.7314  -12.6036  -15.3777 C   0  0  1  0  0  0  0  0  0  0  0  0
   19.7769  -12.9068  -16.3993 C   0  0  0  0  0  0  0  0  0  0  0  0
   17.8986  -11.3856  -15.7224 C   0  0  2  0  0  0  0  0  0  0  0  0
   17.0115  -11.8315  -16.8104 N   0  0  0  0  0  0  0  0  0  0  0  0
   18.6707  -10.2498  -16.2118 C   0  0  0  0  0  0  0  0  0  0  0  0
   19.3897  -10.3453  -17.2668 O   0  0  0  0  0  0  0  0  0  0  0  0
   18.0843   -7.2779  -17.8958 C   0  0  0  0  0  0  0  0  0  0  0  0
   18.6715   -6.7832  -16.5877 C   0  0  1  0  0  0  0  0  0  0  0  0
   17.6632   -6.4976  -15.6691 O   0  0  0  0  0  0  0  0  0  0  0  0
   19.5837   -7.8957  -16.0513 C   0  0  2  0  0  0  0  0  0  0  0  0
   18.7189   -8.9622  -15.6105 N   0  0  0  0  0  0  0  0  0  0  0  0
   20.3474   -7.2819  -14.9307 C   0  0  0  0  0  0  0  0  0  0  0  0
   20.0592   -7.4097  -13.7277 O   0  0  0  0  0  0  0  0  0  0  0  0
   23.6036   -5.3152  -15.0380 C   0  0  0  0  0  0  0  0  0  0  0  0
   22.3890   -5.9168  -14.3485 C   0  0  2  0  0  0  0  0  0  0  0  0
   21.4800   -6.5012  -15.2990 N   0  0  0  0  0  0  0  0  0  0  0  0
   21.6796   -4.7654  -13.6895 C   0  0  0  0  0  0  0  0  0  0  0  0
   20.6821   -4.2111  -14.1936 O   0  0  0  0  0  0  0  0  0  0  0  0
   22.1323   -4.2766  -12.4658 O   0  0  0  0  0  0  0  0  0  0  0  0
  2  1  1  6
  2  4  1  0
  3  2  1  0
  4  5  1  6
  6  4  1  0
  7  6  2  0
  9  8  1  6
  9 11  1  0
 10  9  1  0
 11 12  1  1
 11 13  1  0
 12  6  1  0
 13 17  1  0
 14 13  2  0
 16 18  1  0
 16 15  1  6
 17 16  1  0
 18 20  1  0
 19 18  2  0
M  END
$$$$
