VTA.pdb
     RDKit          3D

 20 19  0  0  1  0  0  0  0  0999 V2000
   17.2995  -13.3372  -15.5565 C   0  0  0  0  0  0  0  0  0  0  0  0
   18.4818  -12.9662  -16.4024 C   0  0  1  0  0  0  0  0  0  0  0  0
   18.6078  -13.7988  -17.6352 C   0  0  0  0  0  0  0  0  0  0  0  0
   18.5681  -11.4788  -16.6780 C   0  0  2  0  0  0  0  0  0  0  0  0
   19.1461  -11.3790  -18.0291 N   0  0  0  0  0  0  0  0  0  0  0  0
   19.4386  -10.7489  -15.7641 C   0  0  0  0  0  0  0  0  0  0  0  0
   19.1463  -10.6353  -14.5228 O   0  0  0  0  0  0  0  0  0  0  0  0
   23.0383  -11.1735  -14.7559 C   0  0  0  0  0  0  0  0  0  0  0  0
   22.9142   -9.8054  -15.3991 C   0  0  1  0  0  0  0  0  0  0  0  0
   23.2222   -9.8670  -16.7568 O   0  0  0  0  0  0  0  0  0  0  0  0
   21.4641   -9.3415  -15.2005 C   0  0  2  0  0  0  0  0  0  0  0  0
   20.6565  -10.1062  -16.1184 N   0  0  0  0  0  0  0  0  0  0  0  0
   21.4623   -7.8867  -15.5162 C   0  0  0  0  0  0  0  0  0  0  0  0
   21.2519   -7.4106  -16.6457 O   0  0  0  0  0  0  0  0  0  0  0  0
   20.4718   -4.9314  -14.7421 C   0  0  0  0  0  0  0  0  0  0  0  0
   21.8347   -5.5809  -14.5599 C   0  0  2  0  0  0  0  0  0  0  0  0
   21.7232   -7.0094  -14.4254 N   0  0  0  0  0  0  0  0  0  0  0  0
   22.3750   -5.0428  -13.2631 C   0  0  0  0  0  0  0  0  0  0  0  0
   22.8023   -3.8769  -13.1432 O   0  0  0  0  0  0  0  0  0  0  0  0
   22.4123   -5.8565  -12.1327 O   0  0  0  0  0  0  0  0  0  0  0  0
  2  1  1  6
  2  4  1  0
  3  2  1  0
  4  5  1  6
  6  4  1  0
  7  6  2  0
  9  8  1  6
  9 11  1  0
 10  9  1  0
 11 12  1  6
 11 13  1  0
 12  6  1  0
 13 17  1  0
 14 13  2  0
 16 18  1  0
 16 15  1  1
 17 16  1  0
 18 20  1  0
 19 18  2  0
M  END
$$$$
