VTA.pdb
     RDKit          3D

 20 19  0  0  1  0  0  0  0  0999 V2000
   15.3042   -7.9058   -8.6777 C   0  0  0  0  0  0  0  0  0  0  0  0
   13.9605   -8.5221   -8.4220 C   0  0  1  0  0  0  0  0  0  0  0  0
   13.0768   -7.6741   -7.5684 C   0  0  0  0  0  0  0  0  0  0  0  0
   13.2805   -9.0037   -9.6875 C   0  0  2  0  0  0  0  0  0  0  0  0
   12.2935   -9.9969   -9.2303 N   0  0  0  0  0  0  0  0  0  0  0  0
   14.1723   -9.6624  -10.6344 C   0  0  0  0  0  0  0  0  0  0  0  0
   14.6480  -10.8263  -10.3937 O   0  0  0  0  0  0  0  0  0  0  0  0
   13.7412  -11.2168  -13.6648 C   0  0  0  0  0  0  0  0  0  0  0  0
   14.7319  -10.1311  -14.0394 C   0  0  1  0  0  0  0  0  0  0  0  0
   14.0711   -9.0039  -14.5241 O   0  0  0  0  0  0  0  0  0  0  0  0
   15.5229   -9.7825  -12.7704 C   0  0  2  0  0  0  0  0  0  0  0  0
   14.6021   -9.1229  -11.8779 N   0  0  0  0  0  0  0  0  0  0  0  0
   16.6231   -8.8853  -13.2183 C   0  0  0  0  0  0  0  0  0  0  0  0
   16.5991   -7.6447  -13.1356 O   0  0  0  0  0  0  0  0  0  0  0  0
   19.9568   -9.7693  -14.8365 C   0  0  0  0  0  0  0  0  0  0  0  0
   18.9323   -8.8199  -14.2351 C   0  0  2  0  0  0  0  0  0  0  0  0
   17.7663   -9.5267  -13.7747 N   0  0  0  0  0  0  0  0  0  0  0  0
   18.5021   -7.9161  -15.3582 C   0  0  0  0  0  0  0  0  0  0  0  0
   19.1020   -6.8593  -15.6400 O   0  0  0  0  0  0  0  0  0  0  0  0
   17.3921   -8.2469  -16.1326 O   0  0  0  0  0  0  0  0  0  0  0  0
  2  1  1  6
  2  4  1  0
  3  2  1  0
  4  5  1  1
  6  4  1  0
  7  6  2  0
  9  8  1  1
  9 11  1  0
 10  9  1  0
 11 12  1  1
 11 13  1  0
 12  6  1  0
 13 17  1  0
 14 13  2  0
 16 18  1  0
 16 15  1  6
 17 16  1  0
 18 20  1  0
 19 18  2  0
M  END
$$$$
