VTA.pdb
     RDKit          3D

 20 19  0  0  1  0  0  0  0  0999 V2000
   24.0170  -12.9684  -17.0015 C   0  0  0  0  0  0  0  0  0  0  0  0
   22.9128  -11.9591  -16.8869 C   0  0  1  0  0  0  0  0  0  0  0  0
   22.1517  -12.0622  -15.6068 C   0  0  0  0  0  0  0  0  0  0  0  0
   23.3678  -10.5473  -17.1961 C   0  0  2  0  0  0  0  0  0  0  0  0
   24.4661  -10.2896  -16.2490 N   0  0  0  0  0  0  0  0  0  0  0  0
   22.3468   -9.5281  -16.9852 C   0  0  0  0  0  0  0  0  0  0  0  0
   21.4114   -9.3435  -17.8396 O   0  0  0  0  0  0  0  0  0  0  0  0
   19.4783   -9.1098  -15.0604 C   0  0  0  0  0  0  0  0  0  0  0  0
   20.3759   -7.9924  -14.5640 C   0  0  1  0  0  0  0  0  0  0  0  0
   21.1302   -8.4124  -13.4700 O   0  0  0  0  0  0  0  0  0  0  0  0
   21.2963   -7.5998  -15.7286 C   0  0  2  0  0  0  0  0  0  0  0  0
   22.2665   -8.6581  -15.8633 N   0  0  0  0  0  0  0  0  0  0  0  0
   21.9163   -6.3062  -15.3304 C   0  0  0  0  0  0  0  0  0  0  0  0
   22.9086   -6.1988  -14.5887 O   0  0  0  0  0  0  0  0  0  0  0  0
   21.1137   -2.7857  -16.5203 C   0  0  0  0  0  0  0  0  0  0  0  0
   21.8049   -3.8020  -15.6248 C   0  0  2  0  0  0  0  0  0  0  0  0
   21.3044   -5.1317  -15.8538 N   0  0  0  0  0  0  0  0  0  0  0  0
   21.4459   -3.4175  -14.2154 C   0  0  0  0  0  0  0  0  0  0  0  0
   20.5728   -4.0160  -13.5553 O   0  0  0  0  0  0  0  0  0  0  0  0
   22.0983   -2.3537  -13.5957 O   0  0  0  0  0  0  0  0  0  0  0  0
  2  1  1  1
  2  4  1  0
  3  2  1  0
  4  5  1  1
  6  4  1  0
  7  6  2  0
  9  8  1  6
  9 11  1  0
 10  9  1  0
 11 12  1  1
 11 13  1  0
 12  6  1  0
 13 17  1  0
 14 13  2  0
 16 18  1  0
 16 15  1  6
 17 16  1  0
 18 20  1  0
 19 18  2  0
M  END
$$$$
