VTA.pdb
     RDKit          3D

 20 19  0  0  1  0  0  0  0  0999 V2000
   17.7478  -12.4462  -15.8566 C   0  0  0  0  0  0  0  0  0  0  0  0
   18.4320  -11.3204  -15.1389 C   0  0  1  0  0  0  0  0  0  0  0  0
   19.8962  -11.2464  -15.4206 C   0  0  0  0  0  0  0  0  0  0  0  0
   17.7251   -9.9916  -15.3134 C   0  0  2  0  0  0  0  0  0  0  0  0
   17.6654   -9.7851  -16.7705 N   0  0  0  0  0  0  0  0  0  0  0  0
   18.4290   -8.8563  -14.7292 C   0  0  0  0  0  0  0  0  0  0  0  0
   18.4115   -8.6471  -13.4663 O   0  0  0  0  0  0  0  0  0  0  0  0
   22.0611   -5.7761  -14.4514 C   0  0  0  0  0  0  0  0  0  0  0  0
   21.3511   -6.9579  -15.0838 C   0  0  1  0  0  0  0  0  0  0  0  0
   21.7826   -8.1557  -14.5171 O   0  0  0  0  0  0  0  0  0  0  0  0
   19.8471   -6.7641  -14.8432 C   0  0  2  0  0  0  0  0  0  0  0  0
   19.1831   -7.8907  -15.4510 N   0  0  0  0  0  0  0  0  0  0  0  0
   19.4991   -5.4750  -15.5014 C   0  0  0  0  0  0  0  0  0  0  0  0
   19.5227   -5.2816  -16.7296 O   0  0  0  0  0  0  0  0  0  0  0  0
   17.8823   -2.3960  -14.0068 C   0  0  0  0  0  0  0  0  0  0  0  0
   18.6407   -3.1362  -15.0974 C   0  0  2  0  0  0  0  0  0  0  0  0
   19.1175   -4.4124  -14.6337 N   0  0  0  0  0  0  0  0  0  0  0  0
   19.8431   -2.2874  -15.4089 C   0  0  0  0  0  0  0  0  0  0  0  0
   20.9078   -2.3646  -14.7632 O   0  0  0  0  0  0  0  0  0  0  0  0
   19.7954   -1.3687  -16.4553 O   0  0  0  0  0  0  0  0  0  0  0  0
  2  1  1  6
  2  4  1  0
  3  2  1  0
  4  5  1  6
  6  4  1  0
  7  6  2  0
  9  8  1  1
  9 11  1  0
 10  9  1  0
 11 12  1  6
 11 13  1  0
 12  6  1  0
 13 17  1  0
 14 13  2  0
 16 18  1  0
 16 15  1  1
 17 16  1  0
 18 20  1  0
 19 18  2  0
M  END
$$$$
