VTA.pdb
     RDKit          3D

 20 19  0  0  1  0  0  0  0  0999 V2000
   25.0306  -11.6159  -16.1130 C   0  0  0  0  0  0  0  0  0  0  0  0
   24.2163  -12.5940  -16.9074 C   0  0  1  0  0  0  0  0  0  0  0  0
   24.6708  -14.0068  -16.7454 C   0  0  0  0  0  0  0  0  0  0  0  0
   22.7244  -12.4226  -16.7059 C   0  0  2  0  0  0  0  0  0  0  0  0
   22.1048  -13.3093  -17.7055 N   0  0  0  0  0  0  0  0  0  0  0  0
   22.2382  -11.0692  -16.9460 C   0  0  0  0  0  0  0  0  0  0  0  0
   22.2608  -10.5577  -18.1194 O   0  0  0  0  0  0  0  0  0  0  0  0
   19.0895   -9.5062  -16.9151 C   0  0  0  0  0  0  0  0  0  0  0  0
   19.8455   -8.6989  -15.8770 C   0  0  1  0  0  0  0  0  0  0  0  0
   19.5913   -9.1804  -14.5942 O   0  0  0  0  0  0  0  0  0  0  0  0
   21.3397   -8.8222  -16.2078 C   0  0  2  0  0  0  0  0  0  0  0  0
   21.7060  -10.1946  -15.9591 N   0  0  0  0  0  0  0  0  0  0  0  0
   22.0319   -7.8735  -15.2930 C   0  0  0  0  0  0  0  0  0  0  0  0
   22.5650   -8.1944  -14.2162 O   0  0  0  0  0  0  0  0  0  0  0  0
   22.6771   -4.1441  -15.7302 C   0  0  0  0  0  0  0  0  0  0  0  0
   22.8054   -5.4859  -15.0261 C   0  0  2  0  0  0  0  0  0  0  0  0
   22.0666   -6.5129  -15.7119 N   0  0  0  0  0  0  0  0  0  0  0  0
   22.1762   -5.3001  -13.6723 C   0  0  0  0  0  0  0  0  0  0  0  0
   22.7447   -4.6928  -12.7426 O   0  0  0  0  0  0  0  0  0  0  0  0
   20.9075   -5.8163  -13.4168 O   0  0  0  0  0  0  0  0  0  0  0  0
  2  1  1  1
  2  4  1  0
  3  2  1  0
  4  5  1  6
  6  4  1  0
  7  6  2  0
  9  8  1  6
  9 11  1  0
 10  9  1  0
 11 12  1  1
 11 13  1  0
 12  6  1  0
 13 17  1  0
 14 13  2  0
 16 18  1  0
 16 15  1  6
 17 16  1  0
 18 20  1  0
 19 18  2  0
M  END
$$$$
