VTA.pdb
     RDKit          3D

 20 19  0  0  1  0  0  0  0  0999 V2000
   17.3208  -13.0037  -17.1344 C   0  0  0  0  0  0  0  0  0  0  0  0
   18.2361  -12.3361  -16.1508 C   0  0  1  0  0  0  0  0  0  0  0  0
   19.6482  -12.8111  -16.2448 C   0  0  0  0  0  0  0  0  0  0  0  0
   18.1148  -10.8258  -16.1613 C   0  0  2  0  0  0  0  0  0  0  0  0
   18.3076  -10.4421  -17.5703 N   0  0  0  0  0  0  0  0  0  0  0  0
   19.1257  -10.1372  -15.3679 C   0  0  0  0  0  0  0  0  0  0  0  0
   19.1309  -10.2184  -14.0902 O   0  0  0  0  0  0  0  0  0  0  0  0
   22.7574  -10.4306  -14.8387 C   0  0  0  0  0  0  0  0  0  0  0  0
   22.5202   -9.0843  -15.4959 C   0  0  1  0  0  0  0  0  0  0  0  0
   22.5940   -9.1910  -16.8834 O   0  0  0  0  0  0  0  0  0  0  0  0
   21.1226   -8.6124  -15.0698 C   0  0  2  0  0  0  0  0  0  0  0  0
   20.1768   -9.3321  -15.8866 N   0  0  0  0  0  0  0  0  0  0  0  0
   21.0988   -7.1466  -15.3285 C   0  0  0  0  0  0  0  0  0  0  0  0
   20.6867   -6.6225  -16.3783 O   0  0  0  0  0  0  0  0  0  0  0  0
   22.0343   -4.2679  -13.0210 C   0  0  0  0  0  0  0  0  0  0  0  0
   21.6422   -4.8819  -14.3559 C   0  0  2  0  0  0  0  0  0  0  0  0
   21.5892   -6.3180  -14.2793 N   0  0  0  0  0  0  0  0  0  0  0  0
   22.7436   -4.5179  -15.3137 C   0  0  0  0  0  0  0  0  0  0  0  0
   23.7845   -5.1953  -15.4325 O   0  0  0  0  0  0  0  0  0  0  0  0
   22.6246   -3.3835  -16.1139 O   0  0  0  0  0  0  0  0  0  0  0  0
  2  1  1  6
  2  4  1  0
  3  2  1  0
  4  5  1  6
  6  4  1  0
  7  6  2  0
  9  8  1  1
  9 11  1  0
 10  9  1  0
 11 12  1  6
 11 13  1  0
 12  6  1  0
 13 17  1  0
 14 13  2  0
 16 18  1  0
 16 15  1  1
 17 16  1  0
 18 20  1  0
 19 18  2  0
M  END
$$$$
