NPH.pdb
     RDKit          3D

 26 27  0  0  1  0  0  0  0  0999 V2000
   18.5313  -13.3098  -17.7887 N   0  0  0  0  0  0  0  0  0  0  0  0
   18.3579  -11.9670  -18.2019 C   0  0  0  0  0  0  0  0  0  0  0  0
   18.0516  -11.7511  -19.3962 O   0  0  0  0  0  0  0  0  0  0  0  0
   18.5209  -10.8202  -17.2934 C   0  0  0  0  0  0  0  0  0  0  0  0
   18.8824  -11.2517  -15.8837 C   0  0  2  0  0  0  0  0  0  0  0  0
   17.7403  -11.9473  -15.2699 N   0  0  0  0  0  0  0  0  0  0  0  0
   19.2813  -10.1049  -15.0456 C   0  0  0  0  0  0  0  0  0  0  0  0
   18.3882   -9.5997  -14.2826 O   0  0  0  0  0  0  0  0  0  0  0  0
   20.5784   -9.5277  -15.0272 N   0  0  0  0  0  0  0  0  0  0  0  0
   21.7188   -9.8975  -15.8324 C   0  0  0  0  0  0  0  0  0  0  0  0
   22.8632   -9.8063  -14.8301 C   0  0  0  0  0  0  0  0  0  0  0  0
   22.3819   -8.8818  -13.7528 C   0  0  0  0  0  0  0  0  0  0  0  0
   21.0209   -8.4443  -14.1764 C   0  0  1  0  0  0  0  0  0  0  0  0
   20.9970   -7.1540  -14.8960 C   0  0  0  0  0  0  0  0  0  0  0  0
   21.3283   -7.1537  -16.1125 O   0  0  0  0  0  0  0  0  0  0  0  0
   20.6225   -5.9298  -14.2883 N   0  0  0  0  0  0  0  0  0  0  0  0
   20.5144   -4.6978  -15.0623 C   0  0  1  0  0  0  0  0  0  0  0  0
   19.2620   -3.9565  -14.7583 C   0  0  0  0  0  0  0  0  0  0  0  0
   18.0804   -4.7516  -15.1462 C   0  0  0  0  0  0  0  0  0  0  0  0
   17.8726   -5.5444  -16.2701 C   0  0  0  0  0  0  0  0  0  0  0  0
   16.6472   -6.0827  -16.2571 N   0  0  0  0  0  0  0  0  0  0  0  0
   16.0639   -5.6414  -15.1311 C   0  0  0  0  0  0  0  0  0  0  0  0
   16.9047   -4.8451  -14.4548 N   0  0  0  0  0  0  0  0  0  0  0  0
   21.7259   -3.8673  -14.9037 C   0  0  0  0  0  0  0  0  0  0  0  0
   22.7439   -4.2363  -13.9928 O   0  0  0  0  0  0  0  0  0  0  0  0
   21.9628   -2.8063  -15.5278 O   0  0  0  0  0  0  0  0  0  0  0  0
  2  1  1  0
  3  2  2  0
  4  2  1  0
  5  4  1  0
  5  6  1  1
  7  5  1  0
  7  9  1  0
  8  7  2  0
  9 13  1  0
 10  9  1  0
 10 11  1  0
 11 12  1  0
 13 14  1  6
 13 12  1  0
 14 15  2  0
 16 17  1  0
 16 14  1  0
 17 18  1  1
 18 19  1  0
 19 23  1  0
 20 19  2  0
 20 21  1  0
 21 22  1  0
 23 22  2  0
 24 25  1  0
 24 17  1  0
 26 24  2  0
M  END
$$$$
