NPH.pdb
     RDKit          3D

 26 27  0  0  1  0  0  0  0  0999 V2000
   25.3588  -15.9137  -18.9588 N   0  0  0  0  0  0  0  0  0  0  0  0
   26.0045  -16.9707  -19.6442 C   0  0  0  0  0  0  0  0  0  0  0  0
   26.2772  -16.8102  -20.8552 O   0  0  0  0  0  0  0  0  0  0  0  0
   26.3671  -18.2430  -18.9984 C   0  0  0  0  0  0  0  0  0  0  0  0
   25.9096  -18.3032  -17.5523 C   0  0  2  0  0  0  0  0  0  0  0  0
   26.7177  -17.3820  -16.7377 N   0  0  0  0  0  0  0  0  0  0  0  0
   26.0026  -19.6703  -17.0054 C   0  0  0  0  0  0  0  0  0  0  0  0
   25.6189  -20.6292  -17.7594 O   0  0  0  0  0  0  0  0  0  0  0  0
   26.4852  -19.9931  -15.7096 N   0  0  0  0  0  0  0  0  0  0  0  0
   26.9109  -19.0797  -14.6753 C   0  0  0  0  0  0  0  0  0  0  0  0
   28.1361  -19.7859  -14.1070 C   0  0  0  0  0  0  0  0  0  0  0  0
   27.9655  -21.2330  -14.4587 C   0  0  0  0  0  0  0  0  0  0  0  0
   26.6568  -21.3234  -15.1672 C   0  0  1  0  0  0  0  0  0  0  0  0
   25.5226  -21.6977  -14.2974 C   0  0  0  0  0  0  0  0  0  0  0  0
   25.7866  -22.1647  -13.1564 O   0  0  0  0  0  0  0  0  0  0  0  0
   24.1660  -21.5575  -14.6824 N   0  0  0  0  0  0  0  0  0  0  0  0
   23.1404  -21.1590  -13.7242 C   0  0  1  0  0  0  0  0  0  0  0  0
   23.5714  -20.0029  -12.8947 C   0  0  0  0  0  0  0  0  0  0  0  0
   24.2384  -20.4673  -11.6626 C   0  0  0  0  0  0  0  0  0  0  0  0
   24.5926  -21.7556  -11.2754 C   0  0  0  0  0  0  0  0  0  0  0  0
   25.1637  -21.7522  -10.0648 N   0  0  0  0  0  0  0  0  0  0  0  0
   25.1795  -20.4691   -9.6695 C   0  0  0  0  0  0  0  0  0  0  0  0
   24.6310  -19.6871  -10.6109 N   0  0  0  0  0  0  0  0  0  0  0  0
   21.8472  -20.9297  -14.4009 C   0  0  0  0  0  0  0  0  0  0  0  0
   20.6658  -21.5564  -13.9387 O   0  0  0  0  0  0  0  0  0  0  0  0
   21.6744  -20.1947  -15.4016 O   0  0  0  0  0  0  0  0  0  0  0  0
  2  1  1  0
  3  2  2  0
  4  2  1  0
  5  4  1  0
  5  6  1  1
  7  5  1  0
  7  9  1  0
  8  7  2  0
  9 13  1  0
 10  9  1  0
 10 11  1  0
 11 12  1  0
 13 14  1  1
 13 12  1  0
 14 15  2  0
 16 17  1  0
 16 14  1  0
 17 18  1  6
 18 19  1  0
 19 23  1  0
 20 19  2  0
 20 21  1  0
 21 22  1  0
 23 22  2  0
 24 25  1  0
 24 17  1  0
 26 24  2  0
M  END
$$$$
