NPH.pdb
     RDKit          3D

 26 27  0  0  1  0  0  0  0  0999 V2000
   25.8388  -19.4972  -17.4530 N   0  0  0  0  0  0  0  0  0  0  0  0
   26.6979  -18.4400  -17.0683 C   0  0  0  0  0  0  0  0  0  0  0  0
   26.2948  -17.2651  -17.2225 O   0  0  0  0  0  0  0  0  0  0  0  0
   28.0371  -18.6609  -16.4981 C   0  0  0  0  0  0  0  0  0  0  0  0
   28.3535  -20.1361  -16.3313 C   0  0  2  0  0  0  0  0  0  0  0  0
   28.2442  -20.8168  -17.6312 N   0  0  0  0  0  0  0  0  0  0  0  0
   27.4591  -20.7801  -15.3505 C   0  0  0  0  0  0  0  0  0  0  0  0
   26.5759  -21.5854  -15.8051 O   0  0  0  0  0  0  0  0  0  0  0  0
   27.5105  -20.5697  -13.9473 N   0  0  0  0  0  0  0  0  0  0  0  0
   28.4347  -19.7364  -13.2146 C   0  0  0  0  0  0  0  0  0  0  0  0
   28.7360  -20.5908  -11.9891 C   0  0  0  0  0  0  0  0  0  0  0  0
   27.5737  -21.5281  -11.8565 C   0  0  0  0  0  0  0  0  0  0  0  0
   26.6380  -21.1674  -12.9599 C   0  0  1  0  0  0  0  0  0  0  0  0
   25.5628  -20.2358  -12.5610 C   0  0  0  0  0  0  0  0  0  0  0  0
   25.6882  -19.0227  -12.8810 O   0  0  0  0  0  0  0  0  0  0  0  0
   24.4093  -20.6385  -11.8430 N   0  0  0  0  0  0  0  0  0  0  0  0
   23.0671  -20.3269  -12.3227 C   0  0  1  0  0  0  0  0  0  0  0  0
   22.8820  -20.7078  -13.7479 C   0  0  0  0  0  0  0  0  0  0  0  0
   21.5259  -20.3513  -14.2090 C   0  0  0  0  0  0  0  0  0  0  0  0
   20.4736  -19.7698  -13.5094 C   0  0  0  0  0  0  0  0  0  0  0  0
   19.3961  -19.6320  -14.2916 N   0  0  0  0  0  0  0  0  0  0  0  0
   19.7480  -20.1214  -15.4914 C   0  0  0  0  0  0  0  0  0  0  0  0
   21.0165  -20.5556  -15.4611 N   0  0  0  0  0  0  0  0  0  0  0  0
   22.0410  -20.9108  -11.4345 C   0  0  0  0  0  0  0  0  0  0  0  0
   21.1157  -20.0844  -10.7540 O   0  0  0  0  0  0  0  0  0  0  0  0
   21.8936  -22.1344  -11.2053 O   0  0  0  0  0  0  0  0  0  0  0  0
  2  1  1  0
  3  2  2  0
  4  2  1  0
  5  4  1  0
  5  6  1  6
  7  5  1  0
  7  9  1  0
  8  7  2  0
  9 13  1  0
 10  9  1  0
 10 11  1  0
 11 12  1  0
 13 14  1  1
 13 12  1  0
 14 15  2  0
 16 17  1  0
 16 14  1  0
 17 18  1  6
 18 19  1  0
 19 23  1  0
 20 19  2  0
 20 21  1  0
 21 22  1  0
 23 22  2  0
 24 25  1  0
 24 17  1  0
 26 24  2  0
M  END
$$$$
