NPH.pdb
     RDKit          3D

 26 27  0  0  1  0  0  0  0  0999 V2000
   26.4513  -15.6179  -20.1720 N   0  0  0  0  0  0  0  0  0  0  0  0
   25.6653  -14.4713  -20.4390 C   0  0  0  0  0  0  0  0  0  0  0  0
   25.3327  -14.2458  -21.6244 O   0  0  0  0  0  0  0  0  0  0  0  0
   25.2245  -13.5380  -19.3892 C   0  0  0  0  0  0  0  0  0  0  0  0
   25.7750  -13.9086  -18.0240 C   0  0  2  0  0  0  0  0  0  0  0  0
   25.3530  -15.2739  -17.6731 N   0  0  0  0  0  0  0  0  0  0  0  0
   25.3338  -12.9630  -16.9809 C   0  0  0  0  0  0  0  0  0  0  0  0
   24.4360  -13.3688  -16.1658 O   0  0  0  0  0  0  0  0  0  0  0  0
   25.8333  -11.6437  -16.8203 N   0  0  0  0  0  0  0  0  0  0  0  0
   26.8626  -10.9909  -17.5947 C   0  0  0  0  0  0  0  0  0  0  0  0
   27.6419  -10.2374  -16.5235 C   0  0  0  0  0  0  0  0  0  0  0  0
   26.6911  -10.0709  -15.3765 C   0  0  0  0  0  0  0  0  0  0  0  0
   25.4078  -10.6829  -15.8256 C   0  0  1  0  0  0  0  0  0  0  0  0
   24.4427   -9.7177  -16.3915 C   0  0  0  0  0  0  0  0  0  0  0  0
   24.5761   -9.3957  -17.6032 O   0  0  0  0  0  0  0  0  0  0  0  0
   23.3853   -9.1434  -15.6431 N   0  0  0  0  0  0  0  0  0  0  0  0
   22.2224   -8.5537  -16.2978 C   0  0  1  0  0  0  0  0  0  0  0  0
   20.9509   -9.1735  -15.8400 C   0  0  0  0  0  0  0  0  0  0  0  0
   19.7992   -8.5787  -16.5460 C   0  0  0  0  0  0  0  0  0  0  0  0
   19.0803   -7.4232  -16.2577 C   0  0  0  0  0  0  0  0  0  0  0  0
   18.0870   -7.2447  -17.1370 N   0  0  0  0  0  0  0  0  0  0  0  0
   18.1615   -8.2787  -17.9903 C   0  0  0  0  0  0  0  0  0  0  0  0
   19.1780   -9.0859  -17.6531 N   0  0  0  0  0  0  0  0  0  0  0  0
   22.2274   -7.0830  -16.1571 C   0  0  0  0  0  0  0  0  0  0  0  0
   22.6269   -6.4719  -14.9451 O   0  0  0  0  0  0  0  0  0  0  0  0
   21.8953   -6.2694  -17.0510 O   0  0  0  0  0  0  0  0  0  0  0  0
  2  1  1  0
  3  2  2  0
  4  2  1  0
  5  4  1  0
  5  6  1  1
  7  5  1  0
  7  9  1  0
  8  7  2  0
  9 13  1  0
 10  9  1  0
 10 11  1  0
 11 12  1  0
 13 14  1  6
 13 12  1  0
 14 15  2  0
 16 17  1  0
 16 14  1  0
 17 18  1  1
 18 19  1  0
 19 23  1  0
 20 19  2  0
 20 21  1  0
 21 22  1  0
 23 22  2  0
 24 25  1  0
 24 17  1  0
 26 24  2  0
M  END
$$$$
