LKY.pdb
     RDKit          3D

 30 30  0  0  1  0  0  0  0  0999 V2000
    5.8645  -12.2407   27.2816 C   0  0  0  0  0  0  0  0  0  0  0  0
    6.3032  -12.4284   25.8700 C   0  0  1  0  0  0  0  0  0  0  0  0
    7.0612  -11.1997   25.4219 C   0  0  0  0  0  0  0  0  0  0  0  0
    7.1621  -13.6335   25.6434 C   0  0  0  0  0  0  0  0  0  0  0  0
    7.7238  -13.7449   24.2680 C   0  0  2  0  0  0  0  0  0  0  0  0
    6.7495  -13.7074   23.2216 N   0  0  0  0  0  0  0  0  0  0  0  0
    8.5010  -15.0122   24.1922 C   0  0  0  0  0  0  0  0  0  0  0  0
    8.7620  -15.6408   25.2744 O   0  0  0  0  0  0  0  0  0  0  0  0
    8.9593  -15.5433   22.9674 N   0  0  0  0  0  0  0  0  0  0  0  0
    9.8219  -16.6937   22.9271 C   0  0  1  0  0  0  0  0  0  0  0  0
   10.0084  -17.2422   21.5273 C   0  0  0  0  0  0  0  0  0  0  0  0
    8.6526  -17.4407   20.8980 C   0  0  0  0  0  0  0  0  0  0  0  0
    8.8211  -17.8367   19.4363 C   0  0  0  0  0  0  0  0  0  0  0  0
    7.4145  -17.9164   18.8389 C   0  0  0  0  0  0  0  0  0  0  0  0
    7.5548  -18.2911   17.4471 N   0  0  0  0  0  0  0  0  0  0  0  0
   11.1750  -16.2601   23.3924 C   0  0  0  0  0  0  0  0  0  0  0  0
   11.8137  -15.3462   22.7968 O   0  0  0  0  0  0  0  0  0  0  0  0
   10.1224  -16.9753   30.5522 O   0  0  0  0  0  0  0  0  0  0  0  0
   10.7947  -16.5599   29.4066 C   0  0  0  0  0  0  0  0  0  0  0  0
   11.9851  -17.1368   29.0139 C   0  0  0  0  0  0  0  0  0  0  0  0
   12.6374  -16.7128   27.8760 C   0  0  0  0  0  0  0  0  0  0  0  0
   12.1352  -15.6917   27.0720 C   0  0  0  0  0  0  0  0  0  0  0  0
   12.8856  -15.2670   25.8695 C   0  0  0  0  0  0  0  0  0  0  0  0
   13.0644  -16.4775   24.9618 C   0  0  2  0  0  0  0  0  0  0  0  0
   11.7388  -16.8838   24.5107 N   0  0  0  0  0  0  0  0  0  0  0  0
   13.7727  -17.5942   25.5973 C   0  0  0  0  0  0  0  0  0  0  0  0
   15.0940  -17.5953   25.9979 O   0  0  0  0  0  0  0  0  0  0  0  0
   10.9469  -15.1194   27.4690 C   0  0  0  0  0  0  0  0  0  0  0  0
   10.2896  -15.5482   28.6175 C   0  0  0  0  0  0  0  0  0  0  0  0
   13.1313  -18.6793   25.8103 O   0  0  0  0  0  0  0  0  0  0  0  0
  2  4  1  0
  2  1  1  1
  3  2  1  0
  4  5  1  0
  5  7  1  0
  5  6  1  6
  7  8  2  0
  9  7  1  0
  9 10  1  0
 10 16  1  0
 10 11  1  6
 11 12  1  0
 12 13  1  0
 13 14  1  0
 15 14  1  0
 16 17  2  0
 18 19  1  0
 19 29  2  0
 19 20  1  0
 20 21  2  0
 21 22  1  0
 22 23  1  0
 24 23  1  1
 24 26  1  0
 25 24  1  0
 25 16  1  0
 26 30  2  0
 26 27  1  0
 28 22  2  0
 29 28  1  0
M  END
$$$$
