LKY.pdb
     RDKit          3D

 30 30  0  0  1  0  0  0  0  0999 V2000
    6.4353  -12.5254   19.2298 C   0  0  0  0  0  0  0  0  0  0  0  0
    7.7271  -13.1884   19.5644 C   0  0  1  0  0  0  0  0  0  0  0  0
    8.8059  -12.1358   19.6798 C   0  0  0  0  0  0  0  0  0  0  0  0
    7.7018  -13.9926   20.8269 C   0  0  0  0  0  0  0  0  0  0  0  0
    9.0337  -14.4900   21.2721 C   0  0  2  0  0  0  0  0  0  0  0  0
    9.7899  -15.1577   20.2583 N   0  0  0  0  0  0  0  0  0  0  0  0
    8.8184  -15.4028   22.4282 C   0  0  0  0  0  0  0  0  0  0  0  0
    7.8508  -15.1652   23.2292 O   0  0  0  0  0  0  0  0  0  0  0  0
    9.6454  -16.5207   22.6701 N   0  0  0  0  0  0  0  0  0  0  0  0
    9.3984  -17.4087   23.7744 C   0  0  1  0  0  0  0  0  0  0  0  0
   10.0628  -18.7596   23.6049 C   0  0  0  0  0  0  0  0  0  0  0  0
    9.2794  -19.5642   22.5988 C   0  0  0  0  0  0  0  0  0  0  0  0
    9.9384  -20.9248   22.4083 C   0  0  0  0  0  0  0  0  0  0  0  0
    9.1339  -21.6543   21.3302 C   0  0  0  0  0  0  0  0  0  0  0  0
    9.7200  -22.9685   21.1663 N   0  0  0  0  0  0  0  0  0  0  0  0
   10.0048  -16.7922   24.9941 C   0  0  0  0  0  0  0  0  0  0  0  0
   11.1311  -16.2200   24.9512 O   0  0  0  0  0  0  0  0  0  0  0  0
    6.5333  -11.2888   25.1299 O   0  0  0  0  0  0  0  0  0  0  0  0
    7.0699  -12.3400   25.8674 C   0  0  0  0  0  0  0  0  0  0  0  0
    6.2868  -13.3797   26.3255 C   0  0  0  0  0  0  0  0  0  0  0  0
    6.8352  -14.4130   27.0546 C   0  0  0  0  0  0  0  0  0  0  0  0
    8.1928  -14.4618   27.3637 C   0  0  0  0  0  0  0  0  0  0  0  0
    8.7246  -15.5881   28.1625 C   0  0  0  0  0  0  0  0  0  0  0  0
    9.8729  -16.2254   27.3902 C   0  0  2  0  0  0  0  0  0  0  0  0
    9.3045  -16.8540   26.2038 N   0  0  0  0  0  0  0  0  0  0  0  0
   10.6532  -17.1872   28.1767 C   0  0  0  0  0  0  0  0  0  0  0  0
   11.5328  -16.8796   29.1954 O   0  0  0  0  0  0  0  0  0  0  0  0
    8.9696  -13.4212   26.9040 C   0  0  0  0  0  0  0  0  0  0  0  0
    8.4150  -12.3791   26.1683 C   0  0  0  0  0  0  0  0  0  0  0  0
   10.5271  -18.4321   27.9145 O   0  0  0  0  0  0  0  0  0  0  0  0
  2  4  1  0
  2  1  1  1
  3  2  1  0
  4  5  1  0
  5  7  1  0
  5  6  1  6
  7  8  2  0
  9  7  1  0
  9 10  1  0
 10 16  1  0
 10 11  1  6
 11 12  1  0
 12 13  1  0
 13 14  1  0
 15 14  1  0
 16 17  2  0
 18 19  1  0
 19 29  2  0
 19 20  1  0
 20 21  2  0
 21 22  1  0
 22 23  1  0
 24 23  1  1
 24 26  1  0
 25 24  1  0
 25 16  1  0
 26 30  2  0
 26 27  1  0
 28 22  2  0
 29 28  1  0
M  END
$$$$
