LKY.pdb
     RDKit          3D

 30 30  0  0  1  0  0  0  0  0999 V2000
    9.1054  -20.6100   19.3500 C   0  0  0  0  0  0  0  0  0  0  0  0
    9.0045  -19.1799   18.9438 C   0  0  1  0  0  0  0  0  0  0  0  0
    7.5710  -18.8722   18.5756 C   0  0  0  0  0  0  0  0  0  0  0  0
    9.4530  -18.2061   19.9886 C   0  0  0  0  0  0  0  0  0  0  0  0
    9.1572  -16.7800   19.6750 C   0  0  2  0  0  0  0  0  0  0  0  0
    9.9643  -16.2184   18.6364 N   0  0  0  0  0  0  0  0  0  0  0  0
    9.3218  -15.9923   20.9274 C   0  0  0  0  0  0  0  0  0  0  0  0
   10.5030  -15.7486   21.3514 O   0  0  0  0  0  0  0  0  0  0  0  0
    8.2194  -15.5055   21.6622 N   0  0  0  0  0  0  0  0  0  0  0  0
    8.4008  -14.6525   22.8060 C   0  0  1  0  0  0  0  0  0  0  0  0
    7.1029  -14.0521   23.3058 C   0  0  0  0  0  0  0  0  0  0  0  0
    7.3812  -13.2718   24.5656 C   0  0  0  0  0  0  0  0  0  0  0  0
    6.0733  -12.7327   25.1319 C   0  0  0  0  0  0  0  0  0  0  0  0
    6.4334  -11.9468   26.3946 C   0  0  0  0  0  0  0  0  0  0  0  0
    5.1959  -11.4708   26.9771 N   0  0  0  0  0  0  0  0  0  0  0  0
    8.9295  -15.4977   23.9203 C   0  0  0  0  0  0  0  0  0  0  0  0
    8.5118  -16.6760   24.1074 O   0  0  0  0  0  0  0  0  0  0  0  0
   12.3077  -17.3424   31.7502 O   0  0  0  0  0  0  0  0  0  0  0  0
   12.0611  -16.7384   30.5208 C   0  0  0  0  0  0  0  0  0  0  0  0
   12.6201  -17.2148   29.3526 C   0  0  0  0  0  0  0  0  0  0  0  0
   12.3648  -16.6041   28.1435 C   0  0  0  0  0  0  0  0  0  0  0  0
   11.5387  -15.4871   28.0383 C   0  0  0  0  0  0  0  0  0  0  0  0
   11.3117  -14.8631   26.7159 C   0  0  0  0  0  0  0  0  0  0  0  0
   10.3269  -15.7277   25.9389 C   0  0  2  0  0  0  0  0  0  0  0  0
    9.9066  -14.9659   24.7689 N   0  0  0  0  0  0  0  0  0  0  0  0
    9.1707  -16.1643   26.7297 C   0  0  0  0  0  0  0  0  0  0  0  0
    9.0402  -17.3772   27.3761 O   0  0  0  0  0  0  0  0  0  0  0  0
   10.9837  -15.0159   29.2076 C   0  0  0  0  0  0  0  0  0  0  0  0
   11.2421  -15.6331   30.4271 C   0  0  0  0  0  0  0  0  0  0  0  0
    8.1775  -15.3679   26.8463 O   0  0  0  0  0  0  0  0  0  0  0  0
  2  4  1  0
  2  1  1  1
  3  2  1  0
  4  5  1  0
  5  7  1  0
  5  6  1  6
  7  8  2  0
  9  7  1  0
  9 10  1  0
 10 16  1  0
 10 11  1  1
 11 12  1  0
 12 13  1  0
 13 14  1  0
 15 14  1  0
 16 17  2  0
 18 19  1  0
 19 29  2  0
 19 20  1  0
 20 21  2  0
 21 22  1  0
 22 23  1  0
 24 23  1  1
 24 26  1  0
 25 24  1  0
 25 16  1  0
 26 30  2  0
 26 27  1  0
 28 22  2  0
 29 28  1  0
M  END
$$$$
