LKY.pdb
     RDKit          3D

 30 30  0  0  1  0  0  0  0  0999 V2000
    6.9883  -11.7363   20.5549 C   0  0  0  0  0  0  0  0  0  0  0  0
    7.7529  -12.9718   20.2243 C   0  0  1  0  0  0  0  0  0  0  0  0
    9.2020  -12.6080   19.9948 C   0  0  0  0  0  0  0  0  0  0  0  0
    7.6843  -14.0411   21.2698 C   0  0  0  0  0  0  0  0  0  0  0  0
    8.4445  -15.2795   20.9410 C   0  0  2  0  0  0  0  0  0  0  0  0
    7.9104  -16.0346   19.8500 N   0  0  0  0  0  0  0  0  0  0  0  0
    8.4952  -16.1242   22.1657 C   0  0  0  0  0  0  0  0  0  0  0  0
    7.3968  -16.4812   22.7141 O   0  0  0  0  0  0  0  0  0  0  0  0
    9.7133  -16.5442   22.7418 N   0  0  0  0  0  0  0  0  0  0  0  0
    9.7383  -17.4110   23.8895 C   0  0  1  0  0  0  0  0  0  0  0  0
   10.6992  -18.5714   23.7314 C   0  0  0  0  0  0  0  0  0  0  0  0
   10.4100  -19.2681   22.4258 C   0  0  0  0  0  0  0  0  0  0  0  0
   11.4182  -20.3903   22.2114 C   0  0  0  0  0  0  0  0  0  0  0  0
   11.1372  -20.9729   20.8246 C   0  0  0  0  0  0  0  0  0  0  0  0
   12.0949  -22.0354   20.5981 N   0  0  0  0  0  0  0  0  0  0  0  0
   10.2345  -16.6094   25.0500 C   0  0  0  0  0  0  0  0  0  0  0  0
   11.2690  -15.8890   24.9575 O   0  0  0  0  0  0  0  0  0  0  0  0
    6.3294  -11.4555   25.2106 O   0  0  0  0  0  0  0  0  0  0  0  0
    6.9766  -12.4371   25.9552 C   0  0  0  0  0  0  0  0  0  0  0  0
    6.4804  -13.7212   26.0510 C   0  0  0  0  0  0  0  0  0  0  0  0
    7.1349  -14.6810   26.7929 C   0  0  0  0  0  0  0  0  0  0  0  0
    8.3177  -14.4087   27.4770 C   0  0  0  0  0  0  0  0  0  0  0  0
    8.9695  -15.4741   28.2704 C   0  0  0  0  0  0  0  0  0  0  0  0
   10.1150  -16.0527   27.4492 C   0  0  2  0  0  0  0  0  0  0  0  0
    9.5335  -16.6634   26.2597 N   0  0  0  0  0  0  0  0  0  0  0  0
   10.9450  -17.0128   28.1853 C   0  0  0  0  0  0  0  0  0  0  0  0
   11.8123  -16.7131   29.2169 O   0  0  0  0  0  0  0  0  0  0  0  0
    8.8081  -13.1253   27.3780 C   0  0  0  0  0  0  0  0  0  0  0  0
    8.1468  -12.1576   26.6289 C   0  0  0  0  0  0  0  0  0  0  0  0
   10.8797  -18.2477   27.8612 O   0  0  0  0  0  0  0  0  0  0  0  0
  2  4  1  0
  2  1  1  1
  3  2  1  0
  4  5  1  0
  5  7  1  0
  5  6  1  6
  7  8  2  0
  9  7  1  0
  9 10  1  0
 10 16  1  0
 10 11  1  6
 11 12  1  0
 12 13  1  0
 13 14  1  0
 15 14  1  0
 16 17  2  0
 18 19  1  0
 19 29  2  0
 19 20  1  0
 20 21  2  0
 21 22  1  0
 22 23  1  0
 24 23  1  1
 24 26  1  0
 25 24  1  0
 25 16  1  0
 26 30  2  0
 26 27  1  0
 28 22  2  0
 29 28  1  0
M  END
$$$$
