LKY.pdb
     RDKit          3D

 30 30  0  0  1  0  0  0  0  0999 V2000
    6.3672  -12.5851   18.8938 C   0  0  0  0  0  0  0  0  0  0  0  0
    7.7396  -13.1647   18.8627 C   0  0  1  0  0  0  0  0  0  0  0  0
    8.7501  -12.0413   18.9063 C   0  0  0  0  0  0  0  0  0  0  0  0
    8.0337  -14.1206   19.9767 C   0  0  0  0  0  0  0  0  0  0  0  0
    9.4245  -14.6547   19.9846 C   0  0  2  0  0  0  0  0  0  0  0  0
    9.9273  -15.0269   18.6985 N   0  0  0  0  0  0  0  0  0  0  0  0
    9.4595  -15.8269   20.9015 C   0  0  0  0  0  0  0  0  0  0  0  0
    8.6602  -15.8532   21.8990 O   0  0  0  0  0  0  0  0  0  0  0  0
   10.3441  -16.9095   20.7076 N   0  0  0  0  0  0  0  0  0  0  0  0
   10.3793  -18.0196   21.6215 C   0  0  1  0  0  0  0  0  0  0  0  0
   11.1902  -19.1879   21.0994 C   0  0  0  0  0  0  0  0  0  0  0  0
   10.4692  -19.7927   19.9213 C   0  0  0  0  0  0  0  0  0  0  0  0
   11.2911  -20.9445   19.3558 C   0  0  0  0  0  0  0  0  0  0  0  0
   10.5012  -21.5066   18.1718 C   0  0  0  0  0  0  0  0  0  0  0  0
   11.2876  -22.5770   17.5946 N   0  0  0  0  0  0  0  0  0  0  0  0
   11.0632  -17.5570   22.8679 C   0  0  0  0  0  0  0  0  0  0  0  0
   11.9508  -16.6575   22.8361 O   0  0  0  0  0  0  0  0  0  0  0  0
   10.7453  -14.0802   30.6915 O   0  0  0  0  0  0  0  0  0  0  0  0
   10.5767  -14.6156   29.4180 C   0  0  0  0  0  0  0  0  0  0  0  0
    9.7112  -15.6637   29.1796 C   0  0  0  0  0  0  0  0  0  0  0  0
    9.5565  -16.1815   27.9116 C   0  0  0  0  0  0  0  0  0  0  0  0
   10.2574  -15.6802   26.8168 C   0  0  0  0  0  0  0  0  0  0  0  0
   10.0629  -16.2849   25.4804 C   0  0  0  0  0  0  0  0  0  0  0  0
   11.0386  -17.4454   25.3311 C   0  0  2  0  0  0  0  0  0  0  0  0
   10.7076  -18.1366   24.0907 N   0  0  0  0  0  0  0  0  0  0  0  0
   11.0362  -18.3708   26.4697 C   0  0  0  0  0  0  0  0  0  0  0  0
   11.9144  -18.3502   27.5348 O   0  0  0  0  0  0  0  0  0  0  0  0
   11.1200  -14.6343   27.0607 C   0  0  0  0  0  0  0  0  0  0  0  0
   11.2751  -14.1125   28.3408 C   0  0  0  0  0  0  0  0  0  0  0  0
   10.1505  -19.2920   26.5033 O   0  0  0  0  0  0  0  0  0  0  0  0
  2  4  1  0
  2  1  1  1
  3  2  1  0
  4  5  1  0
  5  7  1  0
  5  6  1  6
  7  8  2  0
  9  7  1  0
  9 10  1  0
 10 16  1  0
 10 11  1  6
 11 12  1  0
 12 13  1  0
 13 14  1  0
 15 14  1  0
 16 17  2  0
 18 19  1  0
 19 29  2  0
 19 20  1  0
 20 21  2  0
 21 22  1  0
 22 23  1  0
 24 23  1  1
 24 26  1  0
 25 24  1  0
 25 16  1  0
 26 30  2  0
 26 27  1  0
 28 22  2  0
 29 28  1  0
M  END
$$$$
