LKY.pdb
     RDKit          3D

 30 30  0  0  1  0  0  0  0  0999 V2000
    7.1121  -12.0026   19.3295 C   0  0  0  0  0  0  0  0  0  0  0  0
    7.6454  -13.2444   18.7019 C   0  0  1  0  0  0  0  0  0  0  0  0
    8.9111  -12.9103   17.9460 C   0  0  0  0  0  0  0  0  0  0  0  0
    7.9388  -14.3499   19.6679 C   0  0  0  0  0  0  0  0  0  0  0  0
    8.3602  -15.6310   19.0348 C   0  0  2  0  0  0  0  0  0  0  0  0
    7.3370  -16.2888   18.2824 N   0  0  0  0  0  0  0  0  0  0  0  0
    8.8569  -16.5318   20.1110 C   0  0  0  0  0  0  0  0  0  0  0  0
    8.0167  -17.0236   20.9395 O   0  0  0  0  0  0  0  0  0  0  0  0
   10.2225  -16.8611   20.2478 N   0  0  0  0  0  0  0  0  0  0  0  0
   10.6714  -17.7878   21.2520 C   0  0  1  0  0  0  0  0  0  0  0  0
   11.9477  -18.5058   20.8638 C   0  0  0  0  0  0  0  0  0  0  0  0
   12.3342  -19.4469   21.9766 C   0  0  0  0  0  0  0  0  0  0  0  0
   11.6191  -20.7795   21.7900 C   0  0  0  0  0  0  0  0  0  0  0  0
   12.0392  -21.6701   22.9614 C   0  0  0  0  0  0  0  0  0  0  0  0
   11.3437  -22.9322   22.8181 N   0  0  0  0  0  0  0  0  0  0  0  0
   10.9897  -17.0009   22.4829 C   0  0  0  0  0  0  0  0  0  0  0  0
   11.9058  -16.1300   22.4882 O   0  0  0  0  0  0  0  0  0  0  0  0
   10.6841  -13.8761   30.6456 O   0  0  0  0  0  0  0  0  0  0  0  0
   10.3759  -14.5416   29.4628 C   0  0  0  0  0  0  0  0  0  0  0  0
    9.8699  -13.8754   28.3653 C   0  0  0  0  0  0  0  0  0  0  0  0
    9.5703  -14.5507   27.2016 C   0  0  0  0  0  0  0  0  0  0  0  0
    9.7602  -15.9250   27.0735 C   0  0  0  0  0  0  0  0  0  0  0  0
    9.4071  -16.6004   25.8051 C   0  0  0  0  0  0  0  0  0  0  0  0
   10.6123  -16.5376   24.8752 C   0  0  2  0  0  0  0  0  0  0  0  0
   10.2535  -17.2394   23.6486 N   0  0  0  0  0  0  0  0  0  0  0  0
   11.8403  -17.0877   25.4600 C   0  0  0  0  0  0  0  0  0  0  0  0
   12.1019  -18.4232   25.6924 O   0  0  0  0  0  0  0  0  0  0  0  0
   10.2652  -16.5848   28.1721 C   0  0  0  0  0  0  0  0  0  0  0  0
   10.5673  -15.9022   29.3459 C   0  0  0  0  0  0  0  0  0  0  0  0
   12.7703  -16.2773   25.7960 O   0  0  0  0  0  0  0  0  0  0  0  0
  2  4  1  0
  2  1  1  1
  3  2  1  0
  4  5  1  0
  5  7  1  0
  5  6  1  1
  7  8  2  0
  9  7  1  0
  9 10  1  0
 10 16  1  0
 10 11  1  6
 11 12  1  0
 12 13  1  0
 13 14  1  0
 15 14  1  0
 16 17  2  0
 18 19  1  0
 19 29  2  0
 19 20  1  0
 20 21  2  0
 21 22  1  0
 22 23  1  0
 24 23  1  1
 24 26  1  0
 25 24  1  0
 25 16  1  0
 26 30  2  0
 26 27  1  0
 28 22  2  0
 29 28  1  0
M  END
$$$$
