FVA.pdb
     RDKit          3D

 24 24  0  0  1  0  0  0  0  0999 V2000
    5.7948  -17.9556   25.6069 N   0  0  0  0  0  0  0  0  0  0  0  0
    6.2789  -16.6026   25.4242 C   0  0  1  0  0  0  0  0  0  0  0  0
    6.7757  -16.1271   26.7739 C   0  0  0  0  0  0  0  0  0  0  0  0
    6.8904  -14.6562   26.7783 C   0  0  0  0  0  0  0  0  0  0  0  0
    5.7641  -13.8741   26.8592 C   0  0  0  0  0  0  0  0  0  0  0  0
    5.8443  -12.4803   26.8652 C   0  0  0  0  0  0  0  0  0  0  0  0
    7.0712  -11.8464   26.7891 C   0  0  0  0  0  0  0  0  0  0  0  0
    8.1974  -12.6302   26.7083 C   0  0  0  0  0  0  0  0  0  0  0  0
    8.1010  -14.0057   26.7035 C   0  0  0  0  0  0  0  0  0  0  0  0
    7.3620  -16.6301   24.4150 C   0  0  0  0  0  0  0  0  0  0  0  0
    8.2316  -17.5348   24.4555 O   0  0  0  0  0  0  0  0  0  0  0  0
    8.5865  -13.2208   22.2210 C   0  0  0  0  0  0  0  0  0  0  0  0
    8.2669  -14.4894   21.4744 C   0  0  2  0  0  0  0  0  0  0  0  0
    6.8477  -14.4933   20.9906 C   0  0  0  0  0  0  0  0  0  0  0  0
    8.4896  -15.7215   22.3351 C   0  0  2  0  0  0  0  0  0  0  0  0
    7.4867  -15.6756   23.3757 N   0  0  0  0  0  0  0  0  0  0  0  0
    9.8644  -15.6936   22.8861 C   0  0  0  0  0  0  0  0  0  0  0  0
   10.2785  -14.6689   23.4838 O   0  0  0  0  0  0  0  0  0  0  0  0
   12.6210  -18.1678   23.5008 C   0  0  0  0  0  0  0  0  0  0  0  0
   12.1401  -16.7328   23.2466 C   0  0  2  0  0  0  0  0  0  0  0  0
   10.7698  -16.7843   22.7778 N   0  0  0  0  0  0  0  0  0  0  0  0
   13.0473  -16.0837   22.3006 C   0  0  0  0  0  0  0  0  0  0  0  0
   12.7127  -15.9840   21.0968 O   0  0  0  0  0  0  0  0  0  0  0  0
   14.2763  -15.5624   22.6582 O   0  0  0  0  0  0  0  0  0  0  0  0
  2  1  1  1
  3  2  1  0
  4  5  2  0
  4  3  1  0
  6  5  1  0
  7  6  2  0
  8  7  1  0
  8  9  2  0
  9  4  1  0
 10  2  1  0
 10 11  2  0
 13 12  1  1
 13 14  1  0
 15 16  1  1
 15 13  1  0
 16 10  1  0
 17 15  1  0
 18 17  2  0
 20 19  1  6
 20 21  1  0
 21 17  1  0
 22 20  1  0
 22 24  1  0
 23 22  2  0
M  END
$$$$
