FVA.pdb
     RDKit          3D

 24 24  0  0  1  0  0  0  0  0999 V2000
    5.9225  -18.0443   25.3958 N   0  0  0  0  0  0  0  0  0  0  0  0
    6.3748  -16.6761   25.2478 C   0  0  1  0  0  0  0  0  0  0  0  0
    6.9672  -16.2621   26.5790 C   0  0  0  0  0  0  0  0  0  0  0  0
    7.1075  -14.7943   26.6328 C   0  0  0  0  0  0  0  0  0  0  0  0
    8.3540  -14.2175   26.6339 C   0  0  0  0  0  0  0  0  0  0  0  0
    8.5151  -12.8316   26.6843 C   0  0  0  0  0  0  0  0  0  0  0  0
    7.4133  -11.9972   26.7348 C   0  0  0  0  0  0  0  0  0  0  0  0
    6.1665  -12.5758   26.7337 C   0  0  0  0  0  0  0  0  0  0  0  0
    6.0245  -13.9464   26.6835 C   0  0  0  0  0  0  0  0  0  0  0  0
    7.3781  -16.6347   24.1596 C   0  0  0  0  0  0  0  0  0  0  0  0
    8.2931  -17.4934   24.1198 O   0  0  0  0  0  0  0  0  0  0  0  0
    7.9752  -13.1101   21.9260 C   0  0  0  0  0  0  0  0  0  0  0  0
    7.9384  -14.4220   21.1867 C   0  0  2  0  0  0  0  0  0  0  0  0
    6.5680  -14.7046   20.6477 C   0  0  0  0  0  0  0  0  0  0  0  0
    8.3595  -15.5812   22.0739 C   0  0  2  0  0  0  0  0  0  0  0  0
    7.3748  -15.6621   23.1297 N   0  0  0  0  0  0  0  0  0  0  0  0
    9.7203  -15.3269   22.6011 C   0  0  0  0  0  0  0  0  0  0  0  0
   10.1028  -14.1473   22.8038 O   0  0  0  0  0  0  0  0  0  0  0  0
   11.6725  -15.4389   24.8897 C   0  0  0  0  0  0  0  0  0  0  0  0
   11.9245  -16.1294   23.5425 C   0  0  2  0  0  0  0  0  0  0  0  0
   10.6465  -16.3631   22.9004 N   0  0  0  0  0  0  0  0  0  0  0  0
   12.6873  -17.3568   23.7683 C   0  0  0  0  0  0  0  0  0  0  0  0
   13.8203  -17.2882   24.2998 O   0  0  0  0  0  0  0  0  0  0  0  0
   12.2274  -18.6141   23.4250 O   0  0  0  0  0  0  0  0  0  0  0  0
  2  1  1  1
  3  2  1  0
  4  5  2  0
  4  3  1  0
  6  5  1  0
  7  6  2  0
  8  7  1  0
  8  9  2  0
  9  4  1  0
 10  2  1  0
 10 11  2  0
 13 12  1  1
 13 14  1  0
 15 16  1  1
 15 13  1  0
 16 10  1  0
 17 15  1  0
 18 17  2  0
 20 19  1  1
 20 21  1  0
 21 17  1  0
 22 20  1  0
 22 24  1  0
 23 22  2  0
M  END
$$$$
