FVA.pdb
     RDKit          3D

 24 24  0  0  1  0  0  0  0  0999 V2000
    5.8612  -18.1278   25.2542 N   0  0  0  0  0  0  0  0  0  0  0  0
    6.2851  -16.7495   25.1156 C   0  0  1  0  0  0  0  0  0  0  0  0
    7.1048  -16.4156   26.3449 C   0  0  0  0  0  0  0  0  0  0  0  0
    7.2696  -14.9538   26.4582 C   0  0  0  0  0  0  0  0  0  0  0  0
    8.5246  -14.3958   26.4484 C   0  0  0  0  0  0  0  0  0  0  0  0
    8.7088  -13.0159   26.5541 C   0  0  0  0  0  0  0  0  0  0  0  0
    7.6221  -12.1686   26.6723 C   0  0  0  0  0  0  0  0  0  0  0  0
    6.3668  -12.7284   26.6819 C   0  0  0  0  0  0  0  0  0  0  0  0
    6.2019  -14.0933   26.5766 C   0  0  0  0  0  0  0  0  0  0  0  0
    7.0806  -16.6320   23.8724 C   0  0  0  0  0  0  0  0  0  0  0  0
    7.8257  -17.5773   23.5150 O   0  0  0  0  0  0  0  0  0  0  0  0
    8.1955  -13.7187   19.9524 C   0  0  0  0  0  0  0  0  0  0  0  0
    7.4873  -13.9787   21.2563 C   0  0  2  0  0  0  0  0  0  0  0  0
    7.8234  -12.9321   22.2761 C   0  0  0  0  0  0  0  0  0  0  0  0
    7.8386  -15.3424   21.8265 C   0  0  2  0  0  0  0  0  0  0  0  0
    7.0569  -15.4905   23.0339 N   0  0  0  0  0  0  0  0  0  0  0  0
    9.2941  -15.4021   22.0956 C   0  0  0  0  0  0  0  0  0  0  0  0
   10.1107  -15.3079   21.1454 O   0  0  0  0  0  0  0  0  0  0  0  0
   11.5144  -14.9951   25.0526 C   0  0  0  0  0  0  0  0  0  0  0  0
   11.2633  -15.6053   23.6670 C   0  0  2  0  0  0  0  0  0  0  0  0
    9.8399  -15.5637   23.3983 N   0  0  0  0  0  0  0  0  0  0  0  0
   11.8156  -16.9592   23.6323 C   0  0  0  0  0  0  0  0  0  0  0  0
   13.0371  -17.1315   23.8540 O   0  0  0  0  0  0  0  0  0  0  0  0
   11.0590  -18.0844   23.3649 O   0  0  0  0  0  0  0  0  0  0  0  0
  2  1  1  1
  3  2  1  0
  4  5  2  0
  4  3  1  0
  6  5  1  0
  7  6  2  0
  8  7  1  0
  8  9  2  0
  9  4  1  0
 10  2  1  0
 10 11  2  0
 13 12  1  6
 13 14  1  0
 15 16  1  1
 15 13  1  0
 16 10  1  0
 17 15  1  0
 18 17  2  0
 20 19  1  1
 20 21  1  0
 21 17  1  0
 22 20  1  0
 22 24  1  0
 23 22  2  0
M  END
$$$$
