FVA.pdb
     RDKit          3D

 24 24  0  0  1  0  0  0  0  0999 V2000
    6.1247  -18.1995   25.5318 N   0  0  0  0  0  0  0  0  0  0  0  0
    6.5267  -16.8358   25.2539 C   0  0  1  0  0  0  0  0  0  0  0  0
    7.2736  -16.3398   26.4748 C   0  0  0  0  0  0  0  0  0  0  0  0
    7.2031  -14.8678   26.5444 C   0  0  0  0  0  0  0  0  0  0  0  0
    8.3340  -14.1318   26.8014 C   0  0  0  0  0  0  0  0  0  0  0  0
    8.2952  -12.7380   26.8727 C   0  0  0  0  0  0  0  0  0  0  0  0
    7.1060  -12.0573   26.6846 C   0  0  0  0  0  0  0  0  0  0  0  0
    5.9752  -12.7951   26.4274 C   0  0  0  0  0  0  0  0  0  0  0  0
    6.0304  -14.1712   26.3603 C   0  0  0  0  0  0  0  0  0  0  0  0
    7.3837  -16.8420   24.0465 C   0  0  0  0  0  0  0  0  0  0  0  0
    8.0796  -17.8522   23.7789 O   0  0  0  0  0  0  0  0  0  0  0  0
    8.3121  -13.2456   22.0354 C   0  0  0  0  0  0  0  0  0  0  0  0
    7.9406  -14.4535   21.2157 C   0  0  2  0  0  0  0  0  0  0  0  0
    6.4802  -14.4524   20.8760 C   0  0  0  0  0  0  0  0  0  0  0  0
    8.2698  -15.7485   21.9388 C   0  0  2  0  0  0  0  0  0  0  0  0
    7.4740  -15.7521   23.1461 N   0  0  0  0  0  0  0  0  0  0  0  0
    9.7216  -15.7932   22.2297 C   0  0  0  0  0  0  0  0  0  0  0  0
   10.5485  -15.8327   21.2845 O   0  0  0  0  0  0  0  0  0  0  0  0
   11.9793  -15.1906   25.1353 C   0  0  0  0  0  0  0  0  0  0  0  0
   11.6636  -15.9503   23.8399 C   0  0  2  0  0  0  0  0  0  0  0  0
   10.2527  -15.7942   23.5485 N   0  0  0  0  0  0  0  0  0  0  0  0
   12.0677  -17.3477   23.9930 C   0  0  0  0  0  0  0  0  0  0  0  0
   11.2001  -18.2498   23.9279 O   0  0  0  0  0  0  0  0  0  0  0  0
   13.3739  -17.7441   24.2096 O   0  0  0  0  0  0  0  0  0  0  0  0
  2  1  1  1
  3  2  1  0
  4  5  2  0
  4  3  1  0
  6  5  1  0
  7  6  2  0
  8  7  1  0
  8  9  2  0
  9  4  1  0
 10  2  1  0
 10 11  2  0
 13 12  1  1
 13 14  1  0
 15 16  1  1
 15 13  1  0
 16 10  1  0
 17 15  1  0
 18 17  2  0
 20 19  1  1
 20 21  1  0
 21 17  1  0
 22 20  1  0
 22 24  1  0
 23 22  2  0
M  END
$$$$
