FVA.pdb
     RDKit          3D

 24 24  0  0  1  0  0  0  0  0999 V2000
    5.9768  -17.9550   25.6089 N   0  0  0  0  0  0  0  0  0  0  0  0
    6.2779  -16.5583   25.3702 C   0  0  1  0  0  0  0  0  0  0  0  0
    6.8733  -16.0114   26.6512 C   0  0  0  0  0  0  0  0  0  0  0  0
    6.8103  -14.5374   26.6463 C   0  0  0  0  0  0  0  0  0  0  0  0
    5.5995  -13.8964   26.5479 C   0  0  0  0  0  0  0  0  0  0  0  0
    5.5115  -12.5031   26.5409 C   0  0  0  0  0  0  0  0  0  0  0  0
    6.6520  -11.7263   26.6337 C   0  0  0  0  0  0  0  0  0  0  0  0
    7.8630  -12.3690   26.7321 C   0  0  0  0  0  0  0  0  0  0  0  0
    7.9328  -13.7460   26.7376 C   0  0  0  0  0  0  0  0  0  0  0  0
    7.2298  -16.4761   24.2391 C   0  0  0  0  0  0  0  0  0  0  0  0
    8.1868  -17.2856   24.1671 O   0  0  0  0  0  0  0  0  0  0  0  0
    8.4689  -14.0364   20.0483 C   0  0  0  0  0  0  0  0  0  0  0  0
    7.7245  -14.1532   21.3526 C   0  0  2  0  0  0  0  0  0  0  0  0
    8.1267  -13.0695   22.3077 C   0  0  0  0  0  0  0  0  0  0  0  0
    7.9605  -15.4986   22.0179 C   0  0  2  0  0  0  0  0  0  0  0  0
    7.1305  -15.5165   23.2018 N   0  0  0  0  0  0  0  0  0  0  0  0
    9.3985  -15.6392   22.3448 C   0  0  0  0  0  0  0  0  0  0  0  0
   10.0036  -14.7020   22.9228 O   0  0  0  0  0  0  0  0  0  0  0  0
   11.8802  -18.4482   22.4655 C   0  0  0  0  0  0  0  0  0  0  0  0
   11.5593  -16.9502   22.3741 C   0  0  2  0  0  0  0  0  0  0  0  0
   10.1579  -16.8009   22.0367 N   0  0  0  0  0  0  0  0  0  0  0  0
   12.4546  -16.3268   21.3999 C   0  0  0  0  0  0  0  0  0  0  0  0
   12.0548  -16.1427   20.2264 O   0  0  0  0  0  0  0  0  0  0  0  0
   13.7411  -15.9195   21.6985 O   0  0  0  0  0  0  0  0  0  0  0  0
  2  1  1  1
  3  2  1  0
  4  5  2  0
  4  3  1  0
  6  5  1  0
  7  6  2  0
  8  7  1  0
  8  9  2  0
  9  4  1  0
 10  2  1  0
 10 11  2  0
 13 12  1  6
 13 14  1  0
 15 16  1  1
 15 13  1  0
 16 10  1  0
 17 15  1  0
 18 17  2  0
 20 19  1  6
 20 21  1  0
 21 17  1  0
 22 20  1  0
 22 24  1  0
 23 22  2  0
M  END
$$$$
