FVA.pdb
     RDKit          3D

 24 24  0  0  1  0  0  0  0  0999 V2000
    8.6566  -15.6716   25.9272 N   0  0  0  0  0  0  0  0  0  0  0  0
    7.4532  -16.4183   25.6227 C   0  0  1  0  0  0  0  0  0  0  0  0
    6.3278  -15.7792   26.4099 C   0  0  0  0  0  0  0  0  0  0  0  0
    6.6095  -14.3458   26.6173 C   0  0  0  0  0  0  0  0  0  0  0  0
    7.8779  -13.9290   26.9396 C   0  0  0  0  0  0  0  0  0  0  0  0
    8.1717  -12.5792   27.1413 C   0  0  0  0  0  0  0  0  0  0  0  0
    7.1835  -11.6190   27.0205 C   0  0  0  0  0  0  0  0  0  0  0  0
    5.9147  -12.0375   26.6979 C   0  0  0  0  0  0  0  0  0  0  0  0
    5.6410  -13.3747   26.5019 C   0  0  0  0  0  0  0  0  0  0  0  0
    7.2182  -16.3436   24.1627 C   0  0  0  0  0  0  0  0  0  0  0  0
    6.3230  -17.0493   23.6366 O   0  0  0  0  0  0  0  0  0  0  0  0
    8.8717  -13.4014   21.4718 C   0  0  0  0  0  0  0  0  0  0  0  0
    7.8778  -14.4870   21.1514 C   0  0  2  0  0  0  0  0  0  0  0  0
    6.4808  -14.0646   21.4954 C   0  0  0  0  0  0  0  0  0  0  0  0
    8.1917  -15.7755   21.8927 C   0  0  2  0  0  0  0  0  0  0  0  0
    7.9579  -15.5043   23.2937 N   0  0  0  0  0  0  0  0  0  0  0  0
    9.5964  -16.1643   21.6285 C   0  0  0  0  0  0  0  0  0  0  0  0
    9.9625  -16.4303   20.4563 O   0  0  0  0  0  0  0  0  0  0  0  0
   12.9017  -15.8087   23.1856 C   0  0  0  0  0  0  0  0  0  0  0  0
   11.9385  -16.7129   22.4048 C   0  0  2  0  0  0  0  0  0  0  0  0
   10.5840  -16.2580   22.6469 N   0  0  0  0  0  0  0  0  0  0  0  0
   12.1575  -18.1033   22.8026 C   0  0  0  0  0  0  0  0  0  0  0  0
   13.2608  -18.6462   22.5598 O   0  0  0  0  0  0  0  0  0  0  0  0
   11.2042  -18.8723   23.4428 O   0  0  0  0  0  0  0  0  0  0  0  0
  2  1  1  6
  3  2  1  0
  4  5  2  0
  4  3  1  0
  6  5  1  0
  7  6  2  0
  8  7  1  0
  8  9  2  0
  9  4  1  0
 10  2  1  0
 10 11  2  0
 13 12  1  1
 13 14  1  0
 15 16  1  1
 15 13  1  0
 16 10  1  0
 17 15  1  0
 18 17  2  0
 20 19  1  1
 20 21  1  0
 21 17  1  0
 22 20  1  0
 22 24  1  0
 23 22  2  0
M  END
$$$$
