FVA.pdb
     RDKit          3D

 24 24  0  0  1  0  0  0  0  0999 V2000
    5.9646  -17.7658   25.7780 N   0  0  0  0  0  0  0  0  0  0  0  0
    6.4367  -16.4486   25.4032 C   0  0  1  0  0  0  0  0  0  0  0  0
    7.1160  -15.8611   26.6230 C   0  0  0  0  0  0  0  0  0  0  0  0
    6.9132  -14.4001   26.6573 C   0  0  0  0  0  0  0  0  0  0  0  0
    5.6440  -13.8785   26.7189 C   0  0  0  0  0  0  0  0  0  0  0  0
    5.4240  -12.5003   26.7524 C   0  0  0  0  0  0  0  0  0  0  0  0
    6.4883  -11.6175   26.7240 C   0  0  0  0  0  0  0  0  0  0  0  0
    7.7578  -12.1409   26.6623 C   0  0  0  0  0  0  0  0  0  0  0  0
    7.9581  -13.5047   26.6300 C   0  0  0  0  0  0  0  0  0  0  0  0
    7.3741  -16.5981   24.2669 C   0  0  0  0  0  0  0  0  0  0  0  0
    8.1372  -17.5937   24.2127 O   0  0  0  0  0  0  0  0  0  0  0  0
    6.6649  -14.3896   20.8540 C   0  0  0  0  0  0  0  0  0  0  0  0
    8.1192  -14.5833   21.1952 C   0  0  2  0  0  0  0  0  0  0  0  0
    8.9563  -14.7103   19.9577 C   0  0  0  0  0  0  0  0  0  0  0  0
    8.3369  -15.8156   22.0569 C   0  0  2  0  0  0  0  0  0  0  0  0
    7.4709  -15.6654   23.2051 N   0  0  0  0  0  0  0  0  0  0  0  0
    9.7643  -15.8982   22.4442 C   0  0  0  0  0  0  0  0  0  0  0  0
   10.3201  -14.9174   22.9991 O   0  0  0  0  0  0  0  0  0  0  0  0
   12.3277  -18.6451   22.6901 C   0  0  0  0  0  0  0  0  0  0  0  0
   11.9442  -17.1595   22.6591 C   0  0  2  0  0  0  0  0  0  0  0  0
   10.5672  -17.0500   22.2209 N   0  0  0  0  0  0  0  0  0  0  0  0
   12.8809  -16.4404   21.7962 C   0  0  0  0  0  0  0  0  0  0  0  0
   12.6192  -16.3105   20.5774 O   0  0  0  0  0  0  0  0  0  0  0  0
   14.0616  -15.8835   22.2500 O   0  0  0  0  0  0  0  0  0  0  0  0
  2  1  1  1
  3  2  1  0
  4  5  2  0
  4  3  1  0
  6  5  1  0
  7  6  2  0
  8  7  1  0
  8  9  2  0
  9  4  1  0
 10  2  1  0
 10 11  2  0
 13 12  1  6
 13 14  1  0
 15 16  1  1
 15 13  1  0
 16 10  1  0
 17 15  1  0
 18 17  2  0
 20 19  1  6
 20 21  1  0
 21 17  1  0
 22 20  1  0
 22 24  1  0
 23 22  2  0
M  END
$$$$
