FVA.pdb
     RDKit          3D

 24 24  0  0  1  0  0  0  0  0999 V2000
    5.7002  -17.6209   25.5639 N   0  0  0  0  0  0  0  0  0  0  0  0
    6.3331  -16.3563   25.2496 C   0  0  1  0  0  0  0  0  0  0  0  0
    7.0274  -15.8863   26.5111 C   0  0  0  0  0  0  0  0  0  0  0  0
    6.9694  -14.4147   26.5991 C   0  0  0  0  0  0  0  0  0  0  0  0
    5.7627  -13.7774   26.7543 C   0  0  0  0  0  0  0  0  0  0  0  0
    5.6795  -12.3864   26.8401 C   0  0  0  0  0  0  0  0  0  0  0  0
    6.8207  -11.6082   26.7704 C   0  0  0  0  0  0  0  0  0  0  0  0
    8.0277  -12.2473   26.6152 C   0  0  0  0  0  0  0  0  0  0  0  0
    8.0927  -13.6221   26.5320 C   0  0  0  0  0  0  0  0  0  0  0  0
    7.2904  -16.5796   24.1423 C   0  0  0  0  0  0  0  0  0  0  0  0
    8.0717  -17.5617   24.1797 O   0  0  0  0  0  0  0  0  0  0  0  0
    8.8410  -13.5578   21.3167 C   0  0  0  0  0  0  0  0  0  0  0  0
    8.0642  -14.7922   20.9398 C   0  0  2  0  0  0  0  0  0  0  0  0
    6.5916  -14.5140   20.8889 C   0  0  0  0  0  0  0  0  0  0  0  0
    8.3094  -15.9319   21.9140 C   0  0  2  0  0  0  0  0  0  0  0  0
    7.3869  -15.7341   23.0098 N   0  0  0  0  0  0  0  0  0  0  0  0
    9.7208  -15.8994   22.3626 C   0  0  0  0  0  0  0  0  0  0  0  0
   10.1404  -14.9272   23.0391 O   0  0  0  0  0  0  0  0  0  0  0  0
   12.5459  -18.3334   22.6326 C   0  0  0  0  0  0  0  0  0  0  0  0
   12.0424  -16.8908   22.4891 C   0  0  2  0  0  0  0  0  0  0  0  0
   10.6565  -16.9282   22.0673 N   0  0  0  0  0  0  0  0  0  0  0  0
   12.9084  -16.1716   21.5552 C   0  0  0  0  0  0  0  0  0  0  0  0
   12.5350  -16.0101   20.3697 O   0  0  0  0  0  0  0  0  0  0  0  0
   14.1385  -15.6478   21.9053 O   0  0  0  0  0  0  0  0  0  0  0  0
  2  1  1  1
  3  2  1  0
  4  5  2  0
  4  3  1  0
  6  5  1  0
  7  6  2  0
  8  7  1  0
  8  9  2  0
  9  4  1  0
 10  2  1  0
 10 11  2  0
 13 12  1  1
 13 14  1  0
 15 16  1  1
 15 13  1  0
 16 10  1  0
 17 15  1  0
 18 17  2  0
 20 19  1  6
 20 21  1  0
 21 17  1  0
 22 20  1  0
 22 24  1  0
 23 22  2  0
M  END
$$$$
