FVA.pdb
     RDKit          3D

 24 24  0  0  1  0  0  0  0  0999 V2000
    6.1111  -18.1945   25.5289 N   0  0  0  0  0  0  0  0  0  0  0  0
    6.5141  -16.8259   25.2776 C   0  0  1  0  0  0  0  0  0  0  0  0
    7.2647  -16.3555   26.5063 C   0  0  0  0  0  0  0  0  0  0  0  0
    7.2502  -14.8816   26.5714 C   0  0  0  0  0  0  0  0  0  0  0  0
    8.4266  -14.1747   26.5182 C   0  0  0  0  0  0  0  0  0  0  0  0
    8.4413  -12.7799   26.5778 C   0  0  0  0  0  0  0  0  0  0  0  0
    7.2607  -12.0687   26.6930 C   0  0  0  0  0  0  0  0  0  0  0  0
    6.0842  -12.7774   26.7461 C   0  0  0  0  0  0  0  0  0  0  0  0
    6.0869  -14.1550   26.6860 C   0  0  0  0  0  0  0  0  0  0  0  0
    7.3680  -16.8088   24.0681 C   0  0  0  0  0  0  0  0  0  0  0  0
    8.0686  -17.8109   23.7831 O   0  0  0  0  0  0  0  0  0  0  0  0
    8.2621  -13.1743   22.0311 C   0  0  0  0  0  0  0  0  0  0  0  0
    7.8656  -14.3982   21.2476 C   0  0  2  0  0  0  0  0  0  0  0  0
    6.3911  -14.4162   20.9756 C   0  0  0  0  0  0  0  0  0  0  0  0
    8.2407  -15.6788   21.9742 C   0  0  2  0  0  0  0  0  0  0  0  0
    7.4501  -15.7046   23.1845 N   0  0  0  0  0  0  0  0  0  0  0  0
    9.6943  -15.6737   22.2595 C   0  0  0  0  0  0  0  0  0  0  0  0
   10.5179  -15.6088   21.3128 O   0  0  0  0  0  0  0  0  0  0  0  0
   11.9080  -15.3657   25.2806 C   0  0  0  0  0  0  0  0  0  0  0  0
   11.6476  -15.8634   23.8525 C   0  0  2  0  0  0  0  0  0  0  0  0
   10.2307  -15.7395   23.5745 N   0  0  0  0  0  0  0  0  0  0  0  0
   12.1406  -17.2346   23.7253 C   0  0  0  0  0  0  0  0  0  0  0  0
   13.3469  -17.4792   23.9615 O   0  0  0  0  0  0  0  0  0  0  0  0
   11.3428  -18.3000   23.3532 O   0  0  0  0  0  0  0  0  0  0  0  0
  2  1  1  1
  3  2  1  0
  4  5  2  0
  4  3  1  0
  6  5  1  0
  7  6  2  0
  8  7  1  0
  8  9  2  0
  9  4  1  0
 10  2  1  0
 10 11  2  0
 13 12  1  1
 13 14  1  0
 15 16  1  1
 15 13  1  0
 16 10  1  0
 17 15  1  0
 18 17  2  0
 20 19  1  1
 20 21  1  0
 21 17  1  0
 22 20  1  0
 22 24  1  0
 23 22  2  0
M  END
$$$$
