FVA.pdb
     RDKit          3D

 24 24  0  0  1  0  0  0  0  0999 V2000
    8.7642  -15.2681   24.9887 N   0  0  0  0  0  0  0  0  0  0  0  0
    7.5890  -16.0787   24.7430 C   0  0  1  0  0  0  0  0  0  0  0  0
    6.4867  -15.5352   25.6284 C   0  0  0  0  0  0  0  0  0  0  0  0
    6.8220  -14.1670   26.0670 C   0  0  0  0  0  0  0  0  0  0  0  0
    5.8242  -13.2717   26.3660 C   0  0  0  0  0  0  0  0  0  0  0  0
    6.1136  -11.9711   26.7831 C   0  0  0  0  0  0  0  0  0  0  0  0
    7.4246  -11.5480   26.9068 C   0  0  0  0  0  0  0  0  0  0  0  0
    8.4220  -12.4449   26.6073 C   0  0  0  0  0  0  0  0  0  0  0  0
    8.1193  -13.7259   26.1967 C   0  0  0  0  0  0  0  0  0  0  0  0
    7.2460  -15.9743   23.3064 C   0  0  0  0  0  0  0  0  0  0  0  0
    6.2574  -16.6012   22.8525 O   0  0  0  0  0  0  0  0  0  0  0  0
    9.2255  -13.1952   20.6359 C   0  0  0  0  0  0  0  0  0  0  0  0
    7.8529  -13.7929   20.4692 C   0  0  2  0  0  0  0  0  0  0  0  0
    6.8211  -13.0040   21.2185 C   0  0  0  0  0  0  0  0  0  0  0  0
    7.8038  -15.2341   20.9476 C   0  0  2  0  0  0  0  0  0  0  0  0
    7.9803  -15.1913   22.3821 N   0  0  0  0  0  0  0  0  0  0  0  0
    8.8735  -16.0103   20.2786 C   0  0  0  0  0  0  0  0  0  0  0  0
    9.0494  -15.8950   19.0399 O   0  0  0  0  0  0  0  0  0  0  0  0
   11.7034  -16.6841   19.5727 C   0  0  0  0  0  0  0  0  0  0  0  0
   10.7861  -17.6623   20.3189 C   0  0  2  0  0  0  0  0  0  0  0  0
    9.7378  -16.9025   20.9700 N   0  0  0  0  0  0  0  0  0  0  0  0
   11.5872  -18.4534   21.2524 C   0  0  0  0  0  0  0  0  0  0  0  0
   12.5558  -19.1209   20.8197 O   0  0  0  0  0  0  0  0  0  0  0  0
   11.3380  -18.5126   22.6105 O   0  0  0  0  0  0  0  0  0  0  0  0
  2  1  1  6
  3  2  1  0
  4  5  2  0
  4  3  1  0
  6  5  1  0
  7  6  2  0
  8  7  1  0
  8  9  2  0
  9  4  1  0
 10  2  1  0
 10 11  2  0
 13 12  1  1
 13 14  1  0
 15 16  1  1
 15 13  1  0
 16 10  1  0
 17 15  1  0
 18 17  2  0
 20 19  1  1
 20 21  1  0
 21 17  1  0
 22 20  1  0
 22 24  1  0
 23 22  2  0
M  END
$$$$
