FVA.pdb
     RDKit          3D

 24 24  0  0  1  0  0  0  0  0999 V2000
    6.0671  -17.9873   25.6416 N   0  0  0  0  0  0  0  0  0  0  0  0
    6.4286  -16.6000   25.4338 C   0  0  1  0  0  0  0  0  0  0  0  0
    6.8914  -16.0608   26.7715 C   0  0  0  0  0  0  0  0  0  0  0  0
    6.8092  -14.5877   26.7762 C   0  0  0  0  0  0  0  0  0  0  0  0
    5.5862  -13.9625   26.7678 C   0  0  0  0  0  0  0  0  0  0  0  0
    5.4799  -12.5705   26.7719 C   0  0  0  0  0  0  0  0  0  0  0  0
    6.6140  -11.7789   26.7846 C   0  0  0  0  0  0  0  0  0  0  0  0
    7.8372  -12.4058   26.7930 C   0  0  0  0  0  0  0  0  0  0  0  0
    7.9249  -13.7819   26.7888 C   0  0  0  0  0  0  0  0  0  0  0  0
    7.5023  -16.5481   24.4156 C   0  0  0  0  0  0  0  0  0  0  0  0
    8.4571  -17.3615   24.4718 O   0  0  0  0  0  0  0  0  0  0  0  0
    8.3882  -13.1128   22.0702 C   0  0  0  0  0  0  0  0  0  0  0  0
    8.1487  -14.4344   21.3884 C   0  0  2  0  0  0  0  0  0  0  0  0
    6.7178  -14.5760   20.9632 C   0  0  0  0  0  0  0  0  0  0  0  0
    8.5059  -15.6057   22.2877 C   0  0  2  0  0  0  0  0  0  0  0  0
    7.5253  -15.6146   23.3504 N   0  0  0  0  0  0  0  0  0  0  0  0
    9.8830  -15.4268   22.8033 C   0  0  0  0  0  0  0  0  0  0  0  0
   10.0728  -14.8083   23.8804 O   0  0  0  0  0  0  0  0  0  0  0  0
   12.0687  -17.0198   24.0340 C   0  0  0  0  0  0  0  0  0  0  0  0
   12.3071  -16.1426   22.7975 C   0  0  2  0  0  0  0  0  0  0  0  0
   11.0357  -15.9252   22.1369 N   0  0  0  0  0  0  0  0  0  0  0  0
   13.2992  -16.7867   21.9371 C   0  0  0  0  0  0  0  0  0  0  0  0
   14.4958  -16.8350   22.3069 O   0  0  0  0  0  0  0  0  0  0  0  0
   12.9935  -17.3573   20.7160 O   0  0  0  0  0  0  0  0  0  0  0  0
  2  1  1  1
  3  2  1  0
  4  5  2  0
  4  3  1  0
  6  5  1  0
  7  6  2  0
  8  7  1  0
  8  9  2  0
  9  4  1  0
 10  2  1  0
 10 11  2  0
 13 12  1  1
 13 14  1  0
 15 16  1  1
 15 13  1  0
 16 10  1  0
 17 15  1  0
 18 17  2  0
 20 19  1  1
 20 21  1  0
 21 17  1  0
 22 20  1  0
 22 24  1  0
 23 22  2  0
M  END
$$$$
