FVA.pdb
     RDKit          3D

 24 24  0  0  1  0  0  0  0  0999 V2000
    6.0589  -18.2600   25.5034 N   0  0  0  0  0  0  0  0  0  0  0  0
    6.4425  -16.8818   25.2755 C   0  0  1  0  0  0  0  0  0  0  0  0
    7.1198  -16.3986   26.5413 C   0  0  0  0  0  0  0  0  0  0  0  0
    7.0640  -14.9259   26.6112 C   0  0  0  0  0  0  0  0  0  0  0  0
    5.8526  -14.2787   26.6222 C   0  0  0  0  0  0  0  0  0  0  0  0
    5.7713  -12.8865   26.6878 C   0  0  0  0  0  0  0  0  0  0  0  0
    6.9193  -12.1172   26.7438 C   0  0  0  0  0  0  0  0  0  0  0  0
    8.1308  -12.7661   26.7328 C   0  0  0  0  0  0  0  0  0  0  0  0
    8.1939  -14.1420   26.6677 C   0  0  0  0  0  0  0  0  0  0  0  0
    7.3553  -16.8413   24.1103 C   0  0  0  0  0  0  0  0  0  0  0  0
    8.1293  -17.8046   23.8886 O   0  0  0  0  0  0  0  0  0  0  0  0
    8.4089  -13.2487   22.0609 C   0  0  0  0  0  0  0  0  0  0  0  0
    7.8869  -14.4325   21.2895 C   0  0  2  0  0  0  0  0  0  0  0  0
    6.4037  -14.3406   21.0895 C   0  0  0  0  0  0  0  0  0  0  0  0
    8.2020  -15.7442   21.9884 C   0  0  2  0  0  0  0  0  0  0  0  0
    7.4156  -15.7561   23.2017 N   0  0  0  0  0  0  0  0  0  0  0  0
    9.6552  -15.8156   22.2668 C   0  0  0  0  0  0  0  0  0  0  0  0
   10.4779  -15.7542   21.3191 O   0  0  0  0  0  0  0  0  0  0  0  0
   11.8757  -15.5704   25.2740 C   0  0  0  0  0  0  0  0  0  0  0  0
   11.6107  -16.0711   23.8477 C   0  0  2  0  0  0  0  0  0  0  0  0
   10.1922  -15.9530   23.5760 N   0  0  0  0  0  0  0  0  0  0  0  0
   12.1084  -17.4405   23.7202 C   0  0  0  0  0  0  0  0  0  0  0  0
   13.3158  -17.6808   23.9553 O   0  0  0  0  0  0  0  0  0  0  0  0
   11.3140  -18.5088   23.3490 O   0  0  0  0  0  0  0  0  0  0  0  0
  2  1  1  1
  3  2  1  0
  4  5  2  0
  4  3  1  0
  6  5  1  0
  7  6  2  0
  8  7  1  0
  8  9  2  0
  9  4  1  0
 10  2  1  0
 10 11  2  0
 13 12  1  1
 13 14  1  0
 15 16  1  1
 15 13  1  0
 16 10  1  0
 17 15  1  0
 18 17  2  0
 20 19  1  1
 20 21  1  0
 21 17  1  0
 22 20  1  0
 22 24  1  0
 23 22  2  0
M  END
$$$$
