FVA.pdb
     RDKit          3D

 24 24  0  0  1  0  0  0  0  0999 V2000
    5.7142  -17.7523   25.7240 N   0  0  0  0  0  0  0  0  0  0  0  0
    6.2387  -16.4372   25.4179 C   0  0  1  0  0  0  0  0  0  0  0  0
    6.9364  -15.9401   26.6671 C   0  0  0  0  0  0  0  0  0  0  0  0
    7.0502  -14.4696   26.6288 C   0  0  0  0  0  0  0  0  0  0  0  0
    5.9241  -13.6907   26.5203 C   0  0  0  0  0  0  0  0  0  0  0  0
    6.0033  -12.2973   26.4818 C   0  0  0  0  0  0  0  0  0  0  0  0
    7.2291  -11.6607   26.5525 C   0  0  0  0  0  0  0  0  0  0  0  0
    8.3552  -12.4414   26.6610 C   0  0  0  0  0  0  0  0  0  0  0  0
    8.2597  -13.8164   26.6977 C   0  0  0  0  0  0  0  0  0  0  0  0
    7.1734  -16.5650   24.2767 C   0  0  0  0  0  0  0  0  0  0  0  0
    7.9161  -17.5732   24.1866 O   0  0  0  0  0  0  0  0  0  0  0  0
    6.5497  -14.2429   20.8963 C   0  0  0  0  0  0  0  0  0  0  0  0
    7.9879  -14.4396   21.2987 C   0  0  2  0  0  0  0  0  0  0  0  0
    8.8850  -14.5023   20.0988 C   0  0  0  0  0  0  0  0  0  0  0  0
    8.1771  -15.7083   22.1129 C   0  0  2  0  0  0  0  0  0  0  0  0
    7.2894  -15.5970   23.2489 N   0  0  0  0  0  0  0  0  0  0  0  0
    9.5956  -15.8206   22.5246 C   0  0  0  0  0  0  0  0  0  0  0  0
   10.1256  -14.9040   23.2011 O   0  0  0  0  0  0  0  0  0  0  0  0
   12.1308  -18.5029   22.8721 C   0  0  0  0  0  0  0  0  0  0  0  0
   11.8135  -17.0321   22.5702 C   0  0  2  0  0  0  0  0  0  0  0  0
   10.4179  -16.9319   22.1928 N   0  0  0  0  0  0  0  0  0  0  0  0
   12.7254  -16.5478   21.5343 C   0  0  0  0  0  0  0  0  0  0  0  0
   13.8998  -16.2385   21.8439 O   0  0  0  0  0  0  0  0  0  0  0  0
   12.3657  -16.4069   20.2073 O   0  0  0  0  0  0  0  0  0  0  0  0
  2  1  1  1
  3  2  1  0
  4  5  2  0
  4  3  1  0
  6  5  1  0
  7  6  2  0
  8  7  1  0
  8  9  2  0
  9  4  1  0
 10  2  1  0
 10 11  2  0
 13 12  1  6
 13 14  1  0
 15 16  1  1
 15 13  1  0
 16 10  1  0
 17 15  1  0
 18 17  2  0
 20 19  1  6
 20 21  1  0
 21 17  1  0
 22 20  1  0
 22 24  1  0
 23 22  2  0
M  END
$$$$
