QYK.pdb
     RDKit          3D

 31 31  0  0  1  0  0  0  0  0999 V2000
   28.3077  -23.3452  -19.9261 N   0  0  0  0  0  0  0  0  0  0  0  0
   29.6805  -22.9996  -19.7811 C   0  0  0  0  0  0  0  0  0  0  0  0
   30.3493  -22.8607  -20.8197 O   0  0  0  0  0  0  0  0  0  0  0  0
   30.2011  -22.8306  -18.4225 C   0  0  0  0  0  0  0  0  0  0  0  0
   29.2504  -22.9531  -17.2981 C   0  0  0  0  0  0  0  0  0  0  0  0
   28.0967  -22.0265  -17.2517 C   0  0  2  0  0  0  0  0  0  0  0  0
   28.5269  -20.6568  -17.2784 N   0  0  0  0  0  0  0  0  0  0  0  0
   27.2189  -22.2371  -16.0702 C   0  0  0  0  0  0  0  0  0  0  0  0
   26.7940  -23.3891  -15.8010 O   0  0  0  0  0  0  0  0  0  0  0  0
   23.5246  -20.7763   -8.1269 O   0  0  0  0  0  0  0  0  0  0  0  0
   24.2651  -20.6921   -9.3234 C   0  0  0  0  0  0  0  0  0  0  0  0
   25.4911  -21.3045   -9.4454 C   0  0  0  0  0  0  0  0  0  0  0  0
   26.1865  -21.2010  -10.6294 C   0  0  0  0  0  0  0  0  0  0  0  0
   25.7188  -20.5057  -11.7245 C   0  0  0  0  0  0  0  0  0  0  0  0
   26.4938  -20.4237  -12.9651 C   0  0  0  0  0  0  0  0  0  0  0  0
   25.9640  -21.3502  -14.0526 C   0  0  2  0  0  0  0  0  0  0  0  0
   26.8321  -21.1690  -15.2149 N   0  0  0  0  0  0  0  0  0  0  0  0
   24.5564  -21.1286  -14.3593 C   0  0  0  0  0  0  0  0  0  0  0  0
   24.2332  -20.0454  -14.9543 O   0  0  0  0  0  0  0  0  0  0  0  0
   24.4911  -19.8994  -11.5847 C   0  0  0  0  0  0  0  0  0  0  0  0
   23.7841  -19.9936  -10.4085 C   0  0  0  0  0  0  0  0  0  0  0  0
   23.5304  -22.0281  -14.0462 N   0  0  0  0  0  0  0  0  0  0  0  0
   22.1459  -21.7217  -14.4685 C   0  0  1  0  0  0  0  0  0  0  0  0
   21.4621  -22.9829  -14.8877 C   0  0  0  0  0  0  0  0  0  0  0  0
   20.0724  -22.6948  -15.3771 C   0  0  0  0  0  0  0  0  0  0  0  0
   19.3707  -23.9778  -15.8137 C   0  0  0  0  0  0  0  0  0  0  0  0
   18.0129  -23.5660  -16.3602 C   0  0  0  0  0  0  0  0  0  0  0  0
   17.3447  -24.7784  -16.7824 N   0  0  0  0  0  0  0  0  0  0  0  0
   21.4564  -21.1347  -13.3052 C   0  0  0  0  0  0  0  0  0  0  0  0
   21.7166  -21.5975  -12.1437 O   0  0  0  0  0  0  0  0  0  0  0  0
   20.5319  -20.0999  -13.3584 O   0  0  0  0  0  0  0  0  0  0  0  0
  1  2  1  0
  2  3  2  0
  4  5  1  0
  4  2  1  0
  6  5  1  0
  6  7  1  1
  8  9  2  0
  8  6  1  0
 10 11  1  0
 11 12  2  0
 12 13  1  0
 14 13  2  0
 14 15  1  0
 16 15  1  1
 16 17  1  0
 17  8  1  0
 18 16  1  0
 19 18  2  0
 20 14  1  0
 21 11  1  0
 21 20  2  0
 22 18  1  0
 23 29  1  0
 23 22  1  0
 23 24  1  1
 25 24  1  0
 26 25  1  0
 26 27  1  0
 27 28  1  0
 29 31  1  0
 30 29  2  0
M  END
$$$$
