QYK.pdb
     RDKit          3D

 31 31  0  0  1  0  0  0  0  0999 V2000
   22.6388  -19.0649  -20.8587 N   0  0  0  0  0  0  0  0  0  0  0  0
   21.4530  -18.7390  -20.1426 C   0  0  0  0  0  0  0  0  0  0  0  0
   20.9483  -17.6217  -20.3480 O   0  0  0  0  0  0  0  0  0  0  0  0
   20.9151  -19.7429  -19.2217 C   0  0  0  0  0  0  0  0  0  0  0  0
   21.6096  -21.0442  -19.1359 C   0  0  0  0  0  0  0  0  0  0  0  0
   22.7363  -21.1760  -18.1846 C   0  0  2  0  0  0  0  0  0  0  0  0
   24.0005  -21.1205  -18.8632 N   0  0  0  0  0  0  0  0  0  0  0  0
   22.6767  -22.4177  -17.3689 C   0  0  0  0  0  0  0  0  0  0  0  0
   22.7432  -23.5410  -17.9293 O   0  0  0  0  0  0  0  0  0  0  0  0
   28.6218  -24.2868  -17.2631 O   0  0  0  0  0  0  0  0  0  0  0  0
   27.4415  -24.0795  -16.5208 C   0  0  0  0  0  0  0  0  0  0  0  0
   27.0537  -22.8155  -16.1402 C   0  0  0  0  0  0  0  0  0  0  0  0
   25.8944  -22.6507  -15.4156 C   0  0  0  0  0  0  0  0  0  0  0  0
   25.0804  -23.6985  -15.0400 C   0  0  0  0  0  0  0  0  0  0  0  0
   23.8544  -23.4748  -14.2696 C   0  0  0  0  0  0  0  0  0  0  0  0
   22.5955  -23.5880  -15.1203 C   0  0  2  0  0  0  0  0  0  0  0  0
   22.5451  -22.3875  -15.9534 N   0  0  0  0  0  0  0  0  0  0  0  0
   21.3850  -23.7786  -14.3310 C   0  0  0  0  0  0  0  0  0  0  0  0
   20.9208  -22.7763  -13.6893 O   0  0  0  0  0  0  0  0  0  0  0  0
   25.4835  -24.9555  -15.4291 C   0  0  0  0  0  0  0  0  0  0  0  0
   26.6390  -25.1366  -16.1532 C   0  0  0  0  0  0  0  0  0  0  0  0
   20.6926  -24.9910  -14.2300 N   0  0  0  0  0  0  0  0  0  0  0  0
   19.5930  -25.1166  -13.2482 C   0  0  1  0  0  0  0  0  0  0  0  0
   19.9161  -26.2032  -12.2742 C   0  0  0  0  0  0  0  0  0  0  0  0
   18.7452  -26.4741  -11.3747 C   0  0  0  0  0  0  0  0  0  0  0  0
   19.0234  -27.6638  -10.4601 C   0  0  0  0  0  0  0  0  0  0  0  0
   17.7846  -27.8479   -9.5979 C   0  0  0  0  0  0  0  0  0  0  0  0
   18.0110  -29.0222   -8.7826 N   0  0  0  0  0  0  0  0  0  0  0  0
   19.4862  -23.8240  -12.5474 C   0  0  0  0  0  0  0  0  0  0  0  0
   18.3479  -23.2469  -12.5010 O   0  0  0  0  0  0  0  0  0  0  0  0
   20.5328  -23.1639  -11.9172 O   0  0  0  0  0  0  0  0  0  0  0  0
  1  2  1  0
  2  3  2  0
  4  5  1  0
  4  2  1  0
  6  5  1  0
  6  7  1  6
  8  9  2  0
  8  6  1  0
 10 11  1  0
 11 12  2  0
 12 13  1  0
 14 13  2  0
 14 15  1  0
 16 15  1  1
 16 17  1  0
 17  8  1  0
 18 16  1  0
 19 18  2  0
 20 14  1  0
 21 11  1  0
 21 20  2  0
 22 18  1  0
 23 29  1  0
 23 22  1  0
 23 24  1  1
 25 24  1  0
 26 25  1  0
 26 27  1  0
 27 28  1  0
 29 31  1  0
 30 29  2  0
M  END
$$$$
