QYK.pdb
     RDKit          3D

 31 31  0  0  1  0  0  0  0  0999 V2000
   27.3148  -21.1557  -20.8489 N   0  0  0  0  0  0  0  0  0  0  0  0
   28.4758  -20.3363  -20.7739 C   0  0  0  0  0  0  0  0  0  0  0  0
   29.0922  -20.1176  -21.8311 O   0  0  0  0  0  0  0  0  0  0  0  0
   28.8553  -19.8104  -19.4606 C   0  0  0  0  0  0  0  0  0  0  0  0
   28.0044  -20.1597  -18.3043 C   0  0  0  0  0  0  0  0  0  0  0  0
   28.5502  -21.0869  -17.2873 C   0  0  2  0  0  0  0  0  0  0  0  0
   28.9354  -22.3385  -17.8763 N   0  0  0  0  0  0  0  0  0  0  0  0
   27.6121  -21.3471  -16.1633 C   0  0  0  0  0  0  0  0  0  0  0  0
   26.7451  -22.2516  -16.2656 O   0  0  0  0  0  0  0  0  0  0  0  0
   24.1310  -20.7074   -7.9626 O   0  0  0  0  0  0  0  0  0  0  0  0
   24.9343  -20.5850   -9.1146 C   0  0  0  0  0  0  0  0  0  0  0  0
   24.7688  -19.5354   -9.9885 C   0  0  0  0  0  0  0  0  0  0  0  0
   25.5716  -19.4478  -11.1038 C   0  0  0  0  0  0  0  0  0  0  0  0
   26.5531  -20.3685  -11.4048 C   0  0  0  0  0  0  0  0  0  0  0  0
   27.3849  -20.2337  -12.6034 C   0  0  0  0  0  0  0  0  0  0  0  0
   26.7264  -20.8201  -13.8460 C   0  0  2  0  0  0  0  0  0  0  0  0
   27.6554  -20.6011  -14.9536 N   0  0  0  0  0  0  0  0  0  0  0  0
   25.4004  -20.2730  -14.1048 C   0  0  0  0  0  0  0  0  0  0  0  0
   25.3205  -19.1280  -14.6656 O   0  0  0  0  0  0  0  0  0  0  0  0
   26.7047  -21.4117  -10.5199 C   0  0  0  0  0  0  0  0  0  0  0  0
   25.9105  -21.5131   -9.4013 C   0  0  0  0  0  0  0  0  0  0  0  0
   24.2030  -20.9217  -13.7807 N   0  0  0  0  0  0  0  0  0  0  0  0
   22.9156  -20.2664  -14.1003 C   0  0  1  0  0  0  0  0  0  0  0  0
   22.4223  -20.7556  -15.4236 C   0  0  0  0  0  0  0  0  0  0  0  0
   21.0675  -20.1851  -15.7280 C   0  0  0  0  0  0  0  0  0  0  0  0
   20.5062  -20.7717  -17.0203 C   0  0  0  0  0  0  0  0  0  0  0  0
   19.1671  -20.0926  -17.2600 C   0  0  0  0  0  0  0  0  0  0  0  0
   18.6477  -20.6159  -18.5054 N   0  0  0  0  0  0  0  0  0  0  0  0
   21.9638  -20.6364  -13.0371 C   0  0  0  0  0  0  0  0  0  0  0  0
   22.1057  -21.7649  -12.4562 O   0  0  0  0  0  0  0  0  0  0  0  0
   20.9058  -19.8513  -12.5983 O   0  0  0  0  0  0  0  0  0  0  0  0
  1  2  1  0
  2  3  2  0
  4  5  1  0
  4  2  1  0
  6  5  1  0
  6  7  1  6
  8  9  2  0
  8  6  1  0
 10 11  1  0
 11 12  2  0
 12 13  1  0
 14 13  2  0
 14 15  1  0
 16 15  1  1
 16 17  1  0
 17  8  1  0
 18 16  1  0
 19 18  2  0
 20 14  1  0
 21 11  1  0
 21 20  2  0
 22 18  1  0
 23 29  1  0
 23 22  1  0
 23 24  1  6
 25 24  1  0
 26 25  1  0
 26 27  1  0
 27 28  1  0
 29 31  1  0
 30 29  2  0
M  END
$$$$
