QYK.pdb
     RDKit          3D

 31 31  0  0  1  0  0  0  0  0999 V2000
   28.0632  -27.9695  -17.1593 N   0  0  0  0  0  0  0  0  0  0  0  0
   28.9437  -27.1898  -17.9605 C   0  0  0  0  0  0  0  0  0  0  0  0
   29.5641  -27.7743  -18.8654 O   0  0  0  0  0  0  0  0  0  0  0  0
   29.0509  -25.7598  -17.6620 C   0  0  0  0  0  0  0  0  0  0  0  0
   28.2296  -25.2210  -16.5582 C   0  0  0  0  0  0  0  0  0  0  0  0
   27.1257  -24.2935  -16.8941 C   0  0  2  0  0  0  0  0  0  0  0  0
   27.6279  -23.0486  -17.4039 N   0  0  0  0  0  0  0  0  0  0  0  0
   26.2179  -24.0187  -15.7490 C   0  0  0  0  0  0  0  0  0  0  0  0
   25.5287  -24.9478  -15.2571 O   0  0  0  0  0  0  0  0  0  0  0  0
   22.9616  -20.1261   -8.5033 O   0  0  0  0  0  0  0  0  0  0  0  0
   23.6507  -20.3991   -9.7024 C   0  0  0  0  0  0  0  0  0  0  0  0
   24.7683  -21.2014   -9.7134 C   0  0  0  0  0  0  0  0  0  0  0  0
   25.4162  -21.4463  -10.9035 C   0  0  0  0  0  0  0  0  0  0  0  0
   25.0040  -20.9250  -12.1117 C   0  0  0  0  0  0  0  0  0  0  0  0
   25.7248  -21.2143  -13.3540 C   0  0  0  0  0  0  0  0  0  0  0  0
   25.1515  -22.4114  -14.1023 C   0  0  2  0  0  0  0  0  0  0  0  0
   26.0941  -22.7234  -15.1755 N   0  0  0  0  0  0  0  0  0  0  0  0
   23.7957  -22.1882  -14.5888 C   0  0  0  0  0  0  0  0  0  0  0  0
   23.6268  -21.3475  -15.5357 O   0  0  0  0  0  0  0  0  0  0  0  0
   23.8846  -20.1249  -12.0821 C   0  0  0  0  0  0  0  0  0  0  0  0
   23.2263  -19.8707  -10.9013 C   0  0  0  0  0  0  0  0  0  0  0  0
   22.6615  -22.8375  -14.0873 N   0  0  0  0  0  0  0  0  0  0  0  0
   21.3233  -22.4350  -14.5734 C   0  0  1  0  0  0  0  0  0  0  0  0
   20.5827  -23.6420  -15.0512 C   0  0  0  0  0  0  0  0  0  0  0  0
   19.2217  -23.2625  -15.5583 C   0  0  0  0  0  0  0  0  0  0  0  0
   18.4830  -24.4815  -16.1036 C   0  0  0  0  0  0  0  0  0  0  0  0
   17.1319  -23.9867  -16.5955 C   0  0  0  0  0  0  0  0  0  0  0  0
   16.4558  -25.1243  -17.1813 N   0  0  0  0  0  0  0  0  0  0  0  0
   20.6135  -21.8231  -13.4355 C   0  0  0  0  0  0  0  0  0  0  0  0
   20.9348  -22.1800  -12.2521 O   0  0  0  0  0  0  0  0  0  0  0  0
   19.6072  -20.8714  -13.5352 O   0  0  0  0  0  0  0  0  0  0  0  0
  1  2  1  0
  2  3  2  0
  4  5  1  0
  4  2  1  0
  6  5  1  0
  6  7  1  1
  8  9  2  0
  8  6  1  0
 10 11  1  0
 11 12  2  0
 12 13  1  0
 14 13  2  0
 14 15  1  0
 16 15  1  6
 16 17  1  0
 17  8  1  0
 18 16  1  0
 19 18  2  0
 20 14  1  0
 21 11  1  0
 21 20  2  0
 22 18  1  0
 23 29  1  0
 23 22  1  0
 23 24  1  1
 25 24  1  0
 26 25  1  0
 26 27  1  0
 27 28  1  0
 29 31  1  0
 30 29  2  0
M  END
$$$$
