QYK.pdb
     RDKit          3D

 31 31  0  0  1  0  0  0  0  0999 V2000
   27.0514  -21.6115  -10.4733 N   0  0  0  0  0  0  0  0  0  0  0  0
   28.0515  -21.0944  -11.3436 C   0  0  0  0  0  0  0  0  0  0  0  0
   29.2175  -21.4918  -11.1769 O   0  0  0  0  0  0  0  0  0  0  0  0
   27.6330  -20.1373  -12.3704 C   0  0  0  0  0  0  0  0  0  0  0  0
   26.1992  -19.7888  -12.4468 C   0  0  0  0  0  0  0  0  0  0  0  0
   25.2679  -20.7781  -13.0346 C   0  0  2  0  0  0  0  0  0  0  0  0
   25.6659  -21.1421  -14.3654 N   0  0  0  0  0  0  0  0  0  0  0  0
   23.8551  -20.3151  -13.0596 C   0  0  0  0  0  0  0  0  0  0  0  0
   23.2851  -19.9803  -11.9904 O   0  0  0  0  0  0  0  0  0  0  0  0
   16.1823  -17.3077  -16.4529 O   0  0  0  0  0  0  0  0  0  0  0  0
   17.4935  -17.7925  -16.2716 C   0  0  0  0  0  0  0  0  0  0  0  0
   18.4940  -16.9762  -15.7966 C   0  0  0  0  0  0  0  0  0  0  0  0
   19.7634  -17.4839  -15.6321 C   0  0  0  0  0  0  0  0  0  0  0  0
   20.1003  -18.7895  -15.9208 C   0  0  0  0  0  0  0  0  0  0  0  0
   21.4652  -19.2862  -15.7286 C   0  0  0  0  0  0  0  0  0  0  0  0
   21.7131  -19.7943  -14.3137 C   0  0  2  0  0  0  0  0  0  0  0  0
   23.1068  -20.2336  -14.2660 N   0  0  0  0  0  0  0  0  0  0  0  0
   20.7786  -20.8361  -13.9064 C   0  0  0  0  0  0  0  0  0  0  0  0
   20.9780  -22.0238  -14.3325 O   0  0  0  0  0  0  0  0  0  0  0  0
   19.0874  -19.5916  -16.3949 C   0  0  0  0  0  0  0  0  0  0  0  0
   17.8142  -19.0993  -16.5648 C   0  0  0  0  0  0  0  0  0  0  0  0
   19.6734  -20.6222  -13.0742 N   0  0  0  0  0  0  0  0  0  0  0  0
   18.8625  -21.7798  -12.6365 C   0  0  1  0  0  0  0  0  0  0  0  0
   19.1554  -22.0795  -11.2019 C   0  0  0  0  0  0  0  0  0  0  0  0
   18.2835  -23.1960  -10.7050 C   0  0  0  0  0  0  0  0  0  0  0  0
   18.5789  -23.5088   -9.2408 C   0  0  0  0  0  0  0  0  0  0  0  0
   17.6637  -24.6581   -8.8489 C   0  0  0  0  0  0  0  0  0  0  0  0
   17.9709  -24.9897   -7.4740 N   0  0  0  0  0  0  0  0  0  0  0  0
   17.4462  -21.4035  -12.7961 C   0  0  0  0  0  0  0  0  0  0  0  0
   17.1078  -20.1919  -12.5760 O   0  0  0  0  0  0  0  0  0  0  0  0
   16.4249  -22.2647  -13.1749 O   0  0  0  0  0  0  0  0  0  0  0  0
  1  2  1  0
  2  3  2  0
  4  5  1  0
  4  2  1  0
  6  5  1  0
  6  7  1  6
  8  9  2  0
  8  6  1  0
 10 11  1  0
 11 12  2  0
 12 13  1  0
 14 13  2  0
 14 15  1  0
 16 15  1  6
 16 17  1  0
 17  8  1  0
 18 16  1  0
 19 18  2  0
 20 14  1  0
 21 11  1  0
 21 20  2  0
 22 18  1  0
 23 29  1  0
 23 22  1  0
 23 24  1  1
 25 24  1  0
 26 25  1  0
 26 27  1  0
 27 28  1  0
 29 31  1  0
 30 29  2  0
M  END
$$$$
