QYK.pdb
     RDKit          3D

 31 31  0  0  1  0  0  0  0  0999 V2000
   17.0546  -11.4164  -17.2351 N   0  0  0  0  0  0  0  0  0  0  0  0
   17.0698  -10.8708  -15.9209 C   0  0  0  0  0  0  0  0  0  0  0  0
   16.0510  -10.2703  -15.5378 O   0  0  0  0  0  0  0  0  0  0  0  0
   18.2805  -11.0597  -15.1183 C   0  0  0  0  0  0  0  0  0  0  0  0
   18.9747   -9.8541  -14.6208 C   0  0  0  0  0  0  0  0  0  0  0  0
   19.9193   -9.1646  -15.5285 C   0  0  2  0  0  0  0  0  0  0  0  0
   21.2505   -9.6840  -15.3878 N   0  0  0  0  0  0  0  0  0  0  0  0
   19.9503   -7.6903  -15.3375 C   0  0  0  0  0  0  0  0  0  0  0  0
   18.8864   -7.0250  -15.4121 O   0  0  0  0  0  0  0  0  0  0  0  0
   18.8335   -5.9385   -8.8758 O   0  0  0  0  0  0  0  0  0  0  0  0
   19.6217   -5.7925  -10.0353 C   0  0  0  0  0  0  0  0  0  0  0  0
   20.6347   -6.6781  -10.3227 C   0  0  0  0  0  0  0  0  0  0  0  0
   21.3844   -6.5044  -11.4646 C   0  0  0  0  0  0  0  0  0  0  0  0
   21.1772   -5.4741  -12.3574 C   0  0  0  0  0  0  0  0  0  0  0  0
   21.9998   -5.3297  -13.5611 C   0  0  0  0  0  0  0  0  0  0  0  0
   21.2076   -5.5435  -14.8449 C   0  0  2  0  0  0  0  0  0  0  0  0
   21.1568   -6.9874  -15.0688 N   0  0  0  0  0  0  0  0  0  0  0  0
   21.7526   -4.8145  -15.9834 C   0  0  0  0  0  0  0  0  0  0  0  0
   22.9496   -5.0732  -16.3467 O   0  0  0  0  0  0  0  0  0  0  0  0
   20.1601   -4.5979  -12.0542 C   0  0  0  0  0  0  0  0  0  0  0  0
   19.4023   -4.7579  -10.9174 C   0  0  0  0  0  0  0  0  0  0  0  0
   21.0485   -3.8471  -16.7102 N   0  0  0  0  0  0  0  0  0  0  0  0
   21.6180   -3.3376  -17.9771 C   0  0  1  0  0  0  0  0  0  0  0  0
   21.3670   -4.3261  -19.0696 C   0  0  0  0  0  0  0  0  0  0  0  0
   21.9208   -3.8278  -20.3729 C   0  0  0  0  0  0  0  0  0  0  0  0
   21.6708   -4.8342  -21.4925 C   0  0  0  0  0  0  0  0  0  0  0  0
   22.2894   -4.2465  -22.7511 C   0  0  0  0  0  0  0  0  0  0  0  0
   22.0614   -5.1999  -23.8158 N   0  0  0  0  0  0  0  0  0  0  0  0
   20.9370   -2.0655  -18.2792 C   0  0  0  0  0  0  0  0  0  0  0  0
   19.6935   -1.9593  -18.0082 O   0  0  0  0  0  0  0  0  0  0  0  0
   21.5382   -0.9471  -18.8414 O   0  0  0  0  0  0  0  0  0  0  0  0
  1  2  1  0
  2  3  2  0
  4  5  1  0
  4  2  1  0
  6  5  1  0
  6  7  1  1
  8  9  2  0
  8  6  1  0
 10 11  1  0
 11 12  2  0
 12 13  1  0
 14 13  2  0
 14 15  1  0
 16 15  1  1
 16 17  1  0
 17  8  1  0
 18 16  1  0
 19 18  2  0
 20 14  1  0
 21 11  1  0
 21 20  2  0
 22 18  1  0
 23 29  1  0
 23 22  1  0
 23 24  1  6
 25 24  1  0
 26 25  1  0
 26 27  1  0
 27 28  1  0
 29 31  1  0
 30 29  2  0
M  END
$$$$
