QYK.pdb
     RDKit          3D

 31 31  0  0  1  0  0  0  0  0999 V2000
   25.4387  -23.8887  -14.8955 N   0  0  0  0  0  0  0  0  0  0  0  0
   26.3443  -22.9529  -15.4695 C   0  0  0  0  0  0  0  0  0  0  0  0
   27.1464  -23.3784  -16.3185 O   0  0  0  0  0  0  0  0  0  0  0  0
   26.2619  -21.5611  -15.0206 C   0  0  0  0  0  0  0  0  0  0  0  0
   25.2190  -21.2143  -14.0330 C   0  0  0  0  0  0  0  0  0  0  0  0
   23.8006  -21.3650  -14.4293 C   0  0  2  0  0  0  0  0  0  0  0  0
   23.4678  -20.4902  -15.5181 N   0  0  0  0  0  0  0  0  0  0  0  0
   22.8485  -21.1329  -13.3110 C   0  0  0  0  0  0  0  0  0  0  0  0
   23.1958  -20.4343  -12.3254 O   0  0  0  0  0  0  0  0  0  0  0  0
   17.9571  -19.6810  -17.8109 O   0  0  0  0  0  0  0  0  0  0  0  0
   18.4387  -19.7938  -16.4909 C   0  0  0  0  0  0  0  0  0  0  0  0
   17.9596  -20.7627  -15.6396 C   0  0  0  0  0  0  0  0  0  0  0  0
   18.4532  -20.8432  -14.3566 C   0  0  0  0  0  0  0  0  0  0  0  0
   19.4199  -19.9932  -13.8622 C   0  0  0  0  0  0  0  0  0  0  0  0
   19.9164  -20.1176  -12.4893 C   0  0  0  0  0  0  0  0  0  0  0  0
   20.5813  -21.4624  -12.2232 C   0  0  2  0  0  0  0  0  0  0  0  0
   21.5355  -21.6787  -13.3096 N   0  0  0  0  0  0  0  0  0  0  0  0
   19.6278  -22.5560  -12.0831 C   0  0  0  0  0  0  0  0  0  0  0  0
   19.3873  -23.2799  -13.1078 O   0  0  0  0  0  0  0  0  0  0  0  0
   19.8876  -19.0303  -14.7272 C   0  0  0  0  0  0  0  0  0  0  0  0
   19.4045  -18.9369  -16.0118 C   0  0  0  0  0  0  0  0  0  0  0  0
   18.9563  -22.8690  -10.8954 N   0  0  0  0  0  0  0  0  0  0  0  0
   18.0882  -24.0662  -10.8490 C   0  0  1  0  0  0  0  0  0  0  0  0
   17.9646  -24.5378   -9.4362 C   0  0  0  0  0  0  0  0  0  0  0  0
   17.0995  -25.7623   -9.3599 C   0  0  0  0  0  0  0  0  0  0  0  0
   17.8762  -27.0064   -9.7821 C   0  0  0  0  0  0  0  0  0  0  0  0
   16.9213  -28.1817   -9.6458 C   0  0  0  0  0  0  0  0  0  0  0  0
   17.0292  -28.6547   -8.2822 N   0  0  0  0  0  0  0  0  0  0  0  0
   16.7672  -23.6656  -11.3663 C   0  0  0  0  0  0  0  0  0  0  0  0
   16.4457  -22.4302  -11.3285 O   0  0  0  0  0  0  0  0  0  0  0  0
   15.8212  -24.5276  -11.9051 O   0  0  0  0  0  0  0  0  0  0  0  0
  1  2  1  0
  2  3  2  0
  4  5  1  0
  4  2  1  0
  6  5  1  0
  6  7  1  6
  8  9  2  0
  8  6  1  0
 10 11  1  0
 11 12  2  0
 12 13  1  0
 14 13  2  0
 14 15  1  0
 16 15  1  6
 16 17  1  0
 17  8  1  0
 18 16  1  0
 19 18  2  0
 20 14  1  0
 21 11  1  0
 21 20  2  0
 22 18  1  0
 23 29  1  0
 23 22  1  0
 23 24  1  1
 25 24  1  0
 26 25  1  0
 26 27  1  0
 27 28  1  0
 29 31  1  0
 30 29  2  0
M  END
$$$$
