QYK.pdb
     RDKit          3D

 31 31  0  0  1  0  0  0  0  0999 V2000
   28.5176  -18.1752  -18.7150 N   0  0  0  0  0  0  0  0  0  0  0  0
   28.5489  -18.9574  -19.9034 C   0  0  0  0  0  0  0  0  0  0  0  0
   29.2575  -18.5494  -20.8396 O   0  0  0  0  0  0  0  0  0  0  0  0
   27.7482  -20.1836  -19.9337 C   0  0  0  0  0  0  0  0  0  0  0  0
   27.0638  -20.5927  -18.6898 C   0  0  0  0  0  0  0  0  0  0  0  0
   27.8947  -20.9751  -17.5258 C   0  0  2  0  0  0  0  0  0  0  0  0
   28.6991  -22.1285  -17.8161 N   0  0  0  0  0  0  0  0  0  0  0  0
   27.1015  -21.2332  -16.2949 C   0  0  0  0  0  0  0  0  0  0  0  0
   26.0767  -21.9591  -16.3490 O   0  0  0  0  0  0  0  0  0  0  0  0
   24.7639  -20.4591   -7.6868 O   0  0  0  0  0  0  0  0  0  0  0  0
   25.4489  -20.4399   -8.9187 C   0  0  0  0  0  0  0  0  0  0  0  0
   25.7972  -19.2525   -9.5200 C   0  0  0  0  0  0  0  0  0  0  0  0
   26.4660  -19.2719  -10.7236 C   0  0  0  0  0  0  0  0  0  0  0  0
   26.8156  -20.4347  -11.3773 C   0  0  0  0  0  0  0  0  0  0  0  0
   27.5286  -20.4065  -12.6569 C   0  0  0  0  0  0  0  0  0  0  0  0
   26.6665  -20.8767  -13.8218 C   0  0  2  0  0  0  0  0  0  0  0  0
   27.4607  -20.6827  -15.0340 N   0  0  0  0  0  0  0  0  0  0  0  0
   25.3716  -20.2103  -13.8827 C   0  0  0  0  0  0  0  0  0  0  0  0
   25.3364  -18.9988  -14.2861 O   0  0  0  0  0  0  0  0  0  0  0  0
   26.4593  -21.6128  -10.7615 C   0  0  0  0  0  0  0  0  0  0  0  0
   25.7910  -21.6101   -9.5592 C   0  0  0  0  0  0  0  0  0  0  0  0
   24.1581  -20.8120  -13.5291 N   0  0  0  0  0  0  0  0  0  0  0  0
   22.9140  -20.0124  -13.5735 C   0  0  1  0  0  0  0  0  0  0  0  0
   22.3342  -20.0686  -14.9499 C   0  0  0  0  0  0  0  0  0  0  0  0
   22.2598  -18.6947  -15.5502 C   0  0  0  0  0  0  0  0  0  0  0  0
   22.9712  -18.6495  -16.8996 C   0  0  0  0  0  0  0  0  0  0  0  0
   22.8225  -17.2292  -17.4217 C   0  0  0  0  0  0  0  0  0  0  0  0
   23.4428  -17.1951  -18.7290 N   0  0  0  0  0  0  0  0  0  0  0  0
   21.9777  -20.6110  -12.6050 C   0  0  0  0  0  0  0  0  0  0  0  0
   22.1478  -21.8302  -12.2648 O   0  0  0  0  0  0  0  0  0  0  0  0
   20.9061  -19.9549  -12.0139 O   0  0  0  0  0  0  0  0  0  0  0  0
  1  2  1  0
  2  3  2  0
  4  5  1  0
  4  2  1  0
  6  5  1  0
  6  7  1  6
  8  9  2  0
  8  6  1  0
 10 11  1  0
 11 12  2  0
 12 13  1  0
 14 13  2  0
 14 15  1  0
 16 15  1  1
 16 17  1  0
 17  8  1  0
 18 16  1  0
 19 18  2  0
 20 14  1  0
 21 11  1  0
 21 20  2  0
 22 18  1  0
 23 29  1  0
 23 22  1  0
 23 24  1  6
 25 24  1  0
 26 25  1  0
 26 27  1  0
 27 28  1  0
 29 31  1  0
 30 29  2  0
M  END
$$$$
