MHP.pdb
     RDKit          3D

 26 27  0  0  1  0  0  0  0  0999 V2000
   31.1120  -17.7524  -18.5091 C   0  0  0  0  0  0  0  0  0  0  0  0
   30.0949  -17.5336  -20.0130 S   0  0  0  0  0  0  0  0  0  0  0  0
   28.3717  -17.3235  -19.4260 C   0  0  0  0  0  0  0  0  0  0  0  0
   28.3148  -17.8085  -18.0153 C   0  0  0  0  0  0  0  0  0  0  0  0
   27.3922  -18.9891  -17.8476 C   0  0  2  0  0  0  0  0  0  0  0  0
   26.7697  -19.4127  -19.0610 N   0  0  0  0  0  0  0  0  0  0  0  0
   26.3625  -18.7311  -16.8124 C   0  0  0  0  0  0  0  0  0  0  0  0
   26.2903  -17.6162  -16.2365 O   0  0  0  0  0  0  0  0  0  0  0  0
   25.4384  -19.7514  -16.4574 N   0  0  0  0  0  0  0  0  0  0  0  0
   24.3884  -19.5404  -15.4559 C   0  0  1  0  0  0  0  0  0  0  0  0
   23.0988  -19.2136  -16.1665 C   0  0  0  0  0  0  0  0  0  0  0  0
   21.9977  -19.0272  -15.2222 C   0  0  0  0  0  0  0  0  0  0  0  0
   21.3328  -19.9359  -14.4332 C   0  0  0  0  0  0  0  0  0  0  0  0
   20.3620  -19.3240  -13.7416 N   0  0  0  0  0  0  0  0  0  0  0  0
   20.4019  -18.0299  -14.0831 C   0  0  0  0  0  0  0  0  0  0  0  0
   21.3860  -17.8387  -14.9769 N   0  0  0  0  0  0  0  0  0  0  0  0
   24.2533  -20.6661  -14.5431 C   0  0  0  0  0  0  0  0  0  0  0  0
   23.9280  -21.7815  -15.0884 O   0  0  0  0  0  0  0  0  0  0  0  0
   24.4441  -20.6356  -13.1547 N   0  0  0  0  0  0  0  0  0  0  0  0
   24.7345  -19.5355  -12.2790 C   0  0  0  0  0  0  0  0  0  0  0  0
   24.3846  -20.0982  -10.8886 C   0  0  0  0  0  0  0  0  0  0  0  0
   25.0092  -21.4906  -11.0226 C   0  0  0  0  0  0  0  0  0  0  0  0
   24.3656  -21.8841  -12.3573 C   0  0  1  0  0  0  0  0  0  0  0  0
   22.9318  -22.1381  -12.0937 C   0  0  0  0  0  0  0  0  0  0  0  0
   22.0374  -21.2937  -12.4058 O   0  0  0  0  0  0  0  0  0  0  0  0
   22.4819  -23.3101  -11.4919 O   0  0  0  0  0  0  0  0  0  0  0  0
  2  1  1  0
  3  2  1  0
  4  5  1  0
  4  3  1  0
  5  7  1  0
  5  6  1  6
  7  8  2  0
  9 10  1  0
  9  7  1  0
 11 12  1  0
 10 11  1  6
 12 16  1  0
 13 12  2  0
 13 14  1  0
 14 15  1  0
 16 15  2  0
 17 18  2  0
 17 10  1  0
 19 17  1  0
 20 19  1  0
 20 21  1  0
 22 21  1  0
 23 22  1  0
 23 19  1  0
 23 24  1  1
 25 24  2  0
 26 24  1  0
M  END
$$$$
