MHP.pdb
     RDKit          3D

 26 27  0  0  1  0  0  0  0  0999 V2000
   12.4891   -6.4431  -10.0850 C   0  0  0  0  0  0  0  0  0  0  0  0
   12.5378   -7.9039   -8.9860 S   0  0  0  0  0  0  0  0  0  0  0  0
   12.6831   -9.3579  -10.0918 C   0  0  0  0  0  0  0  0  0  0  0  0
   14.0869   -9.3996  -10.5980 C   0  0  0  0  0  0  0  0  0  0  0  0
   14.3011  -10.4904  -11.6165 C   0  0  2  0  0  0  0  0  0  0  0  0
   14.0412  -11.8037  -11.1196 N   0  0  0  0  0  0  0  0  0  0  0  0
   15.6628  -10.4289  -12.2000 C   0  0  0  0  0  0  0  0  0  0  0  0
   16.6356  -10.9849  -11.6303 O   0  0  0  0  0  0  0  0  0  0  0  0
   15.8838   -9.7343  -13.4205 N   0  0  0  0  0  0  0  0  0  0  0  0
   17.1773   -9.7599  -14.1108 C   0  0  1  0  0  0  0  0  0  0  0  0
   16.9396  -10.0229  -15.5767 C   0  0  0  0  0  0  0  0  0  0  0  0
   18.1975  -10.1057  -16.3182 C   0  0  0  0  0  0  0  0  0  0  0  0
   18.8144   -9.1900  -17.1376 C   0  0  0  0  0  0  0  0  0  0  0  0
   19.9460   -9.7055  -17.6366 N   0  0  0  0  0  0  0  0  0  0  0  0
   20.0567  -10.9447  -17.1416 C   0  0  0  0  0  0  0  0  0  0  0  0
   19.0062  -11.1975  -16.3439 N   0  0  0  0  0  0  0  0  0  0  0  0
   17.9576   -8.5533  -13.8792 C   0  0  0  0  0  0  0  0  0  0  0  0
   17.2789   -7.4680  -13.7847 O   0  0  0  0  0  0  0  0  0  0  0  0
   19.3518   -8.4785  -13.7534 N   0  0  0  0  0  0  0  0  0  0  0  0
   20.3490   -9.5092  -13.8215 C   0  0  0  0  0  0  0  0  0  0  0  0
   21.6511   -8.7168  -14.0431 C   0  0  0  0  0  0  0  0  0  0  0  0
   21.4213   -7.5812  -13.0408 C   0  0  0  0  0  0  0  0  0  0  0  0
   20.0150   -7.1764  -13.4977 C   0  0  1  0  0  0  0  0  0  0  0  0
   20.1576   -6.5007  -14.8065 C   0  0  0  0  0  0  0  0  0  0  0  0
   19.8067   -7.0635  -15.8884 O   0  0  0  0  0  0  0  0  0  0  0  0
   20.6814   -5.2166  -14.9279 O   0  0  0  0  0  0  0  0  0  0  0  0
  2  1  1  0
  3  2  1  0
  4  5  1  0
  4  3  1  0
  5  7  1  0
  5  6  1  1
  7  8  2  0
  9 10  1  0
  9  7  1  0
 11 12  1  0
 10 11  1  6
 12 16  1  0
 13 12  2  0
 13 14  1  0
 14 15  1  0
 16 15  2  0
 17 18  2  0
 17 10  1  0
 19 17  1  0
 20 19  1  0
 20 21  1  0
 22 21  1  0
 23 22  1  0
 23 19  1  0
 23 24  1  6
 25 24  2  0
 26 24  1  0
M  END
$$$$
