MHP.pdb
     RDKit          3D

 26 27  0  0  1  0  0  0  0  0999 V2000
   23.2735  -26.2156  -17.0381 C   0  0  0  0  0  0  0  0  0  0  0  0
   24.7017  -27.2063  -16.4695 S   0  0  0  0  0  0  0  0  0  0  0  0
   26.1290  -26.0572  -16.4418 C   0  0  0  0  0  0  0  0  0  0  0  0
   26.0705  -25.2372  -17.6879 C   0  0  0  0  0  0  0  0  0  0  0  0
   27.2605  -24.3231  -17.8337 C   0  0  2  0  0  0  0  0  0  0  0  0
   28.5143  -25.0063  -17.8573 N   0  0  0  0  0  0  0  0  0  0  0  0
   27.2731  -23.2760  -16.7840 C   0  0  0  0  0  0  0  0  0  0  0  0
   27.9833  -23.4015  -15.7545 O   0  0  0  0  0  0  0  0  0  0  0  0
   26.4746  -22.1092  -16.9325 N   0  0  0  0  0  0  0  0  0  0  0  0
   26.4880  -21.0229  -15.9477 C   0  0  1  0  0  0  0  0  0  0  0  0
   26.1914  -19.7239  -16.6543 C   0  0  0  0  0  0  0  0  0  0  0  0
   26.3937  -18.5747  -15.7727 C   0  0  0  0  0  0  0  0  0  0  0  0
   27.2102  -18.4208  -14.6772 C   0  0  0  0  0  0  0  0  0  0  0  0
   27.0497  -17.1998  -14.1495 N   0  0  0  0  0  0  0  0  0  0  0  0
   26.1360  -16.5718  -14.9004 C   0  0  0  0  0  0  0  0  0  0  0  0
   25.7325  -17.3925  -15.8839 N   0  0  0  0  0  0  0  0  0  0  0  0
   25.5869  -21.2700  -14.8317 C   0  0  0  0  0  0  0  0  0  0  0  0
   24.4480  -21.7727  -15.1442 O   0  0  0  0  0  0  0  0  0  0  0  0
   25.8514  -21.0123  -13.4794 N   0  0  0  0  0  0  0  0  0  0  0  0
   26.9667  -20.3558  -12.8578 C   0  0  0  0  0  0  0  0  0  0  0  0
   26.4337  -20.0256  -11.4509 C   0  0  0  0  0  0  0  0  0  0  0  0
   25.7226  -21.3466  -11.1411 C   0  0  0  0  0  0  0  0  0  0  0  0
   24.8993  -21.4516  -12.4300 C   0  0  1  0  0  0  0  0  0  0  0  0
   23.8362  -20.4250  -12.3551 C   0  0  0  0  0  0  0  0  0  0  0  0
   23.9244  -19.3275  -12.9861 O   0  0  0  0  0  0  0  0  0  0  0  0
   22.6842  -20.6006  -11.5934 O   0  0  0  0  0  0  0  0  0  0  0  0
  2  1  1  0
  3  2  1  0
  4  5  1  0
  4  3  1  0
  5  7  1  0
  5  6  1  1
  7  8  2  0
  9 10  1  0
  9  7  1  0
 11 12  1  0
 10 11  1  6
 12 16  1  0
 13 12  2  0
 13 14  1  0
 14 15  1  0
 16 15  2  0
 17 18  2  0
 17 10  1  0
 19 17  1  0
 20 19  1  0
 20 21  1  0
 22 21  1  0
 23 22  1  0
 23 19  1  0
 23 24  1  1
 25 24  2  0
 26 24  1  0
M  END
$$$$
