MHP.pdb
     RDKit          3D

 26 27  0  0  1  0  0  0  0  0999 V2000
    9.4730  -14.7653  -12.2452 C   0  0  0  0  0  0  0  0  0  0  0  0
   10.7660  -13.8245  -11.3578 S   0  0  0  0  0  0  0  0  0  0  0  0
   11.9681  -13.2971  -12.6365 C   0  0  0  0  0  0  0  0  0  0  0  0
   13.0947  -12.6099  -11.9385 C   0  0  0  0  0  0  0  0  0  0  0  0
   14.1308  -12.0806  -12.8974 C   0  0  2  0  0  0  0  0  0  0  0  0
   14.9802  -13.0896  -13.4448 N   0  0  0  0  0  0  0  0  0  0  0  0
   14.9486  -11.0105  -12.2772 C   0  0  0  0  0  0  0  0  0  0  0  0
   15.9072  -11.2903  -11.5138 O   0  0  0  0  0  0  0  0  0  0  0  0
   14.6540   -9.6453  -12.5420 N   0  0  0  0  0  0  0  0  0  0  0  0
   15.4593   -8.5511  -11.9902 C   0  0  1  0  0  0  0  0  0  0  0  0
   16.1955   -7.8737  -13.1189 C   0  0  0  0  0  0  0  0  0  0  0  0
   17.3674   -8.6437  -13.5343 C   0  0  0  0  0  0  0  0  0  0  0  0
   17.9097   -9.7960  -13.0162 C   0  0  0  0  0  0  0  0  0  0  0  0
   19.0127  -10.1343  -13.6976 N   0  0  0  0  0  0  0  0  0  0  0  0
   19.1791   -9.2058  -14.6480 C   0  0  0  0  0  0  0  0  0  0  0  0
   18.1912   -8.3003  -14.5591 N   0  0  0  0  0  0  0  0  0  0  0  0
   14.6681   -7.6189  -11.2005 C   0  0  0  0  0  0  0  0  0  0  0  0
   13.6152   -7.1644  -11.7768 O   0  0  0  0  0  0  0  0  0  0  0  0
   14.9516   -7.1873   -9.8973 N   0  0  0  0  0  0  0  0  0  0  0  0
   16.0202   -7.5485   -9.0090 C   0  0  0  0  0  0  0  0  0  0  0  0
   15.9936   -6.4214   -7.9595 C   0  0  0  0  0  0  0  0  0  0  0  0
   14.4799   -6.3175   -7.7486 C   0  0  0  0  0  0  0  0  0  0  0  0
   14.0677   -6.2064   -9.2211 C   0  0  1  0  0  0  0  0  0  0  0  0
   14.4759   -4.8634   -9.6896 C   0  0  0  0  0  0  0  0  0  0  0  0
   15.5068   -4.6942  -10.4101 O   0  0  0  0  0  0  0  0  0  0  0  0
   13.7585   -3.7139   -9.3703 O   0  0  0  0  0  0  0  0  0  0  0  0
  2  1  1  0
  3  2  1  0
  4  5  1  0
  4  3  1  0
  5  7  1  0
  5  6  1  1
  7  8  2  0
  9 10  1  0
  9  7  1  0
 11 12  1  0
 10 11  1  6
 12 16  1  0
 13 12  2  0
 13 14  1  0
 14 15  1  0
 16 15  2  0
 17 18  2  0
 17 10  1  0
 19 17  1  0
 20 19  1  0
 20 21  1  0
 22 21  1  0
 23 22  1  0
 23 19  1  0
 23 24  1  6
 25 24  2  0
 26 24  1  0
M  END
$$$$
