MHP.pdb
     RDKit          3D

 26 27  0  0  1  0  0  0  0  0999 V2000
   10.3714  -12.3066   -9.7621 C   0  0  0  0  0  0  0  0  0  0  0  0
   11.7313  -11.1298   -9.4305 S   0  0  0  0  0  0  0  0  0  0  0  0
   13.0008  -11.4578  -10.7108 C   0  0  0  0  0  0  0  0  0  0  0  0
   14.1614  -10.5607  -10.4336 C   0  0  0  0  0  0  0  0  0  0  0  0
   15.2725  -10.7269  -11.4390 C   0  0  2  0  0  0  0  0  0  0  0  0
   15.7835  -12.0579  -11.5204 N   0  0  0  0  0  0  0  0  0  0  0  0
   16.3795   -9.7730  -11.1880 C   0  0  0  0  0  0  0  0  0  0  0  0
   16.9765   -9.7525  -10.0821 O   0  0  0  0  0  0  0  0  0  0  0  0
   16.7802   -8.8637  -12.2047 N   0  0  0  0  0  0  0  0  0  0  0  0
   17.8120   -7.8462  -11.9803 C   0  0  1  0  0  0  0  0  0  0  0  0
   18.8577   -7.9695  -13.0601 C   0  0  0  0  0  0  0  0  0  0  0  0
   19.9334   -6.9952  -12.8795 C   0  0  0  0  0  0  0  0  0  0  0  0
   21.0438   -7.0291  -12.0694 C   0  0  0  0  0  0  0  0  0  0  0  0
   21.7476   -5.8968  -12.2029 N   0  0  0  0  0  0  0  0  0  0  0  0
   21.0946   -5.1392  -13.0931 C   0  0  0  0  0  0  0  0  0  0  0  0
   19.9971   -5.7924  -13.5088 N   0  0  0  0  0  0  0  0  0  0  0  0
   17.2601   -6.5025  -11.8881 C   0  0  0  0  0  0  0  0  0  0  0  0
   16.4903   -6.1557  -12.8548 O   0  0  0  0  0  0  0  0  0  0  0  0
   17.4922   -5.5795  -10.8590 N   0  0  0  0  0  0  0  0  0  0  0  0
   18.3027   -5.6856   -9.6787 C   0  0  0  0  0  0  0  0  0  0  0  0
   18.4631   -4.2192   -9.2359 C   0  0  0  0  0  0  0  0  0  0  0  0
   17.0236   -3.7396   -9.4478 C   0  0  0  0  0  0  0  0  0  0  0  0
   16.8401   -4.2472  -10.8827 C   0  0  1  0  0  0  0  0  0  0  0  0
   17.6586   -3.3820  -11.7610 C   0  0  0  0  0  0  0  0  0  0  0  0
   18.7609   -3.7799  -12.2480 O   0  0  0  0  0  0  0  0  0  0  0  0
   17.2711   -2.0893  -12.1029 O   0  0  0  0  0  0  0  0  0  0  0  0
  2  1  1  0
  3  2  1  0
  4  5  1  0
  4  3  1  0
  5  7  1  0
  5  6  1  1
  7  8  2  0
  9 10  1  0
  9  7  1  0
 11 12  1  0
 10 11  1  6
 12 16  1  0
 13 12  2  0
 13 14  1  0
 14 15  1  0
 16 15  2  0
 17 18  2  0
 17 10  1  0
 19 17  1  0
 20 19  1  0
 20 21  1  0
 22 21  1  0
 23 22  1  0
 23 19  1  0
 23 24  1  6
 25 24  2  0
 26 24  1  0
M  END
$$$$
