MHP.pdb
     RDKit          3D

 26 27  0  0  1  0  0  0  0  0999 V2000
   14.8184  -13.6497  -20.9004 C   0  0  0  0  0  0  0  0  0  0  0  0
   15.8540  -13.1691  -19.4718 S   0  0  0  0  0  0  0  0  0  0  0  0
   17.4997  -13.9172  -19.7721 C   0  0  0  0  0  0  0  0  0  0  0  0
   18.4254  -13.4053  -18.7186 C   0  0  0  0  0  0  0  0  0  0  0  0
   19.7935  -14.0341  -18.7972 C   0  0  2  0  0  0  0  0  0  0  0  0
   19.7943  -15.4449  -18.5761 N   0  0  0  0  0  0  0  0  0  0  0  0
   20.7481  -13.3752  -17.8736 C   0  0  0  0  0  0  0  0  0  0  0  0
   20.8052  -13.7030  -16.6615 O   0  0  0  0  0  0  0  0  0  0  0  0
   21.6159  -12.3568  -18.3540 N   0  0  0  0  0  0  0  0  0  0  0  0
   22.5077  -11.6065  -17.4641 C   0  0  1  0  0  0  0  0  0  0  0  0
   23.8130  -11.3621  -18.1789 C   0  0  0  0  0  0  0  0  0  0  0  0
   24.7793  -10.6840  -17.3155 C   0  0  0  0  0  0  0  0  0  0  0  0
   25.2931  -11.0450  -16.0923 C   0  0  0  0  0  0  0  0  0  0  0  0
   26.1322  -10.1002  -15.6468 N   0  0  0  0  0  0  0  0  0  0  0  0
   26.1583   -9.1375  -16.5771 C   0  0  0  0  0  0  0  0  0  0  0  0
   25.3449   -9.4792  -17.5898 N   0  0  0  0  0  0  0  0  0  0  0  0
   21.9014  -10.3778  -16.9728 C   0  0  0  0  0  0  0  0  0  0  0  0
   21.3281   -9.6523  -17.8630 O   0  0  0  0  0  0  0  0  0  0  0  0
   21.8907   -9.9319  -15.6439 N   0  0  0  0  0  0  0  0  0  0  0  0
   22.3935  -10.5513  -14.4502 C   0  0  0  0  0  0  0  0  0  0  0  0
   22.4601   -9.3789  -13.4536 C   0  0  0  0  0  0  0  0  0  0  0  0
   21.1191   -8.7098  -13.7712 C   0  0  0  0  0  0  0  0  0  0  0  0
   21.2789   -8.6266  -15.2936 C   0  0  1  0  0  0  0  0  0  0  0  0
   22.2940   -7.5862  -15.5709 C   0  0  0  0  0  0  0  0  0  0  0  0
   23.4782   -7.8859  -15.9149 O   0  0  0  0  0  0  0  0  0  0  0  0
   22.0125   -6.2264  -15.4715 O   0  0  0  0  0  0  0  0  0  0  0  0
  2  1  1  0
  3  2  1  0
  4  5  1  0
  4  3  1  0
  5  7  1  0
  5  6  1  1
  7  8  2  0
  9 10  1  0
  9  7  1  0
 11 12  1  0
 10 11  1  6
 12 16  1  0
 13 12  2  0
 13 14  1  0
 14 15  1  0
 16 15  2  0
 17 18  2  0
 17 10  1  0
 19 17  1  0
 20 19  1  0
 20 21  1  0
 22 21  1  0
 23 22  1  0
 23 19  1  0
 23 24  1  1
 25 24  2  0
 26 24  1  0
M  END
$$$$
