GKP.pdb
     RDKit          3D

 21 21  0  0  1  0  0  0  0  0999 V2000
   19.4878  -20.0755  -13.6555 N   0  0  0  0  0  0  0  0  0  0  0  0
   20.2474  -19.4911  -14.7153 C   0  0  0  0  0  0  0  0  0  0  0  0
   21.7043  -19.4342  -14.4411 C   0  0  0  0  0  0  0  0  0  0  0  0
   22.1206  -18.4299  -13.8067 O   0  0  0  0  0  0  0  0  0  0  0  0
   22.6087  -20.4703  -14.8740 N   0  0  0  0  0  0  0  0  0  0  0  0
   23.9837  -20.3094  -14.6120 C   0  0  1  0  0  0  0  0  0  0  0  0
   24.5561  -21.6890  -14.2571 C   0  0  0  0  0  0  0  0  0  0  0  0
   25.9505  -21.5907  -13.7306 C   0  0  0  0  0  0  0  0  0  0  0  0
   25.8735  -21.2500  -12.2591 C   0  0  0  0  0  0  0  0  0  0  0  0
   27.2115  -21.0100  -11.6352 C   0  0  0  0  0  0  0  0  0  0  0  0
   26.9621  -20.7154  -10.2149 N   0  0  0  0  0  0  0  0  0  0  0  0
   24.8119  -19.6136  -15.5899 C   0  0  0  0  0  0  0  0  0  0  0  0
   24.6923  -20.0872  -16.7845 O   0  0  0  0  0  0  0  0  0  0  0  0
   25.6945  -18.5394  -15.4274 N   0  0  0  0  0  0  0  0  0  0  0  0
   25.9034  -17.7931  -14.2110 C   0  0  0  0  0  0  0  0  0  0  0  0
   26.7228  -16.5655  -14.5898 C   0  0  0  0  0  0  0  0  0  0  0  0
   27.5504  -17.0789  -15.7327 C   0  0  0  0  0  0  0  0  0  0  0  0
   26.5335  -17.9796  -16.4536 C   0  0  1  0  0  0  0  0  0  0  0  0
   27.2585  -18.9900  -17.2627 C   0  0  0  0  0  0  0  0  0  0  0  0
   27.5658  -18.9208  -18.4516 O   0  0  0  0  0  0  0  0  0  0  0  0
   27.6288  -20.1529  -16.5753 O   0  0  0  0  0  0  0  0  0  0  0  0
  2  1  1  0
  3  2  1  0
  4  3  2  0
  5  3  1  0
  6 12  1  0
  6  5  1  0
  6  7  1  6
  8  7  1  0
  9  8  1  0
 10  9  1  0
 11 10  1  0
 12 14  1  0
 13 12  2  0
 14 18  1  0
 14 15  1  0
 15 16  1  0
 17 16  1  0
 18 17  1  0
 19 21  1  0
 18 19  1  1
 20 19  2  0
M  END
$$$$
