GKP.pdb
     RDKit          3D

 21 21  0  0  1  0  0  0  0  0999 V2000
   27.2066  -15.7709  -15.9010 N   0  0  0  0  0  0  0  0  0  0  0  0
   26.4866  -14.9791  -14.9542 C   0  0  0  0  0  0  0  0  0  0  0  0
   25.3353  -14.2510  -15.5417 C   0  0  0  0  0  0  0  0  0  0  0  0
   25.2738  -14.2118  -16.7983 O   0  0  0  0  0  0  0  0  0  0  0  0
   24.3305  -13.6158  -14.7258 N   0  0  0  0  0  0  0  0  0  0  0  0
   23.2985  -12.9047  -15.3694 C   0  0  1  0  0  0  0  0  0  0  0  0
   21.9964  -13.6951  -15.1774 C   0  0  0  0  0  0  0  0  0  0  0  0
   22.0468  -15.0197  -15.8658 C   0  0  0  0  0  0  0  0  0  0  0  0
   20.7034  -15.6918  -15.6891 C   0  0  0  0  0  0  0  0  0  0  0  0
   20.6139  -17.0244  -16.3623 C   0  0  0  0  0  0  0  0  0  0  0  0
   19.3356  -17.6194  -15.9402 N   0  0  0  0  0  0  0  0  0  0  0  0
   23.1229  -11.4886  -15.0686 C   0  0  0  0  0  0  0  0  0  0  0  0
   23.1744  -11.2282  -13.8056 O   0  0  0  0  0  0  0  0  0  0  0  0
   22.9104  -10.4014  -15.9241 N   0  0  0  0  0  0  0  0  0  0  0  0
   22.9391  -10.4414  -17.3656 C   0  0  0  0  0  0  0  0  0  0  0  0
   22.9398   -8.9934  -17.8404 C   0  0  0  0  0  0  0  0  0  0  0  0
   22.1470   -8.3083  -16.7649 C   0  0  0  0  0  0  0  0  0  0  0  0
   22.6457   -9.0483  -15.5124 C   0  0  1  0  0  0  0  0  0  0  0  0
   21.6325   -8.9292  -14.4350 C   0  0  0  0  0  0  0  0  0  0  0  0
   20.7551   -9.7376  -14.1361 O   0  0  0  0  0  0  0  0  0  0  0  0
   21.6981   -7.7514  -13.6799 O   0  0  0  0  0  0  0  0  0  0  0  0
  2  1  1  0
  3  2  1  0
  4  3  2  0
  5  3  1  0
  6 12  1  0
  6  5  1  0
  6  7  1  1
  8  7  1  0
  9  8  1  0
 10  9  1  0
 11 10  1  0
 12 14  1  0
 13 12  2  0
 14 18  1  0
 14 15  1  0
 15 16  1  0
 17 16  1  0
 18 17  1  0
 19 21  1  0
 18 19  1  1
 20 19  2  0
M  END
$$$$
