GKP.pdb
     RDKit          3D

 21 21  0  0  1  0  0  0  0  0999 V2000
   24.8346  -12.1406  -17.0233 N   0  0  0  0  0  0  0  0  0  0  0  0
   24.6920  -11.2564  -15.9100 C   0  0  0  0  0  0  0  0  0  0  0  0
   23.6749  -10.1967  -16.1189 C   0  0  0  0  0  0  0  0  0  0  0  0
   23.6268   -9.6786  -17.2651 O   0  0  0  0  0  0  0  0  0  0  0  0
   22.7807   -9.7725  -15.0705 N   0  0  0  0  0  0  0  0  0  0  0  0
   21.8360   -8.7691  -15.3634 C   0  0  1  0  0  0  0  0  0  0  0  0
   20.4751   -9.2390  -14.8303 C   0  0  0  0  0  0  0  0  0  0  0  0
   19.9043  -10.3390  -15.6640 C   0  0  0  0  0  0  0  0  0  0  0  0
   18.5231  -10.6589  -15.1370 C   0  0  0  0  0  0  0  0  0  0  0  0
   17.7777  -11.6403  -15.9845 C   0  0  0  0  0  0  0  0  0  0  0  0
   16.4494  -11.7967  -15.3702 N   0  0  0  0  0  0  0  0  0  0  0  0
   22.1246   -7.3931  -14.9763 C   0  0  0  0  0  0  0  0  0  0  0  0
   22.5168   -7.2824  -13.7517 O   0  0  0  0  0  0  0  0  0  0  0  0
   22.0389   -6.2080  -15.7161 N   0  0  0  0  0  0  0  0  0  0  0  0
   21.7401   -6.1096  -17.1237 C   0  0  0  0  0  0  0  0  0  0  0  0
   22.0366   -4.6715  -17.5311 C   0  0  0  0  0  0  0  0  0  0  0  0
   21.7184   -3.9151  -16.2736 C   0  0  0  0  0  0  0  0  0  0  0  0
   22.2544   -4.8809  -15.2035 C   0  0  1  0  0  0  0  0  0  0  0  0
   21.5741   -4.6112  -13.9129 C   0  0  0  0  0  0  0  0  0  0  0  0
   20.6624   -5.2542  -13.3953 O   0  0  0  0  0  0  0  0  0  0  0  0
   22.0377   -3.4883  -13.2156 O   0  0  0  0  0  0  0  0  0  0  0  0
  2  1  1  0
  3  2  1  0
  4  3  2  0
  5  3  1  0
  6 12  1  0
  6  5  1  0
  6  7  1  1
  8  7  1  0
  9  8  1  0
 10  9  1  0
 11 10  1  0
 12 14  1  0
 13 12  2  0
 14 18  1  0
 14 15  1  0
 15 16  1  0
 17 16  1  0
 18 17  1  0
 19 21  1  0
 18 19  1  1
 20 19  2  0
M  END
$$$$
