GKP.pdb
     RDKit          3D

 21 21  0  0  1  0  0  0  0  0999 V2000
   28.7935  -22.3530  -17.1347 N   0  0  0  0  0  0  0  0  0  0  0  0
   27.8353  -23.0063  -16.3001 C   0  0  0  0  0  0  0  0  0  0  0  0
   26.9921  -22.0697  -15.5173 C   0  0  0  0  0  0  0  0  0  0  0  0
   27.5505  -21.0217  -15.0999 O   0  0  0  0  0  0  0  0  0  0  0  0
   25.6019  -22.3345  -15.2416 N   0  0  0  0  0  0  0  0  0  0  0  0
   24.8781  -21.3891  -14.4884 C   0  0  1  0  0  0  0  0  0  0  0  0
   23.6393  -20.9919  -15.3036 C   0  0  0  0  0  0  0  0  0  0  0  0
   22.8424  -19.9311  -14.6176 C   0  0  0  0  0  0  0  0  0  0  0  0
   21.5866  -19.6912  -15.4257 C   0  0  0  0  0  0  0  0  0  0  0  0
   20.6777  -18.6695  -14.8197 C   0  0  0  0  0  0  0  0  0  0  0  0
   19.5074  -18.5744  -15.7071 N   0  0  0  0  0  0  0  0  0  0  0  0
   24.5403  -21.6986  -13.1040 C   0  0  0  0  0  0  0  0  0  0  0  0
   23.7481  -22.7111  -12.9895 O   0  0  0  0  0  0  0  0  0  0  0  0
   24.9357  -21.0751  -11.9149 N   0  0  0  0  0  0  0  0  0  0  0  0
   25.9880  -20.0977  -11.7820 C   0  0  0  0  0  0  0  0  0  0  0  0
   26.2375  -19.9286  -10.2883 C   0  0  0  0  0  0  0  0  0  0  0  0
   24.8741  -20.1766   -9.7104 C   0  0  0  0  0  0  0  0  0  0  0  0
   24.3728  -21.3166  -10.6129 C   0  0  1  0  0  0  0  0  0  0  0  0
   22.8896  -21.3465  -10.5891 C   0  0  0  0  0  0  0  0  0  0  0  0
   22.1163  -20.9637  -11.4655 O   0  0  0  0  0  0  0  0  0  0  0  0
   22.3207  -21.8761   -9.4240 O   0  0  0  0  0  0  0  0  0  0  0  0
  2  1  1  0
  3  2  1  0
  4  3  2  0
  5  3  1  0
  6 12  1  0
  6  5  1  0
  6  7  1  6
  8  7  1  0
  9  8  1  0
 10  9  1  0
 11 10  1  0
 12 14  1  0
 13 12  2  0
 14 18  1  0
 14 15  1  0
 15 16  1  0
 17 16  1  0
 18 17  1  0
 19 21  1  0
 18 19  1  6
 20 19  2  0
M  END
$$$$
