GKP.pdb
     RDKit          3D

 21 21  0  0  1  0  0  0  0  0999 V2000
   21.4823  -21.2718  -14.1498 N   0  0  0  0  0  0  0  0  0  0  0  0
   21.3053  -19.8761  -13.9001 C   0  0  0  0  0  0  0  0  0  0  0  0
   22.1687  -19.0082  -14.7382 C   0  0  0  0  0  0  0  0  0  0  0  0
   23.3615  -19.3793  -14.8929 O   0  0  0  0  0  0  0  0  0  0  0  0
   21.6787  -17.7982  -15.3502 N   0  0  0  0  0  0  0  0  0  0  0  0
   22.5232  -17.1131  -16.2460 C   0  0  1  0  0  0  0  0  0  0  0  0
   21.7050  -16.7888  -17.5039 C   0  0  0  0  0  0  0  0  0  0  0  0
   21.5005  -17.9974  -18.3575 C   0  0  0  0  0  0  0  0  0  0  0  0
   20.1003  -18.5139  -18.1119 C   0  0  0  0  0  0  0  0  0  0  0  0
   19.7385  -19.6802  -18.9756 C   0  0  0  0  0  0  0  0  0  0  0  0
   19.2674  -20.7396  -18.0690 N   0  0  0  0  0  0  0  0  0  0  0  0
   23.2665  -15.9530  -15.7683 C   0  0  0  0  0  0  0  0  0  0  0  0
   22.5261  -15.0958  -15.1498 O   0  0  0  0  0  0  0  0  0  0  0  0
   24.6262  -15.6403  -15.8809 N   0  0  0  0  0  0  0  0  0  0  0  0
   25.6447  -16.4889  -16.4490 C   0  0  0  0  0  0  0  0  0  0  0  0
   26.9847  -15.8551  -16.0957 C   0  0  0  0  0  0  0  0  0  0  0  0
   26.6456  -14.3927  -16.0711 C   0  0  0  0  0  0  0  0  0  0  0  0
   25.2479  -14.4235  -15.4301 C   0  0  1  0  0  0  0  0  0  0  0  0
   24.5096  -13.1913  -15.8012 C   0  0  0  0  0  0  0  0  0  0  0  0
   23.7517  -13.0284  -16.7561 O   0  0  0  0  0  0  0  0  0  0  0  0
   24.7112  -12.0949  -14.9532 O   0  0  0  0  0  0  0  0  0  0  0  0
  2  1  1  0
  3  2  1  0
  4  3  2  0
  5  3  1  0
  6 12  1  0
  6  5  1  0
  6  7  1  6
  8  7  1  0
  9  8  1  0
 10  9  1  0
 11 10  1  0
 12 14  1  0
 13 12  2  0
 14 18  1  0
 14 15  1  0
 15 16  1  0
 17 16  1  0
 18 17  1  0
 19 21  1  0
 18 19  1  6
 20 19  2  0
M  END
$$$$
