GKP.pdb
     RDKit          3D

 21 21  0  0  1  0  0  0  0  0999 V2000
   19.0945  -19.6984  -13.0521 N   0  0  0  0  0  0  0  0  0  0  0  0
   20.0772  -19.8697  -12.0290 C   0  0  0  0  0  0  0  0  0  0  0  0
   21.3218  -20.5230  -12.5037 C   0  0  0  0  0  0  0  0  0  0  0  0
   22.1773  -20.8122  -11.6269 O   0  0  0  0  0  0  0  0  0  0  0  0
   21.5522  -20.8174  -13.8962 N   0  0  0  0  0  0  0  0  0  0  0  0
   22.7660  -21.4353  -14.2566 C   0  0  1  0  0  0  0  0  0  0  0  0
   22.5637  -22.0987  -15.6262 C   0  0  0  0  0  0  0  0  0  0  0  0
   23.7760  -22.8569  -16.0581 C   0  0  0  0  0  0  0  0  0  0  0  0
   23.6080  -24.2964  -15.6256 C   0  0  0  0  0  0  0  0  0  0  0  0
   24.7527  -25.1727  -16.0243 C   0  0  0  0  0  0  0  0  0  0  0  0
   24.3909  -26.5407  -15.6189 N   0  0  0  0  0  0  0  0  0  0  0  0
   23.9969  -20.6550  -14.2082 C   0  0  0  0  0  0  0  0  0  0  0  0
   23.9319  -19.5622  -14.8917 O   0  0  0  0  0  0  0  0  0  0  0  0
   25.2054  -20.9111  -13.5500 N   0  0  0  0  0  0  0  0  0  0  0  0
   25.4338  -21.9492  -12.5751 C   0  0  0  0  0  0  0  0  0  0  0  0
   26.7886  -21.6589  -11.9409 C   0  0  0  0  0  0  0  0  0  0  0  0
   27.5362  -21.0163  -13.0734 C   0  0  0  0  0  0  0  0  0  0  0  0
   26.4264  -20.1685  -13.7175 C   0  0  1  0  0  0  0  0  0  0  0  0
   26.7783  -19.8906  -15.1318 C   0  0  0  0  0  0  0  0  0  0  0  0
   26.3086  -20.4156  -16.1400 O   0  0  0  0  0  0  0  0  0  0  0  0
   27.7628  -18.9127  -15.3222 O   0  0  0  0  0  0  0  0  0  0  0  0
  2  1  1  0
  3  2  1  0
  4  3  2  0
  5  3  1  0
  6 12  1  0
  6  5  1  0
  6  7  1  6
  8  7  1  0
  9  8  1  0
 10  9  1  0
 11 10  1  0
 12 14  1  0
 13 12  2  0
 14 18  1  0
 14 15  1  0
 15 16  1  0
 17 16  1  0
 18 17  1  0
 19 21  1  0
 18 19  1  6
 20 19  2  0
M  END
$$$$
