GKP.pdb
     RDKit          3D

 21 21  0  0  1  0  0  0  0  0999 V2000
   19.0335  -14.2103  -16.3578 N   0  0  0  0  0  0  0  0  0  0  0  0
   19.4134  -12.8482  -16.5627 C   0  0  0  0  0  0  0  0  0  0  0  0
   20.8817  -12.6422  -16.6157 C   0  0  0  0  0  0  0  0  0  0  0  0
   21.5586  -13.1636  -15.6914 O   0  0  0  0  0  0  0  0  0  0  0  0
   21.5139  -11.8850  -17.6672 N   0  0  0  0  0  0  0  0  0  0  0  0
   22.9163  -11.7513  -17.6440 C   0  0  1  0  0  0  0  0  0  0  0  0
   23.4290  -11.9589  -19.0761 C   0  0  0  0  0  0  0  0  0  0  0  0
   23.3071  -13.3842  -19.5062 C   0  0  0  0  0  0  0  0  0  0  0  0
   23.7813  -13.4842  -20.9389 C   0  0  0  0  0  0  0  0  0  0  0  0
   23.6490  -14.8591  -21.5126 C   0  0  0  0  0  0  0  0  0  0  0  0
   24.1770  -14.7906  -22.8848 N   0  0  0  0  0  0  0  0  0  0  0  0
   23.5026  -10.5689  -17.0239 C   0  0  0  0  0  0  0  0  0  0  0  0
   22.8062   -9.4989  -17.2134 O   0  0  0  0  0  0  0  0  0  0  0  0
   24.6776  -10.4274  -16.2766 N   0  0  0  0  0  0  0  0  0  0  0  0
   25.5551  -11.4974  -15.8700 C   0  0  0  0  0  0  0  0  0  0  0  0
   26.5224  -10.9032  -14.8534 C   0  0  0  0  0  0  0  0  0  0  0  0
   26.6487   -9.4848  -15.3295 C   0  0  0  0  0  0  0  0  0  0  0  0
   25.2040   -9.1893  -15.7663 C   0  0  1  0  0  0  0  0  0  0  0  0
   25.2054   -8.0792  -16.7507 C   0  0  0  0  0  0  0  0  0  0  0  0
   25.2202   -8.1629  -17.9776 O   0  0  0  0  0  0  0  0  0  0  0  0
   25.1877   -6.7914  -16.1999 O   0  0  0  0  0  0  0  0  0  0  0  0
  2  1  1  0
  3  2  1  0
  4  3  2  0
  5  3  1  0
  6 12  1  0
  6  5  1  0
  6  7  1  6
  8  7  1  0
  9  8  1  0
 10  9  1  0
 11 10  1  0
 12 14  1  0
 13 12  2  0
 14 18  1  0
 14 15  1  0
 15 16  1  0
 17 16  1  0
 18 17  1  0
 19 21  1  0
 18 19  1  6
 20 19  2  0
M  END
$$$$
