GKP.pdb
     RDKit          3D

 21 21  0  0  1  0  0  0  0  0999 V2000
   20.5715  -20.2002  -13.1786 N   0  0  0  0  0  0  0  0  0  0  0  0
   21.4019  -20.2056  -14.3415 C   0  0  0  0  0  0  0  0  0  0  0  0
   22.8388  -19.9831  -14.0469 C   0  0  0  0  0  0  0  0  0  0  0  0
   23.2530  -18.7967  -14.1203 O   0  0  0  0  0  0  0  0  0  0  0  0
   23.7267  -21.0625  -13.6931 N   0  0  0  0  0  0  0  0  0  0  0  0
   25.0935  -20.7717  -13.5128 C   0  0  1  0  0  0  0  0  0  0  0  0
   25.6272  -21.6994  -12.4122 C   0  0  0  0  0  0  0  0  0  0  0  0
   25.5210  -21.0724  -11.0606 C   0  0  0  0  0  0  0  0  0  0  0  0
   24.0682  -21.1047  -10.6412 C   0  0  0  0  0  0  0  0  0  0  0  0
   23.8156  -20.4376   -9.3265 C   0  0  0  0  0  0  0  0  0  0  0  0
   22.3823  -20.6110   -9.0400 N   0  0  0  0  0  0  0  0  0  0  0  0
   25.9705  -20.7512  -14.6777 C   0  0  0  0  0  0  0  0  0  0  0  0
   25.8365  -21.7902  -15.4316 O   0  0  0  0  0  0  0  0  0  0  0  0
   26.9113  -19.7985  -15.0854 N   0  0  0  0  0  0  0  0  0  0  0  0
   27.1662  -18.5328  -14.4426 C   0  0  0  0  0  0  0  0  0  0  0  0
   28.0501  -17.7336  -15.3924 C   0  0  0  0  0  0  0  0  0  0  0  0
   28.8432  -18.8137  -16.0697 C   0  0  0  0  0  0  0  0  0  0  0  0
   27.7752  -19.9085  -16.2309 C   0  0  1  0  0  0  0  0  0  0  0  0
   28.4401  -21.2280  -16.3649 C   0  0  0  0  0  0  0  0  0  0  0  0
   28.6585  -22.0528  -15.4790 O   0  0  0  0  0  0  0  0  0  0  0  0
   28.8621  -21.5564  -17.6594 O   0  0  0  0  0  0  0  0  0  0  0  0
  2  1  1  0
  3  2  1  0
  4  3  2  0
  5  3  1  0
  6 12  1  0
  6  5  1  0
  6  7  1  1
  8  7  1  0
  9  8  1  0
 10  9  1  0
 11 10  1  0
 12 14  1  0
 13 12  2  0
 14 18  1  0
 14 15  1  0
 15 16  1  0
 17 16  1  0
 18 17  1  0
 19 21  1  0
 18 19  1  1
 20 19  2  0
M  END
$$$$
