SKK.pdb
     RDKit          3D

 25 24  0  0  1  0  0  0  0  0999 V2000
   28.7274  -10.7557  -16.1129 O   0  0  0  0  0  0  0  0  0  0  0  0
   27.5033  -10.1182  -16.3053 C   0  0  0  0  0  0  0  0  0  0  0  0
   26.5558  -11.0522  -17.0224 C   0  0  2  0  0  0  0  0  0  0  0  0
   27.0901  -11.3700  -18.3292 N   0  0  0  0  0  0  0  0  0  0  0  0
   25.1845  -10.4847  -17.1108 C   0  0  0  0  0  0  0  0  0  0  0  0
   24.7175  -10.0346  -18.1955 O   0  0  0  0  0  0  0  0  0  0  0  0
   24.3121  -10.4102  -15.9914 N   0  0  0  0  0  0  0  0  0  0  0  0
   22.9417   -9.9607  -16.0807 C   0  0  1  0  0  0  0  0  0  0  0  0
   22.0004  -10.7877  -15.2365 C   0  0  0  0  0  0  0  0  0  0  0  0
   20.6001  -10.3572  -15.5363 C   0  0  0  0  0  0  0  0  0  0  0  0
   19.5558  -11.1215  -14.7962 C   0  0  0  0  0  0  0  0  0  0  0  0
   18.1972  -10.7026  -15.3593 C   0  0  0  0  0  0  0  0  0  0  0  0
   17.1164  -11.2494  -14.5922 N   0  0  0  0  0  0  0  0  0  0  0  0
   22.9333   -8.5309  -15.5980 C   0  0  0  0  0  0  0  0  0  0  0  0
   23.5024   -8.2132  -14.5093 O   0  0  0  0  0  0  0  0  0  0  0  0
   22.2919   -7.5192  -16.3489 N   0  0  0  0  0  0  0  0  0  0  0  0
   22.3526   -6.1406  -15.8290 C   0  0  1  0  0  0  0  0  0  0  0  0
   21.8022   -5.2058  -16.8675 C   0  0  0  0  0  0  0  0  0  0  0  0
   21.8723   -3.7905  -16.3816 C   0  0  0  0  0  0  0  0  0  0  0  0
   21.3473   -2.8174  -17.4051 C   0  0  0  0  0  0  0  0  0  0  0  0
   21.3838   -1.4004  -16.9415 C   0  0  0  0  0  0  0  0  0  0  0  0
   20.7341   -1.2030  -15.6714 N   0  0  0  0  0  0  0  0  0  0  0  0
   21.6022   -6.1445  -14.5653 C   0  0  0  0  0  0  0  0  0  0  0  0
   22.0306   -5.5227  -13.3886 O   0  0  0  0  0  0  0  0  0  0  0  0
   20.4715   -6.7458  -14.4769 O   0  0  0  0  0  0  0  0  0  0  0  0
  2  1  1  0
  3  2  1  0
  3  4  1  6
  5  3  1  0
  6  5  2  0
  7  5  1  0
  8  7  1  0
  8  9  1  1
 10  9  1  0
 11 10  1  0
 12 11  1  0
 13 12  1  0
 14 15  2  0
 14  8  1  0
 16 14  1  0
 17 16  1  0
 17 18  1  6
 19 20  1  0
 19 18  1  0
 20 21  1  0
 22 21  1  0
 23 17  1  0
 24 23  1  0
 25 23  2  0
M  END
$$$$
