SKK.pdb
     RDKit          3D

 25 24  0  0  1  0  0  0  0  0999 V2000
   18.4183   -7.2838  -14.3023 O   0  0  0  0  0  0  0  0  0  0  0  0
   18.2754   -8.6505  -14.0711 C   0  0  0  0  0  0  0  0  0  0  0  0
   16.8712   -9.0785  -14.4306 C   0  0  2  0  0  0  0  0  0  0  0  0
   16.5568   -8.6238  -15.7681 N   0  0  0  0  0  0  0  0  0  0  0  0
   15.8765   -8.5959  -13.4365 C   0  0  0  0  0  0  0  0  0  0  0  0
   15.2658   -7.4992  -13.5823 O   0  0  0  0  0  0  0  0  0  0  0  0
   15.5471   -9.3286  -12.2642 N   0  0  0  0  0  0  0  0  0  0  0  0
   14.4843   -8.9483  -11.3621 C   0  0  1  0  0  0  0  0  0  0  0  0
   13.9573  -10.1134  -10.5574 C   0  0  0  0  0  0  0  0  0  0  0  0
   13.0034  -10.8824  -11.4145 C   0  0  0  0  0  0  0  0  0  0  0  0
   12.3728  -12.0475  -10.7307 C   0  0  0  0  0  0  0  0  0  0  0  0
   11.5114  -12.7734  -11.7648 C   0  0  0  0  0  0  0  0  0  0  0  0
   10.8141  -13.8839  -11.1850 N   0  0  0  0  0  0  0  0  0  0  0  0
   15.0685   -7.9125  -10.4331 C   0  0  0  0  0  0  0  0  0  0  0  0
   16.2790   -7.9885  -10.0601 O   0  0  0  0  0  0  0  0  0  0  0  0
   14.2791   -6.8388   -9.9610 N   0  0  0  0  0  0  0  0  0  0  0  0
   14.9455   -5.8102   -9.1409 C   0  0  1  0  0  0  0  0  0  0  0  0
   13.9751   -4.6943   -8.8798 C   0  0  0  0  0  0  0  0  0  0  0  0
   14.6097   -3.6452   -8.0190 C   0  0  0  0  0  0  0  0  0  0  0  0
   13.6823   -2.4839   -7.7712 C   0  0  0  0  0  0  0  0  0  0  0  0
   14.2993   -1.4047   -6.9473 C   0  0  0  0  0  0  0  0  0  0  0  0
   15.4973   -0.8602   -7.5324 N   0  0  0  0  0  0  0  0  0  0  0  0
   15.4169   -6.4934   -7.9280 C   0  0  0  0  0  0  0  0  0  0  0  0
   16.5504   -6.1205   -7.1996 O   0  0  0  0  0  0  0  0  0  0  0  0
   14.7854   -7.5088   -7.4610 O   0  0  0  0  0  0  0  0  0  0  0  0
  2  1  1  0
  3  2  1  0
  3  4  1  6
  5  3  1  0
  6  5  2  0
  7  5  1  0
  8  7  1  0
  8  9  1  1
 10  9  1  0
 11 10  1  0
 12 11  1  0
 13 12  1  0
 14 15  2  0
 14  8  1  0
 16 14  1  0
 17 16  1  0
 17 18  1  1
 19 20  1  0
 19 18  1  0
 20 21  1  0
 22 21  1  0
 23 17  1  0
 24 23  1  0
 25 23  2  0
M  END
$$$$
