SKK.pdb
     RDKit          3D

 25 24  0  0  1  0  0  0  0  0999 V2000
   28.7309  -18.0186  -17.9048 O   0  0  0  0  0  0  0  0  0  0  0  0
   27.7133  -18.7291  -17.2710 C   0  0  0  0  0  0  0  0  0  0  0  0
   28.3086  -19.8906  -16.5090 C   0  0  2  0  0  0  0  0  0  0  0  0
   28.8210  -20.8684  -17.4448 N   0  0  0  0  0  0  0  0  0  0  0  0
   27.3287  -20.4912  -15.5659 C   0  0  0  0  0  0  0  0  0  0  0  0
   26.5159  -21.3878  -15.9298 O   0  0  0  0  0  0  0  0  0  0  0  0
   27.2396  -20.1015  -14.2021 N   0  0  0  0  0  0  0  0  0  0  0  0
   26.2411  -20.6153  -13.2927 C   0  0  1  0  0  0  0  0  0  0  0  0
   26.5653  -20.3250  -11.8459 C   0  0  0  0  0  0  0  0  0  0  0  0
   25.4469  -20.8453  -11.0008 C   0  0  0  0  0  0  0  0  0  0  0  0
   25.6097  -20.5792   -9.5430 C   0  0  0  0  0  0  0  0  0  0  0  0
   24.4184  -21.2158   -8.8260 C   0  0  0  0  0  0  0  0  0  0  0  0
   24.4334  -20.9299   -7.4212 N   0  0  0  0  0  0  0  0  0  0  0  0
   24.9427  -19.9435  -13.6667 C   0  0  0  0  0  0  0  0  0  0  0  0
   24.8497  -18.6780  -13.6778 O   0  0  0  0  0  0  0  0  0  0  0  0
   23.8061  -20.7104  -14.0116 N   0  0  0  0  0  0  0  0  0  0  0  0
   22.5582  -19.9846  -14.3123 C   0  0  1  0  0  0  0  0  0  0  0  0
   22.0180  -20.4721  -15.6260 C   0  0  0  0  0  0  0  0  0  0  0  0
   20.7141  -19.8012  -15.9323 C   0  0  0  0  0  0  0  0  0  0  0  0
   20.0792  -20.3499  -17.1837 C   0  0  0  0  0  0  0  0  0  0  0  0
   18.7760  -19.7038  -17.5132 C   0  0  0  0  0  0  0  0  0  0  0  0
   18.2285  -20.1424  -18.7710 N   0  0  0  0  0  0  0  0  0  0  0  0
   21.6624  -20.2167  -13.1704 C   0  0  0  0  0  0  0  0  0  0  0  0
   20.7150  -19.2982  -12.7085 O   0  0  0  0  0  0  0  0  0  0  0  0
   21.7103  -21.3187  -12.5138 O   0  0  0  0  0  0  0  0  0  0  0  0
  2  1  1  0
  3  2  1  0
  3  4  1  6
  5  3  1  0
  6  5  2  0
  7  5  1  0
  8  7  1  0
  8  9  1  1
 10  9  1  0
 11 10  1  0
 12 11  1  0
 13 12  1  0
 14 15  2  0
 14  8  1  0
 16 14  1  0
 17 16  1  0
 17 18  1  6
 19 20  1  0
 19 18  1  0
 20 21  1  0
 22 21  1  0
 23 17  1  0
 24 23  1  0
 25 23  2  0
M  END
$$$$
