SKK.pdb
     RDKit          3D

 25 24  0  0  1  0  0  0  0  0999 V2000
   14.2473  -10.3959  -15.6674 O   0  0  0  0  0  0  0  0  0  0  0  0
   14.8191   -9.8023  -14.5438 C   0  0  0  0  0  0  0  0  0  0  0  0
   16.2108  -10.3537  -14.3356 C   0  0  2  0  0  0  0  0  0  0  0  0
   16.1608  -11.8001  -14.3367 N   0  0  0  0  0  0  0  0  0  0  0  0
   16.8330   -9.8248  -13.0933 C   0  0  0  0  0  0  0  0  0  0  0  0
   16.6198  -10.3509  -11.9642 O   0  0  0  0  0  0  0  0  0  0  0  0
   17.7027   -8.7008  -13.0902 N   0  0  0  0  0  0  0  0  0  0  0  0
   18.2175   -8.0980  -11.8821 C   0  0  1  0  0  0  0  0  0  0  0  0
   19.3805   -7.1696  -12.1432 C   0  0  0  0  0  0  0  0  0  0  0  0
   20.5645   -7.9975  -12.5287 C   0  0  0  0  0  0  0  0  0  0  0  0
   20.8126   -8.0597  -13.9975 C   0  0  0  0  0  0  0  0  0  0  0  0
   21.9683   -9.0349  -14.2252 C   0  0  0  0  0  0  0  0  0  0  0  0
   22.1940   -9.2690  -15.6216 N   0  0  0  0  0  0  0  0  0  0  0  0
   17.0740   -7.3215  -11.2765 C   0  0  0  0  0  0  0  0  0  0  0  0
   16.3352   -6.5880  -12.0021 O   0  0  0  0  0  0  0  0  0  0  0  0
   16.8043   -7.3962   -9.8907 N   0  0  0  0  0  0  0  0  0  0  0  0
   15.6129   -6.6876   -9.3877 C   0  0  1  0  0  0  0  0  0  0  0  0
   14.7819   -7.6460   -8.5838 C   0  0  0  0  0  0  0  0  0  0  0  0
   13.5812   -6.9477   -8.0225 C   0  0  0  0  0  0  0  0  0  0  0  0
   12.7089   -7.8816   -7.2244 C   0  0  0  0  0  0  0  0  0  0  0  0
   11.4429   -7.2472   -6.7567 C   0  0  0  0  0  0  0  0  0  0  0  0
   10.5993   -8.1473   -6.0134 N   0  0  0  0  0  0  0  0  0  0  0  0
   16.1120   -5.5363   -8.6226 C   0  0  0  0  0  0  0  0  0  0  0  0
   15.4128   -4.3381   -8.4495 O   0  0  0  0  0  0  0  0  0  0  0  0
   17.2626   -5.5765   -8.0547 O   0  0  0  0  0  0  0  0  0  0  0  0
  2  1  1  0
  3  2  1  0
  3  4  1  1
  5  3  1  0
  6  5  2  0
  7  5  1  0
  8  7  1  0
  8  9  1  6
 10  9  1  0
 11 10  1  0
 12 11  1  0
 13 12  1  0
 14 15  2  0
 14  8  1  0
 16 14  1  0
 17 16  1  0
 17 18  1  1
 19 20  1  0
 19 18  1  0
 20 21  1  0
 22 21  1  0
 23 17  1  0
 24 23  1  0
 25 23  2  0
M  END
$$$$
