SKK.pdb
     RDKit          3D

 25 24  0  0  1  0  0  0  0  0999 V2000
   21.0558  -19.9231  -13.6762 O   0  0  0  0  0  0  0  0  0  0  0  0
   22.2295  -20.6712  -13.7434 C   0  0  0  0  0  0  0  0  0  0  0  0
   22.1443  -21.6398  -14.9005 C   0  0  2  0  0  0  0  0  0  0  0  0
   22.0559  -20.9006  -16.1416 N   0  0  0  0  0  0  0  0  0  0  0  0
   21.0108  -22.5888  -14.7425 C   0  0  0  0  0  0  0  0  0  0  0  0
   19.9998  -22.5525  -15.4999 O   0  0  0  0  0  0  0  0  0  0  0  0
   20.9867  -23.5933  -13.7374 N   0  0  0  0  0  0  0  0  0  0  0  0
   19.8970  -24.5283  -13.5747 C   0  0  1  0  0  0  0  0  0  0  0  0
   20.3605  -25.8891  -13.1101 C   0  0  0  0  0  0  0  0  0  0  0  0
   20.9213  -26.6211  -14.2873 C   0  0  0  0  0  0  0  0  0  0  0  0
   21.5421  -27.9337  -13.9496 C   0  0  0  0  0  0  0  0  0  0  0  0
   22.1021  -28.5216  -15.2455 C   0  0  0  0  0  0  0  0  0  0  0  0
   22.8619  -29.7124  -14.9998 N   0  0  0  0  0  0  0  0  0  0  0  0
   18.9741  -23.9268  -12.5434 C   0  0  0  0  0  0  0  0  0  0  0  0
   19.4423  -23.2934  -11.5485 O   0  0  0  0  0  0  0  0  0  0  0  0
   17.5716  -24.0574  -12.6657 N   0  0  0  0  0  0  0  0  0  0  0  0
   16.7336  -23.4127  -11.6379 C   0  0  1  0  0  0  0  0  0  0  0  0
   15.3193  -23.3442  -12.1382 C   0  0  0  0  0  0  0  0  0  0  0  0
   14.4841  -22.5045  -11.2209 C   0  0  0  0  0  0  0  0  0  0  0  0
   13.0428  -22.4569  -11.6575 C   0  0  0  0  0  0  0  0  0  0  0  0
   12.1807  -21.6454  -10.7506 C   0  0  0  0  0  0  0  0  0  0  0  0
   10.8050  -21.5935  -11.1735 N   0  0  0  0  0  0  0  0  0  0  0  0
   16.9004  -24.2080  -10.4133 C   0  0  0  0  0  0  0  0  0  0  0  0
   17.3200  -25.5413  -10.3867 O   0  0  0  0  0  0  0  0  0  0  0  0
   16.6567  -23.6960   -9.2616 O   0  0  0  0  0  0  0  0  0  0  0  0
  2  1  1  0
  3  2  1  0
  3  4  1  6
  5  3  1  0
  6  5  2  0
  7  5  1  0
  8  7  1  0
  8  9  1  1
 10  9  1  0
 11 10  1  0
 12 11  1  0
 13 12  1  0
 14 15  2  0
 14  8  1  0
 16 14  1  0
 17 16  1  0
 17 18  1  6
 19 20  1  0
 19 18  1  0
 20 21  1  0
 22 21  1  0
 23 17  1  0
 24 23  1  0
 25 23  2  0
M  END
$$$$
