SKK.pdb
     RDKit          3D

 25 24  0  0  1  0  0  0  0  0999 V2000
   15.7814  -12.6487  -16.4820 O   0  0  0  0  0  0  0  0  0  0  0  0
   16.3287  -12.2136  -15.2766 C   0  0  0  0  0  0  0  0  0  0  0  0
   15.9207  -10.7799  -15.0263 C   0  0  2  0  0  0  0  0  0  0  0  0
   16.1800   -9.9915  -16.2119 N   0  0  0  0  0  0  0  0  0  0  0  0
   16.5986  -10.2150  -13.8298 C   0  0  0  0  0  0  0  0  0  0  0  0
   16.5334  -10.7760  -12.6992 O   0  0  0  0  0  0  0  0  0  0  0  0
   17.3598   -9.0158  -13.8749 N   0  0  0  0  0  0  0  0  0  0  0  0
   18.1075   -8.5066  -12.7480 C   0  0  1  0  0  0  0  0  0  0  0  0
   19.3125   -7.6966  -13.1656 C   0  0  0  0  0  0  0  0  0  0  0  0
   20.3333   -8.6315  -13.7312 C   0  0  0  0  0  0  0  0  0  0  0  0
   21.5439   -7.9543  -14.2773 C   0  0  0  0  0  0  0  0  0  0  0  0
   22.4493   -9.0384  -14.8632 C   0  0  0  0  0  0  0  0  0  0  0  0
   23.6088   -8.4754  -15.4912 N   0  0  0  0  0  0  0  0  0  0  0  0
   17.1548   -7.6341  -11.9680 C   0  0  0  0  0  0  0  0  0  0  0  0
   16.5065   -6.7085  -12.5451 O   0  0  0  0  0  0  0  0  0  0  0  0
   16.9667   -7.8311  -10.5806 N   0  0  0  0  0  0  0  0  0  0  0  0
   16.0246   -6.9348   -9.8852 C   0  0  1  0  0  0  0  0  0  0  0  0
   14.8180   -7.7268   -9.4704 C   0  0  0  0  0  0  0  0  0  0  0  0
   13.8538   -6.8535   -8.7275 C   0  0  0  0  0  0  0  0  0  0  0  0
   12.6112   -7.6036   -8.3235 C   0  0  0  0  0  0  0  0  0  0  0  0
   11.6113   -6.7488   -7.6208 C   0  0  0  0  0  0  0  0  0  0  0  0
   10.4222   -7.4657   -7.2385 N   0  0  0  0  0  0  0  0  0  0  0  0
   16.7703   -6.3438   -8.7651 C   0  0  0  0  0  0  0  0  0  0  0  0
   16.4021   -5.1699   -8.1010 O   0  0  0  0  0  0  0  0  0  0  0  0
   17.8411   -6.8990   -8.3258 O   0  0  0  0  0  0  0  0  0  0  0  0
  2  1  1  0
  3  2  1  0
  3  4  1  6
  5  3  1  0
  6  5  2  0
  7  5  1  0
  8  7  1  0
  8  9  1  6
 10  9  1  0
 11 10  1  0
 12 11  1  0
 13 12  1  0
 14 15  2  0
 14  8  1  0
 16 14  1  0
 17 16  1  0
 17 18  1  1
 19 20  1  0
 19 18  1  0
 20 21  1  0
 22 21  1  0
 23 17  1  0
 24 23  1  0
 25 23  2  0
M  END
$$$$
