SKK.pdb
     RDKit          3D

 25 24  0  0  1  0  0  0  0  0999 V2000
   25.6797  -10.2377  -16.4264 O   0  0  0  0  0  0  0  0  0  0  0  0
   25.2701  -10.9414  -15.2955 C   0  0  0  0  0  0  0  0  0  0  0  0
   23.9288  -11.5855  -15.5610 C   0  0  2  0  0  0  0  0  0  0  0  0
   24.0235  -12.4296  -16.7327 N   0  0  0  0  0  0  0  0  0  0  0  0
   22.8486  -10.5731  -15.6971 C   0  0  0  0  0  0  0  0  0  0  0  0
   22.5436  -10.0692  -16.8152 O   0  0  0  0  0  0  0  0  0  0  0  0
   22.0915  -10.1064  -14.5887 N   0  0  0  0  0  0  0  0  0  0  0  0
   20.9900   -9.1794  -14.7128 C   0  0  1  0  0  0  0  0  0  0  0  0
   19.9260   -9.3936  -13.6617 C   0  0  0  0  0  0  0  0  0  0  0  0
   18.6239   -8.8973  -14.2041 C   0  0  0  0  0  0  0  0  0  0  0  0
   17.8204   -9.9376  -14.9075 C   0  0  0  0  0  0  0  0  0  0  0  0
   16.4832   -9.3017  -15.2897 C   0  0  0  0  0  0  0  0  0  0  0  0
   15.6331  -10.2315  -15.9742 N   0  0  0  0  0  0  0  0  0  0  0  0
   21.5803   -7.7986  -14.5635 C   0  0  0  0  0  0  0  0  0  0  0  0
   22.5395   -7.5895  -13.7595 O   0  0  0  0  0  0  0  0  0  0  0  0
   21.0765   -6.7128  -15.3159 N   0  0  0  0  0  0  0  0  0  0  0  0
   21.7977   -5.4294  -15.2297 C   0  0  1  0  0  0  0  0  0  0  0  0
   21.2670   -4.5030  -16.2858 C   0  0  0  0  0  0  0  0  0  0  0  0
   22.0012   -3.1977  -16.2482 C   0  0  0  0  0  0  0  0  0  0  0  0
   21.5783   -2.2815  -17.3670 C   0  0  0  0  0  0  0  0  0  0  0  0
   22.3435   -1.0019  -17.3996 C   0  0  0  0  0  0  0  0  0  0  0  0
   22.0350   -0.1865  -18.5459 N   0  0  0  0  0  0  0  0  0  0  0  0
   21.6106   -4.9443  -13.8551 C   0  0  0  0  0  0  0  0  0  0  0  0
   20.4424   -5.1177  -13.1068 O   0  0  0  0  0  0  0  0  0  0  0  0
   22.5490   -4.3099  -13.2511 O   0  0  0  0  0  0  0  0  0  0  0  0
  2  1  1  0
  3  2  1  0
  3  4  1  6
  5  3  1  0
  6  5  2  0
  7  5  1  0
  8  7  1  0
  8  9  1  1
 10  9  1  0
 11 10  1  0
 12 11  1  0
 13 12  1  0
 14 15  2  0
 14  8  1  0
 16 14  1  0
 17 16  1  0
 17 18  1  6
 19 20  1  0
 19 18  1  0
 20 21  1  0
 22 21  1  0
 23 17  1  0
 24 23  1  0
 25 23  2  0
M  END
$$$$
