HRC.pdb
     RDKit          3D

 28 28  0  0  1  0  0  0  0  0999 V2000
    7.4004  -16.8772   18.9150 N   0  0  0  0  0  0  0  0  0  0  0  0
    7.7432  -15.6997   19.7267 C   0  0  1  0  0  0  0  0  0  0  0  0
    7.0045  -14.5541   19.0435 C   0  0  0  0  0  0  0  0  0  0  0  0
    7.6978  -14.2990   17.7555 C   0  0  0  0  0  0  0  0  0  0  0  0
    8.7491  -14.9951   17.1970 C   0  0  0  0  0  0  0  0  0  0  0  0
    9.0757  -14.4297   16.0217 N   0  0  0  0  0  0  0  0  0  0  0  0
    8.2304  -13.3871   15.8514 C   0  0  0  0  0  0  0  0  0  0  0  0
    7.4063  -13.3122   16.8927 N   0  0  0  0  0  0  0  0  0  0  0  0
    7.2245  -15.9398   21.0899 C   0  0  0  0  0  0  0  0  0  0  0  0
    6.0737  -16.4086   21.2318 O   0  0  0  0  0  0  0  0  0  0  0  0
    9.6488  -19.6861   27.9028 N   0  0  0  0  0  0  0  0  0  0  0  0
    8.2481  -19.8593   28.1100 C   0  0  0  0  0  0  0  0  0  0  0  0
    7.8051  -20.2315   29.2530 N   0  0  0  0  0  0  0  0  0  0  0  0
    7.3598  -19.6154   27.0424 N   0  0  0  0  0  0  0  0  0  0  0  0
    7.8659  -19.2057   25.7359 C   0  0  0  0  0  0  0  0  0  0  0  0
    7.4624  -17.7813   25.4607 C   0  0  0  0  0  0  0  0  0  0  0  0
    7.8086  -17.3825   24.0907 C   0  0  0  0  0  0  0  0  0  0  0  0
    7.4582  -16.0405   23.5964 C   0  0  2  0  0  0  0  0  0  0  0  0
    7.9415  -15.6768   22.2923 N   0  0  0  0  0  0  0  0  0  0  0  0
    8.1499  -15.0772   24.5471 C   0  0  0  0  0  0  0  0  0  0  0  0
    9.3885  -14.8847   24.5248 O   0  0  0  0  0  0  0  0  0  0  0  0
    6.8008  -20.3694   29.4790 N   0  0  0  0  0  0  0  0  0  0  0  0
    7.4001  -14.3530   25.5055 C   0  0  2  0  0  0  0  0  0  0  0  0
    8.0133  -13.4222   26.4386 C   0  0  0  0  0  0  0  0  0  0  0  0
    7.0471  -12.3004   26.7884 S   0  0  0  0  0  0  0  0  0  0  0  0
    5.4524  -12.9322   27.3101 C   0  0  0  0  0  0  0  0  0  0  0  0
    8.4679  -14.1334   27.6562 O   0  0  0  0  0  0  0  0  0  0  0  0
    8.0885  -15.3150   27.8393 O   0  0  0  0  0  0  0  0  0  0  0  0
  2  1  1  6
  2  9  1  0
  3  2  1  0
  4  5  2  0
  4  3  1  0
  6  5  1  0
  7  8  2  0
  7  6  1  0
  8  4  1  0
  9 10  2  0
 11 12  1  0
 12 14  1  0
 13 12  2  0
 14 15  1  0
 16 17  1  0
 16 15  1  0
 18 17  1  1
 18 20  1  0
 19  9  1  0
 19 18  1  0
 20 21  2  0
 22 23  1  0
 22 20  1  0
 23 26  1  0
 23 24  1  6
 25 24  1  0
 26 27  2  0
 26 28  1  0
M  END
$$$$
