HRC.pdb
     RDKit          3D

 28 28  0  0  1  0  0  0  0  0999 V2000
    6.8757  -15.6103   20.2495 N   0  0  0  0  0  0  0  0  0  0  0  0
    8.1862  -15.2184   20.7895 C   0  0  1  0  0  0  0  0  0  0  0  0
    7.9948  -13.7623   21.1997 C   0  0  0  0  0  0  0  0  0  0  0  0
    8.0006  -12.9570   19.9523 C   0  0  0  0  0  0  0  0  0  0  0  0
    8.1008  -13.3978   18.6495 C   0  0  0  0  0  0  0  0  0  0  0  0
    8.0683  -12.3378   17.8230 N   0  0  0  0  0  0  0  0  0  0  0  0
    7.9481  -11.2436   18.6097 C   0  0  0  0  0  0  0  0  0  0  0  0
    7.9081  -11.6190   19.8850 N   0  0  0  0  0  0  0  0  0  0  0  0
    8.4536  -16.0787   21.9615 C   0  0  0  0  0  0  0  0  0  0  0  0
    7.5069  -16.3966   22.7145 O   0  0  0  0  0  0  0  0  0  0  0  0
   13.3342  -20.1837   17.7827 N   0  0  0  0  0  0  0  0  0  0  0  0
   13.3722  -19.5561   19.0632 C   0  0  0  0  0  0  0  0  0  0  0  0
   14.4020  -18.8845   19.4234 N   0  0  0  0  0  0  0  0  0  0  0  0
   12.2634  -19.6843   19.9249 N   0  0  0  0  0  0  0  0  0  0  0  0
   12.1577  -18.8592   21.1245 C   0  0  0  0  0  0  0  0  0  0  0  0
   10.9642  -19.2931   21.9338 C   0  0  0  0  0  0  0  0  0  0  0  0
   10.9049  -18.5873   23.2199 C   0  0  0  0  0  0  0  0  0  0  0  0
    9.9430  -17.4911   23.4223 C   0  0  2  0  0  0  0  0  0  0  0  0
    9.7326  -16.5934   22.3193 N   0  0  0  0  0  0  0  0  0  0  0  0
   10.5544  -16.6264   24.5126 C   0  0  0  0  0  0  0  0  0  0  0  0
   11.6154  -15.9808   24.3421 O   0  0  0  0  0  0  0  0  0  0  0  0
   14.4966  -18.3945   20.3342 N   0  0  0  0  0  0  0  0  0  0  0  0
    9.9303  -16.5219   25.7794 C   0  0  1  0  0  0  0  0  0  0  0  0
   10.5258  -15.7937   26.8878 C   0  0  0  0  0  0  0  0  0  0  0  0
    9.5208  -14.8259   27.4939 S   0  0  0  0  0  0  0  0  0  0  0  0
    8.8115  -13.7393   26.2566 C   0  0  0  0  0  0  0  0  0  0  0  0
   11.0415  -16.7355   27.9086 O   0  0  0  0  0  0  0  0  0  0  0  0
   10.8721  -17.9659   27.7318 O   0  0  0  0  0  0  0  0  0  0  0  0
  2  1  1  1
  2  9  1  0
  3  2  1  0
  4  5  2  0
  4  3  1  0
  6  5  1  0
  7  8  2  0
  7  6  1  0
  8  4  1  0
  9 10  2  0
 11 12  1  0
 12 14  1  0
 13 12  2  0
 14 15  1  0
 16 17  1  0
 16 15  1  0
 18 17  1  6
 18 20  1  0
 19  9  1  0
 19 18  1  0
 20 21  2  0
 22 23  1  0
 22 20  1  0
 23 26  1  0
 23 24  1  1
 25 24  1  0
 26 27  2  0
 26 28  1  0
M  END
$$$$
