HRC.pdb
     RDKit          3D

 28 28  0  0  1  0  0  0  0  0999 V2000
    5.8342  -15.6221   25.4832 N   0  0  0  0  0  0  0  0  0  0  0  0
    6.8226  -14.7642   24.8124 C   0  0  1  0  0  0  0  0  0  0  0  0
    7.4354  -13.9516   25.9477 C   0  0  0  0  0  0  0  0  0  0  0  0
    6.4639  -12.8812   26.2873 C   0  0  0  0  0  0  0  0  0  0  0  0
    6.0617  -11.8135   25.5128 C   0  0  0  0  0  0  0  0  0  0  0  0
    5.1683  -11.0824   26.2021 N   0  0  0  0  0  0  0  0  0  0  0  0
    5.0166  -11.6940   27.3993 C   0  0  0  0  0  0  0  0  0  0  0  0
    5.7949  -12.7716   27.4464 N   0  0  0  0  0  0  0  0  0  0  0  0
    7.8223  -15.6539   24.1846 C   0  0  0  0  0  0  0  0  0  0  0  0
    7.7096  -16.8920   24.3214 O   0  0  0  0  0  0  0  0  0  0  0  0
    8.1113  -15.6829   16.6134 N   0  0  0  0  0  0  0  0  0  0  0  0
    8.1569  -14.4972   17.4051 C   0  0  0  0  0  0  0  0  0  0  0  0
    8.4137  -13.3663   16.8608 N   0  0  0  0  0  0  0  0  0  0  0  0
    7.9156  -14.5864   18.7916 N   0  0  0  0  0  0  0  0  0  0  0  0
    8.7021  -15.4915   19.6241 C   0  0  0  0  0  0  0  0  0  0  0  0
    9.5933  -14.6927   20.5381 C   0  0  0  0  0  0  0  0  0  0  0  0
   10.3740  -15.5671   21.4223 C   0  0  0  0  0  0  0  0  0  0  0  0
    9.7754  -16.1005   22.6572 C   0  0  2  0  0  0  0  0  0  0  0  0
    8.9358  -15.2122   23.4139 N   0  0  0  0  0  0  0  0  0  0  0  0
   10.9535  -16.3916   23.5725 C   0  0  0  0  0  0  0  0  0  0  0  0
   12.0762  -15.8571   23.4129 O   0  0  0  0  0  0  0  0  0  0  0  0
    8.4809  -12.4666   17.3754 N   0  0  0  0  0  0  0  0  0  0  0  0
   10.8147  -17.2933   24.6554 C   0  0  1  0  0  0  0  0  0  0  0  0
   11.6280  -17.2049   25.8571 C   0  0  0  0  0  0  0  0  0  0  0  0
   11.4854  -15.8336   26.5001 S   0  0  0  0  0  0  0  0  0  0  0  0
   11.0428  -15.9526   28.2334 C   0  0  0  0  0  0  0  0  0  0  0  0
   11.2645  -18.2805   26.8088 O   0  0  0  0  0  0  0  0  0  0  0  0
   11.9204  -18.3892   27.8726 O   0  0  0  0  0  0  0  0  0  0  0  0
  2  1  1  1
  2  9  1  0
  3  2  1  0
  4  5  2  0
  4  3  1  0
  6  5  1  0
  7  8  2  0
  7  6  1  0
  8  4  1  0
  9 10  2  0
 11 12  1  0
 12 14  1  0
 13 12  2  0
 14 15  1  0
 16 17  1  0
 16 15  1  0
 18 17  1  6
 18 20  1  0
 19  9  1  0
 19 18  1  0
 20 21  2  0
 22 23  1  0
 22 20  1  0
 23 26  1  0
 23 24  1  6
 25 24  1  0
 26 27  2  0
 26 28  1  0
M  END
$$$$
