HRC.pdb
     RDKit          3D

 28 28  0  0  1  0  0  0  0  0999 V2000
    7.4501  -16.8310   19.9700 N   0  0  0  0  0  0  0  0  0  0  0  0
    7.8508  -15.6567   20.7595 C   0  0  1  0  0  0  0  0  0  0  0  0
    7.0006  -14.5248   20.1930 C   0  0  0  0  0  0  0  0  0  0  0  0
    7.6118  -14.1305   18.8986 C   0  0  0  0  0  0  0  0  0  0  0  0
    8.4667  -13.0795   18.6408 C   0  0  0  0  0  0  0  0  0  0  0  0
    8.7811  -13.0790   17.3336 N   0  0  0  0  0  0  0  0  0  0  0  0
    8.1243  -14.1256   16.7824 C   0  0  0  0  0  0  0  0  0  0  0  0
    7.4246  -14.7530   17.7236 N   0  0  0  0  0  0  0  0  0  0  0  0
    7.5064  -15.9370   22.1694 C   0  0  0  0  0  0  0  0  0  0  0  0
    6.3502  -16.3222   22.4508 O   0  0  0  0  0  0  0  0  0  0  0  0
   10.8859  -21.4014   27.1010 N   0  0  0  0  0  0  0  0  0  0  0  0
    9.9322  -21.2316   26.0539 C   0  0  0  0  0  0  0  0  0  0  0  0
    9.7606  -22.1529   25.1804 N   0  0  0  0  0  0  0  0  0  0  0  0
    9.1823  -20.0389   25.9937 N   0  0  0  0  0  0  0  0  0  0  0  0
    9.4581  -18.9426   26.9172 C   0  0  0  0  0  0  0  0  0  0  0  0
    8.6039  -17.7544   26.5618 C   0  0  0  0  0  0  0  0  0  0  0  0
    8.7746  -17.3748   25.1538 C   0  0  0  0  0  0  0  0  0  0  0  0
    8.0718  -16.2007   24.6103 C   0  0  2  0  0  0  0  0  0  0  0  0
    8.4022  -15.8035   23.2688 N   0  0  0  0  0  0  0  0  0  0  0  0
    8.5192  -15.0364   25.4790 C   0  0  0  0  0  0  0  0  0  0  0  0
    9.6785  -14.5626   25.4223 O   0  0  0  0  0  0  0  0  0  0  0  0
    9.0634  -22.1132   24.4117 N   0  0  0  0  0  0  0  0  0  0  0  0
    7.6209  -14.4395   26.3966 C   0  0  2  0  0  0  0  0  0  0  0  0
    8.0160  -13.3653   27.2927 C   0  0  0  0  0  0  0  0  0  0  0  0
    6.7982  -12.5811   27.7578 S   0  0  0  0  0  0  0  0  0  0  0  0
    5.5945  -12.3778   26.4446 C   0  0  0  0  0  0  0  0  0  0  0  0
    8.7747  -13.9048   28.4452 O   0  0  0  0  0  0  0  0  0  0  0  0
    8.8080  -15.1474   28.6145 O   0  0  0  0  0  0  0  0  0  0  0  0
  2  1  1  6
  2  9  1  0
  3  2  1  0
  4  5  2  0
  4  3  1  0
  6  5  1  0
  7  8  2  0
  7  6  1  0
  8  4  1  0
  9 10  2  0
 11 12  1  0
 12 14  1  0
 13 12  2  0
 14 15  1  0
 16 17  1  0
 16 15  1  0
 18 17  1  1
 18 20  1  0
 19  9  1  0
 19 18  1  0
 20 21  2  0
 22 23  1  0
 22 20  1  0
 23 26  1  0
 23 24  1  6
 25 24  1  0
 26 27  2  0
 26 28  1  0
M  END
$$$$
