HRC.pdb
     RDKit          3D

 28 28  0  0  1  0  0  0  0  0999 V2000
   10.2521  -16.2450   15.4168 N   0  0  0  0  0  0  0  0  0  0  0  0
   10.0410  -15.1813   16.4101 C   0  0  1  0  0  0  0  0  0  0  0  0
    8.5297  -15.1602   16.6113 C   0  0  0  0  0  0  0  0  0  0  0  0
    7.9407  -14.5330   15.4012 C   0  0  0  0  0  0  0  0  0  0  0  0
    7.7489  -13.1927   15.1393 C   0  0  0  0  0  0  0  0  0  0  0  0
    7.1827  -13.0584   13.9272 N   0  0  0  0  0  0  0  0  0  0  0  0
    7.0241  -14.3101   13.4388 C   0  0  0  0  0  0  0  0  0  0  0  0
    7.4795  -15.1910   14.3253 N   0  0  0  0  0  0  0  0  0  0  0  0
   10.7444  -15.5877   17.6452 C   0  0  0  0  0  0  0  0  0  0  0  0
   10.7742  -16.7975   17.9612 O   0  0  0  0  0  0  0  0  0  0  0  0
   16.8708  -15.6764   22.6491 N   0  0  0  0  0  0  0  0  0  0  0  0
   17.4263  -15.4648   21.3524 C   0  0  0  0  0  0  0  0  0  0  0  0
   18.4733  -16.1054   20.9855 N   0  0  0  0  0  0  0  0  0  0  0  0
   16.8086  -14.5434   20.4817 N   0  0  0  0  0  0  0  0  0  0  0  0
   15.6343  -13.7903   20.9113 C   0  0  0  0  0  0  0  0  0  0  0  0
   14.4257  -14.6886   20.9028 C   0  0  0  0  0  0  0  0  0  0  0  0
   13.5367  -14.3786   19.7761 C   0  0  0  0  0  0  0  0  0  0  0  0
   12.2893  -15.1366   19.5834 C   0  0  2  0  0  0  0  0  0  0  0  0
   11.4117  -14.6963   18.5334 N   0  0  0  0  0  0  0  0  0  0  0  0
   11.4972  -14.9242   20.8632 C   0  0  0  0  0  0  0  0  0  0  0  0
   11.0165  -13.8102   21.1785 O   0  0  0  0  0  0  0  0  0  0  0  0
   18.9375  -15.9963   20.0628 N   0  0  0  0  0  0  0  0  0  0  0  0
   11.2737  -16.0009   21.7554 C   0  0  2  0  0  0  0  0  0  0  0  0
   10.6348  -15.8256   23.0494 C   0  0  0  0  0  0  0  0  0  0  0  0
    9.3532  -16.6413   23.1284 S   0  0  0  0  0  0  0  0  0  0  0  0
    9.5791  -18.3019   22.4912 C   0  0  0  0  0  0  0  0  0  0  0  0
   11.5674  -16.1908   24.1410 O   0  0  0  0  0  0  0  0  0  0  0  0
   12.5991  -16.8455   23.8567 O   0  0  0  0  0  0  0  0  0  0  0  0
  2  1  1  6
  2  9  1  0
  3  2  1  0
  4  5  2  0
  4  3  1  0
  6  5  1  0
  7  8  2  0
  7  6  1  0
  8  4  1  0
  9 10  2  0
 11 12  1  0
 12 14  1  0
 13 12  2  0
 14 15  1  0
 16 17  1  0
 16 15  1  0
 18 17  1  1
 18 20  1  0
 19  9  1  0
 19 18  1  0
 20 21  2  0
 22 23  1  0
 22 20  1  0
 23 26  1  0
 23 24  1  6
 25 24  1  0
 26 27  2  0
 26 28  1  0
M  END
$$$$
