HRC.pdb
     RDKit          3D

 28 28  0  0  1  0  0  0  0  0999 V2000
    7.5403  -17.0441   19.4792 N   0  0  0  0  0  0  0  0  0  0  0  0
    8.1099  -15.9115   20.2245 C   0  0  1  0  0  0  0  0  0  0  0  0
    7.1951  -14.7430   19.8742 C   0  0  0  0  0  0  0  0  0  0  0  0
    7.6593  -14.2058   18.5701 C   0  0  0  0  0  0  0  0  0  0  0  0
    8.7038  -14.6477   17.7855 C   0  0  0  0  0  0  0  0  0  0  0  0
    8.7831  -13.8787   16.6855 N   0  0  0  0  0  0  0  0  0  0  0  0
    7.7918  -12.9636   16.7868 C   0  0  0  0  0  0  0  0  0  0  0  0
    7.1207  -13.1630   17.9177 N   0  0  0  0  0  0  0  0  0  0  0  0
    8.0305  -16.2471   21.6620 C   0  0  0  0  0  0  0  0  0  0  0  0
    6.9924  -16.7839   22.1074 O   0  0  0  0  0  0  0  0  0  0  0  0
   13.4275  -20.1610   26.8027 N   0  0  0  0  0  0  0  0  0  0  0  0
   12.2840  -20.5830   26.0616 C   0  0  0  0  0  0  0  0  0  0  0  0
   12.2377  -21.7608   25.5599 N   0  0  0  0  0  0  0  0  0  0  0  0
   11.2076  -19.6884   25.8895 N   0  0  0  0  0  0  0  0  0  0  0  0
   11.3108  -18.3072   26.3505 C   0  0  0  0  0  0  0  0  0  0  0  0
   10.0612  -17.5543   25.9775 C   0  0  0  0  0  0  0  0  0  0  0  0
   10.0773  -17.1581   24.5638 C   0  0  0  0  0  0  0  0  0  0  0  0
    8.9644  -16.3774   23.9982 C   0  0  2  0  0  0  0  0  0  0  0  0
    9.0633  -16.0062   22.6129 N   0  0  0  0  0  0  0  0  0  0  0  0
    8.9839  -15.0587   24.7537 C   0  0  0  0  0  0  0  0  0  0  0  0
    9.8285  -14.1625   24.5189 O   0  0  0  0  0  0  0  0  0  0  0  0
   11.4399  -22.1363   25.0110 N   0  0  0  0  0  0  0  0  0  0  0  0
    8.0284  -14.7976   25.7657 C   0  0  2  0  0  0  0  0  0  0  0  0
    8.0859  -13.6161   26.6107 C   0  0  0  0  0  0  0  0  0  0  0  0
    6.6981  -13.0202   26.7927 S   0  0  0  0  0  0  0  0  0  0  0  0
    5.7786  -12.9892   25.2539 C   0  0  0  0  0  0  0  0  0  0  0  0
    8.7011  -13.9439   27.9180 O   0  0  0  0  0  0  0  0  0  0  0  0
    8.9551  -15.1443   28.1789 O   0  0  0  0  0  0  0  0  0  0  0  0
  2  1  1  6
  2  9  1  0
  3  2  1  0
  4  5  2  0
  4  3  1  0
  6  5  1  0
  7  8  2  0
  7  6  1  0
  8  4  1  0
  9 10  2  0
 11 12  1  0
 12 14  1  0
 13 12  2  0
 14 15  1  0
 16 17  1  0
 16 15  1  0
 18 17  1  1
 18 20  1  0
 19  9  1  0
 19 18  1  0
 20 21  2  0
 22 23  1  0
 22 20  1  0
 23 26  1  0
 23 24  1  6
 25 24  1  0
 26 27  2  0
 26 28  1  0
M  END
$$$$
