SNC.pdb
     RDKit          3D

 21 20  0  0  1  0  0  0  0  0999 V2000
    6.7468  -17.8898   20.3284 O   0  0  0  0  0  0  0  0  0  0  0  0
    7.5857  -16.9554   19.7221 C   0  0  0  0  0  0  0  0  0  0  0  0
    8.8916  -17.6249   19.3376 C   0  0  2  0  0  0  0  0  0  0  0  0
    8.5908  -18.8352   18.6300 N   0  0  0  0  0  0  0  0  0  0  0  0
    9.7031  -17.9243   20.5735 C   0  0  0  0  0  0  0  0  0  0  0  0
    9.5564  -19.0086   21.1442 O   0  0  0  0  0  0  0  0  0  0  0  0
   14.2533  -17.8859   20.2838 N   0  0  0  0  0  0  0  0  0  0  0  0
   13.9228  -17.4633   21.5883 C   0  0  0  0  0  0  0  0  0  0  0  0
   14.5785  -18.0417   22.5246 O   0  0  0  0  0  0  0  0  0  0  0  0
   12.8924  -16.4277   21.8342 C   0  0  0  0  0  0  0  0  0  0  0  0
   11.5195  -16.9915   22.1265 C   0  0  2  0  0  0  0  0  0  0  0  0
   10.5927  -16.9811   21.0393 N   0  0  0  0  0  0  0  0  0  0  0  0
   10.9769  -16.1802   23.2372 C   0  0  0  0  0  0  0  0  0  0  0  0
   10.3180  -15.1046   22.9802 O   0  0  0  0  0  0  0  0  0  0  0  0
   11.1072  -16.4670   24.6021 N   0  0  0  0  0  0  0  0  0  0  0  0
   10.0516  -16.3251   25.5527 C   0  0  1  0  0  0  0  0  0  0  0  0
    8.6810  -16.2764   24.9100 C   0  0  0  0  0  0  0  0  0  0  0  0
    8.0610  -14.5785   25.1020 S   0  0  0  0  0  0  0  0  0  0  0  0
   10.0906  -17.3369   26.6311 C   0  0  0  0  0  0  0  0  0  0  0  0
   10.4805  -18.5081   26.3914 O   0  0  0  0  0  0  0  0  0  0  0  0
    9.7096  -17.0567   27.9290 O   0  0  0  0  0  0  0  0  0  0  0  0
  2  3  1  0
  2  1  1  0
  3  5  1  0
  3  4  1  1
  5  6  2  0
  7  8  1  0
  8 10  1  0
  8  9  2  0
 11 10  1  6
 11 13  1  0
 12 11  1  0
 12  5  1  0
 13 15  1  0
 14 13  2  0
 15 16  1  0
 16 17  1  6
 17 18  1  0
 19 21  1  0
 19 16  1  0
 20 19  2  0
M  END
$$$$
