SNC.pdb
     RDKit          3D

 21 20  0  0  1  0  0  0  0  0999 V2000
    8.4191  -12.7435   18.3448 O   0  0  0  0  0  0  0  0  0  0  0  0
    7.8892  -13.2580   19.5276 C   0  0  0  0  0  0  0  0  0  0  0  0
    8.0267  -14.7688   19.5265 C   0  0  2  0  0  0  0  0  0  0  0  0
    7.1134  -15.3075   18.5613 N   0  0  0  0  0  0  0  0  0  0  0  0
    7.7267  -15.3166   20.8997 C   0  0  0  0  0  0  0  0  0  0  0  0
    6.5523  -15.4271   21.2625 O   0  0  0  0  0  0  0  0  0  0  0  0
   12.3101  -16.3767   22.7489 N   0  0  0  0  0  0  0  0  0  0  0  0
   11.1032  -17.0102   22.3865 C   0  0  0  0  0  0  0  0  0  0  0  0
   11.0644  -17.4483   21.1834 O   0  0  0  0  0  0  0  0  0  0  0  0
    9.9783  -17.1476   23.3407 C   0  0  0  0  0  0  0  0  0  0  0  0
    8.8059  -16.2419   23.0352 C   0  0  2  0  0  0  0  0  0  0  0  0
    8.7704  -15.6838   21.7205 N   0  0  0  0  0  0  0  0  0  0  0  0
    8.8705  -15.1477   24.0276 C   0  0  0  0  0  0  0  0  0  0  0  0
    9.5793  -14.1019   23.7803 O   0  0  0  0  0  0  0  0  0  0  0  0
    8.2145  -15.1229   25.2649 N   0  0  0  0  0  0  0  0  0  0  0  0
    8.2386  -14.0111   26.1600 C   0  0  1  0  0  0  0  0  0  0  0  0
    6.9338  -13.2422   26.1815 C   0  0  0  0  0  0  0  0  0  0  0  0
    7.1507  -11.8538   27.3345 S   0  0  0  0  0  0  0  0  0  0  0  0
    8.6602  -14.3688   27.5320 C   0  0  0  0  0  0  0  0  0  0  0  0
    8.7877  -13.4789   28.4112 O   0  0  0  0  0  0  0  0  0  0  0  0
    8.9305  -15.6690   27.9126 O   0  0  0  0  0  0  0  0  0  0  0  0
  2  3  1  0
  2  1  1  0
  3  5  1  0
  3  4  1  6
  5  6  2  0
  7  8  1  0
  8 10  1  0
  8  9  2  0
 11 10  1  6
 11 13  1  0
 12 11  1  0
 12  5  1  0
 13 15  1  0
 14 13  2  0
 15 16  1  0
 16 17  1  1
 17 18  1  0
 19 21  1  0
 19 16  1  0
 20 19  2  0
M  END
$$$$
