SNC.pdb
     RDKit          3D

 21 20  0  0  1  0  0  0  0  0999 V2000
    6.9150  -19.3841   17.4513 O   0  0  0  0  0  0  0  0  0  0  0  0
    7.7851  -18.3385   17.7587 C   0  0  0  0  0  0  0  0  0  0  0  0
    8.0615  -18.3345   19.2502 C   0  0  2  0  0  0  0  0  0  0  0  0
    6.8216  -18.1334   19.9418 N   0  0  0  0  0  0  0  0  0  0  0  0
    9.0399  -17.2384   19.5921 C   0  0  0  0  0  0  0  0  0  0  0  0
   10.2506  -17.4578   19.4957 O   0  0  0  0  0  0  0  0  0  0  0  0
    6.5476  -12.7157   18.7718 N   0  0  0  0  0  0  0  0  0  0  0  0
    7.8253  -13.2876   18.9441 C   0  0  0  0  0  0  0  0  0  0  0  0
    8.4433  -13.5642   17.8566 O   0  0  0  0  0  0  0  0  0  0  0  0
    8.3905  -13.5408   20.2899 C   0  0  0  0  0  0  0  0  0  0  0  0
    9.2215  -14.8020   20.3745 C   0  0  2  0  0  0  0  0  0  0  0  0
    8.5617  -16.0138   20.0040 N   0  0  0  0  0  0  0  0  0  0  0  0
    9.6667  -14.8997   21.7810 C   0  0  0  0  0  0  0  0  0  0  0  0
    9.5165  -13.8938   22.5701 O   0  0  0  0  0  0  0  0  0  0  0  0
   10.2615  -16.0191   22.3770 N   0  0  0  0  0  0  0  0  0  0  0  0
   10.3282  -16.2328   23.7870 C   0  0  1  0  0  0  0  0  0  0  0  0
    8.9673  -16.2160   24.4515 C   0  0  0  0  0  0  0  0  0  0  0  0
    9.2329  -16.5341   26.2214 S   0  0  0  0  0  0  0  0  0  0  0  0
   11.0815  -17.4490   24.1631 C   0  0  0  0  0  0  0  0  0  0  0  0
   11.5936  -17.5524   25.3069 O   0  0  0  0  0  0  0  0  0  0  0  0
   11.2591  -18.5119   23.2987 O   0  0  0  0  0  0  0  0  0  0  0  0
  2  3  1  0
  2  1  1  0
  3  5  1  0
  3  4  1  1
  5  6  2  0
  7  8  1  0
  8 10  1  0
  8  9  2  0
 11 10  1  1
 11 13  1  0
 12 11  1  0
 12  5  1  0
 13 15  1  0
 14 13  2  0
 15 16  1  0
 16 17  1  6
 17 18  1  0
 19 21  1  0
 19 16  1  0
 20 19  2  0
M  END
$$$$
