PSN.pdb
     RDKit          3D

 22 22  0  0  1  0  0  0  0  0999 V2000
    7.9846  -15.0178   17.9715 N   0  0  0  0  0  0  0  0  0  0  0  0
    7.3600  -14.5718   16.7382 C   0  0  0  0  0  0  0  0  0  0  0  0
    7.9222  -13.2291   16.4026 C   0  0  0  0  0  0  0  0  0  0  0  0
    8.6387  -12.8253   17.6947 C   0  0  0  0  0  0  0  0  0  0  0  0
    9.1012  -14.1554   18.2047 C   0  0  1  0  0  0  0  0  0  0  0  0
    9.5427  -14.1460   19.6152 C   0  0  0  0  0  0  0  0  0  0  0  0
   10.7320  -13.8056   19.9380 O   0  0  0  0  0  0  0  0  0  0  0  0
    7.2506  -15.8497   22.7475 O   0  0  0  0  0  0  0  0  0  0  0  0
    8.0053  -14.7259   22.9754 C   0  0  0  0  0  0  0  0  0  0  0  0
    9.2167  -14.5931   22.0784 C   0  0  2  0  0  0  0  0  0  0  0  0
    8.7193  -14.5023   20.7193 N   0  0  0  0  0  0  0  0  0  0  0  0
   10.2006  -15.6579   22.2602 C   0  0  0  0  0  0  0  0  0  0  0  0
   10.1425  -16.7017   21.5432 O   0  0  0  0  0  0  0  0  0  0  0  0
   14.3539  -14.2260   21.9110 N   0  0  0  0  0  0  0  0  0  0  0  0
   14.0175  -15.5968   21.9992 C   0  0  0  0  0  0  0  0  0  0  0  0
   14.0694  -16.2838   20.9482 O   0  0  0  0  0  0  0  0  0  0  0  0
   13.6290  -16.1373   23.3052 C   0  0  0  0  0  0  0  0  0  0  0  0
   12.2271  -16.6697   23.3649 C   0  0  2  0  0  0  0  0  0  0  0  0
   11.2416  -15.5870   23.2163 N   0  0  0  0  0  0  0  0  0  0  0  0
   11.9872  -17.2746   24.6915 C   0  0  0  0  0  0  0  0  0  0  0  0
   11.1189  -16.7595   25.4299 O   0  0  0  0  0  0  0  0  0  0  0  0
   12.6735  -18.3783   25.1543 O   0  0  0  0  0  0  0  0  0  0  0  0
  1  5  1  0
  2  3  1  0
  2  1  1  0
  3  4  1  0
  4  5  1  0
  6 11  1  0
  5  6  1  1
  7  6  2  0
  8  9  1  0
 10 11  1  0
 10  9  1  1
 12 10  1  0
 12 19  1  0
 13 12  2  0
 15 14  1  0
 16 15  2  0
 17 15  1  0
 18 19  1  0
 18 17  1  1
 20 18  1  0
 21 20  2  0
 22 20  1  0
M  END
$$$$
