PSN.pdb
     RDKit          3D

 22 22  0  0  1  0  0  0  0  0999 V2000
    8.9720  -14.8612   19.0602 N   0  0  0  0  0  0  0  0  0  0  0  0
    8.7627  -14.2078   17.7798 C   0  0  0  0  0  0  0  0  0  0  0  0
    8.0386  -12.9265   18.0353 C   0  0  0  0  0  0  0  0  0  0  0  0
    7.5738  -13.0794   19.4867 C   0  0  0  0  0  0  0  0  0  0  0  0
    8.6897  -13.8897   20.0709 C   0  0  1  0  0  0  0  0  0  0  0  0
    8.3808  -14.4921   21.3848 C   0  0  0  0  0  0  0  0  0  0  0  0
    8.0843  -13.7678   22.3957 O   0  0  0  0  0  0  0  0  0  0  0  0
    9.1704  -18.5753   22.4974 O   0  0  0  0  0  0  0  0  0  0  0  0
    7.9856  -17.9427   22.7810 C   0  0  0  0  0  0  0  0  0  0  0  0
    8.1033  -16.4448   22.9607 C   0  0  2  0  0  0  0  0  0  0  0  0
    8.3818  -15.8898   21.6504 N   0  0  0  0  0  0  0  0  0  0  0  0
    9.0820  -16.0505   23.9715 C   0  0  0  0  0  0  0  0  0  0  0  0
   10.2422  -15.6814   23.6183 O   0  0  0  0  0  0  0  0  0  0  0  0
   11.2606  -13.7389   28.2323 N   0  0  0  0  0  0  0  0  0  0  0  0
   10.0508  -14.4129   28.5186 C   0  0  0  0  0  0  0  0  0  0  0  0
    9.7984  -14.6836   29.7195 O   0  0  0  0  0  0  0  0  0  0  0  0
    9.1629  -14.7565   27.4040 C   0  0  0  0  0  0  0  0  0  0  0  0
    9.7942  -15.6183   26.3499 C   0  0  2  0  0  0  0  0  0  0  0  0
    8.7997  -16.0578   25.3583 N   0  0  0  0  0  0  0  0  0  0  0  0
   10.3320  -16.8445   26.9748 C   0  0  0  0  0  0  0  0  0  0  0  0
    9.6545  -17.8934   26.9021 O   0  0  0  0  0  0  0  0  0  0  0  0
   11.5435  -16.8883   27.6334 O   0  0  0  0  0  0  0  0  0  0  0  0
  1  5  1  0
  2  3  1  0
  2  1  1  0
  3  4  1  0
  4  5  1  0
  6 11  1  0
  5  6  1  1
  7  6  2  0
  8  9  1  0
 10 11  1  0
 10  9  1  6
 12 10  1  0
 12 19  1  0
 13 12  2  0
 15 14  1  0
 16 15  2  0
 17 15  1  0
 18 19  1  0
 18 17  1  1
 20 18  1  0
 21 20  2  0
 22 20  1  0
M  END
$$$$
