PSN.pdb
     RDKit          3D

 22 22  0  0  1  0  0  0  0  0999 V2000
    7.8281  -15.1676   19.1411 N   0  0  0  0  0  0  0  0  0  0  0  0
    7.2710  -14.6409   17.9072 C   0  0  0  0  0  0  0  0  0  0  0  0
    7.7023  -13.2161   17.7844 C   0  0  0  0  0  0  0  0  0  0  0  0
    8.2469  -12.9016   19.1811 C   0  0  0  0  0  0  0  0  0  0  0  0
    8.8117  -14.2289   19.5842 C   0  0  1  0  0  0  0  0  0  0  0  0
    9.1189  -14.3469   21.0251 C   0  0  0  0  0  0  0  0  0  0  0  0
   10.1094  -13.7295   21.5470 O   0  0  0  0  0  0  0  0  0  0  0  0
    7.5718  -15.4997   25.4695 O   0  0  0  0  0  0  0  0  0  0  0  0
    7.4248  -15.2861   24.1215 C   0  0  0  0  0  0  0  0  0  0  0  0
    8.7247  -15.2552   23.3474 C   0  0  2  0  0  0  0  0  0  0  0  0
    8.3711  -15.1315   21.9466 N   0  0  0  0  0  0  0  0  0  0  0  0
    9.5976  -16.3944   23.6213 C   0  0  0  0  0  0  0  0  0  0  0  0
    9.3296  -17.5300   23.1257 O   0  0  0  0  0  0  0  0  0  0  0  0
   14.0084  -15.1981   23.3280 N   0  0  0  0  0  0  0  0  0  0  0  0
   13.4973  -16.5166   23.3427 C   0  0  0  0  0  0  0  0  0  0  0  0
   13.4362  -17.1358   22.2508 O   0  0  0  0  0  0  0  0  0  0  0  0
   13.0693  -17.0848   24.6243 C   0  0  0  0  0  0  0  0  0  0  0  0
   11.6182  -17.4634   24.6823 C   0  0  2  0  0  0  0  0  0  0  0  0
   10.7554  -16.2984   24.4295 N   0  0  0  0  0  0  0  0  0  0  0  0
   11.2887  -17.9409   26.0412 C   0  0  0  0  0  0  0  0  0  0  0  0
   11.5203  -19.1377   26.3217 O   0  0  0  0  0  0  0  0  0  0  0  0
   10.7388  -17.1319   27.0140 O   0  0  0  0  0  0  0  0  0  0  0  0
  1  5  1  0
  2  3  1  0
  2  1  1  0
  3  4  1  0
  4  5  1  0
  6 11  1  0
  5  6  1  1
  7  6  2  0
  8  9  1  0
 10 11  1  0
 10  9  1  1
 12 10  1  0
 12 19  1  0
 13 12  2  0
 15 14  1  0
 16 15  2  0
 17 15  1  0
 18 19  1  0
 18 17  1  1
 20 18  1  0
 21 20  2  0
 22 20  1  0
M  END
$$$$
