PSN.pdb
     RDKit          3D

 22 22  0  0  1  0  0  0  0  0999 V2000
    7.1092  -14.9778   19.6840 N   0  0  0  0  0  0  0  0  0  0  0  0
    6.4671  -14.4233   18.5049 C   0  0  0  0  0  0  0  0  0  0  0  0
    7.2866  -13.2628   18.0433 C   0  0  0  0  0  0  0  0  0  0  0  0
    8.2247  -13.0132   19.2281 C   0  0  0  0  0  0  0  0  0  0  0  0
    8.4171  -14.4034   19.7511 C   0  0  1  0  0  0  0  0  0  0  0  0
    9.0107  -14.4679   21.1031 C   0  0  0  0  0  0  0  0  0  0  0  0
   10.2457  -14.2031   21.3009 O   0  0  0  0  0  0  0  0  0  0  0  0
    6.7941  -15.4616   24.6235 O   0  0  0  0  0  0  0  0  0  0  0  0
    7.8432  -14.5765   24.6023 C   0  0  0  0  0  0  0  0  0  0  0  0
    8.9175  -14.9036   23.5880 C   0  0  2  0  0  0  0  0  0  0  0  0
    8.2948  -14.8190   22.2812 N   0  0  0  0  0  0  0  0  0  0  0  0
    9.5795  -16.1840   23.8272 C   0  0  0  0  0  0  0  0  0  0  0  0
    9.1008  -17.2464   23.3280 O   0  0  0  0  0  0  0  0  0  0  0  0
   12.9711  -19.7320   23.8792 N   0  0  0  0  0  0  0  0  0  0  0  0
   13.6776  -18.6381   24.4307 C   0  0  0  0  0  0  0  0  0  0  0  0
   14.9191  -18.7573   24.5848 O   0  0  0  0  0  0  0  0  0  0  0  0
   12.9261  -17.4320   24.7902 C   0  0  0  0  0  0  0  0  0  0  0  0
   11.4351  -17.6016   24.7750 C   0  0  2  0  0  0  0  0  0  0  0  0
   10.7555  -16.3075   24.6048 N   0  0  0  0  0  0  0  0  0  0  0  0
   10.9885  -18.1406   26.0763 C   0  0  0  0  0  0  0  0  0  0  0  0
   11.1905  -19.3511   26.3177 O   0  0  0  0  0  0  0  0  0  0  0  0
   10.3604  -17.3743   27.0364 O   0  0  0  0  0  0  0  0  0  0  0  0
  1  5  1  0
  2  3  1  0
  2  1  1  0
  3  4  1  0
  4  5  1  0
  6 11  1  0
  5  6  1  1
  7  6  2  0
  8  9  1  0
 10 11  1  0
 10  9  1  1
 12 10  1  0
 12 19  1  0
 13 12  2  0
 15 14  1  0
 16 15  2  0
 17 15  1  0
 18 19  1  0
 18 17  1  1
 20 18  1  0
 21 20  2  0
 22 20  1  0
M  END
$$$$
