PSN.pdb
     RDKit          3D

 22 22  0  0  1  0  0  0  0  0999 V2000
    8.0451  -14.8750   18.6773 N   0  0  0  0  0  0  0  0  0  0  0  0
    7.2938  -14.4172   17.5214 C   0  0  0  0  0  0  0  0  0  0  0  0
    7.7959  -13.0573   17.1612 C   0  0  0  0  0  0  0  0  0  0  0  0
    8.6294  -12.6648   18.3849 C   0  0  0  0  0  0  0  0  0  0  0  0
    9.1637  -13.9953   18.8180 C   0  0  1  0  0  0  0  0  0  0  0  0
    9.7423  -14.0049   20.1780 C   0  0  0  0  0  0  0  0  0  0  0  0
   10.8348  -13.3950   20.4407 O   0  0  0  0  0  0  0  0  0  0  0  0
    7.8647  -15.8635   23.5229 O   0  0  0  0  0  0  0  0  0  0  0  0
    8.6783  -14.7621   23.6197 C   0  0  0  0  0  0  0  0  0  0  0  0
    9.7950  -14.7175   22.5993 C   0  0  2  0  0  0  0  0  0  0  0  0
    9.1640  -14.6702   21.2947 N   0  0  0  0  0  0  0  0  0  0  0  0
   10.7560  -15.8099   22.7335 C   0  0  0  0  0  0  0  0  0  0  0  0
   10.6142  -16.8650   22.0453 O   0  0  0  0  0  0  0  0  0  0  0  0
   14.1871  -14.4412   21.9963 N   0  0  0  0  0  0  0  0  0  0  0  0
   14.6052  -15.7589   22.2945 C   0  0  0  0  0  0  0  0  0  0  0  0
   15.2637  -16.3786   21.4218 O   0  0  0  0  0  0  0  0  0  0  0  0
   14.2489  -16.3256   23.5985 C   0  0  0  0  0  0  0  0  0  0  0  0
   12.8451  -16.8493   23.6856 C   0  0  2  0  0  0  0  0  0  0  0  0
   11.8648  -15.7542   23.6112 N   0  0  0  0  0  0  0  0  0  0  0  0
   12.6444  -17.5020   24.9959 C   0  0  0  0  0  0  0  0  0  0  0  0
   11.7936  -17.0189   25.7750 O   0  0  0  0  0  0  0  0  0  0  0  0
   13.3490  -18.6169   25.4007 O   0  0  0  0  0  0  0  0  0  0  0  0
  1  5  1  0
  2  3  1  0
  2  1  1  0
  3  4  1  0
  4  5  1  0
  6 11  1  0
  5  6  1  1
  7  6  2  0
  8  9  1  0
 10 11  1  0
 10  9  1  1
 12 10  1  0
 12 19  1  0
 13 12  2  0
 15 14  1  0
 16 15  2  0
 17 15  1  0
 18 19  1  0
 18 17  1  1
 20 18  1  0
 21 20  2  0
 22 20  1  0
M  END
$$$$
