PSN.pdb
     RDKit          3D

 22 22  0  0  1  0  0  0  0  0999 V2000
    7.9867  -15.0145   18.2130 N   0  0  0  0  0  0  0  0  0  0  0  0
    7.4309  -14.5448   16.9559 C   0  0  0  0  0  0  0  0  0  0  0  0
    8.0543  -13.2227   16.6479 C   0  0  0  0  0  0  0  0  0  0  0  0
    8.7300  -12.8465   17.9700 C   0  0  0  0  0  0  0  0  0  0  0  0
    9.1227  -14.1930   18.4953 C   0  0  1  0  0  0  0  0  0  0  0  0
    9.5046  -14.2012   19.9230 C   0  0  0  0  0  0  0  0  0  0  0  0
   10.6338  -13.7453   20.3125 O   0  0  0  0  0  0  0  0  0  0  0  0
    7.0641  -15.8383   23.0418 O   0  0  0  0  0  0  0  0  0  0  0  0
    7.8070  -14.6925   23.1824 C   0  0  0  0  0  0  0  0  0  0  0  0
    9.0819  -14.6695   22.3675 C   0  0  2  0  0  0  0  0  0  0  0  0
    8.6845  -14.6995   20.9733 N   0  0  0  0  0  0  0  0  0  0  0  0
   10.0224  -15.7307   22.7199 C   0  0  0  0  0  0  0  0  0  0  0  0
    9.9293  -16.8675   22.1668 O   0  0  0  0  0  0  0  0  0  0  0  0
   14.2614  -15.0816   22.2190 N   0  0  0  0  0  0  0  0  0  0  0  0
   14.2049  -16.2215   23.0541 C   0  0  0  0  0  0  0  0  0  0  0  0
   14.8859  -17.2253   22.7256 O   0  0  0  0  0  0  0  0  0  0  0  0
   13.3594  -16.1689   24.2503 C   0  0  0  0  0  0  0  0  0  0  0  0
   11.9567  -16.6598   24.0415 C   0  0  2  0  0  0  0  0  0  0  0  0
   11.0582  -15.5557   23.6683 N   0  0  0  0  0  0  0  0  0  0  0  0
   11.4357  -17.2128   25.3088 C   0  0  0  0  0  0  0  0  0  0  0  0
   11.9769  -18.2398   25.7746 O   0  0  0  0  0  0  0  0  0  0  0  0
   10.3829  -16.6521   26.0019 O   0  0  0  0  0  0  0  0  0  0  0  0
  1  5  1  0
  2  3  1  0
  2  1  1  0
  3  4  1  0
  4  5  1  0
  6 11  1  0
  5  6  1  1
  7  6  2  0
  8  9  1  0
 10 11  1  0
 10  9  1  1
 12 10  1  0
 12 19  1  0
 13 12  2  0
 15 14  1  0
 16 15  2  0
 17 15  1  0
 18 19  1  0
 18 17  1  1
 20 18  1  0
 21 20  2  0
 22 20  1  0
M  END
$$$$
