PSN.pdb
     RDKit          3D

 22 22  0  0  1  0  0  0  0  0999 V2000
    8.3747  -15.3382   20.1579 N   0  0  0  0  0  0  0  0  0  0  0  0
    8.3407  -14.7598   18.8259 C   0  0  0  0  0  0  0  0  0  0  0  0
    8.1306  -13.2883   18.9734 C   0  0  0  0  0  0  0  0  0  0  0  0
    7.7208  -13.1466   20.4425 C   0  0  0  0  0  0  0  0  0  0  0  0
    8.5085  -14.2510   21.0772 C   0  0  1  0  0  0  0  0  0  0  0  0
    8.0782  -14.5944   22.4489 C   0  0  0  0  0  0  0  0  0  0  0  0
    8.1684  -13.7510   23.4054 O   0  0  0  0  0  0  0  0  0  0  0  0
    7.0194  -18.5743   23.7759 O   0  0  0  0  0  0  0  0  0  0  0  0
    6.3612  -17.4332   24.1621 C   0  0  0  0  0  0  0  0  0  0  0  0
    7.2297  -16.1948   24.2073 C   0  0  2  0  0  0  0  0  0  0  0  0
    7.5389  -15.8538   22.8323 N   0  0  0  0  0  0  0  0  0  0  0  0
    8.4184  -16.3424   25.0440 C   0  0  0  0  0  0  0  0  0  0  0  0
    9.5415  -16.5870   24.5094 O   0  0  0  0  0  0  0  0  0  0  0  0
    8.6307  -13.0498   28.4336 N   0  0  0  0  0  0  0  0  0  0  0  0
    9.6041  -13.9251   27.8986 C   0  0  0  0  0  0  0  0  0  0  0  0
   10.4055  -13.4638   27.0477 O   0  0  0  0  0  0  0  0  0  0  0  0
    9.6239  -15.3149   28.3642 C   0  0  0  0  0  0  0  0  0  0  0  0
    9.6068  -16.3380   27.2663 C   0  0  2  0  0  0  0  0  0  0  0  0
    8.3851  -16.2241   26.4539 N   0  0  0  0  0  0  0  0  0  0  0  0
    9.5917  -17.6924   27.8568 C   0  0  0  0  0  0  0  0  0  0  0  0
    8.5728  -18.3993   27.6935 O   0  0  0  0  0  0  0  0  0  0  0  0
   10.6454  -18.2141   28.5784 O   0  0  0  0  0  0  0  0  0  0  0  0
  1  5  1  0
  2  3  1  0
  2  1  1  0
  3  4  1  0
  4  5  1  0
  6 11  1  0
  5  6  1  1
  7  6  2  0
  8  9  1  0
 10 11  1  0
 10  9  1  6
 12 10  1  0
 12 19  1  0
 13 12  2  0
 15 14  1  0
 16 15  2  0
 17 15  1  0
 18 19  1  0
 18 17  1  1
 20 18  1  0
 21 20  2  0
 22 20  1  0
M  END
$$$$
