PSN.pdb
     RDKit          3D

 22 22  0  0  1  0  0  0  0  0999 V2000
    7.0363  -14.9175   19.4623 N   0  0  0  0  0  0  0  0  0  0  0  0
    6.3030  -14.2991   18.3715 C   0  0  0  0  0  0  0  0  0  0  0  0
    7.0351  -13.0585   17.9761 C   0  0  0  0  0  0  0  0  0  0  0  0
    8.0225  -12.8610   19.1303 C   0  0  0  0  0  0  0  0  0  0  0  0
    8.3145  -14.2786   19.5156 C   0  0  1  0  0  0  0  0  0  0  0  0
    8.9837  -14.4275   20.8250 C   0  0  0  0  0  0  0  0  0  0  0  0
   10.2135  -14.1155   20.9831 O   0  0  0  0  0  0  0  0  0  0  0  0
    7.2567  -16.3393   24.2525 O   0  0  0  0  0  0  0  0  0  0  0  0
    7.9269  -15.1437   24.3296 C   0  0  0  0  0  0  0  0  0  0  0  0
    9.0132  -14.9672   23.2910 C   0  0  2  0  0  0  0  0  0  0  0  0
    8.3512  -14.9160   22.0019 N   0  0  0  0  0  0  0  0  0  0  0  0
   10.0605  -15.9838   23.3591 C   0  0  0  0  0  0  0  0  0  0  0  0
    9.9256  -17.0739   22.7263 O   0  0  0  0  0  0  0  0  0  0  0  0
   15.3489  -17.7549   23.3729 N   0  0  0  0  0  0  0  0  0  0  0  0
   14.7212  -17.2402   24.5310 C   0  0  0  0  0  0  0  0  0  0  0  0
   15.1205  -17.6528   25.6488 O   0  0  0  0  0  0  0  0  0  0  0  0
   13.6452  -16.2589   24.3637 C   0  0  0  0  0  0  0  0  0  0  0  0
   12.2844  -16.8580   24.1597 C   0  0  2  0  0  0  0  0  0  0  0  0
   11.2474  -15.8150   24.1111 N   0  0  0  0  0  0  0  0  0  0  0  0
   11.9519  -17.7253   25.3088 C   0  0  0  0  0  0  0  0  0  0  0  0
   12.1211  -18.9588   25.1894 O   0  0  0  0  0  0  0  0  0  0  0  0
   11.4645  -17.2410   26.5052 O   0  0  0  0  0  0  0  0  0  0  0  0
  1  5  1  0
  2  3  1  0
  2  1  1  0
  3  4  1  0
  4  5  1  0
  6 11  1  0
  5  6  1  1
  7  6  2  0
  8  9  1  0
 10 11  1  0
 10  9  1  1
 12 10  1  0
 12 19  1  0
 13 12  2  0
 15 14  1  0
 16 15  2  0
 17 15  1  0
 18 19  1  0
 18 17  1  1
 20 18  1  0
 21 20  2  0
 22 20  1  0
M  END
$$$$
