KWC.pdb
     RDKit          3D

 30 31  0  0  1  0  0  0  0  0999 V2000
   28.3822  -23.1091  -16.1174 N   0  0  0  0  0  0  0  0  0  0  0  0
   27.1437  -22.3651  -16.1898 C   0  0  1  0  0  0  0  0  0  0  0  0
   26.1973  -22.8243  -17.2474 C   0  0  0  0  0  0  0  0  0  0  0  0
   26.4359  -22.3685  -18.6317 C   0  0  0  0  0  0  0  0  0  0  0  0
   27.4307  -21.2486  -18.7108 C   0  0  0  0  0  0  0  0  0  0  0  0
   27.4879  -20.8094  -20.1956 C   0  0  0  0  0  0  0  0  0  0  0  0
   28.4309  -19.7286  -20.2568 N   0  0  0  0  0  0  0  0  0  0  0  0
   26.4431  -22.4485  -14.8988 C   0  0  0  0  0  0  0  0  0  0  0  0
   25.9662  -23.5203  -14.5096 O   0  0  0  0  0  0  0  0  0  0  0  0
   26.3062  -21.3077  -14.0872 N   0  0  0  0  0  0  0  0  0  0  0  0
   25.6368  -21.2661  -12.8359 C   0  0  1  0  0  0  0  0  0  0  0  0
   26.0196  -20.1688  -11.8900 C   0  0  0  0  0  0  0  0  0  0  0  0
   27.1586  -20.5720  -11.0250 C   0  0  0  0  0  0  0  0  0  0  0  0
   28.3771  -21.1059  -11.4568 C   0  0  0  0  0  0  0  0  0  0  0  0
   29.1721  -21.3302  -10.4067 N   0  0  0  0  0  0  0  0  0  0  0  0
   28.5147  -20.9602   -9.2898 C   0  0  0  0  0  0  0  0  0  0  0  0
   28.9205  -21.0064   -7.9604 C   0  0  0  0  0  0  0  0  0  0  0  0
   28.0381  -20.5668   -7.0053 C   0  0  0  0  0  0  0  0  0  0  0  0
   26.7790  -20.0904   -7.3513 C   0  0  0  0  0  0  0  0  0  0  0  0
   26.3985  -20.0533   -8.6684 C   0  0  0  0  0  0  0  0  0  0  0  0
   27.2845  -20.4956   -9.6470 C   0  0  0  0  0  0  0  0  0  0  0  0
   24.1800  -21.1395  -13.0874 C   0  0  0  0  0  0  0  0  0  0  0  0
   23.8241  -20.5814  -14.1599 O   0  0  0  0  0  0  0  0  0  0  0  0
   23.2059  -21.6200  -12.1720 N   0  0  0  0  0  0  0  0  0  0  0  0
   21.8066  -21.5279  -12.4748 C   0  0  1  0  0  0  0  0  0  0  0  0
   20.9420  -22.1410  -11.3897 C   0  0  0  0  0  0  0  0  0  0  0  0
   21.4493  -21.4690   -9.7813 S   0  0  0  0  0  0  0  0  0  0  0  0
   21.4233  -20.1020  -12.5638 C   0  0  0  0  0  0  0  0  0  0  0  0
   20.1443  -19.7739  -12.9743 O   0  0  0  0  0  0  0  0  0  0  0  0
   22.2544  -19.1911  -12.2683 O   0  0  0  0  0  0  0  0  0  0  0  0
  2  8  1  0
  2  1  1  1
  3  4  1  0
  3  2  1  0
  5  6  1  0
  5  4  1  0
  6  7  1  0
  8  9  2  0
 10 11  1  0
 10  8  1  0
 11 12  1  1
 13 12  1  0
 14 13  2  0
 15 14  1  0
 16 15  1  0
 16 21  2  0
 17 16  1  0
 18 17  2  0
 18 19  1  0
 19 20  2  0
 20 21  1  0
 21 13  1  0
 22 11  1  0
 23 22  2  0
 24 22  1  0
 25 26  1  1
 25 24  1  0
 26 27  1  0
 28 29  1  0
 28 25  1  0
 30 28  2  0
M  END
$$$$
