KWC.pdb
     RDKit          3D

 30 31  0  0  1  0  0  0  0  0999 V2000
   28.2653  -21.7930  -14.9341 N   0  0  0  0  0  0  0  0  0  0  0  0
   27.0651  -20.9873  -14.9902 C   0  0  1  0  0  0  0  0  0  0  0  0
   26.3166  -21.0663  -16.2781 C   0  0  0  0  0  0  0  0  0  0  0  0
   26.9811  -20.5566  -17.4945 C   0  0  0  0  0  0  0  0  0  0  0  0
   27.7315  -19.2801  -17.2545 C   0  0  0  0  0  0  0  0  0  0  0  0
   28.3369  -18.8579  -18.6169 C   0  0  0  0  0  0  0  0  0  0  0  0
   29.0862  -17.6591  -18.3671 N   0  0  0  0  0  0  0  0  0  0  0  0
   26.1470  -21.3961  -13.9159 C   0  0  0  0  0  0  0  0  0  0  0  0
   25.4243  -22.3899  -14.0498 O   0  0  0  0  0  0  0  0  0  0  0  0
   26.0786  -20.6609  -12.7185 N   0  0  0  0  0  0  0  0  0  0  0  0
   25.2401  -20.9666  -11.6143 C   0  0  1  0  0  0  0  0  0  0  0  0
   25.5512  -20.2955  -10.3113 C   0  0  0  0  0  0  0  0  0  0  0  0
   26.8811  -20.7087   -9.7929 C   0  0  0  0  0  0  0  0  0  0  0  0
   27.7839  -21.5706  -10.4242 C   0  0  0  0  0  0  0  0  0  0  0  0
   28.8857  -21.6988   -9.6795 N   0  0  0  0  0  0  0  0  0  0  0  0
   28.7389  -20.9461   -8.5711 C   0  0  0  0  0  0  0  0  0  0  0  0
   29.6063  -20.7582   -7.5003 C   0  0  0  0  0  0  0  0  0  0  0  0
   29.1991  -19.9312   -6.4832 C   0  0  0  0  0  0  0  0  0  0  0  0
   27.9610  -19.3003   -6.5184 C   0  0  0  0  0  0  0  0  0  0  0  0
   27.1207  -19.4991   -7.5839 C   0  0  0  0  0  0  0  0  0  0  0  0
   27.5220  -20.3350   -8.6225 C   0  0  0  0  0  0  0  0  0  0  0  0
   23.8455  -20.6066  -11.9709 C   0  0  0  0  0  0  0  0  0  0  0  0
   23.6796  -19.6107  -12.7251 O   0  0  0  0  0  0  0  0  0  0  0  0
   22.7258  -21.3392  -11.4941 N   0  0  0  0  0  0  0  0  0  0  0  0
   21.4384  -21.1944  -12.1106 C   0  0  1  0  0  0  0  0  0  0  0  0
   21.2595  -22.1266  -13.2938 C   0  0  0  0  0  0  0  0  0  0  0  0
   19.5631  -21.9659  -13.9201 S   0  0  0  0  0  0  0  0  0  0  0  0
   20.3895  -21.5511  -11.1305 C   0  0  0  0  0  0  0  0  0  0  0  0
   19.2427  -20.7813  -11.0630 O   0  0  0  0  0  0  0  0  0  0  0  0
   20.5374  -22.5485  -10.3617 O   0  0  0  0  0  0  0  0  0  0  0  0
  2  8  1  0
  2  1  1  6
  3  4  1  0
  3  2  1  0
  5  6  1  0
  5  4  1  0
  6  7  1  0
  8  9  2  0
 10 11  1  0
 10  8  1  0
 11 12  1  1
 13 12  1  0
 14 13  2  0
 15 14  1  0
 16 15  1  0
 16 21  2  0
 17 16  1  0
 18 17  2  0
 18 19  1  0
 19 20  2  0
 20 21  1  0
 21 13  1  0
 22 11  1  0
 23 22  2  0
 24 22  1  0
 25 26  1  6
 25 24  1  0
 26 27  1  0
 28 29  1  0
 28 25  1  0
 30 28  2  0
M  END
$$$$
