KWC.pdb
     RDKit          3D

 30 31  0  0  1  0  0  0  0  0999 V2000
   29.1410  -22.3672  -15.8433 N   0  0  0  0  0  0  0  0  0  0  0  0
   27.8404  -21.8294  -16.1778 C   0  0  1  0  0  0  0  0  0  0  0  0
   27.1961  -22.4451  -17.3740 C   0  0  0  0  0  0  0  0  0  0  0  0
   27.6206  -21.9712  -18.7068 C   0  0  0  0  0  0  0  0  0  0  0  0
   28.1459  -20.5663  -18.6831 C   0  0  0  0  0  0  0  0  0  0  0  0
   28.4622  -20.1856  -20.1514 C   0  0  0  0  0  0  0  0  0  0  0  0
   28.9216  -18.8258  -20.1217 N   0  0  0  0  0  0  0  0  0  0  0  0
   26.9263  -22.0072  -15.0389 C   0  0  0  0  0  0  0  0  0  0  0  0
   26.2858  -23.0557  -14.9037 O   0  0  0  0  0  0  0  0  0  0  0  0
   26.7682  -20.9850  -14.0855 N   0  0  0  0  0  0  0  0  0  0  0  0
   25.9367  -21.0552  -12.9369 C   0  0  1  0  0  0  0  0  0  0  0  0
   26.2080  -20.0782  -11.8338 C   0  0  0  0  0  0  0  0  0  0  0  0
   27.3224  -20.5378  -10.9649 C   0  0  0  0  0  0  0  0  0  0  0  0
   28.5516  -21.0472  -11.3959 C   0  0  0  0  0  0  0  0  0  0  0  0
   29.3174  -21.3388  -10.3406 N   0  0  0  0  0  0  0  0  0  0  0  0
   28.6301  -21.0373   -9.2211 C   0  0  0  0  0  0  0  0  0  0  0  0
   28.9995  -21.1674   -7.8866 C   0  0  0  0  0  0  0  0  0  0  0  0
   28.0918  -20.7856   -6.9303 C   0  0  0  0  0  0  0  0  0  0  0  0
   26.8431  -20.2850   -7.2800 C   0  0  0  0  0  0  0  0  0  0  0  0
   26.4989  -20.1648   -8.6020 C   0  0  0  0  0  0  0  0  0  0  0  0
   27.4107  -20.5477   -9.5820 C   0  0  0  0  0  0  0  0  0  0  0  0
   24.5298  -20.8550  -13.3636 C   0  0  0  0  0  0  0  0  0  0  0  0
   24.2991  -19.9208  -14.1775 O   0  0  0  0  0  0  0  0  0  0  0  0
   23.4679  -21.6699  -12.8883 N   0  0  0  0  0  0  0  0  0  0  0  0
   22.1151  -21.4242  -13.2979 C   0  0  1  0  0  0  0  0  0  0  0  0
   21.1716  -22.5270  -12.8569 C   0  0  0  0  0  0  0  0  0  0  0  0
   20.8867  -22.3800  -11.0700 S   0  0  0  0  0  0  0  0  0  0  0  0
   21.6349  -20.1787  -12.6605 C   0  0  0  0  0  0  0  0  0  0  0  0
   20.4035  -19.6673  -13.0271 O   0  0  0  0  0  0  0  0  0  0  0  0
   22.3409  -19.5862  -11.7897 O   0  0  0  0  0  0  0  0  0  0  0  0
  2  8  1  0
  2  1  1  1
  3  4  1  0
  3  2  1  0
  5  6  1  0
  5  4  1  0
  6  7  1  0
  8  9  2  0
 10 11  1  0
 10  8  1  0
 11 12  1  1
 13 12  1  0
 14 13  2  0
 15 14  1  0
 16 15  1  0
 16 21  2  0
 17 16  1  0
 18 17  2  0
 18 19  1  0
 19 20  2  0
 20 21  1  0
 21 13  1  0
 22 11  1  0
 23 22  2  0
 24 22  1  0
 25 26  1  1
 25 24  1  0
 26 27  1  0
 28 29  1  0
 28 25  1  0
 30 28  2  0
M  END
$$$$
