KWC.pdb
     RDKit          3D

 30 31  0  0  1  0  0  0  0  0999 V2000
   28.1015  -21.7338  -15.0081 N   0  0  0  0  0  0  0  0  0  0  0  0
   28.1768  -20.5895  -14.1262 C   0  0  1  0  0  0  0  0  0  0  0  0
   27.7608  -19.2957  -14.7410 C   0  0  0  0  0  0  0  0  0  0  0  0
   27.8526  -19.1687  -16.2095 C   0  0  0  0  0  0  0  0  0  0  0  0
   26.7770  -19.9300  -16.9262 C   0  0  0  0  0  0  0  0  0  0  0  0
   27.0031  -19.6977  -18.4415 C   0  0  0  0  0  0  0  0  0  0  0  0
   25.9556  -20.4112  -19.1159 N   0  0  0  0  0  0  0  0  0  0  0  0
   27.3238  -20.8179  -12.9495 C   0  0  0  0  0  0  0  0  0  0  0  0
   26.3802  -21.6146  -13.0012 O   0  0  0  0  0  0  0  0  0  0  0  0
   27.5706  -20.1320  -11.7463 N   0  0  0  0  0  0  0  0  0  0  0  0
   26.7988  -20.2506  -10.5606 C   0  0  1  0  0  0  0  0  0  0  0  0
   27.1938  -19.3929   -9.3972 C   0  0  0  0  0  0  0  0  0  0  0  0
   26.6882  -19.9510   -8.1163 C   0  0  0  0  0  0  0  0  0  0  0  0
   25.5126  -20.6885   -7.9418 C   0  0  0  0  0  0  0  0  0  0  0  0
   25.3865  -21.0454   -6.6605 N   0  0  0  0  0  0  0  0  0  0  0  0
   26.4458  -20.5648   -5.9796 C   0  0  0  0  0  0  0  0  0  0  0  0
   26.7589  -20.6698   -4.6286 C   0  0  0  0  0  0  0  0  0  0  0  0
   27.9141  -20.0719   -4.1902 C   0  0  0  0  0  0  0  0  0  0  0  0
   28.7464  -19.3829   -5.0645 C   0  0  0  0  0  0  0  0  0  0  0  0
   28.4192  -19.2914   -6.3932 C   0  0  0  0  0  0  0  0  0  0  0  0
   27.2506  -19.8940   -6.8510 C   0  0  0  0  0  0  0  0  0  0  0  0
   25.3878  -19.9262  -10.8852 C   0  0  0  0  0  0  0  0  0  0  0  0
   25.0577  -18.7099  -10.8808 O   0  0  0  0  0  0  0  0  0  0  0  0
   24.4287  -20.9281  -11.1919 N   0  0  0  0  0  0  0  0  0  0  0  0
   23.1639  -20.5792  -11.7726 C   0  0  1  0  0  0  0  0  0  0  0  0
   22.8901  -21.3420  -13.0548 C   0  0  0  0  0  0  0  0  0  0  0  0
   23.3311  -23.0859  -12.8093 S   0  0  0  0  0  0  0  0  0  0  0  0
   22.0827  -20.9383  -10.8293 C   0  0  0  0  0  0  0  0  0  0  0  0
   20.7797  -20.5919  -11.1367 O   0  0  0  0  0  0  0  0  0  0  0  0
   22.3442  -21.5552   -9.7528 O   0  0  0  0  0  0  0  0  0  0  0  0
  2  8  1  0
  2  1  1  6
  3  4  1  0
  3  2  1  0
  5  6  1  0
  5  4  1  0
  6  7  1  0
  8  9  2  0
 10 11  1  0
 10  8  1  0
 11 12  1  1
 13 12  1  0
 14 13  2  0
 15 14  1  0
 16 15  1  0
 16 21  2  0
 17 16  1  0
 18 17  2  0
 18 19  1  0
 19 20  2  0
 20 21  1  0
 21 13  1  0
 22 11  1  0
 23 22  2  0
 24 22  1  0
 25 26  1  6
 25 24  1  0
 26 27  1  0
 28 29  1  0
 28 25  1  0
 30 28  2  0
M  END
$$$$
