KWC.pdb
     RDKit          3D

 30 31  0  0  1  0  0  0  0  0999 V2000
   28.7624  -21.3975  -15.2359 N   0  0  0  0  0  0  0  0  0  0  0  0
   27.8296  -20.4134  -14.7317 C   0  0  1  0  0  0  0  0  0  0  0  0
   26.9938  -19.7500  -15.7741 C   0  0  0  0  0  0  0  0  0  0  0  0
   27.6579  -18.7998  -16.6890 C   0  0  0  0  0  0  0  0  0  0  0  0
   28.2352  -17.6136  -15.9749 C   0  0  0  0  0  0  0  0  0  0  0  0
   28.7803  -16.6596  -17.0675 C   0  0  0  0  0  0  0  0  0  0  0  0
   30.1022  -17.1241  -17.3805 N   0  0  0  0  0  0  0  0  0  0  0  0
   26.9177  -21.0481  -13.7675 C   0  0  0  0  0  0  0  0  0  0  0  0
   26.4287  -22.1590  -14.0009 O   0  0  0  0  0  0  0  0  0  0  0  0
   26.5890  -20.3989  -12.5635 N   0  0  0  0  0  0  0  0  0  0  0  0
   25.6905  -20.8946  -11.5824 C   0  0  1  0  0  0  0  0  0  0  0  0
   25.7636  -20.2846  -10.2157 C   0  0  0  0  0  0  0  0  0  0  0  0
   27.0465  -20.6152   -9.5427 C   0  0  0  0  0  0  0  0  0  0  0  0
   28.0475  -21.4574  -10.0377 C   0  0  0  0  0  0  0  0  0  0  0  0
   29.0674  -21.5055   -9.1761 N   0  0  0  0  0  0  0  0  0  0  0  0
   28.7709  -20.7186   -8.1227 C   0  0  0  0  0  0  0  0  0  0  0  0
   29.5096  -20.4497   -6.9755 C   0  0  0  0  0  0  0  0  0  0  0  0
   28.9610  -19.6044   -6.0435 C   0  0  0  0  0  0  0  0  0  0  0  0
   27.7083  -19.0338   -6.2362 C   0  0  0  0  0  0  0  0  0  0  0  0
   26.9963  -19.3121   -7.3748 C   0  0  0  0  0  0  0  0  0  0  0  0
   27.5417  -20.1674   -8.3284 C   0  0  0  0  0  0  0  0  0  0  0  0
   24.3045  -20.7010  -12.0753 C   0  0  0  0  0  0  0  0  0  0  0  0
   23.9940  -19.5536  -12.4940 O   0  0  0  0  0  0  0  0  0  0  0  0
   23.3476  -21.7507  -12.0850 N   0  0  0  0  0  0  0  0  0  0  0  0
   22.0766  -21.5784  -12.7280 C   0  0  1  0  0  0  0  0  0  0  0  0
   21.5488  -22.8739  -13.3146 C   0  0  0  0  0  0  0  0  0  0  0  0
   22.7734  -23.5356  -14.4802 S   0  0  0  0  0  0  0  0  0  0  0  0
   21.0835  -21.1340  -11.7259 C   0  0  0  0  0  0  0  0  0  0  0  0
   19.8139  -20.7835  -12.1472 O   0  0  0  0  0  0  0  0  0  0  0  0
   21.3895  -21.0743  -10.4969 O   0  0  0  0  0  0  0  0  0  0  0  0
  2  8  1  0
  2  1  1  6
  3  4  1  0
  3  2  1  0
  5  6  1  0
  5  4  1  0
  6  7  1  0
  8  9  2  0
 10 11  1  0
 10  8  1  0
 11 12  1  1
 13 12  1  0
 14 13  2  0
 15 14  1  0
 16 15  1  0
 16 21  2  0
 17 16  1  0
 18 17  2  0
 18 19  1  0
 19 20  2  0
 20 21  1  0
 21 13  1  0
 22 11  1  0
 23 22  2  0
 24 22  1  0
 25 26  1  1
 25 24  1  0
 26 27  1  0
 28 29  1  0
 28 25  1  0
 30 28  2  0
M  END
$$$$
