KWC.pdb
     RDKit          3D

 30 31  0  0  1  0  0  0  0  0999 V2000
   29.3536  -25.8468  -16.2737 N   0  0  0  0  0  0  0  0  0  0  0  0
   28.6687  -24.9049  -17.1319 C   0  0  1  0  0  0  0  0  0  0  0  0
   27.5576  -25.4860  -17.9399 C   0  0  0  0  0  0  0  0  0  0  0  0
   27.8824  -26.5890  -18.8667 C   0  0  0  0  0  0  0  0  0  0  0  0
   27.5482  -27.9383  -18.3029 C   0  0  0  0  0  0  0  0  0  0  0  0
   27.9842  -28.9823  -19.3616 C   0  0  0  0  0  0  0  0  0  0  0  0
   27.5868  -30.2626  -18.8478 N   0  0  0  0  0  0  0  0  0  0  0  0
   28.1052  -23.8168  -16.3178 C   0  0  0  0  0  0  0  0  0  0  0  0
   27.5871  -24.0547  -15.2211 O   0  0  0  0  0  0  0  0  0  0  0  0
   28.1486  -22.4876  -16.7764 N   0  0  0  0  0  0  0  0  0  0  0  0
   27.7416  -21.3489  -16.0325 C   0  0  1  0  0  0  0  0  0  0  0  0
   28.1906  -20.0088  -16.5303 C   0  0  0  0  0  0  0  0  0  0  0  0
   27.6698  -18.9108  -15.6752 C   0  0  0  0  0  0  0  0  0  0  0  0
   27.5982  -18.9129  -14.2783 C   0  0  0  0  0  0  0  0  0  0  0  0
   27.0959  -17.7522  -13.8478 N   0  0  0  0  0  0  0  0  0  0  0  0
   26.8317  -16.9799  -14.9204 C   0  0  0  0  0  0  0  0  0  0  0  0
   26.2989  -15.6969  -14.9851 C   0  0  0  0  0  0  0  0  0  0  0  0
   26.1249  -15.1371  -16.2262 C   0  0  0  0  0  0  0  0  0  0  0  0
   26.4686  -15.8267  -17.3831 C   0  0  0  0  0  0  0  0  0  0  0  0
   26.9927  -17.0911  -17.2970 C   0  0  0  0  0  0  0  0  0  0  0  0
   27.1750  -17.6701  -16.0441 C   0  0  0  0  0  0  0  0  0  0  0  0
   26.2588  -21.3249  -15.9857 C   0  0  0  0  0  0  0  0  0  0  0  0
   25.6418  -21.5737  -17.0561 O   0  0  0  0  0  0  0  0  0  0  0  0
   25.5404  -21.0357  -14.7949 N   0  0  0  0  0  0  0  0  0  0  0  0
   24.1067  -21.0854  -14.7731 C   0  0  1  0  0  0  0  0  0  0  0  0
   23.5747  -21.7936  -13.5417 C   0  0  0  0  0  0  0  0  0  0  0  0
   21.7644  -21.6595  -13.5200 S   0  0  0  0  0  0  0  0  0  0  0  0
   23.5751  -19.7059  -14.7286 C   0  0  0  0  0  0  0  0  0  0  0  0
   22.4741  -19.3843  -15.5010 O   0  0  0  0  0  0  0  0  0  0  0  0
   24.1196  -18.8282  -13.9931 O   0  0  0  0  0  0  0  0  0  0  0  0
  2  8  1  0
  2  1  1  1
  3  4  1  0
  3  2  1  0
  5  6  1  0
  5  4  1  0
  6  7  1  0
  8  9  2  0
 10 11  1  0
 10  8  1  0
 11 12  1  6
 13 12  1  0
 14 13  2  0
 15 14  1  0
 16 15  1  0
 16 21  2  0
 17 16  1  0
 18 17  2  0
 18 19  1  0
 19 20  2  0
 20 21  1  0
 21 13  1  0
 22 11  1  0
 23 22  2  0
 24 22  1  0
 25 26  1  1
 25 24  1  0
 26 27  1  0
 28 29  1  0
 28 25  1  0
 30 28  2  0
M  END
$$$$
