KWC.pdb
     RDKit          3D

 30 31  0  0  1  0  0  0  0  0999 V2000
   27.2936  -20.0140  -14.0186 N   0  0  0  0  0  0  0  0  0  0  0  0
   26.4253  -21.1695  -13.9565 C   0  0  1  0  0  0  0  0  0  0  0  0
   26.9365  -22.3767  -14.6682 C   0  0  0  0  0  0  0  0  0  0  0  0
   27.1905  -22.2662  -16.1188 C   0  0  0  0  0  0  0  0  0  0  0  0
   25.9672  -22.5344  -16.9444 C   0  0  0  0  0  0  0  0  0  0  0  0
   26.3748  -22.3222  -18.4242 C   0  0  0  0  0  0  0  0  0  0  0  0
   25.2102  -22.6253  -19.2071 N   0  0  0  0  0  0  0  0  0  0  0  0
   26.2021  -21.5426  -12.5510 C   0  0  0  0  0  0  0  0  0  0  0  0
   26.0642  -22.7278  -12.2287 O   0  0  0  0  0  0  0  0  0  0  0  0
   26.1429  -20.5539  -11.5519 N   0  0  0  0  0  0  0  0  0  0  0  0
   25.8436  -20.7865  -10.1837 C   0  0  1  0  0  0  0  0  0  0  0  0
   26.3044  -19.7574   -9.1970 C   0  0  0  0  0  0  0  0  0  0  0  0
   27.5268  -20.2035   -8.4797 C   0  0  0  0  0  0  0  0  0  0  0  0
   28.5156  -21.0563   -8.9812 C   0  0  0  0  0  0  0  0  0  0  0  0
   29.4776  -21.2219   -8.0691 N   0  0  0  0  0  0  0  0  0  0  0  0
   29.1545  -20.5029   -6.9758 C   0  0  0  0  0  0  0  0  0  0  0  0
   29.8336  -20.3600   -5.7706 C   0  0  0  0  0  0  0  0  0  0  0  0
   29.2694  -19.5605   -4.8080 C   0  0  0  0  0  0  0  0  0  0  0  0
   28.0589  -18.9132   -5.0266 C   0  0  0  0  0  0  0  0  0  0  0  0
   27.4055  -19.0675   -6.2225 C   0  0  0  0  0  0  0  0  0  0  0  0
   27.9674  -19.8751   -7.2076 C   0  0  0  0  0  0  0  0  0  0  0  0
   24.3716  -20.9043  -10.0392 C   0  0  0  0  0  0  0  0  0  0  0  0
   23.6588  -20.4111  -10.9541 O   0  0  0  0  0  0  0  0  0  0  0  0
   23.7659  -21.5425   -8.9241 N   0  0  0  0  0  0  0  0  0  0  0  0
   22.3430  -21.7156   -8.8620 C   0  0  1  0  0  0  0  0  0  0  0  0
   21.9070  -22.4450   -7.6054 C   0  0  0  0  0  0  0  0  0  0  0  0
   22.5431  -21.5554   -6.1563 S   0  0  0  0  0  0  0  0  0  0  0  0
   21.6949  -20.3866   -8.8243 C   0  0  0  0  0  0  0  0  0  0  0  0
   20.3162  -20.3086   -8.8974 O   0  0  0  0  0  0  0  0  0  0  0  0
   22.3916  -19.3317   -8.7264 O   0  0  0  0  0  0  0  0  0  0  0  0
  2  8  1  0
  2  1  1  1
  3  4  1  0
  3  2  1  0
  5  6  1  0
  5  4  1  0
  6  7  1  0
  8  9  2  0
 10 11  1  0
 10  8  1  0
 11 12  1  1
 13 12  1  0
 14 13  2  0
 15 14  1  0
 16 15  1  0
 16 21  2  0
 17 16  1  0
 18 17  2  0
 18 19  1  0
 19 20  2  0
 20 21  1  0
 21 13  1  0
 22 11  1  0
 23 22  2  0
 24 22  1  0
 25 26  1  1
 25 24  1  0
 26 27  1  0
 28 29  1  0
 28 25  1  0
 30 28  2  0
M  END
$$$$
