KWC.pdb
     RDKit          3D

 30 31  0  0  1  0  0  0  0  0999 V2000
   26.9510  -25.1096  -16.3514 N   0  0  0  0  0  0  0  0  0  0  0  0
   26.0635  -23.9719  -16.4558 C   0  0  1  0  0  0  0  0  0  0  0  0
   24.7501  -24.2586  -17.1024 C   0  0  0  0  0  0  0  0  0  0  0  0
   24.6034  -25.5356  -17.8297 C   0  0  0  0  0  0  0  0  0  0  0  0
   24.8777  -25.4018  -19.2983 C   0  0  0  0  0  0  0  0  0  0  0  0
   23.5234  -25.6047  -20.0233 C   0  0  0  0  0  0  0  0  0  0  0  0
   23.8115  -25.5585  -21.4290 N   0  0  0  0  0  0  0  0  0  0  0  0
   25.7910  -23.4353  -15.1134 C   0  0  0  0  0  0  0  0  0  0  0  0
   25.3220  -24.1603  -14.2290 O   0  0  0  0  0  0  0  0  0  0  0  0
   26.0615  -22.0871  -14.8163 N   0  0  0  0  0  0  0  0  0  0  0  0
   25.8803  -21.4735  -13.5489 C   0  0  1  0  0  0  0  0  0  0  0  0
   26.7453  -20.2925  -13.2295 C   0  0  0  0  0  0  0  0  0  0  0  0
   27.6327  -20.5686  -12.0700 C   0  0  0  0  0  0  0  0  0  0  0  0
   28.9688  -20.9780  -12.1297 C   0  0  0  0  0  0  0  0  0  0  0  0
   29.4588  -21.1099  -10.8938 N   0  0  0  0  0  0  0  0  0  0  0  0
   28.4847  -20.7997  -10.0155 C   0  0  0  0  0  0  0  0  0  0  0  0
   28.5081  -20.7921   -8.6249 C   0  0  0  0  0  0  0  0  0  0  0  0
   27.3571  -20.4372   -7.9666 C   0  0  0  0  0  0  0  0  0  0  0  0
   26.2036  -20.0961   -8.6632 C   0  0  0  0  0  0  0  0  0  0  0  0
   26.2020  -20.1099  -10.0346 C   0  0  0  0  0  0  0  0  0  0  0  0
   27.3632  -20.4674  -10.7145 C   0  0  0  0  0  0  0  0  0  0  0  0
   24.4698  -21.0254  -13.4422 C   0  0  0  0  0  0  0  0  0  0  0  0
   23.8480  -20.8099  -14.5171 O   0  0  0  0  0  0  0  0  0  0  0  0
   23.8239  -20.8396  -12.1909 N   0  0  0  0  0  0  0  0  0  0  0  0
   22.4468  -20.4417  -12.1285 C   0  0  1  0  0  0  0  0  0  0  0  0
   21.9565  -20.2899  -10.7011 C   0  0  0  0  0  0  0  0  0  0  0  0
   22.0672  -21.8977   -9.8652 S   0  0  0  0  0  0  0  0  0  0  0  0
   22.2962  -19.1170  -12.7691 C   0  0  0  0  0  0  0  0  0  0  0  0
   21.0319  -18.5714  -12.8958 O   0  0  0  0  0  0  0  0  0  0  0  0
   23.3108  -18.4883  -13.1971 O   0  0  0  0  0  0  0  0  0  0  0  0
  2  8  1  0
  2  1  1  1
  3  4  1  0
  3  2  1  0
  5  6  1  0
  5  4  1  0
  6  7  1  0
  8  9  2  0
 10 11  1  0
 10  8  1  0
 11 12  1  6
 13 12  1  0
 14 13  2  0
 15 14  1  0
 16 15  1  0
 16 21  2  0
 17 16  1  0
 18 17  2  0
 18 19  1  0
 19 20  2  0
 20 21  1  0
 21 13  1  0
 22 11  1  0
 23 22  2  0
 24 22  1  0
 25 26  1  1
 25 24  1  0
 26 27  1  0
 28 29  1  0
 28 25  1  0
 30 28  2  0
M  END
$$$$
