KWC.pdb
     RDKit          3D

 30 31  0  0  1  0  0  0  0  0999 V2000
   28.5719  -21.5568  -14.6841 N   0  0  0  0  0  0  0  0  0  0  0  0
   27.2381  -21.4506  -15.2342 C   0  0  1  0  0  0  0  0  0  0  0  0
   26.9536  -22.3732  -16.3713 C   0  0  0  0  0  0  0  0  0  0  0  0
   27.4306  -21.9819  -17.7131 C   0  0  0  0  0  0  0  0  0  0  0  0
   28.8305  -21.4432  -17.6971 C   0  0  0  0  0  0  0  0  0  0  0  0
   29.1605  -21.0210  -19.1510 C   0  0  0  0  0  0  0  0  0  0  0  0
   28.8412  -19.6244  -19.2440 N   0  0  0  0  0  0  0  0  0  0  0  0
   26.2480  -21.7238  -14.1809 C   0  0  0  0  0  0  0  0  0  0  0  0
   25.5153  -22.7170  -14.2481 O   0  0  0  0  0  0  0  0  0  0  0  0
   26.1212  -20.8573  -13.0799 N   0  0  0  0  0  0  0  0  0  0  0  0
   25.2352  -21.0438  -11.9863 C   0  0  1  0  0  0  0  0  0  0  0  0
   25.5372  -20.2947  -10.7243 C   0  0  0  0  0  0  0  0  0  0  0  0
   26.8183  -20.7444  -10.1206 C   0  0  0  0  0  0  0  0  0  0  0  0
   27.7822  -21.5528  -10.7318 C   0  0  0  0  0  0  0  0  0  0  0  0
   28.8131  -21.7364   -9.9021 N   0  0  0  0  0  0  0  0  0  0  0  0
   28.5599  -21.0724   -8.7568 C   0  0  0  0  0  0  0  0  0  0  0  0
   29.3250  -20.9667   -7.6002 C   0  0  0  0  0  0  0  0  0  0  0  0
   28.8200  -20.2220   -6.5636 C   0  0  0  0  0  0  0  0  0  0  0  0
   27.5846  -19.5926   -6.6625 C   0  0  0  0  0  0  0  0  0  0  0  0
   26.8461  -19.7096   -7.8122 C   0  0  0  0  0  0  0  0  0  0  0  0
   27.3472  -20.4615   -8.8714 C   0  0  0  0  0  0  0  0  0  0  0  0
   23.8710  -20.6482  -12.4153 C   0  0  0  0  0  0  0  0  0  0  0  0
   23.7403  -19.5197  -12.9610 O   0  0  0  0  0  0  0  0  0  0  0  0
   22.7417  -21.4895  -12.2295 N   0  0  0  0  0  0  0  0  0  0  0  0
   21.4378  -21.0720  -12.6583 C   0  0  1  0  0  0  0  0  0  0  0  0
   20.9032  -21.9288  -13.7901 C   0  0  0  0  0  0  0  0  0  0  0  0
   21.4126  -23.6500  -13.5183 S   0  0  0  0  0  0  0  0  0  0  0  0
   20.4883  -21.2188  -11.5336 C   0  0  0  0  0  0  0  0  0  0  0  0
   19.1812  -20.7984  -11.6980 O   0  0  0  0  0  0  0  0  0  0  0  0
   20.8652  -21.7229  -10.4329 O   0  0  0  0  0  0  0  0  0  0  0  0
  2  8  1  0
  2  1  1  1
  3  4  1  0
  3  2  1  0
  5  6  1  0
  5  4  1  0
  6  7  1  0
  8  9  2  0
 10 11  1  0
 10  8  1  0
 11 12  1  1
 13 12  1  0
 14 13  2  0
 15 14  1  0
 16 15  1  0
 16 21  2  0
 17 16  1  0
 18 17  2  0
 18 19  1  0
 19 20  2  0
 20 21  1  0
 21 13  1  0
 22 11  1  0
 23 22  2  0
 24 22  1  0
 25 26  1  6
 25 24  1  0
 26 27  1  0
 28 29  1  0
 28 25  1  0
 30 28  2  0
M  END
$$$$
