RHQ.pdb
     RDKit          3D

 31 31  0  0  1  0  0  0  0  0999 V2000
   14.7761  -21.9910  -14.4802 N   0  0  0  0  0  0  0  0  0  0  0  0
   15.5763  -23.0030  -15.0841 C   0  0  0  0  0  0  0  0  0  0  0  0
   15.0569  -24.1116  -15.4230 N   0  0  0  0  0  0  0  0  0  0  0  0
   16.9435  -22.7744  -15.3047 N   0  0  0  0  0  0  0  0  0  0  0  0
   17.6005  -21.5589  -14.8943 C   0  0  0  0  0  0  0  0  0  0  0  0
   18.6505  -21.0836  -15.8123 C   0  0  0  0  0  0  0  0  0  0  0  0
   19.3728  -19.8900  -15.2633 C   0  0  0  0  0  0  0  0  0  0  0  0
   20.4839  -19.3366  -16.0726 C   0  0  2  0  0  0  0  0  0  0  0  0
   21.6574  -19.0636  -15.3015 N   0  0  0  0  0  0  0  0  0  0  0  0
   20.0705  -18.1667  -16.9090 C   0  0  0  0  0  0  0  0  0  0  0  0
   19.2302  -18.4063  -17.8320 O   0  0  0  0  0  0  0  0  0  0  0  0
   15.6384  -24.8487  -15.8927 N   0  0  0  0  0  0  0  0  0  0  0  0
   20.5843  -16.8675  -16.6839 C   0  0  1  0  0  0  0  0  0  0  0  0
   20.2443  -15.7591  -17.5232 C   0  0  0  0  0  0  0  0  0  0  0  0
   19.7198  -14.5827  -16.7066 C   0  0  0  0  0  0  0  0  0  0  0  0
   18.2652  -14.8110  -16.5016 C   0  0  0  0  0  0  0  0  0  0  0  0
   17.5876  -15.9019  -17.0139 N   0  0  0  0  0  0  0  0  0  0  0  0
   16.3131  -15.7690  -16.6321 C   0  0  0  0  0  0  0  0  0  0  0  0
   16.1951  -14.6403  -15.9097 N   0  0  0  0  0  0  0  0  0  0  0  0
   17.3942  -14.0524  -15.8297 C   0  0  0  0  0  0  0  0  0  0  0  0
   21.4449  -15.2523  -18.2390 O   0  0  0  0  0  0  0  0  0  0  0  0
   22.4786  -14.8767  -17.5992 N   0  0  0  0  0  0  0  0  0  0  0  0
   26.2137  -15.7412  -18.6789 C   0  0  0  0  0  0  0  0  0  0  0  0
   26.1997  -15.6077  -20.1144 O   0  0  0  0  0  0  0  0  0  0  0  0
   27.3102  -15.4428  -20.6556 C   0  0  0  0  0  0  0  0  0  0  0  0
   24.9376  -15.6679  -20.8477 C   0  0  0  0  0  0  0  0  0  0  0  0
   23.7074  -15.8890  -20.0336 C   0  0  2  0  0  0  0  0  0  0  0  0
   22.5946  -14.9918  -20.4648 N   0  0  0  0  0  0  0  0  0  0  0  0
   21.4013  -15.2016  -19.6503 C   0  0  0  0  0  0  0  0  0  0  0  0
   22.2131  -15.1218  -21.8730 O   0  0  0  0  0  0  0  0  0  0  0  0
   20.9177  -15.4173  -22.2415 O   0  0  0  0  0  0  0  0  0  0  0  0
  2  3  2  0
  2  1  1  0
  4  2  1  0
  5  4  1  0
  6  5  1  0
  7  6  1  0
  8 10  1  0
  8  7  1  0
  8  9  1  1
 10 11  2  0
 12 13  1  0
 12 10  1  0
 13 14  1  6
 14 15  1  0
 15 19  1  0
 15 16  2  0
 16 17  1  0
 18 17  1  0
 19 18  2  0
 20 13  1  0
 21 20  2  0
 22 23  1  0
 23 25  1  0
 23 24  2  0
 25 26  1  0
 27 26  1  1
 27 28  1  0
 28 20  1  0
 29 27  1  0
 29 30  1  0
 31 29  2  0
M  END
$$$$
