RHQ.pdb
     RDKit          3D

 31 31  0  0  1  0  0  0  0  0999 V2000
   24.1192  -23.3158  -15.6235 N   0  0  0  0  0  0  0  0  0  0  0  0
   23.9345  -24.3668  -14.6799 C   0  0  0  0  0  0  0  0  0  0  0  0
   23.0967  -25.2935  -14.9107 N   0  0  0  0  0  0  0  0  0  0  0  0
   24.6804  -24.3781  -13.4910 N   0  0  0  0  0  0  0  0  0  0  0  0
   25.6401  -23.3517  -13.1702 C   0  0  0  0  0  0  0  0  0  0  0  0
   25.0563  -22.0936  -12.6727 C   0  0  0  0  0  0  0  0  0  0  0  0
   26.0138  -20.9466  -12.7977 C   0  0  0  0  0  0  0  0  0  0  0  0
   26.5885  -20.6842  -14.1381 C   0  0  2  0  0  0  0  0  0  0  0  0
   28.0120  -20.5441  -14.1202 N   0  0  0  0  0  0  0  0  0  0  0  0
   25.9166  -19.5525  -14.8500 C   0  0  0  0  0  0  0  0  0  0  0  0
   26.1435  -18.3886  -14.3924 O   0  0  0  0  0  0  0  0  0  0  0  0
   23.0319  -26.1222  -14.2697 N   0  0  0  0  0  0  0  0  0  0  0  0
   25.0781  -19.7657  -15.9697 C   0  0  2  0  0  0  0  0  0  0  0  0
   24.4227  -18.6875  -16.6455 C   0  0  0  0  0  0  0  0  0  0  0  0
   24.8678  -18.5902  -18.1010 C   0  0  0  0  0  0  0  0  0  0  0  0
   26.3018  -18.1982  -18.0909 C   0  0  0  0  0  0  0  0  0  0  0  0
   27.3319  -19.0776  -18.3694 N   0  0  0  0  0  0  0  0  0  0  0  0
   28.4661  -18.3775  -18.2625 C   0  0  0  0  0  0  0  0  0  0  0  0
   28.1607  -17.1102  -17.9301 N   0  0  0  0  0  0  0  0  0  0  0  0
   26.8314  -17.0006  -17.8249 C   0  0  0  0  0  0  0  0  0  0  0  0
   22.9526  -18.9062  -16.6852 O   0  0  0  0  0  0  0  0  0  0  0  0
   22.4683  -20.0628  -16.9010 N   0  0  0  0  0  0  0  0  0  0  0  0
   21.0921  -19.6690  -11.7994 C   0  0  0  0  0  0  0  0  0  0  0  0
   19.8189  -19.2900  -12.3597 O   0  0  0  0  0  0  0  0  0  0  0  0
   18.8239  -19.5011  -11.6395 C   0  0  0  0  0  0  0  0  0  0  0  0
   19.7476  -18.6986  -13.6937 C   0  0  0  0  0  0  0  0  0  0  0  0
   21.0409  -18.5443  -14.4207 C   0  0  2  0  0  0  0  0  0  0  0  0
   20.8505  -17.8844  -15.7465 N   0  0  0  0  0  0  0  0  0  0  0  0
   22.1119  -17.7902  -16.4754 C   0  0  0  0  0  0  0  0  0  0  0  0
   20.2589  -16.5459  -15.6855 O   0  0  0  0  0  0  0  0  0  0  0  0
   20.9789  -15.4258  -16.0434 O   0  0  0  0  0  0  0  0  0  0  0  0
  2  3  2  0
  2  1  1  0
  4  2  1  0
  5  4  1  0
  6  5  1  0
  7  6  1  0
  8 10  1  0
  8  7  1  0
  8  9  1  1
 10 11  2  0
 12 13  1  0
 12 10  1  0
 13 14  1  1
 14 15  1  0
 15 19  1  0
 15 16  2  0
 16 17  1  0
 18 17  1  0
 19 18  2  0
 20 13  1  0
 21 20  2  0
 22 23  1  0
 23 25  1  0
 23 24  2  0
 25 26  1  0
 27 26  1  6
 27 28  1  0
 28 20  1  0
 29 27  1  0
 29 30  1  0
 31 29  2  0
M  END
$$$$
