RHQ.pdb
     RDKit          3D

 31 31  0  0  1  0  0  0  0  0999 V2000
   29.2571  -27.1942  -16.1329 N   0  0  0  0  0  0  0  0  0  0  0  0
   30.2294  -27.4324  -17.1463 C   0  0  0  0  0  0  0  0  0  0  0  0
   30.2805  -28.5589  -17.7314 N   0  0  0  0  0  0  0  0  0  0  0  0
   31.1344  -26.4192  -17.4990 N   0  0  0  0  0  0  0  0  0  0  0  0
   31.0163  -25.0704  -17.0049 C   0  0  0  0  0  0  0  0  0  0  0  0
   30.4040  -24.1181  -17.9480 C   0  0  0  0  0  0  0  0  0  0  0  0
   29.6883  -23.0098  -17.2358 C   0  0  0  0  0  0  0  0  0  0  0  0
   28.4364  -23.3571  -16.5231 C   0  0  2  0  0  0  0  0  0  0  0  0
   27.4766  -24.0082  -17.3603 N   0  0  0  0  0  0  0  0  0  0  0  0
   27.8475  -22.1994  -15.7800 C   0  0  0  0  0  0  0  0  0  0  0  0
   28.6619  -21.4911  -15.1088 O   0  0  0  0  0  0  0  0  0  0  0  0
   30.9774  -28.7276  -18.4981 N   0  0  0  0  0  0  0  0  0  0  0  0
   26.4633  -21.9087  -15.8238 C   0  0  1  0  0  0  0  0  0  0  0  0
   25.9026  -20.7750  -15.1538 C   0  0  0  0  0  0  0  0  0  0  0  0
   25.2704  -19.8007  -16.1422 C   0  0  0  0  0  0  0  0  0  0  0  0
   26.3802  -19.0290  -16.7610 C   0  0  0  0  0  0  0  0  0  0  0  0
   26.9734  -19.3796  -17.9597 N   0  0  0  0  0  0  0  0  0  0  0  0
   27.9216  -18.4663  -18.1936 C   0  0  0  0  0  0  0  0  0  0  0  0
   27.9239  -17.5786  -17.1829 N   0  0  0  0  0  0  0  0  0  0  0  0
   26.9770  -17.9246  -16.3032 C   0  0  0  0  0  0  0  0  0  0  0  0
   24.8072  -21.1920  -14.2390 O   0  0  0  0  0  0  0  0  0  0  0  0
   24.1638  -22.2716  -14.4373 N   0  0  0  0  0  0  0  0  0  0  0  0
   25.0980  -20.6515   -7.4814 C   0  0  0  0  0  0  0  0  0  0  0  0
   25.0868  -19.9159   -8.7214 O   0  0  0  0  0  0  0  0  0  0  0  0
   25.3454  -18.6999   -8.6340 C   0  0  0  0  0  0  0  0  0  0  0  0
   24.7851  -20.5958   -9.9788 C   0  0  0  0  0  0  0  0  0  0  0  0
   23.7685  -19.9468  -10.8564 C   0  0  2  0  0  0  0  0  0  0  0  0
   23.5452  -20.7279  -12.1091 N   0  0  0  0  0  0  0  0  0  0  0  0
   24.5044  -20.3523  -13.1437 C   0  0  0  0  0  0  0  0  0  0  0  0
   22.1984  -20.6104  -12.6729 O   0  0  0  0  0  0  0  0  0  0  0  0
   21.1621  -21.4033  -12.2276 O   0  0  0  0  0  0  0  0  0  0  0  0
  2  3  2  0
  2  1  1  0
  4  2  1  0
  5  4  1  0
  6  5  1  0
  7  6  1  0
  8 10  1  0
  8  7  1  0
  8  9  1  6
 10 11  2  0
 12 13  1  0
 12 10  1  0
 13 14  1  1
 14 15  1  0
 15 19  1  0
 15 16  2  0
 16 17  1  0
 18 17  1  0
 19 18  2  0
 20 13  1  0
 21 20  2  0
 22 23  1  0
 23 25  1  0
 23 24  2  0
 25 26  1  0
 27 26  1  1
 27 28  1  0
 28 20  1  0
 29 27  1  0
 29 30  1  0
 31 29  2  0
M  END
$$$$
