RHQ.pdb
     RDKit          3D

 31 31  0  0  1  0  0  0  0  0999 V2000
   34.1399  -25.9025  -17.2203 N   0  0  0  0  0  0  0  0  0  0  0  0
   33.3454  -26.6355  -18.1480 C   0  0  0  0  0  0  0  0  0  0  0  0
   33.5476  -27.8775  -18.3217 N   0  0  0  0  0  0  0  0  0  0  0  0
   32.3363  -25.9828  -18.8731 N   0  0  0  0  0  0  0  0  0  0  0  0
   31.6928  -24.7846  -18.3960 C   0  0  0  0  0  0  0  0  0  0  0  0
   31.1389  -24.8810  -17.0340 C   0  0  0  0  0  0  0  0  0  0  0  0
   30.3322  -23.6698  -16.6730 C   0  0  0  0  0  0  0  0  0  0  0  0
   28.8794  -23.7100  -16.9621 C   0  0  2  0  0  0  0  0  0  0  0  0
   28.5884  -23.9822  -18.3359 N   0  0  0  0  0  0  0  0  0  0  0  0
   28.1500  -22.5054  -16.4561 C   0  0  0  0  0  0  0  0  0  0  0  0
   28.3746  -22.1803  -15.2481 O   0  0  0  0  0  0  0  0  0  0  0  0
   33.0076  -28.4065  -19.0501 N   0  0  0  0  0  0  0  0  0  0  0  0
   27.2626  -21.7691  -17.2763 C   0  0  1  0  0  0  0  0  0  0  0  0
   26.5702  -20.6107  -16.7997 C   0  0  0  0  0  0  0  0  0  0  0  0
   26.1065  -19.7258  -17.9520 C   0  0  0  0  0  0  0  0  0  0  0  0
   25.5916  -18.4667  -17.3523 C   0  0  0  0  0  0  0  0  0  0  0  0
   25.9869  -17.9981  -16.1130 N   0  0  0  0  0  0  0  0  0  0  0  0
   25.3200  -16.8572  -15.9097 C   0  0  0  0  0  0  0  0  0  0  0  0
   24.5376  -16.6191  -16.9778 N   0  0  0  0  0  0  0  0  0  0  0  0
   24.7047  -17.6078  -17.8635 C   0  0  0  0  0  0  0  0  0  0  0  0
   25.3371  -20.9988  -16.0652 O   0  0  0  0  0  0  0  0  0  0  0  0
   24.5027  -21.8149  -16.5718 N   0  0  0  0  0  0  0  0  0  0  0  0
   24.7909  -20.7882   -9.6694 C   0  0  0  0  0  0  0  0  0  0  0  0
   23.5102  -21.2107  -10.1793 O   0  0  0  0  0  0  0  0  0  0  0  0
   22.6814  -21.5826   -9.3260 C   0  0  0  0  0  0  0  0  0  0  0  0
   23.2453  -21.1880  -11.6159 C   0  0  0  0  0  0  0  0  0  0  0  0
   24.3801  -20.7789  -12.4932 C   0  0  2  0  0  0  0  0  0  0  0  0
   24.0017  -20.8221  -13.9369 N   0  0  0  0  0  0  0  0  0  0  0  0
   25.1220  -20.4333  -14.7884 C   0  0  0  0  0  0  0  0  0  0  0  0
   22.8492  -19.9915  -14.2936 O   0  0  0  0  0  0  0  0  0  0  0  0
   21.5758  -20.5170  -14.3513 O   0  0  0  0  0  0  0  0  0  0  0  0
  2  3  2  0
  2  1  1  0
  4  2  1  0
  5  4  1  0
  6  5  1  0
  7  6  1  0
  8 10  1  0
  8  7  1  0
  8  9  1  6
 10 11  2  0
 12 13  1  0
 12 10  1  0
 13 14  1  1
 14 15  1  0
 15 19  1  0
 15 16  2  0
 16 17  1  0
 18 17  1  0
 19 18  2  0
 20 13  1  0
 21 20  2  0
 22 23  1  0
 23 25  1  0
 23 24  2  0
 25 26  1  0
 27 26  1  6
 27 28  1  0
 28 20  1  0
 29 27  1  0
 29 30  1  0
 31 29  2  0
M  END
$$$$
