RHQ.pdb
     RDKit          3D

 31 31  0  0  1  0  0  0  0  0999 V2000
   17.7151  -11.9306  -23.4682 N   0  0  0  0  0  0  0  0  0  0  0  0
   17.3158  -13.0500  -22.6831 C   0  0  0  0  0  0  0  0  0  0  0  0
   16.2156  -13.6386  -22.9216 N   0  0  0  0  0  0  0  0  0  0  0  0
   18.1406  -13.5037  -21.6420 N   0  0  0  0  0  0  0  0  0  0  0  0
   19.0885  -12.6458  -20.9765 C   0  0  0  0  0  0  0  0  0  0  0  0
   19.8324  -13.2833  -19.8758 C   0  0  0  0  0  0  0  0  0  0  0  0
   21.1056  -13.9137  -20.3548 C   0  0  0  0  0  0  0  0  0  0  0  0
   21.9558  -14.5823  -19.3420 C   0  0  2  0  0  0  0  0  0  0  0  0
   21.3109  -15.6941  -18.7141 N   0  0  0  0  0  0  0  0  0  0  0  0
   22.5374  -13.6283  -18.3465 C   0  0  0  0  0  0  0  0  0  0  0  0
   21.7817  -13.2970  -17.3797 O   0  0  0  0  0  0  0  0  0  0  0  0
   15.9234  -14.4695  -22.3505 N   0  0  0  0  0  0  0  0  0  0  0  0
   23.8540  -13.1254  -18.4733 C   0  0  1  0  0  0  0  0  0  0  0  0
   24.3887  -12.1564  -17.5657 C   0  0  0  0  0  0  0  0  0  0  0  0
   25.9137  -12.1746  -17.5669 C   0  0  0  0  0  0  0  0  0  0  0  0
   26.3600  -11.2082  -16.5290 C   0  0  0  0  0  0  0  0  0  0  0  0
   26.9855  -10.0110  -16.8243 N   0  0  0  0  0  0  0  0  0  0  0  0
   27.2384   -9.4175  -15.6531 C   0  0  0  0  0  0  0  0  0  0  0  0
   26.7903  -10.2100  -14.6627 N   0  0  0  0  0  0  0  0  0  0  0  0
   26.2509  -11.3096  -15.2011 C   0  0  0  0  0  0  0  0  0  0  0  0
   23.9996  -10.7807  -17.9741 O   0  0  0  0  0  0  0  0  0  0  0  0
   24.0780  -10.4116  -19.1892 N   0  0  0  0  0  0  0  0  0  0  0  0
   19.2573   -7.8748  -18.8113 C   0  0  0  0  0  0  0  0  0  0  0  0
   20.0428   -6.7438  -18.3840 O   0  0  0  0  0  0  0  0  0  0  0  0
   19.5528   -5.6222  -18.6188 C   0  0  0  0  0  0  0  0  0  0  0  0
   21.3285   -6.9480  -17.7208 C   0  0  0  0  0  0  0  0  0  0  0  0
   21.7050   -8.3606  -17.4246 C   0  0  2  0  0  0  0  0  0  0  0  0
   23.1803   -8.5112  -17.2516 N   0  0  0  0  0  0  0  0  0  0  0  0
   23.5403   -9.8979  -16.9711 C   0  0  0  0  0  0  0  0  0  0  0  0
   23.7638   -7.6688  -16.2049 O   0  0  0  0  0  0  0  0  0  0  0  0
   24.2569   -6.4124  -16.4862 O   0  0  0  0  0  0  0  0  0  0  0  0
  2  3  2  0
  2  1  1  0
  4  2  1  0
  5  4  1  0
  6  5  1  0
  7  6  1  0
  8 10  1  0
  8  7  1  0
  8  9  1  1
 10 11  2  0
 12 13  1  0
 12 10  1  0
 13 14  1  6
 14 15  1  0
 15 19  1  0
 15 16  2  0
 16 17  1  0
 18 17  1  0
 19 18  2  0
 20 13  1  0
 21 20  2  0
 22 23  1  0
 23 25  1  0
 23 24  2  0
 25 26  1  0
 27 26  1  6
 27 28  1  0
 28 20  1  0
 29 27  1  0
 29 30  1  0
 31 29  2  0
M  END
$$$$
