RHQ.pdb
     RDKit          3D

 31 31  0  0  1  0  0  0  0  0999 V2000
   28.8482  -19.6094  -22.1390 N   0  0  0  0  0  0  0  0  0  0  0  0
   27.7275  -19.1751  -22.9036 C   0  0  0  0  0  0  0  0  0  0  0  0
   27.5877  -19.5573  -24.1070 N   0  0  0  0  0  0  0  0  0  0  0  0
   26.7751  -18.3216  -22.3254 N   0  0  0  0  0  0  0  0  0  0  0  0
   26.4073  -18.4026  -20.9342 C   0  0  0  0  0  0  0  0  0  0  0  0
   25.7134  -19.6443  -20.5497 C   0  0  0  0  0  0  0  0  0  0  0  0
   25.2397  -19.6011  -19.1278 C   0  0  0  0  0  0  0  0  0  0  0  0
   26.2525  -19.3240  -18.0822 C   0  0  2  0  0  0  0  0  0  0  0  0
   27.5932  -19.5519  -18.5258 N   0  0  0  0  0  0  0  0  0  0  0  0
   25.9589  -20.0144  -16.7875 C   0  0  0  0  0  0  0  0  0  0  0  0
   26.1077  -21.2766  -16.7788 O   0  0  0  0  0  0  0  0  0  0  0  0
   26.8094  -19.1746  -24.6984 N   0  0  0  0  0  0  0  0  0  0  0  0
   25.5412  -19.3024  -15.6382 C   0  0  1  0  0  0  0  0  0  0  0  0
   25.2592  -19.9585  -14.3977 C   0  0  0  0  0  0  0  0  0  0  0  0
   25.6017  -19.0692  -13.2071 C   0  0  0  0  0  0  0  0  0  0  0  0
   25.5526  -19.9287  -11.9951 C   0  0  0  0  0  0  0  0  0  0  0  0
   25.2670  -21.2810  -12.0336 N   0  0  0  0  0  0  0  0  0  0  0  0
   25.3097  -21.7127  -10.7688 C   0  0  0  0  0  0  0  0  0  0  0  0
   25.6096  -20.6737   -9.9687 N   0  0  0  0  0  0  0  0  0  0  0  0
   25.7588  -19.5783  -10.7222 C   0  0  0  0  0  0  0  0  0  0  0  0
   23.8074  -20.2560  -14.2770 O   0  0  0  0  0  0  0  0  0  0  0  0
   22.9326  -19.4006  -14.6260 N   0  0  0  0  0  0  0  0  0  0  0  0
   21.3568  -26.0692  -12.5711 C   0  0  0  0  0  0  0  0  0  0  0  0
   20.2482  -25.1780  -12.8070 O   0  0  0  0  0  0  0  0  0  0  0  0
   19.1138  -25.6860  -12.7153 C   0  0  0  0  0  0  0  0  0  0  0  0
   20.4877  -23.7737  -13.1310 C   0  0  0  0  0  0  0  0  0  0  0  0
   21.9129  -23.3635  -13.2900 C   0  0  2  0  0  0  0  0  0  0  0  0
   22.0357  -21.9032  -13.5760 N   0  0  0  0  0  0  0  0  0  0  0  0
   23.4311  -21.5173  -13.7635 C   0  0  0  0  0  0  0  0  0  0  0  0
   21.4545  -21.0278  -12.5556 O   0  0  0  0  0  0  0  0  0  0  0  0
   20.3022  -20.3103  -12.7969 O   0  0  0  0  0  0  0  0  0  0  0  0
  2  3  2  0
  2  1  1  0
  4  2  1  0
  5  4  1  0
  6  5  1  0
  7  6  1  0
  8 10  1  0
  8  7  1  0
  8  9  1  6
 10 11  2  0
 12 13  1  0
 12 10  1  0
 13 14  1  6
 14 15  1  0
 15 19  1  0
 15 16  2  0
 16 17  1  0
 18 17  1  0
 19 18  2  0
 20 13  1  0
 21 20  2  0
 22 23  1  0
 23 25  1  0
 23 24  2  0
 25 26  1  0
 27 26  1  6
 27 28  1  0
 28 20  1  0
 29 27  1  0
 29 30  1  0
 31 29  2  0
M  END
$$$$
