RHQ.pdb
     RDKit          3D

 31 31  0  0  1  0  0  0  0  0999 V2000
   42.7673  -10.6711  -13.0419 N   0  0  0  0  0  0  0  0  0  0  0  0
   42.6656  -11.9895  -12.5124 C   0  0  0  0  0  0  0  0  0  0  0  0
   41.9417  -12.8575  -13.0924 N   0  0  0  0  0  0  0  0  0  0  0  0
   43.3671  -12.3304  -11.3455 N   0  0  0  0  0  0  0  0  0  0  0  0
   44.4511  -11.5304  -10.8332 C   0  0  0  0  0  0  0  0  0  0  0  0
   45.1336  -12.0955   -9.6559 C   0  0  0  0  0  0  0  0  0  0  0  0
   46.1433  -11.1445   -9.0867 C   0  0  0  0  0  0  0  0  0  0  0  0
   46.2059  -11.0229   -7.6112 C   0  0  2  0  0  0  0  0  0  0  0  0
   46.7196  -12.1955   -6.9732 N   0  0  0  0  0  0  0  0  0  0  0  0
   44.9141  -10.5691   -7.0076 C   0  0  0  0  0  0  0  0  0  0  0  0
   44.1645  -11.4809   -6.5363 O   0  0  0  0  0  0  0  0  0  0  0  0
   41.8228  -13.8137  -12.6757 N   0  0  0  0  0  0  0  0  0  0  0  0
   44.5488   -9.2027   -6.9624 C   0  0  2  0  0  0  0  0  0  0  0  0
   43.3088   -8.7652   -6.3971 C   0  0  0  0  0  0  0  0  0  0  0  0
   43.3529   -7.2837   -6.0374 C   0  0  0  0  0  0  0  0  0  0  0  0
   43.8777   -7.1895   -4.6497 C   0  0  0  0  0  0  0  0  0  0  0  0
   44.1657   -8.2941   -3.8696 N   0  0  0  0  0  0  0  0  0  0  0  0
   44.6079   -7.8249   -2.6982 C   0  0  0  0  0  0  0  0  0  0  0  0
   44.5977   -6.4804   -2.7409 N   0  0  0  0  0  0  0  0  0  0  0  0
   44.1492   -6.0906   -3.9396 C   0  0  0  0  0  0  0  0  0  0  0  0
   42.2015   -8.9111   -7.3785 O   0  0  0  0  0  0  0  0  0  0  0  0
   42.4177   -8.8151   -8.6287 N   0  0  0  0  0  0  0  0  0  0  0  0
   36.6433  -11.8490   -5.9416 C   0  0  0  0  0  0  0  0  0  0  0  0
   36.5588  -11.4608   -7.3276 O   0  0  0  0  0  0  0  0  0  0  0  0
   35.5321  -11.8257   -7.9324 C   0  0  0  0  0  0  0  0  0  0  0  0
   37.6349  -10.6877   -7.9431 C   0  0  0  0  0  0  0  0  0  0  0  0
   38.8344  -10.4287   -7.0951 C   0  0  1  0  0  0  0  0  0  0  0  0
   39.7742   -9.4713   -7.7504 N   0  0  0  0  0  0  0  0  0  0  0  0
   40.9034   -9.1598   -6.8791 C   0  0  0  0  0  0  0  0  0  0  0  0
   39.1654   -8.2087   -8.1755 O   0  0  0  0  0  0  0  0  0  0  0  0
   38.4726   -8.1098   -9.3634 O   0  0  0  0  0  0  0  0  0  0  0  0
  2  3  2  0
  2  1  1  0
  4  2  1  0
  5  4  1  0
  6  5  1  0
  7  6  1  0
  8 10  1  0
  8  7  1  0
  8  9  1  1
 10 11  2  0
 12 13  1  0
 12 10  1  0
 13 14  1  6
 14 15  1  0
 15 19  1  0
 15 16  2  0
 16 17  1  0
 18 17  1  0
 19 18  2  0
 20 13  1  0
 21 20  2  0
 22 23  1  0
 23 25  1  0
 23 24  2  0
 25 26  1  0
 27 26  1  6
 27 28  1  0
 28 20  1  0
 29 27  1  0
 29 30  1  0
 31 29  2  0
M  END
$$$$
