RHQ.pdb
     RDKit          3D

 31 31  0  0  1  0  0  0  0  0999 V2000
   17.1808  -14.8020  -14.2210 N   0  0  0  0  0  0  0  0  0  0  0  0
   16.0281  -14.4974  -15.0006 C   0  0  0  0  0  0  0  0  0  0  0  0
   14.9706  -14.0725  -14.4394 N   0  0  0  0  0  0  0  0  0  0  0  0
   16.0610  -14.6679  -16.3934 N   0  0  0  0  0  0  0  0  0  0  0  0
   17.1583  -14.2024  -17.2039 C   0  0  0  0  0  0  0  0  0  0  0  0
   17.0354  -12.8098  -17.6694 C   0  0  0  0  0  0  0  0  0  0  0  0
   18.3656  -12.1200  -17.7221 C   0  0  0  0  0  0  0  0  0  0  0  0
   18.8625  -11.5054  -16.4687 C   0  0  2  0  0  0  0  0  0  0  0  0
   18.0728  -11.8462  -15.3257 N   0  0  0  0  0  0  0  0  0  0  0  0
   19.0793  -10.0297  -16.5882 C   0  0  0  0  0  0  0  0  0  0  0  0
   19.7339   -9.6396  -17.6054 O   0  0  0  0  0  0  0  0  0  0  0  0
   14.0893  -13.9449  -14.9953 N   0  0  0  0  0  0  0  0  0  0  0  0
   18.5822   -9.1202  -15.6247 C   0  0  1  0  0  0  0  0  0  0  0  0
   18.7212   -7.7034  -15.7731 C   0  0  0  0  0  0  0  0  0  0  0  0
   17.5828   -6.9573  -15.0852 C   0  0  0  0  0  0  0  0  0  0  0  0
   16.3826   -7.1038  -15.9503 C   0  0  0  0  0  0  0  0  0  0  0  0
   16.4478   -7.2244  -17.3261 N   0  0  0  0  0  0  0  0  0  0  0  0
   15.1864   -7.3323  -17.7565 C   0  0  0  0  0  0  0  0  0  0  0  0
   14.3627   -7.2812  -16.6941 N   0  0  0  0  0  0  0  0  0  0  0  0
   15.0978   -7.1410  -15.5850 C   0  0  0  0  0  0  0  0  0  0  0  0
   19.9701   -7.2255  -15.1231 O   0  0  0  0  0  0  0  0  0  0  0  0
   20.3604   -7.7150  -14.0154 N   0  0  0  0  0  0  0  0  0  0  0  0
   24.7202   -4.4715  -18.4763 C   0  0  0  0  0  0  0  0  0  0  0  0
   25.1463   -4.4814  -17.0990 O   0  0  0  0  0  0  0  0  0  0  0  0
   26.3050   -4.0749  -16.8858 C   0  0  0  0  0  0  0  0  0  0  0  0
   24.2416   -4.9484  -16.0512 C   0  0  0  0  0  0  0  0  0  0  0  0
   22.8857   -5.3863  -16.4924 C   0  0  1  0  0  0  0  0  0  0  0  0
   22.0411   -5.8078  -15.3356 N   0  0  0  0  0  0  0  0  0  0  0  0
   20.7086   -6.2120  -15.7742 C   0  0  0  0  0  0  0  0  0  0  0  0
   21.8878   -4.7960  -14.2876 O   0  0  0  0  0  0  0  0  0  0  0  0
   20.8981   -3.8384  -14.3534 O   0  0  0  0  0  0  0  0  0  0  0  0
  2  3  2  0
  2  1  1  0
  4  2  1  0
  5  4  1  0
  6  5  1  0
  7  6  1  0
  8 10  1  0
  8  7  1  0
  8  9  1  1
 10 11  2  0
 12 13  1  0
 12 10  1  0
 13 14  1  6
 14 15  1  0
 15 19  1  0
 15 16  2  0
 16 17  1  0
 18 17  1  0
 19 18  2  0
 20 13  1  0
 21 20  2  0
 22 23  1  0
 23 25  1  0
 23 24  2  0
 25 26  1  0
 27 26  1  6
 27 28  1  0
 28 20  1  0
 29 27  1  0
 29 30  1  0
 31 29  2  0
M  END
$$$$
