RHQ.pdb
     RDKit          3D

 31 31  0  0  1  0  0  0  0  0999 V2000
   28.6125  -18.8055  -18.2153 N   0  0  0  0  0  0  0  0  0  0  0  0
   28.4356  -17.5202  -18.8033 C   0  0  0  0  0  0  0  0  0  0  0  0
   29.1715  -17.1532  -19.7716 N   0  0  0  0  0  0  0  0  0  0  0  0
   27.4453  -16.6562  -18.3105 N   0  0  0  0  0  0  0  0  0  0  0  0
   26.4943  -17.0624  -17.3064 C   0  0  0  0  0  0  0  0  0  0  0  0
   25.1112  -17.2150  -17.7910 C   0  0  0  0  0  0  0  0  0  0  0  0
   24.1122  -16.7064  -16.7954 C   0  0  0  0  0  0  0  0  0  0  0  0
   23.3003  -17.7133  -16.0723 C   0  0  2  0  0  0  0  0  0  0  0  0
   23.1685  -18.9454  -16.7870 N   0  0  0  0  0  0  0  0  0  0  0  0
   21.9793  -17.1791  -15.6154 C   0  0  0  0  0  0  0  0  0  0  0  0
   22.0128  -16.1013  -14.9426 O   0  0  0  0  0  0  0  0  0  0  0  0
   29.0308  -16.2139  -20.2188 N   0  0  0  0  0  0  0  0  0  0  0  0
   20.7624  -17.8352  -15.9169 C   0  0  2  0  0  0  0  0  0  0  0  0
   19.4924  -17.2939  -15.5391 C   0  0  0  0  0  0  0  0  0  0  0  0
   18.9187  -16.4026  -16.6356 C   0  0  0  0  0  0  0  0  0  0  0  0
   19.6507  -15.1103  -16.5718 C   0  0  0  0  0  0  0  0  0  0  0  0
   20.5139  -14.6762  -17.5608 N   0  0  0  0  0  0  0  0  0  0  0  0
   20.9814  -13.4892  -17.1606 C   0  0  0  0  0  0  0  0  0  0  0  0
   20.4343  -13.1902  -15.9685 N   0  0  0  0  0  0  0  0  0  0  0  0
   19.6171  -14.1860  -15.6073 C   0  0  0  0  0  0  0  0  0  0  0  0
   18.4963  -18.3789  -15.3362 O   0  0  0  0  0  0  0  0  0  0  0  0
   18.6310  -19.5069  -15.9092 N   0  0  0  0  0  0  0  0  0  0  0  0
   14.1489  -18.3237  -10.5044 C   0  0  0  0  0  0  0  0  0  0  0  0
   13.9775  -19.5621  -11.2226 O   0  0  0  0  0  0  0  0  0  0  0  0
   13.1879  -20.3808  -10.7131 C   0  0  0  0  0  0  0  0  0  0  0  0
   14.7057  -19.7992  -12.4667 C   0  0  0  0  0  0  0  0  0  0  0  0
   15.6962  -18.7572  -12.8644 C   0  0  1  0  0  0  0  0  0  0  0  0
   16.4483  -19.1540  -14.0916 N   0  0  0  0  0  0  0  0  0  0  0  0
   17.3971  -18.1176  -14.4877 C   0  0  0  0  0  0  0  0  0  0  0  0
   15.6089  -19.4692  -15.2499 O   0  0  0  0  0  0  0  0  0  0  0  0
   15.1036  -20.7368  -15.4466 O   0  0  0  0  0  0  0  0  0  0  0  0
  2  3  2  0
  2  1  1  0
  4  2  1  0
  5  4  1  0
  6  5  1  0
  7  6  1  0
  8 10  1  0
  8  7  1  0
  8  9  1  6
 10 11  2  0
 12 13  1  0
 12 10  1  0
 13 14  1  1
 14 15  1  0
 15 19  1  0
 15 16  2  0
 16 17  1  0
 18 17  1  0
 19 18  2  0
 20 13  1  0
 21 20  2  0
 22 23  1  0
 23 25  1  0
 23 24  2  0
 25 26  1  0
 27 26  1  1
 27 28  1  0
 28 20  1  0
 29 27  1  0
 29 30  1  0
 31 29  2  0
M  END
$$$$
