RHQ.pdb
     RDKit          3D

 31 31  0  0  1  0  0  0  0  0999 V2000
   24.4637  -25.9308  -15.3981 N   0  0  0  0  0  0  0  0  0  0  0  0
   25.2509  -25.2349  -16.3598 C   0  0  0  0  0  0  0  0  0  0  0  0
   25.6710  -25.8352  -17.3975 N   0  0  0  0  0  0  0  0  0  0  0  0
   25.5640  -23.8814  -16.1596 N   0  0  0  0  0  0  0  0  0  0  0  0
   24.8472  -23.0520  -15.2237 C   0  0  0  0  0  0  0  0  0  0  0  0
   23.5087  -22.6293  -15.6717 C   0  0  0  0  0  0  0  0  0  0  0  0
   22.8723  -21.6760  -14.7052 C   0  0  0  0  0  0  0  0  0  0  0  0
   22.4922  -20.3393  -15.2196 C   0  0  2  0  0  0  0  0  0  0  0  0
   23.5884  -19.4211  -15.2589 N   0  0  0  0  0  0  0  0  0  0  0  0
   21.2967  -19.7654  -14.5265 C   0  0  0  0  0  0  0  0  0  0  0  0
   21.5092  -19.2282  -13.3943 O   0  0  0  0  0  0  0  0  0  0  0  0
   26.2662  -25.3295  -18.0989 N   0  0  0  0  0  0  0  0  0  0  0  0
   20.0039  -19.8161  -15.0995 C   0  0  2  0  0  0  0  0  0  0  0  0
   18.8624  -19.2430  -14.4535 C   0  0  0  0  0  0  0  0  0  0  0  0
   18.2300  -18.1493  -15.3078 C   0  0  0  0  0  0  0  0  0  0  0  0
   18.9722  -16.8929  -15.0235 C   0  0  0  0  0  0  0  0  0  0  0  0
   19.5144  -16.5938  -13.7873 N   0  0  0  0  0  0  0  0  0  0  0  0
   20.0957  -15.3959  -13.9091 C   0  0  0  0  0  0  0  0  0  0  0  0
   19.9252  -14.9604  -15.1705 N   0  0  0  0  0  0  0  0  0  0  0  0
   19.2352  -15.8801  -15.8545 C   0  0  0  0  0  0  0  0  0  0  0  0
   17.8015  -20.2652  -14.2534 O   0  0  0  0  0  0  0  0  0  0  0  0
   17.6716  -21.2406  -15.0600 N   0  0  0  0  0  0  0  0  0  0  0  0
   14.2255  -20.7760   -8.8289 C   0  0  0  0  0  0  0  0  0  0  0  0
   13.8195  -21.8365   -9.7173 O   0  0  0  0  0  0  0  0  0  0  0  0
   12.9872  -22.6420   -9.2572 C   0  0  0  0  0  0  0  0  0  0  0  0
   14.3764  -21.9222  -11.0652 C   0  0  0  0  0  0  0  0  0  0  0  0
   15.3703  -20.8751  -11.4401 C   0  0  2  0  0  0  0  0  0  0  0  0
   15.9060  -21.0937  -12.8165 N   0  0  0  0  0  0  0  0  0  0  0  0
   16.9437  -20.1192  -13.1402 C   0  0  0  0  0  0  0  0  0  0  0  0
   14.8988  -21.0561  -13.8794 O   0  0  0  0  0  0  0  0  0  0  0  0
   14.5563  -22.1905  -14.5843 O   0  0  0  0  0  0  0  0  0  0  0  0
  2  3  2  0
  2  1  1  0
  4  2  1  0
  5  4  1  0
  6  5  1  0
  7  6  1  0
  8 10  1  0
  8  7  1  0
  8  9  1  1
 10 11  2  0
 12 13  1  0
 12 10  1  0
 13 14  1  1
 14 15  1  0
 15 19  1  0
 15 16  2  0
 16 17  1  0
 18 17  1  0
 19 18  2  0
 20 13  1  0
 21 20  2  0
 22 23  1  0
 23 25  1  0
 23 24  2  0
 25 26  1  0
 27 26  1  1
 27 28  1  0
 28 20  1  0
 29 27  1  0
 29 30  1  0
 31 29  2  0
M  END
$$$$
