LKW.pdb
     RDKit          3D

 32 33  0  0  1  0  0  0  0  0999 V2000
   27.1694  -14.2033  -15.1001 C   0  0  0  0  0  0  0  0  0  0  0  0
   26.4848  -15.0989  -16.1133 C   0  0  1  0  0  0  0  0  0  0  0  0
   27.4691  -16.1717  -16.5848 C   0  0  0  0  0  0  0  0  0  0  0  0
   25.3344  -15.8302  -15.4944 C   0  0  0  0  0  0  0  0  0  0  0  0
   24.7767  -16.8792  -16.4188 C   0  0  2  0  0  0  0  0  0  0  0  0
   23.4761  -16.3662  -16.8997 N   0  0  0  0  0  0  0  0  0  0  0  0
   24.4957  -18.1434  -15.6592 C   0  0  0  0  0  0  0  0  0  0  0  0
   23.5929  -18.2003  -14.7839 O   0  0  0  0  0  0  0  0  0  0  0  0
   25.2455  -19.3108  -15.9132 N   0  0  0  0  0  0  0  0  0  0  0  0
   24.8084  -20.5743  -15.2033 C   0  0  1  0  0  0  0  0  0  0  0  0
   25.0864  -21.6969  -16.1224 C   0  0  0  0  0  0  0  0  0  0  0  0
   24.2780  -22.8936  -16.2519 C   0  0  0  0  0  0  0  0  0  0  0  0
   23.7912  -23.6233  -15.0671 C   0  0  0  0  0  0  0  0  0  0  0  0
   23.0739  -24.9173  -15.5476 C   0  0  0  0  0  0  0  0  0  0  0  0
   22.6160  -25.6013  -14.3588 N   0  0  0  0  0  0  0  0  0  0  0  0
   25.7683  -20.5786  -14.0591 C   0  0  0  0  0  0  0  0  0  0  0  0
   26.9129  -20.1500  -14.2208 O   0  0  0  0  0  0  0  0  0  0  0  0
   25.4520  -21.0586  -12.7431 N   0  0  0  0  0  0  0  0  0  0  0  0
   26.4697  -21.3084  -11.7368 C   0  0  1  0  0  0  0  0  0  0  0  0
   26.9958  -20.0761  -11.1280 C   0  0  0  0  0  0  0  0  0  0  0  0
   27.9842  -20.2614  -10.0433 C   0  0  0  0  0  0  0  0  0  0  0  0
   29.2707  -20.7876  -10.2509 C   0  0  0  0  0  0  0  0  0  0  0  0
   29.8867  -20.8591   -9.0851 N   0  0  0  0  0  0  0  0  0  0  0  0
   29.0795  -20.4082   -8.1175 C   0  0  0  0  0  0  0  0  0  0  0  0
   29.2455  -20.2601   -6.7397 C   0  0  0  0  0  0  0  0  0  0  0  0
   28.2096  -19.7382   -6.0096 C   0  0  0  0  0  0  0  0  0  0  0  0
   27.0097  -19.3564   -6.5995 C   0  0  0  0  0  0  0  0  0  0  0  0
   26.8537  -19.5045   -7.9451 C   0  0  0  0  0  0  0  0  0  0  0  0
   27.8903  -20.0309   -8.6959 C   0  0  0  0  0  0  0  0  0  0  0  0
   26.0254  -22.3901  -10.8508 C   0  0  0  0  0  0  0  0  0  0  0  0
   26.8762  -23.2745  -10.2000 O   0  0  0  0  0  0  0  0  0  0  0  0
   24.7919  -22.5693  -10.6410 O   0  0  0  0  0  0  0  0  0  0  0  0
  2  3  1  1
  2  1  1  0
  4  2  1  0
  5  6  1  1
  5  4  1  0
  7  5  1  0
  8  7  2  0
  9  7  1  0
 10 16  1  0
 10  9  1  0
 10 11  1  6
 12 11  1  0
 13 14  1  0
 13 12  1  0
 15 14  1  0
 16 18  1  0
 17 16  2  0
 18 19  1  0
 19 20  1  1
 20 21  1  0
 21 29  1  0
 21 22  2  0
 22 23  1  0
 24 25  2  0
 24 23  1  0
 26 25  1  0
 27 26  2  0
 28 27  1  0
 28 29  2  0
 29 24  1  0
 30 31  1  0
 30 19  1  0
 32 30  2  0
M  END
$$$$
