LKW.pdb
     RDKit          3D

 32 33  0  0  1  0  0  0  0  0999 V2000
   23.4600  -15.7172  -17.6104 C   0  0  0  0  0  0  0  0  0  0  0  0
   23.9601  -15.9163  -16.1935 C   0  0  1  0  0  0  0  0  0  0  0  0
   22.8064  -15.6870  -15.2144 C   0  0  0  0  0  0  0  0  0  0  0  0
   24.4178  -17.3251  -15.9775 C   0  0  0  0  0  0  0  0  0  0  0  0
   24.8150  -17.5704  -14.5464 C   0  0  2  0  0  0  0  0  0  0  0  0
   25.8461  -16.5628  -14.2184 N   0  0  0  0  0  0  0  0  0  0  0  0
   25.4612  -18.9190  -14.4114 C   0  0  0  0  0  0  0  0  0  0  0  0
   24.9203  -19.9586  -14.8706 O   0  0  0  0  0  0  0  0  0  0  0  0
   26.7050  -19.0528  -13.7599 N   0  0  0  0  0  0  0  0  0  0  0  0
   27.3451  -20.4244  -13.7796 C   0  0  1  0  0  0  0  0  0  0  0  0
   28.7824  -20.2196  -14.0526 C   0  0  0  0  0  0  0  0  0  0  0  0
   29.3449  -19.8272  -15.3300 C   0  0  0  0  0  0  0  0  0  0  0  0
   28.7286  -20.2467  -16.6018 C   0  0  0  0  0  0  0  0  0  0  0  0
   29.5626  -19.6509  -17.7719 C   0  0  0  0  0  0  0  0  0  0  0  0
   28.9251  -20.0835  -18.9956 N   0  0  0  0  0  0  0  0  0  0  0  0
   27.1307  -20.8350  -12.3597 C   0  0  0  0  0  0  0  0  0  0  0  0
   28.0188  -21.4441  -11.7594 O   0  0  0  0  0  0  0  0  0  0  0  0
   25.9322  -20.5672  -11.6152 N   0  0  0  0  0  0  0  0  0  0  0  0
   25.8033  -20.8808  -10.2025 C   0  0  1  0  0  0  0  0  0  0  0  0
   26.9698  -20.4629   -9.4085 C   0  0  0  0  0  0  0  0  0  0  0  0
   26.7980  -20.4954   -7.9397 C   0  0  0  0  0  0  0  0  0  0  0  0
   25.6236  -20.9392   -7.3081 C   0  0  0  0  0  0  0  0  0  0  0  0
   25.7751  -20.8074   -6.0030 N   0  0  0  0  0  0  0  0  0  0  0  0
   26.9852  -20.3021   -5.7357 C   0  0  0  0  0  0  0  0  0  0  0  0
   27.6368  -19.9886   -4.5420 C   0  0  0  0  0  0  0  0  0  0  0  0
   28.9122  -19.4910   -4.6056 C   0  0  0  0  0  0  0  0  0  0  0  0
   29.5675  -19.2922   -5.8158 C   0  0  0  0  0  0  0  0  0  0  0  0
   28.9253  -19.5995   -6.9778 C   0  0  0  0  0  0  0  0  0  0  0  0
   27.6367  -20.1020   -6.9302 C   0  0  0  0  0  0  0  0  0  0  0  0
   24.4669  -20.4943   -9.7363 C   0  0  0  0  0  0  0  0  0  0  0  0
   23.7079  -21.2231   -8.8296 O   0  0  0  0  0  0  0  0  0  0  0  0
   23.9286  -19.4351  -10.1677 O   0  0  0  0  0  0  0  0  0  0  0  0
  2  3  1  1
  2  1  1  0
  4  2  1  0
  5  6  1  6
  5  4  1  0
  7  5  1  0
  8  7  2  0
  9  7  1  0
 10 16  1  0
 10  9  1  0
 10 11  1  1
 12 11  1  0
 13 14  1  0
 13 12  1  0
 15 14  1  0
 16 18  1  0
 17 16  2  0
 18 19  1  0
 19 20  1  1
 20 21  1  0
 21 29  1  0
 21 22  2  0
 22 23  1  0
 24 25  2  0
 24 23  1  0
 26 25  1  0
 27 26  2  0
 28 27  1  0
 28 29  2  0
 29 24  1  0
 30 31  1  0
 30 19  1  0
 32 30  2  0
M  END
$$$$
