LKW.pdb
     RDKit          3D

 32 33  0  0  1  0  0  0  0  0999 V2000
   37.1713  -28.6146  -17.7519 C   0  0  0  0  0  0  0  0  0  0  0  0
   35.6718  -28.4119  -17.8404 C   0  0  1  0  0  0  0  0  0  0  0  0
   35.3812  -27.1343  -18.6312 C   0  0  0  0  0  0  0  0  0  0  0  0
   35.0216  -29.5285  -18.5965 C   0  0  0  0  0  0  0  0  0  0  0  0
   33.5242  -29.3798  -18.6349 C   0  0  2  0  0  0  0  0  0  0  0  0
   33.0537  -29.5097  -17.2392 N   0  0  0  0  0  0  0  0  0  0  0  0
   32.9106  -30.5090  -19.4113 C   0  0  0  0  0  0  0  0  0  0  0  0
   33.2291  -30.7366  -20.6076 O   0  0  0  0  0  0  0  0  0  0  0  0
   31.9525  -31.3514  -18.8099 N   0  0  0  0  0  0  0  0  0  0  0  0
   31.3377  -32.4238  -19.6837 C   0  0  1  0  0  0  0  0  0  0  0  0
   31.0684  -33.5833  -18.8088 C   0  0  0  0  0  0  0  0  0  0  0  0
   31.8383  -34.8116  -18.7850 C   0  0  0  0  0  0  0  0  0  0  0  0
   31.9393  -35.6777  -19.9737 C   0  0  0  0  0  0  0  0  0  0  0  0
   32.7356  -36.9558  -19.5839 C   0  0  0  0  0  0  0  0  0  0  0  0
   32.8103  -37.7747  -20.7734 N   0  0  0  0  0  0  0  0  0  0  0  0
   30.0636  -31.7482  -20.0721 C   0  0  0  0  0  0  0  0  0  0  0  0
   29.3792  -31.1935  -19.2097 O   0  0  0  0  0  0  0  0  0  0  0  0
   29.5573  -31.6927  -21.4148 N   0  0  0  0  0  0  0  0  0  0  0  0
   28.2784  -31.0866  -21.7433 C   0  0  1  0  0  0  0  0  0  0  0  0
   28.3237  -30.2665  -22.9645 C   0  0  0  0  0  0  0  0  0  0  0  0
   27.0352  -29.6878  -23.4034 C   0  0  0  0  0  0  0  0  0  0  0  0
   26.5424  -28.4564  -22.9389 C   0  0  0  0  0  0  0  0  0  0  0  0
   25.3608  -28.2443  -23.4888 N   0  0  0  0  0  0  0  0  0  0  0  0
   25.0447  -29.2667  -24.2926 C   0  0  0  0  0  0  0  0  0  0  0  0
   23.9389  -29.5255  -25.1037 C   0  0  0  0  0  0  0  0  0  0  0  0
   23.9236  -30.6834  -25.8368 C   0  0  0  0  0  0  0  0  0  0  0  0
   24.9702  -31.5978  -25.7942 C   0  0  0  0  0  0  0  0  0  0  0  0
   26.0466  -31.3397  -24.9994 C   0  0  0  0  0  0  0  0  0  0  0  0
   26.0764  -30.1751  -24.2523 C   0  0  0  0  0  0  0  0  0  0  0  0
   27.2152  -32.0895  -21.6150 C   0  0  0  0  0  0  0  0  0  0  0  0
   27.3538  -33.4309  -21.9476 O   0  0  0  0  0  0  0  0  0  0  0  0
   26.0769  -31.7522  -21.1810 O   0  0  0  0  0  0  0  0  0  0  0  0
  2  3  1  6
  2  1  1  0
  4  2  1  0
  5  6  1  1
  5  4  1  0
  7  5  1  0
  8  7  2  0
  9  7  1  0
 10 16  1  0
 10  9  1  0
 10 11  1  1
 12 11  1  0
 13 14  1  0
 13 12  1  0
 15 14  1  0
 16 18  1  0
 17 16  2  0
 18 19  1  0
 19 20  1  6
 20 21  1  0
 21 29  1  0
 21 22  2  0
 22 23  1  0
 24 25  2  0
 24 23  1  0
 26 25  1  0
 27 26  2  0
 28 27  1  0
 28 29  2  0
 29 24  1  0
 30 31  1  0
 30 19  1  0
 32 30  2  0
M  END
$$$$
