LKW.pdb
     RDKit          3D

 32 33  0  0  1  0  0  0  0  0999 V2000
   17.1884  -25.7722  -16.5484 C   0  0  0  0  0  0  0  0  0  0  0  0
   18.2199  -24.7024  -16.8467 C   0  0  1  0  0  0  0  0  0  0  0  0
   17.7307  -23.3619  -16.2938 C   0  0  0  0  0  0  0  0  0  0  0  0
   19.5136  -24.9939  -16.1521 C   0  0  0  0  0  0  0  0  0  0  0  0
   20.3950  -23.7759  -16.0781 C   0  0  2  0  0  0  0  0  0  0  0  0
   20.7540  -23.4324  -17.4707 N   0  0  0  0  0  0  0  0  0  0  0  0
   21.6741  -24.1039  -15.3636 C   0  0  0  0  0  0  0  0  0  0  0  0
   21.6828  -24.4598  -14.1563 O   0  0  0  0  0  0  0  0  0  0  0  0
   22.9102  -24.0210  -16.0378 N   0  0  0  0  0  0  0  0  0  0  0  0
   24.1433  -24.4323  -15.2620 C   0  0  1  0  0  0  0  0  0  0  0  0
   25.1387  -24.8866  -16.2544 C   0  0  0  0  0  0  0  0  0  0  0  0
   26.5307  -25.1779  -15.9720 C   0  0  0  0  0  0  0  0  0  0  0  0
   27.4728  -25.5396  -17.0466 C   0  0  0  0  0  0  0  0  0  0  0  0
   28.8749  -25.7702  -16.4136 C   0  0  0  0  0  0  0  0  0  0  0  0
   29.7667  -26.1132  -17.4990 N   0  0  0  0  0  0  0  0  0  0  0  0
   24.5401  -23.1148  -14.6812 C   0  0  0  0  0  0  0  0  0  0  0  0
   24.4735  -22.0972  -15.3739 O   0  0  0  0  0  0  0  0  0  0  0  0
   25.0084  -22.9352  -13.3355 N   0  0  0  0  0  0  0  0  0  0  0  0
   25.3558  -21.6316  -12.7964 C   0  0  1  0  0  0  0  0  0  0  0  0
   25.0775  -21.5084  -11.3564 C   0  0  0  0  0  0  0  0  0  0  0  0
   25.7240  -20.3702  -10.6676 C   0  0  0  0  0  0  0  0  0  0  0  0
   25.9880  -19.1383  -11.2903 C   0  0  0  0  0  0  0  0  0  0  0  0
   26.6019  -18.3543  -10.4231 N   0  0  0  0  0  0  0  0  0  0  0  0
   26.7578  -18.9986   -9.2605 C   0  0  0  0  0  0  0  0  0  0  0  0
   27.3196  -18.6238   -8.0392 C   0  0  0  0  0  0  0  0  0  0  0  0
   27.3085  -19.5291   -7.0102 C   0  0  0  0  0  0  0  0  0  0  0  0
   26.7580  -20.7983   -7.1497 C   0  0  0  0  0  0  0  0  0  0  0  0
   26.2119  -21.1584   -8.3451 C   0  0  0  0  0  0  0  0  0  0  0  0
   26.2163  -20.2557   -9.3941 C   0  0  0  0  0  0  0  0  0  0  0  0
   26.6808  -21.2371  -13.2875 C   0  0  0  0  0  0  0  0  0  0  0  0
   27.0191  -19.9534  -13.6963 O   0  0  0  0  0  0  0  0  0  0  0  0
   27.6070  -22.0938  -13.3655 O   0  0  0  0  0  0  0  0  0  0  0  0
  2  3  1  1
  2  1  1  0
  4  2  1  0
  5  6  1  6
  5  4  1  0
  7  5  1  0
  8  7  2  0
  9  7  1  0
 10 16  1  0
 10  9  1  0
 10 11  1  6
 12 11  1  0
 13 14  1  0
 13 12  1  0
 15 14  1  0
 16 18  1  0
 17 16  2  0
 18 19  1  0
 19 20  1  1
 20 21  1  0
 21 29  1  0
 21 22  2  0
 22 23  1  0
 24 25  2  0
 24 23  1  0
 26 25  1  0
 27 26  2  0
 28 27  1  0
 28 29  2  0
 29 24  1  0
 30 31  1  0
 30 19  1  0
 32 30  2  0
M  END
$$$$
