LKW.pdb
     RDKit          3D

 32 33  0  0  1  0  0  0  0  0999 V2000
   28.6027  -15.9036  -16.2980 C   0  0  0  0  0  0  0  0  0  0  0  0
   28.3080  -17.1858  -17.0506 C   0  0  1  0  0  0  0  0  0  0  0  0
   29.5587  -18.0677  -17.0539 C   0  0  0  0  0  0  0  0  0  0  0  0
   27.2393  -17.9787  -16.3647 C   0  0  0  0  0  0  0  0  0  0  0  0
   27.0628  -19.3366  -16.9898 C   0  0  2  0  0  0  0  0  0  0  0  0
   26.4576  -19.1109  -18.3198 N   0  0  0  0  0  0  0  0  0  0  0  0
   26.0830  -20.1502  -16.1946 C   0  0  0  0  0  0  0  0  0  0  0  0
   24.8903  -19.7794  -16.0391 O   0  0  0  0  0  0  0  0  0  0  0  0
   26.4816  -21.3643  -15.5974 N   0  0  0  0  0  0  0  0  0  0  0  0
   25.4352  -22.1112  -14.7982 C   0  0  1  0  0  0  0  0  0  0  0  0
   25.8657  -23.5234  -14.7480 C   0  0  0  0  0  0  0  0  0  0  0  0
   25.3459  -24.5879  -15.5840 C   0  0  0  0  0  0  0  0  0  0  0  0
   26.2368  -25.4089  -16.4241 C   0  0  0  0  0  0  0  0  0  0  0  0
   25.3577  -26.2899  -17.3572 C   0  0  0  0  0  0  0  0  0  0  0  0
   26.2668  -27.0238  -18.2092 N   0  0  0  0  0  0  0  0  0  0  0  0
   25.6071  -21.4591  -13.4656 C   0  0  0  0  0  0  0  0  0  0  0  0
   26.7179  -21.4461  -12.9310 O   0  0  0  0  0  0  0  0  0  0  0  0
   24.5453  -20.8258  -12.7349 N   0  0  0  0  0  0  0  0  0  0  0  0
   24.4412  -20.8982  -11.2876 C   0  0  1  0  0  0  0  0  0  0  0  0
   25.2413  -19.8732  -10.5982 C   0  0  0  0  0  0  0  0  0  0  0  0
   26.5624  -20.3118  -10.0981 C   0  0  0  0  0  0  0  0  0  0  0  0
   27.5172  -20.9591  -10.9009 C   0  0  0  0  0  0  0  0  0  0  0  0
   28.5648  -21.2510  -10.1519 N   0  0  0  0  0  0  0  0  0  0  0  0
   28.3567  -20.8317   -8.8981 C   0  0  0  0  0  0  0  0  0  0  0  0
   29.1379  -20.8799   -7.7426 C   0  0  0  0  0  0  0  0  0  0  0  0
   28.6346  -20.3332   -6.5910 C   0  0  0  0  0  0  0  0  0  0  0  0
   27.3789  -19.7380   -6.5439 C   0  0  0  0  0  0  0  0  0  0  0  0
   26.6207  -19.6951   -7.6754 C   0  0  0  0  0  0  0  0  0  0  0  0
   27.1146  -20.2437   -8.8460 C   0  0  0  0  0  0  0  0  0  0  0  0
   23.0334  -21.0578  -10.9064 C   0  0  0  0  0  0  0  0  0  0  0  0
   22.0029  -21.3319  -11.7965 O   0  0  0  0  0  0  0  0  0  0  0  0
   22.6889  -20.9407   -9.6959 O   0  0  0  0  0  0  0  0  0  0  0  0
  2  3  1  1
  2  1  1  0
  4  2  1  0
  5  6  1  6
  5  4  1  0
  7  5  1  0
  8  7  2  0
  9  7  1  0
 10 16  1  0
 10  9  1  0
 10 11  1  1
 12 11  1  0
 13 14  1  0
 13 12  1  0
 15 14  1  0
 16 18  1  0
 17 16  2  0
 18 19  1  0
 19 20  1  1
 20 21  1  0
 21 29  1  0
 21 22  2  0
 22 23  1  0
 24 25  2  0
 24 23  1  0
 26 25  1  0
 27 26  2  0
 28 27  1  0
 28 29  2  0
 29 24  1  0
 30 31  1  0
 30 19  1  0
 32 30  2  0
M  END
$$$$
