LKW.pdb
     RDKit          3D

 32 33  0  0  1  0  0  0  0  0999 V2000
   30.6359  -18.8984  -14.0607 C   0  0  0  0  0  0  0  0  0  0  0  0
   29.5925  -19.9762  -13.8443 C   0  0  1  0  0  0  0  0  0  0  0  0
   29.6137  -20.4116  -12.3772 C   0  0  0  0  0  0  0  0  0  0  0  0
   28.2148  -19.4514  -14.1045 C   0  0  0  0  0  0  0  0  0  0  0  0
   27.1727  -20.5301  -13.9778 C   0  0  2  0  0  0  0  0  0  0  0  0
   27.8700  -21.8153  -14.1976 N   0  0  0  0  0  0  0  0  0  0  0  0
   26.1499  -20.3940  -15.0686 C   0  0  0  0  0  0  0  0  0  0  0  0
   25.6396  -19.2807  -15.3592 O   0  0  0  0  0  0  0  0  0  0  0  0
   25.7336  -21.5244  -15.8022 N   0  0  0  0  0  0  0  0  0  0  0  0
   24.6691  -21.3041  -16.8557 C   0  0  1  0  0  0  0  0  0  0  0  0
   25.0377  -22.1420  -18.0151 C   0  0  0  0  0  0  0  0  0  0  0  0
   25.6121  -21.6530  -19.2533 C   0  0  0  0  0  0  0  0  0  0  0  0
   26.8300  -20.8223  -19.2594 C   0  0  0  0  0  0  0  0  0  0  0  0
   27.1063  -20.3665  -20.7207 C   0  0  0  0  0  0  0  0  0  0  0  0
   28.2988  -19.5497  -20.6801 N   0  0  0  0  0  0  0  0  0  0  0  0
   23.4805  -21.8711  -16.1511 C   0  0  0  0  0  0  0  0  0  0  0  0
   23.4079  -23.0865  -15.9574 O   0  0  0  0  0  0  0  0  0  0  0  0
   22.3803  -21.0858  -15.6660 N   0  0  0  0  0  0  0  0  0  0  0  0
   21.3412  -21.6384  -14.8142 C   0  0  1  0  0  0  0  0  0  0  0  0
   21.8732  -22.3577  -13.6456 C   0  0  0  0  0  0  0  0  0  0  0  0
   22.4850  -21.5182  -12.5926 C   0  0  0  0  0  0  0  0  0  0  0  0
   21.8253  -20.4355  -11.9862 C   0  0  0  0  0  0  0  0  0  0  0  0
   22.6504  -19.8739  -11.1217 N   0  0  0  0  0  0  0  0  0  0  0  0
   23.8193  -20.5257  -11.1214 C   0  0  0  0  0  0  0  0  0  0  0  0
   24.9996  -20.3511  -10.3974 C   0  0  0  0  0  0  0  0  0  0  0  0
   26.0369  -21.2186  -10.6206 C   0  0  0  0  0  0  0  0  0  0  0  0
   25.9454  -22.2575  -11.5402 C   0  0  0  0  0  0  0  0  0  0  0  0
   24.7905  -22.4219  -12.2447 C   0  0  0  0  0  0  0  0  0  0  0  0
   23.7344  -21.5534  -12.0313 C   0  0  0  0  0  0  0  0  0  0  0  0
   20.2989  -20.6289  -14.5975 C   0  0  0  0  0  0  0  0  0  0  0  0
   19.0420  -20.8955  -14.0697 O   0  0  0  0  0  0  0  0  0  0  0  0
   20.5149  -19.4215  -14.9030 O   0  0  0  0  0  0  0  0  0  0  0  0
  2  3  1  1
  2  1  1  0
  4  2  1  0
  5  6  1  6
  5  4  1  0
  7  5  1  0
  8  7  2  0
  9  7  1  0
 10 16  1  0
 10  9  1  0
 10 11  1  6
 12 11  1  0
 13 14  1  0
 13 12  1  0
 15 14  1  0
 16 18  1  0
 17 16  2  0
 18 19  1  0
 19 20  1  1
 20 21  1  0
 21 29  1  0
 21 22  2  0
 22 23  1  0
 24 25  2  0
 24 23  1  0
 26 25  1  0
 27 26  2  0
 28 27  1  0
 28 29  2  0
 29 24  1  0
 30 31  1  0
 30 19  1  0
 32 30  2  0
M  END
$$$$
