LKW.pdb
     RDKit          3D

 32 33  0  0  1  0  0  0  0  0999 V2000
   26.7804  -17.3019  -23.8945 C   0  0  0  0  0  0  0  0  0  0  0  0
   25.4794  -16.9642  -23.1939 C   0  0  1  0  0  0  0  0  0  0  0  0
   24.7195  -15.9210  -24.0163 C   0  0  0  0  0  0  0  0  0  0  0  0
   24.5861  -18.1626  -23.1110 C   0  0  0  0  0  0  0  0  0  0  0  0
   25.3549  -19.4099  -22.7657 C   0  0  2  0  0  0  0  0  0  0  0  0
   25.8053  -19.9936  -24.0473 N   0  0  0  0  0  0  0  0  0  0  0  0
   24.4471  -20.4167  -22.1202 C   0  0  0  0  0  0  0  0  0  0  0  0
   23.7416  -21.2030  -22.8045 O   0  0  0  0  0  0  0  0  0  0  0  0
   24.3643  -20.5060  -20.7150 N   0  0  0  0  0  0  0  0  0  0  0  0
   23.5091  -21.6189  -20.1480 C   0  0  1  0  0  0  0  0  0  0  0  0
   24.3088  -22.2752  -19.0935 C   0  0  0  0  0  0  0  0  0  0  0  0
   24.5651  -23.6992  -19.0004 C   0  0  0  0  0  0  0  0  0  0  0  0
   23.5108  -24.6894  -19.2857 C   0  0  0  0  0  0  0  0  0  0  0  0
   24.0828  -26.1093  -19.0093 C   0  0  0  0  0  0  0  0  0  0  0  0
   23.0505  -27.0504  -19.3833 N   0  0  0  0  0  0  0  0  0  0  0  0
   22.3998  -20.8187  -19.5484 C   0  0  0  0  0  0  0  0  0  0  0  0
   22.6464  -20.0090  -18.6520 O   0  0  0  0  0  0  0  0  0  0  0  0
   21.0241  -20.9221  -19.9473 N   0  0  0  0  0  0  0  0  0  0  0  0
   19.9710  -20.1307  -19.3345 C   0  0  1  0  0  0  0  0  0  0  0  0
   19.3608  -19.1636  -20.2610 C   0  0  0  0  0  0  0  0  0  0  0  0
   18.1679  -18.4489  -19.7571 C   0  0  0  0  0  0  0  0  0  0  0  0
   18.2333  -17.2280  -19.0641 C   0  0  0  0  0  0  0  0  0  0  0  0
   17.0080  -16.8761  -18.7200 N   0  0  0  0  0  0  0  0  0  0  0  0
   16.1351  -17.7960  -19.1478 C   0  0  0  0  0  0  0  0  0  0  0  0
   14.7457  -17.8948  -19.0599 C   0  0  0  0  0  0  0  0  0  0  0  0
   14.1309  -18.9791  -19.6297 C   0  0  0  0  0  0  0  0  0  0  0  0
   14.8476  -19.9734  -20.2863 C   0  0  0  0  0  0  0  0  0  0  0  0
   16.2041  -19.8714  -20.3678 C   0  0  0  0  0  0  0  0  0  0  0  0
   16.8397  -18.7829  -19.7965 C   0  0  0  0  0  0  0  0  0  0  0  0
   19.0870  -21.0093  -18.5606 C   0  0  0  0  0  0  0  0  0  0  0  0
   18.3820  -20.6185  -17.4294 O   0  0  0  0  0  0  0  0  0  0  0  0
   18.9310  -22.2145  -18.9085 O   0  0  0  0  0  0  0  0  0  0  0  0
  2  3  1  6
  2  1  1  0
  4  2  1  0
  5  6  1  6
  5  4  1  0
  7  5  1  0
  8  7  2  0
  9  7  1  0
 10 16  1  0
 10  9  1  0
 10 11  1  1
 12 11  1  0
 13 14  1  0
 13 12  1  0
 15 14  1  0
 16 18  1  0
 17 16  2  0
 18 19  1  0
 19 20  1  6
 20 21  1  0
 21 29  1  0
 21 22  2  0
 22 23  1  0
 24 25  2  0
 24 23  1  0
 26 25  1  0
 27 26  2  0
 28 27  1  0
 28 29  2  0
 29 24  1  0
 30 31  1  0
 30 19  1  0
 32 30  2  0
M  END
$$$$
