LKW.pdb
     RDKit          3D

 32 33  0  0  1  0  0  0  0  0999 V2000
   29.3585  -15.9307  -16.2750 C   0  0  0  0  0  0  0  0  0  0  0  0
   28.6638  -17.2578  -16.5065 C   0  0  1  0  0  0  0  0  0  0  0  0
   29.7148  -18.3644  -16.6200 C   0  0  0  0  0  0  0  0  0  0  0  0
   27.7975  -17.6221  -15.3413 C   0  0  0  0  0  0  0  0  0  0  0  0
   26.9215  -18.8079  -15.6453 C   0  0  2  0  0  0  0  0  0  0  0  0
   26.0915  -18.4292  -16.8088 N   0  0  0  0  0  0  0  0  0  0  0  0
   25.9827  -19.0658  -14.5022 C   0  0  0  0  0  0  0  0  0  0  0  0
   25.2090  -18.1722  -14.0695 O   0  0  0  0  0  0  0  0  0  0  0  0
   25.9451  -20.3313  -13.8806 N   0  0  0  0  0  0  0  0  0  0  0  0
   24.8538  -20.5601  -12.8568 C   0  0  1  0  0  0  0  0  0  0  0  0
   24.1482  -21.7952  -13.2555 C   0  0  0  0  0  0  0  0  0  0  0  0
   22.7517  -21.8765  -13.6366 C   0  0  0  0  0  0  0  0  0  0  0  0
   21.9615  -20.6648  -13.9207 C   0  0  0  0  0  0  0  0  0  0  0  0
   20.5345  -21.1009  -14.3602 C   0  0  0  0  0  0  0  0  0  0  0  0
   19.7854  -19.8864  -14.5945 N   0  0  0  0  0  0  0  0  0  0  0  0
   25.6827  -20.7958  -11.6370 C   0  0  0  0  0  0  0  0  0  0  0  0
   26.6567  -21.5492  -11.6969 O   0  0  0  0  0  0  0  0  0  0  0  0
   25.4254  -20.1941  -10.3587 N   0  0  0  0  0  0  0  0  0  0  0  0
   25.9264  -20.7552   -9.1158 C   0  0  1  0  0  0  0  0  0  0  0  0
   27.0201  -19.9673   -8.5250 C   0  0  0  0  0  0  0  0  0  0  0  0
   27.4097  -20.3337   -7.1459 C   0  0  0  0  0  0  0  0  0  0  0  0
   27.0292  -21.5377   -6.5289 C   0  0  0  0  0  0  0  0  0  0  0  0
   27.5019  -21.5435   -5.2959 N   0  0  0  0  0  0  0  0  0  0  0  0
   28.1752  -20.4106   -5.0631 C   0  0  0  0  0  0  0  0  0  0  0  0
   28.8674  -19.9334   -3.9491 C   0  0  0  0  0  0  0  0  0  0  0  0
   29.4813  -18.7111   -4.0362 C   0  0  0  0  0  0  0  0  0  0  0  0
   29.4332  -17.9417   -5.1933 C   0  0  0  0  0  0  0  0  0  0  0  0
   28.7549  -18.4129   -6.2773 C   0  0  0  0  0  0  0  0  0  0  0  0
   28.1288  -19.6450   -6.2046 C   0  0  0  0  0  0  0  0  0  0  0  0
   24.7964  -21.1324   -8.2595 C   0  0  0  0  0  0  0  0  0  0  0  0
   24.8399  -22.1272   -7.2911 O   0  0  0  0  0  0  0  0  0  0  0  0
   23.6859  -20.5410   -8.3812 O   0  0  0  0  0  0  0  0  0  0  0  0
  2  3  1  1
  2  1  1  0
  4  2  1  0
  5  6  1  6
  5  4  1  0
  7  5  1  0
  8  7  2  0
  9  7  1  0
 10 16  1  0
 10  9  1  0
 10 11  1  6
 12 11  1  0
 13 14  1  0
 13 12  1  0
 15 14  1  0
 16 18  1  0
 17 16  2  0
 18 19  1  0
 19 20  1  1
 20 21  1  0
 21 29  1  0
 21 22  2  0
 22 23  1  0
 24 25  2  0
 24 23  1  0
 26 25  1  0
 27 26  2  0
 28 27  1  0
 28 29  2  0
 29 24  1  0
 30 31  1  0
 30 19  1  0
 32 30  2  0
M  END
$$$$
