LKW.pdb
     RDKit          3D

 32 33  0  0  1  0  0  0  0  0999 V2000
   23.9167  -20.9638  -20.2125 C   0  0  0  0  0  0  0  0  0  0  0  0
   23.7981  -19.5102  -19.8001 C   0  0  1  0  0  0  0  0  0  0  0  0
   23.3199  -19.4351  -18.3482 C   0  0  0  0  0  0  0  0  0  0  0  0
   25.1312  -18.8300  -19.8367 C   0  0  0  0  0  0  0  0  0  0  0  0
   25.0181  -17.3615  -19.5260 C   0  0  2  0  0  0  0  0  0  0  0  0
   23.6961  -16.9274  -20.0259 N   0  0  0  0  0  0  0  0  0  0  0  0
   26.0522  -16.5882  -20.2921 C   0  0  0  0  0  0  0  0  0  0  0  0
   27.2837  -16.7780  -20.1144 O   0  0  0  0  0  0  0  0  0  0  0  0
   25.6621  -15.6202  -21.2410 N   0  0  0  0  0  0  0  0  0  0  0  0
   26.7676  -14.9351  -22.0157 C   0  0  1  0  0  0  0  0  0  0  0  0
   26.1668  -14.4483  -23.2744 C   0  0  0  0  0  0  0  0  0  0  0  0
   26.8840  -13.7753  -24.3396 C   0  0  0  0  0  0  0  0  0  0  0  0
   27.6880  -14.5284  -25.3192 C   0  0  0  0  0  0  0  0  0  0  0  0
   28.3427  -13.5145  -26.3006 C   0  0  0  0  0  0  0  0  0  0  0  0
   29.0521  -14.2958  -27.2892 N   0  0  0  0  0  0  0  0  0  0  0  0
   27.0651  -13.7956  -21.0972 C   0  0  0  0  0  0  0  0  0  0  0  0
   26.1402  -13.1125  -20.6523 O   0  0  0  0  0  0  0  0  0  0  0  0
   28.3868  -13.4214  -20.6786 N   0  0  0  0  0  0  0  0  0  0  0  0
   28.6473  -12.2361  -19.8798 C   0  0  1  0  0  0  0  0  0  0  0  0
   29.3361  -12.5321  -18.6133 C   0  0  0  0  0  0  0  0  0  0  0  0
   30.1757  -11.4453  -18.0641 C   0  0  0  0  0  0  0  0  0  0  0  0
   29.6580  -10.2145  -17.6257 C   0  0  0  0  0  0  0  0  0  0  0  0
   30.6633   -9.4543  -17.2317 N   0  0  0  0  0  0  0  0  0  0  0  0
   31.8176  -10.1142  -17.3839 C   0  0  0  0  0  0  0  0  0  0  0  0
   33.1438   -9.7758  -17.1112 C   0  0  0  0  0  0  0  0  0  0  0  0
   34.1203  -10.7024  -17.3690 C   0  0  0  0  0  0  0  0  0  0  0  0
   33.8275  -11.9579  -17.8897 C   0  0  0  0  0  0  0  0  0  0  0  0
   32.5306  -12.2818  -18.1547 C   0  0  0  0  0  0  0  0  0  0  0  0
   31.5332  -11.3565  -17.9008 C   0  0  0  0  0  0  0  0  0  0  0  0
   29.1901  -11.1777  -20.7387 C   0  0  0  0  0  0  0  0  0  0  0  0
   28.8892   -9.8277  -20.6105 O   0  0  0  0  0  0  0  0  0  0  0  0
   29.9860  -11.4702  -21.6761 O   0  0  0  0  0  0  0  0  0  0  0  0
  2  3  1  1
  2  1  1  0
  4  2  1  0
  5  6  1  6
  5  4  1  0
  7  5  1  0
  8  7  2  0
  9  7  1  0
 10 16  1  0
 10  9  1  0
 10 11  1  6
 12 11  1  0
 13 14  1  0
 13 12  1  0
 15 14  1  0
 16 18  1  0
 17 16  2  0
 18 19  1  0
 19 20  1  1
 20 21  1  0
 21 29  1  0
 21 22  2  0
 22 23  1  0
 24 25  2  0
 24 23  1  0
 26 25  1  0
 27 26  2  0
 28 27  1  0
 28 29  2  0
 29 24  1  0
 30 31  1  0
 30 19  1  0
 32 30  2  0
M  END
$$$$
