LKW.pdb
     RDKit          3D

 32 33  0  0  1  0  0  0  0  0999 V2000
   24.0727  -17.3885  -19.1695 C   0  0  0  0  0  0  0  0  0  0  0  0
   24.7093  -18.3876  -18.2241 C   0  0  1  0  0  0  0  0  0  0  0  0
   26.2324  -18.2763  -18.3231 C   0  0  0  0  0  0  0  0  0  0  0  0
   24.3595  -18.0804  -16.8013 C   0  0  0  0  0  0  0  0  0  0  0  0
   25.0998  -18.9703  -15.8391 C   0  0  2  0  0  0  0  0  0  0  0  0
   24.9328  -20.3537  -16.3335 N   0  0  0  0  0  0  0  0  0  0  0  0
   24.4619  -18.9100  -14.4812 C   0  0  0  0  0  0  0  0  0  0  0  0
   24.2794  -17.8160  -13.8860 O   0  0  0  0  0  0  0  0  0  0  0  0
   24.0464  -20.0925  -13.8343 N   0  0  0  0  0  0  0  0  0  0  0  0
   23.2949  -19.9326  -12.5300 C   0  0  1  0  0  0  0  0  0  0  0  0
   22.1195  -20.8244  -12.6038 C   0  0  0  0  0  0  0  0  0  0  0  0
   21.1969  -21.0862  -11.5165 C   0  0  0  0  0  0  0  0  0  0  0  0
   20.0915  -22.0507  -11.6628 C   0  0  0  0  0  0  0  0  0  0  0  0
   19.2353  -22.0170  -10.3646 C   0  0  0  0  0  0  0  0  0  0  0  0
   18.1207  -22.9123  -10.5817 N   0  0  0  0  0  0  0  0  0  0  0  0
   24.3082  -20.4725  -11.5748 C   0  0  0  0  0  0  0  0  0  0  0  0
   25.0780  -21.3634  -11.9403 O   0  0  0  0  0  0  0  0  0  0  0  0
   24.4605  -20.0205  -10.2202 N   0  0  0  0  0  0  0  0  0  0  0  0
   25.3940  -20.6346   -9.2917 C   0  0  1  0  0  0  0  0  0  0  0  0
   26.1922  -19.6529   -8.5400 C   0  0  0  0  0  0  0  0  0  0  0  0
   27.0942  -20.2073   -7.5070 C   0  0  0  0  0  0  0  0  0  0  0  0
   27.1838  -21.5789   -7.2141 C   0  0  0  0  0  0  0  0  0  0  0  0
   28.0439  -21.7402   -6.2252 N   0  0  0  0  0  0  0  0  0  0  0  0
   28.5294  -20.5514   -5.8482 C   0  0  0  0  0  0  0  0  0  0  0  0
   29.4592  -20.1738   -4.8783 C   0  0  0  0  0  0  0  0  0  0  0  0
   29.7632  -18.8437   -4.7481 C   0  0  0  0  0  0  0  0  0  0  0  0
   29.1756  -17.8705   -5.5486 C   0  0  0  0  0  0  0  0  0  0  0  0
   28.2677  -18.2457   -6.4931 C   0  0  0  0  0  0  0  0  0  0  0  0
   27.9495  -19.5849   -6.6361 C   0  0  0  0  0  0  0  0  0  0  0  0
   24.7124  -21.6982   -8.5455 C   0  0  0  0  0  0  0  0  0  0  0  0
   23.3717  -21.6711   -8.1834 O   0  0  0  0  0  0  0  0  0  0  0  0
   25.3525  -22.7259   -8.1824 O   0  0  0  0  0  0  0  0  0  0  0  0
  2  3  1  1
  2  1  1  0
  4  2  1  0
  5  6  1  6
  5  4  1  0
  7  5  1  0
  8  7  2  0
  9  7  1  0
 10 16  1  0
 10  9  1  0
 10 11  1  6
 12 11  1  0
 13 14  1  0
 13 12  1  0
 15 14  1  0
 16 18  1  0
 17 16  2  0
 18 19  1  0
 19 20  1  1
 20 21  1  0
 21 29  1  0
 21 22  2  0
 22 23  1  0
 24 25  2  0
 24 23  1  0
 26 25  1  0
 27 26  2  0
 28 27  1  0
 28 29  2  0
 29 24  1  0
 30 31  1  0
 30 19  1  0
 32 30  2  0
M  END
$$$$
