LKW.pdb
     RDKit          3D

 32 33  0  0  1  0  0  0  0  0999 V2000
   27.2580  -17.7399  -18.2618 C   0  0  0  0  0  0  0  0  0  0  0  0
   27.4987  -18.7122  -17.1242 C   0  0  1  0  0  0  0  0  0  0  0  0
   28.6006  -19.6955  -17.5255 C   0  0  0  0  0  0  0  0  0  0  0  0
   27.9971  -18.0009  -15.9049 C   0  0  0  0  0  0  0  0  0  0  0  0
   28.3346  -18.9615  -14.7963 C   0  0  2  0  0  0  0  0  0  0  0  0
   28.3457  -20.3114  -15.3996 N   0  0  0  0  0  0  0  0  0  0  0  0
   27.2514  -18.9549  -13.7565 C   0  0  0  0  0  0  0  0  0  0  0  0
   26.8315  -17.8827  -13.2483 O   0  0  0  0  0  0  0  0  0  0  0  0
   26.6719  -20.1649  -13.3213 N   0  0  0  0  0  0  0  0  0  0  0  0
   25.5364  -20.0620  -12.3255 C   0  0  1  0  0  0  0  0  0  0  0  0
   24.4089  -20.8359  -12.8841 C   0  0  0  0  0  0  0  0  0  0  0  0
   23.0079  -20.4843  -12.7591 C   0  0  0  0  0  0  0  0  0  0  0  0
   21.9448  -21.3789  -13.2519 C   0  0  0  0  0  0  0  0  0  0  0  0
   20.5749  -20.6687  -13.0554 C   0  0  0  0  0  0  0  0  0  0  0  0
   19.5706  -21.5469  -13.6131 N   0  0  0  0  0  0  0  0  0  0  0  0
   26.1417  -20.7760  -11.1617 C   0  0  0  0  0  0  0  0  0  0  0  0
   27.1739  -21.4320  -11.3175 O   0  0  0  0  0  0  0  0  0  0  0  0
   25.5977  -20.7575   -9.8328 N   0  0  0  0  0  0  0  0  0  0  0  0
   26.2813  -21.3578   -8.7001 C   0  0  1  0  0  0  0  0  0  0  0  0
   27.6441  -20.8375   -8.5049 C   0  0  0  0  0  0  0  0  0  0  0  0
   27.8148  -19.8691   -7.4000 C   0  0  0  0  0  0  0  0  0  0  0  0
   27.2169  -18.5973   -7.3870 C   0  0  0  0  0  0  0  0  0  0  0  0
   27.5942  -17.9688   -6.2888 N   0  0  0  0  0  0  0  0  0  0  0  0
   28.4079  -18.7546   -5.5735 C   0  0  0  0  0  0  0  0  0  0  0  0
   29.0590  -18.5793   -4.3515 C   0  0  0  0  0  0  0  0  0  0  0  0
   29.8260  -19.6066   -3.8672 C   0  0  0  0  0  0  0  0  0  0  0  0
   29.9713  -20.8067   -4.5541 C   0  0  0  0  0  0  0  0  0  0  0  0
   29.3337  -20.9712   -5.7472 C   0  0  0  0  0  0  0  0  0  0  0  0
   28.5562  -19.9426   -6.2501 C   0  0  0  0  0  0  0  0  0  0  0  0
   25.3760  -21.3937   -7.5461 C   0  0  0  0  0  0  0  0  0  0  0  0
   25.6092  -22.1188   -6.3845 O   0  0  0  0  0  0  0  0  0  0  0  0
   24.2952  -20.7386   -7.5698 O   0  0  0  0  0  0  0  0  0  0  0  0
  2  3  1  6
  2  1  1  0
  4  2  1  0
  5  6  1  6
  5  4  1  0
  7  5  1  0
  8  7  2  0
  9  7  1  0
 10 16  1  0
 10  9  1  0
 10 11  1  6
 12 11  1  0
 13 14  1  0
 13 12  1  0
 15 14  1  0
 16 18  1  0
 17 16  2  0
 18 19  1  0
 19 20  1  1
 20 21  1  0
 21 29  1  0
 21 22  2  0
 22 23  1  0
 24 25  2  0
 24 23  1  0
 26 25  1  0
 27 26  2  0
 28 27  1  0
 28 29  2  0
 29 24  1  0
 30 31  1  0
 30 19  1  0
 32 30  2  0
M  END
$$$$
