KRQ.pdb
     RDKit          3D

 30 29  0  0  1  0  0  0  0  0999 V2000
   21.5074  -29.8705  -11.3015 N   0  0  0  0  0  0  0  0  0  0  0  0
   21.0865  -29.3798  -12.5988 C   0  0  1  0  0  0  0  0  0  0  0  0
   19.7652  -29.9792  -12.9738 C   0  0  0  0  0  0  0  0  0  0  0  0
   19.8951  -31.0480  -14.0356 C   0  0  0  0  0  0  0  0  0  0  0  0
   18.5630  -31.6386  -14.4171 C   0  0  0  0  0  0  0  0  0  0  0  0
   18.8316  -32.7015  -15.4634 C   0  0  0  0  0  0  0  0  0  0  0  0
   17.5649  -33.2893  -15.8495 N   0  0  0  0  0  0  0  0  0  0  0  0
   20.9211  -27.8958  -12.5625 C   0  0  0  0  0  0  0  0  0  0  0  0
   20.4602  -27.2857  -11.5860 O   0  0  0  0  0  0  0  0  0  0  0  0
   26.8519  -26.3469  -16.0032 N   0  0  0  0  0  0  0  0  0  0  0  0
   25.8914  -26.3746  -17.0531 C   0  0  0  0  0  0  0  0  0  0  0  0
   26.0066  -27.1652  -18.0497 N   0  0  0  0  0  0  0  0  0  0  0  0
   24.7691  -25.5069  -17.0067 N   0  0  0  0  0  0  0  0  0  0  0  0
   24.3070  -25.0360  -15.7293 C   0  0  0  0  0  0  0  0  0  0  0  0
   22.9563  -25.6801  -15.4561 C   0  0  0  0  0  0  0  0  0  0  0  0
   22.4792  -25.1285  -14.1455 C   0  0  0  0  0  0  0  0  0  0  0  0
   21.1617  -25.6820  -13.6648 C   0  0  2  0  0  0  0  0  0  0  0  0
   21.3078  -27.1333  -13.6990 N   0  0  0  0  0  0  0  0  0  0  0  0
   20.0835  -25.2310  -14.5650 C   0  0  0  0  0  0  0  0  0  0  0  0
   19.8396  -25.6910  -15.7040 O   0  0  0  0  0  0  0  0  0  0  0  0
   25.3820  -27.2595  -18.8554 N   0  0  0  0  0  0  0  0  0  0  0  0
   16.9601  -23.1671  -11.4671 C   0  0  0  0  0  0  0  0  0  0  0  0
   16.1665  -24.1568  -12.1494 O   0  0  0  0  0  0  0  0  0  0  0  0
   15.5286  -25.0107  -11.4873 C   0  0  0  0  0  0  0  0  0  0  0  0
   16.1537  -24.1047  -13.6099 C   0  0  0  0  0  0  0  0  0  0  0  0
   17.0830  -23.1017  -14.1817 C   0  0  2  0  0  0  0  0  0  0  0  0
   18.2119  -23.6334  -15.0034 N   0  0  0  0  0  0  0  0  0  0  0  0
   19.2344  -24.1813  -14.1177 C   0  0  0  0  0  0  0  0  0  0  0  0
   18.8015  -22.6010  -15.8920 O   0  0  0  0  0  0  0  0  0  0  0  0
   18.0917  -21.9889  -16.9102 O   0  0  0  0  0  0  0  0  0  0  0  0
  2  3  1  0
  2  1  1  1
  3  4  1  0
  4  5  1  0
  5  6  1  0
  6  7  1  0
  8  9  2  0
  8  2  1  0
 10 11  1  0
 11 13  1  0
 11 12  2  0
 13 14  1  0
 15 16  1  0
 15 14  1  0
 17 16  1  6
 17 18  1  0
 18  8  1  0
 19 17  1  0
 19 27  1  0
 20 19  2  0
 22 21  1  0
 22 24  1  0
 23 22  2  0
 26 25  1  6
 25 24  1  0
 26 27  1  0
 26 28  1  0
 28 30  2  0
 28 29  1  0
M  END
$$$$
