KRQ.pdb
     RDKit          3D

 30 29  0  0  1  0  0  0  0  0999 V2000
   27.6054  -22.8377  -16.9376 N   0  0  0  0  0  0  0  0  0  0  0  0
   27.4112  -21.6063  -16.1981 C   0  0  1  0  0  0  0  0  0  0  0  0
   26.6575  -20.6159  -17.0330 C   0  0  0  0  0  0  0  0  0  0  0  0
   27.5180  -19.9924  -18.1088 C   0  0  0  0  0  0  0  0  0  0  0  0
   27.8372  -18.5491  -17.8193 C   0  0  0  0  0  0  0  0  0  0  0  0
   28.5909  -18.0115  -19.0191 C   0  0  0  0  0  0  0  0  0  0  0  0
   28.8256  -16.5969  -18.8117 N   0  0  0  0  0  0  0  0  0  0  0  0
   26.6119  -21.8645  -14.9630 C   0  0  0  0  0  0  0  0  0  0  0  0
   25.6313  -22.6234  -14.9327 O   0  0  0  0  0  0  0  0  0  0  0  0
   31.4601  -20.6623  -10.6085 N   0  0  0  0  0  0  0  0  0  0  0  0
   31.1940  -21.8609   -9.8888 C   0  0  0  0  0  0  0  0  0  0  0  0
   32.1225  -22.6845   -9.5867 N   0  0  0  0  0  0  0  0  0  0  0  0
   29.8667  -22.1643   -9.4880 N   0  0  0  0  0  0  0  0  0  0  0  0
   28.8062  -21.2675   -9.8600 C   0  0  0  0  0  0  0  0  0  0  0  0
   28.0191  -21.9189  -10.9870 C   0  0  0  0  0  0  0  0  0  0  0  0
   26.9773  -20.9254  -11.4080 C   0  0  0  0  0  0  0  0  0  0  0  0
   26.1300  -21.3511  -12.5801 C   0  0  2  0  0  0  0  0  0  0  0  0
   26.9842  -21.2130  -13.7549 N   0  0  0  0  0  0  0  0  0  0  0  0
   24.9466  -20.4751  -12.6726 C   0  0  0  0  0  0  0  0  0  0  0  0
   24.9447  -19.2847  -13.0617 O   0  0  0  0  0  0  0  0  0  0  0  0
   32.0421  -23.5621   -9.0657 N   0  0  0  0  0  0  0  0  0  0  0  0
   20.8277  -21.1812  -16.2312 C   0  0  0  0  0  0  0  0  0  0  0  0
   20.0299  -20.2951  -15.4230 O   0  0  0  0  0  0  0  0  0  0  0  0
   18.9197  -19.8927  -15.8472 C   0  0  0  0  0  0  0  0  0  0  0  0
   20.5778  -19.9081  -14.1246 C   0  0  0  0  0  0  0  0  0  0  0  0
   21.8850  -20.5342  -13.8153 C   0  0  1  0  0  0  0  0  0  0  0  0
   22.4671  -20.2303  -12.4733 N   0  0  0  0  0  0  0  0  0  0  0  0
   23.6861  -21.0117  -12.2902 C   0  0  0  0  0  0  0  0  0  0  0  0
   21.5137  -20.4988  -11.3678 O   0  0  0  0  0  0  0  0  0  0  0  0
   20.4554  -19.6602  -11.0653 O   0  0  0  0  0  0  0  0  0  0  0  0
  2  3  1  0
  2  1  1  6
  3  4  1  0
  4  5  1  0
  5  6  1  0
  6  7  1  0
  8  9  2  0
  8  2  1  0
 10 11  1  0
 11 13  1  0
 11 12  2  0
 13 14  1  0
 15 16  1  0
 15 14  1  0
 17 16  1  1
 17 18  1  0
 18  8  1  0
 19 17  1  0
 19 27  1  0
 20 19  2  0
 22 21  1  0
 22 24  1  0
 23 22  2  0
 26 25  1  6
 25 24  1  0
 26 27  1  0
 26 28  1  0
 28 30  2  0
 28 29  1  0
M  END
$$$$
