KRQ.pdb
     RDKit          3D

 30 29  0  0  1  0  0  0  0  0999 V2000
   25.5066  -19.1966  -18.4918 N   0  0  0  0  0  0  0  0  0  0  0  0
   24.6335  -19.5787  -19.5838 C   0  0  1  0  0  0  0  0  0  0  0  0
   25.2799  -19.2599  -20.8977 C   0  0  0  0  0  0  0  0  0  0  0  0
   24.6136  -18.1009  -21.6043 C   0  0  0  0  0  0  0  0  0  0  0  0
   25.5692  -17.3486  -22.4930 C   0  0  0  0  0  0  0  0  0  0  0  0
   24.8105  -16.1658  -23.0605 C   0  0  0  0  0  0  0  0  0  0  0  0
   25.6819  -15.4676  -23.9836 N   0  0  0  0  0  0  0  0  0  0  0  0
   24.3723  -21.0489  -19.5480 C   0  0  0  0  0  0  0  0  0  0  0  0
   23.7098  -21.6440  -20.4114 O   0  0  0  0  0  0  0  0  0  0  0  0
   30.4440  -26.2302  -17.9667 N   0  0  0  0  0  0  0  0  0  0  0  0
   29.2896  -26.3433  -17.1420 C   0  0  0  0  0  0  0  0  0  0  0  0
   29.1860  -27.2523  -16.2507 N   0  0  0  0  0  0  0  0  0  0  0  0
   28.2155  -25.4293  -17.3011 N   0  0  0  0  0  0  0  0  0  0  0  0
   27.0095  -25.6358  -16.5460 C   0  0  0  0  0  0  0  0  0  0  0  0
   25.8317  -25.3005  -17.4484 C   0  0  0  0  0  0  0  0  0  0  0  0
   25.8644  -23.8155  -17.6565 C   0  0  0  0  0  0  0  0  0  0  0  0
   24.7282  -23.2639  -18.4798 C   0  0  2  0  0  0  0  0  0  0  0  0
   24.9047  -21.8156  -18.4751 N   0  0  0  0  0  0  0  0  0  0  0  0
   23.4446  -23.6490  -17.8631 C   0  0  0  0  0  0  0  0  0  0  0  0
   23.0222  -23.2633  -16.7489 O   0  0  0  0  0  0  0  0  0  0  0  0
   28.4317  -27.3866  -15.5715 N   0  0  0  0  0  0  0  0  0  0  0  0
   18.6599  -21.9734  -18.9828 C   0  0  0  0  0  0  0  0  0  0  0  0
   18.1116  -22.9586  -18.0863 O   0  0  0  0  0  0  0  0  0  0  0  0
   16.8749  -22.9927  -17.8767 C   0  0  0  0  0  0  0  0  0  0  0  0
   19.0547  -23.8818  -17.4585 C   0  0  0  0  0  0  0  0  0  0  0  0
   20.4618  -23.6763  -17.8758 C   0  0  1  0  0  0  0  0  0  0  0  0
   21.2924  -24.9070  -18.0430 N   0  0  0  0  0  0  0  0  0  0  0  0
   22.5971  -24.5365  -18.5820 C   0  0  0  0  0  0  0  0  0  0  0  0
   20.6425  -25.9149  -18.9177 O   0  0  0  0  0  0  0  0  0  0  0  0
   20.8281  -25.9545  -20.2884 O   0  0  0  0  0  0  0  0  0  0  0  0
  2  3  1  0
  2  1  1  1
  3  4  1  0
  4  5  1  0
  5  6  1  0
  6  7  1  0
  8  9  2  0
  8  2  1  0
 10 11  1  0
 11 13  1  0
 11 12  2  0
 13 14  1  0
 15 16  1  0
 15 14  1  0
 17 16  1  1
 17 18  1  0
 18  8  1  0
 19 17  1  0
 19 27  1  0
 20 19  2  0
 22 21  1  0
 22 24  1  0
 23 22  2  0
 26 25  1  1
 25 24  1  0
 26 27  1  0
 26 28  1  0
 28 30  2  0
 28 29  1  0
M  END
$$$$
