KRQ.pdb
     RDKit          3D

 30 29  0  0  1  0  0  0  0  0999 V2000
   18.2004  -28.7856  -11.4728 N   0  0  0  0  0  0  0  0  0  0  0  0
   19.1918  -29.0215  -10.4421 C   0  0  1  0  0  0  0  0  0  0  0  0
   20.5501  -29.1727  -11.0570 C   0  0  0  0  0  0  0  0  0  0  0  0
   20.7259  -30.5044  -11.7514 C   0  0  0  0  0  0  0  0  0  0  0  0
   21.4389  -31.5098  -10.8856 C   0  0  0  0  0  0  0  0  0  0  0  0
   21.6232  -32.7622  -11.7188 C   0  0  0  0  0  0  0  0  0  0  0  0
   22.4009  -33.7107  -10.9477 N   0  0  0  0  0  0  0  0  0  0  0  0
   19.2436  -27.8645   -9.4989 C   0  0  0  0  0  0  0  0  0  0  0  0
   20.0401  -27.7942   -8.5506 O   0  0  0  0  0  0  0  0  0  0  0  0
   20.4102  -20.9728  -12.5304 N   0  0  0  0  0  0  0  0  0  0  0  0
   19.9510  -22.1348  -13.2120 C   0  0  0  0  0  0  0  0  0  0  0  0
   20.3944  -22.4572  -14.3658 N   0  0  0  0  0  0  0  0  0  0  0  0
   18.9747  -22.9688  -12.6075 N   0  0  0  0  0  0  0  0  0  0  0  0
   18.6674  -22.7825  -11.2153 C   0  0  0  0  0  0  0  0  0  0  0  0
   19.1773  -23.9996  -10.4588 C   0  0  0  0  0  0  0  0  0  0  0  0
   18.0616  -24.4387   -9.5576 C   0  0  0  0  0  0  0  0  0  0  0  0
   18.3521  -25.6724   -8.7412 C   0  0  2  0  0  0  0  0  0  0  0  0
   18.3393  -26.7832   -9.6872 N   0  0  0  0  0  0  0  0  0  0  0  0
   17.3089  -25.8346   -7.7108 C   0  0  0  0  0  0  0  0  0  0  0  0
   16.1157  -26.1523   -7.9199 O   0  0  0  0  0  0  0  0  0  0  0  0
   20.0822  -23.2224  -14.9701 N   0  0  0  0  0  0  0  0  0  0  0  0
   18.5761  -26.7366   -1.7026 C   0  0  0  0  0  0  0  0  0  0  0  0
   18.6208  -27.7418   -2.7334 O   0  0  0  0  0  0  0  0  0  0  0  0
   19.2266  -28.8212   -2.5272 C   0  0  0  0  0  0  0  0  0  0  0  0
   17.9407  -27.4340   -3.9898 C   0  0  0  0  0  0  0  0  0  0  0  0
   17.3160  -26.0904   -4.0192 C   0  0  2  0  0  0  0  0  0  0  0  0
   16.6616  -25.6891   -5.3010 N   0  0  0  0  0  0  0  0  0  0  0  0
   17.6706  -25.6149   -6.3529 C   0  0  0  0  0  0  0  0  0  0  0  0
   15.9404  -24.3966   -5.1889 O   0  0  0  0  0  0  0  0  0  0  0  0
   14.7691  -24.2477   -4.4672 O   0  0  0  0  0  0  0  0  0  0  0  0
  2  3  1  0
  2  1  1  6
  3  4  1  0
  4  5  1  0
  5  6  1  0
  6  7  1  0
  8  9  2  0
  8  2  1  0
 10 11  1  0
 11 13  1  0
 11 12  2  0
 13 14  1  0
 15 16  1  0
 15 14  1  0
 17 16  1  6
 17 18  1  0
 18  8  1  0
 19 17  1  0
 19 27  1  0
 20 19  2  0
 22 21  1  0
 22 24  1  0
 23 22  2  0
 26 25  1  6
 25 24  1  0
 26 27  1  0
 26 28  1  0
 28 30  2  0
 28 29  1  0
M  END
$$$$
