KRQ.pdb
     RDKit          3D

 30 29  0  0  1  0  0  0  0  0999 V2000
   24.8065  -20.5226  -16.5878 N   0  0  0  0  0  0  0  0  0  0  0  0
   23.6686  -19.9264  -17.2590 C   0  0  1  0  0  0  0  0  0  0  0  0
   23.4054  -20.6319  -18.5547 C   0  0  0  0  0  0  0  0  0  0  0  0
   24.4167  -20.2783  -19.6219 C   0  0  0  0  0  0  0  0  0  0  0  0
   24.4304  -18.8038  -19.9292 C   0  0  0  0  0  0  0  0  0  0  0  0
   25.3954  -18.5987  -21.0795 C   0  0  0  0  0  0  0  0  0  0  0  0
   25.4008  -17.1911  -21.4226 N   0  0  0  0  0  0  0  0  0  0  0  0
   22.4439  -20.0525  -16.4133 C   0  0  0  0  0  0  0  0  0  0  0  0
   21.3551  -20.4576  -16.8478 O   0  0  0  0  0  0  0  0  0  0  0  0
   21.0675  -20.7819   -8.5115 N   0  0  0  0  0  0  0  0  0  0  0  0
   22.2935  -20.6176   -9.2154 C   0  0  0  0  0  0  0  0  0  0  0  0
   23.3296  -21.3092   -8.9326 N   0  0  0  0  0  0  0  0  0  0  0  0
   22.3844  -19.6642  -10.2629 N   0  0  0  0  0  0  0  0  0  0  0  0
   21.2576  -18.8106  -10.5252 C   0  0  0  0  0  0  0  0  0  0  0  0
   20.6234  -19.2644  -11.8313 C   0  0  0  0  0  0  0  0  0  0  0  0
   21.7364  -19.3675  -12.8314 C   0  0  0  0  0  0  0  0  0  0  0  0
   21.3009  -19.7085  -14.2340 C   0  0  2  0  0  0  0  0  0  0  0  0
   22.5175  -19.6928  -15.0394 N   0  0  0  0  0  0  0  0  0  0  0  0
   20.3336  -18.6994  -14.7054 C   0  0  0  0  0  0  0  0  0  0  0  0
   20.5729  -17.4834  -14.8862 O   0  0  0  0  0  0  0  0  0  0  0  0
   24.2461  -21.2874   -9.3884 N   0  0  0  0  0  0  0  0  0  0  0  0
   16.7317  -18.4725  -19.3577 C   0  0  0  0  0  0  0  0  0  0  0  0
   15.9388  -19.2143  -18.4110 O   0  0  0  0  0  0  0  0  0  0  0  0
   14.9585  -19.8884  -18.8100 C   0  0  0  0  0  0  0  0  0  0  0  0
   16.3349  -19.1331  -17.0066 C   0  0  0  0  0  0  0  0  0  0  0  0
   17.5880  -18.3747  -16.7805 C   0  0  1  0  0  0  0  0  0  0  0  0
   17.9833  -18.1526  -15.3569 N   0  0  0  0  0  0  0  0  0  0  0  0
   19.0057  -19.1254  -14.9848 C   0  0  0  0  0  0  0  0  0  0  0  0
   16.8290  -18.2395  -14.4279 O   0  0  0  0  0  0  0  0  0  0  0  0
   16.6249  -19.3125  -13.5782 O   0  0  0  0  0  0  0  0  0  0  0  0
  2  3  1  0
  2  1  1  1
  3  4  1  0
  4  5  1  0
  5  6  1  0
  6  7  1  0
  8  9  2  0
  8  2  1  0
 10 11  1  0
 11 13  1  0
 11 12  2  0
 13 14  1  0
 15 16  1  0
 15 14  1  0
 17 16  1  1
 17 18  1  0
 18  8  1  0
 19 17  1  0
 19 27  1  0
 20 19  2  0
 22 21  1  0
 22 24  1  0
 23 22  2  0
 26 25  1  6
 25 24  1  0
 26 27  1  0
 26 28  1  0
 28 30  2  0
 28 29  1  0
M  END
$$$$
