KRQ.pdb
     RDKit          3D

 30 29  0  0  1  0  0  0  0  0999 V2000
   26.6068  -21.7870  -18.2872 N   0  0  0  0  0  0  0  0  0  0  0  0
   27.0463  -21.8275  -16.9066 C   0  0  1  0  0  0  0  0  0  0  0  0
   28.4789  -21.3984  -16.8080 C   0  0  0  0  0  0  0  0  0  0  0  0
   29.3338  -21.9778  -17.9125 C   0  0  0  0  0  0  0  0  0  0  0  0
   29.4833  -23.4719  -17.7947 C   0  0  0  0  0  0  0  0  0  0  0  0
   30.9147  -23.8057  -18.1637 C   0  0  0  0  0  0  0  0  0  0  0  0
   31.1165  -25.2262  -17.9623 N   0  0  0  0  0  0  0  0  0  0  0  0
   26.2310  -20.8916  -16.0758 C   0  0  0  0  0  0  0  0  0  0  0  0
   26.3643  -20.7788  -14.8478 O   0  0  0  0  0  0  0  0  0  0  0  0
   20.9960  -15.3980  -19.6979 N   0  0  0  0  0  0  0  0  0  0  0  0
   20.3543  -16.3968  -18.9130 C   0  0  0  0  0  0  0  0  0  0  0  0
   19.1613  -16.7818  -19.1583 N   0  0  0  0  0  0  0  0  0  0  0  0
   21.0445  -16.9916  -17.8247 N   0  0  0  0  0  0  0  0  0  0  0  0
   22.2831  -16.4085  -17.3853 C   0  0  0  0  0  0  0  0  0  0  0  0
   22.8228  -17.2630  -16.2484 C   0  0  0  0  0  0  0  0  0  0  0  0
   23.7870  -18.2321  -16.8654 C   0  0  0  0  0  0  0  0  0  0  0  0
   24.4120  -19.2079  -15.9008 C   0  0  2  0  0  0  0  0  0  0  0  0
   25.2492  -20.0842  -16.7134 N   0  0  0  0  0  0  0  0  0  0  0  0
   23.3493  -19.9674  -15.2152 C   0  0  0  0  0  0  0  0  0  0  0  0
   22.6622  -20.8849  -15.7200 O   0  0  0  0  0  0  0  0  0  0  0  0
   18.6018  -17.4681  -18.6444 N   0  0  0  0  0  0  0  0  0  0  0  0
   23.6762  -21.0997   -9.2559 C   0  0  0  0  0  0  0  0  0  0  0  0
   22.3027  -21.4973   -9.4307 O   0  0  0  0  0  0  0  0  0  0  0  0
   21.6591  -21.9635   -8.4597 C   0  0  0  0  0  0  0  0  0  0  0  0
   21.7285  -21.3297  -10.7641 C   0  0  0  0  0  0  0  0  0  0  0  0
   22.6577  -20.7192  -11.7441 C   0  0  1  0  0  0  0  0  0  0  0  0
   22.1007  -20.4349  -13.1010 N   0  0  0  0  0  0  0  0  0  0  0  0
   23.0643  -19.6439  -13.8599 C   0  0  0  0  0  0  0  0  0  0  0  0
   20.7937  -19.7338  -13.0417 O   0  0  0  0  0  0  0  0  0  0  0  0
   19.5846  -20.4006  -12.9505 O   0  0  0  0  0  0  0  0  0  0  0  0
  2  3  1  0
  2  1  1  6
  3  4  1  0
  4  5  1  0
  5  6  1  0
  6  7  1  0
  8  9  2  0
  8  2  1  0
 10 11  1  0
 11 13  1  0
 11 12  2  0
 13 14  1  0
 15 16  1  0
 15 14  1  0
 17 16  1  6
 17 18  1  0
 18  8  1  0
 19 17  1  0
 19 27  1  0
 20 19  2  0
 22 21  1  0
 22 24  1  0
 23 22  2  0
 26 25  1  6
 25 24  1  0
 26 27  1  0
 26 28  1  0
 28 30  2  0
 28 29  1  0
M  END
$$$$
