KRQ.pdb
     RDKit          3D

 30 29  0  0  1  0  0  0  0  0999 V2000
   23.5593  -22.1659  -20.0039 N   0  0  0  0  0  0  0  0  0  0  0  0
   22.5610  -23.1252  -19.5750 C   0  0  1  0  0  0  0  0  0  0  0  0
   22.9347  -24.5009  -20.0373 C   0  0  0  0  0  0  0  0  0  0  0  0
   24.3941  -24.6066  -20.4189 C   0  0  0  0  0  0  0  0  0  0  0  0
   24.5839  -24.8051  -21.8999 C   0  0  0  0  0  0  0  0  0  0  0  0
   25.5609  -25.9505  -22.0730 C   0  0  0  0  0  0  0  0  0  0  0  0
   25.6611  -26.2526  -23.4864 N   0  0  0  0  0  0  0  0  0  0  0  0
   22.4750  -23.1519  -18.0841 C   0  0  0  0  0  0  0  0  0  0  0  0
   21.7139  -23.9061  -17.4593 O   0  0  0  0  0  0  0  0  0  0  0  0
   25.6820  -22.8665  -11.7840 N   0  0  0  0  0  0  0  0  0  0  0  0
   26.5810  -21.7774  -11.9603 C   0  0  0  0  0  0  0  0  0  0  0  0
   27.3462  -21.3774  -11.0189 N   0  0  0  0  0  0  0  0  0  0  0  0
   26.6417  -21.1067  -13.2096 N   0  0  0  0  0  0  0  0  0  0  0  0
   25.5326  -20.2850  -13.6120 C   0  0  0  0  0  0  0  0  0  0  0  0
   24.3524  -21.2018  -13.8955 C   0  0  0  0  0  0  0  0  0  0  0  0
   24.2691  -21.3394  -15.3867 C   0  0  0  0  0  0  0  0  0  0  0  0
   23.1481  -22.2174  -15.8824 C   0  0  2  0  0  0  0  0  0  0  0  0
   23.3024  -22.2730  -17.3322 N   0  0  0  0  0  0  0  0  0  0  0  0
   21.8538  -21.6192  -15.5042 C   0  0  0  0  0  0  0  0  0  0  0  0
   21.3517  -20.5848  -16.0007 O   0  0  0  0  0  0  0  0  0  0  0  0
   27.9804  -20.5737  -11.0201 N   0  0  0  0  0  0  0  0  0  0  0  0
   18.0381  -24.4211  -11.3901 C   0  0  0  0  0  0  0  0  0  0  0  0
   17.2194  -23.2879  -11.7373 O   0  0  0  0  0  0  0  0  0  0  0  0
   16.0680  -23.1769  -11.2511 C   0  0  0  0  0  0  0  0  0  0  0  0
   17.7953  -22.3117  -12.6599 C   0  0  0  0  0  0  0  0  0  0  0  0
   19.1960  -22.6052  -13.0450 C   0  0  2  0  0  0  0  0  0  0  0  0
   19.8018  -21.7143  -14.0802 N   0  0  0  0  0  0  0  0  0  0  0  0
   21.0932  -22.2592  -14.4870 C   0  0  0  0  0  0  0  0  0  0  0  0
   19.9607  -20.3176  -13.6034 O   0  0  0  0  0  0  0  0  0  0  0  0
   18.9951  -19.3438  -13.7887 O   0  0  0  0  0  0  0  0  0  0  0  0
  2  3  1  0
  2  1  1  1
  3  4  1  0
  4  5  1  0
  5  6  1  0
  6  7  1  0
  8  9  2  0
  8  2  1  0
 10 11  1  0
 11 13  1  0
 11 12  2  0
 13 14  1  0
 15 16  1  0
 15 14  1  0
 17 16  1  1
 17 18  1  0
 18  8  1  0
 19 17  1  0
 19 27  1  0
 20 19  2  0
 22 21  1  0
 22 24  1  0
 23 22  2  0
 26 25  1  6
 25 24  1  0
 26 27  1  0
 26 28  1  0
 28 30  2  0
 28 29  1  0
M  END
$$$$
