KRQ.pdb
     RDKit          3D

 30 29  0  0  1  0  0  0  0  0999 V2000
   26.8993  -22.3286  -16.1939 N   0  0  0  0  0  0  0  0  0  0  0  0
   26.5970  -21.0293  -15.6272 C   0  0  1  0  0  0  0  0  0  0  0  0
   26.7267  -19.9659  -16.6752 C   0  0  0  0  0  0  0  0  0  0  0  0
   28.1122  -19.9140  -17.2786 C   0  0  0  0  0  0  0  0  0  0  0  0
   28.2356  -18.8463  -18.3339 C   0  0  0  0  0  0  0  0  0  0  0  0
   29.6384  -18.9410  -18.8997 C   0  0  0  0  0  0  0  0  0  0  0  0
   29.7509  -17.9996  -19.9952 N   0  0  0  0  0  0  0  0  0  0  0  0
   25.1931  -21.0001  -15.1181 C   0  0  0  0  0  0  0  0  0  0  0  0
   24.2295  -21.4573  -15.7513 O   0  0  0  0  0  0  0  0  0  0  0  0
   20.1510  -20.6171   -9.8176 N   0  0  0  0  0  0  0  0  0  0  0  0
   20.7790  -21.5739   -8.9717 C   0  0  0  0  0  0  0  0  0  0  0  0
   20.1046  -22.4421   -8.3212 N   0  0  0  0  0  0  0  0  0  0  0  0
   22.1918  -21.5776   -8.8362 N   0  0  0  0  0  0  0  0  0  0  0  0
   22.9687  -20.6675   -9.6333 C   0  0  0  0  0  0  0  0  0  0  0  0
   22.8212  -21.0812  -11.0897 C   0  0  0  0  0  0  0  0  0  0  0  0
   23.6387  -20.1129  -11.8920 C   0  0  0  0  0  0  0  0  0  0  0  0
   23.5562  -20.2967  -13.3861 C   0  0  2  0  0  0  0  0  0  0  0  0
   24.9357  -20.4216  -13.8448 N   0  0  0  0  0  0  0  0  0  0  0  0
   22.8959  -19.1229  -13.9882 C   0  0  0  0  0  0  0  0  0  0  0  0
   23.2909  -17.9373  -13.9052 O   0  0  0  0  0  0  0  0  0  0  0  0
   20.4549  -23.1761   -7.6993 N   0  0  0  0  0  0  0  0  0  0  0  0
   22.5622  -19.1973  -18.9742 C   0  0  0  0  0  0  0  0  0  0  0  0
   22.5758  -17.7786  -18.7249 O   0  0  0  0  0  0  0  0  0  0  0  0
   23.2542  -17.0218  -19.4608 C   0  0  0  0  0  0  0  0  0  0  0  0
   21.7783  -17.2954  -17.5996 C   0  0  0  0  0  0  0  0  0  0  0  0
   21.0855  -18.3706  -16.8510 C   0  0  2  0  0  0  0  0  0  0  0  0
   21.0205  -18.2121  -15.3667 N   0  0  0  0  0  0  0  0  0  0  0  0
   21.7032  -19.3357  -14.7331 C   0  0  0  0  0  0  0  0  0  0  0  0
   19.6262  -18.1106  -14.8680 O   0  0  0  0  0  0  0  0  0  0  0  0
   18.9072  -16.9283  -14.8763 O   0  0  0  0  0  0  0  0  0  0  0  0
  2  3  1  0
  2  1  1  6
  3  4  1  0
  4  5  1  0
  5  6  1  0
  6  7  1  0
  8  9  2  0
  8  2  1  0
 10 11  1  0
 11 13  1  0
 11 12  2  0
 13 14  1  0
 15 16  1  0
 15 14  1  0
 17 16  1  1
 17 18  1  0
 18  8  1  0
 19 17  1  0
 19 27  1  0
 20 19  2  0
 22 21  1  0
 22 24  1  0
 23 22  2  0
 26 25  1  6
 25 24  1  0
 26 27  1  0
 26 28  1  0
 28 30  2  0
 28 29  1  0
M  END
$$$$
