KRQ.pdb
     RDKit          3D

 30 29  0  0  1  0  0  0  0  0999 V2000
   22.5159  -18.7533  -16.4484 N   0  0  0  0  0  0  0  0  0  0  0  0
   21.9880  -17.9584  -17.5394 C   0  0  1  0  0  0  0  0  0  0  0  0
   20.6142  -18.4322  -17.9059 C   0  0  0  0  0  0  0  0  0  0  0  0
   20.6171  -19.8358  -18.4684 C   0  0  0  0  0  0  0  0  0  0  0  0
   19.2544  -20.2608  -18.9493 C   0  0  0  0  0  0  0  0  0  0  0  0
   19.3912  -21.6739  -19.4795 C   0  0  0  0  0  0  0  0  0  0  0  0
   19.8927  -22.5136  -18.4106 N   0  0  0  0  0  0  0  0  0  0  0  0
   21.8835  -16.5250  -17.1326 C   0  0  0  0  0  0  0  0  0  0  0  0
   21.7321  -16.1601  -15.9569 O   0  0  0  0  0  0  0  0  0  0  0  0
   19.3199   -9.9462  -20.7252 N   0  0  0  0  0  0  0  0  0  0  0  0
   20.6921   -9.6176  -20.9110 C   0  0  0  0  0  0  0  0  0  0  0  0
   21.0645   -8.7388  -21.7599 N   0  0  0  0  0  0  0  0  0  0  0  0
   21.6864  -10.2746  -20.1402 N   0  0  0  0  0  0  0  0  0  0  0  0
   21.2851  -11.3046  -19.2208 C   0  0  0  0  0  0  0  0  0  0  0  0
   22.5376  -11.8358  -18.5406 C   0  0  0  0  0  0  0  0  0  0  0  0
   22.5491  -13.3183  -18.7679 C   0  0  0  0  0  0  0  0  0  0  0  0
   21.7723  -14.1224  -17.7564 C   0  0  2  0  0  0  0  0  0  0  0  0
   21.9598  -15.5190  -18.1349 N   0  0  0  0  0  0  0  0  0  0  0  0
   20.3491  -13.7384  -17.8142 C   0  0  0  0  0  0  0  0  0  0  0  0
   19.4802  -14.2551  -18.5534 O   0  0  0  0  0  0  0  0  0  0  0  0
   22.0070   -8.3692  -21.9128 N   0  0  0  0  0  0  0  0  0  0  0  0
   15.8600  -15.5140  -16.2449 C   0  0  0  0  0  0  0  0  0  0  0  0
   15.5733  -14.3345  -15.4694 O   0  0  0  0  0  0  0  0  0  0  0  0
   14.4857  -14.2434  -14.8501 C   0  0  0  0  0  0  0  0  0  0  0  0
   16.5933  -13.2881  -15.4520 C   0  0  0  0  0  0  0  0  0  0  0  0
   17.7498  -13.5642  -16.3367 C   0  0  1  0  0  0  0  0  0  0  0  0
   18.4830  -12.3739  -16.8640 N   0  0  0  0  0  0  0  0  0  0  0  0
   19.9045  -12.6898  -16.9623 C   0  0  0  0  0  0  0  0  0  0  0  0
   18.2819  -11.1665  -16.0242 O   0  0  0  0  0  0  0  0  0  0  0  0
   17.1610  -10.3606  -16.1197 O   0  0  0  0  0  0  0  0  0  0  0  0
  2  3  1  0
  2  1  1  1
  3  4  1  0
  4  5  1  0
  5  6  1  0
  6  7  1  0
  8  9  2  0
  8  2  1  0
 10 11  1  0
 11 13  1  0
 11 12  2  0
 13 14  1  0
 15 16  1  0
 15 14  1  0
 17 16  1  6
 17 18  1  0
 18  8  1  0
 19 17  1  0
 19 27  1  0
 20 19  2  0
 22 21  1  0
 22 24  1  0
 23 22  2  0
 26 25  1  6
 25 24  1  0
 26 27  1  0
 26 28  1  0
 28 30  2  0
 28 29  1  0
M  END
$$$$
