WNG.pdb
     RDKit          3D

 27 28  0  0  1  0  0  0  0  0999 V2000
   27.6217  -21.3887  -11.0214 N   0  0  0  0  0  0  0  0  0  0  0  0
   26.2736  -21.4185  -10.4367 C   0  0  1  0  0  0  0  0  0  0  0  0
   26.3330  -20.4813   -9.2240 C   0  0  0  0  0  0  0  0  0  0  0  0
   27.6184  -20.6914   -8.5004 C   0  0  0  0  0  0  0  0  0  0  0  0
   28.7356  -21.2766   -9.0159 C   0  0  0  0  0  0  0  0  0  0  0  0
   29.6630  -21.2690   -8.0403 N   0  0  0  0  0  0  0  0  0  0  0  0
   29.1591  -20.6984   -6.9353 C   0  0  0  0  0  0  0  0  0  0  0  0
   29.6790  -20.4501   -5.6925 C   0  0  0  0  0  0  0  0  0  0  0  0
   28.9180  -19.8376   -4.7313 C   0  0  0  0  0  0  0  0  0  0  0  0
   27.6133  -19.4576   -4.9922 C   0  0  0  0  0  0  0  0  0  0  0  0
   27.0802  -19.6980   -6.2264 C   0  0  0  0  0  0  0  0  0  0  0  0
   27.8526  -20.3181   -7.1979 C   0  0  0  0  0  0  0  0  0  0  0  0
   25.2888  -20.8638  -11.4149 C   0  0  0  0  0  0  0  0  0  0  0  0
   25.4653  -19.7170  -11.8629 O   0  0  0  0  0  0  0  0  0  0  0  0
   25.9459  -23.2086  -15.0124 N   0  0  0  0  0  0  0  0  0  0  0  0
   25.0913  -22.0832  -14.6932 C   0  0  0  0  0  0  0  0  0  0  0  0
   25.6185  -20.9708  -14.9238 O   0  0  0  0  0  0  0  0  0  0  0  0
   23.7384  -22.3005  -14.1510 C   0  0  0  0  0  0  0  0  0  0  0  0
   23.4300  -21.3474  -13.0659 C   0  0  2  0  0  0  0  0  0  0  0  0
   24.1708  -21.5963  -11.8441 N   0  0  0  0  0  0  0  0  0  0  0  0
   21.9927  -21.3837  -12.7301 C   0  0  0  0  0  0  0  0  0  0  0  0
   21.0439  -21.4287  -13.5366 O   0  0  0  0  0  0  0  0  0  0  0  0
   21.5826  -21.3676  -11.3364 N   0  0  0  0  0  0  0  0  0  0  0  0
   20.1831  -21.2743  -10.9931 C   0  0  0  0  0  0  0  0  0  0  0  0
   19.5755  -20.0480  -11.5520 C   0  0  0  0  0  0  0  0  0  0  0  0
   19.9333  -18.7654  -11.1959 O   0  0  0  0  0  0  0  0  0  0  0  0
   18.6688  -20.1736  -12.4119 O   0  0  0  0  0  0  0  0  0  0  0  0
  2  1  1  6
  2 13  1  0
  3  2  1  0
  3  4  1  0
  4 12  1  0
  4  5  2  0
  5  6  1  0
  7  8  2  0
  7  6  1  0
  9  8  1  0
 10  9  2  0
 11 10  1  0
 11 12  2  0
 12  7  1  0
 13 20  1  0
 13 14  2  0
 15 16  1  0
 16 18  1  0
 17 16  2  0
 19 18  1  6
 19 21  1  0
 20 19  1  0
 21 22  2  0
 23 24  1  0
 23 21  1  0
 25 26  1  0
 25 24  1  0
 27 25  2  0
M  END
$$$$
