WNG.pdb
     RDKit          3D

 27 28  0  0  1  0  0  0  0  0999 V2000
   27.7421  -21.4608  -12.7913 N   0  0  0  0  0  0  0  0  0  0  0  0
   26.5207  -21.5334  -11.9772 C   0  0  1  0  0  0  0  0  0  0  0  0
   26.5802  -20.3199  -11.0410 C   0  0  0  0  0  0  0  0  0  0  0  0
   27.7397  -20.4662  -10.1167 C   0  0  0  0  0  0  0  0  0  0  0  0
   28.9785  -20.9186  -10.4591 C   0  0  0  0  0  0  0  0  0  0  0  0
   29.7234  -20.8956   -9.3382 N   0  0  0  0  0  0  0  0  0  0  0  0
   28.9887  -20.4438   -8.3103 C   0  0  0  0  0  0  0  0  0  0  0  0
   29.2659  -20.2339   -6.9855 C   0  0  0  0  0  0  0  0  0  0  0  0
   28.2991  -19.7530   -6.1415 C   0  0  0  0  0  0  0  0  0  0  0  0
   27.0266  -19.4698   -6.6056 C   0  0  0  0  0  0  0  0  0  0  0  0
   26.7342  -19.6735   -7.9239 C   0  0  0  0  0  0  0  0  0  0  0  0
   27.7147  -20.1603   -8.7764 C   0  0  0  0  0  0  0  0  0  0  0  0
   25.3207  -21.3929  -12.8572 C   0  0  0  0  0  0  0  0  0  0  0  0
   25.2963  -20.4800  -13.7016 O   0  0  0  0  0  0  0  0  0  0  0  0
   24.6047  -25.4157  -15.1274 N   0  0  0  0  0  0  0  0  0  0  0  0
   23.9961  -24.1029  -15.1995 C   0  0  0  0  0  0  0  0  0  0  0  0
   24.4604  -23.3836  -16.1136 O   0  0  0  0  0  0  0  0  0  0  0  0
   22.9345  -23.7167  -14.2533 C   0  0  0  0  0  0  0  0  0  0  0  0
   23.1450  -22.3517  -13.7304 C   0  0  2  0  0  0  0  0  0  0  0  0
   24.2199  -22.2588  -12.7610 N   0  0  0  0  0  0  0  0  0  0  0  0
   21.9183  -21.8436  -13.0847 C   0  0  0  0  0  0  0  0  0  0  0  0
   20.7450  -22.0965  -13.4196 O   0  0  0  0  0  0  0  0  0  0  0  0
   22.0270  -20.9559  -11.9397 N   0  0  0  0  0  0  0  0  0  0  0  0
   20.8403  -20.3769  -11.3555 C   0  0  0  0  0  0  0  0  0  0  0  0
   20.3631  -19.2225  -12.1461 C   0  0  0  0  0  0  0  0  0  0  0  0
   20.3922  -17.9136  -11.7151 O   0  0  0  0  0  0  0  0  0  0  0  0
   19.8965  -19.4398  -13.2916 O   0  0  0  0  0  0  0  0  0  0  0  0
  2  1  1  6
  2 13  1  0
  3  2  1  0
  3  4  1  0
  4 12  1  0
  4  5  2  0
  5  6  1  0
  7  8  2  0
  7  6  1  0
  9  8  1  0
 10  9  2  0
 11 10  1  0
 11 12  2  0
 12  7  1  0
 13 20  1  0
 13 14  2  0
 15 16  1  0
 16 18  1  0
 17 16  2  0
 19 18  1  1
 19 21  1  0
 20 19  1  0
 21 22  2  0
 23 24  1  0
 23 21  1  0
 25 26  1  0
 25 24  1  0
 27 25  2  0
M  END
$$$$
