WNG.pdb
     RDKit          3D

 27 28  0  0  1  0  0  0  0  0999 V2000
   27.8630  -22.1193  -10.1694 N   0  0  0  0  0  0  0  0  0  0  0  0
   27.0021  -21.0054   -9.7476 C   0  0  1  0  0  0  0  0  0  0  0  0
   27.9566  -19.8457   -9.4365 C   0  0  0  0  0  0  0  0  0  0  0  0
   28.7671  -20.1831   -8.2326 C   0  0  0  0  0  0  0  0  0  0  0  0
   29.9927  -20.7781   -8.2393 C   0  0  0  0  0  0  0  0  0  0  0  0
   30.3708  -20.9023   -6.9534 N   0  0  0  0  0  0  0  0  0  0  0  0
   29.4206  -20.4040   -6.1475 C   0  0  0  0  0  0  0  0  0  0  0  0
   29.3156  -20.2907   -4.7865 C   0  0  0  0  0  0  0  0  0  0  0  0
   28.2029  -19.7251   -4.2206 C   0  0  0  0  0  0  0  0  0  0  0  0
   27.1646  -19.2577   -5.0069 C   0  0  0  0  0  0  0  0  0  0  0  0
   27.2540  -19.3631   -6.3655 C   0  0  0  0  0  0  0  0  0  0  0  0
   28.3815  -19.9360   -6.9361 C   0  0  0  0  0  0  0  0  0  0  0  0
   26.1163  -20.5975  -10.8804 C   0  0  0  0  0  0  0  0  0  0  0  0
   26.6298  -20.3359  -11.9827 O   0  0  0  0  0  0  0  0  0  0  0  0
   22.0289  -22.5877  -14.2263 N   0  0  0  0  0  0  0  0  0  0  0  0
   22.9411  -21.5190  -13.8732 C   0  0  0  0  0  0  0  0  0  0  0  0
   22.8716  -20.5272  -14.6348 O   0  0  0  0  0  0  0  0  0  0  0  0
   23.8391  -21.6539  -12.7128 C   0  0  0  0  0  0  0  0  0  0  0  0
   23.7746  -20.4668  -11.8367 C   0  0  2  0  0  0  0  0  0  0  0  0
   24.7230  -20.5002  -10.7398 N   0  0  0  0  0  0  0  0  0  0  0  0
   22.4259  -20.3185  -11.2545 C   0  0  0  0  0  0  0  0  0  0  0  0
   21.9178  -21.0334  -10.3694 O   0  0  0  0  0  0  0  0  0  0  0  0
   21.5585  -19.2502  -11.7206 N   0  0  0  0  0  0  0  0  0  0  0  0
   20.2267  -19.1094  -11.1806 C   0  0  0  0  0  0  0  0  0  0  0  0
   19.3346  -20.1819  -11.6698 C   0  0  0  0  0  0  0  0  0  0  0  0
   18.6604  -21.0693  -10.8588 O   0  0  0  0  0  0  0  0  0  0  0  0
   19.1738  -20.3007  -12.9097 O   0  0  0  0  0  0  0  0  0  0  0  0
  2  1  1  6
  2 13  1  0
  3  2  1  0
  3  4  1  0
  4 12  1  0
  4  5  2  0
  5  6  1  0
  7  8  2  0
  7  6  1  0
  9  8  1  0
 10  9  2  0
 11 10  1  0
 11 12  2  0
 12  7  1  0
 13 20  1  0
 13 14  2  0
 15 16  1  0
 16 18  1  0
 17 16  2  0
 19 18  1  1
 19 21  1  0
 20 19  1  0
 21 22  2  0
 23 24  1  0
 23 21  1  0
 25 26  1  0
 25 24  1  0
 27 25  2  0
M  END
$$$$
