WNG.pdb
     RDKit          3D

 27 28  0  0  1  0  0  0  0  0999 V2000
   28.5916  -21.6649  -10.6329 N   0  0  0  0  0  0  0  0  0  0  0  0
   27.3183  -21.1979  -10.0667 C   0  0  1  0  0  0  0  0  0  0  0  0
   27.6657  -19.9396   -9.2613 C   0  0  0  0  0  0  0  0  0  0  0  0
   28.6026  -20.3013   -8.1606 C   0  0  0  0  0  0  0  0  0  0  0  0
   29.7754  -20.9797   -8.3043 C   0  0  0  0  0  0  0  0  0  0  0  0
   30.3092  -21.0968   -7.0742 N   0  0  0  0  0  0  0  0  0  0  0  0
   29.5069  -20.5135   -6.1705 C   0  0  0  0  0  0  0  0  0  0  0  0
   29.5881  -20.3585   -4.8119 C   0  0  0  0  0  0  0  0  0  0  0  0
   28.5981  -19.7030   -4.1275 C   0  0  0  0  0  0  0  0  0  0  0  0
   27.4988  -19.1851   -4.7894 C   0  0  0  0  0  0  0  0  0  0  0  0
   27.4029  -19.3312   -6.1438 C   0  0  0  0  0  0  0  0  0  0  0  0
   28.4065  -19.9951   -6.8346 C   0  0  0  0  0  0  0  0  0  0  0  0
   26.3888  -20.8103  -11.1713 C   0  0  0  0  0  0  0  0  0  0  0  0
   26.8658  -20.4652  -12.2669 O   0  0  0  0  0  0  0  0  0  0  0  0
   22.1927  -22.7481  -14.4322 N   0  0  0  0  0  0  0  0  0  0  0  0
   23.2228  -21.7624  -14.1752 C   0  0  0  0  0  0  0  0  0  0  0  0
   23.2340  -20.8208  -15.0010 O   0  0  0  0  0  0  0  0  0  0  0  0
   24.1376  -21.9163  -13.0304 C   0  0  0  0  0  0  0  0  0  0  0  0
   24.0303  -20.7791  -12.0943 C   0  0  2  0  0  0  0  0  0  0  0  0
   24.9942  -20.8233  -11.0113 N   0  0  0  0  0  0  0  0  0  0  0  0
   22.6843  -20.7237  -11.4900 C   0  0  0  0  0  0  0  0  0  0  0  0
   22.2229  -21.5037  -10.6348 O   0  0  0  0  0  0  0  0  0  0  0  0
   21.7610  -19.6771  -11.8937 N   0  0  0  0  0  0  0  0  0  0  0  0
   20.4653  -19.5708  -11.2652 C   0  0  0  0  0  0  0  0  0  0  0  0
   19.5110  -20.5436  -11.8381 C   0  0  0  0  0  0  0  0  0  0  0  0
   18.2125  -20.7122  -11.4075 O   0  0  0  0  0  0  0  0  0  0  0  0
   19.9018  -21.2721  -12.7835 O   0  0  0  0  0  0  0  0  0  0  0  0
  2  1  1  6
  2 13  1  0
  3  2  1  0
  3  4  1  0
  4 12  1  0
  4  5  2  0
  5  6  1  0
  7  8  2  0
  7  6  1  0
  9  8  1  0
 10  9  2  0
 11 10  1  0
 11 12  2  0
 12  7  1  0
 13 20  1  0
 13 14  2  0
 15 16  1  0
 16 18  1  0
 17 16  2  0
 19 18  1  6
 19 21  1  0
 20 19  1  0
 21 22  2  0
 23 24  1  0
 23 21  1  0
 25 26  1  0
 25 24  1  0
 27 25  2  0
M  END
$$$$
