WNG.pdb
     RDKit          3D

 27 28  0  0  1  0  0  0  0  0999 V2000
   27.1609  -20.0222  -10.0917 N   0  0  0  0  0  0  0  0  0  0  0  0
   26.1115  -21.0484  -10.0174 C   0  0  1  0  0  0  0  0  0  0  0  0
   26.0008  -21.4134   -8.5317 C   0  0  0  0  0  0  0  0  0  0  0  0
   26.6640  -20.3592   -7.7138 C   0  0  0  0  0  0  0  0  0  0  0  0
   26.8053  -19.0504   -8.0653 C   0  0  0  0  0  0  0  0  0  0  0  0
   27.4565  -18.4454   -7.0545 N   0  0  0  0  0  0  0  0  0  0  0  0
   27.7246  -19.3349   -6.0862 C   0  0  0  0  0  0  0  0  0  0  0  0
   28.3547  -19.2342   -4.8742 C   0  0  0  0  0  0  0  0  0  0  0  0
   28.4908  -20.3348   -4.0689 C   0  0  0  0  0  0  0  0  0  0  0  0
   27.9976  -21.5672   -4.4594 C   0  0  0  0  0  0  0  0  0  0  0  0
   27.3667  -21.6843   -5.6649 C   0  0  0  0  0  0  0  0  0  0  0  0
   27.2300  -20.5686   -6.4784 C   0  0  0  0  0  0  0  0  0  0  0  0
   24.8074  -20.4671  -10.4595 C   0  0  0  0  0  0  0  0  0  0  0  0
   24.4632  -19.3556  -10.0200 O   0  0  0  0  0  0  0  0  0  0  0  0
   23.8950  -18.5697  -13.2603 N   0  0  0  0  0  0  0  0  0  0  0  0
   23.2545  -19.6278  -14.0147 C   0  0  0  0  0  0  0  0  0  0  0  0
   23.3658  -19.4982  -15.2555 O   0  0  0  0  0  0  0  0  0  0  0  0
   22.5549  -20.7239  -13.3216 C   0  0  0  0  0  0  0  0  0  0  0  0
   22.6994  -20.6176  -11.8557 C   0  0  2  0  0  0  0  0  0  0  0  0
   23.9583  -21.1358  -11.3555 N   0  0  0  0  0  0  0  0  0  0  0  0
   21.6141  -21.3455  -11.1686 C   0  0  0  0  0  0  0  0  0  0  0  0
   21.5782  -22.5673  -10.9265 O   0  0  0  0  0  0  0  0  0  0  0  0
   20.4452  -20.6174  -10.7054 N   0  0  0  0  0  0  0  0  0  0  0  0
   19.4316  -21.2914   -9.9285 C   0  0  0  0  0  0  0  0  0  0  0  0
   18.4538  -21.9743  -10.8019 C   0  0  0  0  0  0  0  0  0  0  0  0
   17.3579  -22.6773  -10.3493 O   0  0  0  0  0  0  0  0  0  0  0  0
   18.6255  -21.9158  -12.0446 O   0  0  0  0  0  0  0  0  0  0  0  0
  2  1  1  1
  2 13  1  0
  3  2  1  0
  3  4  1  0
  4 12  1  0
  4  5  2  0
  5  6  1  0
  7  8  2  0
  7  6  1  0
  9  8  1  0
 10  9  2  0
 11 10  1  0
 11 12  2  0
 12  7  1  0
 13 20  1  0
 13 14  2  0
 15 16  1  0
 16 18  1  0
 17 16  2  0
 19 18  1  6
 19 21  1  0
 20 19  1  0
 21 22  2  0
 23 24  1  0
 23 21  1  0
 25 26  1  0
 25 24  1  0
 27 25  2  0
M  END
$$$$
