WNG.pdb
     RDKit          3D

 27 28  0  0  1  0  0  0  0  0999 V2000
   28.5783  -22.1146  -14.0850 N   0  0  0  0  0  0  0  0  0  0  0  0
   27.4451  -21.8929  -13.1757 C   0  0  1  0  0  0  0  0  0  0  0  0
   27.6426  -20.4798  -12.6129 C   0  0  0  0  0  0  0  0  0  0  0  0
   28.3352  -20.5653  -11.2965 C   0  0  0  0  0  0  0  0  0  0  0  0
   29.6827  -20.6408  -11.1093 C   0  0  0  0  0  0  0  0  0  0  0  0
   29.8870  -20.7024   -9.7803 N   0  0  0  0  0  0  0  0  0  0  0  0
   28.7111  -20.6677   -9.1351 C   0  0  0  0  0  0  0  0  0  0  0  0
   28.3726  -20.7022   -7.8082 C   0  0  0  0  0  0  0  0  0  0  0  0
   27.0576  -20.6507   -7.4255 C   0  0  0  0  0  0  0  0  0  0  0  0
   26.0461  -20.5633   -8.3657 C   0  0  0  0  0  0  0  0  0  0  0  0
   26.3669  -20.5278   -9.6927 C   0  0  0  0  0  0  0  0  0  0  0  0
   27.6989  -20.5799  -10.0777 C   0  0  0  0  0  0  0  0  0  0  0  0
   26.1667  -21.9188  -13.9498 C   0  0  0  0  0  0  0  0  0  0  0  0
   26.1236  -21.3612  -15.0608 O   0  0  0  0  0  0  0  0  0  0  0  0
   21.0018  -25.1626  -14.8139 N   0  0  0  0  0  0  0  0  0  0  0  0
   21.9339  -24.0644  -14.9688 C   0  0  0  0  0  0  0  0  0  0  0  0
   21.5890  -23.2317  -15.8384 O   0  0  0  0  0  0  0  0  0  0  0  0
   23.1546  -23.9967  -14.1463 C   0  0  0  0  0  0  0  0  0  0  0  0
   23.7505  -22.6456  -14.1710 C   0  0  2  0  0  0  0  0  0  0  0  0
   25.0128  -22.5528  -13.4627 N   0  0  0  0  0  0  0  0  0  0  0  0
   22.8311  -21.6570  -13.5733 C   0  0  0  0  0  0  0  0  0  0  0  0
   22.5226  -21.5644  -12.3696 O   0  0  0  0  0  0  0  0  0  0  0  0
   22.1920  -20.6679  -14.4243 N   0  0  0  0  0  0  0  0  0  0  0  0
   21.2319  -19.7440  -13.8677 C   0  0  0  0  0  0  0  0  0  0  0  0
   19.8917  -20.3598  -13.7685 C   0  0  0  0  0  0  0  0  0  0  0  0
   18.9725  -20.0781  -12.7808 O   0  0  0  0  0  0  0  0  0  0  0  0
   19.5584  -21.1999  -14.6406 O   0  0  0  0  0  0  0  0  0  0  0  0
  2  1  1  6
  2 13  1  0
  3  2  1  0
  3  4  1  0
  4 12  1  0
  4  5  2  0
  5  6  1  0
  7  8  2  0
  7  6  1  0
  9  8  1  0
 10  9  2  0
 11 10  1  0
 11 12  2  0
 12  7  1  0
 13 20  1  0
 13 14  2  0
 15 16  1  0
 16 18  1  0
 17 16  2  0
 19 18  1  1
 19 21  1  0
 20 19  1  0
 21 22  2  0
 23 24  1  0
 23 21  1  0
 25 26  1  0
 25 24  1  0
 27 25  2  0
M  END
$$$$
