WNG.pdb
     RDKit          3D

 27 28  0  0  1  0  0  0  0  0999 V2000
   26.6244  -22.6901  -12.3666 N   0  0  0  0  0  0  0  0  0  0  0  0
   25.8226  -21.8080  -11.5069 C   0  0  1  0  0  0  0  0  0  0  0  0
   26.6017  -20.4887  -11.4347 C   0  0  0  0  0  0  0  0  0  0  0  0
   27.7588  -20.6489  -10.5097 C   0  0  0  0  0  0  0  0  0  0  0  0
   28.9919  -21.1170  -10.8511 C   0  0  0  0  0  0  0  0  0  0  0  0
   29.7365  -21.1026   -9.7298 N   0  0  0  0  0  0  0  0  0  0  0  0
   29.0069  -20.6410   -8.7026 C   0  0  0  0  0  0  0  0  0  0  0  0
   29.2860  -20.4337   -7.3777 C   0  0  0  0  0  0  0  0  0  0  0  0
   28.3248  -19.9402   -6.5347 C   0  0  0  0  0  0  0  0  0  0  0  0
   27.0562  -19.6414   -6.9996 C   0  0  0  0  0  0  0  0  0  0  0  0
   26.7620  -19.8423   -8.3180 C   0  0  0  0  0  0  0  0  0  0  0  0
   27.7368  -20.3419   -9.1696 C   0  0  0  0  0  0  0  0  0  0  0  0
   24.5012  -21.5417  -12.1528 C   0  0  0  0  0  0  0  0  0  0  0  0
   24.3773  -21.7383  -13.3747 O   0  0  0  0  0  0  0  0  0  0  0  0
   19.1780  -22.8090  -11.6280 N   0  0  0  0  0  0  0  0  0  0  0  0
   19.6767  -21.4649  -11.4194 C   0  0  0  0  0  0  0  0  0  0  0  0
   18.8697  -20.5708  -11.7627 O   0  0  0  0  0  0  0  0  0  0  0  0
   21.0184  -21.2438  -10.8516 C   0  0  0  0  0  0  0  0  0  0  0  0
   22.0291  -21.0466  -11.9102 C   0  0  2  0  0  0  0  0  0  0  0  0
   23.3952  -21.0766  -11.4239 N   0  0  0  0  0  0  0  0  0  0  0  0
   21.8276  -19.7525  -12.5918 C   0  0  0  0  0  0  0  0  0  0  0  0
   21.7829  -18.6299  -12.0529 O   0  0  0  0  0  0  0  0  0  0  0  0
   21.6587  -19.7219  -14.0345 N   0  0  0  0  0  0  0  0  0  0  0  0
   21.4611  -18.4639  -14.7152 C   0  0  0  0  0  0  0  0  0  0  0  0
   21.3806  -18.6542  -16.1789 C   0  0  0  0  0  0  0  0  0  0  0  0
   20.4064  -19.3890  -16.8199 O   0  0  0  0  0  0  0  0  0  0  0  0
   22.2570  -18.1124  -16.8970 O   0  0  0  0  0  0  0  0  0  0  0  0
  2  1  1  6
  2 13  1  0
  3  2  1  0
  3  4  1  0
  4 12  1  0
  4  5  2  0
  5  6  1  0
  7  8  2  0
  7  6  1  0
  9  8  1  0
 10  9  2  0
 11 10  1  0
 11 12  2  0
 12  7  1  0
 13 20  1  0
 13 14  2  0
 15 16  1  0
 16 18  1  0
 17 16  2  0
 19 18  1  1
 19 21  1  0
 20 19  1  0
 21 22  2  0
 23 24  1  0
 23 21  1  0
 25 26  1  0
 25 24  1  0
 27 25  2  0
M  END
$$$$
