YSI.pdb
     RDKit          3D

 27 27  0  0  1  0  0  0  0  0999 V2000
   12.0346  -19.0724   25.5587 O   0  0  0  0  0  0  0  0  0  0  0  0
   11.9010  -18.7688   24.2045 C   0  0  0  0  0  0  0  0  0  0  0  0
   12.1840  -17.5121   23.7114 C   0  0  0  0  0  0  0  0  0  0  0  0
   12.0472  -17.2262   22.3691 C   0  0  0  0  0  0  0  0  0  0  0  0
   11.6223  -18.1792   21.4569 C   0  0  0  0  0  0  0  0  0  0  0  0
   11.4995  -17.7910   20.0487 C   0  0  0  0  0  0  0  0  0  0  0  0
   10.0595  -17.7465   19.5512 C   0  0  2  0  0  0  0  0  0  0  0  0
   10.1470  -17.4394   18.1353 N   0  0  0  0  0  0  0  0  0  0  0  0
    9.2599  -16.7273   20.2760 C   0  0  0  0  0  0  0  0  0  0  0  0
    9.4588  -15.5116   20.0290 O   0  0  0  0  0  0  0  0  0  0  0  0
   11.3401  -19.4351   21.9546 C   0  0  0  0  0  0  0  0  0  0  0  0
   11.4771  -19.7259   23.3067 C   0  0  0  0  0  0  0  0  0  0  0  0
    6.0210  -17.8417   22.6324 O   0  0  0  0  0  0  0  0  0  0  0  0
    6.0501  -16.6154   21.9633 C   0  0  0  0  0  0  0  0  0  0  0  0
    7.4770  -16.0554   21.9375 C   0  0  2  0  0  0  0  0  0  0  0  0
    8.2774  -17.0417   21.2376 N   0  0  0  0  0  0  0  0  0  0  0  0
    7.9692  -15.8165   23.3106 C   0  0  0  0  0  0  0  0  0  0  0  0
    8.7919  -16.6153   23.8249 O   0  0  0  0  0  0  0  0  0  0  0  0
    5.6458  -12.0829   27.0913 C   0  0  0  0  0  0  0  0  0  0  0  0
    6.1192  -13.1125   26.1243 C   0  0  0  0  0  0  0  0  0  0  0  0
    7.6241  -13.1471   25.9825 C   0  0  2  0  0  0  0  0  0  0  0  0
    8.1542  -12.0518   25.1237 C   0  0  0  0  0  0  0  0  0  0  0  0
    8.0320  -14.5185   25.4454 C   0  0  2  0  0  0  0  0  0  0  0  0
    7.5489  -14.7057   24.0925 N   0  0  0  0  0  0  0  0  0  0  0  0
    7.5556  -15.6006   26.3443 C   0  0  0  0  0  0  0  0  0  0  0  0
    6.5596  -16.3103   26.0402 O   0  0  0  0  0  0  0  0  0  0  0  0
    8.1834  -15.8744   27.5499 O   0  0  0  0  0  0  0  0  0  0  0  0
  1  2  1  0
  2  3  2  0
  3  4  1  0
  5  4  2  0
  5  6  1  0
  7  6  1  0
  7  9  1  0
  7  8  1  6
  9 10  2  0
 11  5  1  0
 12  2  1  0
 12 11  2  0
 15 14  1  1
 14 13  1  0
 16  9  1  0
 16 15  1  0
 17 15  1  0
 17 18  2  0
 19 20  1  0
 20 21  1  0
 21 22  1  6
 21 23  1  0
 23 24  1  6
 23 25  1  0
 24 17  1  0
 25 26  2  0
 25 27  1  0
M  END
$$$$
