YSI.pdb
     RDKit          3D

 27 27  0  0  1  0  0  0  0  0999 V2000
    7.8611  -12.8664   15.8681 O   0  0  0  0  0  0  0  0  0  0  0  0
    7.9498  -13.3716   17.1645 C   0  0  0  0  0  0  0  0  0  0  0  0
    8.5803  -14.5681   17.4352 C   0  0  0  0  0  0  0  0  0  0  0  0
    8.6605  -15.0556   18.7229 C   0  0  0  0  0  0  0  0  0  0  0  0
    8.1163  -14.3733   19.7995 C   0  0  0  0  0  0  0  0  0  0  0  0
    8.2418  -14.9639   21.1353 C   0  0  0  0  0  0  0  0  0  0  0  0
    8.1082  -16.4822   21.1463 C   0  0  2  0  0  0  0  0  0  0  0  0
    6.7310  -16.7536   20.7768 N   0  0  0  0  0  0  0  0  0  0  0  0
    8.4318  -17.0518   22.4784 C   0  0  0  0  0  0  0  0  0  0  0  0
    7.5537  -17.0316   23.3767 O   0  0  0  0  0  0  0  0  0  0  0  0
    7.4863  -13.1767   19.5241 C   0  0  0  0  0  0  0  0  0  0  0  0
    7.4041  -12.6831   18.2275 C   0  0  0  0  0  0  0  0  0  0  0  0
   12.1811  -18.7897   23.2640 O   0  0  0  0  0  0  0  0  0  0  0  0
   11.0094  -19.3236   23.8069 C   0  0  0  0  0  0  0  0  0  0  0  0
    9.9971  -18.2081   24.0919 C   0  0  2  0  0  0  0  0  0  0  0  0
    9.6799  -17.6219   22.8039 N   0  0  0  0  0  0  0  0  0  0  0  0
   10.5643  -17.2146   25.0276 C   0  0  0  0  0  0  0  0  0  0  0  0
   11.2901  -16.2879   24.5871 O   0  0  0  0  0  0  0  0  0  0  0  0
    9.8294  -12.9160   28.7583 C   0  0  0  0  0  0  0  0  0  0  0  0
   10.6434  -14.1374   28.5037 C   0  0  0  0  0  0  0  0  0  0  0  0
    9.9989  -15.0864   27.5188 C   0  0  2  0  0  0  0  0  0  0  0  0
    8.6358  -15.5202   27.9337 C   0  0  0  0  0  0  0  0  0  0  0  0
   10.9248  -16.2858   27.3197 C   0  0  2  0  0  0  0  0  0  0  0  0
   10.3242  -17.2572   26.4284 N   0  0  0  0  0  0  0  0  0  0  0  0
   11.2834  -16.8982   28.6244 C   0  0  0  0  0  0  0  0  0  0  0  0
   10.7994  -18.0061   28.9802 O   0  0  0  0  0  0  0  0  0  0  0  0
   12.1614  -16.2801   29.5017 O   0  0  0  0  0  0  0  0  0  0  0  0
  1  2  1  0
  2  3  2  0
  3  4  1  0
  5  4  2  0
  5  6  1  0
  7  6  1  0
  7  9  1  0
  7  8  1  1
  9 10  2  0
 11  5  1  0
 12  2  1  0
 12 11  2  0
 15 14  1  6
 14 13  1  0
 16  9  1  0
 16 15  1  0
 17 15  1  0
 17 18  2  0
 19 20  1  0
 20 21  1  0
 21 22  1  1
 21 23  1  0
 23 24  1  6
 23 25  1  0
 24 17  1  0
 25 26  2  0
 25 27  1  0
M  END
$$$$
