YSI.pdb
     RDKit          3D

 27 27  0  0  1  0  0  0  0  0999 V2000
   10.3244  -12.2259   18.1473 O   0  0  0  0  0  0  0  0  0  0  0  0
    9.3593  -13.0014   18.7884 C   0  0  0  0  0  0  0  0  0  0  0  0
    8.0803  -12.5335   19.0067 C   0  0  0  0  0  0  0  0  0  0  0  0
    7.1358  -13.3121   19.6424 C   0  0  0  0  0  0  0  0  0  0  0  0
    7.4225  -14.5923   20.0894 C   0  0  0  0  0  0  0  0  0  0  0  0
    6.3622  -15.3510   20.7594 C   0  0  0  0  0  0  0  0  0  0  0  0
    6.7224  -16.8101   21.0124 C   0  0  2  0  0  0  0  0  0  0  0  0
    5.8930  -17.5785   20.1021 N   0  0  0  0  0  0  0  0  0  0  0  0
    6.4777  -17.1989   22.4240 C   0  0  0  0  0  0  0  0  0  0  0  0
    5.2938  -17.3585   22.8130 O   0  0  0  0  0  0  0  0  0  0  0  0
    8.7034  -15.0564   19.8689 C   0  0  0  0  0  0  0  0  0  0  0  0
    9.6570  -14.2740   19.2287 C   0  0  0  0  0  0  0  0  0  0  0  0
    8.4782  -19.4748   24.9327 O   0  0  0  0  0  0  0  0  0  0  0  0
    7.2740  -18.8422   25.2521 C   0  0  0  0  0  0  0  0  0  0  0  0
    7.3068  -17.3759   24.8056 C   0  0  2  0  0  0  0  0  0  0  0  0
    7.5042  -17.4032   23.3690 N   0  0  0  0  0  0  0  0  0  0  0  0
    8.3869  -16.6429   25.4988 C   0  0  0  0  0  0  0  0  0  0  0  0
    9.5592  -16.6886   25.0482 O   0  0  0  0  0  0  0  0  0  0  0  0
    7.6054  -11.7730   27.0560 C   0  0  0  0  0  0  0  0  0  0  0  0
    8.2207  -13.0718   26.6636 C   0  0  0  0  0  0  0  0  0  0  0  0
    8.8264  -13.8190   27.8303 C   0  0  2  0  0  0  0  0  0  0  0  0
    9.9644  -13.0932   28.4599 C   0  0  0  0  0  0  0  0  0  0  0  0
    9.2513  -15.2071   27.3529 C   0  0  2  0  0  0  0  0  0  0  0  0
    8.1596  -15.8740   26.6731 N   0  0  0  0  0  0  0  0  0  0  0  0
    9.7612  -16.0217   28.4853 C   0  0  0  0  0  0  0  0  0  0  0  0
    9.0309  -16.8760   29.0555 O   0  0  0  0  0  0  0  0  0  0  0  0
   11.0557  -15.8774   28.9607 O   0  0  0  0  0  0  0  0  0  0  0  0
  1  2  1  0
  2  3  2  0
  3  4  1  0
  5  4  2  0
  5  6  1  0
  7  6  1  0
  7  9  1  0
  7  8  1  6
  9 10  2  0
 11  5  1  0
 12  2  1  0
 12 11  2  0
 15 14  1  1
 14 13  1  0
 16  9  1  0
 16 15  1  0
 17 15  1  0
 17 18  2  0
 19 20  1  0
 20 21  1  0
 21 22  1  6
 21 23  1  0
 23 24  1  1
 23 25  1  0
 24 17  1  0
 25 26  2  0
 25 27  1  0
M  END
$$$$
