YSI.pdb
     RDKit          3D

 27 27  0  0  1  0  0  0  0  0999 V2000
    8.7957  -13.0468   16.2270 O   0  0  0  0  0  0  0  0  0  0  0  0
    8.3533  -13.5065   17.4667 C   0  0  0  0  0  0  0  0  0  0  0  0
    7.1184  -13.1564   17.9716 C   0  0  0  0  0  0  0  0  0  0  0  0
    6.6940  -13.6189   19.1997 C   0  0  0  0  0  0  0  0  0  0  0  0
    7.4803  -14.4512   19.9806 C   0  0  0  0  0  0  0  0  0  0  0  0
    6.9553  -14.8938   21.2757 C   0  0  0  0  0  0  0  0  0  0  0  0
    6.9925  -16.4057   21.4649 C   0  0  2  0  0  0  0  0  0  0  0  0
    6.0007  -16.9365   20.5476 N   0  0  0  0  0  0  0  0  0  0  0  0
    6.6919  -16.7908   22.8666 C   0  0  0  0  0  0  0  0  0  0  0  0
    5.6504  -16.3437   23.4088 O   0  0  0  0  0  0  0  0  0  0  0  0
    8.7151  -14.7988   19.4716 C   0  0  0  0  0  0  0  0  0  0  0  0
    9.1453  -14.3343   18.2344 C   0  0  0  0  0  0  0  0  0  0  0  0
    9.0704  -19.5102   25.0529 O   0  0  0  0  0  0  0  0  0  0  0  0
    7.7832  -19.1492   25.4593 C   0  0  0  0  0  0  0  0  0  0  0  0
    7.4964  -17.6896   25.0883 C   0  0  2  0  0  0  0  0  0  0  0  0
    7.5127  -17.6383   23.6390 N   0  0  0  0  0  0  0  0  0  0  0  0
    8.5064  -16.7908   25.6853 C   0  0  0  0  0  0  0  0  0  0  0  0
    9.5537  -16.5189   25.0459 O   0  0  0  0  0  0  0  0  0  0  0  0
    7.0322  -12.3946   27.7989 C   0  0  0  0  0  0  0  0  0  0  0  0
    7.9550  -13.3942   27.1916 C   0  0  0  0  0  0  0  0  0  0  0  0
    8.7800  -14.1403   28.2157 C   0  0  2  0  0  0  0  0  0  0  0  0
    9.8345  -13.2956   28.8424 C   0  0  0  0  0  0  0  0  0  0  0  0
    9.3839  -15.3758   27.5492 C   0  0  2  0  0  0  0  0  0  0  0  0
    8.3476  -16.2077   26.9724 N   0  0  0  0  0  0  0  0  0  0  0  0
   10.2178  -16.1403   28.5116 C   0  0  0  0  0  0  0  0  0  0  0  0
    9.7854  -17.1895   29.0599 O   0  0  0  0  0  0  0  0  0  0  0  0
   11.5007  -15.7342   28.8457 O   0  0  0  0  0  0  0  0  0  0  0  0
  1  2  1  0
  2  3  2  0
  3  4  1  0
  5  4  2  0
  5  6  1  0
  7  6  1  0
  7  9  1  0
  7  8  1  6
  9 10  2  0
 11  5  1  0
 12  2  1  0
 12 11  2  0
 15 14  1  6
 14 13  1  0
 16  9  1  0
 16 15  1  0
 17 15  1  0
 17 18  2  0
 19 20  1  0
 20 21  1  0
 21 22  1  6
 21 23  1  0
 23 24  1  1
 23 25  1  0
 24 17  1  0
 25 26  2  0
 25 27  1  0
M  END
$$$$
