THE.pdb
     RDKit          3D

 27 27  0  0  1  0  0  0  0  0999 V2000
    9.4973  -20.3252   17.6126 C   0  0  0  0  0  0  0  0  0  0  0  0
    9.7144  -19.2894   18.6842 C   0  0  1  0  0  0  0  0  0  0  0  0
   10.9158  -19.6394   19.3437 O   0  0  0  0  0  0  0  0  0  0  0  0
    9.9225  -17.9103   18.1280 C   0  0  2  0  0  0  0  0  0  0  0  0
   10.9888  -17.8022   17.1922 N   0  0  0  0  0  0  0  0  0  0  0  0
   10.1926  -17.0085   19.2953 C   0  0  0  0  0  0  0  0  0  0  0  0
   11.3861  -16.6827   19.5152 O   0  0  0  0  0  0  0  0  0  0  0  0
    9.1405  -16.5477   20.1108 N   0  0  0  0  0  0  0  0  0  0  0  0
    9.2999  -15.7966   21.3104 C   0  0  1  0  0  0  0  0  0  0  0  0
    8.1532  -14.8892   21.6274 C   0  0  0  0  0  0  0  0  0  0  0  0
    7.8813  -13.9667   20.4834 C   0  0  0  0  0  0  0  0  0  0  0  0
    8.4207  -12.7289   20.2716 C   0  0  0  0  0  0  0  0  0  0  0  0
    7.9021  -12.2550   19.1294 N   0  0  0  0  0  0  0  0  0  0  0  0
    7.0554  -13.1629   18.6247 C   0  0  0  0  0  0  0  0  0  0  0  0
    7.0505  -14.2104   19.4645 N   0  0  0  0  0  0  0  0  0  0  0  0
    9.6838  -16.6609   22.4812 C   0  0  0  0  0  0  0  0  0  0  0  0
    8.9621  -17.5833   22.8851 O   0  0  0  0  0  0  0  0  0  0  0  0
   10.9208  -16.4303   23.1689 N   0  0  0  0  0  0  0  0  0  0  0  0
   11.3979  -17.3493   24.1892 C   0  0  1  0  0  0  0  0  0  0  0  0
   12.8837  -17.5043   23.9388 C   0  0  0  0  0  0  0  0  0  0  0  0
   13.6443  -16.2245   24.0313 C   0  0  0  0  0  0  0  0  0  0  0  0
   15.0619  -16.3240   23.6842 C   0  0  0  0  0  0  0  0  0  0  0  0
   15.7383  -15.2429   23.7507 O   0  0  0  0  0  0  0  0  0  0  0  0
   11.1136  -16.7613   25.5066 C   0  0  0  0  0  0  0  0  0  0  0  0
   11.4088  -17.3887   26.5428 O   0  0  0  0  0  0  0  0  0  0  0  0
   15.7399  -17.4454   23.2974 O   0  0  0  0  0  0  0  0  0  0  0  0
   10.5248  -15.5254   25.6043 O   0  0  0  0  0  0  0  0  0  0  0  0
  2  1  1  6
  2  4  1  0
  3  2  1  0
  4  5  1  6
  6  4  1  0
  6  7  2  0
  8  6  1  0
  9  8  1  0
  9 10  1  1
 11 15  1  0
 11 10  1  0
 12 11  2  0
 13 12  1  0
 13 14  1  0
 14 15  2  0
 16  9  1  0
 17 16  2  0
 18 16  1  0
 19 18  1  0
 20 21  1  0
 19 20  1  6
 22 26  1  0
 22 21  1  0
 23 22  2  0
 24 27  1  0
 24 19  1  0
 25 24  2  0
M  END
$$$$
