THE.pdb
     RDKit          3D

 27 27  0  0  1  0  0  0  0  0999 V2000
   11.7982  -19.6568   16.5922 C   0  0  0  0  0  0  0  0  0  0  0  0
   11.6931  -18.7891   17.8188 C   0  0  1  0  0  0  0  0  0  0  0  0
   12.9672  -18.8058   18.4329 O   0  0  0  0  0  0  0  0  0  0  0  0
   11.3983  -17.3532   17.4934 C   0  0  2  0  0  0  0  0  0  0  0  0
   12.3472  -16.7323   16.6341 N   0  0  0  0  0  0  0  0  0  0  0  0
   11.3507  -16.6143   18.7974 C   0  0  0  0  0  0  0  0  0  0  0  0
   12.3586  -15.9366   19.1195 O   0  0  0  0  0  0  0  0  0  0  0  0
   10.2132  -16.6828   19.6254 N   0  0  0  0  0  0  0  0  0  0  0  0
   10.0917  -16.0714   20.9061 C   0  0  1  0  0  0  0  0  0  0  0  0
    8.7030  -15.6355   21.2525 C   0  0  0  0  0  0  0  0  0  0  0  0
    8.2345  -14.5749   20.3095 C   0  0  0  0  0  0  0  0  0  0  0  0
    7.5088  -14.7469   19.1641 C   0  0  0  0  0  0  0  0  0  0  0  0
    7.3089  -13.5337   18.6294 N   0  0  0  0  0  0  0  0  0  0  0  0
    7.8895  -12.6117   19.4096 C   0  0  0  0  0  0  0  0  0  0  0  0
    8.4551  -13.2625   20.4387 N   0  0  0  0  0  0  0  0  0  0  0  0
   10.7195  -16.8964   21.9971 C   0  0  0  0  0  0  0  0  0  0  0  0
   10.4282  -18.0875   22.1742 O   0  0  0  0  0  0  0  0  0  0  0  0
   11.6898  -16.3083   22.8740 N   0  0  0  0  0  0  0  0  0  0  0  0
   12.2511  -17.0571   23.9864 C   0  0  1  0  0  0  0  0  0  0  0  0
   13.6101  -16.4423   24.2502 C   0  0  0  0  0  0  0  0  0  0  0  0
   14.5606  -16.5754   23.1083 C   0  0  0  0  0  0  0  0  0  0  0  0
   15.8639  -15.9442   23.3151 C   0  0  0  0  0  0  0  0  0  0  0  0
   16.0620  -14.8409   22.7034 O   0  0  0  0  0  0  0  0  0  0  0  0
   11.3452  -16.9200   25.1365 C   0  0  0  0  0  0  0  0  0  0  0  0
   10.4038  -16.1037   25.0909 O   0  0  0  0  0  0  0  0  0  0  0  0
   16.8905  -16.4056   24.0897 O   0  0  0  0  0  0  0  0  0  0  0  0
   11.5282  -17.6848   26.2613 O   0  0  0  0  0  0  0  0  0  0  0  0
  2  1  1  6
  2  4  1  0
  3  2  1  0
  4  5  1  6
  6  4  1  0
  6  7  2  0
  8  6  1  0
  9  8  1  0
  9 10  1  1
 11 15  1  0
 11 10  1  0
 12 11  2  0
 13 12  1  0
 13 14  1  0
 14 15  2  0
 16  9  1  0
 17 16  2  0
 18 16  1  0
 19 18  1  0
 20 21  1  0
 19 20  1  1
 22 26  1  0
 22 21  1  0
 23 22  2  0
 24 27  1  0
 24 19  1  0
 25 24  2  0
M  END
$$$$
