THE.pdb
     RDKit          3D

 27 27  0  0  1  0  0  0  0  0999 V2000
    8.7663  -20.6873   18.6845 C   0  0  0  0  0  0  0  0  0  0  0  0
    9.4803  -20.2880   17.4200 C   0  0  1  0  0  0  0  0  0  0  0  0
    9.2573  -21.3277   16.4873 O   0  0  0  0  0  0  0  0  0  0  0  0
    8.9198  -19.0386   16.8038 C   0  0  2  0  0  0  0  0  0  0  0  0
    9.4264  -18.7363   15.5091 N   0  0  0  0  0  0  0  0  0  0  0  0
    9.2423  -17.9118   17.7392 C   0  0  0  0  0  0  0  0  0  0  0  0
   10.4071  -17.4418   17.7044 O   0  0  0  0  0  0  0  0  0  0  0  0
    8.2687  -17.4044   18.6218 N   0  0  0  0  0  0  0  0  0  0  0  0
    8.4697  -16.3325   19.5379 C   0  0  1  0  0  0  0  0  0  0  0  0
    7.2519  -15.5014   19.7921 C   0  0  0  0  0  0  0  0  0  0  0  0
    7.5717  -14.3685   20.7130 C   0  0  0  0  0  0  0  0  0  0  0  0
    7.1711  -14.2182   22.0111 C   0  0  0  0  0  0  0  0  0  0  0  0
    7.6830  -13.0623   22.4580 N   0  0  0  0  0  0  0  0  0  0  0  0
    8.3907  -12.4892   21.4748 C   0  0  0  0  0  0  0  0  0  0  0  0
    8.3155  -13.3002   20.4076 N   0  0  0  0  0  0  0  0  0  0  0  0
    9.1284  -16.7844   20.8135 C   0  0  0  0  0  0  0  0  0  0  0  0
    8.7093  -17.7507   21.4659 O   0  0  0  0  0  0  0  0  0  0  0  0
   10.2805  -16.0911   21.3115 N   0  0  0  0  0  0  0  0  0  0  0  0
   11.0015  -16.5705   22.4793 C   0  0  1  0  0  0  0  0  0  0  0  0
   12.3880  -15.9688   22.3806 C   0  0  0  0  0  0  0  0  0  0  0  0
   13.2845  -16.3387   23.5140 C   0  0  0  0  0  0  0  0  0  0  0  0
   14.6266  -15.7600   23.4519 C   0  0  0  0  0  0  0  0  0  0  0  0
   15.3531  -15.9022   24.4924 O   0  0  0  0  0  0  0  0  0  0  0  0
   10.2829  -16.1193   23.6802 C   0  0  0  0  0  0  0  0  0  0  0  0
    9.5655  -15.1008   23.6281 O   0  0  0  0  0  0  0  0  0  0  0  0
   15.1865  -15.0852   22.4041 O   0  0  0  0  0  0  0  0  0  0  0  0
   10.3960  -16.8118   24.8598 O   0  0  0  0  0  0  0  0  0  0  0  0
  2  1  1  1
  2  4  1  0
  3  2  1  0
  4  5  1  6
  6  4  1  0
  6  7  2  0
  8  6  1  0
  9  8  1  0
  9 10  1  1
 11 15  1  0
 11 10  1  0
 12 11  2  0
 13 12  1  0
 13 14  1  0
 14 15  2  0
 16  9  1  0
 17 16  2  0
 18 16  1  0
 19 18  1  0
 20 21  1  0
 19 20  1  1
 22 26  1  0
 22 21  1  0
 23 22  2  0
 24 27  1  0
 24 19  1  0
 25 24  2  0
M  END
$$$$
