THE.pdb
     RDKit          3D

 27 27  0  0  1  0  0  0  0  0999 V2000
   14.6511  -16.2513   15.8693 C   0  0  0  0  0  0  0  0  0  0  0  0
   14.0100  -15.9848   17.2058 C   0  0  1  0  0  0  0  0  0  0  0  0
   15.0587  -15.9484   18.1542 O   0  0  0  0  0  0  0  0  0  0  0  0
   13.3331  -14.6460   17.2709 C   0  0  2  0  0  0  0  0  0  0  0  0
   14.1872  -13.5361   17.0193 N   0  0  0  0  0  0  0  0  0  0  0  0
   12.7495  -14.5219   18.6466 C   0  0  0  0  0  0  0  0  0  0  0  0
   13.3739  -13.8221   19.4829 O   0  0  0  0  0  0  0  0  0  0  0  0
   11.5442  -15.1698   18.9811 N   0  0  0  0  0  0  0  0  0  0  0  0
   10.9609  -15.1995   20.2802 C   0  0  1  0  0  0  0  0  0  0  0  0
    9.4700  -15.3239   20.2845 C   0  0  0  0  0  0  0  0  0  0  0  0
    8.8508  -14.2524   19.4465 C   0  0  0  0  0  0  0  0  0  0  0  0
    8.3971  -13.0327   19.8644 C   0  0  0  0  0  0  0  0  0  0  0  0
    7.9210  -12.3910   18.7876 N   0  0  0  0  0  0  0  0  0  0  0  0
    8.0656  -13.1768   17.7117 C   0  0  0  0  0  0  0  0  0  0  0  0
    8.6378  -14.3177   18.1282 N   0  0  0  0  0  0  0  0  0  0  0  0
   11.6201  -16.2085   21.1816 C   0  0  0  0  0  0  0  0  0  0  0  0
   11.6802  -17.4117   20.8924 O   0  0  0  0  0  0  0  0  0  0  0  0
   12.2059  -15.7892   22.4214 N   0  0  0  0  0  0  0  0  0  0  0  0
   12.7749  -16.7527   23.3494 C   0  0  1  0  0  0  0  0  0  0  0  0
   14.1904  -16.2822   23.6123 C   0  0  0  0  0  0  0  0  0  0  0  0
   15.1077  -16.4610   22.4496 C   0  0  0  0  0  0  0  0  0  0  0  0
   16.4860  -16.0291   22.6804 C   0  0  0  0  0  0  0  0  0  0  0  0
   16.6396  -14.9900   23.4066 O   0  0  0  0  0  0  0  0  0  0  0  0
   11.9537  -16.7562   24.5691 C   0  0  0  0  0  0  0  0  0  0  0  0
   11.0540  -15.9053   24.7139 O   0  0  0  0  0  0  0  0  0  0  0  0
   17.6250  -16.6151   22.2046 O   0  0  0  0  0  0  0  0  0  0  0  0
   12.1704  -17.6905   25.5510 O   0  0  0  0  0  0  0  0  0  0  0  0
  2  1  1  6
  2  4  1  0
  3  2  1  0
  4  5  1  1
  6  4  1  0
  6  7  2  0
  8  6  1  0
  9  8  1  0
  9 10  1  6
 11 15  1  0
 11 10  1  0
 12 11  2  0
 13 12  1  0
 13 14  1  0
 14 15  2  0
 16  9  1  0
 17 16  2  0
 18 16  1  0
 19 18  1  0
 20 21  1  0
 19 20  1  1
 22 26  1  0
 22 21  1  0
 23 22  2  0
 24 27  1  0
 24 19  1  0
 25 24  2  0
M  END
$$$$
