THE.pdb
     RDKit          3D

 27 27  0  0  1  0  0  0  0  0999 V2000
   10.8252  -20.8296   18.3665 C   0  0  0  0  0  0  0  0  0  0  0  0
   11.3017  -19.9154   17.2685 C   0  0  1  0  0  0  0  0  0  0  0  0
   11.1761  -20.6396   16.0601 O   0  0  0  0  0  0  0  0  0  0  0  0
   10.4473  -18.6897   17.1188 C   0  0  2  0  0  0  0  0  0  0  0  0
   10.6669  -17.9557   15.9200 N   0  0  0  0  0  0  0  0  0  0  0  0
   10.7381  -17.8119   18.2993 C   0  0  0  0  0  0  0  0  0  0  0  0
   11.8972  -17.3374   18.4002 O   0  0  0  0  0  0  0  0  0  0  0  0
    9.7421  -17.5344   19.2560 N   0  0  0  0  0  0  0  0  0  0  0  0
    9.9198  -16.7274   20.4161 C   0  0  1  0  0  0  0  0  0  0  0  0
    8.6448  -16.2621   21.0454 C   0  0  0  0  0  0  0  0  0  0  0  0
    8.1356  -15.0369   20.3573 C   0  0  0  0  0  0  0  0  0  0  0  0
    8.7538  -14.3260   19.3671 C   0  0  0  0  0  0  0  0  0  0  0  0
    7.9469  -13.3057   19.0417 N   0  0  0  0  0  0  0  0  0  0  0  0
    6.8444  -13.3617   19.8013 C   0  0  0  0  0  0  0  0  0  0  0  0
    6.9710  -14.4290   20.6058 N   0  0  0  0  0  0  0  0  0  0  0  0
   10.8524  -17.3575   21.4153 C   0  0  0  0  0  0  0  0  0  0  0  0
   10.9006  -18.5828   21.5914 O   0  0  0  0  0  0  0  0  0  0  0  0
   11.7245  -16.5346   22.2018 N   0  0  0  0  0  0  0  0  0  0  0  0
   12.7464  -17.1200   23.0541 C   0  0  1  0  0  0  0  0  0  0  0  0
   14.0137  -16.3408   22.7691 C   0  0  0  0  0  0  0  0  0  0  0  0
   15.1843  -16.7814   23.5820 C   0  0  0  0  0  0  0  0  0  0  0  0
   16.4200  -16.0386   23.3351 C   0  0  0  0  0  0  0  0  0  0  0  0
   17.0867  -15.6899   24.3669 O   0  0  0  0  0  0  0  0  0  0  0  0
   12.3118  -16.9841   24.4522 C   0  0  0  0  0  0  0  0  0  0  0  0
   11.4081  -16.1767   24.7454 O   0  0  0  0  0  0  0  0  0  0  0  0
   16.9378  -15.6777   22.1232 O   0  0  0  0  0  0  0  0  0  0  0  0
   12.8942  -17.7404   25.4384 O   0  0  0  0  0  0  0  0  0  0  0  0
  2  1  1  1
  2  4  1  0
  3  2  1  0
  4  5  1  6
  6  4  1  0
  6  7  2  0
  8  6  1  0
  9  8  1  0
  9 10  1  1
 11 15  1  0
 11 10  1  0
 12 11  2  0
 13 12  1  0
 13 14  1  0
 14 15  2  0
 16  9  1  0
 17 16  2  0
 18 16  1  0
 19 18  1  0
 20 21  1  0
 19 20  1  1
 22 26  1  0
 22 21  1  0
 23 22  2  0
 24 27  1  0
 24 19  1  0
 25 24  2  0
M  END
$$$$
