THE.pdb
     RDKit          3D

 27 27  0  0  1  0  0  0  0  0999 V2000
    7.3348  -12.2654   19.7402 C   0  0  0  0  0  0  0  0  0  0  0  0
    8.1549  -13.4696   20.1218 C   0  0  1  0  0  0  0  0  0  0  0  0
    8.1625  -13.5188   21.5354 O   0  0  0  0  0  0  0  0  0  0  0  0
    7.5460  -14.7608   19.6561 C   0  0  2  0  0  0  0  0  0  0  0  0
    6.1944  -14.9575   20.0547 N   0  0  0  0  0  0  0  0  0  0  0  0
    8.3939  -15.8653   20.2125 C   0  0  0  0  0  0  0  0  0  0  0  0
    7.9023  -16.5716   21.1282 O   0  0  0  0  0  0  0  0  0  0  0  0
    9.6936  -16.0960   19.7208 N   0  0  0  0  0  0  0  0  0  0  0  0
   10.5868  -17.0972   20.1988 C   0  0  1  0  0  0  0  0  0  0  0  0
   11.2602  -17.8885   19.1223 C   0  0  0  0  0  0  0  0  0  0  0  0
   10.2725  -18.7571   18.4126 C   0  0  0  0  0  0  0  0  0  0  0  0
    9.7112  -19.9167   18.8691 C   0  0  0  0  0  0  0  0  0  0  0  0
    8.8838  -20.3654   17.9142 N   0  0  0  0  0  0  0  0  0  0  0  0
    8.9143  -19.5179   16.8765 C   0  0  0  0  0  0  0  0  0  0  0  0
    9.7706  -18.5337   17.1936 N   0  0  0  0  0  0  0  0  0  0  0  0
   11.5652  -16.5583   21.2075 C   0  0  0  0  0  0  0  0  0  0  0  0
   12.3738  -15.6620   20.9287 O   0  0  0  0  0  0  0  0  0  0  0  0
   11.5823  -17.0821   22.5422 N   0  0  0  0  0  0  0  0  0  0  0  0
   12.4548  -16.5206   23.5604 C   0  0  1  0  0  0  0  0  0  0  0  0
   11.8916  -16.9886   24.8864 C   0  0  0  0  0  0  0  0  0  0  0  0
   11.8410  -18.4729   25.0261 C   0  0  0  0  0  0  0  0  0  0  0  0
   11.5265  -18.9545   26.3711 C   0  0  0  0  0  0  0  0  0  0  0  0
   10.5137  -18.4240   26.9399 O   0  0  0  0  0  0  0  0  0  0  0  0
   13.8170  -17.0220   23.3259 C   0  0  0  0  0  0  0  0  0  0  0  0
   13.9965  -18.0049   22.5800 O   0  0  0  0  0  0  0  0  0  0  0  0
   12.1970  -19.9081   27.0839 O   0  0  0  0  0  0  0  0  0  0  0  0
   14.8939  -16.4155   23.9226 O   0  0  0  0  0  0  0  0  0  0  0  0
  2  1  1  1
  2  4  1  0
  3  2  1  0
  4  5  1  1
  6  4  1  0
  6  7  2  0
  8  6  1  0
  9  8  1  0
  9 10  1  6
 11 15  1  0
 11 10  1  0
 12 11  2  0
 13 12  1  0
 13 14  1  0
 14 15  2  0
 16  9  1  0
 17 16  2  0
 18 16  1  0
 19 18  1  0
 20 21  1  0
 19 20  1  1
 22 26  1  0
 22 21  1  0
 23 22  2  0
 24 27  1  0
 24 19  1  0
 25 24  2  0
M  END
$$$$
