THE.pdb
     RDKit          3D

 27 27  0  0  1  0  0  0  0  0999 V2000
    7.7278  -11.9095   19.4015 C   0  0  0  0  0  0  0  0  0  0  0  0
    8.7583  -13.0052   19.4791 C   0  0  1  0  0  0  0  0  0  0  0  0
    8.3084  -13.9103   20.4686 O   0  0  0  0  0  0  0  0  0  0  0  0
    8.8698  -13.7916   18.2047 C   0  0  2  0  0  0  0  0  0  0  0  0
    7.6435  -14.3406   17.7366 N   0  0  0  0  0  0  0  0  0  0  0  0
    9.8442  -14.9015   18.4643 C   0  0  0  0  0  0  0  0  0  0  0  0
    9.3765  -16.0266   18.7715 O   0  0  0  0  0  0  0  0  0  0  0  0
   11.2321  -14.6822   18.3652 N   0  0  0  0  0  0  0  0  0  0  0  0
   12.2399  -15.6174   18.7376 C   0  0  1  0  0  0  0  0  0  0  0  0
   13.2300  -15.9204   17.6577 C   0  0  0  0  0  0  0  0  0  0  0  0
   14.3781  -14.9652   17.7143 C   0  0  0  0  0  0  0  0  0  0  0  0
   14.3451  -13.6167   17.4938 C   0  0  0  0  0  0  0  0  0  0  0  0
   15.5943  -13.1541   17.6471 N   0  0  0  0  0  0  0  0  0  0  0  0
   16.4035  -14.1765   17.9567 C   0  0  0  0  0  0  0  0  0  0  0  0
   15.6458  -15.2841   17.9953 N   0  0  0  0  0  0  0  0  0  0  0  0
   12.9064  -15.2547   20.0373 C   0  0  0  0  0  0  0  0  0  0  0  0
   13.0815  -14.0779   20.3831 O   0  0  0  0  0  0  0  0  0  0  0  0
   13.3628  -16.2862   20.9227 N   0  0  0  0  0  0  0  0  0  0  0  0
   13.7851  -15.9813   22.2799 C   0  0  1  0  0  0  0  0  0  0  0  0
   13.1082  -17.0109   23.1609 C   0  0  0  0  0  0  0  0  0  0  0  0
   13.4530  -16.8829   24.6065 C   0  0  0  0  0  0  0  0  0  0  0  0
   12.8272  -17.8763   25.4791 C   0  0  0  0  0  0  0  0  0  0  0  0
   13.1230  -17.8067   26.7195 O   0  0  0  0  0  0  0  0  0  0  0  0
   15.2513  -16.0769   22.3373 C   0  0  0  0  0  0  0  0  0  0  0  0
   15.8785  -15.4673   23.2260 O   0  0  0  0  0  0  0  0  0  0  0  0
   11.9624  -18.8685   25.1126 O   0  0  0  0  0  0  0  0  0  0  0  0
   15.9357  -16.8330   21.4189 O   0  0  0  0  0  0  0  0  0  0  0  0
  2  1  1  6
  2  4  1  0
  3  2  1  0
  4  5  1  1
  6  4  1  0
  6  7  2  0
  8  6  1  0
  9  8  1  0
  9 10  1  6
 11 15  1  0
 11 10  1  0
 12 11  2  0
 13 12  1  0
 13 14  1  0
 14 15  2  0
 16  9  1  0
 17 16  2  0
 18 16  1  0
 19 18  1  0
 20 21  1  0
 19 20  1  1
 22 26  1  0
 22 21  1  0
 23 22  2  0
 24 27  1  0
 24 19  1  0
 25 24  2  0
M  END
$$$$
