THE.pdb
     RDKit          3D

 27 27  0  0  1  0  0  0  0  0999 V2000
   14.4892  -16.8691   16.4012 C   0  0  0  0  0  0  0  0  0  0  0  0
   13.7491  -16.4851   17.6554 C   0  0  1  0  0  0  0  0  0  0  0  0
   14.7232  -16.3542   18.6726 O   0  0  0  0  0  0  0  0  0  0  0  0
   13.0692  -15.1508   17.5455 C   0  0  2  0  0  0  0  0  0  0  0  0
   13.9343  -14.0686   17.2216 N   0  0  0  0  0  0  0  0  0  0  0  0
   12.4170  -14.8863   18.8696 C   0  0  0  0  0  0  0  0  0  0  0  0
   13.0548  -14.1983   19.7055 O   0  0  0  0  0  0  0  0  0  0  0  0
   11.1353  -15.3947   19.1579 N   0  0  0  0  0  0  0  0  0  0  0  0
   10.4612  -15.2631   20.4057 C   0  0  1  0  0  0  0  0  0  0  0  0
    8.9686  -15.2543   20.3029 C   0  0  0  0  0  0  0  0  0  0  0  0
    8.5184  -14.2659   19.2763 C   0  0  0  0  0  0  0  0  0  0  0  0
    8.3457  -12.9203   19.4420 C   0  0  0  0  0  0  0  0  0  0  0  0
    7.9336  -12.4207   18.2679 N   0  0  0  0  0  0  0  0  0  0  0  0
    7.8450  -13.4173   17.3764 C   0  0  0  0  0  0  0  0  0  0  0  0
    8.2065  -14.5463   18.0067 N   0  0  0  0  0  0  0  0  0  0  0  0
   10.9566  -16.2468   21.4314 C   0  0  0  0  0  0  0  0  0  0  0  0
   10.8854  -17.4716   21.2593 O   0  0  0  0  0  0  0  0  0  0  0  0
   11.5346  -15.7768   22.6566 N   0  0  0  0  0  0  0  0  0  0  0  0
   12.0312  -16.7045   23.6596 C   0  0  1  0  0  0  0  0  0  0  0  0
   13.4212  -16.2188   24.0150 C   0  0  0  0  0  0  0  0  0  0  0  0
   14.4115  -16.3739   22.9103 C   0  0  0  0  0  0  0  0  0  0  0  0
   15.7908  -16.0445   23.2690 C   0  0  0  0  0  0  0  0  0  0  0  0
   16.2169  -14.9020   22.8899 O   0  0  0  0  0  0  0  0  0  0  0  0
   11.1174  -16.6687   24.8111 C   0  0  0  0  0  0  0  0  0  0  0  0
   10.2100  -15.8149   24.8569 O   0  0  0  0  0  0  0  0  0  0  0  0
   16.6715  -16.8245   23.9640 O   0  0  0  0  0  0  0  0  0  0  0  0
   11.2561  -17.5694   25.8375 O   0  0  0  0  0  0  0  0  0  0  0  0
  2  1  1  6
  2  4  1  0
  3  2  1  0
  4  5  1  1
  6  4  1  0
  6  7  2  0
  8  6  1  0
  9  8  1  0
  9 10  1  6
 11 15  1  0
 11 10  1  0
 12 11  2  0
 13 12  1  0
 13 14  1  0
 14 15  2  0
 16  9  1  0
 17 16  2  0
 18 16  1  0
 19 18  1  0
 20 21  1  0
 19 20  1  1
 22 26  1  0
 22 21  1  0
 23 22  2  0
 24 27  1  0
 24 19  1  0
 25 24  2  0
M  END
$$$$
