THE.pdb
     RDKit          3D

 27 27  0  0  1  0  0  0  0  0999 V2000
   14.7043  -16.5377   16.5554 C   0  0  0  0  0  0  0  0  0  0  0  0
   13.9088  -16.2605   17.8039 C   0  0  1  0  0  0  0  0  0  0  0  0
   14.8458  -16.1211   18.8543 O   0  0  0  0  0  0  0  0  0  0  0  0
   13.1515  -14.9656   17.7369 C   0  0  2  0  0  0  0  0  0  0  0  0
   13.9540  -13.8216   17.4694 N   0  0  0  0  0  0  0  0  0  0  0  0
   12.4678  -14.7945   19.0605 C   0  0  0  0  0  0  0  0  0  0  0  0
   13.0494  -14.0990   19.9305 O   0  0  0  0  0  0  0  0  0  0  0  0
   11.2186  -15.3953   19.3113 N   0  0  0  0  0  0  0  0  0  0  0  0
   10.5149  -15.3410   20.5485 C   0  0  1  0  0  0  0  0  0  0  0  0
    9.0268  -15.4221   20.4161 C   0  0  0  0  0  0  0  0  0  0  0  0
    8.5298  -14.4051   19.4403 C   0  0  0  0  0  0  0  0  0  0  0  0
    8.2175  -13.0986   19.6927 C   0  0  0  0  0  0  0  0  0  0  0  0
    7.8136  -12.5518   18.5370 N   0  0  0  0  0  0  0  0  0  0  0  0
    7.8657  -13.4809   17.5727 C   0  0  0  0  0  0  0  0  0  0  0  0
    8.3070  -14.6155   18.1388 N   0  0  0  0  0  0  0  0  0  0  0  0
   11.0521  -16.3205   21.5570 C   0  0  0  0  0  0  0  0  0  0  0  0
   10.8852  -17.5428   21.4434 O   0  0  0  0  0  0  0  0  0  0  0  0
   11.7851  -15.8492   22.6958 N   0  0  0  0  0  0  0  0  0  0  0  0
   12.3073  -16.7724   23.6900 C   0  0  1  0  0  0  0  0  0  0  0  0
   13.6710  -16.2351   24.0721 C   0  0  0  0  0  0  0  0  0  0  0  0
   14.6824  -16.3343   22.9801 C   0  0  0  0  0  0  0  0  0  0  0  0
   16.0268  -15.8866   23.3433 C   0  0  0  0  0  0  0  0  0  0  0  0
   16.5522  -16.4438   24.3652 O   0  0  0  0  0  0  0  0  0  0  0  0
   11.3782  -16.7945   24.8294 C   0  0  0  0  0  0  0  0  0  0  0  0
   10.4700  -15.9437   24.9061 O   0  0  0  0  0  0  0  0  0  0  0  0
   16.7802  -14.9391   22.7098 O   0  0  0  0  0  0  0  0  0  0  0  0
   11.5034  -17.7460   25.8107 O   0  0  0  0  0  0  0  0  0  0  0  0
  2  1  1  6
  2  4  1  0
  3  2  1  0
  4  5  1  1
  6  4  1  0
  6  7  2  0
  8  6  1  0
  9  8  1  0
  9 10  1  6
 11 15  1  0
 11 10  1  0
 12 11  2  0
 13 12  1  0
 13 14  1  0
 14 15  2  0
 16  9  1  0
 17 16  2  0
 18 16  1  0
 19 18  1  0
 20 21  1  0
 19 20  1  1
 22 26  1  0
 22 21  1  0
 23 22  2  0
 24 27  1  0
 24 19  1  0
 25 24  2  0
M  END
$$$$
