THE.pdb
     RDKit          3D

 27 27  0  0  1  0  0  0  0  0999 V2000
   10.0020  -20.3175   16.7673 C   0  0  0  0  0  0  0  0  0  0  0  0
   10.2623  -19.3764   17.9141 C   0  0  1  0  0  0  0  0  0  0  0  0
   11.6220  -19.5404   18.2675 O   0  0  0  0  0  0  0  0  0  0  0  0
   10.0944  -17.9336   17.5335 C   0  0  2  0  0  0  0  0  0  0  0  0
   10.9141  -17.5056   16.4522 N   0  0  0  0  0  0  0  0  0  0  0  0
   10.4177  -17.1233   18.7531 C   0  0  0  0  0  0  0  0  0  0  0  0
   11.6209  -16.8169   18.9463 O   0  0  0  0  0  0  0  0  0  0  0  0
    9.4031  -16.7241   19.6450 N   0  0  0  0  0  0  0  0  0  0  0  0
    9.5987  -15.9220   20.8056 C   0  0  1  0  0  0  0  0  0  0  0  0
    8.3772  -15.1885   21.2621 C   0  0  0  0  0  0  0  0  0  0  0  0
    7.8629  -14.2981   20.1775 C   0  0  0  0  0  0  0  0  0  0  0  0
    8.1991  -12.9933   19.9482 C   0  0  0  0  0  0  0  0  0  0  0  0
    7.5049  -12.5820   18.8773 N   0  0  0  0  0  0  0  0  0  0  0  0
    6.7463  -13.5939   18.4338 C   0  0  0  0  0  0  0  0  0  0  0  0
    6.9742  -14.6430   19.2399 N   0  0  0  0  0  0  0  0  0  0  0  0
   10.2583  -16.6831   21.9240 C   0  0  0  0  0  0  0  0  0  0  0  0
    9.8370  -17.7814   22.3128 O   0  0  0  0  0  0  0  0  0  0  0  0
   11.4141  -16.1414   22.5774 N   0  0  0  0  0  0  0  0  0  0  0  0
   12.1875  -16.9340   23.5191 C   0  0  1  0  0  0  0  0  0  0  0  0
   13.6130  -16.4357   23.4007 C   0  0  0  0  0  0  0  0  0  0  0  0
   14.5561  -17.0827   24.3584 C   0  0  0  0  0  0  0  0  0  0  0  0
   15.9462  -16.6412   24.2469 C   0  0  0  0  0  0  0  0  0  0  0  0
   16.8405  -17.5225   24.4801 O   0  0  0  0  0  0  0  0  0  0  0  0
   11.6327  -16.7202   24.8640 C   0  0  0  0  0  0  0  0  0  0  0  0
   10.9088  -15.7298   25.0863 O   0  0  0  0  0  0  0  0  0  0  0  0
   16.3914  -15.3911   23.9213 O   0  0  0  0  0  0  0  0  0  0  0  0
   11.9063  -17.6039   25.8779 O   0  0  0  0  0  0  0  0  0  0  0  0
  2  1  1  6
  2  4  1  0
  3  2  1  0
  4  5  1  6
  6  4  1  0
  6  7  2  0
  8  6  1  0
  9  8  1  0
  9 10  1  1
 11 15  1  0
 11 10  1  0
 12 11  2  0
 13 12  1  0
 13 14  1  0
 14 15  2  0
 16  9  1  0
 17 16  2  0
 18 16  1  0
 19 18  1  0
 20 21  1  0
 19 20  1  1
 22 26  1  0
 22 21  1  0
 23 22  2  0
 24 27  1  0
 24 19  1  0
 25 24  2  0
M  END
$$$$
