THE.pdb
     RDKit          3D

 27 27  0  0  1  0  0  0  0  0999 V2000
    8.5513  -16.4672   17.5710 C   0  0  0  0  0  0  0  0  0  0  0  0
    8.9836  -15.0620   17.2440 C   0  0  1  0  0  0  0  0  0  0  0  0
    8.7000  -14.8635   15.8725 O   0  0  0  0  0  0  0  0  0  0  0  0
    8.2011  -14.0223   17.9933 C   0  0  2  0  0  0  0  0  0  0  0  0
    8.3482  -12.6968   17.4974 N   0  0  0  0  0  0  0  0  0  0  0  0
    8.6652  -14.0740   19.4182 C   0  0  0  0  0  0  0  0  0  0  0  0
    9.7778  -13.5556   19.6872 O   0  0  0  0  0  0  0  0  0  0  0  0
    7.8763  -14.6838   20.4132 N   0  0  0  0  0  0  0  0  0  0  0  0
    8.2712  -14.8824   21.7672 C   0  0  1  0  0  0  0  0  0  0  0  0
    7.1391  -15.1553   22.7066 C   0  0  0  0  0  0  0  0  0  0  0  0
    6.4035  -16.3905   22.2982 C   0  0  0  0  0  0  0  0  0  0  0  0
    6.5812  -17.1208   21.1567 C   0  0  0  0  0  0  0  0  0  0  0  0
    5.7152  -18.1438   21.1956 N   0  0  0  0  0  0  0  0  0  0  0  0
    5.0037  -18.0705   22.3289 C   0  0  0  0  0  0  0  0  0  0  0  0
    5.4348  -16.9897   22.9985 N   0  0  0  0  0  0  0  0  0  0  0  0
    9.3782  -15.8934   21.8991 C   0  0  0  0  0  0  0  0  0  0  0  0
    9.5289  -16.8164   21.0867 O   0  0  0  0  0  0  0  0  0  0  0  0
   10.3027  -15.8075   22.9920 N   0  0  0  0  0  0  0  0  0  0  0  0
   11.3604  -16.7901   23.1625 C   0  0  1  0  0  0  0  0  0  0  0  0
   12.6572  -16.0383   22.9444 C   0  0  0  0  0  0  0  0  0  0  0  0
   13.8749  -16.8872   23.0928 C   0  0  0  0  0  0  0  0  0  0  0  0
   15.1381  -16.2073   22.8071 C   0  0  0  0  0  0  0  0  0  0  0  0
   15.9857  -16.1631   23.7612 O   0  0  0  0  0  0  0  0  0  0  0  0
   11.2592  -17.3432   24.5211 C   0  0  0  0  0  0  0  0  0  0  0  0
   11.9124  -18.3601   24.8273 O   0  0  0  0  0  0  0  0  0  0  0  0
   15.5095  -15.6154   21.6329 O   0  0  0  0  0  0  0  0  0  0  0  0
   10.4499  -16.7478   25.4561 O   0  0  0  0  0  0  0  0  0  0  0  0
  2  1  1  1
  2  4  1  0
  3  2  1  0
  4  5  1  6
  6  4  1  0
  6  7  2  0
  8  6  1  0
  9  8  1  0
  9 10  1  1
 11 15  1  0
 11 10  1  0
 12 11  2  0
 13 12  1  0
 13 14  1  0
 14 15  2  0
 16  9  1  0
 17 16  2  0
 18 16  1  0
 19 18  1  0
 20 21  1  0
 19 20  1  1
 22 26  1  0
 22 21  1  0
 23 22  2  0
 24 27  1  0
 24 19  1  0
 25 24  2  0
M  END
$$$$
