THE.pdb
     RDKit          3D

 27 27  0  0  1  0  0  0  0  0999 V2000
    8.4402  -18.8716   19.3060 C   0  0  0  0  0  0  0  0  0  0  0  0
    8.6094  -18.0225   20.5384 C   0  0  1  0  0  0  0  0  0  0  0  0
    9.8194  -18.4322   21.1454 O   0  0  0  0  0  0  0  0  0  0  0  0
    8.7664  -16.5627   20.2232 C   0  0  2  0  0  0  0  0  0  0  0  0
    9.8394  -16.2582   19.3398 N   0  0  0  0  0  0  0  0  0  0  0  0
    8.9829  -15.8583   21.5292 C   0  0  0  0  0  0  0  0  0  0  0  0
   10.1680  -15.6212   21.8732 O   0  0  0  0  0  0  0  0  0  0  0  0
    7.8915  -15.4795   22.3352 N   0  0  0  0  0  0  0  0  0  0  0  0
    7.9910  -14.8773   23.6222 C   0  0  1  0  0  0  0  0  0  0  0  0
    6.7414  -14.1957   24.0829 C   0  0  0  0  0  0  0  0  0  0  0  0
    6.9465  -13.5744   25.4266 C   0  0  0  0  0  0  0  0  0  0  0  0
    6.2218  -13.8010   26.5631 C   0  0  0  0  0  0  0  0  0  0  0  0
    6.7462  -13.0375   27.5326 N   0  0  0  0  0  0  0  0  0  0  0  0
    7.7766  -12.3424   27.0316 C   0  0  0  0  0  0  0  0  0  0  0  0
    7.8906  -12.6800   25.7372 N   0  0  0  0  0  0  0  0  0  0  0  0
    8.5398  -15.8228   24.6566 C   0  0  0  0  0  0  0  0  0  0  0  0
    7.9724  -16.8853   24.9463 O   0  0  0  0  0  0  0  0  0  0  0  0
    9.7581  -15.5069   25.3438 N   0  0  0  0  0  0  0  0  0  0  0  0
   10.3535  -16.4385   26.2877 C   0  0  1  0  0  0  0  0  0  0  0  0
   11.8410  -16.4163   26.0025 C   0  0  0  0  0  0  0  0  0  0  0  0
   12.2194  -17.1077   24.7360 C   0  0  0  0  0  0  0  0  0  0  0  0
   13.6568  -17.1648   24.4713 C   0  0  0  0  0  0  0  0  0  0  0  0
   14.0605  -18.1337   23.7438 O   0  0  0  0  0  0  0  0  0  0  0  0
   10.0405  -15.9772   27.6483 C   0  0  0  0  0  0  0  0  0  0  0  0
    9.5462  -14.8457   27.8215 O   0  0  0  0  0  0  0  0  0  0  0  0
   14.6131  -16.2964   24.9167 O   0  0  0  0  0  0  0  0  0  0  0  0
   10.2887  -16.7838   28.7307 O   0  0  0  0  0  0  0  0  0  0  0  0
  2  1  1  6
  2  4  1  0
  3  2  1  0
  4  5  1  6
  6  4  1  0
  6  7  2  0
  8  6  1  0
  9  8  1  0
  9 10  1  1
 11 15  1  0
 11 10  1  0
 12 11  2  0
 13 12  1  0
 13 14  1  0
 14 15  2  0
 16  9  1  0
 17 16  2  0
 18 16  1  0
 19 18  1  0
 20 21  1  0
 19 20  1  1
 22 26  1  0
 22 21  1  0
 23 22  2  0
 24 27  1  0
 24 19  1  0
 25 24  2  0
M  END
$$$$
