ANR.pdb
     RDKit          3D

 25 24  0  0  1  0  0  0  0  0999 V2000
    8.5909  -18.8759   17.1640 C   0  0  0  0  0  0  0  0  0  0  0  0
    8.2589  -18.4922   18.5845 C   0  0  2  0  0  0  0  0  0  0  0  0
    6.8208  -18.4277   18.7983 N   0  0  0  0  0  0  0  0  0  0  0  0
    8.8908  -17.1770   18.9069 C   0  0  0  0  0  0  0  0  0  0  0  0
   10.1424  -17.0803   18.8353 O   0  0  0  0  0  0  0  0  0  0  0  0
    9.0648  -14.1677   16.9118 N   0  0  0  0  0  0  0  0  0  0  0  0
    8.1498  -13.3890   17.6516 C   0  0  0  0  0  0  0  0  0  0  0  0
    7.4758  -12.5189   17.0667 O   0  0  0  0  0  0  0  0  0  0  0  0
    7.9995  -13.6060   19.0876 C   0  0  0  0  0  0  0  0  0  0  0  0
    8.7843  -14.7824   19.6060 C   0  0  2  0  0  0  0  0  0  0  0  0
    8.1497  -16.0442   19.2863 N   0  0  0  0  0  0  0  0  0  0  0  0
    8.8406  -14.6408   21.0903 C   0  0  0  0  0  0  0  0  0  0  0  0
    7.8613  -14.1226   21.6975 O   0  0  0  0  0  0  0  0  0  0  0  0
    6.7265  -20.7526   25.3134 N   0  0  0  0  0  0  0  0  0  0  0  0
    7.1805  -19.9942   26.4123 C   0  0  0  0  0  0  0  0  0  0  0  0
    7.0038  -20.3517   27.6433 N   0  0  0  0  0  0  0  0  0  0  0  0
    7.8771  -18.7585   26.1856 N   0  0  0  0  0  0  0  0  0  0  0  0
    7.9675  -18.2574   24.8389 C   0  0  0  0  0  0  0  0  0  0  0  0
    8.8036  -16.9826   24.8452 C   0  0  0  0  0  0  0  0  0  0  0  0
    8.9486  -16.4964   23.4478 C   0  0  0  0  0  0  0  0  0  0  0  0
    9.8056  -15.2745   23.3130 C   0  0  2  0  0  0  0  0  0  0  0  0
    9.9340  -15.0559   21.8610 N   0  0  0  0  0  0  0  0  0  0  0  0
   11.1220  -15.5064   23.9103 C   0  0  0  0  0  0  0  0  0  0  0  0
   12.2666  -15.6369   23.1610 O   0  0  0  0  0  0  0  0  0  0  0  0
   11.2490  -15.5990   25.1786 O   0  0  0  0  0  0  0  0  0  0  0  0
  2  1  1  6
  2  3  1  0
  4  2  1  0
  5  4  2  0
  6  7  1  0
  7  9  1  0
  8  7  2  0
 10  9  1  6
 10 11  1  0
 11  4  1  0
 12 10  1  0
 12 22  1  0
 13 12  2  0
 15 16  2  0
 15 14  1  0
 17 15  1  0
 18 17  1  0
 19 18  1  0
 21 20  1  6
 20 19  1  0
 21 22  1  0
 21 23  1  0
 23 24  1  0
 25 23  2  0
M  END
$$$$
