ANR.pdb
     RDKit          3D

 25 24  0  0  1  0  0  0  0  0999 V2000
   12.4950  -22.2426   22.1659 C   0  0  0  0  0  0  0  0  0  0  0  0
   11.8202  -21.8497   23.4564 C   0  0  2  0  0  0  0  0  0  0  0  0
   11.4676  -20.4377   23.4665 N   0  0  0  0  0  0  0  0  0  0  0  0
   12.7192  -22.1680   24.6069 C   0  0  0  0  0  0  0  0  0  0  0  0
   13.0741  -23.3622   24.7769 O   0  0  0  0  0  0  0  0  0  0  0  0
   16.9578  -20.2257   28.2381 N   0  0  0  0  0  0  0  0  0  0  0  0
   16.4111  -21.2491   27.4354 C   0  0  0  0  0  0  0  0  0  0  0  0
   16.7491  -22.4314   27.6392 O   0  0  0  0  0  0  0  0  0  0  0  0
   15.4595  -20.9190   26.3783 C   0  0  0  0  0  0  0  0  0  0  0  0
   14.0931  -21.5172   26.5875 C   0  0  2  0  0  0  0  0  0  0  0  0
   13.1854  -21.1935   25.5066 N   0  0  0  0  0  0  0  0  0  0  0  0
   13.5566  -20.9316   27.8507 C   0  0  0  0  0  0  0  0  0  0  0  0
   13.0647  -19.7681   27.8303 O   0  0  0  0  0  0  0  0  0  0  0  0
   11.1058  -26.3578   33.6408 N   0  0  0  0  0  0  0  0  0  0  0  0
   10.4478  -26.2673   32.3967 C   0  0  0  0  0  0  0  0  0  0  0  0
    9.5483  -27.1115   32.0060 N   0  0  0  0  0  0  0  0  0  0  0  0
   10.7708  -25.1953   31.4966 N   0  0  0  0  0  0  0  0  0  0  0  0
   11.6780  -24.1711   31.9449 C   0  0  0  0  0  0  0  0  0  0  0  0
   11.9585  -23.2226   30.7848 C   0  0  0  0  0  0  0  0  0  0  0  0
   12.8471  -22.1303   31.2616 C   0  0  0  0  0  0  0  0  0  0  0  0
   12.9968  -20.9982   30.2911 C   0  0  2  0  0  0  0  0  0  0  0  0
   13.5673  -21.6086   29.0769 N   0  0  0  0  0  0  0  0  0  0  0  0
   13.9075  -19.9846   30.8264 C   0  0  0  0  0  0  0  0  0  0  0  0
   13.5587  -19.1375   31.8509 O   0  0  0  0  0  0  0  0  0  0  0  0
   15.0831  -19.8522   30.3431 O   0  0  0  0  0  0  0  0  0  0  0  0
  2  1  1  6
  2  3  1  0
  4  2  1  0
  5  4  2  0
  6  7  1  0
  7  9  1  0
  8  7  2  0
 10  9  1  6
 10 11  1  0
 11  4  1  0
 12 10  1  0
 12 22  1  0
 13 12  2  0
 15 16  2  0
 15 14  1  0
 17 15  1  0
 18 17  1  0
 19 18  1  0
 21 20  1  1
 20 19  1  0
 21 22  1  0
 21 23  1  0
 23 24  1  0
 25 23  2  0
M  END
$$$$
