ANR.pdb
     RDKit          3D

 25 24  0  0  1  0  0  0  0  0999 V2000
    8.2136  -20.3435   18.7207 C   0  0  0  0  0  0  0  0  0  0  0  0
    8.3361  -18.9563   19.3002 C   0  0  2  0  0  0  0  0  0  0  0  0
    8.3312  -17.9398   18.2586 N   0  0  0  0  0  0  0  0  0  0  0  0
    9.5882  -18.8626   20.1105 C   0  0  0  0  0  0  0  0  0  0  0  0
    9.7518  -19.6751   21.0560 O   0  0  0  0  0  0  0  0  0  0  0  0
   14.9858  -18.2345   20.8340 N   0  0  0  0  0  0  0  0  0  0  0  0
   14.1652  -17.0954   20.6932 C   0  0  0  0  0  0  0  0  0  0  0  0
   14.5077  -16.0256   21.2334 O   0  0  0  0  0  0  0  0  0  0  0  0
   12.9287  -17.1766   19.9209 C   0  0  0  0  0  0  0  0  0  0  0  0
   11.7952  -17.8341   20.6634 C   0  0  2  0  0  0  0  0  0  0  0  0
   10.5903  -17.9080   19.8635 N   0  0  0  0  0  0  0  0  0  0  0  0
   11.5194  -16.9893   21.8620 C   0  0  0  0  0  0  0  0  0  0  0  0
   12.4891  -16.5011   22.5081 O   0  0  0  0  0  0  0  0  0  0  0  0
    9.3215  -14.2466   18.2924 N   0  0  0  0  0  0  0  0  0  0  0  0
    8.1719  -13.5927   18.7821 C   0  0  0  0  0  0  0  0  0  0  0  0
    7.5978  -12.6096   18.1669 N   0  0  0  0  0  0  0  0  0  0  0  0
    7.5860  -14.0165   20.0233 N   0  0  0  0  0  0  0  0  0  0  0  0
    8.3395  -14.9025   20.8720 C   0  0  0  0  0  0  0  0  0  0  0  0
    8.5834  -14.2112   22.2087 C   0  0  0  0  0  0  0  0  0  0  0  0
    8.6426  -15.2417   23.2786 C   0  0  0  0  0  0  0  0  0  0  0  0
   10.0058  -15.8287   23.4854 C   0  0  2  0  0  0  0  0  0  0  0  0
   10.2269  -16.7021   22.3188 N   0  0  0  0  0  0  0  0  0  0  0  0
   10.0413  -16.6129   24.7212 C   0  0  0  0  0  0  0  0  0  0  0  0
   10.1604  -16.0382   25.9640 O   0  0  0  0  0  0  0  0  0  0  0  0
    9.9630  -17.8878   24.6802 O   0  0  0  0  0  0  0  0  0  0  0  0
  2  1  1  6
  2  3  1  0
  4  2  1  0
  5  4  2  0
  6  7  1  0
  7  9  1  0
  8  7  2  0
 10  9  1  6
 10 11  1  0
 11  4  1  0
 12 10  1  0
 12 22  1  0
 13 12  2  0
 15 16  2  0
 15 14  1  0
 17 15  1  0
 18 17  1  0
 19 18  1  0
 21 20  1  6
 20 19  1  0
 21 22  1  0
 21 23  1  0
 23 24  1  0
 25 23  2  0
M  END
$$$$
