ANR.pdb
     RDKit          3D

 25 24  0  0  1  0  0  0  0  0999 V2000
   10.0476  -16.8505   16.6548 C   0  0  0  0  0  0  0  0  0  0  0  0
    9.8171  -17.3889   18.0448 C   0  0  2  0  0  0  0  0  0  0  0  0
    8.4880  -17.9662   18.1806 N   0  0  0  0  0  0  0  0  0  0  0  0
   10.0114  -16.2938   19.0428 C   0  0  0  0  0  0  0  0  0  0  0  0
   11.1582  -15.7934   19.1672 O   0  0  0  0  0  0  0  0  0  0  0  0
    7.5630  -12.1490   19.0837 N   0  0  0  0  0  0  0  0  0  0  0  0
    7.5089  -13.4665   19.5855 C   0  0  0  0  0  0  0  0  0  0  0  0
    6.9757  -14.3599   18.8992 O   0  0  0  0  0  0  0  0  0  0  0  0
    8.0740  -13.7728   20.8966 C   0  0  0  0  0  0  0  0  0  0  0  0
    9.1946  -14.7782   20.8511 C   0  0  2  0  0  0  0  0  0  0  0  0
    8.9709  -15.7984   19.8480 N   0  0  0  0  0  0  0  0  0  0  0  0
    9.2403  -15.4313   22.1919 C   0  0  0  0  0  0  0  0  0  0  0  0
    8.1937  -15.9697   22.6512 O   0  0  0  0  0  0  0  0  0  0  0  0
    9.5743  -21.7690   23.3877 N   0  0  0  0  0  0  0  0  0  0  0  0
   10.9340  -22.1315   23.4813 C   0  0  0  0  0  0  0  0  0  0  0  0
   11.3511  -23.1564   24.1521 N   0  0  0  0  0  0  0  0  0  0  0  0
   11.9291  -21.3429   22.8093 N   0  0  0  0  0  0  0  0  0  0  0  0
   11.5352  -20.0824   22.2357 C   0  0  0  0  0  0  0  0  0  0  0  0
   11.3543  -19.0678   23.3591 C   0  0  0  0  0  0  0  0  0  0  0  0
   11.0068  -17.7502   22.7649 C   0  0  0  0  0  0  0  0  0  0  0  0
   10.7252  -16.6803   23.7758 C   0  0  2  0  0  0  0  0  0  0  0  0
   10.3952  -15.4825   22.9828 N   0  0  0  0  0  0  0  0  0  0  0  0
   11.9094  -16.4335   24.6005 C   0  0  0  0  0  0  0  0  0  0  0  0
   12.8704  -15.5101   24.2651 O   0  0  0  0  0  0  0  0  0  0  0  0
   12.0907  -17.0877   25.6833 O   0  0  0  0  0  0  0  0  0  0  0  0
  2  1  1  6
  2  3  1  0
  4  2  1  0
  5  4  2  0
  6  7  1  0
  7  9  1  0
  8  7  2  0
 10  9  1  1
 10 11  1  0
 11  4  1  0
 12 10  1  0
 12 22  1  0
 13 12  2  0
 15 16  2  0
 15 14  1  0
 17 15  1  0
 18 17  1  0
 19 18  1  0
 21 20  1  6
 20 19  1  0
 21 22  1  0
 21 23  1  0
 23 24  1  0
 25 23  2  0
M  END
$$$$
