ANR.pdb
     RDKit          3D

 25 24  0  0  1  0  0  0  0  0999 V2000
    8.0724  -15.0720   17.5352 C   0  0  0  0  0  0  0  0  0  0  0  0
    7.7726  -13.9671   18.5172 C   0  0  2  0  0  0  0  0  0  0  0  0
    8.2939  -12.6882   18.0582 N   0  0  0  0  0  0  0  0  0  0  0  0
    8.3505  -14.3142   19.8509 C   0  0  0  0  0  0  0  0  0  0  0  0
    8.7997  -13.3850   20.5691 O   0  0  0  0  0  0  0  0  0  0  0  0
    6.1827  -18.4977   23.4983 N   0  0  0  0  0  0  0  0  0  0  0  0
    6.5385  -17.1627   23.2124 C   0  0  0  0  0  0  0  0  0  0  0  0
    6.5863  -16.3315   24.1399 O   0  0  0  0  0  0  0  0  0  0  0  0
    6.8462  -16.7661   21.8413 C   0  0  0  0  0  0  0  0  0  0  0  0
    8.1101  -15.9566   21.7160 C   0  0  2  0  0  0  0  0  0  0  0  0
    8.4144  -15.6314   20.3381 N   0  0  0  0  0  0  0  0  0  0  0  0
    9.2150  -16.7981   22.2614 C   0  0  0  0  0  0  0  0  0  0  0  0
    9.2295  -17.0724   23.4946 O   0  0  0  0  0  0  0  0  0  0  0  0
   15.4401  -16.0403   17.9711 N   0  0  0  0  0  0  0  0  0  0  0  0
   15.2232  -14.6804   18.2753 C   0  0  0  0  0  0  0  0  0  0  0  0
   15.8295  -13.7115   17.6685 N   0  0  0  0  0  0  0  0  0  0  0  0
   14.2885  -14.3214   19.3053 N   0  0  0  0  0  0  0  0  0  0  0  0
   13.8717  -15.3350   20.2390 C   0  0  0  0  0  0  0  0  0  0  0  0
   12.9179  -14.7082   21.2498 C   0  0  0  0  0  0  0  0  0  0  0  0
   11.6054  -15.4010   21.1653 C   0  0  0  0  0  0  0  0  0  0  0  0
   11.6374  -16.8268   21.6256 C   0  0  2  0  0  0  0  0  0  0  0  0
   10.2532  -17.3092   21.4722 N   0  0  0  0  0  0  0  0  0  0  0  0
   12.0488  -16.9006   23.0288 C   0  0  0  0  0  0  0  0  0  0  0  0
   11.1519  -16.8708   24.0697 O   0  0  0  0  0  0  0  0  0  0  0  0
   13.2858  -16.9950   23.3355 O   0  0  0  0  0  0  0  0  0  0  0  0
  2  1  1  6
  2  3  1  0
  4  2  1  0
  5  4  2  0
  6  7  1  0
  7  9  1  0
  8  7  2  0
 10  9  1  6
 10 11  1  0
 11  4  1  0
 12 10  1  0
 12 22  1  0
 13 12  2  0
 15 16  2  0
 15 14  1  0
 17 15  1  0
 18 17  1  0
 19 18  1  0
 21 20  1  1
 20 19  1  0
 21 22  1  0
 21 23  1  0
 23 24  1  0
 25 23  2  0
M  END
$$$$
