ANR.pdb
     RDKit          3D

 25 24  0  0  1  0  0  0  0  0999 V2000
   -7.0055  -23.1472   20.7262 C   0  0  0  0  0  0  0  0  0  0  0  0
   -6.9385  -21.9723   21.6697 C   0  0  2  0  0  0  0  0  0  0  0  0
   -8.1116  -21.9094   22.5289 N   0  0  0  0  0  0  0  0  0  0  0  0
   -6.8026  -20.7083   20.8842 C   0  0  0  0  0  0  0  0  0  0  0  0
   -5.6965  -20.1106   20.8981 O   0  0  0  0  0  0  0  0  0  0  0  0
   -7.2492  -18.9776   15.7724 N   0  0  0  0  0  0  0  0  0  0  0  0
   -7.3766  -19.5561   17.0529 C   0  0  0  0  0  0  0  0  0  0  0  0
   -6.7042  -20.5667   17.3361 O   0  0  0  0  0  0  0  0  0  0  0  0
   -8.2890  -18.9713   18.0314 C   0  0  0  0  0  0  0  0  0  0  0  0
   -7.7181  -18.9022   19.4234 C   0  0  2  0  0  0  0  0  0  0  0  0
   -7.8547  -20.1581   20.1313 N   0  0  0  0  0  0  0  0  0  0  0  0
   -8.4932  -17.8574   20.1542 C   0  0  0  0  0  0  0  0  0  0  0  0
   -9.6089  -18.1612   20.6633 O   0  0  0  0  0  0  0  0  0  0  0  0
  -12.0920  -11.2121   17.1232 N   0  0  0  0  0  0  0  0  0  0  0  0
  -12.4190  -11.0300   18.4829 C   0  0  0  0  0  0  0  0  0  0  0  0
  -13.2092  -10.0959   18.9043 N   0  0  0  0  0  0  0  0  0  0  0  0
  -11.8628  -11.9097   19.4730 N   0  0  0  0  0  0  0  0  0  0  0  0
  -10.9099  -12.9035   19.0521 C   0  0  0  0  0  0  0  0  0  0  0  0
  -10.4187  -13.6627   20.2795 C   0  0  0  0  0  0  0  0  0  0  0  0
   -9.4197  -14.6761   19.8495 C   0  0  0  0  0  0  0  0  0  0  0  0
   -8.8886  -15.5216   20.9671 C   0  0  2  0  0  0  0  0  0  0  0  0
   -8.0478  -16.5387   20.3106 N   0  0  0  0  0  0  0  0  0  0  0  0
   -9.9892  -16.1615   21.6900 C   0  0  0  0  0  0  0  0  0  0  0  0
  -10.5696  -17.3356   21.2739 O   0  0  0  0  0  0  0  0  0  0  0  0
  -10.4565  -15.6326   22.7554 O   0  0  0  0  0  0  0  0  0  0  0  0
  2  1  1  6
  2  3  1  0
  4  2  1  0
  5  4  2  0
  6  7  1  0
  7  9  1  0
  8  7  2  0
 10  9  1  6
 10 11  1  0
 11  4  1  0
 12 10  1  0
 12 22  1  0
 13 12  2  0
 15 16  2  0
 15 14  1  0
 17 15  1  0
 18 17  1  0
 19 18  1  0
 21 20  1  6
 20 19  1  0
 21 22  1  0
 21 23  1  0
 23 24  1  0
 25 23  2  0
M  END
$$$$
