RIE.pdb
     RDKit          3D

 29 28  0  0  1  0  0  0  0  0999 V2000
    6.7913  -14.8555   16.3362 N   0  0  0  0  0  0  0  0  0  0  0  0
    8.0615  -14.2834   16.6583 C   0  0  0  0  0  0  0  0  0  0  0  0
    8.3957  -13.1500   16.1423 N   0  0  0  0  0  0  0  0  0  0  0  0
    8.9160  -14.9899   17.5433 N   0  0  0  0  0  0  0  0  0  0  0  0
    8.3184  -15.9496   18.4480 C   0  0  0  0  0  0  0  0  0  0  0  0
    7.5935  -15.1984   19.5405 C   0  0  0  0  0  0  0  0  0  0  0  0
    6.9079  -16.1182   20.5215 C   0  0  0  0  0  0  0  0  0  0  0  0
    6.1377  -15.3406   21.5906 C   0  0  2  0  0  0  0  0  0  0  0  0
    5.4159  -14.2510   20.9562 N   0  0  0  0  0  0  0  0  0  0  0  0
    7.1551  -14.8367   22.5491 C   0  0  0  0  0  0  0  0  0  0  0  0
    8.1669  -14.2555   22.0900 O   0  0  0  0  0  0  0  0  0  0  0  0
    9.3134  -12.7211   16.3673 C   0  0  0  0  0  0  0  0  0  0  0  0
    5.6213  -11.9763   26.3861 C   0  0  0  0  0  0  0  0  0  0  0  0
    6.6886  -12.4816   25.4809 C   0  0  2  0  0  0  0  0  0  0  0  0
    7.3919  -13.7141   25.8895 C   0  0  0  0  0  0  0  0  0  0  0  0
    8.1257  -13.5565   27.2187 C   0  0  2  0  0  0  0  0  0  0  0  0
    8.0925  -14.5334   24.8857 N   0  0  0  0  0  0  0  0  0  0  0  0
    7.0142  -14.9936   23.9523 C   0  0  0  0  0  0  0  0  0  0  0  0
    8.8092  -15.7219   25.2662 O   0  0  0  0  0  0  0  0  0  0  0  0
    8.1921  -16.7786   25.6462 N   0  0  0  0  0  0  0  0  0  0  0  0
   10.2198  -15.7933   25.2340 C   0  0  1  0  0  0  0  0  0  0  0  0
   10.8812  -17.1157   25.4130 C   0  0  0  0  0  0  0  0  0  0  0  0
   12.1538  -17.0054   24.6219 C   0  0  0  0  0  0  0  0  0  0  0  0
   13.1531  -18.0707   24.7242 C   0  0  0  0  0  0  0  0  0  0  0  0
   14.4048  -17.9347   23.9755 O   0  0  0  0  0  0  0  0  0  0  0  0
   15.1428  -16.9132   24.1841 C   0  0  0  0  0  0  0  0  0  0  0  0
   11.0272  -17.3306   26.8411 O   0  0  0  0  0  0  0  0  0  0  0  0
   10.9778  -16.3818   27.6515 O   0  0  0  0  0  0  0  0  0  0  0  0
   14.8603  -18.8585   23.0353 O   0  0  0  0  0  0  0  0  0  0  0  0
  2  1  1  0
  3  2  2  0
  4  2  1  0
  5  4  1  0
  6  5  1  0
  7  6  1  0
  7  8  1  0
  8  9  1  6
 10 11  2  0
 10  8  1  0
 13 12  1  0
 13 14  1  0
 14 15  1  6
 16 14  1  0
 16 17  1  6
 17 10  1  0
 18 16  1  0
 19 18  2  0
 20 18  1  0
 21 20  1  0
 21 22  1  1
 22 23  1  0
 24 23  1  0
 24 25  2  0
 26 29  1  0
 26 21  1  0
 27 26  2  0
 28 24  1  0
M  END
$$$$
