RIE.pdb
     RDKit          3D

 29 28  0  0  1  0  0  0  0  0999 V2000
    7.2799  -22.7835   20.1421 N   0  0  0  0  0  0  0  0  0  0  0  0
    6.7777  -22.4785   18.8386 C   0  0  0  0  0  0  0  0  0  0  0  0
    6.7256  -23.4073   17.9458 N   0  0  0  0  0  0  0  0  0  0  0  0
    6.3499  -21.1523   18.5725 N   0  0  0  0  0  0  0  0  0  0  0  0
    7.3109  -20.0807   18.7303 C   0  0  0  0  0  0  0  0  0  0  0  0
    8.5549  -20.4268   17.9452 C   0  0  0  0  0  0  0  0  0  0  0  0
    9.6099  -19.3502   18.0245 C   0  0  0  0  0  0  0  0  0  0  0  0
    9.0973  -18.0087   17.4967 C   0  0  2  0  0  0  0  0  0  0  0  0
    9.6757  -17.7626   16.1869 N   0  0  0  0  0  0  0  0  0  0  0  0
    9.5260  -16.9846   18.4842 C   0  0  0  0  0  0  0  0  0  0  0  0
   10.7344  -16.6510   18.5072 O   0  0  0  0  0  0  0  0  0  0  0  0
    6.3599  -23.2028   16.9965 C   0  0  0  0  0  0  0  0  0  0  0  0
    6.9950  -12.0219   20.7979 C   0  0  0  0  0  0  0  0  0  0  0  0
    8.1428  -12.9652   20.8788 C   0  0  2  0  0  0  0  0  0  0  0  0
    7.9670  -14.2960   20.2633 C   0  0  0  0  0  0  0  0  0  0  0  0
    6.5736  -14.8720   20.5015 C   0  0  2  0  0  0  0  0  0  0  0  0
    9.0621  -15.2803   20.3037 N   0  0  0  0  0  0  0  0  0  0  0  0
    8.6158  -16.3816   19.3906 C   0  0  0  0  0  0  0  0  0  0  0  0
    9.4362  -15.9249   21.5346 O   0  0  0  0  0  0  0  0  0  0  0  0
    8.8221  -16.9688   21.9530 N   0  0  0  0  0  0  0  0  0  0  0  0
   10.4973  -15.4532   22.3393 C   0  0  1  0  0  0  0  0  0  0  0  0
   10.8862  -16.2282   23.5504 C   0  0  0  0  0  0  0  0  0  0  0  0
   12.3761  -16.0559   23.6399 C   0  0  0  0  0  0  0  0  0  0  0  0
   13.2481  -17.0115   22.9541 C   0  0  0  0  0  0  0  0  0  0  0  0
   14.6955  -16.7875   22.9815 O   0  0  0  0  0  0  0  0  0  0  0  0
   15.2837  -16.6793   24.1103 C   0  0  0  0  0  0  0  0  0  0  0  0
   10.1096  -15.7055   24.6597 O   0  0  0  0  0  0  0  0  0  0  0  0
    9.5135  -14.6111   24.5797 O   0  0  0  0  0  0  0  0  0  0  0  0
   15.4947  -16.6848   21.8433 O   0  0  0  0  0  0  0  0  0  0  0  0
  2  1  1  0
  3  2  2  0
  4  2  1  0
  5  4  1  0
  6  5  1  0
  7  6  1  0
  7  8  1  0
  8  9  1  6
 10 11  2  0
 10  8  1  0
 13 12  1  0
 13 14  1  0
 14 15  1  6
 16 14  1  0
 16 17  1  1
 17 10  1  0
 18 16  1  0
 19 18  2  0
 20 18  1  0
 21 20  1  0
 21 22  1  1
 22 23  1  0
 24 23  1  0
 24 25  2  0
 26 29  1  0
 26 21  1  0
 27 26  2  0
 28 24  1  0
M  END
$$$$
