RIE.pdb
     RDKit          3D

 29 28  0  0  1  0  0  0  0  0999 V2000
    9.5250  -13.7675   17.6556 N   0  0  0  0  0  0  0  0  0  0  0  0
    8.1985  -13.6983   17.1264 C   0  0  0  0  0  0  0  0  0  0  0  0
    8.0157  -13.2554   15.9293 N   0  0  0  0  0  0  0  0  0  0  0  0
    7.1212  -14.1245   17.9451 N   0  0  0  0  0  0  0  0  0  0  0  0
    7.4321  -14.8516   19.1581 C   0  0  0  0  0  0  0  0  0  0  0  0
    7.7935  -13.8587   20.2384 C   0  0  0  0  0  0  0  0  0  0  0  0
    7.2067  -14.2218   21.5809 C   0  0  0  0  0  0  0  0  0  0  0  0
    7.8829  -15.4542   22.1849 C   0  0  2  0  0  0  0  0  0  0  0  0
    6.8676  -16.4432   22.5038 N   0  0  0  0  0  0  0  0  0  0  0  0
    8.5885  -14.9829   23.4046 C   0  0  0  0  0  0  0  0  0  0  0  0
    9.6391  -14.3137   23.2616 O   0  0  0  0  0  0  0  0  0  0  0  0
    7.0803  -13.3166   15.4843 C   0  0  0  0  0  0  0  0  0  0  0  0
    5.4813  -12.5543   26.1077 C   0  0  0  0  0  0  0  0  0  0  0  0
    6.8521  -12.8989   25.6431 C   0  0  2  0  0  0  0  0  0  0  0  0
    7.6448  -13.8074   26.4956 C   0  0  0  0  0  0  0  0  0  0  0  0
    7.9567  -13.2045   27.8628 C   0  0  2  0  0  0  0  0  0  0  0  0
    8.7293  -14.6136   25.9094 N   0  0  0  0  0  0  0  0  0  0  0  0
    8.1111  -15.2663   24.7105 C   0  0  0  0  0  0  0  0  0  0  0  0
    9.3492  -15.6778   26.6537 O   0  0  0  0  0  0  0  0  0  0  0  0
    9.8488  -15.4742   27.8161 N   0  0  0  0  0  0  0  0  0  0  0  0
    9.4334  -16.9965   26.1540 C   0  0  1  0  0  0  0  0  0  0  0  0
   10.0772  -18.0472   26.9906 C   0  0  0  0  0  0  0  0  0  0  0  0
    9.1683  -19.2363   26.8590 C   0  0  0  0  0  0  0  0  0  0  0  0
    7.7562  -19.0996   27.2211 C   0  0  0  0  0  0  0  0  0  0  0  0
    6.8707  -20.2534   27.0463 O   0  0  0  0  0  0  0  0  0  0  0  0
    7.1292  -21.3331   27.6781 C   0  0  0  0  0  0  0  0  0  0  0  0
   11.4323  -18.2146   26.4982 O   0  0  0  0  0  0  0  0  0  0  0  0
   12.2283  -19.0111   27.0381 O   0  0  0  0  0  0  0  0  0  0  0  0
    5.7423  -20.2587   26.2268 O   0  0  0  0  0  0  0  0  0  0  0  0
  2  1  1  0
  3  2  2  0
  4  2  1  0
  5  4  1  0
  6  5  1  0
  7  6  1  0
  7  8  1  0
  8  9  1  1
 10 11  2  0
 10  8  1  0
 13 12  1  0
 13 14  1  0
 14 15  1  6
 16 14  1  0
 16 17  1  6
 17 10  1  0
 18 16  1  0
 19 18  2  0
 20 18  1  0
 21 20  1  0
 21 22  1  1
 22 23  1  0
 24 23  1  0
 24 25  2  0
 26 29  1  0
 26 21  1  0
 27 26  2  0
 28 24  1  0
M  END
$$$$
