RIE.pdb
     RDKit          3D

 29 28  0  0  1  0  0  0  0  0999 V2000
    9.9408  -14.3354   16.7617 N   0  0  0  0  0  0  0  0  0  0  0  0
    8.5983  -14.0131   16.3899 C   0  0  0  0  0  0  0  0  0  0  0  0
    8.3891  -13.1576   15.4483 N   0  0  0  0  0  0  0  0  0  0  0  0
    7.5348  -14.6532   17.0767 N   0  0  0  0  0  0  0  0  0  0  0  0
    7.8440  -15.3722   18.2950 C   0  0  0  0  0  0  0  0  0  0  0  0
    7.2186  -14.6411   19.4603 C   0  0  0  0  0  0  0  0  0  0  0  0
    8.1507  -14.5267   20.6420 C   0  0  0  0  0  0  0  0  0  0  0  0
    7.9045  -15.6308   21.6722 C   0  0  2  0  0  0  0  0  0  0  0  0
    6.4727  -15.8122   21.8392 N   0  0  0  0  0  0  0  0  0  0  0  0
    8.5474  -15.1729   22.9310 C   0  0  0  0  0  0  0  0  0  0  0  0
    9.7724  -14.9062   22.9091 O   0  0  0  0  0  0  0  0  0  0  0  0
    7.4209  -12.9218   15.1590 C   0  0  0  0  0  0  0  0  0  0  0  0
    5.6724  -11.8661   25.6031 C   0  0  0  0  0  0  0  0  0  0  0  0
    6.9438  -12.4811   25.1352 C   0  0  2  0  0  0  0  0  0  0  0  0
    7.5097  -13.5690   25.9579 C   0  0  0  0  0  0  0  0  0  0  0  0
    7.8123  -13.1260   27.3869 C   0  0  2  0  0  0  0  0  0  0  0  0
    8.4880  -14.5041   25.3763 N   0  0  0  0  0  0  0  0  0  0  0  0
    7.8215  -15.0311   24.1419 C   0  0  0  0  0  0  0  0  0  0  0  0
    8.9297  -15.6644   26.1038 O   0  0  0  0  0  0  0  0  0  0  0  0
    8.1253  -16.6226   26.3809 N   0  0  0  0  0  0  0  0  0  0  0  0
   10.2643  -15.8156   26.5418 C   0  0  1  0  0  0  0  0  0  0  0  0
   10.6480  -17.0519   27.2786 C   0  0  0  0  0  0  0  0  0  0  0  0
   11.8625  -17.5563   26.5519 C   0  0  0  0  0  0  0  0  0  0  0  0
   12.5922  -18.7051   27.0920 C   0  0  0  0  0  0  0  0  0  0  0  0
   12.3627  -20.0252   26.4998 O   0  0  0  0  0  0  0  0  0  0  0  0
   12.8023  -20.2608   25.3238 C   0  0  0  0  0  0  0  0  0  0  0  0
   10.8376  -16.6795   28.6686 O   0  0  0  0  0  0  0  0  0  0  0  0
   11.0174  -15.4908   29.0063 O   0  0  0  0  0  0  0  0  0  0  0  0
   11.6888  -21.0651   27.1397 O   0  0  0  0  0  0  0  0  0  0  0  0
  2  1  1  0
  3  2  2  0
  4  2  1  0
  5  4  1  0
  6  5  1  0
  7  6  1  0
  7  8  1  0
  8  9  1  1
 10 11  2  0
 10  8  1  0
 13 12  1  0
 13 14  1  0
 14 15  1  6
 16 14  1  0
 16 17  1  6
 17 10  1  0
 18 16  1  0
 19 18  2  0
 20 18  1  0
 21 20  1  0
 21 22  1  1
 22 23  1  0
 24 23  1  0
 24 25  2  0
 26 29  1  0
 26 21  1  0
 27 26  2  0
 28 24  1  0
M  END
$$$$
