RIE.pdb
     RDKit          3D

 29 28  0  0  1  0  0  0  0  0999 V2000
    8.9128  -15.3532   17.1570 N   0  0  0  0  0  0  0  0  0  0  0  0
    8.3386  -14.2852   16.3993 C   0  0  0  0  0  0  0  0  0  0  0  0
    8.1702  -14.4280   15.1291 N   0  0  0  0  0  0  0  0  0  0  0  0
    7.9705  -13.0959   17.0795 N   0  0  0  0  0  0  0  0  0  0  0  0
    8.2430  -13.0094   18.4990 C   0  0  0  0  0  0  0  0  0  0  0  0
    7.0913  -13.6341   19.2519 C   0  0  0  0  0  0  0  0  0  0  0  0
    7.2809  -13.5849   20.7486 C   0  0  0  0  0  0  0  0  0  0  0  0
    7.7283  -14.9353   21.3119 C   0  0  2  0  0  0  0  0  0  0  0  0
    6.5635  -15.7867   21.4830 N   0  0  0  0  0  0  0  0  0  0  0  0
    8.3871  -14.6436   22.6113 C   0  0  0  0  0  0  0  0  0  0  0  0
    9.5503  -14.1757   22.5954 O   0  0  0  0  0  0  0  0  0  0  0  0
    7.7913  -13.6481   14.5590 C   0  0  0  0  0  0  0  0  0  0  0  0
    5.6980  -12.0596   26.1867 C   0  0  0  0  0  0  0  0  0  0  0  0
    6.8309  -12.6357   25.4131 C   0  0  2  0  0  0  0  0  0  0  0  0
    7.4663  -13.8542   25.9537 C   0  0  0  0  0  0  0  0  0  0  0  0
    7.8145  -13.7255   27.4343 C   0  0  2  0  0  0  0  0  0  0  0  0
    8.4491  -14.5967   25.1459 N   0  0  0  0  0  0  0  0  0  0  0  0
    7.7434  -14.8774   23.8541 C   0  0  0  0  0  0  0  0  0  0  0  0
    8.9678  -15.8642   25.5878 O   0  0  0  0  0  0  0  0  0  0  0  0
    8.2086  -16.8897   25.7056 N   0  0  0  0  0  0  0  0  0  0  0  0
   10.3318  -16.0502   25.9051 C   0  0  1  0  0  0  0  0  0  0  0  0
   10.8184  -17.4199   26.2300 C   0  0  0  0  0  0  0  0  0  0  0  0
   12.1177  -17.5397   25.4852 C   0  0  0  0  0  0  0  0  0  0  0  0
   12.9737  -18.7032   25.7248 C   0  0  0  0  0  0  0  0  0  0  0  0
   14.2656  -18.7787   25.0384 O   0  0  0  0  0  0  0  0  0  0  0  0
   14.5929  -17.8447   24.2307 C   0  0  0  0  0  0  0  0  0  0  0  0
   10.8941  -17.5144   27.6765 O   0  0  0  0  0  0  0  0  0  0  0  0
   10.9777  -18.6184   28.2542 O   0  0  0  0  0  0  0  0  0  0  0  0
   15.1840  -19.8145   25.2076 O   0  0  0  0  0  0  0  0  0  0  0  0
  2  1  1  0
  3  2  2  0
  4  2  1  0
  5  4  1  0
  6  5  1  0
  7  6  1  0
  7  8  1  0
  8  9  1  1
 10 11  2  0
 10  8  1  0
 13 12  1  0
 13 14  1  0
 14 15  1  6
 16 14  1  0
 16 17  1  6
 17 10  1  0
 18 16  1  0
 19 18  2  0
 20 18  1  0
 21 20  1  0
 21 22  1  1
 22 23  1  0
 24 23  1  0
 24 25  2  0
 26 29  1  0
 26 21  1  0
 27 26  2  0
 28 24  1  0
M  END
$$$$
