RIE.pdb
     RDKit          3D

 29 28  0  0  1  0  0  0  0  0999 V2000
    9.2868  -13.7355   17.3001 N   0  0  0  0  0  0  0  0  0  0  0  0
    8.7165  -14.6327   16.3438 C   0  0  0  0  0  0  0  0  0  0  0  0
    8.4376  -14.2043   15.1601 N   0  0  0  0  0  0  0  0  0  0  0  0
    8.4767  -15.9748   16.7357 N   0  0  0  0  0  0  0  0  0  0  0  0
    8.6776  -16.3261   18.1260 C   0  0  0  0  0  0  0  0  0  0  0  0
    7.9232  -15.3405   18.9880 C   0  0  0  0  0  0  0  0  0  0  0  0
    7.9772  -15.6916   20.4550 C   0  0  0  0  0  0  0  0  0  0  0  0
    7.0624  -14.7940   21.2908 C   0  0  2  0  0  0  0  0  0  0  0  0
    6.7782  -13.5807   20.5439 N   0  0  0  0  0  0  0  0  0  0  0  0
    7.8031  -14.5022   22.5454 C   0  0  0  0  0  0  0  0  0  0  0  0
    8.9749  -14.0652   22.4552 O   0  0  0  0  0  0  0  0  0  0  0  0
    8.0601  -14.8523   14.4430 C   0  0  0  0  0  0  0  0  0  0  0  0
    5.5700  -11.5099   26.0170 C   0  0  0  0  0  0  0  0  0  0  0  0
    6.5977  -12.2605   25.2462 C   0  0  2  0  0  0  0  0  0  0  0  0
    7.1169  -13.5050   25.8482 C   0  0  0  0  0  0  0  0  0  0  0  0
    7.5076  -13.3283   27.3131 C   0  0  2  0  0  0  0  0  0  0  0  0
    8.0016  -14.3897   25.0709 N   0  0  0  0  0  0  0  0  0  0  0  0
    7.2271  -14.7024   23.8267 C   0  0  0  0  0  0  0  0  0  0  0  0
    8.4254  -15.6617   25.5937 O   0  0  0  0  0  0  0  0  0  0  0  0
    7.6003  -16.6320   25.7346 N   0  0  0  0  0  0  0  0  0  0  0  0
    9.7639  -15.9133   25.9692 C   0  0  1  0  0  0  0  0  0  0  0  0
   10.1763  -17.3094   26.2843 C   0  0  0  0  0  0  0  0  0  0  0  0
   11.5069  -17.4668   25.6043 C   0  0  0  0  0  0  0  0  0  0  0  0
   12.2991  -18.6723   25.8554 C   0  0  0  0  0  0  0  0  0  0  0  0
   13.6069  -18.8015   25.2081 O   0  0  0  0  0  0  0  0  0  0  0  0
   14.0435  -17.8345   24.4967 C   0  0  0  0  0  0  0  0  0  0  0  0
   10.1724  -17.4400   27.7299 O   0  0  0  0  0  0  0  0  0  0  0  0
   10.1708  -16.4379   28.4750 O   0  0  0  0  0  0  0  0  0  0  0  0
   14.4276  -19.9237   25.3160 O   0  0  0  0  0  0  0  0  0  0  0  0
  2  1  1  0
  3  2  2  0
  4  2  1  0
  5  4  1  0
  6  5  1  0
  7  6  1  0
  7  8  1  0
  8  9  1  6
 10 11  2  0
 10  8  1  0
 13 12  1  0
 13 14  1  0
 14 15  1  6
 16 14  1  0
 16 17  1  6
 17 10  1  0
 18 16  1  0
 19 18  2  0
 20 18  1  0
 21 20  1  0
 21 22  1  1
 22 23  1  0
 24 23  1  0
 24 25  2  0
 26 29  1  0
 26 21  1  0
 27 26  2  0
 28 24  1  0
M  END
$$$$
