RIE.pdb
     RDKit          3D

 29 28  0  0  1  0  0  0  0  0999 V2000
    9.6328  -15.7275   15.8844 N   0  0  0  0  0  0  0  0  0  0  0  0
    8.3452  -15.3159   15.4182 C   0  0  0  0  0  0  0  0  0  0  0  0
    7.9376  -15.7023   14.2577 N   0  0  0  0  0  0  0  0  0  0  0  0
    7.5549  -14.4898   16.2582 N   0  0  0  0  0  0  0  0  0  0  0  0
    8.0682  -14.1627   17.5720 C   0  0  0  0  0  0  0  0  0  0  0  0
    7.4473  -15.1003   18.5814 C   0  0  0  0  0  0  0  0  0  0  0  0
    8.0671  -14.9717   19.9517 C   0  0  0  0  0  0  0  0  0  0  0  0
    7.6945  -13.6492   20.6248 C   0  0  2  0  0  0  0  0  0  0  0  0
    8.3408  -12.5581   19.9159 N   0  0  0  0  0  0  0  0  0  0  0  0
    8.1745  -13.7493   22.0274 C   0  0  0  0  0  0  0  0  0  0  0  0
    9.3720  -13.4649   22.2669 O   0  0  0  0  0  0  0  0  0  0  0  0
    6.9973  -15.4295   13.9141 C   0  0  0  0  0  0  0  0  0  0  0  0
    5.1587  -11.6569   25.7439 C   0  0  0  0  0  0  0  0  0  0  0  0
    6.3619  -12.1667   25.0325 C   0  0  2  0  0  0  0  0  0  0  0  0
    6.7595  -13.5643   25.2956 C   0  0  0  0  0  0  0  0  0  0  0  0
    6.7857  -13.8952   26.7855 C   0  0  2  0  0  0  0  0  0  0  0  0
    7.8291  -14.1914   24.5004 N   0  0  0  0  0  0  0  0  0  0  0  0
    7.3248  -14.1532   23.0897 C   0  0  0  0  0  0  0  0  0  0  0  0
    8.2256  -15.5549   24.7335 O   0  0  0  0  0  0  0  0  0  0  0  0
    7.4627  -16.5340   24.4151 N   0  0  0  0  0  0  0  0  0  0  0  0
    9.4703  -15.8886   25.3127 C   0  0  1  0  0  0  0  0  0  0  0  0
    9.8291  -17.3247   25.4783 C   0  0  0  0  0  0  0  0  0  0  0  0
   11.0645  -17.4985   24.6411 C   0  0  0  0  0  0  0  0  0  0  0  0
   11.7660  -18.7835   24.6612 C   0  0  0  0  0  0  0  0  0  0  0  0
   12.9651  -18.9429   23.8350 O   0  0  0  0  0  0  0  0  0  0  0  0
   12.9461  -18.5222   22.6290 C   0  0  0  0  0  0  0  0  0  0  0  0
    9.9765  -17.5668   26.9019 O   0  0  0  0  0  0  0  0  0  0  0  0
   10.0894  -18.7237   27.3581 O   0  0  0  0  0  0  0  0  0  0  0  0
   14.1504  -19.5291   24.2782 O   0  0  0  0  0  0  0  0  0  0  0  0
  2  1  1  0
  3  2  2  0
  4  2  1  0
  5  4  1  0
  6  5  1  0
  7  6  1  0
  7  8  1  0
  8  9  1  6
 10 11  2  0
 10  8  1  0
 13 12  1  0
 13 14  1  0
 14 15  1  6
 16 14  1  0
 16 17  1  1
 17 10  1  0
 18 16  1  0
 19 18  2  0
 20 18  1  0
 21 20  1  0
 21 22  1  1
 22 23  1  0
 24 23  1  0
 24 25  2  0
 26 29  1  0
 26 21  1  0
 27 26  2  0
 28 24  1  0
M  END
$$$$
