RIE.pdb
     RDKit          3D

 29 28  0  0  1  0  0  0  0  0999 V2000
    7.6469  -13.1190   16.4774 N   0  0  0  0  0  0  0  0  0  0  0  0
    7.3105  -14.5050   16.3755 C   0  0  0  0  0  0  0  0  0  0  0  0
    7.6902  -15.1753   15.3416 N   0  0  0  0  0  0  0  0  0  0  0  0
    6.5648  -15.0984   17.4263 N   0  0  0  0  0  0  0  0  0  0  0  0
    7.2557  -15.9896   18.3346 C   0  0  0  0  0  0  0  0  0  0  0  0
    8.4488  -15.2633   18.9112 C   0  0  0  0  0  0  0  0  0  0  0  0
    8.4776  -15.2998   20.4199 C   0  0  0  0  0  0  0  0  0  0  0  0
    8.1976  -13.9247   21.0296 C   0  0  2  0  0  0  0  0  0  0  0  0
    8.9277  -12.9166   20.2802 N   0  0  0  0  0  0  0  0  0  0  0  0
    8.6578  -13.9963   22.4405 C   0  0  0  0  0  0  0  0  0  0  0  0
    9.8805  -13.8463   22.6747 O   0  0  0  0  0  0  0  0  0  0  0  0
    7.5944  -16.2083   15.3217 C   0  0  0  0  0  0  0  0  0  0  0  0
    5.9409  -11.3377   26.0432 C   0  0  0  0  0  0  0  0  0  0  0  0
    7.0125  -12.0548   25.3009 C   0  0  2  0  0  0  0  0  0  0  0  0
    7.2779  -13.4557   25.6853 C   0  0  0  0  0  0  0  0  0  0  0  0
    7.3149  -13.6509   27.1987 C   0  0  2  0  0  0  0  0  0  0  0  0
    8.2568  -14.2572   24.9308 N   0  0  0  0  0  0  0  0  0  0  0  0
    7.7621  -14.2269   23.5166 C   0  0  0  0  0  0  0  0  0  0  0  0
    8.4723  -15.6467   25.2365 O   0  0  0  0  0  0  0  0  0  0  0  0
    7.5278  -16.5061   25.1304 N   0  0  0  0  0  0  0  0  0  0  0  0
    9.7276  -16.1390   25.6582 C   0  0  1  0  0  0  0  0  0  0  0  0
    9.8953  -17.6034   25.8722 C   0  0  0  0  0  0  0  0  0  0  0  0
   11.2281  -17.9194   25.2549 C   0  0  0  0  0  0  0  0  0  0  0  0
   11.4100  -17.7338   23.8139 C   0  0  0  0  0  0  0  0  0  0  0  0
   12.7271  -18.0015   23.2313 O   0  0  0  0  0  0  0  0  0  0  0  0
   13.6789  -18.3732   23.9978 C   0  0  0  0  0  0  0  0  0  0  0  0
    9.7729  -17.8436   27.2984 O   0  0  0  0  0  0  0  0  0  0  0  0
    9.7566  -16.9025   28.1190 O   0  0  0  0  0  0  0  0  0  0  0  0
   13.0232  -17.8807   21.8739 O   0  0  0  0  0  0  0  0  0  0  0  0
  2  1  1  0
  3  2  2  0
  4  2  1  0
  5  4  1  0
  6  5  1  0
  7  6  1  0
  7  8  1  0
  8  9  1  6
 10 11  2  0
 10  8  1  0
 13 12  1  0
 13 14  1  0
 14 15  1  6
 16 14  1  0
 16 17  1  1
 17 10  1  0
 18 16  1  0
 19 18  2  0
 20 18  1  0
 21 20  1  0
 21 22  1  1
 22 23  1  0
 24 23  1  0
 24 25  2  0
 26 29  1  0
 26 21  1  0
 27 26  2  0
 28 24  1  0
M  END
$$$$
