RIE.pdb
     RDKit          3D

 29 28  0  0  1  0  0  0  0  0999 V2000
    7.4287  -12.3194   17.5797 N   0  0  0  0  0  0  0  0  0  0  0  0
    8.4600  -13.0164   18.2834 C   0  0  0  0  0  0  0  0  0  0  0  0
    9.2441  -12.3623   19.0706 N   0  0  0  0  0  0  0  0  0  0  0  0
    8.5837  -14.4161   18.0886 N   0  0  0  0  0  0  0  0  0  0  0  0
    7.3936  -15.2308   18.2171 C   0  0  0  0  0  0  0  0  0  0  0  0
    7.6870  -16.3698   19.1660 C   0  0  0  0  0  0  0  0  0  0  0  0
    8.4215  -15.9189   20.4051 C   0  0  0  0  0  0  0  0  0  0  0  0
    7.8222  -16.5245   21.6760 C   0  0  2  0  0  0  0  0  0  0  0  0
    6.3931  -16.2640   21.6966 N   0  0  0  0  0  0  0  0  0  0  0  0
    8.5140  -15.8659   22.8141 C   0  0  0  0  0  0  0  0  0  0  0  0
    9.7468  -15.6574   22.7194 O   0  0  0  0  0  0  0  0  0  0  0  0
   10.0393  -12.8402   19.5352 C   0  0  0  0  0  0  0  0  0  0  0  0
    5.9984  -12.0819   25.4844 C   0  0  0  0  0  0  0  0  0  0  0  0
    7.1483  -12.8514   24.9372 C   0  0  2  0  0  0  0  0  0  0  0  0
    7.6884  -13.9427   25.7728 C   0  0  0  0  0  0  0  0  0  0  0  0
    8.0903  -13.4688   27.1671 C   0  0  2  0  0  0  0  0  0  0  0  0
    8.5770  -14.9574   25.1808 N   0  0  0  0  0  0  0  0  0  0  0  0
    7.8255  -15.4713   23.9905 C   0  0  0  0  0  0  0  0  0  0  0  0
    8.9706  -16.1247   25.9245 O   0  0  0  0  0  0  0  0  0  0  0  0
    8.1202  -17.0284   26.2445 N   0  0  0  0  0  0  0  0  0  0  0  0
   10.3055  -16.3431   26.3322 C   0  0  1  0  0  0  0  0  0  0  0  0
   10.6327  -17.5711   27.1090 C   0  0  0  0  0  0  0  0  0  0  0  0
   11.8596  -18.1202   26.4377 C   0  0  0  0  0  0  0  0  0  0  0  0
   12.5585  -19.2548   27.0444 C   0  0  0  0  0  0  0  0  0  0  0  0
   13.7769  -19.7545   26.4029 O   0  0  0  0  0  0  0  0  0  0  0  0
   13.7081  -20.2038   25.2090 C   0  0  0  0  0  0  0  0  0  0  0  0
   10.7818  -17.1718   28.4965 O   0  0  0  0  0  0  0  0  0  0  0  0
   10.9231  -15.9736   28.8185 O   0  0  0  0  0  0  0  0  0  0  0  0
   15.0318  -19.7734   27.0108 O   0  0  0  0  0  0  0  0  0  0  0  0
  2  1  1  0
  3  2  2  0
  4  2  1  0
  5  4  1  0
  6  5  1  0
  7  6  1  0
  7  8  1  0
  8  9  1  1
 10 11  2  0
 10  8  1  0
 13 12  1  0
 13 14  1  0
 14 15  1  1
 16 14  1  0
 16 17  1  6
 17 10  1  0
 18 16  1  0
 19 18  2  0
 20 18  1  0
 21 20  1  0
 21 22  1  1
 22 23  1  0
 24 23  1  0
 24 25  2  0
 26 29  1  0
 26 21  1  0
 27 26  2  0
 28 24  1  0
M  END
$$$$
