FLL.pdb
     RDKit          3D

 28 28  0  0  1  0  0  0  0  0999 V2000
   20.7393  -14.1402  -17.4809 N   0  0  0  0  0  0  0  0  0  0  0  0
   21.4504  -13.0549  -18.1535 C   0  0  1  0  0  0  0  0  0  0  0  0
   20.6081  -12.6781  -19.3563 C   0  0  0  0  0  0  0  0  0  0  0  0
   20.7068  -13.8237  -20.3272 C   0  0  0  0  0  0  0  0  0  0  0  0
   21.8948  -14.1231  -20.9553 C   0  0  0  0  0  0  0  0  0  0  0  0
   21.9795  -15.1679  -21.8390 C   0  0  0  0  0  0  0  0  0  0  0  0
   20.8851  -15.9464  -22.1247 C   0  0  0  0  0  0  0  0  0  0  0  0
   19.6904  -15.6666  -21.5106 C   0  0  0  0  0  0  0  0  0  0  0  0
   19.6204  -14.6135  -20.6248 C   0  0  0  0  0  0  0  0  0  0  0  0
   21.6232  -11.9377  -17.2162 C   0  0  0  0  0  0  0  0  0  0  0  0
   20.7484  -11.6673  -16.3570 O   0  0  0  0  0  0  0  0  0  0  0  0
   24.9531  -10.8817  -14.1529 C   0  0  0  0  0  0  0  0  0  0  0  0
   25.3096  -10.7427  -15.6510 C   0  0  2  0  0  0  0  0  0  0  0  0
   26.7741  -10.3901  -15.6652 C   0  0  0  0  0  0  0  0  0  0  0  0
   24.3938   -9.7076  -16.1849 C   0  0  0  0  0  0  0  0  0  0  0  0
   22.9458  -10.0676  -16.2933 C   0  0  2  0  0  0  0  0  0  0  0  0
   22.7865  -11.1296  -17.2546 N   0  0  0  0  0  0  0  0  0  0  0  0
   22.2485   -8.8660  -16.8860 C   0  0  0  0  0  0  0  0  0  0  0  0
   22.3311   -8.5672  -18.1043 O   0  0  0  0  0  0  0  0  0  0  0  0
   16.9745   -6.5230  -17.5898 C   0  0  0  0  0  0  0  0  0  0  0  0
   18.4635   -6.1944  -17.6166 C   0  0  2  0  0  0  0  0  0  0  0  0
   18.8871   -5.6899  -18.9568 C   0  0  0  0  0  0  0  0  0  0  0  0
   19.3239   -7.2461  -17.0305 C   0  0  0  0  0  0  0  0  0  0  0  0
   20.6963   -6.8852  -16.6193 C   0  0  2  0  0  0  0  0  0  0  0  0
   21.4535   -8.0046  -16.0764 N   0  0  0  0  0  0  0  0  0  0  0  0
   20.8217   -5.6898  -15.7557 C   0  0  0  0  0  0  0  0  0  0  0  0
   20.8688   -5.7337  -14.5039 O   0  0  0  0  0  0  0  0  0  0  0  0
   20.8934   -4.4302  -16.3328 O   0  0  0  0  0  0  0  0  0  0  0  0
  2  1  1  1
  2  3  1  0
  4  3  1  0
  4  9  2  0
  5  4  1  0
  6  5  2  0
  6  7  1  0
  7  8  2  0
  8  9  1  0
 10  2  1  0
 10 17  1  0
 11 10  2  0
 13 14  1  1
 13 12  1  0
 15 13  1  0
 16 15  1  6
 17 16  1  0
 18 16  1  0
 19 18  2  0
 21 20  1  6
 21 23  1  0
 22 21  1  0
 24 23  1  1
 24 26  1  0
 24 25  1  0
 25 18  1  0
 26 28  1  0
 27 26  2  0
M  END
$$$$
