FLL.pdb
     RDKit          3D

 28 28  0  0  1  0  0  0  0  0999 V2000
   28.4900  -21.2644   -9.2443 N   0  0  0  0  0  0  0  0  0  0  0  0
   27.1179  -20.7626   -9.2035 C   0  0  1  0  0  0  0  0  0  0  0  0
   27.1716  -19.4426   -8.4598 C   0  0  0  0  0  0  0  0  0  0  0  0
   27.5931  -19.7592   -7.0503 C   0  0  0  0  0  0  0  0  0  0  0  0
   26.7702  -20.4679   -6.2042 C   0  0  0  0  0  0  0  0  0  0  0  0
   27.1589  -20.7537   -4.9208 C   0  0  0  0  0  0  0  0  0  0  0  0
   28.3778  -20.3433   -4.4404 C   0  0  0  0  0  0  0  0  0  0  0  0
   29.2148  -19.6355   -5.2658 C   0  0  0  0  0  0  0  0  0  0  0  0
   28.8107  -19.3557   -6.5529 C   0  0  0  0  0  0  0  0  0  0  0  0
   26.6176  -20.6144  -10.5762 C   0  0  0  0  0  0  0  0  0  0  0  0
   27.3799  -20.2736  -11.5138 O   0  0  0  0  0  0  0  0  0  0  0  0
   25.3433  -24.2395  -14.2691 C   0  0  0  0  0  0  0  0  0  0  0  0
   24.9534  -22.7502  -14.1247 C   0  0  2  0  0  0  0  0  0  0  0  0
   25.7481  -22.0410  -15.1900 C   0  0  0  0  0  0  0  0  0  0  0  0
   25.2826  -22.3852  -12.7269 C   0  0  0  0  0  0  0  0  0  0  0  0
   24.8567  -21.0303  -12.2569 C   0  0  2  0  0  0  0  0  0  0  0  0
   25.2549  -20.8525  -10.8831 N   0  0  0  0  0  0  0  0  0  0  0  0
   23.3463  -21.0333  -12.2520 C   0  0  0  0  0  0  0  0  0  0  0  0
   22.6728  -21.6838  -11.4132 O   0  0  0  0  0  0  0  0  0  0  0  0
   20.2429  -17.8440  -11.5691 C   0  0  0  0  0  0  0  0  0  0  0  0
   20.7561  -17.7374  -13.0013 C   0  0  2  0  0  0  0  0  0  0  0  0
   20.2640  -16.4943  -13.6665 C   0  0  0  0  0  0  0  0  0  0  0  0
   20.6100  -18.9819  -13.7885 C   0  0  0  0  0  0  0  0  0  0  0  0
   21.1517  -20.2373  -13.2286 C   0  0  2  0  0  0  0  0  0  0  0  0
   22.6072  -20.2867  -13.2140 N   0  0  0  0  0  0  0  0  0  0  0  0
   20.5826  -21.4898  -13.7744 C   0  0  0  0  0  0  0  0  0  0  0  0
   19.4485  -21.9313  -13.4743 O   0  0  0  0  0  0  0  0  0  0  0  0
   21.3214  -22.2450  -14.6737 O   0  0  0  0  0  0  0  0  0  0  0  0
  2  1  1  6
  2  3  1  0
  4  3  1  0
  4  9  2  0
  5  4  1  0
  6  5  2  0
  6  7  1  0
  7  8  2  0
  8  9  1  0
 10  2  1  0
 10 17  1  0
 11 10  2  0
 13 14  1  6
 13 12  1  0
 15 13  1  0
 16 15  1  1
 17 16  1  0
 18 16  1  0
 19 18  2  0
 21 20  1  1
 21 23  1  0
 22 21  1  0
 24 23  1  6
 24 26  1  0
 24 25  1  0
 25 18  1  0
 26 28  1  0
 27 26  2  0
M  END
$$$$
