FLL.pdb
     RDKit          3D

 28 28  0  0  1  0  0  0  0  0999 V2000
   28.3428  -21.2180  -15.7743 N   0  0  0  0  0  0  0  0  0  0  0  0
   27.3057  -20.3181  -15.2736 C   0  0  1  0  0  0  0  0  0  0  0  0
   26.5861  -19.7803  -16.4947 C   0  0  0  0  0  0  0  0  0  0  0  0
   27.4860  -18.7374  -17.1005 C   0  0  0  0  0  0  0  0  0  0  0  0
   27.8590  -17.6196  -16.3886 C   0  0  0  0  0  0  0  0  0  0  0  0
   28.6792  -16.6723  -16.9451 C   0  0  0  0  0  0  0  0  0  0  0  0
   29.1532  -16.8082  -18.2265 C   0  0  0  0  0  0  0  0  0  0  0  0
   28.7947  -17.9143  -18.9551 C   0  0  0  0  0  0  0  0  0  0  0  0
   27.9698  -18.8579  -18.3827 C   0  0  0  0  0  0  0  0  0  0  0  0
   26.4122  -21.0632  -14.3775 C   0  0  0  0  0  0  0  0  0  0  0  0
   26.1678  -22.2803  -14.5660 O   0  0  0  0  0  0  0  0  0  0  0  0
   26.5785  -22.2053  -10.0579 C   0  0  0  0  0  0  0  0  0  0  0  0
   26.3241  -20.7092  -10.3538 C   0  0  2  0  0  0  0  0  0  0  0  0
   26.4090  -20.0330   -9.0103 C   0  0  0  0  0  0  0  0  0  0  0  0
   25.0017  -20.6532  -11.0195 C   0  0  0  0  0  0  0  0  0  0  0  0
   24.9172  -21.1839  -12.4156 C   0  0  2  0  0  0  0  0  0  0  0  0
   25.7978  -20.4277  -13.2700 N   0  0  0  0  0  0  0  0  0  0  0  0
   23.5176  -20.8907  -12.9019 C   0  0  0  0  0  0  0  0  0  0  0  0
   23.1244  -19.7279  -13.1735 O   0  0  0  0  0  0  0  0  0  0  0  0
   19.8707  -23.8169  -16.7498 C   0  0  0  0  0  0  0  0  0  0  0  0
   20.1901  -22.5227  -16.0089 C   0  0  2  0  0  0  0  0  0  0  0  0
   20.2006  -21.3516  -16.9354 C   0  0  0  0  0  0  0  0  0  0  0  0
   21.3488  -22.6218  -15.0939 C   0  0  0  0  0  0  0  0  0  0  0  0
   21.3599  -21.7827  -13.8778 C   0  0  2  0  0  0  0  0  0  0  0  0
   22.5664  -21.9366  -13.0767 N   0  0  0  0  0  0  0  0  0  0  0  0
   20.1475  -21.8507  -13.0317 C   0  0  0  0  0  0  0  0  0  0  0  0
   20.1108  -22.4003  -11.9057 O   0  0  0  0  0  0  0  0  0  0  0  0
   18.9639  -21.2830  -13.4808 O   0  0  0  0  0  0  0  0  0  0  0  0
  2  1  1  6
  2  3  1  0
  4  3  1  0
  4  9  2  0
  5  4  1  0
  6  5  2  0
  6  7  1  0
  7  8  2  0
  8  9  1  0
 10  2  1  0
 10 17  1  0
 11 10  2  0
 13 14  1  1
 13 12  1  0
 15 13  1  0
 16 15  1  1
 17 16  1  0
 18 16  1  0
 19 18  2  0
 21 20  1  6
 21 23  1  0
 22 21  1  0
 24 23  1  6
 24 26  1  0
 24 25  1  0
 25 18  1  0
 26 28  1  0
 27 26  2  0
M  END
$$$$
