FLL.pdb
     RDKit          3D

 28 28  0  0  1  0  0  0  0  0999 V2000
   25.3883  -21.0917   -8.6131 N   0  0  0  0  0  0  0  0  0  0  0  0
   24.6562  -20.8940   -9.8626 C   0  0  1  0  0  0  0  0  0  0  0  0
   23.4122  -20.1052   -9.5041 C   0  0  0  0  0  0  0  0  0  0  0  0
   22.4898  -21.0563   -8.7906 C   0  0  0  0  0  0  0  0  0  0  0  0
   22.3801  -21.0456   -7.4183 C   0  0  0  0  0  0  0  0  0  0  0  0
   21.5382  -21.9143   -6.7730 C   0  0  0  0  0  0  0  0  0  0  0  0
   20.7800  -22.8198   -7.4732 C   0  0  0  0  0  0  0  0  0  0  0  0
   20.8729  -22.8487   -8.8419 C   0  0  0  0  0  0  0  0  0  0  0  0
   21.7232  -21.9698   -9.4766 C   0  0  0  0  0  0  0  0  0  0  0  0
   25.5160  -20.1840  -10.8182 C   0  0  0  0  0  0  0  0  0  0  0  0
   25.9940  -19.0544  -10.5495 O   0  0  0  0  0  0  0  0  0  0  0  0
   29.2196  -19.4524  -11.4862 C   0  0  0  0  0  0  0  0  0  0  0  0
   28.8388  -20.9067  -11.8481 C   0  0  2  0  0  0  0  0  0  0  0  0
   30.1563  -21.6204  -12.0033 C   0  0  0  0  0  0  0  0  0  0  0  0
   28.0118  -20.8095  -13.0736 C   0  0  0  0  0  0  0  0  0  0  0  0
   26.7225  -20.0580  -12.9692 C   0  0  2  0  0  0  0  0  0  0  0  0
   25.8321  -20.7553  -12.0757 N   0  0  0  0  0  0  0  0  0  0  0  0
   26.0755  -20.1251  -14.3324 C   0  0  0  0  0  0  0  0  0  0  0  0
   25.5513  -21.1753  -14.7827 O   0  0  0  0  0  0  0  0  0  0  0  0
   22.3487  -18.7656  -16.4031 C   0  0  0  0  0  0  0  0  0  0  0  0
   23.2594  -17.5618  -16.1857 C   0  0  2  0  0  0  0  0  0  0  0  0
   22.5690  -16.2847  -16.5352 C   0  0  0  0  0  0  0  0  0  0  0  0
   24.6192  -17.7252  -16.7463 C   0  0  0  0  0  0  0  0  0  0  0  0
   25.3496  -18.9791  -16.4687 C   0  0  2  0  0  0  0  0  0  0  0  0
   26.0305  -18.9819  -15.1812 N   0  0  0  0  0  0  0  0  0  0  0  0
   26.2446  -19.4604  -17.5446 C   0  0  0  0  0  0  0  0  0  0  0  0
   27.4766  -19.2325  -17.5833 O   0  0  0  0  0  0  0  0  0  0  0  0
   25.7222  -20.2107  -18.5881 O   0  0  0  0  0  0  0  0  0  0  0  0
  2  1  1  1
  2  3  1  0
  4  3  1  0
  4  9  2  0
  5  4  1  0
  6  5  2  0
  6  7  1  0
  7  8  2  0
  8  9  1  0
 10  2  1  0
 10 17  1  0
 11 10  2  0
 13 14  1  6
 13 12  1  0
 15 13  1  0
 16 15  1  6
 17 16  1  0
 18 16  1  0
 19 18  2  0
 21 20  1  6
 21 23  1  0
 22 21  1  0
 24 23  1  6
 24 26  1  0
 24 25  1  0
 25 18  1  0
 26 28  1  0
 27 26  2  0
M  END
$$$$
