FLL.pdb
     RDKit          3D

 28 28  0  0  1  0  0  0  0  0999 V2000
   14.6129  -16.3266    4.5867 N   0  0  0  0  0  0  0  0  0  0  0  0
   15.6494  -17.1967    4.0346 C   0  0  1  0  0  0  0  0  0  0  0  0
   15.5746  -17.0415    2.5285 C   0  0  0  0  0  0  0  0  0  0  0  0
   15.8660  -18.3959    1.9409 C   0  0  0  0  0  0  0  0  0  0  0  0
   17.1424  -18.7475    1.5631 C   0  0  0  0  0  0  0  0  0  0  0  0
   17.4026  -19.9828    1.0282 C   0  0  0  0  0  0  0  0  0  0  0  0
   16.4012  -20.9056    0.8529 C   0  0  0  0  0  0  0  0  0  0  0  0
   15.1212  -20.5772    1.2222 C   0  0  0  0  0  0  0  0  0  0  0  0
   14.8747  -19.3322    1.7583 C   0  0  0  0  0  0  0  0  0  0  0  0
   16.9542  -16.7965    4.5768 C   0  0  0  0  0  0  0  0  0  0  0  0
   17.9872  -17.4749    4.3552 O   0  0  0  0  0  0  0  0  0  0  0  0
   19.6073  -13.0644    4.1932 C   0  0  0  0  0  0  0  0  0  0  0  0
   18.3178  -12.8078    5.0069 C   0  0  2  0  0  0  0  0  0  0  0  0
   18.3789  -11.3473    5.3713 C   0  0  0  0  0  0  0  0  0  0  0  0
   18.3676  -13.7567    6.1437 C   0  0  0  0  0  0  0  0  0  0  0  0
   18.3923  -15.2158    5.8143 C   0  0  2  0  0  0  0  0  0  0  0  0
   17.0854  -15.6288    5.3686 N   0  0  0  0  0  0  0  0  0  0  0  0
   18.6348  -15.9449    7.1147 C   0  0  0  0  0  0  0  0  0  0  0  0
   17.6991  -16.3889    7.8272 O   0  0  0  0  0  0  0  0  0  0  0  0
   22.4189  -19.7676    9.7157 C   0  0  0  0  0  0  0  0  0  0  0  0
   21.0216  -19.1566    9.7198 C   0  0  2  0  0  0  0  0  0  0  0  0
   19.9779  -20.1829   10.0158 C   0  0  0  0  0  0  0  0  0  0  0  0
   20.7429  -18.2806    8.5602 C   0  0  0  0  0  0  0  0  0  0  0  0
   20.2395  -16.9149    8.8140 C   0  0  2  0  0  0  0  0  0  0  0  0
   19.9566  -16.1646    7.5981 N   0  0  0  0  0  0  0  0  0  0  0  0
   21.0236  -16.1017    9.7703 C   0  0  0  0  0  0  0  0  0  0  0  0
   21.0219  -16.2860   11.0101 O   0  0  0  0  0  0  0  0  0  0  0  0
   21.8180  -15.0658    9.3008 O   0  0  0  0  0  0  0  0  0  0  0  0
  2  1  1  1
  2  3  1  0
  4  3  1  0
  4  9  2  0
  5  4  1  0
  6  5  2  0
  6  7  1  0
  7  8  2  0
  8  9  1  0
 10  2  1  0
 10 17  1  0
 11 10  2  0
 13 14  1  1
 13 12  1  0
 15 13  1  0
 16 15  1  1
 17 16  1  0
 18 16  1  0
 19 18  2  0
 21 20  1  6
 21 23  1  0
 22 21  1  0
 24 23  1  6
 24 26  1  0
 24 25  1  0
 25 18  1  0
 26 28  1  0
 27 26  2  0
M  END
$$$$
