MWF.pdb
     RDKit          3D

 34 36  0  0  1  0  0  0  0  0999 V2000
    8.2591  -12.7003   17.5683 C   0  0  0  0  0  0  0  0  0  0  0  0
    7.7906  -14.2129   16.7220 S   0  0  0  0  0  0  0  0  0  0  0  0
    8.1844  -15.6291   17.8045 C   0  0  0  0  0  0  0  0  0  0  0  0
    9.3714  -15.1909   18.6542 C   0  0  0  0  0  0  0  0  0  0  0  0
    9.6736  -16.2451   19.6870 C   0  0  2  0  0  0  0  0  0  0  0  0
    8.6176  -17.1934   19.8499 N   0  0  0  0  0  0  0  0  0  0  0  0
    9.9544  -15.5658   20.9740 C   0  0  0  0  0  0  0  0  0  0  0  0
   10.3585  -14.3671   20.9595 O   0  0  0  0  0  0  0  0  0  0  0  0
    9.8082  -16.1503   22.2493 N   0  0  0  0  0  0  0  0  0  0  0  0
   10.0967  -15.4211   23.4679 C   0  0  1  0  0  0  0  0  0  0  0  0
    9.2399  -14.2089   23.6062 C   0  0  0  0  0  0  0  0  0  0  0  0
    8.1232  -14.2927   24.5404 C   0  0  0  0  0  0  0  0  0  0  0  0
    7.3896  -15.4621   24.8500 C   0  0  0  0  0  0  0  0  0  0  0  0
    6.4646  -15.2051   25.7651 N   0  0  0  0  0  0  0  0  0  0  0  0
    6.5597  -13.9105   26.0703 C   0  0  0  0  0  0  0  0  0  0  0  0
    5.8495  -13.1143   26.9435 C   0  0  0  0  0  0  0  0  0  0  0  0
    6.1210  -11.7725   27.0913 C   0  0  0  0  0  0  0  0  0  0  0  0
    7.1369  -11.1817   26.3480 C   0  0  0  0  0  0  0  0  0  0  0  0
    7.8345  -11.9817   25.4852 C   0  0  0  0  0  0  0  0  0  0  0  0
    7.5713  -13.3256   25.3309 C   0  0  0  0  0  0  0  0  0  0  0  0
   10.1028  -16.2978   24.6284 C   0  0  0  0  0  0  0  0  0  0  0  0
    9.0857  -16.4077   25.3571 O   0  0  0  0  0  0  0  0  0  0  0  0
   11.2464  -17.0651   24.9763 N   0  0  0  0  0  0  0  0  0  0  0  0
   11.3798  -17.8139   26.2117 C   0  0  1  0  0  0  0  0  0  0  0  0
   10.1206  -17.4842   27.0184 C   0  0  0  0  0  0  0  0  0  0  0  0
   10.2022  -16.2104   27.7336 C   0  0  0  0  0  0  0  0  0  0  0  0
   11.2307  -16.0140   28.6330 C   0  0  0  0  0  0  0  0  0  0  0  0
   11.3821  -14.8562   29.3387 C   0  0  0  0  0  0  0  0  0  0  0  0
   10.4655  -13.8382   29.1434 C   0  0  0  0  0  0  0  0  0  0  0  0
    9.4308  -14.0377   28.2377 C   0  0  0  0  0  0  0  0  0  0  0  0
    9.2869  -15.2094   27.5306 C   0  0  0  0  0  0  0  0  0  0  0  0
   11.4445  -19.2497   25.8974 C   0  0  0  0  0  0  0  0  0  0  0  0
   11.6307  -20.1719   26.7253 O   0  0  0  0  0  0  0  0  0  0  0  0
   11.2867  -19.6556   24.5611 O   0  0  0  0  0  0  0  0  0  0  0  0
  1  2  1  0
  3  2  1  0
  4  3  1  0
  5  4  1  0
  5  6  1  1
  7  8  2  0
  7  5  1  0
  9  7  1  0
 10  9  1  0
 10 11  1  1
 11 12  1  0
 12 20  1  0
 12 13  2  0
 13 14  1  0
 15 16  2  0
 15 14  1  0
 17 16  1  0
 18 17  2  0
 19 18  1  0
 19 20  2  0
 20 15  1  0
 21 10  1  0
 22 21  2  0
 23 21  1  0
 24 23  1  0
 24 25  1  1
 25 26  1  0
 26 31  1  0
 27 26  2  0
 27 28  1  0
 28 29  2  0
 29 30  1  0
 31 30  2  0
 32 34  1  0
 32 24  1  0
 33 32  2  0
M  END
$$$$
