MWF.pdb
     RDKit          3D

 34 36  0  0  1  0  0  0  0  0999 V2000
    7.8828  -11.8431   18.3936 C   0  0  0  0  0  0  0  0  0  0  0  0
    8.2053  -13.0173   17.0742 S   0  0  0  0  0  0  0  0  0  0  0  0
    8.0696  -14.7059   17.7543 C   0  0  0  0  0  0  0  0  0  0  0  0
    8.2676  -14.5696   19.2593 C   0  0  0  0  0  0  0  0  0  0  0  0
    8.2634  -15.9339   19.8979 C   0  0  2  0  0  0  0  0  0  0  0  0
    7.1174  -16.7141   19.5528 N   0  0  0  0  0  0  0  0  0  0  0  0
    8.3387  -15.7578   21.3676 C   0  0  0  0  0  0  0  0  0  0  0  0
    7.9951  -14.6492   21.8710 O   0  0  0  0  0  0  0  0  0  0  0  0
    8.7710  -16.7409   22.2820 N   0  0  0  0  0  0  0  0  0  0  0  0
    8.9862  -16.4463   23.6845 C   0  0  1  0  0  0  0  0  0  0  0  0
    7.8719  -16.9524   24.5359 C   0  0  0  0  0  0  0  0  0  0  0  0
    6.9362  -15.9622   25.0563 C   0  0  0  0  0  0  0  0  0  0  0  0
    5.7703  -16.2404   25.8078 C   0  0  0  0  0  0  0  0  0  0  0  0
    5.1615  -15.1158   26.1595 N   0  0  0  0  0  0  0  0  0  0  0  0
    5.8810  -14.1065   25.6679 C   0  0  0  0  0  0  0  0  0  0  0  0
    5.7105  -12.7395   25.7234 C   0  0  0  0  0  0  0  0  0  0  0  0
    6.5929  -11.8701   25.1222 C   0  0  0  0  0  0  0  0  0  0  0  0
    7.6956  -12.3631   24.4332 C   0  0  0  0  0  0  0  0  0  0  0  0
    7.8543  -13.7208   24.3852 C   0  0  0  0  0  0  0  0  0  0  0  0
    6.9776  -14.5992   24.9844 C   0  0  0  0  0  0  0  0  0  0  0  0
   10.3149  -16.8480   24.1188 C   0  0  0  0  0  0  0  0  0  0  0  0
   10.8886  -17.8386   23.6021 O   0  0  0  0  0  0  0  0  0  0  0  0
   11.0148  -16.1368   25.1297 N   0  0  0  0  0  0  0  0  0  0  0  0
   12.3455  -16.4805   25.5945 C   0  0  1  0  0  0  0  0  0  0  0  0
   12.7387  -15.3535   26.5538 C   0  0  0  0  0  0  0  0  0  0  0  0
   11.7552  -15.1168   27.6110 C   0  0  0  0  0  0  0  0  0  0  0  0
   11.8406  -15.8481   28.7786 C   0  0  0  0  0  0  0  0  0  0  0  0
   10.9671  -15.6881   29.8144 C   0  0  0  0  0  0  0  0  0  0  0  0
    9.9544  -14.7538   29.6870 C   0  0  0  0  0  0  0  0  0  0  0  0
    9.8700  -14.0187   28.5109 C   0  0  0  0  0  0  0  0  0  0  0  0
   10.7562  -14.1875   27.4718 C   0  0  0  0  0  0  0  0  0  0  0  0
   12.2898  -17.7736   26.2938 C   0  0  0  0  0  0  0  0  0  0  0  0
   13.2739  -18.4015   26.7497 O   0  0  0  0  0  0  0  0  0  0  0  0
   11.0383  -18.3845   26.4840 O   0  0  0  0  0  0  0  0  0  0  0  0
  1  2  1  0
  3  2  1  0
  4  3  1  0
  5  4  1  0
  5  6  1  1
  7  8  2  0
  7  5  1  0
  9  7  1  0
 10  9  1  0
 10 11  1  1
 11 12  1  0
 12 20  1  0
 12 13  2  0
 13 14  1  0
 15 16  2  0
 15 14  1  0
 17 16  1  0
 18 17  2  0
 19 18  1  0
 19 20  2  0
 20 15  1  0
 21 10  1  0
 22 21  2  0
 23 21  1  0
 24 23  1  0
 24 25  1  1
 25 26  1  0
 26 31  1  0
 27 26  2  0
 27 28  1  0
 28 29  2  0
 29 30  1  0
 31 30  2  0
 32 34  1  0
 32 24  1  0
 33 32  2  0
M  END
$$$$
