MWF.pdb
     RDKit          3D

 34 36  0  0  1  0  0  0  0  0999 V2000
    8.7652  -23.3522   21.8347 C   0  0  0  0  0  0  0  0  0  0  0  0
    9.9487  -23.3733   20.4847 S   0  0  0  0  0  0  0  0  0  0  0  0
    9.7042  -21.8721   19.4753 C   0  0  0  0  0  0  0  0  0  0  0  0
    9.9575  -20.6933   20.4077 C   0  0  0  0  0  0  0  0  0  0  0  0
    9.6588  -19.4036   19.6888 C   0  0  2  0  0  0  0  0  0  0  0  0
   10.5502  -19.1442   18.6029 N   0  0  0  0  0  0  0  0  0  0  0  0
    9.7187  -18.2989   20.6750 C   0  0  0  0  0  0  0  0  0  0  0  0
   10.8162  -17.6960   20.8549 O   0  0  0  0  0  0  0  0  0  0  0  0
    8.6333  -17.8458   21.4535 N   0  0  0  0  0  0  0  0  0  0  0  0
    8.7744  -16.7790   22.4242 C   0  0  1  0  0  0  0  0  0  0  0  0
    7.5586  -15.9182   22.4844 C   0  0  0  0  0  0  0  0  0  0  0  0
    7.6652  -14.6772   23.2429 C   0  0  0  0  0  0  0  0  0  0  0  0
    8.4255  -13.5433   22.8715 C   0  0  0  0  0  0  0  0  0  0  0  0
    8.2773  -12.5697   23.7599 N   0  0  0  0  0  0  0  0  0  0  0  0
    7.4489  -13.0186   24.7035 C   0  0  0  0  0  0  0  0  0  0  0  0
    6.9595  -12.4369   25.8537 C   0  0  0  0  0  0  0  0  0  0  0  0
    6.1058  -13.1058   26.7021 C   0  0  0  0  0  0  0  0  0  0  0  0
    5.7124  -14.4072   26.4102 C   0  0  0  0  0  0  0  0  0  0  0  0
    6.2042  -14.9735   25.2663 C   0  0  0  0  0  0  0  0  0  0  0  0
    7.0581  -14.3123   24.4103 C   0  0  0  0  0  0  0  0  0  0  0  0
    9.2284  -17.2821   23.7111 C   0  0  0  0  0  0  0  0  0  0  0  0
    8.7559  -18.3424   24.1905 O   0  0  0  0  0  0  0  0  0  0  0  0
   10.2223  -16.6049   24.4669 N   0  0  0  0  0  0  0  0  0  0  0  0
   10.9167  -17.1828   25.6021 C   0  0  1  0  0  0  0  0  0  0  0  0
   11.7008  -16.0242   26.2248 C   0  0  0  0  0  0  0  0  0  0  0  0
   10.9122  -15.2212   27.1597 C   0  0  0  0  0  0  0  0  0  0  0  0
   10.8511  -15.6059   28.4840 C   0  0  0  0  0  0  0  0  0  0  0  0
   10.1422  -14.9129   29.4212 C   0  0  0  0  0  0  0  0  0  0  0  0
    9.4566  -13.7778   29.0258 C   0  0  0  0  0  0  0  0  0  0  0  0
    9.5192  -13.3922   27.6924 C   0  0  0  0  0  0  0  0  0  0  0  0
   10.2374  -14.0981   26.7546 C   0  0  0  0  0  0  0  0  0  0  0  0
    9.9255  -17.7183   26.5483 C   0  0  0  0  0  0  0  0  0  0  0  0
    8.6877  -17.5289   26.4960 O   0  0  0  0  0  0  0  0  0  0  0  0
   10.3734  -18.5165   27.6150 O   0  0  0  0  0  0  0  0  0  0  0  0
  1  2  1  0
  3  2  1  0
  4  3  1  0
  5  4  1  0
  5  6  1  6
  7  8  2  0
  7  5  1  0
  9  7  1  0
 10  9  1  0
 10 11  1  1
 11 12  1  0
 12 20  1  0
 12 13  2  0
 13 14  1  0
 15 16  2  0
 15 14  1  0
 17 16  1  0
 18 17  2  0
 19 18  1  0
 19 20  2  0
 20 15  1  0
 21 10  1  0
 22 21  2  0
 23 21  1  0
 24 23  1  0
 24 25  1  1
 25 26  1  0
 26 31  1  0
 27 26  2  0
 27 28  1  0
 28 29  2  0
 29 30  1  0
 31 30  2  0
 32 34  1  0
 32 24  1  0
 33 32  2  0
M  END
$$$$
