MWF.pdb
     RDKit          3D

 34 36  0  0  1  0  0  0  0  0999 V2000
    8.3820  -11.5797   18.8856 C   0  0  0  0  0  0  0  0  0  0  0  0
    7.7678  -12.6575   17.5876 S   0  0  0  0  0  0  0  0  0  0  0  0
    8.3826  -14.3481   17.8979 C   0  0  0  0  0  0  0  0  0  0  0  0
    8.6954  -14.4142   19.3881 C   0  0  0  0  0  0  0  0  0  0  0  0
    9.2470  -15.7733   19.7316 C   0  0  2  0  0  0  0  0  0  0  0  0
    8.3773  -16.8445   19.3614 N   0  0  0  0  0  0  0  0  0  0  0  0
    9.5129  -15.8105   21.1892 C   0  0  0  0  0  0  0  0  0  0  0  0
   10.4149  -15.0634   21.6675 O   0  0  0  0  0  0  0  0  0  0  0  0
    8.8331  -16.6259   22.1179 N   0  0  0  0  0  0  0  0  0  0  0  0
    9.0432  -16.5054   23.5467 C   0  0  1  0  0  0  0  0  0  0  0  0
    7.8770  -17.0128   24.3246 C   0  0  0  0  0  0  0  0  0  0  0  0
    7.0487  -16.0184   24.9969 C   0  0  0  0  0  0  0  0  0  0  0  0
    5.8148  -16.2691   25.6421 C   0  0  0  0  0  0  0  0  0  0  0  0
    5.3373  -15.1576   26.1857 N   0  0  0  0  0  0  0  0  0  0  0  0
    6.2087  -14.1831   25.9228 C   0  0  0  0  0  0  0  0  0  0  0  0
    6.2136  -12.8407   26.2371 C   0  0  0  0  0  0  0  0  0  0  0  0
    7.2345  -12.0042   25.8449 C   0  0  0  0  0  0  0  0  0  0  0  0
    8.3023  -12.5064   25.1092 C   0  0  0  0  0  0  0  0  0  0  0  0
    8.2866  -13.8396   24.8037 C   0  0  0  0  0  0  0  0  0  0  0  0
    7.2702  -14.6852   25.1924 C   0  0  0  0  0  0  0  0  0  0  0  0
   10.3284  -17.0559   23.9477 C   0  0  0  0  0  0  0  0  0  0  0  0
   10.7610  -18.1183   23.4364 O   0  0  0  0  0  0  0  0  0  0  0  0
   11.1428  -16.4148   24.9190 N   0  0  0  0  0  0  0  0  0  0  0  0
   12.2709  -17.0442   25.5795 C   0  0  1  0  0  0  0  0  0  0  0  0
   12.8783  -15.9517   26.4640 C   0  0  0  0  0  0  0  0  0  0  0  0
   11.8879  -15.2297   27.2633 C   0  0  0  0  0  0  0  0  0  0  0  0
   11.6153  -15.6674   28.5437 C   0  0  0  0  0  0  0  0  0  0  0  0
   10.7094  -15.0509   29.3565 C   0  0  0  0  0  0  0  0  0  0  0  0
   10.0372  -13.9413   28.8754 C   0  0  0  0  0  0  0  0  0  0  0  0
   10.3128  -13.5022   27.5863 C   0  0  0  0  0  0  0  0  0  0  0  0
   11.2286  -14.1311   26.7742 C   0  0  0  0  0  0  0  0  0  0  0  0
   11.7837  -18.1704   26.3910 C   0  0  0  0  0  0  0  0  0  0  0  0
   12.5009  -19.0302   26.9542 O   0  0  0  0  0  0  0  0  0  0  0  0
   10.3981  -18.3231   26.5705 O   0  0  0  0  0  0  0  0  0  0  0  0
  1  2  1  0
  3  2  1  0
  4  3  1  0
  5  4  1  0
  5  6  1  1
  7  8  2  0
  7  5  1  0
  9  7  1  0
 10  9  1  0
 10 11  1  1
 11 12  1  0
 12 20  1  0
 12 13  2  0
 13 14  1  0
 15 16  2  0
 15 14  1  0
 17 16  1  0
 18 17  2  0
 19 18  1  0
 19 20  2  0
 20 15  1  0
 21 10  1  0
 22 21  2  0
 23 21  1  0
 24 23  1  0
 24 25  1  1
 25 26  1  0
 26 31  1  0
 27 26  2  0
 27 28  1  0
 28 29  2  0
 29 30  1  0
 31 30  2  0
 32 34  1  0
 32 24  1  0
 33 32  2  0
M  END
$$$$
