MWF.pdb
     RDKit          3D

 34 36  0  0  1  0  0  0  0  0999 V2000
    7.9299  -12.1093   18.7221 C   0  0  0  0  0  0  0  0  0  0  0  0
    7.1592  -13.5745   18.0273 S   0  0  0  0  0  0  0  0  0  0  0  0
    8.1621  -15.0298   18.4843 C   0  0  0  0  0  0  0  0  0  0  0  0
    8.5330  -14.8405   19.9504 C   0  0  0  0  0  0  0  0  0  0  0  0
    9.2791  -16.0517   20.4461 C   0  0  2  0  0  0  0  0  0  0  0  0
    8.5619  -17.2724   20.2553 N   0  0  0  0  0  0  0  0  0  0  0  0
    9.5797  -15.8542   21.8840 C   0  0  0  0  0  0  0  0  0  0  0  0
   10.3034  -14.8763   22.2307 O   0  0  0  0  0  0  0  0  0  0  0  0
    9.1197  -16.6805   22.9305 N   0  0  0  0  0  0  0  0  0  0  0  0
    9.4470  -16.4197   24.3178 C   0  0  1  0  0  0  0  0  0  0  0  0
    8.2995  -16.7114   25.2238 C   0  0  0  0  0  0  0  0  0  0  0  0
    7.2961  -15.6641   25.3766 C   0  0  0  0  0  0  0  0  0  0  0  0
    5.9225  -15.8677   25.6475 C   0  0  0  0  0  0  0  0  0  0  0  0
    5.2920  -14.7067   25.7640 N   0  0  0  0  0  0  0  0  0  0  0  0
    6.1972  -13.7452   25.5794 C   0  0  0  0  0  0  0  0  0  0  0  0
    6.0958  -12.3702   25.5827 C   0  0  0  0  0  0  0  0  0  0  0  0
    7.1845  -11.5587   25.3541 C   0  0  0  0  0  0  0  0  0  0  0  0
    8.4328  -12.1208   25.1105 C   0  0  0  0  0  0  0  0  0  0  0  0
    8.5211  -13.4858   25.1100 C   0  0  0  0  0  0  0  0  0  0  0  0
    7.4378  -14.3065   25.3386 C   0  0  0  0  0  0  0  0  0  0  0  0
   10.7004  -17.0507   24.7005 C   0  0  0  0  0  0  0  0  0  0  0  0
   11.3411  -17.7569   23.8830 O   0  0  0  0  0  0  0  0  0  0  0  0
   11.2500  -16.8877   26.0001 N   0  0  0  0  0  0  0  0  0  0  0  0
   12.4927  -17.4932   26.4406 C   0  0  1  0  0  0  0  0  0  0  0  0
   12.7086  -16.9746   27.8652 C   0  0  0  0  0  0  0  0  0  0  0  0
   11.6109  -16.1408   28.3557 C   0  0  0  0  0  0  0  0  0  0  0  0
   10.8918  -16.5626   29.4559 C   0  0  0  0  0  0  0  0  0  0  0  0
    9.8563  -15.8450   29.9794 C   0  0  0  0  0  0  0  0  0  0  0  0
    9.5141  -14.6452   29.3810 C   0  0  0  0  0  0  0  0  0  0  0  0
   10.2389  -14.2223   28.2736 C   0  0  0  0  0  0  0  0  0  0  0  0
   11.2821  -14.9535   27.7532 C   0  0  0  0  0  0  0  0  0  0  0  0
   12.3434  -18.9568   26.4286 C   0  0  0  0  0  0  0  0  0  0  0  0
   13.2485  -19.7863   26.6802 O   0  0  0  0  0  0  0  0  0  0  0  0
   11.0883  -19.5044   26.1117 O   0  0  0  0  0  0  0  0  0  0  0  0
  1  2  1  0
  3  2  1  0
  4  3  1  0
  5  4  1  0
  5  6  1  1
  7  8  2  0
  7  5  1  0
  9  7  1  0
 10  9  1  0
 10 11  1  1
 11 12  1  0
 12 20  1  0
 12 13  2  0
 13 14  1  0
 15 16  2  0
 15 14  1  0
 17 16  1  0
 18 17  2  0
 19 18  1  0
 19 20  2  0
 20 15  1  0
 21 10  1  0
 22 21  2  0
 23 21  1  0
 24 23  1  0
 24 25  1  1
 25 26  1  0
 26 31  1  0
 27 26  2  0
 27 28  1  0
 28 29  2  0
 29 30  1  0
 31 30  2  0
 32 34  1  0
 32 24  1  0
 33 32  2  0
M  END
$$$$
