MWF.pdb
     RDKit          3D

 34 36  0  0  1  0  0  0  0  0999 V2000
    7.2414  -12.2049   18.0081 C   0  0  0  0  0  0  0  0  0  0  0  0
    8.8170  -12.6812   18.7252 S   0  0  0  0  0  0  0  0  0  0  0  0
    9.3867  -14.2118   17.9095 C   0  0  0  0  0  0  0  0  0  0  0  0
   10.6450  -14.6413   18.6545 C   0  0  0  0  0  0  0  0  0  0  0  0
   10.4496  -16.0203   19.2286 C   0  0  2  0  0  0  0  0  0  0  0  0
    9.4269  -16.7666   18.5666 N   0  0  0  0  0  0  0  0  0  0  0  0
   10.1304  -15.8814   20.6693 C   0  0  0  0  0  0  0  0  0  0  0  0
   10.8831  -15.1732   21.3989 O   0  0  0  0  0  0  0  0  0  0  0  0
    9.0332  -16.4839   21.3195 N   0  0  0  0  0  0  0  0  0  0  0  0
    8.7294  -16.2286   22.7133 C   0  0  1  0  0  0  0  0  0  0  0  0
    7.2646  -16.2923   22.9834 C   0  0  0  0  0  0  0  0  0  0  0  0
    6.8122  -15.8183   24.2863 C   0  0  0  0  0  0  0  0  0  0  0  0
    6.2512  -16.6192   25.3088 C   0  0  0  0  0  0  0  0  0  0  0  0
    5.9815  -15.8868   26.3811 N   0  0  0  0  0  0  0  0  0  0  0  0
    6.3424  -14.6333   26.1046 C   0  0  0  0  0  0  0  0  0  0  0  0
    6.2809  -13.4713   26.8442 C   0  0  0  0  0  0  0  0  0  0  0  0
    6.7112  -12.2639   26.3413 C   0  0  0  0  0  0  0  0  0  0  0  0
    7.2265  -12.1906   25.0519 C   0  0  0  0  0  0  0  0  0  0  0  0
    7.2828  -13.3498   24.3280 C   0  0  0  0  0  0  0  0  0  0  0  0
    6.8558  -14.5632   24.8224 C   0  0  0  0  0  0  0  0  0  0  0  0
    9.5475  -17.0431   23.5980 C   0  0  0  0  0  0  0  0  0  0  0  0
    9.6177  -18.2877   23.4450 O   0  0  0  0  0  0  0  0  0  0  0  0
   10.3005  -16.4675   24.6560 N   0  0  0  0  0  0  0  0  0  0  0  0
   11.2119  -17.2112   25.5053 C   0  0  1  0  0  0  0  0  0  0  0  0
   12.1324  -16.1565   26.1261 C   0  0  0  0  0  0  0  0  0  0  0  0
   11.4395  -15.2335   27.0254 C   0  0  0  0  0  0  0  0  0  0  0  0
   11.3265  -15.5613   28.3615 C   0  0  0  0  0  0  0  0  0  0  0  0
   10.6997  -14.7567   29.2677 C   0  0  0  0  0  0  0  0  0  0  0  0
   10.1553  -13.5633   28.8270 C   0  0  0  0  0  0  0  0  0  0  0  0
   10.2700  -13.2351   27.4818 C   0  0  0  0  0  0  0  0  0  0  0  0
   10.9045  -14.0536   26.5756 C   0  0  0  0  0  0  0  0  0  0  0  0
   10.4375  -17.9119   26.5415 C   0  0  0  0  0  0  0  0  0  0  0  0
    9.2189  -17.7451   26.7818 O   0  0  0  0  0  0  0  0  0  0  0  0
   11.0921  -18.8578   27.3490 O   0  0  0  0  0  0  0  0  0  0  0  0
  1  2  1  0
  3  2  1  0
  4  3  1  0
  5  4  1  0
  5  6  1  6
  7  8  2  0
  7  5  1  0
  9  7  1  0
 10  9  1  0
 10 11  1  6
 11 12  1  0
 12 20  1  0
 12 13  2  0
 13 14  1  0
 15 16  2  0
 15 14  1  0
 17 16  1  0
 18 17  2  0
 19 18  1  0
 19 20  2  0
 20 15  1  0
 21 10  1  0
 22 21  2  0
 23 21  1  0
 24 23  1  0
 24 25  1  1
 25 26  1  0
 26 31  1  0
 27 26  2  0
 27 28  1  0
 28 29  2  0
 29 30  1  0
 31 30  2  0
 32 34  1  0
 32 24  1  0
 33 32  2  0
M  END
$$$$
