CAF.pdb
     RDKit          3D

 23 23  0  0  1  0  0  0  0  0999 V2000
   26.9754  -18.4895  -15.1286 N   0  0  0  0  0  0  0  0  0  0  0  0
   26.7669  -19.7839  -14.4614 C   0  0  1  0  0  0  0  0  0  0  0  0
   28.0746  -20.5339  -14.4493 C   0  0  0  0  0  0  0  0  0  0  0  0
   27.8142  -22.1175  -13.6099 S   0  0  0  0  0  0  0  0  0  0  0  0
   26.3163  -19.4952  -13.0757 C   0  0  0  0  0  0  0  0  0  0  0  0
   27.0096  -18.8056  -12.2721 O   0  0  0  0  0  0  0  0  0  0  0  0
   23.2041  -19.9987  -11.0253 C   0  0  0  0  0  0  0  0  0  0  0  0
   24.6816  -19.7933  -11.2493 C   0  0  2  0  0  0  0  0  0  0  0  0
   25.0805  -19.9890  -12.6041 N   0  0  0  0  0  0  0  0  0  0  0  0
   25.4472  -20.6887  -10.3143 C   0  0  0  0  0  0  0  0  0  0  0  0
   25.7111  -21.8528  -10.7189 O   0  0  0  0  0  0  0  0  0  0  0  0
   25.8577  -20.2644   -9.0444 N   0  0  0  0  0  0  0  0  0  0  0  0
   26.4419  -21.2175   -8.1156 C   0  0  1  0  0  0  0  0  0  0  0  0
   27.8283  -20.7642   -7.7857 C   0  0  0  0  0  0  0  0  0  0  0  0
   27.9117  -20.0324   -6.5091 C   0  0  0  0  0  0  0  0  0  0  0  0
   27.5492  -18.7055   -6.3814 C   0  0  0  0  0  0  0  0  0  0  0  0
   27.6519  -18.1056   -5.1560 C   0  0  0  0  0  0  0  0  0  0  0  0
   28.1080  -18.7914   -4.0451 C   0  0  0  0  0  0  0  0  0  0  0  0
   28.4627  -20.1057   -4.1902 C   0  0  0  0  0  0  0  0  0  0  0  0
   28.3661  -20.7162   -5.4023 C   0  0  0  0  0  0  0  0  0  0  0  0
   25.5802  -21.4389   -6.9464 C   0  0  0  0  0  0  0  0  0  0  0  0
   25.8690  -22.4762   -6.0480 O   0  0  0  0  0  0  0  0  0  0  0  0
   24.5741  -20.7471   -6.6843 O   0  0  0  0  0  0  0  0  0  0  0  0
  2  1  1  6
  3  4  1  0
  3  2  1  0
  5  2  1  0
  5  9  1  0
  6  5  2  0
  8  9  1  0
  8 10  1  0
  8  7  1  6
 10 12  1  0
 11 10  2  0
 12 13  1  0
 13 14  1  1
 14 15  1  0
 15 20  2  0
 15 16  1  0
 16 17  2  0
 17 18  1  0
 19 18  2  0
 20 19  1  0
 21 22  1  0
 21 13  1  0
 23 21  2  0
M  END
$$$$
