CAF.pdb
     RDKit          3D

 23 23  0  0  1  0  0  0  0  0999 V2000
   29.1073  -18.3263  -16.7381 N   0  0  0  0  0  0  0  0  0  0  0  0
   28.8474  -19.2599  -15.6313 C   0  0  1  0  0  0  0  0  0  0  0  0
   30.0893  -19.3554  -14.7821 C   0  0  0  0  0  0  0  0  0  0  0  0
   29.7544  -20.4898  -13.4104 S   0  0  0  0  0  0  0  0  0  0  0  0
   27.7169  -18.7034  -14.8447 C   0  0  0  0  0  0  0  0  0  0  0  0
   27.5729  -17.4596  -14.6601 O   0  0  0  0  0  0  0  0  0  0  0  0
   24.6095  -18.3954  -14.5357 C   0  0  0  0  0  0  0  0  0  0  0  0
   25.6091  -19.0293  -13.6006 C   0  0  2  0  0  0  0  0  0  0  0  0
   26.7521  -19.5583  -14.2690 N   0  0  0  0  0  0  0  0  0  0  0  0
   24.9135  -20.0814  -12.7813 C   0  0  0  0  0  0  0  0  0  0  0  0
   24.6396  -21.1700  -13.3546 O   0  0  0  0  0  0  0  0  0  0  0  0
   24.5765  -19.8782  -11.4373 N   0  0  0  0  0  0  0  0  0  0  0  0
   23.9654  -20.9527  -10.6729 C   0  0  1  0  0  0  0  0  0  0  0  0
   24.1330  -20.6499   -9.2180 C   0  0  0  0  0  0  0  0  0  0  0  0
   25.5328  -20.3911   -8.8361 C   0  0  0  0  0  0  0  0  0  0  0  0
   25.9355  -19.2268   -8.2110 C   0  0  0  0  0  0  0  0  0  0  0  0
   27.2553  -19.0721   -7.8852 C   0  0  0  0  0  0  0  0  0  0  0  0
   28.1939  -20.0486   -8.1647 C   0  0  0  0  0  0  0  0  0  0  0  0
   27.7769  -21.1958   -8.7845 C   0  0  0  0  0  0  0  0  0  0  0  0
   26.4677  -21.3643   -9.1147 C   0  0  0  0  0  0  0  0  0  0  0  0
   22.5771  -21.1965  -11.0872 C   0  0  0  0  0  0  0  0  0  0  0  0
   22.0359  -22.4875  -11.0030 O   0  0  0  0  0  0  0  0  0  0  0  0
   21.8166  -20.3076  -11.5242 O   0  0  0  0  0  0  0  0  0  0  0  0
  2  1  1  6
  3  4  1  0
  3  2  1  0
  5  2  1  0
  5  9  1  0
  6  5  2  0
  8  9  1  0
  8 10  1  0
  8  7  1  6
 10 12  1  0
 11 10  2  0
 12 13  1  0
 13 14  1  1
 14 15  1  0
 15 20  2  0
 15 16  1  0
 16 17  2  0
 17 18  1  0
 19 18  2  0
 20 19  1  0
 21 22  1  0
 21 13  1  0
 23 21  2  0
M  END
$$$$
