CAF.pdb
     RDKit          3D

 23 23  0  0  1  0  0  0  0  0999 V2000
   33.6317  -25.6461  -15.2791 N   0  0  0  0  0  0  0  0  0  0  0  0
   33.0088  -24.8135  -16.3197 C   0  0  1  0  0  0  0  0  0  0  0  0
   33.2468  -25.4621  -17.6597 C   0  0  0  0  0  0  0  0  0  0  0  0
   32.6272  -27.1625  -17.5865 S   0  0  0  0  0  0  0  0  0  0  0  0
   31.5555  -24.7508  -16.0194 C   0  0  0  0  0  0  0  0  0  0  0  0
   30.9795  -25.6151  -15.2960 O   0  0  0  0  0  0  0  0  0  0  0  0
   28.7302  -22.3336  -16.6472 C   0  0  0  0  0  0  0  0  0  0  0  0
   29.3583  -23.6536  -16.2750 C   0  0  2  0  0  0  0  0  0  0  0  0
   30.7582  -23.7082  -16.5397 N   0  0  0  0  0  0  0  0  0  0  0  0
   28.6209  -24.7611  -16.9764 C   0  0  0  0  0  0  0  0  0  0  0  0
   28.9596  -25.0171  -18.1631 O   0  0  0  0  0  0  0  0  0  0  0  0
   27.5988  -25.4880  -16.3534 N   0  0  0  0  0  0  0  0  0  0  0  0
   26.8731  -26.5028  -17.0990 C   0  0  1  0  0  0  0  0  0  0  0  0
   26.6370  -27.6715  -16.1964 C   0  0  0  0  0  0  0  0  0  0  0  0
   25.8000  -28.7186  -16.8088 C   0  0  0  0  0  0  0  0  0  0  0  0
   26.2745  -29.5897  -17.7703 C   0  0  0  0  0  0  0  0  0  0  0  0
   25.4297  -30.5372  -18.2808 C   0  0  0  0  0  0  0  0  0  0  0  0
   24.1166  -30.6449  -17.8603 C   0  0  0  0  0  0  0  0  0  0  0  0
   23.6635  -29.7733  -16.9068 C   0  0  0  0  0  0  0  0  0  0  0  0
   24.4916  -28.8256  -16.3895 C   0  0  0  0  0  0  0  0  0  0  0  0
   25.6578  -25.9592  -17.7203 C   0  0  0  0  0  0  0  0  0  0  0  0
   25.1159  -24.7497  -17.2619 O   0  0  0  0  0  0  0  0  0  0  0  0
   25.0502  -26.5142  -18.6596 O   0  0  0  0  0  0  0  0  0  0  0  0
  2  1  1  1
  3  4  1  0
  3  2  1  0
  5  2  1  0
  5  9  1  0
  6  5  2  0
  8  9  1  0
  8 10  1  0
  8  7  1  6
 10 12  1  0
 11 10  2  0
 12 13  1  0
 13 14  1  1
 14 15  1  0
 15 20  2  0
 15 16  1  0
 16 17  2  0
 17 18  1  0
 19 18  2  0
 20 19  1  0
 21 22  1  0
 21 13  1  0
 23 21  2  0
M  END
$$$$
