CAF.pdb
     RDKit          3D

 23 23  0  0  1  0  0  0  0  0999 V2000
   27.5122  -21.1485  -10.5190 N   0  0  0  0  0  0  0  0  0  0  0  0
   26.0946  -21.4680  -10.7483 C   0  0  1  0  0  0  0  0  0  0  0  0
   25.2501  -20.4517  -10.0227 C   0  0  0  0  0  0  0  0  0  0  0  0
   25.4989  -20.6726   -8.2423 S   0  0  0  0  0  0  0  0  0  0  0  0
   25.8599  -21.3935  -12.2132 C   0  0  0  0  0  0  0  0  0  0  0  0
   26.4142  -20.5182  -12.9403 O   0  0  0  0  0  0  0  0  0  0  0  0
   23.9539  -23.3818  -14.7948 C   0  0  0  0  0  0  0  0  0  0  0  0
   24.6950  -22.1914  -14.2388 C   0  0  2  0  0  0  0  0  0  0  0  0
   24.9972  -22.3115  -12.8506 N   0  0  0  0  0  0  0  0  0  0  0  0
   23.9031  -20.9451  -14.5248 C   0  0  0  0  0  0  0  0  0  0  0  0
   23.2703  -20.4316  -13.5634 O   0  0  0  0  0  0  0  0  0  0  0  0
   23.8590  -20.3655  -15.7989 N   0  0  0  0  0  0  0  0  0  0  0  0
   23.1748  -19.0984  -15.9954 C   0  0  1  0  0  0  0  0  0  0  0  0
   23.9341  -18.0355  -15.2673 C   0  0  0  0  0  0  0  0  0  0  0  0
   25.3334  -17.9123  -15.7132 C   0  0  0  0  0  0  0  0  0  0  0  0
   25.6819  -17.4442  -16.9654 C   0  0  0  0  0  0  0  0  0  0  0  0
   27.0070  -17.3557  -17.2944 C   0  0  0  0  0  0  0  0  0  0  0  0
   28.0037  -17.7218  -16.4083 C   0  0  0  0  0  0  0  0  0  0  0  0
   27.6398  -18.1835  -15.1719 C   0  0  0  0  0  0  0  0  0  0  0  0
   26.3262  -18.2772  -14.8300 C   0  0  0  0  0  0  0  0  0  0  0  0
   22.9471  -18.8158  -17.4191 C   0  0  0  0  0  0  0  0  0  0  0  0
   23.5728  -19.5999  -18.3991 O   0  0  0  0  0  0  0  0  0  0  0  0
   22.2115  -17.8966  -17.8357 O   0  0  0  0  0  0  0  0  0  0  0  0
  2  1  1  6
  3  4  1  0
  3  2  1  0
  5  2  1  0
  5  9  1  0
  6  5  2  0
  8  9  1  0
  8 10  1  0
  8  7  1  1
 10 12  1  0
 11 10  2  0
 12 13  1  0
 13 14  1  6
 14 15  1  0
 15 20  2  0
 15 16  1  0
 16 17  2  0
 17 18  1  0
 19 18  2  0
 20 19  1  0
 21 22  1  0
 21 13  1  0
 23 21  2  0
M  END
$$$$
