CAF.pdb
     RDKit          3D

 23 23  0  0  1  0  0  0  0  0999 V2000
   20.9734  -12.1729  -17.3789 N   0  0  0  0  0  0  0  0  0  0  0  0
   19.8702  -11.2819  -16.9872 C   0  0  1  0  0  0  0  0  0  0  0  0
   19.5201  -11.5561  -15.5467 C   0  0  0  0  0  0  0  0  0  0  0  0
   18.5518  -13.0852  -15.4780 S   0  0  0  0  0  0  0  0  0  0  0  0
   20.3537   -9.8871  -17.1520 C   0  0  0  0  0  0  0  0  0  0  0  0
   21.5346   -9.5439  -16.8525 O   0  0  0  0  0  0  0  0  0  0  0  0
   19.0550   -6.7405  -18.7618 C   0  0  0  0  0  0  0  0  0  0  0  0
   19.9767   -7.5631  -17.8962 C   0  0  2  0  0  0  0  0  0  0  0  0
   19.4972   -8.8842  -17.6558 N   0  0  0  0  0  0  0  0  0  0  0  0
   20.2278   -6.8252  -16.6099 C   0  0  0  0  0  0  0  0  0  0  0  0
   19.4249   -7.0328  -15.6607 O   0  0  0  0  0  0  0  0  0  0  0  0
   21.3026   -5.9410  -16.4548 N   0  0  0  0  0  0  0  0  0  0  0  0
   21.4985   -5.2530  -15.1897 C   0  0  1  0  0  0  0  0  0  0  0  0
   22.8715   -5.5699  -14.6889 C   0  0  0  0  0  0  0  0  0  0  0  0
   23.0778   -7.0059  -14.4290 C   0  0  0  0  0  0  0  0  0  0  0  0
   23.9787   -7.7740  -15.1409 C   0  0  0  0  0  0  0  0  0  0  0  0
   24.1116   -9.0994  -14.8283 C   0  0  0  0  0  0  0  0  0  0  0  0
   23.3694   -9.6882  -13.8209 C   0  0  0  0  0  0  0  0  0  0  0  0
   22.4815   -8.9118  -13.1258 C   0  0  0  0  0  0  0  0  0  0  0  0
   22.3381   -7.5923  -13.4250 C   0  0  0  0  0  0  0  0  0  0  0  0
   21.2073   -3.8170  -15.2983 C   0  0  0  0  0  0  0  0  0  0  0  0
   20.8922   -3.2571  -16.5448 O   0  0  0  0  0  0  0  0  0  0  0  0
   21.2202   -3.0305  -14.3283 O   0  0  0  0  0  0  0  0  0  0  0  0
  2  1  1  1
  3  4  1  0
  3  2  1  0
  5  2  1  0
  5  9  1  0
  6  5  2  0
  8  9  1  0
  8 10  1  0
  8  7  1  6
 10 12  1  0
 11 10  2  0
 12 13  1  0
 13 14  1  6
 14 15  1  0
 15 20  2  0
 15 16  1  0
 16 17  2  0
 17 18  1  0
 19 18  2  0
 20 19  1  0
 21 22  1  0
 21 13  1  0
 23 21  2  0
M  END
$$$$
