CAF.pdb
     RDKit          3D

 23 23  0  0  1  0  0  0  0  0999 V2000
   26.1531  -38.2262  -10.1616 N   0  0  0  0  0  0  0  0  0  0  0  0
   26.2018  -38.6175   -8.7443 C   0  0  1  0  0  0  0  0  0  0  0  0
   27.6119  -38.4333   -8.2437 C   0  0  0  0  0  0  0  0  0  0  0  0
   28.6708  -39.6513   -9.0657 S   0  0  0  0  0  0  0  0  0  0  0  0
   25.2657  -37.7271   -8.0113 C   0  0  0  0  0  0  0  0  0  0  0  0
   24.9468  -36.5817   -8.4452 O   0  0  0  0  0  0  0  0  0  0  0  0
   22.5306  -38.1952   -5.6326 C   0  0  0  0  0  0  0  0  0  0  0  0
   23.6736  -37.3636   -6.1593 C   0  0  2  0  0  0  0  0  0  0  0  0
   24.6931  -38.1373   -6.7876 N   0  0  0  0  0  0  0  0  0  0  0  0
   24.2278  -36.5281   -5.0381 C   0  0  0  0  0  0  0  0  0  0  0  0
   25.2847  -36.9348   -4.4849 O   0  0  0  0  0  0  0  0  0  0  0  0
   23.6095  -35.3455   -4.6132 N   0  0  0  0  0  0  0  0  0  0  0  0
   24.1543  -34.6074   -3.4860 C   0  0  1  0  0  0  0  0  0  0  0  0
   24.7807  -33.3520   -4.0037 C   0  0  0  0  0  0  0  0  0  0  0  0
   25.1662  -32.4121   -2.9359 C   0  0  0  0  0  0  0  0  0  0  0  0
   26.2473  -32.6273   -2.1032 C   0  0  0  0  0  0  0  0  0  0  0  0
   26.5383  -31.6983   -1.1418 C   0  0  0  0  0  0  0  0  0  0  0  0
   25.7801  -30.5527   -0.9826 C   0  0  0  0  0  0  0  0  0  0  0  0
   24.7125  -30.3560   -1.8167 C   0  0  0  0  0  0  0  0  0  0  0  0
   24.4105  -31.2707   -2.7776 C   0  0  0  0  0  0  0  0  0  0  0  0
   23.1501  -34.3970   -2.4345 C   0  0  0  0  0  0  0  0  0  0  0  0
   23.5514  -34.2625   -1.0975 O   0  0  0  0  0  0  0  0  0  0  0  0
   21.9222  -34.3265   -2.6509 O   0  0  0  0  0  0  0  0  0  0  0  0
  2  1  1  6
  3  4  1  0
  3  2  1  0
  5  2  1  0
  5  9  1  0
  6  5  2  0
  8  9  1  0
  8 10  1  0
  8  7  1  1
 10 12  1  0
 11 10  2  0
 12 13  1  0
 13 14  1  6
 14 15  1  0
 15 20  2  0
 15 16  1  0
 16 17  2  0
 17 18  1  0
 19 18  2  0
 20 19  1  0
 21 22  1  0
 21 13  1  0
 23 21  2  0
M  END
$$$$
