CAF.pdb
     RDKit          3D

 23 23  0  0  1  0  0  0  0  0999 V2000
   24.3263  -14.2079  -20.2832 N   0  0  0  0  0  0  0  0  0  0  0  0
   23.6186  -13.8791  -19.0361 C   0  0  1  0  0  0  0  0  0  0  0  0
   24.4849  -14.2854  -17.8711 C   0  0  0  0  0  0  0  0  0  0  0  0
   24.4919  -16.0938  -17.7711 S   0  0  0  0  0  0  0  0  0  0  0  0
   23.3934  -12.4109  -19.0338 C   0  0  0  0  0  0  0  0  0  0  0  0
   24.2878  -11.5919  -19.3961 O   0  0  0  0  0  0  0  0  0  0  0  0
   20.5329  -10.1521  -19.2676 C   0  0  0  0  0  0  0  0  0  0  0  0
   21.8960  -10.4748  -18.7079 C   0  0  2  0  0  0  0  0  0  0  0  0
   22.1546  -11.8743  -18.6207 N   0  0  0  0  0  0  0  0  0  0  0  0
   22.0478   -9.8019  -17.3713 C   0  0  0  0  0  0  0  0  0  0  0  0
   21.6634  -10.4433  -16.3567 O   0  0  0  0  0  0  0  0  0  0  0  0
   22.5907   -8.5177  -17.2402 N   0  0  0  0  0  0  0  0  0  0  0  0
   22.6239   -7.8744  -15.9374 C   0  0  1  0  0  0  0  0  0  0  0  0
   24.0252   -7.4262  -15.6691 C   0  0  0  0  0  0  0  0  0  0  0  0
   25.0103   -8.5193  -15.7511 C   0  0  0  0  0  0  0  0  0  0  0  0
   25.9009   -8.6478  -16.7993 C   0  0  0  0  0  0  0  0  0  0  0  0
   26.7871   -9.6902  -16.7917 C   0  0  0  0  0  0  0  0  0  0  0  0
   26.8143  -10.6158  -15.7645 C   0  0  0  0  0  0  0  0  0  0  0  0
   25.9245  -10.4728  -14.7339 C   0  0  0  0  0  0  0  0  0  0  0  0
   25.0371   -9.4414  -14.7273 C   0  0  0  0  0  0  0  0  0  0  0  0
   21.6143   -6.8128  -15.8268 C   0  0  0  0  0  0  0  0  0  0  0  0
   21.3174   -6.2542  -14.5753 O   0  0  0  0  0  0  0  0  0  0  0  0
   20.9786   -6.3550  -16.7994 O   0  0  0  0  0  0  0  0  0  0  0  0
  2  1  1  6
  3  4  1  0
  3  2  1  0
  5  2  1  0
  5  9  1  0
  6  5  2  0
  8  9  1  0
  8 10  1  0
  8  7  1  1
 10 12  1  0
 11 10  2  0
 12 13  1  0
 13 14  1  6
 14 15  1  0
 15 20  2  0
 15 16  1  0
 16 17  2  0
 17 18  1  0
 19 18  2  0
 20 19  1  0
 21 22  1  0
 21 13  1  0
 23 21  2  0
M  END
$$$$
