ASN.pdb
     RDKit          3D

 20 19  0  0  1  0  0  0  0  0999 V2000
   21.8464  -12.7844  -19.8927 C   0  0  0  0  0  0  0  0  0  0  0  0
   22.1477  -11.6164  -18.9636 C   0  0  2  0  0  0  0  0  0  0  0  0
   22.7325  -12.1094  -17.7437 N   0  0  0  0  0  0  0  0  0  0  0  0
   20.8368  -10.9570  -18.7194 C   0  0  0  0  0  0  0  0  0  0  0  0
   20.2875  -10.3238  -19.6434 O   0  0  0  0  0  0  0  0  0  0  0  0
   18.6293  -11.5542  -15.0690 O   0  0  0  0  0  0  0  0  0  0  0  0
   18.0652  -11.2462  -16.2938 C   0  0  0  0  0  0  0  0  0  0  0  0
   18.9875  -10.3781  -17.1030 C   0  0  2  0  0  0  0  0  0  0  0  0
   20.2146  -11.0380  -17.4702 N   0  0  0  0  0  0  0  0  0  0  0  0
   19.2076   -9.0620  -16.4806 C   0  0  0  0  0  0  0  0  0  0  0  0
   18.2040   -8.3246  -16.2965 O   0  0  0  0  0  0  0  0  0  0  0  0
   21.1206   -4.9516  -14.0163 N   0  0  0  0  0  0  0  0  0  0  0  0
   22.0601   -5.9911  -13.8139 C   0  0  0  0  0  0  0  0  0  0  0  0
   23.0616   -5.8341  -13.0875 O   0  0  0  0  0  0  0  0  0  0  0  0
   21.8167   -7.2765  -14.4942 C   0  0  0  0  0  0  0  0  0  0  0  0
   20.6519   -7.2549  -15.4408 C   0  0  2  0  0  0  0  0  0  0  0  0
   20.4535   -8.5624  -16.0752 N   0  0  0  0  0  0  0  0  0  0  0  0
   20.8763   -6.2096  -16.4653 C   0  0  0  0  0  0  0  0  0  0  0  0
   20.2260   -4.9973  -16.4362 O   0  0  0  0  0  0  0  0  0  0  0  0
   21.6888   -6.4483  -17.3842 O   0  0  0  0  0  0  0  0  0  0  0  0
  2  1  1  6
  2  4  1  0
  2  3  1  0
  4  5  2  0
  8  7  1  1
  7  6  1  0
  9  4  1  0
  9  8  1  0
 10  8  1  0
 10 11  2  0
 12 13  1  0
 13 15  1  0
 13 14  2  0
 16 15  1  1
 16 17  1  0
 16 18  1  0
 17 10  1  0
 18 19  1  0
 20 18  2  0
M  END
$$$$
