ASN.pdb
     RDKit          3D

 20 19  0  0  1  0  0  0  0  0999 V2000
   17.3375  -11.4562  -18.2787 C   0  0  0  0  0  0  0  0  0  0  0  0
   18.3841  -10.4899  -18.8165 C   0  0  2  0  0  0  0  0  0  0  0  0
   19.2650  -11.1862  -19.7177 N   0  0  0  0  0  0  0  0  0  0  0  0
   19.1077   -9.9842  -17.6192 C   0  0  0  0  0  0  0  0  0  0  0  0
   18.4761   -9.3729  -16.7339 O   0  0  0  0  0  0  0  0  0  0  0  0
   23.2782  -10.0604  -15.1094 O   0  0  0  0  0  0  0  0  0  0  0  0
   22.5668  -10.5075  -16.2081 C   0  0  0  0  0  0  0  0  0  0  0  0
   21.2796   -9.7459  -16.3566 C   0  0  2  0  0  0  0  0  0  0  0  0
   20.4835  -10.1854  -17.4743 N   0  0  0  0  0  0  0  0  0  0  0  0
   21.4858   -8.2882  -16.3368 C   0  0  0  0  0  0  0  0  0  0  0  0
   21.5249   -7.6859  -17.4416 O   0  0  0  0  0  0  0  0  0  0  0  0
   21.7488   -3.3069  -15.1893 N   0  0  0  0  0  0  0  0  0  0  0  0
   20.6165   -3.9228  -15.7749 C   0  0  0  0  0  0  0  0  0  0  0  0
   19.6986   -3.2508  -16.2859 O   0  0  0  0  0  0  0  0  0  0  0  0
   20.5547   -5.3960  -15.7620 C   0  0  0  0  0  0  0  0  0  0  0  0
   21.7693   -6.0526  -15.1730 C   0  0  2  0  0  0  0  0  0  0  0  0
   21.6434   -7.5139  -15.1784 N   0  0  0  0  0  0  0  0  0  0  0  0
   21.9714   -5.5541  -13.7934 C   0  0  0  0  0  0  0  0  0  0  0  0
   21.8306   -6.3630  -12.6892 O   0  0  0  0  0  0  0  0  0  0  0  0
   22.2818   -4.3535  -13.6391 O   0  0  0  0  0  0  0  0  0  0  0  0
  2  1  1  1
  2  4  1  0
  2  3  1  0
  4  5  2  0
  8  7  1  6
  7  6  1  0
  9  4  1  0
  9  8  1  0
 10  8  1  0
 10 11  2  0
 12 13  1  0
 13 15  1  0
 13 14  2  0
 16 15  1  1
 16 17  1  0
 16 18  1  0
 17 10  1  0
 18 19  1  0
 20 18  2  0
M  END
$$$$
