ASN.pdb
     RDKit          3D

 20 19  0  0  1  0  0  0  0  0999 V2000
   15.8355  -10.1001  -16.0046 C   0  0  0  0  0  0  0  0  0  0  0  0
   16.9109  -11.1743  -16.0932 C   0  0  2  0  0  0  0  0  0  0  0  0
   16.4805  -12.3475  -15.3781 N   0  0  0  0  0  0  0  0  0  0  0  0
   18.1248  -10.5700  -15.4812 C   0  0  0  0  0  0  0  0  0  0  0  0
   18.1732  -10.4104  -14.2448 O   0  0  0  0  0  0  0  0  0  0  0  0
   22.8147   -9.7337  -15.8050 O   0  0  0  0  0  0  0  0  0  0  0  0
   21.6647  -10.2984  -16.3264 C   0  0  0  0  0  0  0  0  0  0  0  0
   20.4410   -9.6153  -15.7834 C   0  0  2  0  0  0  0  0  0  0  0  0
   19.2090  -10.1801  -16.2727 N   0  0  0  0  0  0  0  0  0  0  0  0
   20.5021   -8.1521  -15.9361 C   0  0  0  0  0  0  0  0  0  0  0  0
   19.9641   -7.6454  -16.9552 O   0  0  0  0  0  0  0  0  0  0  0  0
   19.9248   -3.1193  -16.6149 N   0  0  0  0  0  0  0  0  0  0  0  0
   19.8872   -3.7112  -15.3294 C   0  0  0  0  0  0  0  0  0  0  0  0
   19.8818   -3.0195  -14.2917 O   0  0  0  0  0  0  0  0  0  0  0  0
   19.8544   -5.1835  -15.2538 C   0  0  0  0  0  0  0  0  0  0  0  0
   21.2121   -5.8234  -15.2251 C   0  0  2  0  0  0  0  0  0  0  0  0
   21.1160   -7.2741  -15.0314 N   0  0  0  0  0  0  0  0  0  0  0  0
   22.0177   -5.2078  -14.1459 C   0  0  0  0  0  0  0  0  0  0  0  0
   22.5279   -3.9335  -14.2423 O   0  0  0  0  0  0  0  0  0  0  0  0
   22.2347   -5.8794  -13.1147 O   0  0  0  0  0  0  0  0  0  0  0  0
  2  1  1  1
  2  4  1  0
  2  3  1  0
  4  5  2  0
  8  7  1  6
  7  6  1  0
  9  4  1  0
  9  8  1  0
 10  8  1  0
 10 11  2  0
 12 13  1  0
 13 15  1  0
 13 14  2  0
 16 15  1  1
 16 17  1  0
 16 18  1  0
 17 10  1  0
 18 19  1  0
 20 18  2  0
M  END
$$$$
