ASN.pdb
     RDKit          3D

 20 19  0  0  1  0  0  0  0  0999 V2000
   11.5186  -11.3735  -11.7035 C   0  0  0  0  0  0  0  0  0  0  0  0
   12.7319  -12.2913  -11.7644 C   0  0  2  0  0  0  0  0  0  0  0  0
   12.4479  -13.5132  -11.0577 N   0  0  0  0  0  0  0  0  0  0  0  0
   13.8372  -11.5285  -11.1245 C   0  0  0  0  0  0  0  0  0  0  0  0
   13.7717  -11.2581   -9.9084 O   0  0  0  0  0  0  0  0  0  0  0  0
   17.0140   -9.8322  -13.4702 O   0  0  0  0  0  0  0  0  0  0  0  0
   17.2714  -10.4040  -12.2374 C   0  0  0  0  0  0  0  0  0  0  0  0
   16.0542  -10.3460  -11.3575 C   0  0  2  0  0  0  0  0  0  0  0  0
   14.9457  -11.1122  -11.8676 N   0  0  0  0  0  0  0  0  0  0  0  0
   15.6835   -8.9654  -11.0045 C   0  0  0  0  0  0  0  0  0  0  0  0
   14.8022   -8.3979  -11.7016 O   0  0  0  0  0  0  0  0  0  0  0  0
   15.0844   -4.3841   -8.6870 N   0  0  0  0  0  0  0  0  0  0  0  0
   15.6953   -5.2201   -7.7215 C   0  0  0  0  0  0  0  0  0  0  0  0
   15.8813   -4.8367   -6.5494 O   0  0  0  0  0  0  0  0  0  0  0  0
   16.1089   -6.5698   -8.1474 C   0  0  0  0  0  0  0  0  0  0  0  0
   15.8379   -6.8629   -9.5945 C   0  0  2  0  0  0  0  0  0  0  0  0
   16.2381   -8.2290   -9.9479 N   0  0  0  0  0  0  0  0  0  0  0  0
   16.5571   -5.8776  -10.4338 C   0  0  0  0  0  0  0  0  0  0  0  0
   16.0187   -4.6538  -10.7591 O   0  0  0  0  0  0  0  0  0  0  0  0
   17.6942   -6.1795  -10.8553 O   0  0  0  0  0  0  0  0  0  0  0  0
  2  1  1  1
  2  4  1  0
  2  3  1  0
  4  5  2  0
  8  7  1  6
  7  6  1  0
  9  4  1  0
  9  8  1  0
 10  8  1  0
 10 11  2  0
 12 13  1  0
 13 15  1  0
 13 14  2  0
 16 15  1  1
 16 17  1  0
 16 18  1  0
 17 10  1  0
 18 19  1  0
 20 18  2  0
M  END
$$$$
