ASN.pdb
     RDKit          3D

 20 19  0  0  1  0  0  0  0  0999 V2000
   17.1901   -7.0158  -19.4947 C   0  0  0  0  0  0  0  0  0  0  0  0
   17.3698   -8.4948  -19.1808 C   0  0  2  0  0  0  0  0  0  0  0  0
   16.0813   -9.1048  -18.9794 N   0  0  0  0  0  0  0  0  0  0  0  0
   18.1996   -8.5392  -17.9469 C   0  0  0  0  0  0  0  0  0  0  0  0
   17.6980   -8.1940  -16.8580 O   0  0  0  0  0  0  0  0  0  0  0  0
   22.3922   -9.7586  -17.9793 O   0  0  0  0  0  0  0  0  0  0  0  0
   21.4604  -10.1485  -17.0344 C   0  0  0  0  0  0  0  0  0  0  0  0
   20.4069   -9.0914  -16.8557 C   0  0  2  0  0  0  0  0  0  0  0  0
   19.5312   -8.9621  -17.9927 N   0  0  0  0  0  0  0  0  0  0  0  0
   20.9732   -7.8047  -16.4182 C   0  0  0  0  0  0  0  0  0  0  0  0
   21.3105   -6.9793  -17.3069 O   0  0  0  0  0  0  0  0  0  0  0  0
   22.5300   -3.6241  -13.8973 N   0  0  0  0  0  0  0  0  0  0  0  0
   21.3448   -3.6690  -14.6704 C   0  0  0  0  0  0  0  0  0  0  0  0
   20.7263   -2.6308  -14.9786 O   0  0  0  0  0  0  0  0  0  0  0  0
   20.8593   -4.9921  -15.1039 C   0  0  0  0  0  0  0  0  0  0  0  0
   21.7282   -6.1348  -14.6648 C   0  0  2  0  0  0  0  0  0  0  0  0
   21.1679   -7.4243  -15.0826 N   0  0  0  0  0  0  0  0  0  0  0  0
   21.8853   -6.0894  -13.1932 C   0  0  0  0  0  0  0  0  0  0  0  0
   22.5711   -5.0809  -12.5558 O   0  0  0  0  0  0  0  0  0  0  0  0
   21.3713   -7.0052  -12.5160 O   0  0  0  0  0  0  0  0  0  0  0  0
  2  1  1  1
  2  4  1  0
  2  3  1  0
  4  5  2  0
  8  7  1  6
  7  6  1  0
  9  4  1  0
  9  8  1  0
 10  8  1  0
 10 11  2  0
 12 13  1  0
 13 15  1  0
 13 14  2  0
 16 15  1  1
 16 17  1  0
 16 18  1  0
 17 10  1  0
 18 19  1  0
 20 18  2  0
M  END
$$$$
