ASN.pdb
     RDKit          3D

 20 19  0  0  1  0  0  0  0  0999 V2000
   17.0700  -11.4043  -18.5054 C   0  0  0  0  0  0  0  0  0  0  0  0
   18.4148  -11.3183  -17.7968 C   0  0  2  0  0  0  0  0  0  0  0  0
   18.5006  -12.3521  -16.7983 N   0  0  0  0  0  0  0  0  0  0  0  0
   18.4557   -9.9608  -17.1895 C   0  0  0  0  0  0  0  0  0  0  0  0
   18.4715   -8.9577  -17.9311 O   0  0  0  0  0  0  0  0  0  0  0  0
   18.6863   -9.3407  -12.8857 O   0  0  0  0  0  0  0  0  0  0  0  0
   17.8638   -8.6185  -13.7314 C   0  0  0  0  0  0  0  0  0  0  0  0
   18.4583   -8.5325  -15.1092 C   0  0  2  0  0  0  0  0  0  0  0  0
   18.4764   -9.7961  -15.8016 N   0  0  0  0  0  0  0  0  0  0  0  0
   19.7664   -7.8568  -15.1136 C   0  0  0  0  0  0  0  0  0  0  0  0
   20.7990   -8.5770  -15.1180 O   0  0  0  0  0  0  0  0  0  0  0  0
   22.6138   -2.7478  -16.9412 N   0  0  0  0  0  0  0  0  0  0  0  0
   22.5488   -3.9158  -16.1438 C   0  0  0  0  0  0  0  0  0  0  0  0
   23.5477   -4.3471  -15.5343 O   0  0  0  0  0  0  0  0  0  0  0  0
   21.2527   -4.6134  -16.0550 C   0  0  0  0  0  0  0  0  0  0  0  0
   21.2650   -5.8109  -15.1499 C   0  0  2  0  0  0  0  0  0  0  0  0
   19.9538   -6.4672  -15.1128 N   0  0  0  0  0  0  0  0  0  0  0  0
   21.6732   -5.3894  -13.7904 C   0  0  0  0  0  0  0  0  0  0  0  0
   22.9651   -5.5198  -13.3350 O   0  0  0  0  0  0  0  0  0  0  0  0
   20.8042   -4.8980  -13.0387 O   0  0  0  0  0  0  0  0  0  0  0  0
  2  1  1  1
  2  4  1  0
  2  3  1  0
  4  5  2  0
  8  7  1  1
  7  6  1  0
  9  4  1  0
  9  8  1  0
 10  8  1  0
 10 11  2  0
 12 13  1  0
 13 15  1  0
 13 14  2  0
 16 15  1  6
 16 17  1  0
 16 18  1  0
 17 10  1  0
 18 19  1  0
 20 18  2  0
M  END
$$$$
