ASN.pdb
     RDKit          3D

 20 19  0  0  1  0  0  0  0  0999 V2000
   11.1230   -6.5303   -8.8941 C   0  0  0  0  0  0  0  0  0  0  0  0
   11.4447   -8.0152   -8.7954 C   0  0  2  0  0  0  0  0  0  0  0  0
   10.7565   -8.5834   -7.6656 N   0  0  0  0  0  0  0  0  0  0  0  0
   12.9218   -8.0901   -8.6358 C   0  0  0  0  0  0  0  0  0  0  0  0
   13.4579   -7.5676   -7.6378 O   0  0  0  0  0  0  0  0  0  0  0  0
   15.2754  -10.5333  -11.2613 O   0  0  0  0  0  0  0  0  0  0  0  0
   15.5459  -10.3449   -9.9180 C   0  0  0  0  0  0  0  0  0  0  0  0
   15.1324   -8.9684   -9.4781 C   0  0  2  0  0  0  0  0  0  0  0  0
   13.7144   -8.7373   -9.5882 N   0  0  0  0  0  0  0  0  0  0  0  0
   15.9372   -7.9120  -10.1138 C   0  0  0  0  0  0  0  0  0  0  0  0
   15.3790   -7.1910  -10.9817 O   0  0  0  0  0  0  0  0  0  0  0  0
   21.7142   -5.6385  -10.4140 N   0  0  0  0  0  0  0  0  0  0  0  0
   20.4906   -6.0264  -11.0113 C   0  0  0  0  0  0  0  0  0  0  0  0
   20.1884   -5.6746  -12.1690 O   0  0  0  0  0  0  0  0  0  0  0  0
   19.5760   -6.8661  -10.2160 C   0  0  0  0  0  0  0  0  0  0  0  0
   18.1351   -6.7527  -10.6218 C   0  0  2  0  0  0  0  0  0  0  0  0
   17.2837   -7.6447   -9.8276 N   0  0  0  0  0  0  0  0  0  0  0  0
   18.0097   -7.0635  -12.0641 C   0  0  0  0  0  0  0  0  0  0  0  0
   18.1091   -8.3458  -12.5532 O   0  0  0  0  0  0  0  0  0  0  0  0
   17.8055   -6.1187  -12.8561 O   0  0  0  0  0  0  0  0  0  0  0  0
  2  1  1  1
  2  4  1  0
  2  3  1  0
  4  5  2  0
  8  7  1  6
  7  6  1  0
  9  4  1  0
  9  8  1  0
 10  8  1  0
 10 11  2  0
 12 13  1  0
 13 15  1  0
 13 14  2  0
 16 15  1  1
 16 17  1  0
 16 18  1  0
 17 10  1  0
 18 19  1  0
 20 18  2  0
M  END
$$$$
