ASN.pdb
     RDKit          3D

 20 19  0  0  1  0  0  0  0  0999 V2000
   26.7624  -11.4938  -15.4680 C   0  0  0  0  0  0  0  0  0  0  0  0
   25.5148  -12.3372  -15.6925 C   0  0  2  0  0  0  0  0  0  0  0  0
   25.8327  -13.4493  -16.5499 N   0  0  0  0  0  0  0  0  0  0  0  0
   24.5261  -11.4209  -16.3218 C   0  0  0  0  0  0  0  0  0  0  0  0
   24.6221  -11.1568  -17.5373 O   0  0  0  0  0  0  0  0  0  0  0  0
   20.6625  -11.0130  -14.9585 O   0  0  0  0  0  0  0  0  0  0  0  0
   21.1280  -10.6139  -16.1983 C   0  0  0  0  0  0  0  0  0  0  0  0
   22.4789   -9.9658  -16.0780 C   0  0  2  0  0  0  0  0  0  0  0  0
   23.4933  -10.8538  -15.5695 N   0  0  0  0  0  0  0  0  0  0  0  0
   22.4229   -8.6844  -15.3550 C   0  0  0  0  0  0  0  0  0  0  0  0
   22.6088   -8.7043  -14.1101 O   0  0  0  0  0  0  0  0  0  0  0  0
   21.9989   -3.7049  -14.0123 N   0  0  0  0  0  0  0  0  0  0  0  0
   22.1912   -3.6927  -15.4149 C   0  0  0  0  0  0  0  0  0  0  0  0
   22.3153   -2.6253  -16.0479 O   0  0  0  0  0  0  0  0  0  0  0  0
   22.2406   -4.9916  -16.1109 C   0  0  0  0  0  0  0  0  0  0  0  0
   22.0759   -6.1765  -15.2040 C   0  0  2  0  0  0  0  0  0  0  0  0
   22.1772   -7.4372  -15.9469 N   0  0  0  0  0  0  0  0  0  0  0  0
   20.7689   -6.0838  -14.5144 C   0  0  0  0  0  0  0  0  0  0  0  0
   19.6103   -6.5875  -15.0598 O   0  0  0  0  0  0  0  0  0  0  0  0
   20.7292   -5.5264  -13.3967 O   0  0  0  0  0  0  0  0  0  0  0  0
  2  1  1  6
  2  4  1  0
  2  3  1  0
  4  5  2  0
  8  7  1  1
  7  6  1  0
  9  4  1  0
  9  8  1  0
 10  8  1  0
 10 11  2  0
 12 13  1  0
 13 15  1  0
 13 14  2  0
 16 15  1  6
 16 17  1  0
 16 18  1  0
 17 10  1  0
 18 19  1  0
 20 18  2  0
M  END
$$$$
