SNG.pdb
     RDKit          3D

 19 18  0  0  1  0  0  0  0  0999 V2000
   14.4450  -16.0300   16.4318 O   0  0  0  0  0  0  0  0  0  0  0  0
   14.7362  -15.8146   17.7713 C   0  0  0  0  0  0  0  0  0  0  0  0
   13.5593  -15.2092   18.5210 C   0  0  2  0  0  0  0  0  0  0  0  0
   13.1293  -13.9564   17.9339 N   0  0  0  0  0  0  0  0  0  0  0  0
   13.8532  -15.0705   19.9622 C   0  0  0  0  0  0  0  0  0  0  0  0
   14.4932  -14.0859   20.3968 O   0  0  0  0  0  0  0  0  0  0  0  0
   10.4723  -16.6880   22.1956 N   0  0  0  0  0  0  0  0  0  0  0  0
   11.4543  -15.9636   22.9000 C   0  0  0  0  0  0  0  0  0  0  0  0
   11.1765  -14.7982   23.2620 O   0  0  0  0  0  0  0  0  0  0  0  0
   12.7641  -16.5760   23.1926 C   0  0  0  0  0  0  0  0  0  0  0  0
   13.8136  -15.9240   22.3265 C   0  0  2  0  0  0  0  0  0  0  0  0
   13.4275  -16.0438   20.9347 N   0  0  0  0  0  0  0  0  0  0  0  0
   15.1240  -16.5693   22.5951 C   0  0  0  0  0  0  0  0  0  0  0  0
   15.2846  -17.8144   22.6668 O   0  0  0  0  0  0  0  0  0  0  0  0
   16.2454  -15.7002   22.7777 N   0  0  0  0  0  0  0  0  0  0  0  0
   17.4431  -16.1228   23.4514 C   0  0  0  0  0  0  0  0  0  0  0  0
   18.4867  -15.0701   23.3792 C   0  0  0  0  0  0  0  0  0  0  0  0
   19.5990  -15.1998   23.9605 O   0  0  0  0  0  0  0  0  0  0  0  0
   18.2954  -13.8892   22.6697 O   0  0  0  0  0  0  0  0  0  0  0  0
  2  1  1  0
  3  2  1  0
  3  4  1  6
  5  6  2  0
  5  3  1  0
  7  8  1  0
  8  9  2  0
 10  8  1  0
 11 10  1  1
 11 13  1  0
 11 12  1  0
 12  5  1  0
 13 15  1  0
 14 13  2  0
 16 15  1  0
 16 17  1  0
 17 18  2  0
 17 19  1  0
M  END
$$$$
