SNG.pdb
     RDKit          3D

 19 18  0  0  1  0  0  0  0  0999 V2000
    9.0632  -15.2729   17.9134 O   0  0  0  0  0  0  0  0  0  0  0  0
    7.8081  -14.8844   18.3601 C   0  0  0  0  0  0  0  0  0  0  0  0
    7.8791  -13.6765   19.2817 C   0  0  2  0  0  0  0  0  0  0  0  0
    8.4493  -12.5215   18.6185 N   0  0  0  0  0  0  0  0  0  0  0  0
    8.5893  -13.9980   20.5366 C   0  0  0  0  0  0  0  0  0  0  0  0
    9.7741  -13.6351   20.7169 O   0  0  0  0  0  0  0  0  0  0  0  0
    7.3572  -12.9168   23.7276 N   0  0  0  0  0  0  0  0  0  0  0  0
    7.0171  -14.1530   24.3116 C   0  0  0  0  0  0  0  0  0  0  0  0
    6.0998  -14.1669   25.1629 O   0  0  0  0  0  0  0  0  0  0  0  0
    7.7312  -15.3830   23.9196 C   0  0  0  0  0  0  0  0  0  0  0  0
    8.7054  -15.0525   22.8158 C   0  0  2  0  0  0  0  0  0  0  0  0
    7.9702  -14.7354   21.6076 N   0  0  0  0  0  0  0  0  0  0  0  0
    9.6181  -16.2079   22.6214 C   0  0  0  0  0  0  0  0  0  0  0  0
    9.2244  -17.3606   22.3090 O   0  0  0  0  0  0  0  0  0  0  0  0
   11.0153  -15.9643   22.8069 N   0  0  0  0  0  0  0  0  0  0  0  0
   12.0038  -16.9947   22.6390 C   0  0  0  0  0  0  0  0  0  0  0  0
   13.3727  -16.4377   22.7739 C   0  0  0  0  0  0  0  0  0  0  0  0
   13.9073  -15.7645   21.8502 O   0  0  0  0  0  0  0  0  0  0  0  0
   14.1363  -16.6268   23.9208 O   0  0  0  0  0  0  0  0  0  0  0  0
  2  1  1  0
  3  2  1  0
  3  4  1  6
  5  6  2  0
  5  3  1  0
  7  8  1  0
  8  9  2  0
 10  8  1  0
 11 10  1  1
 11 13  1  0
 11 12  1  0
 12  5  1  0
 13 15  1  0
 14 13  2  0
 16 15  1  0
 16 17  1  0
 17 18  2  0
 17 19  1  0
M  END
$$$$
