SNG.pdb
     RDKit          3D

 19 18  0  0  1  0  0  0  0  0999 V2000
    7.7197  -19.4392   18.8556 O   0  0  0  0  0  0  0  0  0  0  0  0
    7.8782  -19.0361   17.5373 C   0  0  0  0  0  0  0  0  0  0  0  0
    7.5260  -17.5693   17.3428 C   0  0  2  0  0  0  0  0  0  0  0  0
    7.8408  -17.1089   16.0056 N   0  0  0  0  0  0  0  0  0  0  0  0
    8.1531  -16.7232   18.3789 C   0  0  0  0  0  0  0  0  0  0  0  0
    9.3403  -16.3413   18.2664 O   0  0  0  0  0  0  0  0  0  0  0  0
    7.0983  -12.8642   19.1181 N   0  0  0  0  0  0  0  0  0  0  0  0
    7.4594  -13.1359   20.4526 C   0  0  0  0  0  0  0  0  0  0  0  0
    8.0641  -12.2445   21.0897 O   0  0  0  0  0  0  0  0  0  0  0  0
    7.1268  -14.4369   21.0635 C   0  0  0  0  0  0  0  0  0  0  0  0
    8.0984  -15.4762   20.5611 C   0  0  2  0  0  0  0  0  0  0  0  0
    7.4468  -16.2958   19.5590 N   0  0  0  0  0  0  0  0  0  0  0  0
    8.5737  -16.2837   21.7134 C   0  0  0  0  0  0  0  0  0  0  0  0
    7.8098  -16.9469   22.4603 O   0  0  0  0  0  0  0  0  0  0  0  0
    9.9824  -16.2868   21.9614 N   0  0  0  0  0  0  0  0  0  0  0  0
   10.5649  -16.9853   23.0748 C   0  0  0  0  0  0  0  0  0  0  0  0
   12.0175  -16.6982   23.1744 C   0  0  0  0  0  0  0  0  0  0  0  0
   12.8825  -17.6071   23.0412 O   0  0  0  0  0  0  0  0  0  0  0  0
   12.5012  -15.4172   23.4187 O   0  0  0  0  0  0  0  0  0  0  0  0
  2  1  1  0
  3  2  1  0
  3  4  1  6
  5  6  2  0
  5  3  1  0
  7  8  1  0
  8  9  2  0
 10  8  1  0
 11 10  1  1
 11 13  1  0
 11 12  1  0
 12  5  1  0
 13 15  1  0
 14 13  2  0
 16 15  1  0
 16 17  1  0
 17 18  2  0
 17 19  1  0
M  END
$$$$
