SNG.pdb
     RDKit          3D

 19 18  0  0  1  0  0  0  0  0999 V2000
    5.9793  -21.0353   25.1481 O   0  0  0  0  0  0  0  0  0  0  0  0
    7.0084  -20.2599   25.6630 C   0  0  0  0  0  0  0  0  0  0  0  0
    7.2054  -18.9753   24.8728 C   0  0  2  0  0  0  0  0  0  0  0  0
    7.4351  -19.2341   23.4660 N   0  0  0  0  0  0  0  0  0  0  0  0
    8.2724  -18.1399   25.4610 C   0  0  0  0  0  0  0  0  0  0  0  0
    9.4715  -18.3086   25.1422 O   0  0  0  0  0  0  0  0  0  0  0  0
    9.5963  -13.0873   28.6892 N   0  0  0  0  0  0  0  0  0  0  0  0
    9.8044  -14.2084   27.8615 C   0  0  0  0  0  0  0  0  0  0  0  0
   10.9844  -14.5347   27.6016 O   0  0  0  0  0  0  0  0  0  0  0  0
    8.6547  -14.9625   27.3267 C   0  0  0  0  0  0  0  0  0  0  0  0
    9.0796  -16.3879   27.0732 C   0  0  2  0  0  0  0  0  0  0  0  0
    7.9998  -17.1001   26.4195 N   0  0  0  0  0  0  0  0  0  0  0  0
    9.4519  -17.0136   28.3677 C   0  0  0  0  0  0  0  0  0  0  0  0
    8.7732  -16.8929   29.4193 O   0  0  0  0  0  0  0  0  0  0  0  0
   10.6534  -17.7896   28.3868 N   0  0  0  0  0  0  0  0  0  0  0  0
   11.1114  -18.4672   29.5692 C   0  0  0  0  0  0  0  0  0  0  0  0
   12.3555  -19.2272   29.2914 C   0  0  0  0  0  0  0  0  0  0  0  0
   12.9502  -19.8765   30.1953 O   0  0  0  0  0  0  0  0  0  0  0  0
   12.9299  -19.2646   28.0254 O   0  0  0  0  0  0  0  0  0  0  0  0
  2  1  1  0
  3  2  1  0
  3  4  1  6
  5  6  2  0
  5  3  1  0
  7  8  1  0
  8  9  2  0
 10  8  1  0
 11 10  1  1
 11 13  1  0
 11 12  1  0
 12  5  1  0
 13 15  1  0
 14 13  2  0
 16 15  1  0
 16 17  1  0
 17 18  2  0
 17 19  1  0
M  END
$$$$
