SNG.pdb
     RDKit          3D

 19 18  0  0  1  0  0  0  0  0999 V2000
    8.6645  -15.7773   17.0079 O   0  0  0  0  0  0  0  0  0  0  0  0
    7.5269  -15.0134   17.2268 C   0  0  0  0  0  0  0  0  0  0  0  0
    7.8427  -13.7148   17.9532 C   0  0  2  0  0  0  0  0  0  0  0  0
    8.7393  -12.8709   17.1897 N   0  0  0  0  0  0  0  0  0  0  0  0
    8.3530  -13.9707   19.3157 C   0  0  0  0  0  0  0  0  0  0  0  0
    9.5718  -13.8558   19.5788 O   0  0  0  0  0  0  0  0  0  0  0  0
    8.8714  -14.6758   24.2758 N   0  0  0  0  0  0  0  0  0  0  0  0
    7.4749  -14.6404   24.0924 C   0  0  0  0  0  0  0  0  0  0  0  0
    6.7483  -14.6836   25.1105 O   0  0  0  0  0  0  0  0  0  0  0  0
    6.9044  -14.5551   22.7346 C   0  0  0  0  0  0  0  0  0  0  0  0
    8.0278  -14.5989   21.7282 C   0  0  2  0  0  0  0  0  0  0  0  0
    7.4923  -14.3609   20.4026 N   0  0  0  0  0  0  0  0  0  0  0  0
    8.7045  -15.9175   21.8236 C   0  0  0  0  0  0  0  0  0  0  0  0
    8.1077  -17.0166   21.6944 O   0  0  0  0  0  0  0  0  0  0  0  0
   10.1122  -15.9029   22.0769 N   0  0  0  0  0  0  0  0  0  0  0  0
   10.9025  -17.1039   22.0922 C   0  0  0  0  0  0  0  0  0  0  0  0
   12.3487  -16.7811   22.1729 C   0  0  0  0  0  0  0  0  0  0  0  0
   13.2255  -17.6853   22.2481 O   0  0  0  0  0  0  0  0  0  0  0  0
   12.8132  -15.4701   22.1698 O   0  0  0  0  0  0  0  0  0  0  0  0
  2  1  1  0
  3  2  1  0
  3  4  1  6
  5  6  2  0
  5  3  1  0
  7  8  1  0
  8  9  2  0
 10  8  1  0
 11 10  1  1
 11 13  1  0
 11 12  1  0
 12  5  1  0
 13 15  1  0
 14 13  2  0
 16 15  1  0
 16 17  1  0
 17 18  2  0
 17 19  1  0
M  END
$$$$
