SNG.pdb
     RDKit          3D

 19 18  0  0  1  0  0  0  0  0999 V2000
    7.5385  -15.1600   19.0709 O   0  0  0  0  0  0  0  0  0  0  0  0
    7.7720  -15.1018   20.4375 C   0  0  0  0  0  0  0  0  0  0  0  0
    7.3774  -13.7563   21.0270 C   0  0  2  0  0  0  0  0  0  0  0  0
    7.7617  -12.6546   20.1683 N   0  0  0  0  0  0  0  0  0  0  0  0
    7.9020  -13.5951   22.3986 C   0  0  0  0  0  0  0  0  0  0  0  0
    8.9723  -12.9808   22.6104 O   0  0  0  0  0  0  0  0  0  0  0  0
    6.9651  -11.4524   25.6019 N   0  0  0  0  0  0  0  0  0  0  0  0
    6.1970  -12.5192   26.1090 C   0  0  0  0  0  0  0  0  0  0  0  0
    5.1604  -12.2415   26.7530 O   0  0  0  0  0  0  0  0  0  0  0  0
    6.6172  -13.9144   25.8784 C   0  0  0  0  0  0  0  0  0  0  0  0
    7.7542  -13.9254   24.8865 C   0  0  2  0  0  0  0  0  0  0  0  0
    7.2239  -14.1266   23.5527 N   0  0  0  0  0  0  0  0  0  0  0  0
    8.7121  -14.9942   25.2685 C   0  0  0  0  0  0  0  0  0  0  0  0
    9.2860  -15.0470   26.3860 O   0  0  0  0  0  0  0  0  0  0  0  0
    8.9753  -16.0041   24.2902 N   0  0  0  0  0  0  0  0  0  0  0  0
    9.8926  -17.0849   24.5295 C   0  0  0  0  0  0  0  0  0  0  0  0
   11.2169  -16.7945   23.9261 C   0  0  0  0  0  0  0  0  0  0  0  0
   11.3230  -16.2222   22.8065 O   0  0  0  0  0  0  0  0  0  0  0  0
   12.4071  -17.1358   24.5596 O   0  0  0  0  0  0  0  0  0  0  0  0
  2  1  1  0
  3  2  1  0
  3  4  1  6
  5  6  2  0
  5  3  1  0
  7  8  1  0
  8  9  2  0
 10  8  1  0
 11 10  1  1
 11 13  1  0
 11 12  1  0
 12  5  1  0
 13 15  1  0
 14 13  2  0
 16 15  1  0
 16 17  1  0
 17 18  2  0
 17 19  1  0
M  END
$$$$
