SNG.pdb
     RDKit          3D

 19 18  0  0  1  0  0  0  0  0999 V2000
    7.2966  -17.7416   16.3026 O   0  0  0  0  0  0  0  0  0  0  0  0
    8.4977  -18.3472   16.6433 C   0  0  0  0  0  0  0  0  0  0  0  0
    8.8977  -18.0527   18.0810 C   0  0  2  0  0  0  0  0  0  0  0  0
    7.7496  -18.0008   18.9632 N   0  0  0  0  0  0  0  0  0  0  0  0
    9.7180  -16.8274   18.1711 C   0  0  0  0  0  0  0  0  0  0  0  0
   10.7350  -16.6795   17.4556 O   0  0  0  0  0  0  0  0  0  0  0  0
    6.8098  -13.1471   18.6102 N   0  0  0  0  0  0  0  0  0  0  0  0
    8.1480  -13.4014   18.2500 C   0  0  0  0  0  0  0  0  0  0  0  0
    8.3924  -13.6670   17.0516 O   0  0  0  0  0  0  0  0  0  0  0  0
    9.2150  -13.3521   19.2675 C   0  0  0  0  0  0  0  0  0  0  0  0
   10.1546  -14.5121   19.0479 C   0  0  2  0  0  0  0  0  0  0  0  0
    9.4009  -15.7497   19.0724 N   0  0  0  0  0  0  0  0  0  0  0  0
   11.2048  -14.4825   20.0977 C   0  0  0  0  0  0  0  0  0  0  0  0
   12.0282  -13.5416   20.2316 O   0  0  0  0  0  0  0  0  0  0  0  0
   11.2567  -15.5996   20.9896 N   0  0  0  0  0  0  0  0  0  0  0  0
   12.1259  -15.6288   22.1344 C   0  0  0  0  0  0  0  0  0  0  0  0
   13.4353  -16.2339   21.7856 C   0  0  0  0  0  0  0  0  0  0  0  0
   14.3310  -16.4200   22.6546 O   0  0  0  0  0  0  0  0  0  0  0  0
   13.7440  -16.6267   20.4876 O   0  0  0  0  0  0  0  0  0  0  0  0
  2  1  1  0
  3  2  1  0
  3  4  1  1
  5  6  2  0
  5  3  1  0
  7  8  1  0
  8  9  2  0
 10  8  1  0
 11 10  1  1
 11 13  1  0
 11 12  1  0
 12  5  1  0
 13 15  1  0
 14 13  2  0
 16 15  1  0
 16 17  1  0
 17 18  2  0
 17 19  1  0
M  END
$$$$
