SNG.pdb
     RDKit          3D

 19 18  0  0  1  0  0  0  0  0999 V2000
    8.8047  -15.0303   17.6426 O   0  0  0  0  0  0  0  0  0  0  0  0
    7.6488  -14.6920   18.3319 C   0  0  0  0  0  0  0  0  0  0  0  0
    7.8787  -13.5438   19.3026 C   0  0  2  0  0  0  0  0  0  0  0  0
    8.2579  -12.3239   18.6192 N   0  0  0  0  0  0  0  0  0  0  0  0
    8.8509  -13.9127   20.3520 C   0  0  0  0  0  0  0  0  0  0  0  0
   10.0138  -13.4486   20.3441 O   0  0  0  0  0  0  0  0  0  0  0  0
    9.8404  -17.2385   25.2978 N   0  0  0  0  0  0  0  0  0  0  0  0
    9.8342  -15.9658   24.6934 C   0  0  0  0  0  0  0  0  0  0  0  0
   10.7110  -15.1450   25.0453 O   0  0  0  0  0  0  0  0  0  0  0  0
    8.8177  -15.6285   23.6788 C   0  0  0  0  0  0  0  0  0  0  0  0
    9.5148  -15.1847   22.4164 C   0  0  2  0  0  0  0  0  0  0  0  0
    8.5228  -14.8129   21.4273 N   0  0  0  0  0  0  0  0  0  0  0  0
   10.3870  -16.2877   21.9384 C   0  0  0  0  0  0  0  0  0  0  0  0
    9.9607  -17.4328   21.6416 O   0  0  0  0  0  0  0  0  0  0  0  0
   11.7832  -16.0004   21.8198 N   0  0  0  0  0  0  0  0  0  0  0  0
   12.7284  -16.9693   21.3350 C   0  0  0  0  0  0  0  0  0  0  0  0
   14.1020  -16.4076   21.3302 C   0  0  0  0  0  0  0  0  0  0  0  0
   15.0884  -17.0746   20.9126 O   0  0  0  0  0  0  0  0  0  0  0  0
   14.3747  -15.1214   21.7837 O   0  0  0  0  0  0  0  0  0  0  0  0
  2  1  1  0
  3  2  1  0
  3  4  1  6
  5  6  2  0
  5  3  1  0
  7  8  1  0
  8  9  2  0
 10  8  1  0
 11 10  1  1
 11 13  1  0
 11 12  1  0
 12  5  1  0
 13 15  1  0
 14 13  2  0
 16 15  1  0
 16 17  1  0
 17 18  2  0
 17 19  1  0
M  END
$$$$
