SNG.pdb
     RDKit          3D

 19 18  0  0  1  0  0  0  0  0999 V2000
    4.3562  -19.7559   17.8949 O   0  0  0  0  0  0  0  0  0  0  0  0
    5.1871  -18.7139   18.2816 C   0  0  0  0  0  0  0  0  0  0  0  0
    6.0026  -19.0630   19.5172 C   0  0  2  0  0  0  0  0  0  0  0  0
    6.8075  -20.2510   19.3176 N   0  0  0  0  0  0  0  0  0  0  0  0
    5.1447  -19.1731   20.7149 C   0  0  0  0  0  0  0  0  0  0  0  0
    4.4957  -18.1880   21.1346 O   0  0  0  0  0  0  0  0  0  0  0  0
    2.1457  -19.4074   21.2334 N   0  0  0  0  0  0  0  0  0  0  0  0
    2.0011  -20.7616   21.5945 C   0  0  0  0  0  0  0  0  0  0  0  0
    0.9723  -21.3636   21.2131 O   0  0  0  0  0  0  0  0  0  0  0  0
    3.0405  -21.4328   22.3979 C   0  0  0  0  0  0  0  0  0  0  0  0
    4.1728  -20.4653   22.6399 C   0  0  2  0  0  0  0  0  0  0  0  0
    5.0075  -20.3999   21.4569 N   0  0  0  0  0  0  0  0  0  0  0  0
    4.9368  -20.9117   23.8327 C   0  0  0  0  0  0  0  0  0  0  0  0
    4.4127  -21.1210   24.9563 O   0  0  0  0  0  0  0  0  0  0  0  0
    6.3438  -21.1052   23.6619 N   0  0  0  0  0  0  0  0  0  0  0  0
    7.1971  -21.5293   24.7384 C   0  0  0  0  0  0  0  0  0  0  0  0
    8.1780  -20.4697   25.0810 C   0  0  0  0  0  0  0  0  0  0  0  0
    9.1052  -20.1450   24.2892 O   0  0  0  0  0  0  0  0  0  0  0  0
    8.1280  -19.7804   26.2880 O   0  0  0  0  0  0  0  0  0  0  0  0
  2  1  1  0
  3  2  1  0
  3  4  1  6
  5  6  2  0
  5  3  1  0
  7  8  1  0
  8  9  2  0
 10  8  1  0
 11 10  1  6
 11 13  1  0
 11 12  1  0
 12  5  1  0
 13 15  1  0
 14 13  2  0
 16 15  1  0
 16 17  1  0
 17 18  2  0
 17 19  1  0
M  END
$$$$
