SNG.pdb
     RDKit          3D

 19 18  0  0  1  0  0  0  0  0999 V2000
   -1.5723  -20.7171   24.4444 O   0  0  0  0  0  0  0  0  0  0  0  0
   -2.7103  -21.2875   24.9969 C   0  0  0  0  0  0  0  0  0  0  0  0
   -2.5341  -22.7758   25.2566 C   0  0  2  0  0  0  0  0  0  0  0  0
   -2.3462  -23.5217   24.0289 N   0  0  0  0  0  0  0  0  0  0  0  0
   -3.6460  -23.3163   26.0653 C   0  0  0  0  0  0  0  0  0  0  0  0
   -4.6848  -23.7544   25.5204 O   0  0  0  0  0  0  0  0  0  0  0  0
   -4.6890  -26.6149   27.8792 N   0  0  0  0  0  0  0  0  0  0  0  0
   -4.1598  -26.1732   29.1080 C   0  0  0  0  0  0  0  0  0  0  0  0
   -3.7330  -27.0366   29.9072 O   0  0  0  0  0  0  0  0  0  0  0  0
   -4.1183  -24.7332   29.4259 C   0  0  0  0  0  0  0  0  0  0  0  0
   -4.6861  -23.9586   28.2621 C   0  0  2  0  0  0  0  0  0  0  0  0
   -3.6004  -23.3696   27.5039 N   0  0  0  0  0  0  0  0  0  0  0  0
   -5.6201  -22.9282   28.7834 C   0  0  0  0  0  0  0  0  0  0  0  0
   -5.2488  -21.9169   29.4318 O   0  0  0  0  0  0  0  0  0  0  0  0
   -7.0116  -23.1254   28.5169 N   0  0  0  0  0  0  0  0  0  0  0  0
   -8.0193  -22.2088   28.9767 C   0  0  0  0  0  0  0  0  0  0  0  0
   -8.4462  -22.5457   30.3576 C   0  0  0  0  0  0  0  0  0  0  0  0
   -9.6654  -22.6176   30.6744 O   0  0  0  0  0  0  0  0  0  0  0  0
   -7.5292  -22.7992   31.3721 O   0  0  0  0  0  0  0  0  0  0  0  0
  2  1  1  0
  3  2  1  0
  3  4  1  6
  5  6  2  0
  5  3  1  0
  7  8  1  0
  8  9  2  0
 10  8  1  0
 11 10  1  1
 11 13  1  0
 11 12  1  0
 12  5  1  0
 13 15  1  0
 14 13  2  0
 16 15  1  0
 16 17  1  0
 17 18  2  0
 17 19  1  0
M  END
$$$$
