WFC.pdb
     RDKit          3D

 32 34  0  0  1  0  0  0  0  0999 V2000
   26.3158  -21.8554  -13.1069 N   0  0  0  0  0  0  0  0  0  0  0  0
   26.4723  -20.6534  -12.3157 C   0  0  1  0  0  0  0  0  0  0  0  0
   25.2804  -19.7641  -12.5854 C   0  0  0  0  0  0  0  0  0  0  0  0
   25.3716  -19.1255  -13.9343 C   0  0  0  0  0  0  0  0  0  0  0  0
   24.3551  -18.6884  -14.7331 C   0  0  0  0  0  0  0  0  0  0  0  0
   24.9049  -18.1853  -15.8504 N   0  0  0  0  0  0  0  0  0  0  0  0
   26.2506  -18.2817  -15.8034 C   0  0  0  0  0  0  0  0  0  0  0  0
   27.2424  -17.9057  -16.7069 C   0  0  0  0  0  0  0  0  0  0  0  0
   28.5697  -18.1208  -16.4106 C   0  0  0  0  0  0  0  0  0  0  0  0
   28.8753  -18.7134  -15.2040 C   0  0  0  0  0  0  0  0  0  0  0  0
   27.8854  -19.0855  -14.3090 C   0  0  0  0  0  0  0  0  0  0  0  0
   26.5475  -18.8745  -14.5956 C   0  0  0  0  0  0  0  0  0  0  0  0
   26.4845  -20.9972  -10.8834 C   0  0  0  0  0  0  0  0  0  0  0  0
   26.0145  -22.0910  -10.4659 O   0  0  0  0  0  0  0  0  0  0  0  0
   27.0240  -20.1142   -9.9171 N   0  0  0  0  0  0  0  0  0  0  0  0
   27.1262  -20.4703   -8.5117 C   0  0  1  0  0  0  0  0  0  0  0  0
   28.0949  -19.5126   -7.8689 C   0  0  0  0  0  0  0  0  0  0  0  0
   28.1946  -19.6343   -6.4123 C   0  0  0  0  0  0  0  0  0  0  0  0
   27.5226  -18.8520   -5.4970 C   0  0  0  0  0  0  0  0  0  0  0  0
   27.6869  -19.0469   -4.1283 C   0  0  0  0  0  0  0  0  0  0  0  0
   28.5298  -20.0317   -3.6596 C   0  0  0  0  0  0  0  0  0  0  0  0
   29.2109  -20.8247   -4.5611 C   0  0  0  0  0  0  0  0  0  0  0  0
   29.0278  -20.6080   -5.9012 C   0  0  0  0  0  0  0  0  0  0  0  0
   25.7790  -20.2294   -7.9072 C   0  0  0  0  0  0  0  0  0  0  0  0
   24.9928  -19.3613   -8.3543 O   0  0  0  0  0  0  0  0  0  0  0  0
   25.3389  -21.0023   -6.7734 N   0  0  0  0  0  0  0  0  0  0  0  0
   23.9846  -21.0259   -6.3153 C   0  0  1  0  0  0  0  0  0  0  0  0
   23.1115  -21.5422   -7.4296 C   0  0  0  0  0  0  0  0  0  0  0  0
   21.4066  -21.7831   -6.8667 S   0  0  0  0  0  0  0  0  0  0  0  0
   23.8363  -21.8441   -5.0808 C   0  0  0  0  0  0  0  0  0  0  0  0
   24.4303  -23.0704   -4.9902 O   0  0  0  0  0  0  0  0  0  0  0  0
   23.1642  -21.3874   -4.1429 O   0  0  0  0  0  0  0  0  0  0  0  0
  2  1  1  6
  3  2  1  0
  4  3  1  0
  4  5  2  0
  6  5  1  0
  7  6  1  0
  8  7  2  0
  9  8  1  0
 10  9  2  0
 10 11  1  0
 11 12  2  0
 12  7  1  0
 12  4  1  0
 13  2  1  0
 13 14  2  0
 15 16  1  0
 15 13  1  0
 16 17  1  1
 18 17  1  0
 19 18  2  0
 20 19  1  0
 21 20  2  0
 21 22  1  0
 22 23  2  0
 23 18  1  0
 24 16  1  0
 25 24  2  0
 26 24  1  0
 27 26  1  0
 27 30  1  0
 27 28  1  6
 29 28  1  0
 30 31  1  0
 32 30  2  0
M  END
$$$$
