WFC.pdb
     RDKit          3D

 32 34  0  0  1  0  0  0  0  0999 V2000
   27.6504  -19.4598  -14.0285 N   0  0  0  0  0  0  0  0  0  0  0  0
   27.0194  -20.7618  -14.0740 C   0  0  1  0  0  0  0  0  0  0  0  0
   28.0048  -21.7320  -14.6839 C   0  0  0  0  0  0  0  0  0  0  0  0
   28.3730  -21.3310  -16.0764 C   0  0  0  0  0  0  0  0  0  0  0  0
   29.6043  -21.3517  -16.6645 C   0  0  0  0  0  0  0  0  0  0  0  0
   29.4604  -20.9054  -17.9230 N   0  0  0  0  0  0  0  0  0  0  0  0
   28.1708  -20.5943  -18.1727 C   0  0  0  0  0  0  0  0  0  0  0  0
   27.5363  -20.1009  -19.3110 C   0  0  0  0  0  0  0  0  0  0  0  0
   26.1801  -19.8636  -19.3026 C   0  0  0  0  0  0  0  0  0  0  0  0
   25.4843  -20.1288  -18.1424 C   0  0  0  0  0  0  0  0  0  0  0  0
   26.1198  -20.6193  -17.0132 C   0  0  0  0  0  0  0  0  0  0  0  0
   27.4827  -20.8619  -17.0095 C   0  0  0  0  0  0  0  0  0  0  0  0
   26.7051  -21.2118  -12.7071 C   0  0  0  0  0  0  0  0  0  0  0  0
   26.9819  -22.3802  -12.3197 O   0  0  0  0  0  0  0  0  0  0  0  0
   26.0797  -20.3517  -11.7725 N   0  0  0  0  0  0  0  0  0  0  0  0
   25.0676  -20.8220  -10.8414 C   0  0  1  0  0  0  0  0  0  0  0  0
   25.1297  -19.9431   -9.6197 C   0  0  0  0  0  0  0  0  0  0  0  0
   26.3425  -20.1063   -8.8140 C   0  0  0  0  0  0  0  0  0  0  0  0
   27.0712  -21.2706   -8.6932 C   0  0  0  0  0  0  0  0  0  0  0  0
   28.2132  -21.3236   -7.8985 C   0  0  0  0  0  0  0  0  0  0  0  0
   28.6393  -20.2061   -7.2133 C   0  0  0  0  0  0  0  0  0  0  0  0
   27.9224  -19.0316   -7.3221 C   0  0  0  0  0  0  0  0  0  0  0  0
   26.8034  -19.0117   -8.1118 C   0  0  0  0  0  0  0  0  0  0  0  0
   23.7415  -20.5974  -11.4969 C   0  0  0  0  0  0  0  0  0  0  0  0
   23.4199  -19.4903  -11.9893 O   0  0  0  0  0  0  0  0  0  0  0  0
   22.7791  -21.6664  -11.5824 N   0  0  0  0  0  0  0  0  0  0  0  0
   21.4931  -21.5205  -12.1901 C   0  0  1  0  0  0  0  0  0  0  0  0
   21.0961  -22.8432  -12.7932 C   0  0  0  0  0  0  0  0  0  0  0  0
   19.5158  -22.7147  -13.6693 S   0  0  0  0  0  0  0  0  0  0  0  0
   20.4767  -21.0367  -11.2163 C   0  0  0  0  0  0  0  0  0  0  0  0
   20.7006  -21.1462   -9.8736 O   0  0  0  0  0  0  0  0  0  0  0  0
   19.4286  -20.5351  -11.6518 O   0  0  0  0  0  0  0  0  0  0  0  0
  2  1  1  1
  3  2  1  0
  4  3  1  0
  4  5  2  0
  6  5  1  0
  7  6  1  0
  8  7  2  0
  9  8  1  0
 10  9  2  0
 10 11  1  0
 11 12  2  0
 12  7  1  0
 12  4  1  0
 13  2  1  0
 13 14  2  0
 15 16  1  0
 15 13  1  0
 16 17  1  1
 18 17  1  0
 19 18  2  0
 20 19  1  0
 21 20  2  0
 21 22  1  0
 22 23  2  0
 23 18  1  0
 24 16  1  0
 25 24  2  0
 26 24  1  0
 27 26  1  0
 27 30  1  0
 27 28  1  1
 29 28  1  0
 30 31  1  0
 32 30  2  0
M  END
$$$$
