WFC.pdb
     RDKit          3D

 32 34  0  0  1  0  0  0  0  0999 V2000
   26.3673  -19.1849  -17.4225 N   0  0  0  0  0  0  0  0  0  0  0  0
   25.6418  -19.1119  -16.1721 C   0  0  1  0  0  0  0  0  0  0  0  0
   24.1671  -19.2147  -16.4866 C   0  0  0  0  0  0  0  0  0  0  0  0
   23.7049  -18.0585  -17.3143 C   0  0  0  0  0  0  0  0  0  0  0  0
   24.2833  -17.5359  -18.4344 C   0  0  0  0  0  0  0  0  0  0  0  0
   23.5228  -16.5064  -18.8412 N   0  0  0  0  0  0  0  0  0  0  0  0
   22.4650  -16.3425  -18.0187 C   0  0  0  0  0  0  0  0  0  0  0  0
   21.4146  -15.4268  -18.0250 C   0  0  0  0  0  0  0  0  0  0  0  0
   20.4439  -15.4766  -17.0498 C   0  0  0  0  0  0  0  0  0  0  0  0
   20.5493  -16.4522  -16.0815 C   0  0  0  0  0  0  0  0  0  0  0  0
   21.5956  -17.3603  -16.0796 C   0  0  0  0  0  0  0  0  0  0  0  0
   22.5775  -17.3203  -17.0547 C   0  0  0  0  0  0  0  0  0  0  0  0
   26.0165  -20.2468  -15.3111 C   0  0  0  0  0  0  0  0  0  0  0  0
   26.2091  -21.3986  -15.7885 O   0  0  0  0  0  0  0  0  0  0  0  0
   26.1755  -20.0913  -13.9129 N   0  0  0  0  0  0  0  0  0  0  0  0
   26.5974  -21.1849  -13.0535 C   0  0  1  0  0  0  0  0  0  0  0  0
   27.4899  -20.6069  -11.9866 C   0  0  0  0  0  0  0  0  0  0  0  0
   26.8110  -20.3038  -10.7241 C   0  0  0  0  0  0  0  0  0  0  0  0
   26.6926  -21.1647   -9.6535 C   0  0  0  0  0  0  0  0  0  0  0  0
   26.0244  -20.7807   -8.4940 C   0  0  0  0  0  0  0  0  0  0  0  0
   25.4653  -19.5248   -8.3939 C   0  0  0  0  0  0  0  0  0  0  0  0
   25.5738  -18.6494   -9.4556 C   0  0  0  0  0  0  0  0  0  0  0  0
   26.2374  -19.0570  -10.5825 C   0  0  0  0  0  0  0  0  0  0  0  0
   25.3653  -21.7060  -12.3833 C   0  0  0  0  0  0  0  0  0  0  0  0
   25.3894  -22.7056  -11.6271 O   0  0  0  0  0  0  0  0  0  0  0  0
   24.0931  -21.0621  -12.5917 N   0  0  0  0  0  0  0  0  0  0  0  0
   22.8548  -21.5935  -12.1136 C   0  0  1  0  0  0  0  0  0  0  0  0
   22.3493  -20.7059  -11.0057 C   0  0  0  0  0  0  0  0  0  0  0  0
   21.6017  -19.1946  -11.6677 S   0  0  0  0  0  0  0  0  0  0  0  0
   21.8544  -21.7254  -13.2078 C   0  0  0  0  0  0  0  0  0  0  0  0
   20.6887  -22.4054  -12.9986 O   0  0  0  0  0  0  0  0  0  0  0  0
   22.1042  -21.2059  -14.3067 O   0  0  0  0  0  0  0  0  0  0  0  0
  2  1  1  6
  3  2  1  0
  4  3  1  0
  4  5  2  0
  6  5  1  0
  7  6  1  0
  8  7  2  0
  9  8  1  0
 10  9  2  0
 10 11  1  0
 11 12  2  0
 12  7  1  0
 12  4  1  0
 13  2  1  0
 13 14  2  0
 15 16  1  0
 15 13  1  0
 16 17  1  1
 18 17  1  0
 19 18  2  0
 20 19  1  0
 21 20  2  0
 21 22  1  0
 22 23  2  0
 23 18  1  0
 24 16  1  0
 25 24  2  0
 26 24  1  0
 27 26  1  0
 27 30  1  0
 27 28  1  1
 29 28  1  0
 30 31  1  0
 32 30  2  0
M  END
$$$$
