WFC.pdb
     RDKit          3D

 32 34  0  0  1  0  0  0  0  0999 V2000
   26.1439  -21.1293  -12.7996 N   0  0  0  0  0  0  0  0  0  0  0  0
   25.4082  -20.7573  -11.6098 C   0  0  1  0  0  0  0  0  0  0  0  0
   24.1435  -21.5838  -11.5710 C   0  0  0  0  0  0  0  0  0  0  0  0
   23.0467  -20.9383  -12.3559 C   0  0  0  0  0  0  0  0  0  0  0  0
   22.8085  -21.0161  -13.6974 C   0  0  0  0  0  0  0  0  0  0  0  0
   21.7176  -20.2778  -13.9591 N   0  0  0  0  0  0  0  0  0  0  0  0
   21.2375  -19.7206  -12.8271 C   0  0  0  0  0  0  0  0  0  0  0  0
   20.1456  -18.8879  -12.5905 C   0  0  0  0  0  0  0  0  0  0  0  0
   19.8694  -18.4502  -11.3146 C   0  0  0  0  0  0  0  0  0  0  0  0
   20.7019  -18.8612  -10.2955 C   0  0  0  0  0  0  0  0  0  0  0  0
   21.7863  -19.6892  -10.5359 C   0  0  0  0  0  0  0  0  0  0  0  0
   22.0742  -20.1358  -11.8143 C   0  0  0  0  0  0  0  0  0  0  0  0
   26.2069  -21.0682  -10.4119 C   0  0  0  0  0  0  0  0  0  0  0  0
   26.7149  -22.2100  -10.2387 O   0  0  0  0  0  0  0  0  0  0  0  0
   26.4369  -20.0987   -9.4062 N   0  0  0  0  0  0  0  0  0  0  0  0
   27.2500  -20.3747   -8.2335 C   0  0  1  0  0  0  0  0  0  0  0  0
   27.9726  -19.1037   -7.8713 C   0  0  0  0  0  0  0  0  0  0  0  0
   28.7126  -19.1634   -6.6082 C   0  0  0  0  0  0  0  0  0  0  0  0
   29.5782  -20.1700   -6.2358 C   0  0  0  0  0  0  0  0  0  0  0  0
   30.2345  -20.1350   -5.0084 C   0  0  0  0  0  0  0  0  0  0  0  0
   30.0299  -19.0867   -4.1371 C   0  0  0  0  0  0  0  0  0  0  0  0
   29.1669  -18.0699   -4.4929 C   0  0  0  0  0  0  0  0  0  0  0  0
   28.5364  -18.1334   -5.7073 C   0  0  0  0  0  0  0  0  0  0  0  0
   26.3042  -20.6941   -7.1191 C   0  0  0  0  0  0  0  0  0  0  0  0
   25.3477  -19.9411   -6.8195 O   0  0  0  0  0  0  0  0  0  0  0  0
   26.4687  -21.8981   -6.3444 N   0  0  0  0  0  0  0  0  0  0  0  0
   25.7068  -22.1881   -5.1698 C   0  0  1  0  0  0  0  0  0  0  0  0
   25.8163  -23.6629   -4.8806 C   0  0  0  0  0  0  0  0  0  0  0  0
   25.0487  -24.0769   -3.2929 S   0  0  0  0  0  0  0  0  0  0  0  0
   26.1522  -21.3690   -4.0096 C   0  0  0  0  0  0  0  0  0  0  0  0
   25.2492  -20.6321   -3.2980 O   0  0  0  0  0  0  0  0  0  0  0  0
   27.3558  -21.3724   -3.7074 O   0  0  0  0  0  0  0  0  0  0  0  0
  2  1  1  6
  3  2  1  0
  4  3  1  0
  4  5  2  0
  6  5  1  0
  7  6  1  0
  8  7  2  0
  9  8  1  0
 10  9  2  0
 10 11  1  0
 11 12  2  0
 12  7  1  0
 12  4  1  0
 13  2  1  0
 13 14  2  0
 15 16  1  0
 15 13  1  0
 16 17  1  1
 18 17  1  0
 19 18  2  0
 20 19  1  0
 21 20  2  0
 21 22  1  0
 22 23  2  0
 23 18  1  0
 24 16  1  0
 25 24  2  0
 26 24  1  0
 27 26  1  0
 27 30  1  0
 27 28  1  1
 29 28  1  0
 30 31  1  0
 32 30  2  0
M  END
$$$$
