WFC.pdb
     RDKit          3D

 32 34  0  0  1  0  0  0  0  0999 V2000
   25.9533  -21.8923  -12.7020 N   0  0  0  0  0  0  0  0  0  0  0  0
   25.9754  -20.6848  -11.9039 C   0  0  1  0  0  0  0  0  0  0  0  0
   24.6003  -20.0611  -11.9711 C   0  0  0  0  0  0  0  0  0  0  0  0
   24.3189  -19.5088  -13.3318 C   0  0  0  0  0  0  0  0  0  0  0  0
   23.1993  -19.6712  -14.0950 C   0  0  0  0  0  0  0  0  0  0  0  0
   23.3881  -18.9966  -15.2409 N   0  0  0  0  0  0  0  0  0  0  0  0
   24.5986  -18.3990  -15.2470 C   0  0  0  0  0  0  0  0  0  0  0  0
   25.2388  -17.6039  -16.1954 C   0  0  0  0  0  0  0  0  0  0  0  0
   26.5003  -17.1097  -15.9500 C   0  0  0  0  0  0  0  0  0  0  0  0
   27.0968  -17.4269  -14.7483 C   0  0  0  0  0  0  0  0  0  0  0  0
   26.4560  -18.2179  -13.8086 C   0  0  0  0  0  0  0  0  0  0  0  0
   25.1877  -18.7206  -14.0438 C   0  0  0  0  0  0  0  0  0  0  0  0
   26.2684  -21.0203  -10.4998 C   0  0  0  0  0  0  0  0  0  0  0  0
   25.9245  -22.1279  -10.0030 O   0  0  0  0  0  0  0  0  0  0  0  0
   26.9476  -20.1136   -9.6508 N   0  0  0  0  0  0  0  0  0  0  0  0
   27.2181  -20.4122   -8.2543 C   0  0  1  0  0  0  0  0  0  0  0  0
   28.2055  -19.3908   -7.7536 C   0  0  0  0  0  0  0  0  0  0  0  0
   28.4757  -19.4600   -6.3152 C   0  0  0  0  0  0  0  0  0  0  0  0
   28.0211  -18.5622   -5.3725 C   0  0  0  0  0  0  0  0  0  0  0  0
   28.3353  -18.7157   -4.0248 C   0  0  0  0  0  0  0  0  0  0  0  0
   29.1115  -19.7746   -3.6052 C   0  0  0  0  0  0  0  0  0  0  0  0
   29.5755  -20.6834   -4.5347 C   0  0  0  0  0  0  0  0  0  0  0  0
   29.2490  -20.5049   -5.8530 C   0  0  0  0  0  0  0  0  0  0  0  0
   25.9346  -20.2061   -7.5133 C   0  0  0  0  0  0  0  0  0  0  0  0
   25.0278  -19.4562   -7.9457 O   0  0  0  0  0  0  0  0  0  0  0  0
   25.7003  -20.8756   -6.2590 N   0  0  0  0  0  0  0  0  0  0  0  0
   24.4469  -20.8427   -5.5718 C   0  0  1  0  0  0  0  0  0  0  0  0
   23.4199  -21.5530   -6.4154 C   0  0  0  0  0  0  0  0  0  0  0  0
   23.7605  -23.3300   -6.5022 S   0  0  0  0  0  0  0  0  0  0  0  0
   24.5487  -21.4433   -4.2138 C   0  0  0  0  0  0  0  0  0  0  0  0
   25.7259  -21.9881   -3.7868 O   0  0  0  0  0  0  0  0  0  0  0  0
   23.5446  -21.4368   -3.4847 O   0  0  0  0  0  0  0  0  0  0  0  0
  2  1  1  6
  3  2  1  0
  4  3  1  0
  4  5  2  0
  6  5  1  0
  7  6  1  0
  8  7  2  0
  9  8  1  0
 10  9  2  0
 10 11  1  0
 11 12  2  0
 12  7  1  0
 12  4  1  0
 13  2  1  0
 13 14  2  0
 15 16  1  0
 15 13  1  0
 16 17  1  1
 18 17  1  0
 19 18  2  0
 20 19  1  0
 21 20  2  0
 21 22  1  0
 22 23  2  0
 23 18  1  0
 24 16  1  0
 25 24  2  0
 26 24  1  0
 27 26  1  0
 27 30  1  0
 27 28  1  6
 29 28  1  0
 30 31  1  0
 32 30  2  0
M  END
$$$$
