WFC.pdb
     RDKit          3D

 32 34  0  0  1  0  0  0  0  0999 V2000
   26.7370  -21.1906  -13.7911 N   0  0  0  0  0  0  0  0  0  0  0  0
   25.7694  -20.7229  -12.8214 C   0  0  1  0  0  0  0  0  0  0  0  0
   24.4471  -21.3861  -13.1310 C   0  0  0  0  0  0  0  0  0  0  0  0
   23.9493  -21.0013  -14.4874 C   0  0  0  0  0  0  0  0  0  0  0  0
   23.9316  -21.7532  -15.6261 C   0  0  0  0  0  0  0  0  0  0  0  0
   23.3962  -21.0004  -16.6010 N   0  0  0  0  0  0  0  0  0  0  0  0
   23.0643  -19.7793  -16.1311 C   0  0  0  0  0  0  0  0  0  0  0  0
   22.4903  -18.6694  -16.7478 C   0  0  0  0  0  0  0  0  0  0  0  0
   22.2515  -17.5205  -16.0275 C   0  0  0  0  0  0  0  0  0  0  0  0
   22.5967  -17.5104  -14.6929 C   0  0  0  0  0  0  0  0  0  0  0  0
   23.1672  -18.6165  -14.0843 C   0  0  0  0  0  0  0  0  0  0  0  0
   23.4122  -19.7772  -14.7979 C   0  0  0  0  0  0  0  0  0  0  0  0
   26.1873  -21.1232  -11.4668 C   0  0  0  0  0  0  0  0  0  0  0  0
   26.5046  -22.3152  -11.2021 O   0  0  0  0  0  0  0  0  0  0  0  0
   26.2499  -20.1866  -10.4069 N   0  0  0  0  0  0  0  0  0  0  0  0
   26.5969  -20.5729   -9.0494 C   0  0  1  0  0  0  0  0  0  0  0  0
   27.2556  -19.3878   -8.3933 C   0  0  0  0  0  0  0  0  0  0  0  0
   27.6793  -19.6162   -7.0095 C   0  0  0  0  0  0  0  0  0  0  0  0
   27.0373  -19.1365   -5.8876 C   0  0  0  0  0  0  0  0  0  0  0  0
   27.5222  -19.4090   -4.6112 C   0  0  0  0  0  0  0  0  0  0  0  0
   28.6604  -20.1683   -4.4444 C   0  0  0  0  0  0  0  0  0  0  0  0
   29.3166  -20.6571   -5.5561 C   0  0  0  0  0  0  0  0  0  0  0  0
   28.8144  -20.3715   -6.7981 C   0  0  0  0  0  0  0  0  0  0  0  0
   25.3093  -20.8325   -8.3330 C   0  0  0  0  0  0  0  0  0  0  0  0
   25.2698  -21.1071   -7.1104 O   0  0  0  0  0  0  0  0  0  0  0  0
   24.0553  -20.7732   -9.0406 N   0  0  0  0  0  0  0  0  0  0  0  0
   22.7871  -20.9768   -8.4124 C   0  0  1  0  0  0  0  0  0  0  0  0
   21.8033  -19.9928   -8.9909 C   0  0  0  0  0  0  0  0  0  0  0  0
   21.3692  -18.7149   -7.7827 S   0  0  0  0  0  0  0  0  0  0  0  0
   22.3145  -22.3793   -8.5704 C   0  0  0  0  0  0  0  0  0  0  0  0
   21.6103  -22.9869   -7.5704 O   0  0  0  0  0  0  0  0  0  0  0  0
   22.5743  -22.9783   -9.6256 O   0  0  0  0  0  0  0  0  0  0  0  0
  2  1  1  6
  3  2  1  0
  4  3  1  0
  4  5  2  0
  6  5  1  0
  7  6  1  0
  8  7  2  0
  9  8  1  0
 10  9  2  0
 10 11  1  0
 11 12  2  0
 12  7  1  0
 12  4  1  0
 13  2  1  0
 13 14  2  0
 15 16  1  0
 15 13  1  0
 16 17  1  1
 18 17  1  0
 19 18  2  0
 20 19  1  0
 21 20  2  0
 21 22  1  0
 22 23  2  0
 23 18  1  0
 24 16  1  0
 25 24  2  0
 26 24  1  0
 27 26  1  0
 27 30  1  0
 27 28  1  6
 29 28  1  0
 30 31  1  0
 32 30  2  0
M  END
$$$$
