PAH.pdb
     RDKit          3D

 23 24  0  0  1  0  0  0  0  0999 V2000
    7.8089  -16.5720   16.6947 N   0  0  0  0  0  0  0  0  0  0  0  0
    7.0649  -16.4945   15.4550 C   0  0  0  0  0  0  0  0  0  0  0  0
    7.5628  -15.2758   14.7283 C   0  0  0  0  0  0  0  0  0  0  0  0
    8.9881  -15.1745   15.1760 C   0  0  0  0  0  0  0  0  0  0  0  0
    9.0459  -15.8878   16.4978 C   0  0  1  0  0  0  0  0  0  0  0  0
    9.3062  -14.8689   17.5611 C   0  0  0  0  0  0  0  0  0  0  0  0
   10.4587  -14.4020   17.7457 O   0  0  0  0  0  0  0  0  0  0  0  0
    7.2973  -12.6739   19.8901 C   0  0  0  0  0  0  0  0  0  0  0  0
    8.5270  -13.4464   19.4706 C   0  0  2  0  0  0  0  0  0  0  0  0
    8.2754  -14.3798   18.4101 N   0  0  0  0  0  0  0  0  0  0  0  0
    9.1734  -14.1096   20.6411 C   0  0  0  0  0  0  0  0  0  0  0  0
    9.4965  -13.3864   21.6142 O   0  0  0  0  0  0  0  0  0  0  0  0
    9.4313  -15.4889   20.6983 N   0  0  0  0  0  0  0  0  0  0  0  0
    9.9859  -16.1784   21.8690 C   0  0  1  0  0  0  0  0  0  0  0  0
    9.7999  -17.6485   21.7799 C   0  0  0  0  0  0  0  0  0  0  0  0
   10.3835  -18.3158   22.9566 C   0  0  0  0  0  0  0  0  0  0  0  0
   10.9724  -17.7064   24.0702 C   0  0  0  0  0  0  0  0  0  0  0  0
   11.3783  -18.6636   24.9170 N   0  0  0  0  0  0  0  0  0  0  0  0
   11.0808  -19.8450   24.4046 C   0  0  0  0  0  0  0  0  0  0  0  0
   10.4716  -19.6311   23.2041 N   0  0  0  0  0  0  0  0  0  0  0  0
   11.3984  -15.8035   22.0689 C   0  0  0  0  0  0  0  0  0  0  0  0
   12.2231  -15.5158   20.9721 O   0  0  0  0  0  0  0  0  0  0  0  0
   11.9529  -15.7143   23.1856 O   0  0  0  0  0  0  0  0  0  0  0  0
  1  2  1  0
  3  2  1  0
  4  3  1  0
  4  5  1  0
  5  6  1  1
  5  1  1  0
  6 10  1  0
  7  6  2  0
  9  8  1  1
  9 11  1  0
 10  9  1  0
 11 13  1  0
 11 12  2  0
 13 14  1  0
 14 15  1  6
 15 16  1  0
 16 17  2  0
 17 18  1  0
 19 18  1  0
 20 16  1  0
 20 19  2  0
 21 14  1  0
 21 22  1  0
 23 21  2  0
M  END
$$$$
