PAH.pdb
     RDKit          3D

 23 24  0  0  1  0  0  0  0  0999 V2000
    8.0503  -16.7413   17.8233 N   0  0  0  0  0  0  0  0  0  0  0  0
    8.0417  -18.0685   17.2449 C   0  0  0  0  0  0  0  0  0  0  0  0
    7.7705  -19.0281   18.3705 C   0  0  0  0  0  0  0  0  0  0  0  0
    6.9274  -18.2199   19.3075 C   0  0  0  0  0  0  0  0  0  0  0  0
    7.2605  -16.7844   19.0114 C   0  0  1  0  0  0  0  0  0  0  0  0
    7.9845  -16.2251   20.1944 C   0  0  0  0  0  0  0  0  0  0  0  0
    9.2280  -16.3605   20.3191 O   0  0  0  0  0  0  0  0  0  0  0  0
    7.1532  -13.9444   23.1146 C   0  0  0  0  0  0  0  0  0  0  0  0
    8.0082  -14.9105   22.3272 C   0  0  2  0  0  0  0  0  0  0  0  0
    7.3121  -15.5184   21.2293 N   0  0  0  0  0  0  0  0  0  0  0  0
    8.6250  -15.9362   23.2189 C   0  0  0  0  0  0  0  0  0  0  0  0
    7.9569  -16.9690   23.4666 O   0  0  0  0  0  0  0  0  0  0  0  0
    9.9030  -15.7960   23.7840 N   0  0  0  0  0  0  0  0  0  0  0  0
   10.4828  -16.7278   24.7582 C   0  0  1  0  0  0  0  0  0  0  0  0
   11.9542  -16.8441   24.5988 C   0  0  0  0  0  0  0  0  0  0  0  0
   12.2849  -17.5371   23.3415 C   0  0  0  0  0  0  0  0  0  0  0  0
   11.3916  -18.1181   22.4345 C   0  0  0  0  0  0  0  0  0  0  0  0
   12.0934  -18.6456   21.4210 N   0  0  0  0  0  0  0  0  0  0  0  0
   13.3804  -18.4325   21.6329 C   0  0  0  0  0  0  0  0  0  0  0  0
   13.4968  -17.7536   22.8092 N   0  0  0  0  0  0  0  0  0  0  0  0
   10.0963  -16.3484   26.1302 C   0  0  0  0  0  0  0  0  0  0  0  0
   10.3883  -17.1900   27.2130 O   0  0  0  0  0  0  0  0  0  0  0  0
    9.5026  -15.2895   26.4282 O   0  0  0  0  0  0  0  0  0  0  0  0
  1  2  1  0
  3  2  1  0
  4  3  1  0
  4  5  1  0
  5  6  1  1
  5  1  1  0
  6 10  1  0
  7  6  2  0
  9  8  1  1
  9 11  1  0
 10  9  1  0
 11 13  1  0
 11 12  2  0
 13 14  1  0
 14 15  1  1
 15 16  1  0
 16 17  2  0
 17 18  1  0
 19 18  1  0
 20 16  1  0
 20 19  2  0
 21 14  1  0
 21 22  1  0
 23 21  2  0
M  END
$$$$
