PAH.pdb
     RDKit          3D

 23 24  0  0  1  0  0  0  0  0999 V2000
    8.9521  -14.8022   18.3140 N   0  0  0  0  0  0  0  0  0  0  0  0
    8.1189  -14.2366   17.2737 C   0  0  0  0  0  0  0  0  0  0  0  0
    7.1403  -13.3203   17.9549 C   0  0  0  0  0  0  0  0  0  0  0  0
    7.9035  -12.8398   19.1503 C   0  0  0  0  0  0  0  0  0  0  0  0
    8.9410  -13.8945   19.4154 C   0  0  1  0  0  0  0  0  0  0  0  0
    8.5938  -14.5700   20.7037 C   0  0  0  0  0  0  0  0  0  0  0  0
    8.4305  -13.9093   21.7606 O   0  0  0  0  0  0  0  0  0  0  0  0
    7.7586  -18.1117   21.8290 C   0  0  0  0  0  0  0  0  0  0  0  0
    7.9563  -16.6220   21.9921 C   0  0  2  0  0  0  0  0  0  0  0  0
    8.4317  -15.9796   20.8002 N   0  0  0  0  0  0  0  0  0  0  0  0
    8.8306  -16.3183   23.1630 C   0  0  0  0  0  0  0  0  0  0  0  0
   10.0722  -16.3419   22.9835 O   0  0  0  0  0  0  0  0  0  0  0  0
    8.3293  -16.0119   24.4386 N   0  0  0  0  0  0  0  0  0  0  0  0
    9.1627  -15.6303   25.5845 C   0  0  1  0  0  0  0  0  0  0  0  0
    8.3464  -15.0977   26.7044 C   0  0  0  0  0  0  0  0  0  0  0  0
    9.2056  -14.7424   27.8471 C   0  0  0  0  0  0  0  0  0  0  0  0
    9.7973  -13.5014   28.1080 C   0  0  0  0  0  0  0  0  0  0  0  0
   10.5008  -13.5935   29.2459 N   0  0  0  0  0  0  0  0  0  0  0  0
   10.3893  -14.8215   29.7217 C   0  0  0  0  0  0  0  0  0  0  0  0
    9.5960  -15.5244   28.8645 N   0  0  0  0  0  0  0  0  0  0  0  0
   10.0170  -16.7582   26.0011 C   0  0  0  0  0  0  0  0  0  0  0  0
    9.4821  -18.0471   26.1369 O   0  0  0  0  0  0  0  0  0  0  0  0
   11.2370  -16.6622   26.2557 O   0  0  0  0  0  0  0  0  0  0  0  0
  1  2  1  0
  3  2  1  0
  4  3  1  0
  4  5  1  0
  5  6  1  1
  5  1  1  0
  6 10  1  0
  7  6  2  0
  9  8  1  6
  9 11  1  0
 10  9  1  0
 11 13  1  0
 11 12  2  0
 13 14  1  0
 14 15  1  1
 15 16  1  0
 16 17  2  0
 17 18  1  0
 19 18  1  0
 20 16  1  0
 20 19  2  0
 21 14  1  0
 21 22  1  0
 23 21  2  0
M  END
$$$$
