PAH.pdb
     RDKit          3D

 23 24  0  0  1  0  0  0  0  0999 V2000
    7.6530  -15.1023   19.6309 N   0  0  0  0  0  0  0  0  0  0  0  0
    6.8929  -14.3477   18.6567 C   0  0  0  0  0  0  0  0  0  0  0  0
    7.2678  -12.9032   18.8417 C   0  0  0  0  0  0  0  0  0  0  0  0
    8.6818  -12.9810   19.3285 C   0  0  0  0  0  0  0  0  0  0  0  0
    8.8188  -14.3430   19.9493 C   0  0  1  0  0  0  0  0  0  0  0  0
    8.9933  -14.1628   21.4236 C   0  0  0  0  0  0  0  0  0  0  0  0
   10.0129  -13.5969   21.8930 O   0  0  0  0  0  0  0  0  0  0  0  0
    6.8303  -14.3864   24.5007 C   0  0  0  0  0  0  0  0  0  0  0  0
    8.1554  -14.3931   23.7735 C   0  0  2  0  0  0  0  0  0  0  0  0
    8.0260  -14.6170   22.3620 N   0  0  0  0  0  0  0  0  0  0  0  0
    9.1079  -15.3592   24.3955 C   0  0  0  0  0  0  0  0  0  0  0  0
    9.2792  -15.2899   25.6366 O   0  0  0  0  0  0  0  0  0  0  0  0
    9.8102  -16.3285   23.6610 N   0  0  0  0  0  0  0  0  0  0  0  0
   10.7101  -17.3240   24.2546 C   0  0  1  0  0  0  0  0  0  0  0  0
   10.2394  -18.7093   24.0031 C   0  0  0  0  0  0  0  0  0  0  0  0
   10.0450  -18.9355   22.5604 C   0  0  0  0  0  0  0  0  0  0  0  0
   10.2125  -18.0064   21.5274 C   0  0  0  0  0  0  0  0  0  0  0  0
    9.9374  -18.6086   20.3614 N   0  0  0  0  0  0  0  0  0  0  0  0
    9.6051  -19.8663   20.5953 C   0  0  0  0  0  0  0  0  0  0  0  0
    9.6712  -20.0656   21.9422 N   0  0  0  0  0  0  0  0  0  0  0  0
   12.0945  -17.1103   23.7925 C   0  0  0  0  0  0  0  0  0  0  0  0
   13.1581  -17.8157   24.3731 O   0  0  0  0  0  0  0  0  0  0  0  0
   12.4198  -16.3169   22.8830 O   0  0  0  0  0  0  0  0  0  0  0  0
  1  2  1  0
  3  2  1  0
  4  3  1  0
  4  5  1  0
  5  6  1  1
  5  1  1  0
  6 10  1  0
  7  6  2  0
  9  8  1  1
  9 11  1  0
 10  9  1  0
 11 13  1  0
 11 12  2  0
 13 14  1  0
 14 15  1  6
 15 16  1  0
 16 17  2  0
 17 18  1  0
 19 18  1  0
 20 16  1  0
 20 19  2  0
 21 14  1  0
 21 22  1  0
 23 21  2  0
M  END
$$$$
