PAH.pdb
     RDKit          3D

 23 24  0  0  1  0  0  0  0  0999 V2000
    7.8651  -15.1978   19.7522 N   0  0  0  0  0  0  0  0  0  0  0  0
    6.9968  -14.6557   18.7283 C   0  0  0  0  0  0  0  0  0  0  0  0
    6.6073  -13.2751   19.1793 C   0  0  0  0  0  0  0  0  0  0  0  0
    7.7953  -12.8325   19.9762 C   0  0  0  0  0  0  0  0  0  0  0  0
    8.4662  -14.0973   20.4338 C   0  0  1  0  0  0  0  0  0  0  0  0
    8.3066  -14.1935   21.9177 C   0  0  0  0  0  0  0  0  0  0  0  0
    7.6400  -13.3403   22.5563 O   0  0  0  0  0  0  0  0  0  0  0  0
    7.2049  -15.3981   24.4596 C   0  0  0  0  0  0  0  0  0  0  0  0
    8.6693  -15.3965   24.0852 C   0  0  2  0  0  0  0  0  0  0  0  0
    8.8939  -15.2433   22.6762 N   0  0  0  0  0  0  0  0  0  0  0  0
    9.3653  -16.6027   24.6221 C   0  0  0  0  0  0  0  0  0  0  0  0
    8.8112  -17.7162   24.4558 O   0  0  0  0  0  0  0  0  0  0  0  0
   10.5962  -16.5448   25.2957 N   0  0  0  0  0  0  0  0  0  0  0  0
   11.3242  -17.7192   25.7899 C   0  0  1  0  0  0  0  0  0  0  0  0
   12.7936  -17.5104   25.7530 C   0  0  0  0  0  0  0  0  0  0  0  0
   13.2109  -17.0041   24.4340 C   0  0  0  0  0  0  0  0  0  0  0  0
   12.9157  -17.5567   23.1826 C   0  0  0  0  0  0  0  0  0  0  0  0
   13.4814  -16.7957   22.2346 N   0  0  0  0  0  0  0  0  0  0  0  0
   14.1186  -15.7923   22.8125 C   0  0  0  0  0  0  0  0  0  0  0  0
   13.9524  -15.9207   24.1594 N   0  0  0  0  0  0  0  0  0  0  0  0
   10.8457  -18.0970   27.1330 C   0  0  0  0  0  0  0  0  0  0  0  0
   11.3347  -19.2474   27.7680 O   0  0  0  0  0  0  0  0  0  0  0  0
   10.0012  -17.4493   27.7886 O   0  0  0  0  0  0  0  0  0  0  0  0
  1  2  1  0
  3  2  1  0
  4  3  1  0
  4  5  1  0
  5  6  1  1
  5  1  1  0
  6 10  1  0
  7  6  2  0
  9  8  1  6
  9 11  1  0
 10  9  1  0
 11 13  1  0
 11 12  2  0
 13 14  1  0
 14 15  1  1
 15 16  1  0
 16 17  2  0
 17 18  1  0
 19 18  1  0
 20 16  1  0
 20 19  2  0
 21 14  1  0
 21 22  1  0
 23 21  2  0
M  END
$$$$
