PAH.pdb
     RDKit          3D

 23 24  0  0  1  0  0  0  0  0999 V2000
    6.8099  -18.6726   21.6281 N   0  0  0  0  0  0  0  0  0  0  0  0
    5.7729  -19.1236   20.7240 C   0  0  0  0  0  0  0  0  0  0  0  0
    6.1474  -18.6262   19.3551 C   0  0  0  0  0  0  0  0  0  0  0  0
    7.6437  -18.5992   19.4034 C   0  0  0  0  0  0  0  0  0  0  0  0
    7.9969  -18.4791   20.8595 C   0  0  1  0  0  0  0  0  0  0  0  0
    8.6005  -17.1285   21.0781 C   0  0  0  0  0  0  0  0  0  0  0  0
    9.7806  -16.8789   20.7240 O   0  0  0  0  0  0  0  0  0  0  0  0
    7.5578  -13.6298   21.8096 C   0  0  0  0  0  0  0  0  0  0  0  0
    8.4856  -14.8059   22.0107 C   0  0  2  0  0  0  0  0  0  0  0  0
    7.8797  -16.0669   21.6913 N   0  0  0  0  0  0  0  0  0  0  0  0
    9.0625  -14.8094   23.3872 C   0  0  0  0  0  0  0  0  0  0  0  0
    9.7467  -13.8163   23.7337 O   0  0  0  0  0  0  0  0  0  0  0  0
    8.8745  -15.8620   24.2976 N   0  0  0  0  0  0  0  0  0  0  0  0
    9.4572  -15.9046   25.6438 C   0  0  1  0  0  0  0  0  0  0  0  0
    8.4146  -15.8147   26.6968 C   0  0  0  0  0  0  0  0  0  0  0  0
    7.6149  -14.5889   26.5294 C   0  0  0  0  0  0  0  0  0  0  0  0
    7.9352  -13.3014   26.9746 C   0  0  0  0  0  0  0  0  0  0  0  0
    6.9456  -12.4682   26.6221 N   0  0  0  0  0  0  0  0  0  0  0  0
    6.0159  -13.1530   25.9790 C   0  0  0  0  0  0  0  0  0  0  0  0
    6.4266  -14.4515   25.9227 N   0  0  0  0  0  0  0  0  0  0  0  0
   10.3102  -17.0977   25.8006 C   0  0  0  0  0  0  0  0  0  0  0  0
   10.9668  -17.3519   27.0130 O   0  0  0  0  0  0  0  0  0  0  0  0
   10.5087  -17.9453   24.9035 O   0  0  0  0  0  0  0  0  0  0  0  0
  1  2  1  0
  3  2  1  0
  4  3  1  0
  4  5  1  0
  5  6  1  6
  5  1  1  0
  6 10  1  0
  7  6  2  0
  9  8  1  1
  9 11  1  0
 10  9  1  0
 11 13  1  0
 11 12  2  0
 13 14  1  0
 14 15  1  1
 15 16  1  0
 16 17  2  0
 17 18  1  0
 19 18  1  0
 20 16  1  0
 20 19  2  0
 21 14  1  0
 21 22  1  0
 23 21  2  0
M  END
$$$$
