PAH.pdb
     RDKit          3D

 23 24  0  0  1  0  0  0  0  0999 V2000
    7.0889  -14.9959   20.0458 N   0  0  0  0  0  0  0  0  0  0  0  0
    6.5465  -13.9634   19.1878 C   0  0  0  0  0  0  0  0  0  0  0  0
    7.4754  -12.7853   19.2900 C   0  0  0  0  0  0  0  0  0  0  0  0
    8.8034  -13.4243   19.5553 C   0  0  0  0  0  0  0  0  0  0  0  0
    8.4911  -14.7602   20.1694 C   0  0  1  0  0  0  0  0  0  0  0  0
    8.9373  -14.7278   21.5964 C   0  0  0  0  0  0  0  0  0  0  0  0
   10.1515  -14.5984   21.8950 O   0  0  0  0  0  0  0  0  0  0  0  0
    7.3005  -14.2516   24.9572 C   0  0  0  0  0  0  0  0  0  0  0  0
    8.4245  -14.6941   24.0486 C   0  0  2  0  0  0  0  0  0  0  0  0
    8.0219  -14.8403   22.6790 N   0  0  0  0  0  0  0  0  0  0  0  0
    9.0776  -15.9341   24.5621 C   0  0  0  0  0  0  0  0  0  0  0  0
    8.4897  -17.0251   24.3661 O   0  0  0  0  0  0  0  0  0  0  0  0
   10.3045  -15.9311   25.2453 N   0  0  0  0  0  0  0  0  0  0  0  0
   10.9985  -17.1401   25.7036 C   0  0  1  0  0  0  0  0  0  0  0  0
   12.4720  -16.9598   25.7073 C   0  0  0  0  0  0  0  0  0  0  0  0
   12.9749  -16.7833   24.3339 C   0  0  0  0  0  0  0  0  0  0  0  0
   12.2310  -16.8164   23.1490 C   0  0  0  0  0  0  0  0  0  0  0  0
   13.0618  -16.6125   22.1164 N   0  0  0  0  0  0  0  0  0  0  0  0
   14.2897  -16.4521   22.5781 C   0  0  0  0  0  0  0  0  0  0  0  0
   14.2356  -16.5568   23.9362 N   0  0  0  0  0  0  0  0  0  0  0  0
   10.4829  -17.5653   27.0186 C   0  0  0  0  0  0  0  0  0  0  0  0
   10.8783  -18.7880   27.5794 O   0  0  0  0  0  0  0  0  0  0  0  0
    9.6855  -16.8982   27.7125 O   0  0  0  0  0  0  0  0  0  0  0  0
  1  2  1  0
  3  2  1  0
  4  3  1  0
  4  5  1  0
  5  6  1  1
  5  1  1  0
  6 10  1  0
  7  6  2  0
  9  8  1  1
  9 11  1  0
 10  9  1  0
 11 13  1  0
 11 12  2  0
 13 14  1  0
 14 15  1  1
 15 16  1  0
 16 17  2  0
 17 18  1  0
 19 18  1  0
 20 16  1  0
 20 19  2  0
 21 14  1  0
 21 22  1  0
 23 21  2  0
M  END
$$$$
