PAH.pdb
     RDKit          3D

 23 24  0  0  1  0  0  0  0  0999 V2000
    6.6906  -18.3834   21.1642 N   0  0  0  0  0  0  0  0  0  0  0  0
    5.7716  -18.7941   20.1235 C   0  0  0  0  0  0  0  0  0  0  0  0
    6.3669  -18.3416   18.8188 C   0  0  0  0  0  0  0  0  0  0  0  0
    7.8398  -18.3938   19.0836 C   0  0  0  0  0  0  0  0  0  0  0  0
    7.9850  -18.2672   20.5743 C   0  0  1  0  0  0  0  0  0  0  0  0
    8.6247  -16.9472   20.8653 C   0  0  0  0  0  0  0  0  0  0  0  0
    9.8330  -16.7358   20.5903 O   0  0  0  0  0  0  0  0  0  0  0  0
    7.6339  -13.4362   21.6677 C   0  0  0  0  0  0  0  0  0  0  0  0
    8.5365  -14.6374   21.8319 C   0  0  2  0  0  0  0  0  0  0  0  0
    7.9082  -15.8733   21.4618 N   0  0  0  0  0  0  0  0  0  0  0  0
    9.1023  -14.7031   23.2115 C   0  0  0  0  0  0  0  0  0  0  0  0
    9.7763  -13.7231   23.6111 O   0  0  0  0  0  0  0  0  0  0  0  0
    8.9148  -15.7997   24.0686 N   0  0  0  0  0  0  0  0  0  0  0  0
    9.4034  -15.8614   25.4510 C   0  0  1  0  0  0  0  0  0  0  0  0
    8.2879  -15.9826   26.4231 C   0  0  0  0  0  0  0  0  0  0  0  0
    7.4352  -14.7819   26.3838 C   0  0  0  0  0  0  0  0  0  0  0  0
    7.8337  -13.4537   26.5718 C   0  0  0  0  0  0  0  0  0  0  0  0
    6.7565  -12.6634   26.4571 N   0  0  0  0  0  0  0  0  0  0  0  0
    5.6977  -13.4139   26.2071 C   0  0  0  0  0  0  0  0  0  0  0  0
    6.1142  -14.7111   26.1625 N   0  0  0  0  0  0  0  0  0  0  0  0
   10.3966  -16.9416   25.6007 C   0  0  0  0  0  0  0  0  0  0  0  0
   11.0070  -17.1840   26.8395 O   0  0  0  0  0  0  0  0  0  0  0  0
   10.7599  -17.6987   24.6748 O   0  0  0  0  0  0  0  0  0  0  0  0
  1  2  1  0
  3  2  1  0
  4  3  1  0
  4  5  1  0
  5  6  1  6
  5  1  1  0
  6 10  1  0
  7  6  2  0
  9  8  1  1
  9 11  1  0
 10  9  1  0
 11 13  1  0
 11 12  2  0
 13 14  1  0
 14 15  1  1
 15 16  1  0
 16 17  2  0
 17 18  1  0
 19 18  1  0
 20 16  1  0
 20 19  2  0
 21 14  1  0
 21 22  1  0
 23 21  2  0
M  END
$$$$
