YFG.pdb
     RDKit          3D

 28 29  0  0  1  0  0  0  0  0999 V2000
    5.3731  -22.1826   17.8702 O   0  0  0  0  0  0  0  0  0  0  0  0
    6.0379  -21.3138   18.7372 C   0  0  0  0  0  0  0  0  0  0  0  0
    5.3568  -20.3912   19.5037 C   0  0  0  0  0  0  0  0  0  0  0  0
    6.0433  -19.5467   20.3509 C   0  0  0  0  0  0  0  0  0  0  0  0
    7.4155  -19.5729   20.4795 C   0  0  0  0  0  0  0  0  0  0  0  0
    8.1575  -18.6593   21.3958 C   0  0  0  0  0  0  0  0  0  0  0  0
    8.1479  -17.2351   20.8615 C   0  0  2  0  0  0  0  0  0  0  0  0
    9.0475  -17.1754   19.7503 N   0  0  0  0  0  0  0  0  0  0  0  0
    8.4659  -16.2988   21.9447 C   0  0  0  0  0  0  0  0  0  0  0  0
    9.6341  -15.8463   22.0122 O   0  0  0  0  0  0  0  0  0  0  0  0
    8.0991  -20.4995   19.7096 C   0  0  0  0  0  0  0  0  0  0  0  0
    7.4111  -21.3428   18.8634 C   0  0  0  0  0  0  0  0  0  0  0  0
    7.5444  -15.8636   22.9287 N   0  0  0  0  0  0  0  0  0  0  0  0
    7.8716  -14.8445   23.9031 C   0  0  1  0  0  0  0  0  0  0  0  0
    6.5940  -14.1231   24.3055 C   0  0  0  0  0  0  0  0  0  0  0  0
    6.8478  -13.1494   25.3942 C   0  0  0  0  0  0  0  0  0  0  0  0
    6.2030  -13.2609   26.6063 C   0  0  0  0  0  0  0  0  0  0  0  0
    6.4630  -12.3374   27.5981 C   0  0  0  0  0  0  0  0  0  0  0  0
    7.3526  -11.3056   27.4054 C   0  0  0  0  0  0  0  0  0  0  0  0
    7.9927  -11.2013   26.1915 C   0  0  0  0  0  0  0  0  0  0  0  0
    7.7406  -12.1278   25.1776 C   0  0  0  0  0  0  0  0  0  0  0  0
    8.4838  -15.4432   25.1165 C   0  0  0  0  0  0  0  0  0  0  0  0
    8.7980  -14.6959   26.0894 O   0  0  0  0  0  0  0  0  0  0  0  0
    8.7184  -16.8279   25.1975 N   0  0  0  0  0  0  0  0  0  0  0  0
    9.2375  -17.3676   26.4321 C   0  0  0  0  0  0  0  0  0  0  0  0
   10.7166  -17.3046   26.4676 C   0  0  0  0  0  0  0  0  0  0  0  0
   11.3416  -16.6730   25.5813 O   0  0  0  0  0  0  0  0  0  0  0  0
   11.4464  -17.9292   27.4619 O   0  0  0  0  0  0  0  0  0  0  0  0
  2  1  1  0
  3  2  2  0
  4  3  1  0
  5  4  2  0
  5 11  1  0
  6  7  1  0
  6  5  1  0
  7  8  1  6
  9  7  1  0
  9 10  2  0
 11 12  2  0
 12  2  1  0
 13  9  1  0
 14 13  1  0
 14 15  1  1
 16 15  1  0
 16 21  2  0
 17 18  2  0
 17 16  1  0
 18 19  1  0
 19 20  2  0
 21 20  1  0
 22 14  1  0
 23 22  2  0
 24 22  1  0
 25 24  1  0
 26 28  1  0
 26 25  1  0
 27 26  2  0
M  END
$$$$
