YFG.pdb
     RDKit          3D

 28 29  0  0  1  0  0  0  0  0999 V2000
   12.0525  -16.8793   31.4894 O   0  0  0  0  0  0  0  0  0  0  0  0
   11.0084  -16.8536   30.5634 C   0  0  0  0  0  0  0  0  0  0  0  0
   10.5807  -15.6772   29.9839 C   0  0  0  0  0  0  0  0  0  0  0  0
    9.5461  -15.6857   29.0720 C   0  0  0  0  0  0  0  0  0  0  0  0
    8.8939  -16.8399   28.6945 C   0  0  0  0  0  0  0  0  0  0  0  0
    7.7749  -16.8485   27.7083 C   0  0  0  0  0  0  0  0  0  0  0  0
    8.2139  -17.4885   26.4000 C   0  0  2  0  0  0  0  0  0  0  0  0
    9.6445  -17.5068   26.3768 N   0  0  0  0  0  0  0  0  0  0  0  0
    7.6024  -16.7774   25.2724 C   0  0  0  0  0  0  0  0  0  0  0  0
    6.3742  -16.9338   25.0698 O   0  0  0  0  0  0  0  0  0  0  0  0
    9.3235  -18.0211   29.2767 C   0  0  0  0  0  0  0  0  0  0  0  0
   10.3580  -18.0105   30.1880 C   0  0  0  0  0  0  0  0  0  0  0  0
    8.3013  -15.9199   24.3874 N   0  0  0  0  0  0  0  0  0  0  0  0
    7.6633  -15.2878   23.2523 C   0  0  1  0  0  0  0  0  0  0  0  0
    7.8630  -13.7829   23.3533 C   0  0  0  0  0  0  0  0  0  0  0  0
    7.3796  -13.2637   24.6549 C   0  0  0  0  0  0  0  0  0  0  0  0
    6.0528  -13.3707   25.0094 C   0  0  0  0  0  0  0  0  0  0  0  0
    5.6366  -12.8770   26.2289 C   0  0  0  0  0  0  0  0  0  0  0  0
    6.5167  -12.2792   27.1014 C   0  0  0  0  0  0  0  0  0  0  0  0
    7.8405  -12.1763   26.7397 C   0  0  0  0  0  0  0  0  0  0  0  0
    8.2775  -12.6709   25.5091 C   0  0  0  0  0  0  0  0  0  0  0  0
    8.2541  -15.7628   21.9752 C   0  0  0  0  0  0  0  0  0  0  0  0
    7.8575  -15.2632   20.8812 O   0  0  0  0  0  0  0  0  0  0  0  0
    9.2470  -16.7592   21.9666 N   0  0  0  0  0  0  0  0  0  0  0  0
    9.7255  -17.2440   20.6933 C   0  0  0  0  0  0  0  0  0  0  0  0
   11.0712  -16.7087   20.3844 C   0  0  0  0  0  0  0  0  0  0  0  0
   11.2005  -15.5320   19.9674 O   0  0  0  0  0  0  0  0  0  0  0  0
   12.2113  -17.4745   20.5424 O   0  0  0  0  0  0  0  0  0  0  0  0
  2  1  1  0
  3  2  2  0
  4  3  1  0
  5  4  2  0
  5 11  1  0
  6  7  1  0
  6  5  1  0
  7  8  1  6
  9  7  1  0
  9 10  2  0
 11 12  2  0
 12  2  1  0
 13  9  1  0
 14 13  1  0
 14 15  1  1
 16 15  1  0
 16 21  2  0
 17 18  2  0
 17 16  1  0
 18 19  1  0
 19 20  2  0
 21 20  1  0
 22 14  1  0
 23 22  2  0
 24 22  1  0
 25 24  1  0
 26 28  1  0
 26 25  1  0
 27 26  2  0
M  END
$$$$
