YFG.pdb
     RDKit          3D

 28 29  0  0  1  0  0  0  0  0999 V2000
    7.8657  -12.4611   17.2257 O   0  0  0  0  0  0  0  0  0  0  0  0
    8.1084  -13.5320   18.0873 C   0  0  0  0  0  0  0  0  0  0  0  0
    7.2977  -14.6479   18.1048 C   0  0  0  0  0  0  0  0  0  0  0  0
    7.5646  -15.6895   18.9684 C   0  0  0  0  0  0  0  0  0  0  0  0
    8.6297  -15.6787   19.8435 C   0  0  0  0  0  0  0  0  0  0  0  0
    8.9179  -16.8055   20.7774 C   0  0  0  0  0  0  0  0  0  0  0  0
   10.1478  -16.5057   21.6210 C   0  0  2  0  0  0  0  0  0  0  0  0
   10.9960  -17.6576   21.5882 N   0  0  0  0  0  0  0  0  0  0  0  0
    9.7355  -16.0996   22.9687 C   0  0  0  0  0  0  0  0  0  0  0  0
   10.4755  -16.4104   23.9329 O   0  0  0  0  0  0  0  0  0  0  0  0
    9.4436  -14.5580   19.8257 C   0  0  0  0  0  0  0  0  0  0  0  0
    9.1751  -13.5179   18.9616 C   0  0  0  0  0  0  0  0  0  0  0  0
    8.5539  -15.3765   23.2652 N   0  0  0  0  0  0  0  0  0  0  0  0
    8.3387  -14.7293   24.5418 C   0  0  1  0  0  0  0  0  0  0  0  0
    7.2812  -13.6489   24.3714 C   0  0  0  0  0  0  0  0  0  0  0  0
    7.0028  -12.9634   25.6560 C   0  0  0  0  0  0  0  0  0  0  0  0
    7.9525  -12.1610   26.2490 C   0  0  0  0  0  0  0  0  0  0  0  0
    7.6601  -11.5374   27.4448 C   0  0  0  0  0  0  0  0  0  0  0  0
    6.4401  -11.6980   28.0605 C   0  0  0  0  0  0  0  0  0  0  0  0
    5.4968  -12.5013   27.4616 C   0  0  0  0  0  0  0  0  0  0  0  0
    5.7772  -13.1393   26.2515 C   0  0  0  0  0  0  0  0  0  0  0  0
    7.8674  -15.7018   25.5605 C   0  0  0  0  0  0  0  0  0  0  0  0
    7.6070  -15.2995   26.7327 O   0  0  0  0  0  0  0  0  0  0  0  0
    7.7071  -17.0619   25.2391 N   0  0  0  0  0  0  0  0  0  0  0  0
    7.1274  -17.9399   26.2282 C   0  0  0  0  0  0  0  0  0  0  0  0
    7.0572  -19.3345   25.7354 C   0  0  0  0  0  0  0  0  0  0  0  0
    6.5739  -20.2360   26.4626 O   0  0  0  0  0  0  0  0  0  0  0  0
    7.5140  -19.6844   24.4784 O   0  0  0  0  0  0  0  0  0  0  0  0
  2  1  1  0
  3  2  2  0
  4  3  1  0
  5  4  2  0
  5 11  1  0
  6  7  1  0
  6  5  1  0
  7  8  1  1
  9  7  1  0
  9 10  2  0
 11 12  2  0
 12  2  1  0
 13  9  1  0
 14 13  1  0
 14 15  1  6
 16 15  1  0
 16 21  2  0
 17 18  2  0
 17 16  1  0
 18 19  1  0
 19 20  2  0
 21 20  1  0
 22 14  1  0
 23 22  2  0
 24 22  1  0
 25 24  1  0
 26 28  1  0
 26 25  1  0
 27 26  2  0
M  END
$$$$
