YFG.pdb
     RDKit          3D

 28 29  0  0  1  0  0  0  0  0999 V2000
  -10.6848  -27.7775   29.9075 O   0  0  0  0  0  0  0  0  0  0  0  0
   -9.6199  -27.4580   29.0636 C   0  0  0  0  0  0  0  0  0  0  0  0
   -9.4708  -28.0503   27.8268 C   0  0  0  0  0  0  0  0  0  0  0  0
   -8.4072  -27.7126   27.0163 C   0  0  0  0  0  0  0  0  0  0  0  0
   -7.4539  -26.7871   27.3836 C   0  0  0  0  0  0  0  0  0  0  0  0
   -6.3038  -26.4224   26.5067 C   0  0  0  0  0  0  0  0  0  0  0  0
   -6.4271  -24.9846   26.0256 C   0  0  2  0  0  0  0  0  0  0  0  0
   -7.6300  -24.8785   25.2580 N   0  0  0  0  0  0  0  0  0  0  0  0
   -5.2127  -24.6010   25.2981 C   0  0  0  0  0  0  0  0  0  0  0  0
   -5.1731  -24.8082   24.0614 O   0  0  0  0  0  0  0  0  0  0  0  0
   -7.6039  -26.1926   28.6256 C   0  0  0  0  0  0  0  0  0  0  0  0
   -8.6678  -26.5314   29.4343 C   0  0  0  0  0  0  0  0  0  0  0  0
   -4.0714  -24.0089   25.8930 N   0  0  0  0  0  0  0  0  0  0  0  0
   -2.9121  -23.6110   25.1231 C   0  0  1  0  0  0  0  0  0  0  0  0
   -2.6736  -22.1227   25.3301 C   0  0  0  0  0  0  0  0  0  0  0  0
   -3.7471  -21.3151   24.7034 C   0  0  0  0  0  0  0  0  0  0  0  0
   -3.6290  -20.8684   23.4057 C   0  0  0  0  0  0  0  0  0  0  0  0
   -4.6475  -20.1191   22.8530 C   0  0  0  0  0  0  0  0  0  0  0  0
   -5.7806  -19.8066   23.5682 C   0  0  0  0  0  0  0  0  0  0  0  0
   -5.8909  -20.2568   24.8640 C   0  0  0  0  0  0  0  0  0  0  0  0
   -4.8691  -21.0161   25.4378 C   0  0  0  0  0  0  0  0  0  0  0  0
   -1.7017  -24.3532   25.5588 C   0  0  0  0  0  0  0  0  0  0  0  0
   -0.5886  -24.1092   25.0065 O   0  0  0  0  0  0  0  0  0  0  0  0
   -1.7773  -25.3223   26.5757 N   0  0  0  0  0  0  0  0  0  0  0  0
   -0.5960  -26.0951   26.8800 C   0  0  0  0  0  0  0  0  0  0  0  0
   -0.6922  -27.4658   26.3280 C   0  0  0  0  0  0  0  0  0  0  0  0
   -1.4630  -28.3044   26.8551 O   0  0  0  0  0  0  0  0  0  0  0  0
    0.0515  -27.8611   25.2318 O   0  0  0  0  0  0  0  0  0  0  0  0
  2  1  1  0
  3  2  2  0
  4  3  1  0
  5  4  2  0
  5 11  1  0
  6  7  1  0
  6  5  1  0
  7  8  1  6
  9  7  1  0
  9 10  2  0
 11 12  2  0
 12  2  1  0
 13  9  1  0
 14 13  1  0
 14 15  1  1
 16 15  1  0
 16 21  2  0
 17 18  2  0
 17 16  1  0
 18 19  1  0
 19 20  2  0
 21 20  1  0
 22 14  1  0
 23 22  2  0
 24 22  1  0
 25 24  1  0
 26 28  1  0
 26 25  1  0
 27 26  2  0
M  END
$$$$
