YFG.pdb
     RDKit          3D

 28 29  0  0  1  0  0  0  0  0999 V2000
    7.7132  -24.2692   17.9759 O   0  0  0  0  0  0  0  0  0  0  0  0
    8.3529  -23.1437   18.4978 C   0  0  0  0  0  0  0  0  0  0  0  0
    9.4635  -23.2506   19.3088 C   0  0  0  0  0  0  0  0  0  0  0  0
   10.0728  -22.1188   19.8086 C   0  0  0  0  0  0  0  0  0  0  0  0
    9.6205  -20.8456   19.5352 C   0  0  0  0  0  0  0  0  0  0  0  0
   10.2799  -19.6218   20.0761 C   0  0  0  0  0  0  0  0  0  0  0  0
    9.5714  -18.3672   19.5882 C   0  0  2  0  0  0  0  0  0  0  0  0
    9.7565  -18.2791   18.1721 N   0  0  0  0  0  0  0  0  0  0  0  0
   10.0606  -17.2022   20.3331 C   0  0  0  0  0  0  0  0  0  0  0  0
   10.9847  -16.5214   19.8269 O   0  0  0  0  0  0  0  0  0  0  0  0
    8.5053  -20.7386   18.7207 C   0  0  0  0  0  0  0  0  0  0  0  0
    7.8977  -21.8712   18.2221 C   0  0  0  0  0  0  0  0  0  0  0  0
    9.5630  -16.7851   21.5922 N   0  0  0  0  0  0  0  0  0  0  0  0
   10.1472  -15.6881   22.3340 C   0  0  1  0  0  0  0  0  0  0  0  0
    9.0284  -14.8695   22.9608 C   0  0  0  0  0  0  0  0  0  0  0  0
    8.1767  -14.2415   21.9226 C   0  0  0  0  0  0  0  0  0  0  0  0
    6.9699  -14.8013   21.5653 C   0  0  0  0  0  0  0  0  0  0  0  0
    6.2018  -14.1903   20.5952 C   0  0  0  0  0  0  0  0  0  0  0  0
    6.6130  -13.0331   19.9748 C   0  0  0  0  0  0  0  0  0  0  0  0
    7.8199  -12.4803   20.3375 C   0  0  0  0  0  0  0  0  0  0  0  0
    8.6090  -13.0863   21.3174 C   0  0  0  0  0  0  0  0  0  0  0  0
   11.0358  -16.1875   23.4141 C   0  0  0  0  0  0  0  0  0  0  0  0
   10.5254  -16.6877   24.4595 O   0  0  0  0  0  0  0  0  0  0  0  0
   12.4349  -16.1114   23.2897 N   0  0  0  0  0  0  0  0  0  0  0  0
   13.2504  -16.5772   24.3866 C   0  0  0  0  0  0  0  0  0  0  0  0
   14.6820  -16.6252   24.0108 C   0  0  0  0  0  0  0  0  0  0  0  0
   15.5214  -17.1361   24.7916 O   0  0  0  0  0  0  0  0  0  0  0  0
   15.1343  -16.1172   22.8073 O   0  0  0  0  0  0  0  0  0  0  0  0
  2  1  1  0
  3  2  2  0
  4  3  1  0
  5  4  2  0
  5 11  1  0
  6  7  1  0
  6  5  1  0
  7  8  1  6
  9  7  1  0
  9 10  2  0
 11 12  2  0
 12  2  1  0
 13  9  1  0
 14 13  1  0
 14 15  1  1
 16 15  1  0
 16 21  2  0
 17 18  2  0
 17 16  1  0
 18 19  1  0
 19 20  2  0
 21 20  1  0
 22 14  1  0
 23 22  2  0
 24 22  1  0
 25 24  1  0
 26 28  1  0
 26 25  1  0
 27 26  2  0
M  END
$$$$
