YPV.pdb
     RDKit          3D

 27 28  0  0  1  0  0  0  0  0999 V2000
    9.9997  -14.1504   30.8183 O   0  0  0  0  0  0  0  0  0  0  0  0
    9.7903  -14.5848   29.5211 C   0  0  0  0  0  0  0  0  0  0  0  0
    9.3617  -13.7060   28.5544 C   0  0  0  0  0  0  0  0  0  0  0  0
    9.1590  -14.1614   27.2663 C   0  0  0  0  0  0  0  0  0  0  0  0
    9.3816  -15.4893   26.9369 C   0  0  0  0  0  0  0  0  0  0  0  0
    9.1756  -16.0131   25.5617 C   0  0  0  0  0  0  0  0  0  0  0  0
    7.6759  -16.2501   25.3453 C   0  0  2  0  0  0  0  0  0  0  0  0
    7.3123  -17.3079   26.2418 N   0  0  0  0  0  0  0  0  0  0  0  0
    7.3790  -16.5806   23.9362 C   0  0  0  0  0  0  0  0  0  0  0  0
    6.8697  -17.7336   23.7139 O   0  0  0  0  0  0  0  0  0  0  0  0
    9.8157  -16.3502   27.9443 C   0  0  0  0  0  0  0  0  0  0  0  0
   10.0208  -15.9076   29.2303 C   0  0  0  0  0  0  0  0  0  0  0  0
    7.6077  -15.7453   22.8455 N   0  0  0  0  0  0  0  0  0  0  0  0
    8.0977  -14.3768   22.9037 C   0  0  0  0  0  0  0  0  0  0  0  0
    7.4984  -13.6891   21.6910 C   0  0  0  0  0  0  0  0  0  0  0  0
    6.9742  -14.7572   20.7822 C   0  0  0  0  0  0  0  0  0  0  0  0
    7.4186  -16.0310   21.4434 C   0  0  1  0  0  0  0  0  0  0  0  0
    8.6660  -16.5101   20.8001 C   0  0  0  0  0  0  0  0  0  0  0  0
    8.8932  -16.3629   19.5678 O   0  0  0  0  0  0  0  0  0  0  0  0
   11.9083  -17.4910   23.4400 C   0  0  0  0  0  0  0  0  0  0  0  0
   12.0259  -16.8839   22.0507 C   0  0  2  0  0  0  0  0  0  0  0  0
   12.0057  -15.3882   22.1549 C   0  0  0  0  0  0  0  0  0  0  0  0
   10.9637  -17.4322   21.1241 C   0  0  2  0  0  0  0  0  0  0  0  0
    9.6256  -17.1566   21.6292 N   0  0  0  0  0  0  0  0  0  0  0  0
   11.1315  -18.8938   21.0303 C   0  0  0  0  0  0  0  0  0  0  0  0
   12.1339  -19.3636   20.4557 O   0  0  0  0  0  0  0  0  0  0  0  0
   10.2003  -19.7532   21.5662 O   0  0  0  0  0  0  0  0  0  0  0  0
  2  3  2  0
  2  1  1  0
  4  3  1  0
  5  4  2  0
  6  5  1  0
  7  6  1  0
  7  9  1  0
  7  8  1  1
  9 10  2  0
  9 13  1  0
 11  5  1  0
 11 12  2  0
 12  2  1  0
 13 14  1  0
 14 15  1  0
 16 15  1  0
 17 13  1  0
 17 16  1  0
 17 18  1  6
 19 18  2  0
 21 20  1  1
 21 22  1  0
 23 21  1  0
 23 24  1  1
 24 18  1  0
 25 23  1  0
 26 25  2  0
 27 25  1  0
M  END
$$$$
