YPV.pdb
     RDKit          3D

 27 28  0  0  1  0  0  0  0  0999 V2000
    7.3873  -11.4527   26.8823 O   0  0  0  0  0  0  0  0  0  0  0  0
    7.1721  -12.8003   26.6515 C   0  0  0  0  0  0  0  0  0  0  0  0
    5.8990  -13.2746   26.4400 C   0  0  0  0  0  0  0  0  0  0  0  0
    5.7076  -14.6233   26.2117 C   0  0  0  0  0  0  0  0  0  0  0  0
    6.7796  -15.5019   26.1931 C   0  0  0  0  0  0  0  0  0  0  0  0
    6.6106  -16.9578   25.9489 C   0  0  0  0  0  0  0  0  0  0  0  0
    6.0743  -17.1589   24.5262 C   0  0  2  0  0  0  0  0  0  0  0  0
    5.3501  -18.3957   24.5509 N   0  0  0  0  0  0  0  0  0  0  0  0
    7.1680  -17.1677   23.5329 C   0  0  0  0  0  0  0  0  0  0  0  0
    7.6830  -18.3069   23.2588 O   0  0  0  0  0  0  0  0  0  0  0  0
    8.0554  -14.9833   26.4117 C   0  0  0  0  0  0  0  0  0  0  0  0
    8.2577  -13.6423   26.6401 C   0  0  0  0  0  0  0  0  0  0  0  0
    7.6751  -16.0466   22.8803 N   0  0  0  0  0  0  0  0  0  0  0  0
    7.3053  -14.6642   23.1418 C   0  0  0  0  0  0  0  0  0  0  0  0
    7.4870  -13.9477   21.8164 C   0  0  0  0  0  0  0  0  0  0  0  0
    8.2871  -14.8466   20.9259 C   0  0  0  0  0  0  0  0  0  0  0  0
    8.6569  -15.9931   21.8238 C   0  0  1  0  0  0  0  0  0  0  0  0
   10.0283  -15.7846   22.3486 C   0  0  0  0  0  0  0  0  0  0  0  0
   10.6531  -14.6986   22.2006 O   0  0  0  0  0  0  0  0  0  0  0  0
   10.9477  -16.4421   26.1599 C   0  0  0  0  0  0  0  0  0  0  0  0
   11.5777  -15.7081   24.9867 C   0  0  2  0  0  0  0  0  0  0  0  0
   10.7211  -14.5360   24.6114 C   0  0  0  0  0  0  0  0  0  0  0  0
   11.8410  -16.6490   23.8323 C   0  0  2  0  0  0  0  0  0  0  0  0
   10.6374  -16.8684   23.0417 N   0  0  0  0  0  0  0  0  0  0  0  0
   12.2815  -17.9468   24.3754 C   0  0  0  0  0  0  0  0  0  0  0  0
   11.5166  -18.9304   24.3184 O   0  0  0  0  0  0  0  0  0  0  0  0
   13.5245  -18.0948   24.9462 O   0  0  0  0  0  0  0  0  0  0  0  0
  2  3  2  0
  2  1  1  0
  4  3  1  0
  5  4  2  0
  6  5  1  0
  7  6  1  0
  7  9  1  0
  7  8  1  1
  9 10  2  0
  9 13  1  0
 11  5  1  0
 11 12  2  0
 12  2  1  0
 13 14  1  0
 14 15  1  0
 16 15  1  0
 17 13  1  0
 17 16  1  0
 17 18  1  1
 19 18  2  0
 21 20  1  1
 21 22  1  0
 23 21  1  0
 23 24  1  1
 24 18  1  0
 25 23  1  0
 26 25  2  0
 27 25  1  0
M  END
$$$$
