YPV.pdb
     RDKit          3D

 27 28  0  0  1  0  0  0  0  0999 V2000
   12.0171  -21.3270   26.2254 O   0  0  0  0  0  0  0  0  0  0  0  0
   11.9399  -20.7213   24.9834 C   0  0  0  0  0  0  0  0  0  0  0  0
   11.4042  -21.3973   23.9126 C   0  0  0  0  0  0  0  0  0  0  0  0
   11.3372  -20.7735   22.6821 C   0  0  0  0  0  0  0  0  0  0  0  0
   11.8018  -19.4784   22.5138 C   0  0  0  0  0  0  0  0  0  0  0  0
   11.7439  -18.7763   21.2055 C   0  0  0  0  0  0  0  0  0  0  0  0
   10.3006  -18.3223   20.9545 C   0  0  2  0  0  0  0  0  0  0  0  0
   10.2872  -17.7704   19.6317 N   0  0  0  0  0  0  0  0  0  0  0  0
    9.8551  -17.3501   21.9738 C   0  0  0  0  0  0  0  0  0  0  0  0
   10.2978  -16.1548   21.8567 O   0  0  0  0  0  0  0  0  0  0  0  0
   12.3383  -18.8256   23.6230 C   0  0  0  0  0  0  0  0  0  0  0  0
   12.4101  -19.4370   24.8528 C   0  0  0  0  0  0  0  0  0  0  0  0
    9.0019  -17.6301   23.0384 N   0  0  0  0  0  0  0  0  0  0  0  0
    8.4765  -18.9397   23.3921 C   0  0  0  0  0  0  0  0  0  0  0  0
    7.1318  -18.6657   24.0399 C   0  0  0  0  0  0  0  0  0  0  0  0
    7.0774  -17.2045   24.3612 C   0  0  0  0  0  0  0  0  0  0  0  0
    8.4546  -16.7159   24.0120 C   0  0  1  0  0  0  0  0  0  0  0  0
    9.2809  -16.6527   25.2420 C   0  0  0  0  0  0  0  0  0  0  0  0
   10.0790  -17.5729   25.5707 O   0  0  0  0  0  0  0  0  0  0  0  0
   10.8783  -13.6509   28.8931 C   0  0  0  0  0  0  0  0  0  0  0  0
    9.9343  -13.8715   27.7215 C   0  0  2  0  0  0  0  0  0  0  0  0
    8.5330  -13.5381   28.1384 C   0  0  0  0  0  0  0  0  0  0  0  0
   10.0744  -15.2703   27.1639 C   0  0  2  0  0  0  0  0  0  0  0  0
    9.1478  -15.4978   26.0633 N   0  0  0  0  0  0  0  0  0  0  0  0
    9.7675  -16.2357   28.2349 C   0  0  0  0  0  0  0  0  0  0  0  0
   10.5668  -16.3811   29.1813 O   0  0  0  0  0  0  0  0  0  0  0  0
    8.6122  -16.9822   28.2109 O   0  0  0  0  0  0  0  0  0  0  0  0
  2  3  2  0
  2  1  1  0
  4  3  1  0
  5  4  2  0
  6  5  1  0
  7  6  1  0
  7  9  1  0
  7  8  1  6
  9 10  2  0
  9 13  1  0
 11  5  1  0
 11 12  2  0
 12  2  1  0
 13 14  1  0
 14 15  1  0
 16 15  1  0
 17 13  1  0
 17 16  1  0
 17 18  1  1
 19 18  2  0
 21 20  1  1
 21 22  1  0
 23 21  1  0
 23 24  1  6
 24 18  1  0
 25 23  1  0
 26 25  2  0
 27 25  1  0
M  END
$$$$
