YPV.pdb
     RDKit          3D

 27 28  0  0  1  0  0  0  0  0999 V2000
    0.7491  -19.8026   19.2135 O   0  0  0  0  0  0  0  0  0  0  0  0
    1.7460  -19.4300   20.0983 C   0  0  0  0  0  0  0  0  0  0  0  0
    2.0388  -20.2170   21.1871 C   0  0  0  0  0  0  0  0  0  0  0  0
    3.0376  -19.8256   22.0572 C   0  0  0  0  0  0  0  0  0  0  0  0
    3.7463  -18.6531   21.8471 C   0  0  0  0  0  0  0  0  0  0  0  0
    4.8277  -18.2026   22.7611 C   0  0  0  0  0  0  0  0  0  0  0  0
    6.1638  -18.2653   22.0108 C   0  0  2  0  0  0  0  0  0  0  0  0
    6.4703  -19.6586   21.8708 N   0  0  0  0  0  0  0  0  0  0  0  0
    7.2222  -17.5264   22.7296 C   0  0  0  0  0  0  0  0  0  0  0  0
    8.0964  -18.2315   23.3436 O   0  0  0  0  0  0  0  0  0  0  0  0
    3.4206  -17.8816   20.7321 C   0  0  0  0  0  0  0  0  0  0  0  0
    2.4280  -18.2615   19.8592 C   0  0  0  0  0  0  0  0  0  0  0  0
    7.3406  -16.1400   22.7898 N   0  0  0  0  0  0  0  0  0  0  0  0
    6.3966  -15.1763   22.2456 C   0  0  0  0  0  0  0  0  0  0  0  0
    7.2328  -13.9624   21.8849 C   0  0  0  0  0  0  0  0  0  0  0  0
    8.5642  -14.1200   22.5511 C   0  0  0  0  0  0  0  0  0  0  0  0
    8.3947  -15.3563   23.3879 C   0  0  1  0  0  0  0  0  0  0  0  0
    8.0752  -14.9664   24.7828 C   0  0  0  0  0  0  0  0  0  0  0  0
    6.9044  -14.6800   25.1555 O   0  0  0  0  0  0  0  0  0  0  0  0
   11.2924  -14.5494   27.7647 C   0  0  0  0  0  0  0  0  0  0  0  0
   10.0089  -15.3376   27.9738 C   0  0  2  0  0  0  0  0  0  0  0  0
   10.2674  -16.7921   27.7165 C   0  0  0  0  0  0  0  0  0  0  0  0
    8.8808  -14.7749   27.1383 C   0  0  2  0  0  0  0  0  0  0  0  0
    9.1503  -14.9228   25.7146 N   0  0  0  0  0  0  0  0  0  0  0  0
    8.7468  -13.3376   27.4375 C   0  0  0  0  0  0  0  0  0  0  0  0
    9.1882  -12.4960   26.6296 O   0  0  0  0  0  0  0  0  0  0  0  0
    8.1421  -12.9046   28.5949 O   0  0  0  0  0  0  0  0  0  0  0  0
  2  3  2  0
  2  1  1  0
  4  3  1  0
  5  4  2  0
  6  5  1  0
  7  6  1  0
  7  9  1  0
  7  8  1  1
  9 10  2  0
  9 13  1  0
 11  5  1  0
 11 12  2  0
 12  2  1  0
 13 14  1  0
 14 15  1  0
 16 15  1  0
 17 13  1  0
 17 16  1  0
 17 18  1  1
 19 18  2  0
 21 20  1  6
 21 22  1  0
 23 21  1  0
 23 24  1  6
 24 18  1  0
 25 23  1  0
 26 25  2  0
 27 25  1  0
M  END
$$$$
