YPV.pdb
     RDKit          3D

 27 28  0  0  1  0  0  0  0  0999 V2000
    4.6101  -11.5222   27.0205 O   0  0  0  0  0  0  0  0  0  0  0  0
    5.7401  -12.2493   26.6893 C   0  0  0  0  0  0  0  0  0  0  0  0
    5.6659  -13.6123   26.5241 C   0  0  0  0  0  0  0  0  0  0  0  0
    6.8064  -14.3180   26.1937 C   0  0  0  0  0  0  0  0  0  0  0  0
    8.0210  -13.6713   26.0272 C   0  0  0  0  0  0  0  0  0  0  0  0
    9.2668  -14.3983   25.6703 C   0  0  0  0  0  0  0  0  0  0  0  0
    8.8875  -15.7362   25.0237 C   0  0  2  0  0  0  0  0  0  0  0  0
   10.1226  -16.3406   24.6188 N   0  0  0  0  0  0  0  0  0  0  0  0
    7.9577  -15.5447   23.8917 C   0  0  0  0  0  0  0  0  0  0  0  0
    6.7371  -15.8740   24.0916 O   0  0  0  0  0  0  0  0  0  0  0  0
    8.0564  -12.2885   26.2031 C   0  0  0  0  0  0  0  0  0  0  0  0
    6.9272  -11.5757   26.5322 C   0  0  0  0  0  0  0  0  0  0  0  0
    8.3023  -15.0400   22.6401 N   0  0  0  0  0  0  0  0  0  0  0  0
    8.9679  -13.7724   22.3825 C   0  0  0  0  0  0  0  0  0  0  0  0
    8.4732  -13.3354   21.0160 C   0  0  0  0  0  0  0  0  0  0  0  0
    7.8196  -14.5200   20.3749 C   0  0  0  0  0  0  0  0  0  0  0  0
    8.0875  -15.6367   21.3437 C   0  0  1  0  0  0  0  0  0  0  0  0
    9.2656  -16.4129   20.8863 C   0  0  0  0  0  0  0  0  0  0  0  0
   10.4494  -16.0093   21.0522 O   0  0  0  0  0  0  0  0  0  0  0  0
    8.3462  -20.3311   19.4930 C   0  0  0  0  0  0  0  0  0  0  0  0
    9.5598  -20.0459   20.3638 C   0  0  2  0  0  0  0  0  0  0  0  0
    9.2206  -20.3170   21.7991 C   0  0  0  0  0  0  0  0  0  0  0  0
   10.0836  -18.6468   20.1282 C   0  0  2  0  0  0  0  0  0  0  0  0
    9.0209  -17.6568   20.2392 N   0  0  0  0  0  0  0  0  0  0  0  0
   10.6408  -18.5775   18.7651 C   0  0  0  0  0  0  0  0  0  0  0  0
    9.9969  -18.0031   17.8645 O   0  0  0  0  0  0  0  0  0  0  0  0
   11.8619  -19.1362   18.4658 O   0  0  0  0  0  0  0  0  0  0  0  0
  2  3  2  0
  2  1  1  0
  4  3  1  0
  5  4  2  0
  6  5  1  0
  7  6  1  0
  7  9  1  0
  7  8  1  6
  9 10  2  0
  9 13  1  0
 11  5  1  0
 11 12  2  0
 12  2  1  0
 13 14  1  0
 14 15  1  0
 16 15  1  0
 17 13  1  0
 17 16  1  0
 17 18  1  6
 19 18  2  0
 21 20  1  6
 21 22  1  0
 23 21  1  0
 23 24  1  6
 24 18  1  0
 25 23  1  0
 26 25  2  0
 27 25  1  0
M  END
$$$$
