YPV.pdb
     RDKit          3D

 27 28  0  0  1  0  0  0  0  0999 V2000
    6.5408  -10.8411   26.6287 O   0  0  0  0  0  0  0  0  0  0  0  0
    6.6454  -12.2155   26.5039 C   0  0  0  0  0  0  0  0  0  0  0  0
    7.8540  -12.7956   26.1983 C   0  0  0  0  0  0  0  0  0  0  0  0
    7.9353  -14.1692   26.0784 C   0  0  0  0  0  0  0  0  0  0  0  0
    6.8172  -14.9677   26.2618 C   0  0  0  0  0  0  0  0  0  0  0  0
    6.8686  -16.4479   26.1423 C   0  0  0  0  0  0  0  0  0  0  0  0
    6.3086  -16.8505   24.7725 C   0  0  2  0  0  0  0  0  0  0  0  0
    5.6594  -18.1132   24.9696 N   0  0  0  0  0  0  0  0  0  0  0  0
    7.3748  -16.9198   23.7521 C   0  0  0  0  0  0  0  0  0  0  0  0
    7.9491  -18.0535   23.6006 O   0  0  0  0  0  0  0  0  0  0  0  0
    5.6095  -14.3428   26.5705 C   0  0  0  0  0  0  0  0  0  0  0  0
    5.5169  -12.9760   26.6922 C   0  0  0  0  0  0  0  0  0  0  0  0
    7.7976  -15.8605   22.9528 N   0  0  0  0  0  0  0  0  0  0  0  0
    7.3764  -14.4736   23.0772 C   0  0  0  0  0  0  0  0  0  0  0  0
    7.4616  -13.9058   21.6725 C   0  0  0  0  0  0  0  0  0  0  0  0
    8.2598  -14.8667   20.8472 C   0  0  0  0  0  0  0  0  0  0  0  0
    8.7247  -15.8874   21.8470 C   0  0  1  0  0  0  0  0  0  0  0  0
   10.1082  -15.5644   22.2728 C   0  0  0  0  0  0  0  0  0  0  0  0
   10.5087  -14.3789   22.4339 O   0  0  0  0  0  0  0  0  0  0  0  0
   11.7626  -18.5948   24.4920 C   0  0  0  0  0  0  0  0  0  0  0  0
   12.1214  -17.1234   24.6288 C   0  0  2  0  0  0  0  0  0  0  0  0
   11.1477  -16.4548   25.5526 C   0  0  0  0  0  0  0  0  0  0  0  0
   12.2142  -16.4563   23.2747 C   0  0  2  0  0  0  0  0  0  0  0  0
   10.9955  -16.6536   22.5016 N   0  0  0  0  0  0  0  0  0  0  0  0
   13.3367  -17.0569   22.5314 C   0  0  0  0  0  0  0  0  0  0  0  0
   13.1031  -17.8216   21.5741 O   0  0  0  0  0  0  0  0  0  0  0  0
   14.6419  -16.7893   22.8742 O   0  0  0  0  0  0  0  0  0  0  0  0
  2  3  2  0
  2  1  1  0
  4  3  1  0
  5  4  2  0
  6  5  1  0
  7  6  1  0
  7  9  1  0
  7  8  1  1
  9 10  2  0
  9 13  1  0
 11  5  1  0
 11 12  2  0
 12  2  1  0
 13 14  1  0
 14 15  1  0
 16 15  1  0
 17 13  1  0
 17 16  1  0
 17 18  1  1
 19 18  2  0
 21 20  1  6
 21 22  1  0
 23 21  1  0
 23 24  1  6
 24 18  1  0
 25 23  1  0
 26 25  2  0
 27 25  1  0
M  END
$$$$
