YPV.pdb
     RDKit          3D

 27 28  0  0  1  0  0  0  0  0999 V2000
    8.8303  -13.5484   16.0984 O   0  0  0  0  0  0  0  0  0  0  0  0
    8.5109  -13.7461   17.4304 C   0  0  0  0  0  0  0  0  0  0  0  0
    7.4956  -13.0270   18.0158 C   0  0  0  0  0  0  0  0  0  0  0  0
    7.1940  -13.2405   19.3467 C   0  0  0  0  0  0  0  0  0  0  0  0
    7.8999  -14.1678   20.0972 C   0  0  0  0  0  0  0  0  0  0  0  0
    7.6014  -14.4243   21.5301 C   0  0  0  0  0  0  0  0  0  0  0  0
    7.0913  -15.8632   21.6763 C   0  0  2  0  0  0  0  0  0  0  0  0
    5.7347  -15.8476   21.2136 N   0  0  0  0  0  0  0  0  0  0  0  0
    7.2041  -16.3373   23.0710 C   0  0  0  0  0  0  0  0  0  0  0  0
    6.4220  -15.7930   23.9255 O   0  0  0  0  0  0  0  0  0  0  0  0
    8.9224  -14.8774   19.4686 C   0  0  0  0  0  0  0  0  0  0  0  0
    9.2313  -14.6730   18.1441 C   0  0  0  0  0  0  0  0  0  0  0  0
    8.0844  -17.3179   23.5218 N   0  0  0  0  0  0  0  0  0  0  0  0
    8.9649  -18.1246   22.6910 C   0  0  0  0  0  0  0  0  0  0  0  0
    9.1205  -19.4374   23.4362 C   0  0  0  0  0  0  0  0  0  0  0  0
    8.6202  -19.2240   24.8311 C   0  0  0  0  0  0  0  0  0  0  0  0
    8.3239  -17.7518   24.8773 C   0  0  1  0  0  0  0  0  0  0  0  0
    9.4679  -17.0388   25.4959 C   0  0  0  0  0  0  0  0  0  0  0  0
   10.5632  -16.8641   24.8945 O   0  0  0  0  0  0  0  0  0  0  0  0
   10.9032  -13.4819   28.3817 C   0  0  0  0  0  0  0  0  0  0  0  0
    9.8621  -14.3023   27.6365 C   0  0  2  0  0  0  0  0  0  0  0  0
    8.5458  -14.2057   28.3482 C   0  0  0  0  0  0  0  0  0  0  0  0
   10.3300  -15.7266   27.4373 C   0  0  2  0  0  0  0  0  0  0  0  0
    9.2946  -16.5435   26.8189 N   0  0  0  0  0  0  0  0  0  0  0  0
   10.6502  -16.3042   28.7554 C   0  0  0  0  0  0  0  0  0  0  0  0
    9.8268  -17.0550   29.3158 O   0  0  0  0  0  0  0  0  0  0  0  0
   11.8440  -16.0302   29.3817 O   0  0  0  0  0  0  0  0  0  0  0  0
  2  3  2  0
  2  1  1  0
  4  3  1  0
  5  4  2  0
  6  5  1  0
  7  6  1  0
  7  9  1  0
  7  8  1  1
  9 10  2  0
  9 13  1  0
 11  5  1  0
 11 12  2  0
 12  2  1  0
 13 14  1  0
 14 15  1  0
 16 15  1  0
 17 13  1  0
 17 16  1  0
 17 18  1  6
 19 18  2  0
 21 20  1  1
 21 22  1  0
 23 21  1  0
 23 24  1  1
 24 18  1  0
 25 23  1  0
 26 25  2  0
 27 25  1  0
M  END
$$$$
