QAP.pdb
     RDKit          3D

 22 22  0  0  1  0  0  0  0  0999 V2000
   24.7187  -33.1910   -6.0659 N   0  0  0  0  0  0  0  0  0  0  0  0
   25.5547  -34.1257   -6.7297 C   0  0  0  0  0  0  0  0  0  0  0  0
   25.4676  -34.2394   -7.9765 O   0  0  0  0  0  0  0  0  0  0  0  0
   26.5254  -34.9686   -5.9907 C   0  0  0  0  0  0  0  0  0  0  0  0
   26.3956  -34.7398   -4.5061 C   0  0  0  0  0  0  0  0  0  0  0  0
   27.4595  -33.7328   -4.0906 C   0  0  2  0  0  0  0  0  0  0  0  0
   28.7718  -34.3208   -4.1841 N   0  0  0  0  0  0  0  0  0  0  0  0
   27.2409  -33.2232   -2.7298 C   0  0  0  0  0  0  0  0  0  0  0  0
   27.9445  -33.6213   -1.7721 O   0  0  0  0  0  0  0  0  0  0  0  0
   25.0086  -30.5659   -1.2762 C   0  0  0  0  0  0  0  0  0  0  0  0
   26.0317  -31.6770   -1.1457 C   0  0  2  0  0  0  0  0  0  0  0  0
   26.2286  -32.2714   -2.4780 N   0  0  0  0  0  0  0  0  0  0  0  0
   25.4976  -32.7245   -0.2436 C   0  0  0  0  0  0  0  0  0  0  0  0
   24.8980  -33.7243   -0.7635 O   0  0  0  0  0  0  0  0  0  0  0  0
   25.6127  -32.6812    1.1682 N   0  0  0  0  0  0  0  0  0  0  0  0
   26.3003  -31.6188    1.9292 C   0  0  0  0  0  0  0  0  0  0  0  0
   26.9171  -32.4436    3.0800 C   0  0  0  0  0  0  0  0  0  0  0  0
   25.7411  -33.3094    3.4175 C   0  0  0  0  0  0  0  0  0  0  0  0
   25.1005  -33.6348    2.1008 C   0  0  1  0  0  0  0  0  0  0  0  0
   23.6094  -33.5780    2.2040 C   0  0  0  0  0  0  0  0  0  0  0  0
   23.0100  -34.5237    3.0242 O   0  0  0  0  0  0  0  0  0  0  0  0
   22.8942  -32.7593    1.6172 O   0  0  0  0  0  0  0  0  0  0  0  0
  2  3  2  0
  2  1  1  0
  4  2  1  0
  5  4  1  0
  6  5  1  0
  6  7  1  1
  8  6  1  0
  8  9  2  0
 11 10  1  6
 11 12  1  0
 12  8  1  0
 13 15  1  0
 13 11  1  0
 14 13  2  0
 15 16  1  0
 16 17  1  0
 18 19  1  0
 18 17  1  0
 19 15  1  0
 19 20  1  1
 20 22  2  0
 20 21  1  0
M  END
$$$$
