QAP.pdb
     RDKit          3D

 22 22  0  0  1  0  0  0  0  0999 V2000
   22.8519  -19.8742  -14.5408 N   0  0  0  0  0  0  0  0  0  0  0  0
   21.5351  -19.3600  -14.4201 C   0  0  0  0  0  0  0  0  0  0  0  0
   20.6008  -20.1462  -14.1299 O   0  0  0  0  0  0  0  0  0  0  0  0
   21.2353  -17.9226  -14.6272 C   0  0  0  0  0  0  0  0  0  0  0  0
   22.4632  -17.1951  -15.1135 C   0  0  0  0  0  0  0  0  0  0  0  0
   22.1320  -16.5595  -16.4570 C   0  0  2  0  0  0  0  0  0  0  0  0
   22.4549  -17.4620  -17.5330 N   0  0  0  0  0  0  0  0  0  0  0  0
   22.8316  -15.2825  -16.6549 C   0  0  0  0  0  0  0  0  0  0  0  0
   24.0814  -15.2156  -16.5889 O   0  0  0  0  0  0  0  0  0  0  0  0
   21.9157  -12.0579  -18.1980 C   0  0  0  0  0  0  0  0  0  0  0  0
   22.7699  -12.8217  -17.2053 C   0  0  2  0  0  0  0  0  0  0  0  0
   22.1026  -14.1034  -16.9241 N   0  0  0  0  0  0  0  0  0  0  0  0
   22.8498  -12.0520  -15.9414 C   0  0  0  0  0  0  0  0  0  0  0  0
   22.0086  -12.3141  -15.0176 O   0  0  0  0  0  0  0  0  0  0  0  0
   23.8082  -11.0372  -15.6968 N   0  0  0  0  0  0  0  0  0  0  0  0
   24.8764  -10.6380  -16.6349 C   0  0  0  0  0  0  0  0  0  0  0  0
   26.0214  -10.3215  -15.6479 C   0  0  0  0  0  0  0  0  0  0  0  0
   25.2525   -9.5430  -14.6235 C   0  0  0  0  0  0  0  0  0  0  0  0
   23.9223  -10.2289  -14.5240 C   0  0  1  0  0  0  0  0  0  0  0  0
   22.8136   -9.2307  -14.4170 C   0  0  0  0  0  0  0  0  0  0  0  0
   22.5507   -8.7325  -13.1486 O   0  0  0  0  0  0  0  0  0  0  0  0
   22.1325   -8.8312  -15.3671 O   0  0  0  0  0  0  0  0  0  0  0  0
  2  3  2  0
  2  1  1  0
  4  2  1  0
  5  4  1  0
  6  5  1  0
  6  7  1  6
  8  6  1  0
  8  9  2  0
 11 10  1  6
 11 12  1  0
 12  8  1  0
 13 15  1  0
 13 11  1  0
 14 13  2  0
 15 16  1  0
 16 17  1  0
 18 19  1  0
 18 17  1  0
 19 15  1  0
 19 20  1  6
 20 22  2  0
 20 21  1  0
M  END
$$$$
