QAP.pdb
     RDKit          3D

 22 22  0  0  1  0  0  0  0  0999 V2000
   22.2276  -11.0113    7.8046 N   0  0  0  0  0  0  0  0  0  0  0  0
   21.6119  -10.9956    6.5265 C   0  0  0  0  0  0  0  0  0  0  0  0
   22.1363  -10.3192    5.6085 O   0  0  0  0  0  0  0  0  0  0  0  0
   20.3690  -11.7550    6.2483 C   0  0  0  0  0  0  0  0  0  0  0  0
   19.9552  -12.5475    7.4623 C   0  0  0  0  0  0  0  0  0  0  0  0
   18.6577  -13.2723    7.1311 C   0  0  2  0  0  0  0  0  0  0  0  0
   17.5731  -12.3312    7.0103 N   0  0  0  0  0  0  0  0  0  0  0  0
   18.3194  -14.2919    8.1337 C   0  0  0  0  0  0  0  0  0  0  0  0
   17.8034  -13.9712    9.2299 O   0  0  0  0  0  0  0  0  0  0  0  0
   16.9386  -17.3205    8.5157 C   0  0  0  0  0  0  0  0  0  0  0  0
   18.2781  -16.7045    8.8687 C   0  0  2  0  0  0  0  0  0  0  0  0
   18.5717  -15.6574    7.8765 N   0  0  0  0  0  0  0  0  0  0  0  0
   19.3301  -17.7438    8.7730 C   0  0  0  0  0  0  0  0  0  0  0  0
   19.9139  -17.9141    7.6506 O   0  0  0  0  0  0  0  0  0  0  0  0
   19.7274  -18.5643    9.8580 N   0  0  0  0  0  0  0  0  0  0  0  0
   19.2417  -18.4262   11.2456 C   0  0  0  0  0  0  0  0  0  0  0  0
   20.5195  -18.7879   12.0342 C   0  0  0  0  0  0  0  0  0  0  0  0
   20.9614  -19.9847   11.2473 C   0  0  0  0  0  0  0  0  0  0  0  0
   20.6526  -19.6523    9.8176 C   0  0  1  0  0  0  0  0  0  0  0  0
   20.0944  -20.8410    9.1018 C   0  0  0  0  0  0  0  0  0  0  0  0
   21.0137  -21.7735    8.6416 O   0  0  0  0  0  0  0  0  0  0  0  0
   18.8920  -21.0397    8.8992 O   0  0  0  0  0  0  0  0  0  0  0  0
  2  3  2  0
  2  1  1  0
  4  2  1  0
  5  4  1  0
  6  5  1  0
  6  7  1  1
  8  6  1  0
  8  9  2  0
 11 10  1  6
 11 12  1  0
 12  8  1  0
 13 15  1  0
 13 11  1  0
 14 13  2  0
 15 16  1  0
 16 17  1  0
 18 19  1  0
 18 17  1  0
 19 15  1  0
 19 20  1  1
 20 22  2  0
 20 21  1  0
M  END
$$$$
