QAP.pdb
     RDKit          3D

 22 22  0  0  1  0  0  0  0  0999 V2000
   18.2691  -12.7314  -15.9659 N   0  0  0  0  0  0  0  0  0  0  0  0
   17.6946  -11.5317  -16.4595 C   0  0  0  0  0  0  0  0  0  0  0  0
   16.4470  -11.4585  -16.5738 O   0  0  0  0  0  0  0  0  0  0  0  0
   18.5276  -10.3663  -16.8426 C   0  0  0  0  0  0  0  0  0  0  0  0
   18.1333   -9.1527  -16.0395 C   0  0  0  0  0  0  0  0  0  0  0  0
   19.0992   -9.0293  -14.8688 C   0  0  2  0  0  0  0  0  0  0  0  0
   18.6679   -9.8587  -13.7721 N   0  0  0  0  0  0  0  0  0  0  0  0
   19.2440   -7.6402  -14.4121 C   0  0  0  0  0  0  0  0  0  0  0  0
   18.2377   -6.9295  -14.1817 O   0  0  0  0  0  0  0  0  0  0  0  0
   22.1042   -5.5526  -13.2150 C   0  0  0  0  0  0  0  0  0  0  0  0
   20.7132   -5.6822  -13.8037 C   0  0  2  0  0  0  0  0  0  0  0  0
   20.5269   -7.0805  -14.2244 N   0  0  0  0  0  0  0  0  0  0  0  0
   20.6121   -4.8182  -15.0035 C   0  0  0  0  0  0  0  0  0  0  0  0
   20.8656   -5.3324  -16.1441 O   0  0  0  0  0  0  0  0  0  0  0  0
   20.2502   -3.4488  -14.9594 N   0  0  0  0  0  0  0  0  0  0  0  0
   19.7850   -2.7347  -13.7536 C   0  0  0  0  0  0  0  0  0  0  0  0
   18.7413   -1.7785  -14.3712 C   0  0  0  0  0  0  0  0  0  0  0  0
   19.5141   -1.3139  -15.5685 C   0  0  0  0  0  0  0  0  0  0  0  0
   20.2635   -2.5220  -16.0468 C   0  0  1  0  0  0  0  0  0  0  0  0
   21.6540   -2.1582  -16.4608 C   0  0  0  0  0  0  0  0  0  0  0  0
   21.8056   -1.6598  -17.7472 O   0  0  0  0  0  0  0  0  0  0  0  0
   22.6539   -2.2716  -15.7441 O   0  0  0  0  0  0  0  0  0  0  0  0
  2  3  2  0
  2  1  1  0
  4  2  1  0
  5  4  1  0
  6  5  1  0
  6  7  1  1
  8  6  1  0
  8  9  2  0
 11 10  1  6
 11 12  1  0
 12  8  1  0
 13 15  1  0
 13 11  1  0
 14 13  2  0
 15 16  1  0
 16 17  1  0
 18 19  1  0
 18 17  1  0
 19 15  1  0
 19 20  1  1
 20 22  2  0
 20 21  1  0
M  END
$$$$
