QAP.pdb
     RDKit          3D

 22 22  0  0  1  0  0  0  0  0999 V2000
   22.1894  -20.1666  -14.4472 N   0  0  0  0  0  0  0  0  0  0  0  0
   20.9174  -19.5557  -14.5946 C   0  0  0  0  0  0  0  0  0  0  0  0
   19.8904  -20.2764  -14.5606 O   0  0  0  0  0  0  0  0  0  0  0  0
   20.7705  -18.0928  -14.7870 C   0  0  0  0  0  0  0  0  0  0  0  0
   22.1242  -17.4424  -14.9210 C   0  0  0  0  0  0  0  0  0  0  0  0
   22.2210  -16.8408  -16.3165 C   0  0  2  0  0  0  0  0  0  0  0  0
   22.6034  -17.8487  -17.2727 N   0  0  0  0  0  0  0  0  0  0  0  0
   23.1686  -15.7192  -16.3734 C   0  0  0  0  0  0  0  0  0  0  0  0
   24.3202  -15.8236  -15.8900 O   0  0  0  0  0  0  0  0  0  0  0  0
   23.6291  -12.8098  -18.4914 C   0  0  0  0  0  0  0  0  0  0  0  0
   23.7265  -13.3641  -17.0837 C   0  0  2  0  0  0  0  0  0  0  0  0
   22.7945  -14.4986  -16.9771 N   0  0  0  0  0  0  0  0  0  0  0  0
   23.3009  -12.3207  -16.1212 C   0  0  0  0  0  0  0  0  0  0  0  0
   22.0833  -12.3097  -15.7380 O   0  0  0  0  0  0  0  0  0  0  0  0
   24.1690  -11.3294  -15.5996 N   0  0  0  0  0  0  0  0  0  0  0  0
   25.6188  -11.2480  -15.8677 C   0  0  0  0  0  0  0  0  0  0  0  0
   26.1352  -10.7442  -14.5021 C   0  0  0  0  0  0  0  0  0  0  0  0
   25.1110   -9.6843  -14.2296 C   0  0  0  0  0  0  0  0  0  0  0  0
   23.8161  -10.2486  -14.7342 C   0  0  1  0  0  0  0  0  0  0  0  0
   23.0155   -9.2001  -15.4390 C   0  0  0  0  0  0  0  0  0  0  0  0
   22.3043   -8.3206  -14.6348 O   0  0  0  0  0  0  0  0  0  0  0  0
   22.9496   -9.0716  -16.6660 O   0  0  0  0  0  0  0  0  0  0  0  0
  2  3  2  0
  2  1  1  0
  4  2  1  0
  5  4  1  0
  6  5  1  0
  6  7  1  6
  8  6  1  0
  8  9  2  0
 11 10  1  6
 11 12  1  0
 12  8  1  0
 13 15  1  0
 13 11  1  0
 14 13  2  0
 15 16  1  0
 16 17  1  0
 18 19  1  0
 18 17  1  0
 19 15  1  0
 19 20  1  6
 20 22  2  0
 20 21  1  0
M  END
$$$$
