QAP.pdb
     RDKit          3D

 22 22  0  0  1  0  0  0  0  0999 V2000
   19.3268  -14.5937  -15.0201 N   0  0  0  0  0  0  0  0  0  0  0  0
   17.9342  -14.5866  -14.7491 C   0  0  0  0  0  0  0  0  0  0  0  0
   17.4228  -15.5775  -14.1731 O   0  0  0  0  0  0  0  0  0  0  0  0
   17.0702  -13.4424  -15.1275 C   0  0  0  0  0  0  0  0  0  0  0  0
   17.8982  -12.3370  -15.7324 C   0  0  0  0  0  0  0  0  0  0  0  0
   16.9752  -11.1596  -16.0165 C   0  0  2  0  0  0  0  0  0  0  0  0
   15.9844  -11.5233  -16.9976 N   0  0  0  0  0  0  0  0  0  0  0  0
   17.7125   -9.9735  -16.4734 C   0  0  0  0  0  0  0  0  0  0  0  0
   18.0913   -9.8693  -17.6636 O   0  0  0  0  0  0  0  0  0  0  0  0
   17.7242   -6.5483  -15.9015 C   0  0  0  0  0  0  0  0  0  0  0  0
   18.7027   -7.7017  -16.0037 C   0  0  2  0  0  0  0  0  0  0  0  0
   18.0077   -8.9260  -15.5735 N   0  0  0  0  0  0  0  0  0  0  0  0
   19.8351   -7.4603  -15.0787 C   0  0  0  0  0  0  0  0  0  0  0  0
   19.7494   -7.9069  -13.8859 O   0  0  0  0  0  0  0  0  0  0  0  0
   21.0121   -6.7591  -15.4410 N   0  0  0  0  0  0  0  0  0  0  0  0
   21.2851   -6.1986  -16.7796 C   0  0  0  0  0  0  0  0  0  0  0  0
   22.8067   -6.4407  -16.8870 C   0  0  0  0  0  0  0  0  0  0  0  0
   23.2219   -5.9967  -15.5169 C   0  0  0  0  0  0  0  0  0  0  0  0
   22.1320   -6.4705  -14.6019 C   0  0  1  0  0  0  0  0  0  0  0  0
   21.8124   -5.4348  -13.5713 C   0  0  0  0  0  0  0  0  0  0  0  0
   22.5373   -5.4944  -12.3893 O   0  0  0  0  0  0  0  0  0  0  0  0
   20.9615   -4.5489  -13.7043 O   0  0  0  0  0  0  0  0  0  0  0  0
  2  3  2  0
  2  1  1  0
  4  2  1  0
  5  4  1  0
  6  5  1  0
  6  7  1  6
  8  6  1  0
  8  9  2  0
 11 10  1  1
 11 12  1  0
 12  8  1  0
 13 15  1  0
 13 11  1  0
 14 13  2  0
 15 16  1  0
 16 17  1  0
 18 19  1  0
 18 17  1  0
 19 15  1  0
 19 20  1  1
 20 22  2  0
 20 21  1  0
M  END
$$$$
