QAP.pdb
     RDKit          3D

 22 22  0  0  1  0  0  0  0  0999 V2000
   20.0725  -15.3136  -15.5711 N   0  0  0  0  0  0  0  0  0  0  0  0
   19.2768  -14.1454  -15.6935 C   0  0  0  0  0  0  0  0  0  0  0  0
   18.5536  -13.7996  -14.7278 O   0  0  0  0  0  0  0  0  0  0  0  0
   19.2776  -13.3252  -16.9289 C   0  0  0  0  0  0  0  0  0  0  0  0
   19.4900  -11.8707  -16.5932 C   0  0  0  0  0  0  0  0  0  0  0  0
   18.1281  -11.2478  -16.3177 C   0  0  2  0  0  0  0  0  0  0  0  0
   17.2122  -11.5483  -17.3889 N   0  0  0  0  0  0  0  0  0  0  0  0
   18.2105   -9.7927  -16.1301 C   0  0  0  0  0  0  0  0  0  0  0  0
   18.4999   -9.0353  -17.0858 O   0  0  0  0  0  0  0  0  0  0  0  0
   17.3966   -7.4691  -13.2973 C   0  0  0  0  0  0  0  0  0  0  0  0
   18.0498   -7.7699  -14.6318 C   0  0  2  0  0  0  0  0  0  0  0  0
   17.9634   -9.2213  -14.8626 N   0  0  0  0  0  0  0  0  0  0  0  0
   19.4818   -7.3940  -14.5665 C   0  0  0  0  0  0  0  0  0  0  0  0
   20.3337   -8.2993  -14.2762 O   0  0  0  0  0  0  0  0  0  0  0  0
   19.9635   -6.0831  -14.8070 N   0  0  0  0  0  0  0  0  0  0  0  0
   19.1353   -4.9465  -15.2572 C   0  0  0  0  0  0  0  0  0  0  0  0
   20.1306   -4.2161  -16.1853 C   0  0  0  0  0  0  0  0  0  0  0  0
   21.3565   -4.2770  -15.3249 C   0  0  0  0  0  0  0  0  0  0  0  0
   21.3091   -5.6237  -14.6661 C   0  0  1  0  0  0  0  0  0  0  0  0
   21.7264   -5.5318  -13.2328 C   0  0  0  0  0  0  0  0  0  0  0  0
   23.0849   -5.3796  -12.9929 O   0  0  0  0  0  0  0  0  0  0  0  0
   20.9535   -5.5819  -12.2703 O   0  0  0  0  0  0  0  0  0  0  0  0
  2  3  2  0
  2  1  1  0
  4  2  1  0
  5  4  1  0
  6  5  1  0
  6  7  1  6
  8  6  1  0
  8  9  2  0
 11 10  1  1
 11 12  1  0
 12  8  1  0
 13 15  1  0
 13 11  1  0
 14 13  2  0
 15 16  1  0
 16 17  1  0
 18 19  1  0
 18 17  1  0
 19 15  1  0
 19 20  1  1
 20 22  2  0
 20 21  1  0
M  END
$$$$
