RDN.pdb
     RDKit          3D

 28 27  0  0  1  0  0  0  0  0999 V2000
   26.8809  -14.6563  -15.6922 N   0  0  0  0  0  0  0  0  0  0  0  0
   27.3366  -15.7246  -16.5483 C   0  0  0  0  0  0  0  0  0  0  0  0
   28.4367  -15.5349  -17.1928 N   0  0  0  0  0  0  0  0  0  0  0  0
   26.6131  -16.9299  -16.6794 N   0  0  0  0  0  0  0  0  0  0  0  0
   26.1128  -17.6207  -15.5228 C   0  0  0  0  0  0  0  0  0  0  0  0
   27.2659  -18.0841  -14.6390 C   0  0  0  0  0  0  0  0  0  0  0  0
   26.7836  -18.8905  -13.4738 C   0  0  0  0  0  0  0  0  0  0  0  0
   26.5018  -20.3228  -13.7884 C   0  0  2  0  0  0  0  0  0  0  0  0
   27.0230  -20.7847  -15.0324 N   0  0  0  0  0  0  0  0  0  0  0  0
   25.0227  -20.5134  -13.7813 C   0  0  0  0  0  0  0  0  0  0  0  0
   24.4715  -20.8124  -14.8848 O   0  0  0  0  0  0  0  0  0  0  0  0
   28.8256  -16.2009  -17.8764 N   0  0  0  0  0  0  0  0  0  0  0  0
   24.2198  -20.3793  -12.6265 C   0  0  1  0  0  0  0  0  0  0  0  0
   22.7967  -20.7392  -12.6267 C   0  0  0  0  0  0  0  0  0  0  0  0
   22.3356  -20.6920  -11.1882 C   0  0  0  0  0  0  0  0  0  0  0  0
   21.1401  -21.5431  -10.9659 O   0  0  0  0  0  0  0  0  0  0  0  0
   20.5919  -22.1646  -11.8911 C   0  0  0  0  0  0  0  0  0  0  0  0
   22.0257  -19.7927  -13.4772 O   0  0  0  0  0  0  0  0  0  0  0  0
   21.9474  -18.5827  -13.1523 O   0  0  0  0  0  0  0  0  0  0  0  0
   20.6609  -21.6097   -9.6585 N   0  0  0  0  0  0  0  0  0  0  0  0
   20.1725  -18.5127  -18.9357 C   0  0  0  0  0  0  0  0  0  0  0  0
   19.6318  -19.0402  -17.7407 O   0  0  0  0  0  0  0  0  0  0  0  0
   18.4535  -18.7811  -17.4138 C   0  0  0  0  0  0  0  0  0  0  0  0
   20.4475  -19.9017  -16.8637 C   0  0  1  0  0  0  0  0  0  0  0  0
   20.5657  -19.2939  -15.4641 N   0  0  0  0  0  0  0  0  0  0  0  0
   21.3593  -20.2018  -14.6649 C   0  0  0  0  0  0  0  0  0  0  0  0
   19.1931  -19.1411  -14.9545 O   0  0  0  0  0  0  0  0  0  0  0  0
   18.6591  -17.8564  -14.9369 O   0  0  0  0  0  0  0  0  0  0  0  0
  2  3  2  0
  2  1  1  0
  4  2  1  0
  5  4  1  0
  6  5  1  0
  7  6  1  0
  7  8  1  0
  8 10  1  0
  8  9  1  6
 10 11  2  0
 12 13  1  0
 12 10  1  0
 13 14  1  1
 15 14  1  0
 16 15  2  0
 17 18  2  0
 17 13  1  0
 19 15  1  0
 20 21  1  0
 21 22  2  0
 21 23  1  0
 24 23  1  6
 24 25  1  0
 24 26  1  0
 25 17  1  0
 26 27  1  0
 28 26  2  0
M  END
$$$$
