RDN.pdb
     RDKit          3D

 28 27  0  0  1  0  0  0  0  0999 V2000
   12.3183  -14.0455  -10.6943 N   0  0  0  0  0  0  0  0  0  0  0  0
   11.4394  -14.5113  -11.7396 C   0  0  0  0  0  0  0  0  0  0  0  0
   10.6604  -15.4990  -11.4581 N   0  0  0  0  0  0  0  0  0  0  0  0
   11.4276  -13.9150  -13.0193 N   0  0  0  0  0  0  0  0  0  0  0  0
   12.2959  -12.8124  -13.3285 C   0  0  0  0  0  0  0  0  0  0  0  0
   13.5284  -13.3002  -14.0825 C   0  0  0  0  0  0  0  0  0  0  0  0
   14.5026  -12.1913  -14.3314 C   0  0  0  0  0  0  0  0  0  0  0  0
   15.7645  -12.6179  -15.0063 C   0  0  2  0  0  0  0  0  0  0  0  0
   16.3558  -13.8083  -14.4907 N   0  0  0  0  0  0  0  0  0  0  0  0
   16.7464  -11.5010  -14.8950 C   0  0  0  0  0  0  0  0  0  0  0  0
   17.2067  -11.2466  -13.7399 O   0  0  0  0  0  0  0  0  0  0  0  0
   10.0369  -15.9533  -12.1415 N   0  0  0  0  0  0  0  0  0  0  0  0
   17.1811  -10.7261  -15.9936 C   0  0  1  0  0  0  0  0  0  0  0  0
   18.2229   -9.7014  -15.8544 C   0  0  0  0  0  0  0  0  0  0  0  0
   19.3009  -10.0375  -16.8589 C   0  0  0  0  0  0  0  0  0  0  0  0
   20.1141  -11.2006  -16.4243 O   0  0  0  0  0  0  0  0  0  0  0  0
   20.6487  -11.2498  -15.3042 C   0  0  0  0  0  0  0  0  0  0  0  0
   17.6523   -8.3493  -16.0996 O   0  0  0  0  0  0  0  0  0  0  0  0
   16.8548   -8.1714  -17.0526 O   0  0  0  0  0  0  0  0  0  0  0  0
   20.2482  -12.2411  -17.3423 N   0  0  0  0  0  0  0  0  0  0  0  0
   16.5523   -3.3169  -15.7228 C   0  0  0  0  0  0  0  0  0  0  0  0
   16.2974   -4.0052  -14.5146 O   0  0  0  0  0  0  0  0  0  0  0  0
   15.6942   -3.4355  -13.5798 C   0  0  0  0  0  0  0  0  0  0  0  0
   16.7382   -5.4023  -14.3390 C   0  0  1  0  0  0  0  0  0  0  0  0
   17.4895   -5.8938  -15.5784 N   0  0  0  0  0  0  0  0  0  0  0  0
   17.9739   -7.2258  -15.2894 C   0  0  0  0  0  0  0  0  0  0  0  0
   18.5792   -4.9334  -15.8182 O   0  0  0  0  0  0  0  0  0  0  0  0
   19.8825   -5.4016  -15.6839 O   0  0  0  0  0  0  0  0  0  0  0  0
  2  3  2  0
  2  1  1  0
  4  2  1  0
  5  4  1  0
  6  5  1  0
  7  6  1  0
  7  8  1  0
  8 10  1  0
  8  9  1  1
 10 11  2  0
 12 13  1  0
 12 10  1  0
 13 14  1  1
 15 14  1  0
 16 15  2  0
 17 18  2  0
 17 13  1  0
 19 15  1  0
 20 21  1  0
 21 22  2  0
 21 23  1  0
 24 23  1  6
 24 25  1  0
 24 26  1  0
 25 17  1  0
 26 27  1  0
 28 26  2  0
M  END
$$$$
