RDN.pdb
     RDKit          3D

 28 27  0  0  1  0  0  0  0  0999 V2000
   29.1106  -19.0372  -16.4822 N   0  0  0  0  0  0  0  0  0  0  0  0
   28.4172  -18.1561  -17.3904 C   0  0  0  0  0  0  0  0  0  0  0  0
   28.7919  -18.1673  -18.6238 N   0  0  0  0  0  0  0  0  0  0  0  0
   27.3712  -17.3143  -16.9537 N   0  0  0  0  0  0  0  0  0  0  0  0
   26.9007  -17.3640  -15.5966 C   0  0  0  0  0  0  0  0  0  0  0  0
   26.5858  -18.8008  -15.1943 C   0  0  0  0  0  0  0  0  0  0  0  0
   25.1117  -19.0371  -15.0860 C   0  0  0  0  0  0  0  0  0  0  0  0
   24.7349  -20.4410  -14.7439 C   0  0  2  0  0  0  0  0  0  0  0  0
   25.2707  -21.4407  -15.6075 N   0  0  0  0  0  0  0  0  0  0  0  0
   23.2466  -20.5347  -14.7579 C   0  0  0  0  0  0  0  0  0  0  0  0
   22.6937  -20.8139  -15.8657 O   0  0  0  0  0  0  0  0  0  0  0  0
   28.3426  -17.6124  -19.3670 N   0  0  0  0  0  0  0  0  0  0  0  0
   22.4368  -20.3312  -13.6180 C   0  0  1  0  0  0  0  0  0  0  0  0
   20.9711  -20.3405  -13.6978 C   0  0  0  0  0  0  0  0  0  0  0  0
   20.4684  -20.9302  -12.4002 C   0  0  0  0  0  0  0  0  0  0  0  0
   19.2485  -21.7504  -12.6052 O   0  0  0  0  0  0  0  0  0  0  0  0
   18.7538  -21.9265  -13.7309 C   0  0  0  0  0  0  0  0  0  0  0  0
   20.4572  -18.9594  -13.9038 O   0  0  0  0  0  0  0  0  0  0  0  0
   20.6015  -18.0983  -13.0018 O   0  0  0  0  0  0  0  0  0  0  0  0
   18.6828  -22.3162  -11.4637 N   0  0  0  0  0  0  0  0  0  0  0  0
   21.5724  -16.5883  -16.6562 C   0  0  0  0  0  0  0  0  0  0  0  0
   20.3924  -16.6768  -17.4297 O   0  0  0  0  0  0  0  0  0  0  0  0
   20.4294  -16.4694  -18.6618 C   0  0  0  0  0  0  0  0  0  0  0  0
   19.1032  -17.0142  -16.7966 C   0  0  2  0  0  0  0  0  0  0  0  0
   19.2770  -17.2240  -15.2906 N   0  0  0  0  0  0  0  0  0  0  0  0
   19.7968  -18.5602  -15.0981 C   0  0  0  0  0  0  0  0  0  0  0  0
   17.9484  -17.0392  -14.6840 O   0  0  0  0  0  0  0  0  0  0  0  0
   17.2120  -18.1853  -14.4009 O   0  0  0  0  0  0  0  0  0  0  0  0
  2  3  2  0
  2  1  1  0
  4  2  1  0
  5  4  1  0
  6  5  1  0
  7  6  1  0
  7  8  1  0
  8 10  1  0
  8  9  1  6
 10 11  2  0
 12 13  1  0
 12 10  1  0
 13 14  1  1
 15 14  1  0
 16 15  2  0
 17 18  2  0
 17 13  1  0
 19 15  1  0
 20 21  1  0
 21 22  2  0
 21 23  1  0
 24 23  1  6
 24 25  1  0
 24 26  1  0
 25 17  1  0
 26 27  1  0
 28 26  2  0
M  END
$$$$
