RDN.pdb
     RDKit          3D

 28 27  0  0  1  0  0  0  0  0999 V2000
   28.3994  -27.5783  -15.8987 N   0  0  0  0  0  0  0  0  0  0  0  0
   28.0141  -27.8914  -17.2535 C   0  0  0  0  0  0  0  0  0  0  0  0
   27.8967  -29.1381  -17.5598 N   0  0  0  0  0  0  0  0  0  0  0  0
   27.7740  -26.8800  -18.2090 N   0  0  0  0  0  0  0  0  0  0  0  0
   27.5788  -25.5144  -17.8060 C   0  0  0  0  0  0  0  0  0  0  0  0
   26.1675  -25.3156  -17.2637 C   0  0  0  0  0  0  0  0  0  0  0  0
   25.6513  -23.9398  -17.5487 C   0  0  0  0  0  0  0  0  0  0  0  0
   26.1002  -22.8983  -16.5772 C   0  0  2  0  0  0  0  0  0  0  0  0
   27.3967  -23.1055  -16.0216 N   0  0  0  0  0  0  0  0  0  0  0  0
   25.1020  -22.8400  -15.4708 C   0  0  0  0  0  0  0  0  0  0  0  0
   24.8876  -23.9121  -14.8262 O   0  0  0  0  0  0  0  0  0  0  0  0
   27.6895  -29.4805  -18.5095 N   0  0  0  0  0  0  0  0  0  0  0  0
   24.3958  -21.6700  -15.1121 C   0  0  1  0  0  0  0  0  0  0  0  0
   23.4490  -21.6502  -13.9905 C   0  0  0  0  0  0  0  0  0  0  0  0
   23.7652  -20.4173  -13.1756 C   0  0  0  0  0  0  0  0  0  0  0  0
   22.9048  -20.3193  -11.9702 O   0  0  0  0  0  0  0  0  0  0  0  0
   23.3615  -20.4455  -10.8220 C   0  0  0  0  0  0  0  0  0  0  0  0
   22.0502  -21.6245  -14.4970 O   0  0  0  0  0  0  0  0  0  0  0  0
   21.7788  -20.9983  -15.5506 O   0  0  0  0  0  0  0  0  0  0  0  0
   21.5502  -20.0772  -12.1934 N   0  0  0  0  0  0  0  0  0  0  0  0
   16.9330  -22.3206  -14.8784 C   0  0  0  0  0  0  0  0  0  0  0  0
   17.4044  -23.2724  -13.9454 O   0  0  0  0  0  0  0  0  0  0  0  0
   16.6269  -24.1279  -13.4702 C   0  0  0  0  0  0  0  0  0  0  0  0
   18.8171  -23.2704  -13.5196 C   0  0  2  0  0  0  0  0  0  0  0  0
   19.6133  -22.2122  -14.2867 N   0  0  0  0  0  0  0  0  0  0  0  0
   20.9840  -22.2890  -13.8307 C   0  0  0  0  0  0  0  0  0  0  0  0
   18.9871  -20.9144  -13.9856 O   0  0  0  0  0  0  0  0  0  0  0  0
   17.6948  -20.7056  -14.4573 O   0  0  0  0  0  0  0  0  0  0  0  0
  2  3  2  0
  2  1  1  0
  4  2  1  0
  5  4  1  0
  6  5  1  0
  7  6  1  0
  7  8  1  0
  8 10  1  0
  8  9  1  1
 10 11  2  0
 12 13  1  0
 12 10  1  0
 13 14  1  6
 15 14  1  0
 16 15  2  0
 17 18  2  0
 17 13  1  0
 19 15  1  0
 20 21  1  0
 21 22  2  0
 21 23  1  0
 24 23  1  6
 24 25  1  0
 24 26  1  0
 25 17  1  0
 26 27  1  0
 28 26  2  0
M  END
$$$$
