RDN.pdb
     RDKit          3D

 28 27  0  0  1  0  0  0  0  0999 V2000
   33.0221  -23.9876  -13.6739 N   0  0  0  0  0  0  0  0  0  0  0  0
   32.9895  -22.8207  -12.8259 C   0  0  0  0  0  0  0  0  0  0  0  0
   34.0986  -22.4596  -12.2772 N   0  0  0  0  0  0  0  0  0  0  0  0
   31.7964  -22.0995  -12.6021 N   0  0  0  0  0  0  0  0  0  0  0  0
   30.6757  -22.2312  -13.4919 C   0  0  0  0  0  0  0  0  0  0  0  0
   30.2385  -20.8630  -14.0041 C   0  0  0  0  0  0  0  0  0  0  0  0
   28.7875  -20.8446  -14.3710 C   0  0  0  0  0  0  0  0  0  0  0  0
   28.1064  -22.1692  -14.2629 C   0  0  2  0  0  0  0  0  0  0  0  0
   28.1342  -22.9641  -15.4460 N   0  0  0  0  0  0  0  0  0  0  0  0
   26.6871  -21.9268  -13.8744 C   0  0  0  0  0  0  0  0  0  0  0  0
   25.8025  -22.1122  -14.7654 O   0  0  0  0  0  0  0  0  0  0  0  0
   34.1899  -21.6563  -11.6380 N   0  0  0  0  0  0  0  0  0  0  0  0
   26.2869  -21.5079  -12.5857 C   0  0  2  0  0  0  0  0  0  0  0  0
   24.8736  -21.3190  -12.2371 C   0  0  0  0  0  0  0  0  0  0  0  0
   24.8141  -21.1522  -10.7362 C   0  0  0  0  0  0  0  0  0  0  0  0
   23.4154  -21.0582  -10.2485 O   0  0  0  0  0  0  0  0  0  0  0  0
   22.4418  -21.1851  -11.0093 C   0  0  0  0  0  0  0  0  0  0  0  0
   24.3239  -20.1283  -12.9398 O   0  0  0  0  0  0  0  0  0  0  0  0
   25.1046  -19.2666  -13.4128 O   0  0  0  0  0  0  0  0  0  0  0  0
   23.2490  -20.8187   -8.8853 N   0  0  0  0  0  0  0  0  0  0  0  0
   21.4346  -18.5967  -16.7830 C   0  0  0  0  0  0  0  0  0  0  0  0
   22.1778  -19.7986  -16.7401 O   0  0  0  0  0  0  0  0  0  0  0  0
   22.3879  -20.4474  -17.7876 C   0  0  0  0  0  0  0  0  0  0  0  0
   22.7149  -20.3040  -15.4623 C   0  0  2  0  0  0  0  0  0  0  0  0
   22.3629  -19.3563  -14.3132 N   0  0  0  0  0  0  0  0  0  0  0  0
   22.9276  -19.9153  -13.1044 C   0  0  0  0  0  0  0  0  0  0  0  0
   20.8936  -19.2764  -14.2689 O   0  0  0  0  0  0  0  0  0  0  0  0
   20.2827  -18.3198  -15.0737 O   0  0  0  0  0  0  0  0  0  0  0  0
  2  3  2  0
  2  1  1  0
  4  2  1  0
  5  4  1  0
  6  5  1  0
  7  6  1  0
  7  8  1  0
  8 10  1  0
  8  9  1  6
 10 11  2  0
 12 13  1  0
 12 10  1  0
 13 14  1  1
 15 14  1  0
 16 15  2  0
 17 18  2  0
 17 13  1  0
 19 15  1  0
 20 21  1  0
 21 22  2  0
 21 23  1  0
 24 23  1  6
 24 25  1  0
 24 26  1  0
 25 17  1  0
 26 27  1  0
 28 26  2  0
M  END
$$$$
