RDN.pdb
     RDKit          3D

 28 27  0  0  1  0  0  0  0  0999 V2000
   11.5753  -13.5630  -10.4621 N   0  0  0  0  0  0  0  0  0  0  0  0
   11.3389  -12.1456  -10.5928 C   0  0  0  0  0  0  0  0  0  0  0  0
   10.9807  -11.5074   -9.5316 N   0  0  0  0  0  0  0  0  0  0  0  0
   11.4916  -11.4789  -11.8279 N   0  0  0  0  0  0  0  0  0  0  0  0
   11.9316  -12.1856  -12.9994 C   0  0  0  0  0  0  0  0  0  0  0  0
   13.4481  -12.3451  -12.9870 C   0  0  0  0  0  0  0  0  0  0  0  0
   14.0885  -11.6595  -14.1534 C   0  0  0  0  0  0  0  0  0  0  0  0
   15.5597  -11.8864  -14.2714 C   0  0  2  0  0  0  0  0  0  0  0  0
   16.0013  -13.1967  -13.9246 N   0  0  0  0  0  0  0  0  0  0  0  0
   16.2501  -10.8946  -13.3975 C   0  0  0  0  0  0  0  0  0  0  0  0
   16.4053  -11.2064  -12.1770 O   0  0  0  0  0  0  0  0  0  0  0  0
   10.7351  -10.5066   -9.5170 N   0  0  0  0  0  0  0  0  0  0  0  0
   16.7310   -9.6470  -13.8543 C   0  0  1  0  0  0  0  0  0  0  0  0
   17.5327   -8.7653  -12.9972 C   0  0  0  0  0  0  0  0  0  0  0  0
   18.4238   -7.9596  -13.9142 C   0  0  0  0  0  0  0  0  0  0  0  0
   19.2822   -7.0151  -13.1564 O   0  0  0  0  0  0  0  0  0  0  0  0
   19.7956   -7.3195  -12.0670 C   0  0  0  0  0  0  0  0  0  0  0  0
   16.6455   -7.8859  -12.1889 O   0  0  0  0  0  0  0  0  0  0  0  0
   15.6159   -7.3902  -12.7086 O   0  0  0  0  0  0  0  0  0  0  0  0
   19.4840   -5.7619  -13.7326 N   0  0  0  0  0  0  0  0  0  0  0  0
   14.6438   -5.1802   -8.2565 C   0  0  0  0  0  0  0  0  0  0  0  0
   15.2951   -6.3193   -7.7302 O   0  0  0  0  0  0  0  0  0  0  0  0
   15.2136   -6.5851   -6.5116 C   0  0  0  0  0  0  0  0  0  0  0  0
   16.0787   -7.2089   -8.6085 C   0  0  1  0  0  0  0  0  0  0  0  0
   16.0683   -6.6946  -10.0499 N   0  0  0  0  0  0  0  0  0  0  0  0
   16.9138   -7.5735  -10.8278 C   0  0  0  0  0  0  0  0  0  0  0  0
   16.5736   -5.3125  -10.0071 O   0  0  0  0  0  0  0  0  0  0  0  0
   17.7946   -5.0609  -10.6251 O   0  0  0  0  0  0  0  0  0  0  0  0
  2  3  2  0
  2  1  1  0
  4  2  1  0
  5  4  1  0
  6  5  1  0
  7  6  1  0
  7  8  1  0
  8 10  1  0
  8  9  1  1
 10 11  2  0
 12 13  1  0
 12 10  1  0
 13 14  1  6
 15 14  1  0
 16 15  2  0
 17 18  2  0
 17 13  1  0
 19 15  1  0
 20 21  1  0
 21 22  2  0
 21 23  1  0
 24 23  1  6
 24 25  1  0
 24 26  1  0
 25 17  1  0
 26 27  1  0
 28 26  2  0
M  END
$$$$
