AYT.pdb
     RDKit          3D

 25 25  0  0  1  0  0  0  0  0999 V2000
    9.7055  -19.3760   19.6642 C   0  0  0  0  0  0  0  0  0  0  0  0
    9.6189  -17.8829   19.4676 C   0  0  2  0  0  0  0  0  0  0  0  0
   10.6564  -17.4030   18.6002 N   0  0  0  0  0  0  0  0  0  0  0  0
    9.5484  -17.1378   20.7388 C   0  0  0  0  0  0  0  0  0  0  0  0
   10.6316  -16.6345   21.1664 O   0  0  0  0  0  0  0  0  0  0  0  0
    7.2491  -12.1814   27.4548 O   0  0  0  0  0  0  0  0  0  0  0  0
    7.1872  -13.0758   26.3854 C   0  0  0  0  0  0  0  0  0  0  0  0
    7.8014  -12.7930   25.1739 C   0  0  0  0  0  0  0  0  0  0  0  0
    7.7402  -13.6750   24.1200 C   0  0  0  0  0  0  0  0  0  0  0  0
    7.0516  -14.8510   24.2965 C   0  0  0  0  0  0  0  0  0  0  0  0
    6.9850  -15.8002   23.1637 C   0  0  0  0  0  0  0  0  0  0  0  0
    8.3710  -16.1698   22.6954 C   0  0  2  0  0  0  0  0  0  0  0  0
    8.3712  -16.9518   21.4983 N   0  0  0  0  0  0  0  0  0  0  0  0
    9.1424  -16.8424   23.7729 C   0  0  0  0  0  0  0  0  0  0  0  0
   10.2157  -17.4603   23.5515 O   0  0  0  0  0  0  0  0  0  0  0  0
    6.4273  -15.1585   25.5005 C   0  0  0  0  0  0  0  0  0  0  0  0
    6.4977  -14.2612   26.5516 C   0  0  0  0  0  0  0  0  0  0  0  0
   11.2982  -15.9036   25.8978 C   0  0  0  0  0  0  0  0  0  0  0  0
   10.2774  -16.4199   26.8822 C   0  0  1  0  0  0  0  0  0  0  0  0
    9.5068  -15.3953   27.4147 O   0  0  0  0  0  0  0  0  0  0  0  0
    9.3867  -17.4210   26.1661 C   0  0  2  0  0  0  0  0  0  0  0  0
    8.6432  -16.7823   25.1057 N   0  0  0  0  0  0  0  0  0  0  0  0
    8.4328  -18.0636   27.0858 C   0  0  0  0  0  0  0  0  0  0  0  0
    8.8551  -18.8441   28.1419 O   0  0  0  0  0  0  0  0  0  0  0  0
    7.1780  -17.9306   26.9513 O   0  0  0  0  0  0  0  0  0  0  0  0
  2  1  1  1
  3  2  1  0
  4  5  2  0
  4  2  1  0
  6  7  1  0
  7  8  2  0
  8  9  1  0
 10  9  2  0
 10 11  1  0
 12 11  1  1
 12 13  1  0
 13  4  1  0
 14 22  1  0
 14 12  1  0
 15 14  2  0
 16 10  1  0
 17  7  1  0
 17 16  2  0
 19 21  1  0
 19 18  1  6
 20 19  1  0
 21 22  1  6
 21 23  1  0
 23 24  1  0
 25 23  2  0
M  END
$$$$
