AYT.pdb
     RDKit          3D

 25 25  0  0  1  0  0  0  0  0999 V2000
   10.5716  -16.1593   18.6582 C   0  0  0  0  0  0  0  0  0  0  0  0
    9.8071  -16.8967   19.7293 C   0  0  2  0  0  0  0  0  0  0  0  0
    8.5420  -17.3699   19.2447 N   0  0  0  0  0  0  0  0  0  0  0  0
    9.6864  -16.1287   20.9830 C   0  0  0  0  0  0  0  0  0  0  0  0
   10.7502  -15.9587   21.6530 O   0  0  0  0  0  0  0  0  0  0  0  0
    7.0699  -11.9893   28.1672 O   0  0  0  0  0  0  0  0  0  0  0  0
    7.1156  -12.4987   26.8687 C   0  0  0  0  0  0  0  0  0  0  0  0
    7.9702  -11.9642   25.9154 C   0  0  0  0  0  0  0  0  0  0  0  0
    8.0150  -12.4666   24.6356 C   0  0  0  0  0  0  0  0  0  0  0  0
    7.1876  -13.5179   24.3212 C   0  0  0  0  0  0  0  0  0  0  0  0
    7.2349  -14.0589   22.9452 C   0  0  0  0  0  0  0  0  0  0  0  0
    8.4074  -14.9941   22.7797 C   0  0  2  0  0  0  0  0  0  0  0  0
    8.4818  -15.5794   21.4773 N   0  0  0  0  0  0  0  0  0  0  0  0
    8.4164  -16.0393   23.8362 C   0  0  0  0  0  0  0  0  0  0  0  0
    7.5587  -16.9585   23.8854 O   0  0  0  0  0  0  0  0  0  0  0  0
    6.3220  -14.0717   25.2581 C   0  0  0  0  0  0  0  0  0  0  0  0
    6.2883  -13.5555   26.5416 C   0  0  0  0  0  0  0  0  0  0  0  0
    9.5563  -18.7771   23.9409 C   0  0  0  0  0  0  0  0  0  0  0  0
   10.3678  -18.2353   25.0922 C   0  0  1  0  0  0  0  0  0  0  0  0
   11.6104  -17.7748   24.6787 O   0  0  0  0  0  0  0  0  0  0  0  0
    9.5844  -17.1055   25.7390 C   0  0  2  0  0  0  0  0  0  0  0  0
    9.4371  -15.9942   24.8288 N   0  0  0  0  0  0  0  0  0  0  0  0
   10.2337  -16.6209   26.9688 C   0  0  0  0  0  0  0  0  0  0  0  0
   10.3321  -17.4081   28.0972 O   0  0  0  0  0  0  0  0  0  0  0  0
   10.7333  -15.4572   27.0496 O   0  0  0  0  0  0  0  0  0  0  0  0
  2  1  1  6
  3  2  1  0
  4  5  2  0
  4  2  1  0
  6  7  1  0
  7  8  2  0
  8  9  1  0
 10  9  2  0
 10 11  1  0
 12 11  1  6
 12 13  1  0
 13  4  1  0
 14 22  1  0
 14 12  1  0
 15 14  2  0
 16 10  1  0
 17  7  1  0
 17 16  2  0
 19 21  1  0
 19 18  1  6
 20 19  1  0
 21 22  1  6
 21 23  1  0
 23 24  1  0
 25 23  2  0
M  END
$$$$
