AYT.pdb
     RDKit          3D

 25 25  0  0  1  0  0  0  0  0999 V2000
   12.1220  -16.2971   22.0014 C   0  0  0  0  0  0  0  0  0  0  0  0
   11.9196  -16.6710   23.4487 C   0  0  2  0  0  0  0  0  0  0  0  0
   12.5515  -17.9199   23.7652 N   0  0  0  0  0  0  0  0  0  0  0  0
   10.5043  -16.6272   23.8622 C   0  0  0  0  0  0  0  0  0  0  0  0
    9.9077  -17.7412   23.9751 O   0  0  0  0  0  0  0  0  0  0  0  0
   10.5418  -15.5056   30.4354 O   0  0  0  0  0  0  0  0  0  0  0  0
    9.9176  -15.2352   29.2168 C   0  0  0  0  0  0  0  0  0  0  0  0
    9.7927  -13.9367   28.7445 C   0  0  0  0  0  0  0  0  0  0  0  0
    9.1773  -13.6706   27.5433 C   0  0  0  0  0  0  0  0  0  0  0  0
    8.6858  -14.7286   26.8169 C   0  0  0  0  0  0  0  0  0  0  0  0
    8.0238  -14.4435   25.5250 C   0  0  0  0  0  0  0  0  0  0  0  0
    8.3983  -15.4794   24.4937 C   0  0  2  0  0  0  0  0  0  0  0  0
    9.7823  -15.4437   24.1362 N   0  0  0  0  0  0  0  0  0  0  0  0
    7.5329  -15.3786   23.2898 C   0  0  0  0  0  0  0  0  0  0  0  0
    6.2766  -15.3785   23.3580 O   0  0  0  0  0  0  0  0  0  0  0  0
    8.7981  -16.0392   27.2679 C   0  0  0  0  0  0  0  0  0  0  0  0
    9.4197  -16.2911   28.4783 C   0  0  0  0  0  0  0  0  0  0  0  0
    7.5575  -12.7157   20.7482 C   0  0  0  0  0  0  0  0  0  0  0  0
    7.7787  -13.9911   19.9724 C   0  0  1  0  0  0  0  0  0  0  0  0
    9.1093  -14.1538   19.6115 O   0  0  0  0  0  0  0  0  0  0  0  0
    7.3281  -15.1587   20.8339 C   0  0  2  0  0  0  0  0  0  0  0  0
    8.1545  -15.2784   22.0120 N   0  0  0  0  0  0  0  0  0  0  0  0
    7.3735  -16.4336   20.0982 C   0  0  0  0  0  0  0  0  0  0  0  0
    6.6885  -16.6144   18.9146 O   0  0  0  0  0  0  0  0  0  0  0  0
    8.0442  -17.4262   20.5171 O   0  0  0  0  0  0  0  0  0  0  0  0
  2  1  1  6
  3  2  1  0
  4  5  2  0
  4  2  1  0
  6  7  1  0
  7  8  2  0
  8  9  1  0
 10  9  2  0
 10 11  1  0
 12 11  1  1
 12 13  1  0
 13  4  1  0
 14 22  1  0
 14 12  1  0
 15 14  2  0
 16 10  1  0
 17  7  1  0
 17 16  2  0
 19 21  1  0
 19 18  1  1
 20 19  1  0
 21 22  1  1
 21 23  1  0
 23 24  1  0
 25 23  2  0
M  END
$$$$
