AYT.pdb
     RDKit          3D

 25 25  0  0  1  0  0  0  0  0999 V2000
    8.2326  -12.4082   19.7760 C   0  0  0  0  0  0  0  0  0  0  0  0
    8.1157  -13.9120   19.7939 C   0  0  2  0  0  0  0  0  0  0  0  0
    7.2108  -14.3839   18.7851 N   0  0  0  0  0  0  0  0  0  0  0  0
    7.8078  -14.4498   21.1327 C   0  0  0  0  0  0  0  0  0  0  0  0
    6.5904  -14.4316   21.4891 O   0  0  0  0  0  0  0  0  0  0  0  0
    6.1778  -20.0987   19.4235 O   0  0  0  0  0  0  0  0  0  0  0  0
    6.8209  -19.3403   20.4027 C   0  0  0  0  0  0  0  0  0  0  0  0
    6.2003  -19.0458   21.6081 C   0  0  0  0  0  0  0  0  0  0  0  0
    6.8345  -18.2982   22.5730 C   0  0  0  0  0  0  0  0  0  0  0  0
    8.1062  -17.8467   22.3133 C   0  0  0  0  0  0  0  0  0  0  0  0
    8.7891  -17.0425   23.3503 C   0  0  0  0  0  0  0  0  0  0  0  0
    8.3782  -15.5935   23.2582 C   0  0  2  0  0  0  0  0  0  0  0  0
    8.7661  -14.9750   22.0288 N   0  0  0  0  0  0  0  0  0  0  0  0
    8.8726  -14.8179   24.4255 C   0  0  0  0  0  0  0  0  0  0  0  0
    9.9659  -14.1955   24.4099 O   0  0  0  0  0  0  0  0  0  0  0  0
    8.7504  -18.1279   21.1134 C   0  0  0  0  0  0  0  0  0  0  0  0
    8.0995  -18.8812   20.1523 C   0  0  0  0  0  0  0  0  0  0  0  0
    7.3489  -11.9591   26.0469 C   0  0  0  0  0  0  0  0  0  0  0  0
    7.4705  -12.9866   27.1455 C   0  0  1  0  0  0  0  0  0  0  0  0
    6.2638  -13.6272   27.3918 O   0  0  0  0  0  0  0  0  0  0  0  0
    8.5232  -14.0025   26.7352 C   0  0  2  0  0  0  0  0  0  0  0  0
    8.0745  -14.7810   25.6048 N   0  0  0  0  0  0  0  0  0  0  0  0
    8.8562  -14.9231   27.8354 C   0  0  0  0  0  0  0  0  0  0  0  0
    9.4355  -14.4777   29.0054 O   0  0  0  0  0  0  0  0  0  0  0  0
    8.6266  -16.1689   27.7603 O   0  0  0  0  0  0  0  0  0  0  0  0
  2  1  1  1
  3  2  1  0
  4  5  2  0
  4  2  1  0
  6  7  1  0
  7  8  2  0
  8  9  1  0
 10  9  2  0
 10 11  1  0
 12 11  1  6
 12 13  1  0
 13  4  1  0
 14 22  1  0
 14 12  1  0
 15 14  2  0
 16 10  1  0
 17  7  1  0
 17 16  2  0
 19 21  1  0
 19 18  1  6
 20 19  1  0
 21 22  1  6
 21 23  1  0
 23 24  1  0
 25 23  2  0
M  END
$$$$
