AYT.pdb
     RDKit          3D

 25 25  0  0  1  0  0  0  0  0999 V2000
    8.3869  -18.0475   19.4717 C   0  0  0  0  0  0  0  0  0  0  0  0
    8.9793  -16.6603   19.4639 C   0  0  2  0  0  0  0  0  0  0  0  0
   10.2578  -16.6353   18.8128 N   0  0  0  0  0  0  0  0  0  0  0  0
    9.0085  -16.0390   20.8016 C   0  0  0  0  0  0  0  0  0  0  0  0
   10.0996  -16.1179   21.4440 O   0  0  0  0  0  0  0  0  0  0  0  0
    7.3226  -12.0437   28.3453 O   0  0  0  0  0  0  0  0  0  0  0  0
    7.2170  -12.4953   27.0291 C   0  0  0  0  0  0  0  0  0  0  0  0
    7.9099  -11.8772   25.9982 C   0  0  0  0  0  0  0  0  0  0  0  0
    7.8055  -12.3227   24.7009 C   0  0  0  0  0  0  0  0  0  0  0  0
    6.9931  -13.4019   24.4481 C   0  0  0  0  0  0  0  0  0  0  0  0
    6.8800  -13.8817   23.0533 C   0  0  0  0  0  0  0  0  0  0  0  0
    8.0130  -14.8205   22.7187 C   0  0  2  0  0  0  0  0  0  0  0  0
    7.9171  -15.3727   21.4033 N   0  0  0  0  0  0  0  0  0  0  0  0
    8.1440  -15.8924   23.7397 C   0  0  0  0  0  0  0  0  0  0  0  0
    7.3306  -16.8485   23.8248 O   0  0  0  0  0  0  0  0  0  0  0  0
    6.2879  -14.0391   25.4633 C   0  0  0  0  0  0  0  0  0  0  0  0
    6.4031  -13.5794   26.7634 C   0  0  0  0  0  0  0  0  0  0  0  0
   11.7859  -17.0215   24.5423 C   0  0  0  0  0  0  0  0  0  0  0  0
   10.5706  -17.8639   24.8439 C   0  0  1  0  0  0  0  0  0  0  0  0
   10.8724  -18.9265   25.6846 O   0  0  0  0  0  0  0  0  0  0  0  0
    9.5205  -16.9745   25.4878 C   0  0  2  0  0  0  0  0  0  0  0  0
    9.2339  -15.8303   24.6548 N   0  0  0  0  0  0  0  0  0  0  0  0
    9.9458  -16.4941   26.8134 C   0  0  0  0  0  0  0  0  0  0  0  0
   10.2360  -17.3648   27.8431 O   0  0  0  0  0  0  0  0  0  0  0  0
   10.0657  -15.2575   27.0720 O   0  0  0  0  0  0  0  0  0  0  0  0
  2  1  1  1
  3  2  1  0
  4  5  2  0
  4  2  1  0
  6  7  1  0
  7  8  2  0
  8  9  1  0
 10  9  2  0
 10 11  1  0
 12 11  1  1
 12 13  1  0
 13  4  1  0
 14 22  1  0
 14 12  1  0
 15 14  2  0
 16 10  1  0
 17  7  1  0
 17 16  2  0
 19 21  1  0
 19 18  1  1
 20 19  1  0
 21 22  1  6
 21 23  1  0
 23 24  1  0
 25 23  2  0
M  END
$$$$
