DMG.pdb
     RDKit          3D

 21 20  0  0  1  0  0  0  0  0999 V2000
   26.4976  -22.3324  -15.7555 N   0  0  0  0  0  0  0  0  0  0  0  0
   26.4433  -21.1078  -14.9891 C   0  0  1  0  0  0  0  0  0  0  0  0
   25.6171  -20.0808  -15.7450 C   0  0  0  0  0  0  0  0  0  0  0  0
   26.2695  -19.7207  -17.0163 C   0  0  0  0  0  0  0  0  0  0  0  0
   27.4173  -19.2078  -16.9958 O   0  0  0  0  0  0  0  0  0  0  0  0
   25.8104  -21.3798  -13.6795 C   0  0  0  0  0  0  0  0  0  0  0  0
   24.8764  -22.2219  -13.6390 O   0  0  0  0  0  0  0  0  0  0  0  0
   25.6223  -19.9475  -18.2031 O   0  0  0  0  0  0  0  0  0  0  0  0
   26.7289  -19.9290   -5.9315 C   0  0  0  0  0  0  0  0  0  0  0  0
   27.1914  -19.7508   -7.6623 S   0  0  0  0  0  0  0  0  0  0  0  0
   25.9013  -20.5130   -8.7380 C   0  0  0  0  0  0  0  0  0  0  0  0
   26.4414  -20.4466  -10.1247 C   0  0  0  0  0  0  0  0  0  0  0  0
   25.5525  -20.9978  -11.1997 C   0  0  2  0  0  0  0  0  0  0  0  0
   26.2301  -20.7216  -12.4942 N   0  0  0  0  0  0  0  0  0  0  0  0
   24.1907  -20.4564  -11.2311 C   0  0  0  0  0  0  0  0  0  0  0  0
   24.0293  -19.3024  -11.7784 O   0  0  0  0  0  0  0  0  0  0  0  0
   23.0280  -21.0595  -10.7293 N   0  0  0  0  0  0  0  0  0  0  0  0
   21.7554  -20.3942  -10.7667 C   0  0  0  0  0  0  0  0  0  0  0  0
   21.0618  -20.6010  -12.0685 C   0  0  0  0  0  0  0  0  0  0  0  0
   20.8554  -21.7578  -12.5205 O   0  0  0  0  0  0  0  0  0  0  0  0
   20.6393  -19.4976  -12.7901 O   0  0  0  0  0  0  0  0  0  0  0  0
  2  1  1  6
  3  2  1  0
  4  3  1  0
  4  5  2  0
  6  2  1  0
  7  6  2  0
  8  4  1  0
  9 10  1  0
 11 12  1  0
 11 10  1  0
 13 12  1  1
 13 15  1  0
 13 14  1  0
 14  6  1  0
 15 17  1  0
 16 15  2  0
 17 18  1  0
 19 21  1  0
 19 18  1  0
 20 19  2  0
M  END
$$$$
