DMG.pdb
     RDKit          3D

 21 20  0  0  1  0  0  0  0  0999 V2000
   21.9401  -13.4868  -15.4943 N   0  0  0  0  0  0  0  0  0  0  0  0
   22.0949  -12.3586  -16.3849 C   0  0  1  0  0  0  0  0  0  0  0  0
   20.7291  -11.7591  -16.6749 C   0  0  0  0  0  0  0  0  0  0  0  0
   19.9614  -12.6275  -17.5848 C   0  0  0  0  0  0  0  0  0  0  0  0
   19.8546  -13.8526  -17.3228 O   0  0  0  0  0  0  0  0  0  0  0  0
   22.9509  -11.3400  -15.7374 C   0  0  0  0  0  0  0  0  0  0  0  0
   22.7833  -11.1223  -14.5096 O   0  0  0  0  0  0  0  0  0  0  0  0
   19.3736  -12.0941  -18.7023 O   0  0  0  0  0  0  0  0  0  0  0  0
   27.2314  -13.5066  -14.8144 C   0  0  0  0  0  0  0  0  0  0  0  0
   26.2258  -12.2976  -15.6910 S   0  0  0  0  0  0  0  0  0  0  0  0
   27.1068  -10.6783  -15.7568 C   0  0  0  0  0  0  0  0  0  0  0  0
   26.1587   -9.7292  -16.4042 C   0  0  0  0  0  0  0  0  0  0  0  0
   24.8022   -9.6272  -15.7725 C   0  0  2  0  0  0  0  0  0  0  0  0
   23.9367  -10.6205  -16.4620 N   0  0  0  0  0  0  0  0  0  0  0  0
   24.1764   -8.3030  -15.8325 C   0  0  0  0  0  0  0  0  0  0  0  0
   24.8120   -7.3270  -15.2839 O   0  0  0  0  0  0  0  0  0  0  0  0
   22.9505   -7.9721  -16.4282 N   0  0  0  0  0  0  0  0  0  0  0  0
   22.4414   -6.6289  -16.4132 C   0  0  0  0  0  0  0  0  0  0  0  0
   21.3858   -6.4495  -15.3777 C   0  0  0  0  0  0  0  0  0  0  0  0
   21.0529   -7.3950  -14.6159 O   0  0  0  0  0  0  0  0  0  0  0  0
   20.7629   -5.2192  -15.2560 O   0  0  0  0  0  0  0  0  0  0  0  0
  2  1  1  1
  3  2  1  0
  4  3  1  0
  4  5  2  0
  6  2  1  0
  7  6  2  0
  8  4  1  0
  9 10  1  0
 11 12  1  0
 11 10  1  0
 13 12  1  6
 13 15  1  0
 13 14  1  0
 14  6  1  0
 15 17  1  0
 16 15  2  0
 17 18  1  0
 19 21  1  0
 19 18  1  0
 20 19  2  0
M  END
$$$$
