DMG.pdb
     RDKit          3D

 21 20  0  0  1  0  0  0  0  0999 V2000
   19.0914  -11.6120  -19.2531 N   0  0  0  0  0  0  0  0  0  0  0  0
   19.4258  -10.2246  -19.4841 C   0  0  1  0  0  0  0  0  0  0  0  0
   18.3658   -9.5959  -20.3731 C   0  0  0  0  0  0  0  0  0  0  0  0
   18.4096  -10.1767  -21.7266 C   0  0  0  0  0  0  0  0  0  0  0  0
   19.5067  -10.2306  -22.3385 O   0  0  0  0  0  0  0  0  0  0  0  0
   19.4669   -9.5106  -18.1887 C   0  0  0  0  0  0  0  0  0  0  0  0
   18.6080   -9.8133  -17.3205 O   0  0  0  0  0  0  0  0  0  0  0  0
   17.2596  -10.6506  -22.3028 O   0  0  0  0  0  0  0  0  0  0  0  0
   23.4978  -10.3832  -14.2165 C   0  0  0  0  0  0  0  0  0  0  0  0
   22.3058   -9.2313  -13.5139 S   0  0  0  0  0  0  0  0  0  0  0  0
   22.1248   -7.7648  -14.6180 C   0  0  0  0  0  0  0  0  0  0  0  0
   21.8201   -8.3124  -15.9694 C   0  0  0  0  0  0  0  0  0  0  0  0
   20.5133   -7.8850  -16.5687 C   0  0  2  0  0  0  0  0  0  0  0  0
   20.4378   -8.5124  -17.9147 N   0  0  0  0  0  0  0  0  0  0  0  0
   20.3178   -6.4372  -16.6883 C   0  0  0  0  0  0  0  0  0  0  0  0
   21.0181   -5.8207  -17.5753 O   0  0  0  0  0  0  0  0  0  0  0  0
   19.4429   -5.6363  -15.9398 N   0  0  0  0  0  0  0  0  0  0  0  0
   19.3403   -4.2203  -16.1590 C   0  0  0  0  0  0  0  0  0  0  0  0
   20.3458   -3.4635  -15.3623 C   0  0  0  0  0  0  0  0  0  0  0  0
   20.4263   -2.2092  -15.4368 O   0  0  0  0  0  0  0  0  0  0  0  0
   21.2049   -4.1571  -14.5270 O   0  0  0  0  0  0  0  0  0  0  0  0
  2  1  1  1
  3  2  1  0
  4  3  1  0
  4  5  2  0
  6  2  1  0
  7  6  2  0
  8  4  1  0
  9 10  1  0
 11 12  1  0
 11 10  1  0
 13 12  1  6
 13 15  1  0
 13 14  1  0
 14  6  1  0
 15 17  1  0
 16 15  2  0
 17 18  1  0
 19 21  1  0
 19 18  1  0
 20 19  2  0
M  END
$$$$
