DMG.pdb
     RDKit          3D

 21 20  0  0  1  0  0  0  0  0999 V2000
   13.9769  -11.3108  -12.6759 N   0  0  0  0  0  0  0  0  0  0  0  0
   15.2968  -10.8400  -12.3210 C   0  0  1  0  0  0  0  0  0  0  0  0
   16.1557  -10.7686  -13.5724 C   0  0  0  0  0  0  0  0  0  0  0  0
   16.5520  -12.1187  -14.0101 C   0  0  0  0  0  0  0  0  0  0  0  0
   16.2406  -13.1113  -13.3038 O   0  0  0  0  0  0  0  0  0  0  0  0
   15.1888   -9.4912  -11.7219 C   0  0  0  0  0  0  0  0  0  0  0  0
   14.3839   -8.6766  -12.2434 O   0  0  0  0  0  0  0  0  0  0  0  0
   17.2526  -12.2790  -15.1773 O   0  0  0  0  0  0  0  0  0  0  0  0
   13.5531   -4.9746   -6.5563 C   0  0  0  0  0  0  0  0  0  0  0  0
   13.8941   -6.5141   -7.4254 S   0  0  0  0  0  0  0  0  0  0  0  0
   15.7091   -6.6884   -7.7041 C   0  0  0  0  0  0  0  0  0  0  0  0
   15.8760   -7.9290   -8.5116 C   0  0  0  0  0  0  0  0  0  0  0  0
   15.8059   -7.7549   -9.9997 C   0  0  2  0  0  0  0  0  0  0  0  0
   15.9603   -9.1094  -10.5936 N   0  0  0  0  0  0  0  0  0  0  0  0
   16.8027   -6.8478  -10.5762 C   0  0  0  0  0  0  0  0  0  0  0  0
   16.8092   -5.6334  -10.1489 O   0  0  0  0  0  0  0  0  0  0  0  0
   17.7638   -7.1549  -11.5504 N   0  0  0  0  0  0  0  0  0  0  0  0
   18.6388   -6.1520  -12.0910 C   0  0  0  0  0  0  0  0  0  0  0  0
   19.5470   -6.7129  -13.1298 C   0  0  0  0  0  0  0  0  0  0  0  0
   20.3783   -5.9833  -13.7314 O   0  0  0  0  0  0  0  0  0  0  0  0
   19.4707   -8.0610  -13.4355 O   0  0  0  0  0  0  0  0  0  0  0  0
  2  1  1  6
  3  2  1  0
  4  3  1  0
  4  5  2  0
  6  2  1  0
  7  6  2  0
  8  4  1  0
  9 10  1  0
 11 12  1  0
 11 10  1  0
 13 12  1  1
 13 15  1  0
 13 14  1  0
 14  6  1  0
 15 17  1  0
 16 15  2  0
 17 18  1  0
 19 21  1  0
 19 18  1  0
 20 19  2  0
M  END
$$$$
