CVQ.pdb
     RDKit          3D

 23 22  0  0  1  0  0  0  0  0999 V2000
   25.0396  -15.3536  -17.8015 N   0  0  0  0  0  0  0  0  0  0  0  0
   24.7962  -13.9877  -18.1768 C   0  0  1  0  0  0  0  0  0  0  0  0
   23.5168  -13.9092  -18.9495 C   0  0  0  0  0  0  0  0  0  0  0  0
   23.7878  -14.5409  -20.6414 S   0  0  0  0  0  0  0  0  0  0  0  0
   24.6468  -13.1672  -16.9356 C   0  0  0  0  0  0  0  0  0  0  0  0
   24.1191  -13.6936  -15.9521 O   0  0  0  0  0  0  0  0  0  0  0  0
   26.8695   -9.7176  -16.8680 C   0  0  0  0  0  0  0  0  0  0  0  0
   26.3785  -10.2826  -15.5464 C   0  0  2  0  0  0  0  0  0  0  0  0
   27.3363  -11.4084  -15.2162 C   0  0  0  0  0  0  0  0  0  0  0  0
   25.0088  -10.8896  -15.8138 C   0  0  2  0  0  0  0  0  0  0  0  0
   25.0921  -11.8576  -16.9063 N   0  0  0  0  0  0  0  0  0  0  0  0
   23.9366   -9.9319  -16.0751 C   0  0  0  0  0  0  0  0  0  0  0  0
   23.5137   -9.8221  -17.2993 O   0  0  0  0  0  0  0  0  0  0  0  0
   18.6493  -10.8763  -16.8789 N   0  0  0  0  0  0  0  0  0  0  0  0
   18.6022   -9.4571  -16.8328 C   0  0  0  0  0  0  0  0  0  0  0  0
   17.5042   -8.9395  -17.1527 O   0  0  0  0  0  0  0  0  0  0  0  0
   19.7211   -8.6082  -16.4459 C   0  0  0  0  0  0  0  0  0  0  0  0
   20.9936   -9.2857  -16.1010 C   0  0  0  0  0  0  0  0  0  0  0  0
   22.0207   -8.3787  -15.5326 C   0  0  2  0  0  0  0  0  0  0  0  0
   23.2627   -9.0834  -15.1908 N   0  0  0  0  0  0  0  0  0  0  0  0
   21.5282   -7.5228  -14.4416 C   0  0  0  0  0  0  0  0  0  0  0  0
   20.6574   -6.4909  -14.7091 O   0  0  0  0  0  0  0  0  0  0  0  0
   21.8949   -7.7260  -13.2725 O   0  0  0  0  0  0  0  0  0  0  0  0
  2  5  1  0
  2  3  1  0
  2  1  1  1
  3  4  1  0
  5  6  2  0
  8  7  1  6
  8 10  1  0
  9  8  1  0
 10 12  1  0
 10 11  1  6
 11  5  1  0
 12 13  2  0
 12 20  1  0
 15 14  1  0
 16 15  2  0
 17 15  1  0
 18 17  1  0
 19 18  1  1
 20 19  1  0
 21 22  1  0
 21 19  1  0
 23 21  2  0
M  END
$$$$
