CVQ.pdb
     RDKit          3D

 23 22  0  0  1  0  0  0  0  0999 V2000
   18.9488  -15.4307  -16.9872 N   0  0  0  0  0  0  0  0  0  0  0  0
   19.4452  -14.2389  -17.6186 C   0  0  1  0  0  0  0  0  0  0  0  0
   18.3292  -13.5727  -18.3608 C   0  0  0  0  0  0  0  0  0  0  0  0
   17.7922  -14.6420  -19.7405 S   0  0  0  0  0  0  0  0  0  0  0  0
   19.9318  -13.3010  -16.5605 C   0  0  0  0  0  0  0  0  0  0  0  0
   19.2136  -13.1162  -15.5741 O   0  0  0  0  0  0  0  0  0  0  0  0
   23.5644  -13.3398  -15.1353 C   0  0  0  0  0  0  0  0  0  0  0  0
   23.3230  -11.9912  -15.7910 C   0  0  2  0  0  0  0  0  0  0  0  0
   23.9722  -10.9801  -14.8690 C   0  0  0  0  0  0  0  0  0  0  0  0
   21.8194  -11.7574  -15.7662 C   0  0  2  0  0  0  0  0  0  0  0  0
   21.1535  -12.6665  -16.6977 N   0  0  0  0  0  0  0  0  0  0  0  0
   21.3925  -10.3828  -16.0177 C   0  0  0  0  0  0  0  0  0  0  0  0
   21.5997   -9.8968  -17.2055 O   0  0  0  0  0  0  0  0  0  0  0  0
   16.1493   -7.0765  -15.7040 N   0  0  0  0  0  0  0  0  0  0  0  0
   17.1888   -6.1269  -15.8936 C   0  0  0  0  0  0  0  0  0  0  0  0
   16.8156   -4.9425  -16.0776 O   0  0  0  0  0  0  0  0  0  0  0  0
   18.6096   -6.4483  -15.8834 C   0  0  0  0  0  0  0  0  0  0  0  0
   18.9796   -7.8604  -15.6252 C   0  0  0  0  0  0  0  0  0  0  0  0
   20.4427   -8.0914  -15.5438 C   0  0  2  0  0  0  0  0  0  0  0  0
   20.7714   -9.4698  -15.1594 N   0  0  0  0  0  0  0  0  0  0  0  0
   21.1658   -7.0864  -14.7485 C   0  0  0  0  0  0  0  0  0  0  0  0
   21.5920   -7.3861  -13.4745 O   0  0  0  0  0  0  0  0  0  0  0  0
   21.3963   -5.9614  -15.2217 O   0  0  0  0  0  0  0  0  0  0  0  0
  2  5  1  0
  2  3  1  0
  2  1  1  1
  3  4  1  0
  5  6  2  0
  8  7  1  1
  8 10  1  0
  9  8  1  0
 10 12  1  0
 10 11  1  6
 11  5  1  0
 12 13  2  0
 12 20  1  0
 15 14  1  0
 16 15  2  0
 17 15  1  0
 18 17  1  0
 19 18  1  1
 20 19  1  0
 21 22  1  0
 21 19  1  0
 23 21  2  0
M  END
$$$$
