CVQ.pdb
     RDKit          3D

 23 22  0  0  1  0  0  0  0  0999 V2000
   17.7819  -13.6356  -15.4967 N   0  0  0  0  0  0  0  0  0  0  0  0
   18.6050  -12.7745  -16.3008 C   0  0  1  0  0  0  0  0  0  0  0  0
   17.7594  -11.6835  -16.8793 C   0  0  0  0  0  0  0  0  0  0  0  0
   16.3732  -12.4187  -17.8139 S   0  0  0  0  0  0  0  0  0  0  0  0
   19.6450  -12.1496  -15.4266 C   0  0  0  0  0  0  0  0  0  0  0  0
   19.3359  -11.8727  -14.2644 O   0  0  0  0  0  0  0  0  0  0  0  0
   23.4525  -13.2693  -15.6019 C   0  0  0  0  0  0  0  0  0  0  0  0
   23.3550  -11.7778  -15.8719 C   0  0  2  0  0  0  0  0  0  0  0  0
   24.5091  -11.1606  -15.1097 C   0  0  0  0  0  0  0  0  0  0  0  0
   22.0579  -11.3030  -15.2330 C   0  0  2  0  0  0  0  0  0  0  0  0
   20.9120  -11.8956  -15.9208 N   0  0  0  0  0  0  0  0  0  0  0  0
   21.8938   -9.8537  -15.1452 C   0  0  0  0  0  0  0  0  0  0  0  0
   22.6400   -9.2148  -14.2938 O   0  0  0  0  0  0  0  0  0  0  0  0
   18.7087   -5.2032  -18.6035 N   0  0  0  0  0  0  0  0  0  0  0  0
   19.3162   -4.6382  -17.4502 C   0  0  0  0  0  0  0  0  0  0  0  0
   19.1509   -3.4030  -17.2991 O   0  0  0  0  0  0  0  0  0  0  0  0
   20.0891   -5.3933  -16.4731 C   0  0  0  0  0  0  0  0  0  0  0  0
   20.1914   -6.8575  -16.6803 C   0  0  0  0  0  0  0  0  0  0  0  0
   20.9346   -7.5641  -15.6085 C   0  0  2  0  0  0  0  0  0  0  0  0
   21.0357   -9.0080  -15.8553 N   0  0  0  0  0  0  0  0  0  0  0  0
   20.4731   -7.2460  -14.2478 C   0  0  0  0  0  0  0  0  0  0  0  0
   19.4287   -7.9467  -13.6885 O   0  0  0  0  0  0  0  0  0  0  0  0
   21.0229   -6.3434  -13.5954 O   0  0  0  0  0  0  0  0  0  0  0  0
  2  5  1  0
  2  3  1  0
  2  1  1  1
  3  4  1  0
  5  6  2  0
  8  7  1  1
  8 10  1  0
  9  8  1  0
 10 12  1  0
 10 11  1  6
 11  5  1  0
 12 13  2  0
 12 20  1  0
 15 14  1  0
 16 15  2  0
 17 15  1  0
 18 17  1  0
 19 18  1  6
 20 19  1  0
 21 22  1  0
 21 19  1  0
 23 21  2  0
M  END
$$$$
