CVQ.pdb
     RDKit          3D

 23 22  0  0  1  0  0  0  0  0999 V2000
   25.3912  -13.4281  -19.0594 N   0  0  0  0  0  0  0  0  0  0  0  0
   24.5140  -13.2176  -17.9406 C   0  0  1  0  0  0  0  0  0  0  0  0
   25.3301  -12.8953  -16.7280 C   0  0  0  0  0  0  0  0  0  0  0  0
   26.3184  -14.3560  -16.2537 S   0  0  0  0  0  0  0  0  0  0  0  0
   23.6296  -12.0486  -18.2361 C   0  0  0  0  0  0  0  0  0  0  0  0
   24.0921  -11.1285  -18.9161 O   0  0  0  0  0  0  0  0  0  0  0  0
   20.2999  -12.4262  -19.8911 C   0  0  0  0  0  0  0  0  0  0  0  0
   20.0132  -11.8531  -18.5139 C   0  0  2  0  0  0  0  0  0  0  0  0
   18.8924  -10.8566  -18.7246 C   0  0  0  0  0  0  0  0  0  0  0  0
   21.2576  -11.0841  -18.0942 C   0  0  2  0  0  0  0  0  0  0  0  0
   22.3331  -12.0143  -17.7543 N   0  0  0  0  0  0  0  0  0  0  0  0
   21.0670  -10.1226  -17.0105 C   0  0  0  0  0  0  0  0  0  0  0  0
   20.8269  -10.5947  -15.8234 O   0  0  0  0  0  0  0  0  0  0  0  0
   23.1925   -4.1374  -15.6160 N   0  0  0  0  0  0  0  0  0  0  0  0
   22.3246   -4.5925  -14.5874 C   0  0  0  0  0  0  0  0  0  0  0  0
   22.2652   -3.8656  -13.5657 O   0  0  0  0  0  0  0  0  0  0  0  0
   21.5311   -5.8121  -14.6593 C   0  0  0  0  0  0  0  0  0  0  0  0
   21.6822   -6.6440  -15.8769 C   0  0  0  0  0  0  0  0  0  0  0  0
   20.8664   -7.8829  -15.8614 C   0  0  2  0  0  0  0  0  0  0  0  0
   21.1044   -8.7249  -17.0405 N   0  0  0  0  0  0  0  0  0  0  0  0
   19.4364   -7.6568  -15.5976 C   0  0  0  0  0  0  0  0  0  0  0  0
   18.9525   -7.7079  -14.3100 O   0  0  0  0  0  0  0  0  0  0  0  0
   18.6571   -7.4184  -16.5348 O   0  0  0  0  0  0  0  0  0  0  0  0
  2  5  1  0
  2  3  1  0
  2  1  1  6
  3  4  1  0
  5  6  2  0
  8  7  1  6
  8 10  1  0
  9  8  1  0
 10 12  1  0
 10 11  1  1
 11  5  1  0
 12 13  2  0
 12 20  1  0
 15 14  1  0
 16 15  2  0
 17 15  1  0
 18 17  1  0
 19 18  1  6
 20 19  1  0
 21 22  1  0
 21 19  1  0
 23 21  2  0
M  END
$$$$
