CVQ.pdb
     RDKit          3D

 23 22  0  0  1  0  0  0  0  0999 V2000
   22.6660  -15.2978  -18.0614 N   0  0  0  0  0  0  0  0  0  0  0  0
   22.7260  -13.9048  -18.4103 C   0  0  1  0  0  0  0  0  0  0  0  0
   21.4768  -13.5257  -19.1423 C   0  0  0  0  0  0  0  0  0  0  0  0
   21.4848  -14.2947  -20.7988 S   0  0  0  0  0  0  0  0  0  0  0  0
   22.7981  -13.0970  -17.1540 C   0  0  0  0  0  0  0  0  0  0  0  0
   22.1253  -13.4660  -16.1876 O   0  0  0  0  0  0  0  0  0  0  0  0
   25.8913  -10.2944  -17.0201 C   0  0  0  0  0  0  0  0  0  0  0  0
   25.3426  -10.9085  -15.7438 C   0  0  2  0  0  0  0  0  0  0  0  0
   25.9741  -12.2826  -15.6616 C   0  0  0  0  0  0  0  0  0  0  0  0
   23.8460  -11.0871  -15.9545 C   0  0  2  0  0  0  0  0  0  0  0  0
   23.6002  -11.9714  -17.0925 N   0  0  0  0  0  0  0  0  0  0  0  0
   23.0806   -9.8518  -16.1067 C   0  0  0  0  0  0  0  0  0  0  0  0
   22.7951   -9.4664  -17.3149 O   0  0  0  0  0  0  0  0  0  0  0  0
   17.0633   -9.7239  -15.3862 N   0  0  0  0  0  0  0  0  0  0  0  0
   18.1224   -8.9461  -15.9263 C   0  0  0  0  0  0  0  0  0  0  0  0
   17.8350   -8.2689  -16.9435 O   0  0  0  0  0  0  0  0  0  0  0  0
   19.4710   -8.8973  -15.3774 C   0  0  0  0  0  0  0  0  0  0  0  0
   20.5082   -8.2253  -16.1960 C   0  0  0  0  0  0  0  0  0  0  0  0
   21.7175   -7.8365  -15.4299 C   0  0  2  0  0  0  0  0  0  0  0  0
   22.5829   -8.9840  -15.1293 N   0  0  0  0  0  0  0  0  0  0  0  0
   21.4383   -7.0041  -14.2489 C   0  0  0  0  0  0  0  0  0  0  0  0
   20.8281   -5.7788  -14.3931 O   0  0  0  0  0  0  0  0  0  0  0  0
   21.7512   -7.4018  -13.1147 O   0  0  0  0  0  0  0  0  0  0  0  0
  2  5  1  0
  2  3  1  0
  2  1  1  1
  3  4  1  0
  5  6  2  0
  8  7  1  6
  8 10  1  0
  9  8  1  0
 10 12  1  0
 10 11  1  6
 11  5  1  0
 12 13  2  0
 12 20  1  0
 15 14  1  0
 16 15  2  0
 17 15  1  0
 18 17  1  0
 19 18  1  1
 20 19  1  0
 21 22  1  0
 21 19  1  0
 23 21  2  0
M  END
$$$$
