CVQ.pdb
     RDKit          3D

 23 22  0  0  1  0  0  0  0  0999 V2000
   17.9776  -12.9058  -17.1672 N   0  0  0  0  0  0  0  0  0  0  0  0
   18.5848  -11.6337  -17.4477 C   0  0  1  0  0  0  0  0  0  0  0  0
   17.5261  -10.6651  -17.8731 C   0  0  0  0  0  0  0  0  0  0  0  0
   18.3033   -9.0792  -18.3378 S   0  0  0  0  0  0  0  0  0  0  0  0
   19.2190  -11.1170  -16.1960 C   0  0  0  0  0  0  0  0  0  0  0  0
   18.5425  -11.1081  -15.1639 O   0  0  0  0  0  0  0  0  0  0  0  0
   22.4141  -12.1606  -14.5249 C   0  0  0  0  0  0  0  0  0  0  0  0
   22.6621  -10.7460  -15.0194 C   0  0  2  0  0  0  0  0  0  0  0  0
   23.4406  -10.0691  -13.9106 C   0  0  0  0  0  0  0  0  0  0  0  0
   21.3002  -10.0744  -15.1198 C   0  0  2  0  0  0  0  0  0  0  0  0
   20.5268  -10.6658  -16.2104 N   0  0  0  0  0  0  0  0  0  0  0  0
   21.3249   -8.6197  -15.2557 C   0  0  0  0  0  0  0  0  0  0  0  0
   21.7442   -8.1284  -16.3839 O   0  0  0  0  0  0  0  0  0  0  0  0
   17.3559   -3.8804  -14.9920 N   0  0  0  0  0  0  0  0  0  0  0  0
   18.6469   -3.2880  -14.9606 C   0  0  0  0  0  0  0  0  0  0  0  0
   18.6709   -2.0345  -15.0233 O   0  0  0  0  0  0  0  0  0  0  0  0
   19.8935   -4.0352  -14.8614 C   0  0  0  0  0  0  0  0  0  0  0  0
   19.7879   -5.5066  -14.7160 C   0  0  0  0  0  0  0  0  0  0  0  0
   21.0977   -6.1927  -14.5962 C   0  0  2  0  0  0  0  0  0  0  0  0
   20.9550   -7.6311  -14.3383 N   0  0  0  0  0  0  0  0  0  0  0  0
   22.0376   -5.5353  -13.6742 C   0  0  0  0  0  0  0  0  0  0  0  0
   22.0696   -5.8928  -12.3454 O   0  0  0  0  0  0  0  0  0  0  0  0
   22.8080   -4.6538  -14.0891 O   0  0  0  0  0  0  0  0  0  0  0  0
  2  5  1  0
  2  3  1  0
  2  1  1  1
  3  4  1  0
  5  6  2  0
  8  7  1  1
  8 10  1  0
  9  8  1  0
 10 12  1  0
 10 11  1  6
 11  5  1  0
 12 13  2  0
 12 20  1  0
 15 14  1  0
 16 15  2  0
 17 15  1  0
 18 17  1  0
 19 18  1  1
 20 19  1  0
 21 22  1  0
 21 19  1  0
 23 21  2  0
M  END
$$$$
