CVQ.pdb
     RDKit          3D

 23 22  0  0  1  0  0  0  0  0999 V2000
   25.3379  -13.2673  -18.0925 N   0  0  0  0  0  0  0  0  0  0  0  0
   24.8796  -12.6178  -16.8952 C   0  0  1  0  0  0  0  0  0  0  0  0
   26.0182  -11.8726  -16.2719 C   0  0  0  0  0  0  0  0  0  0  0  0
   27.3059  -13.0566  -15.7473 S   0  0  0  0  0  0  0  0  0  0  0  0
   23.8161  -11.6318  -17.2598 C   0  0  0  0  0  0  0  0  0  0  0  0
   23.8704  -11.1057  -18.3748 O   0  0  0  0  0  0  0  0  0  0  0  0
   20.0850  -12.2135  -17.2334 C   0  0  0  0  0  0  0  0  0  0  0  0
   20.3746  -11.1963  -16.1431 C   0  0  2  0  0  0  0  0  0  0  0  0
   19.2241  -10.2132  -16.2023 C   0  0  0  0  0  0  0  0  0  0  0  0
   21.6439  -10.4648  -16.5554 C   0  0  2  0  0  0  0  0  0  0  0  0
   22.8075  -11.3287  -16.3627 N   0  0  0  0  0  0  0  0  0  0  0  0
   21.8656   -9.1750  -15.9058 C   0  0  0  0  0  0  0  0  0  0  0  0
   22.1255   -9.1802  -14.6321 O   0  0  0  0  0  0  0  0  0  0  0  0
   22.7043   -2.9375  -17.9352 N   0  0  0  0  0  0  0  0  0  0  0  0
   22.7096   -3.0032  -16.5160 C   0  0  0  0  0  0  0  0  0  0  0  0
   22.8942   -1.9126  -15.9224 O   0  0  0  0  0  0  0  0  0  0  0  0
   22.5171   -4.2258  -15.7476 C   0  0  0  0  0  0  0  0  0  0  0  0
   22.2773   -5.4724  -16.5130 C   0  0  0  0  0  0  0  0  0  0  0  0
   22.0825   -6.6710  -15.6608 C   0  0  2  0  0  0  0  0  0  0  0  0
   21.8463   -7.8866  -16.4497 N   0  0  0  0  0  0  0  0  0  0  0  0
   21.0985   -6.4871  -14.5822 C   0  0  0  0  0  0  0  0  0  0  0  0
   21.5136   -6.1379  -13.3172 O   0  0  0  0  0  0  0  0  0  0  0  0
   19.8872   -6.6459  -14.8063 O   0  0  0  0  0  0  0  0  0  0  0  0
  2  5  1  0
  2  3  1  0
  2  1  1  6
  3  4  1  0
  5  6  2  0
  8  7  1  6
  8 10  1  0
  9  8  1  0
 10 12  1  0
 10 11  1  1
 11  5  1  0
 12 13  2  0
 12 20  1  0
 15 14  1  0
 16 15  2  0
 17 15  1  0
 18 17  1  0
 19 18  1  6
 20 19  1  0
 21 22  1  0
 21 19  1  0
 23 21  2  0
M  END
$$$$
