CVQ.pdb
     RDKit          3D

 23 22  0  0  1  0  0  0  0  0999 V2000
   22.4488  -16.0755  -16.2064 N   0  0  0  0  0  0  0  0  0  0  0  0
   22.7326  -14.9031  -16.9879 C   0  0  1  0  0  0  0  0  0  0  0  0
   21.5164  -14.5300  -17.7764 C   0  0  0  0  0  0  0  0  0  0  0  0
   21.2421  -15.7653  -19.0932 S   0  0  0  0  0  0  0  0  0  0  0  0
   23.0569  -13.7747  -16.0618 C   0  0  0  0  0  0  0  0  0  0  0  0
   22.3433  -13.6169  -15.0674 O   0  0  0  0  0  0  0  0  0  0  0  0
   26.3424  -10.1591  -15.1375 C   0  0  0  0  0  0  0  0  0  0  0  0
   26.0017  -11.4237  -15.9069 C   0  0  2  0  0  0  0  0  0  0  0  0
   26.1211  -11.0433  -17.3680 C   0  0  0  0  0  0  0  0  0  0  0  0
   24.5399  -11.7306  -15.6156 C   0  0  2  0  0  0  0  0  0  0  0  0
   24.1287  -12.9406  -16.3257 N   0  0  0  0  0  0  0  0  0  0  0  0
   23.6021  -10.6450  -15.8928 C   0  0  0  0  0  0  0  0  0  0  0  0
   23.1570  -10.5310  -17.1089 O   0  0  0  0  0  0  0  0  0  0  0  0
   18.0743  -10.4686  -16.3396 N   0  0  0  0  0  0  0  0  0  0  0  0
   18.3543   -9.0772  -16.4033 C   0  0  0  0  0  0  0  0  0  0  0  0
   17.4016   -8.3478  -16.7724 O   0  0  0  0  0  0  0  0  0  0  0  0
   19.6414   -8.4804  -16.0726 C   0  0  0  0  0  0  0  0  0  0  0  0
   20.7266   -9.4028  -15.6618 C   0  0  0  0  0  0  0  0  0  0  0  0
   22.0261   -8.7294  -15.4197 C   0  0  2  0  0  0  0  0  0  0  0  0
   23.0822   -9.6729  -15.0321 N   0  0  0  0  0  0  0  0  0  0  0  0
   21.9410   -7.5645  -14.5244 C   0  0  0  0  0  0  0  0  0  0  0  0
   22.5748   -7.5815  -13.3027 O   0  0  0  0  0  0  0  0  0  0  0  0
   21.2969   -6.5588  -14.8654 O   0  0  0  0  0  0  0  0  0  0  0  0
  2  5  1  0
  2  3  1  0
  2  1  1  1
  3  4  1  0
  5  6  2  0
  8  7  1  1
  8 10  1  0
  9  8  1  0
 10 12  1  0
 10 11  1  6
 11  5  1  0
 12 13  2  0
 12 20  1  0
 15 14  1  0
 16 15  2  0
 17 15  1  0
 18 17  1  0
 19 18  1  1
 20 19  1  0
 21 22  1  0
 21 19  1  0
 23 21  2  0
M  END
$$$$
