CVQ.pdb
     RDKit          3D

 23 22  0  0  1  0  0  0  0  0999 V2000
   25.0497  -13.7712  -18.1560 N   0  0  0  0  0  0  0  0  0  0  0  0
   24.4652  -13.1922  -16.9775 C   0  0  1  0  0  0  0  0  0  0  0  0
   25.5475  -12.5995  -16.1306 C   0  0  0  0  0  0  0  0  0  0  0  0
   26.6650  -13.9247  -15.5558 S   0  0  0  0  0  0  0  0  0  0  0  0
   23.5373  -12.0946  -17.3904 C   0  0  0  0  0  0  0  0  0  0  0  0
   23.8107  -11.4570  -18.4110 O   0  0  0  0  0  0  0  0  0  0  0  0
   19.9697  -12.2920  -18.3276 C   0  0  0  0  0  0  0  0  0  0  0  0
   20.0016  -11.5656  -16.9940 C   0  0  2  0  0  0  0  0  0  0  0  0
   18.9148  -10.5150  -17.0885 C   0  0  0  0  0  0  0  0  0  0  0  0
   21.3440  -10.8526  -16.9181 C   0  0  2  0  0  0  0  0  0  0  0  0
   22.4094  -11.8142  -16.6399 N   0  0  0  0  0  0  0  0  0  0  0  0
   21.4132   -9.7416  -15.9715 C   0  0  0  0  0  0  0  0  0  0  0  0
   21.2466  -10.0143  -14.7114 O   0  0  0  0  0  0  0  0  0  0  0  0
   22.9819   -3.3223  -16.2817 N   0  0  0  0  0  0  0  0  0  0  0  0
   22.4197   -3.6350  -15.0149 C   0  0  0  0  0  0  0  0  0  0  0  0
   22.2950   -2.6691  -14.2227 O   0  0  0  0  0  0  0  0  0  0  0  0
   21.9967   -4.9683  -14.6083 C   0  0  0  0  0  0  0  0  0  0  0  0
   22.1277   -6.0523  -15.6110 C   0  0  0  0  0  0  0  0  0  0  0  0
   21.5976   -7.3598  -15.1528 C   0  0  2  0  0  0  0  0  0  0  0  0
   21.6409   -8.3818  -16.2062 N   0  0  0  0  0  0  0  0  0  0  0  0
   20.2873   -7.2768  -14.4881 C   0  0  0  0  0  0  0  0  0  0  0  0
   20.2091   -7.2152  -13.1152 O   0  0  0  0  0  0  0  0  0  0  0  0
   19.2437   -7.2618  -15.1614 O   0  0  0  0  0  0  0  0  0  0  0  0
  2  5  1  0
  2  3  1  0
  2  1  1  6
  3  4  1  0
  5  6  2  0
  8  7  1  6
  8 10  1  0
  9  8  1  0
 10 12  1  0
 10 11  1  1
 11  5  1  0
 12 13  2  0
 12 20  1  0
 15 14  1  0
 16 15  2  0
 17 15  1  0
 18 17  1  0
 19 18  1  6
 20 19  1  0
 21 22  1  0
 21 19  1  0
 23 21  2  0
M  END
$$$$
