IRA.pdb
     RDKit          3D

 25 24  0  0  1  0  0  0  0  0999 V2000
   32.7181  -21.4223  -10.3213 C   0  0  0  0  0  0  0  0  0  0  0  0
   31.3640  -21.7451   -9.7952 C   0  0  0  0  0  0  0  0  0  0  0  0
   30.2397  -21.4917  -10.8175 C   0  0  2  0  0  0  0  0  0  0  0  0
   30.1788  -20.0494  -11.1874 C   0  0  0  0  0  0  0  0  0  0  0  0
   29.0012  -22.0809  -10.2391 C   0  0  2  0  0  0  0  0  0  0  0  0
   29.2489  -23.5190   -9.9803 N   0  0  0  0  0  0  0  0  0  0  0  0
   27.7789  -21.9741  -11.0084 C   0  0  0  0  0  0  0  0  0  0  0  0
   27.5930  -22.7059  -12.0291 O   0  0  0  0  0  0  0  0  0  0  0  0
   19.8272  -21.7454  -11.1025 N   0  0  0  0  0  0  0  0  0  0  0  0
   20.4137  -21.7972   -9.8160 C   0  0  0  0  0  0  0  0  0  0  0  0
   19.9629  -22.6138   -8.9274 N   0  0  0  0  0  0  0  0  0  0  0  0
   21.5133  -20.9913   -9.4016 N   0  0  0  0  0  0  0  0  0  0  0  0
   22.0398  -19.9564  -10.2289 C   0  0  0  0  0  0  0  0  0  0  0  0
   23.0576  -20.4711  -11.2368 C   0  0  0  0  0  0  0  0  0  0  0  0
   24.3876  -20.6727  -10.5668 C   0  0  0  0  0  0  0  0  0  0  0  0
   25.4843  -21.0397  -11.5019 C   0  0  2  0  0  0  0  0  0  0  0  0
   26.7357  -21.0814  -10.6947 N   0  0  0  0  0  0  0  0  0  0  0  0
   25.6626  -20.2089  -12.6854 C   0  0  0  0  0  0  0  0  0  0  0  0
   26.0351  -19.0031  -12.4898 O   0  0  0  0  0  0  0  0  0  0  0  0
   20.3446  -22.7602   -7.9945 C   0  0  0  0  0  0  0  0  0  0  0  0
   26.1544  -20.4142  -16.3587 C   0  0  1  0  0  0  0  0  0  0  0  0
   25.5873  -19.6903  -15.1498 N   0  0  0  0  0  0  0  0  0  0  0  0
   25.4743  -20.5884  -14.0270 C   0  0  0  0  0  0  0  0  0  0  0  0
   24.2636  -19.0814  -15.5186 O   0  0  0  0  0  0  0  0  0  0  0  0
   24.1418  -17.9754  -16.3137 O   0  0  0  0  0  0  0  0  0  0  0  0
  2  3  1  0
  2  1  1  0
  3  4  1  1
  5  7  1  0
  5  3  1  0
  5  6  1  6
  7  8  2  0
 10 12  1  0
 10  9  1  0
 11 10  2  0
 13 12  1  0
 13 14  1  0
 14 15  1  0
 16 15  1  1
 17 16  1  0
 17  7  1  0
 18 19  2  0
 18 16  1  0
 21 20  1  1
 21 23  1  0
 21 22  1  0
 22 18  1  0
 23 24  1  0
 25 23  2  0
M  END
$$$$
