IRA.pdb
     RDKit          3D

 25 24  0  0  1  0  0  0  0  0999 V2000
   28.4764  -19.9613   -6.5066 C   0  0  0  0  0  0  0  0  0  0  0  0
   28.4503  -20.8242   -7.7189 C   0  0  0  0  0  0  0  0  0  0  0  0
   27.3645  -20.4142   -8.7320 C   0  0  2  0  0  0  0  0  0  0  0  0
   26.0076  -20.5326   -8.1272 C   0  0  0  0  0  0  0  0  0  0  0  0
   27.6130  -21.2112   -9.9642 C   0  0  2  0  0  0  0  0  0  0  0  0
   29.0273  -21.0190  -10.3634 N   0  0  0  0  0  0  0  0  0  0  0  0
   26.7861  -20.9411  -11.1220 C   0  0  0  0  0  0  0  0  0  0  0  0
   26.9523  -19.8807  -11.8003 O   0  0  0  0  0  0  0  0  0  0  0  0
   24.5646  -26.3478  -15.3002 N   0  0  0  0  0  0  0  0  0  0  0  0
   23.5579  -25.5515  -15.8955 C   0  0  0  0  0  0  0  0  0  0  0  0
   22.3391  -25.9665  -15.9368 N   0  0  0  0  0  0  0  0  0  0  0  0
   23.7856  -24.2695  -16.4744 N   0  0  0  0  0  0  0  0  0  0  0  0
   24.8661  -23.4383  -16.0574 C   0  0  0  0  0  0  0  0  0  0  0  0
   24.4382  -22.3801  -15.0505 C   0  0  0  0  0  0  0  0  0  0  0  0
   25.2485  -22.5111  -13.7917 C   0  0  0  0  0  0  0  0  0  0  0  0
   24.9466  -21.4737  -12.7696 C   0  0  2  0  0  0  0  0  0  0  0  0
   25.7684  -21.8045  -11.5718 N   0  0  0  0  0  0  0  0  0  0  0  0
   23.5504  -21.2835  -12.3994 C   0  0  0  0  0  0  0  0  0  0  0  0
   23.0925  -22.0396  -11.4777 O   0  0  0  0  0  0  0  0  0  0  0  0
   21.5443  -25.4644  -16.3290 C   0  0  0  0  0  0  0  0  0  0  0  0
   20.6762  -18.9325  -13.1242 C   0  0  1  0  0  0  0  0  0  0  0  0
   21.3043  -20.1433  -12.4562 N   0  0  0  0  0  0  0  0  0  0  0  0
   22.6460  -20.3525  -12.9423 C   0  0  0  0  0  0  0  0  0  0  0  0
   20.4283  -21.3422  -12.6892 O   0  0  0  0  0  0  0  0  0  0  0  0
   19.2906  -21.5909  -11.9723 O   0  0  0  0  0  0  0  0  0  0  0  0
  2  3  1  0
  2  1  1  0
  3  4  1  1
  5  7  1  0
  5  3  1  0
  5  6  1  6
  7  8  2  0
 10 12  1  0
 10  9  1  0
 11 10  2  0
 13 12  1  0
 13 14  1  0
 14 15  1  0
 16 15  1  6
 17 16  1  0
 17  7  1  0
 18 19  2  0
 18 16  1  0
 21 20  1  1
 21 23  1  0
 21 22  1  0
 22 18  1  0
 23 24  1  0
 25 23  2  0
M  END
$$$$
