IRA.pdb
     RDKit          3D

 25 24  0  0  1  0  0  0  0  0999 V2000
   31.1161  -22.8666  -18.0444 C   0  0  0  0  0  0  0  0  0  0  0  0
   29.9780  -23.1531  -17.1293 C   0  0  0  0  0  0  0  0  0  0  0  0
   28.8351  -22.1263  -17.2428 C   0  0  2  0  0  0  0  0  0  0  0  0
   29.3225  -20.7566  -16.9151 C   0  0  0  0  0  0  0  0  0  0  0  0
   27.7144  -22.6474  -16.4135 C   0  0  2  0  0  0  0  0  0  0  0  0
   27.4032  -24.0238  -16.8666 N   0  0  0  0  0  0  0  0  0  0  0  0
   26.4766  -21.8956  -16.4009 C   0  0  0  0  0  0  0  0  0  0  0  0
   25.7523  -21.8278  -17.4415 O   0  0  0  0  0  0  0  0  0  0  0  0
   19.8994  -20.9759  -11.1786 N   0  0  0  0  0  0  0  0  0  0  0  0
   19.3886  -20.6037  -12.4444 C   0  0  0  0  0  0  0  0  0  0  0  0
   18.2224  -20.0655  -12.5432 N   0  0  0  0  0  0  0  0  0  0  0  0
   20.0871  -20.7754  -13.6744 N   0  0  0  0  0  0  0  0  0  0  0  0
   21.3929  -21.3455  -13.7233 C   0  0  0  0  0  0  0  0  0  0  0  0
   22.3967  -20.4534  -14.4398 C   0  0  0  0  0  0  0  0  0  0  0  0
   23.7273  -21.1461  -14.5299 C   0  0  0  0  0  0  0  0  0  0  0  0
   24.7390  -20.4066  -15.3307 C   0  0  2  0  0  0  0  0  0  0  0  0
   25.9952  -21.2054  -15.2716 N   0  0  0  0  0  0  0  0  0  0  0  0
   24.9946  -19.0181  -14.9709 C   0  0  0  0  0  0  0  0  0  0  0  0
   25.6786  -18.8158  -13.9117 O   0  0  0  0  0  0  0  0  0  0  0  0
   17.7806  -19.7374  -13.4003 C   0  0  0  0  0  0  0  0  0  0  0  0
   26.4026  -16.3063  -15.2825 C   0  0  2  0  0  0  0  0  0  0  0  0
   24.8988  -16.5187  -15.2746 N   0  0  0  0  0  0  0  0  0  0  0  0
   24.5746  -17.8687  -15.6652 C   0  0  0  0  0  0  0  0  0  0  0  0
   24.2546  -15.5024  -16.1752 O   0  0  0  0  0  0  0  0  0  0  0  0
   24.3124  -14.1551  -15.9483 O   0  0  0  0  0  0  0  0  0  0  0  0
  2  3  1  0
  2  1  1  0
  3  4  1  1
  5  7  1  0
  5  3  1  0
  5  6  1  6
  7  8  2  0
 10 12  1  0
 10  9  1  0
 11 10  2  0
 13 12  1  0
 13 14  1  0
 14 15  1  0
 16 15  1  1
 17 16  1  0
 17  7  1  0
 18 19  2  0
 18 16  1  0
 21 20  1  1
 21 23  1  0
 21 22  1  0
 22 18  1  0
 23 24  1  0
 25 23  2  0
M  END
$$$$
