IRA.pdb
     RDKit          3D

 25 24  0  0  1  0  0  0  0  0999 V2000
   27.9476  -19.2653   -6.0976 C   0  0  0  0  0  0  0  0  0  0  0  0
   26.6073  -19.5897   -6.6572 C   0  0  0  0  0  0  0  0  0  0  0  0
   26.6714  -20.1984   -8.0709 C   0  0  2  0  0  0  0  0  0  0  0  0
   27.5831  -19.4072   -8.9448 C   0  0  0  0  0  0  0  0  0  0  0  0
   25.2642  -20.3387   -8.5353 C   0  0  2  0  0  0  0  0  0  0  0  0
   24.5695  -21.2850   -7.6307 N   0  0  0  0  0  0  0  0  0  0  0  0
   25.0426  -20.7837   -9.8955 C   0  0  0  0  0  0  0  0  0  0  0  0
   25.5093  -21.8950  -10.2948 O   0  0  0  0  0  0  0  0  0  0  0  0
   21.3570  -24.7944  -14.1949 N   0  0  0  0  0  0  0  0  0  0  0  0
   21.4190  -23.9082  -15.2961 C   0  0  0  0  0  0  0  0  0  0  0  0
   21.1598  -24.3291  -16.4858 N   0  0  0  0  0  0  0  0  0  0  0  0
   21.7530  -22.5266  -15.1973 N   0  0  0  0  0  0  0  0  0  0  0  0
   22.1751  -21.9421  -13.9674 C   0  0  0  0  0  0  0  0  0  0  0  0
   22.4444  -20.4490  -14.0888 C   0  0  0  0  0  0  0  0  0  0  0  0
   22.9021  -19.9002  -12.7667 C   0  0  0  0  0  0  0  0  0  0  0  0
   24.1354  -20.5440  -12.2410 C   0  0  2  0  0  0  0  0  0  0  0  0
   24.3158  -20.0447  -10.8490 N   0  0  0  0  0  0  0  0  0  0  0  0
   25.3605  -20.3751  -13.0113 C   0  0  0  0  0  0  0  0  0  0  0  0
   25.9562  -19.2507  -12.9035 O   0  0  0  0  0  0  0  0  0  0  0  0
   21.2390  -23.7901  -17.3464 C   0  0  0  0  0  0  0  0  0  0  0  0
   27.9273  -22.3431  -14.8794 C   0  0  1  0  0  0  0  0  0  0  0  0
   27.1462  -21.0607  -14.6513 N   0  0  0  0  0  0  0  0  0  0  0  0
   25.9672  -21.3179  -13.8613 C   0  0  0  0  0  0  0  0  0  0  0  0
   26.8093  -20.4477  -15.9816 O   0  0  0  0  0  0  0  0  0  0  0  0
   27.7304  -19.8183  -16.7726 O   0  0  0  0  0  0  0  0  0  0  0  0
  2  3  1  0
  2  1  1  0
  3  4  1  6
  5  7  1  0
  5  3  1  0
  5  6  1  1
  7  8  2  0
 10 12  1  0
 10  9  1  0
 11 10  2  0
 13 12  1  0
 13 14  1  0
 14 15  1  0
 16 15  1  6
 17 16  1  0
 17  7  1  0
 18 19  2  0
 18 16  1  0
 21 20  1  1
 21 23  1  0
 21 22  1  0
 22 18  1  0
 23 24  1  0
 25 23  2  0
M  END
$$$$
