IRA.pdb
     RDKit          3D

 25 24  0  0  1  0  0  0  0  0999 V2000
   28.7191  -12.8241  -16.0437 C   0  0  0  0  0  0  0  0  0  0  0  0
   27.2429  -13.0086  -16.0042 C   0  0  0  0  0  0  0  0  0  0  0  0
   26.4618  -11.7033  -16.2479 C   0  0  2  0  0  0  0  0  0  0  0  0
   26.8239  -10.6747  -15.2322 C   0  0  0  0  0  0  0  0  0  0  0  0
   25.0238  -12.0793  -16.3274 C   0  0  2  0  0  0  0  0  0  0  0  0
   24.8809  -13.1550  -17.3369 N   0  0  0  0  0  0  0  0  0  0  0  0
   24.0701  -11.0389  -16.6517 C   0  0  0  0  0  0  0  0  0  0  0  0
   23.9094  -10.6630  -17.8538 O   0  0  0  0  0  0  0  0  0  0  0  0
   15.7328  -10.3842  -15.7885 N   0  0  0  0  0  0  0  0  0  0  0  0
   16.7103  -10.7106  -16.7579 C   0  0  0  0  0  0  0  0  0  0  0  0
   16.4197  -11.4961  -17.7367 N   0  0  0  0  0  0  0  0  0  0  0  0
   18.0475  -10.2184  -16.7473 N   0  0  0  0  0  0  0  0  0  0  0  0
   18.5257   -9.3657  -15.7097 C   0  0  0  0  0  0  0  0  0  0  0  0
   19.8884   -8.7652  -16.0244 C   0  0  0  0  0  0  0  0  0  0  0  0
   20.9633   -9.7958  -15.8220 C   0  0  0  0  0  0  0  0  0  0  0  0
   22.3385   -9.2911  -16.0784 C   0  0  2  0  0  0  0  0  0  0  0  0
   23.2724  -10.3857  -15.6923 N   0  0  0  0  0  0  0  0  0  0  0  0
   22.7226   -8.0382  -15.4416 C   0  0  0  0  0  0  0  0  0  0  0  0
   22.9657   -8.0817  -14.1887 O   0  0  0  0  0  0  0  0  0  0  0  0
   17.0359  -11.7549  -18.5052 C   0  0  0  0  0  0  0  0  0  0  0  0
   23.4729   -4.4426  -16.3595 C   0  0  1  0  0  0  0  0  0  0  0  0
   23.3067   -5.5882  -15.3762 N   0  0  0  0  0  0  0  0  0  0  0  0
   22.8613   -6.7799  -16.0556 C   0  0  0  0  0  0  0  0  0  0  0  0
   22.3544   -5.1698  -14.2914 O   0  0  0  0  0  0  0  0  0  0  0  0
   22.7344   -4.4383  -13.2002 O   0  0  0  0  0  0  0  0  0  0  0  0
  2  3  1  0
  2  1  1  0
  3  4  1  1
  5  7  1  0
  5  3  1  0
  5  6  1  6
  7  8  2  0
 10 12  1  0
 10  9  1  0
 11 10  2  0
 13 12  1  0
 13 14  1  0
 14 15  1  0
 16 15  1  1
 17 16  1  0
 17  7  1  0
 18 19  2  0
 18 16  1  0
 21 20  1  6
 21 23  1  0
 21 22  1  0
 22 18  1  0
 23 24  1  0
 25 23  2  0
M  END
$$$$
