CED.pdb
     RDKit          3D

 24 23  0  0  1  0  0  0  0  0999 V2000
   17.9580  -13.4788  -15.2492 N   0  0  0  0  0  0  0  0  0  0  0  0
   17.9595  -12.3958  -16.2379 C   0  0  1  0  0  0  0  0  0  0  0  0
   16.7970  -11.4817  -15.8792 C   0  0  0  0  0  0  0  0  0  0  0  0
   15.2054  -12.2838  -16.1273 S   0  0  0  0  0  0  0  0  0  0  0  0
   19.2056  -11.5808  -16.0710 C   0  0  0  0  0  0  0  0  0  0  0  0
   19.6618  -11.3316  -14.9264 O   0  0  0  0  0  0  0  0  0  0  0  0
   19.9248  -11.0555  -17.1824 N   0  0  0  0  0  0  0  0  0  0  0  0
   21.1857  -10.3579  -17.0461 C   0  0  1  0  0  0  0  0  0  0  0  0
   22.0954  -10.6045  -18.2053 C   0  0  0  0  0  0  0  0  0  0  0  0
   23.4181   -9.8829  -18.0756 C   0  0  0  0  0  0  0  0  0  0  0  0
   24.2942  -10.1839  -19.2341 C   0  0  0  0  0  0  0  0  0  0  0  0
   25.1778  -11.0590  -19.1202 O   0  0  0  0  0  0  0  0  0  0  0  0
   20.9866   -8.9132  -16.7600 C   0  0  0  0  0  0  0  0  0  0  0  0
   20.1442   -8.2633  -17.4308 O   0  0  0  0  0  0  0  0  0  0  0  0
   24.1564   -9.5146  -20.4468 O   0  0  0  0  0  0  0  0  0  0  0  0
   21.7066   -8.2188  -15.7561 N   0  0  0  0  0  0  0  0  0  0  0  0
   21.4946   -6.8263  -15.4461 C   0  0  1  0  0  0  0  0  0  0  0  0
   21.4303   -6.5229  -13.9891 C   0  0  0  0  0  0  0  0  0  0  0  0
   21.2366   -5.1244  -13.6501 C   0  0  0  0  0  0  0  0  0  0  0  0
   20.0918   -4.6238  -13.6532 O   0  0  0  0  0  0  0  0  0  0  0  0
   22.4810   -5.9556  -16.1645 C   0  0  0  0  0  0  0  0  0  0  0  0
   22.2463   -4.6081  -16.4024 O   0  0  0  0  0  0  0  0  0  0  0  0
   22.3037   -4.3163  -13.3176 O   0  0  0  0  0  0  0  0  0  0  0  0
   23.5703   -6.4249  -16.5815 O   0  0  0  0  0  0  0  0  0  0  0  0
  2  3  1  0
  2  5  1  0
  2  1  1  1
  4  3  1  0
  5  6  2  0
  7  8  1  0
  7  5  1  0
  8 13  1  0
  8  9  1  6
 10  9  1  0
 10 11  1  0
 11 12  2  0
 13 14  2  0
 13 16  1  0
 15 11  1  0
 16 17  1  0
 17 21  1  0
 17 18  1  1
 19 18  1  0
 20 19  2  0
 21 24  2  0
 21 22  1  0
 23 19  1  0
M  END
$$$$
