CED.pdb
     RDKit          3D

 24 23  0  0  1  0  0  0  0  0999 V2000
   23.6341  -10.8888  -16.6980 N   0  0  0  0  0  0  0  0  0  0  0  0
   23.6077   -9.7568  -15.7662 C   0  0  1  0  0  0  0  0  0  0  0  0
   24.9738   -9.0924  -15.8547 C   0  0  0  0  0  0  0  0  0  0  0  0
   26.2449  -10.0462  -15.0107 S   0  0  0  0  0  0  0  0  0  0  0  0
   22.6134   -8.7459  -16.2504 C   0  0  0  0  0  0  0  0  0  0  0  0
   22.4364   -8.5569  -17.4805 O   0  0  0  0  0  0  0  0  0  0  0  0
   21.8311   -7.9605  -15.3562 N   0  0  0  0  0  0  0  0  0  0  0  0
   20.7677   -7.0850  -15.8010 C   0  0  1  0  0  0  0  0  0  0  0  0
   19.4148   -7.6609  -15.5366 C   0  0  0  0  0  0  0  0  0  0  0  0
   18.2959   -6.8016  -16.0813 C   0  0  0  0  0  0  0  0  0  0  0  0
   16.9760   -7.4065  -15.7776 C   0  0  0  0  0  0  0  0  0  0  0  0
   15.9531   -6.6913  -15.8171 O   0  0  0  0  0  0  0  0  0  0  0  0
   20.9288   -5.7082  -15.2650 C   0  0  0  0  0  0  0  0  0  0  0  0
   21.1647   -5.5483  -14.0400 O   0  0  0  0  0  0  0  0  0  0  0  0
   16.8484   -8.7531  -15.4491 O   0  0  0  0  0  0  0  0  0  0  0  0
   20.8290   -4.5487  -16.0736 N   0  0  0  0  0  0  0  0  0  0  0  0
   20.9852   -3.2088  -15.5633 C   0  0  1  0  0  0  0  0  0  0  0  0
   21.6479   -2.2645  -16.5058 C   0  0  0  0  0  0  0  0  0  0  0  0
   21.8434   -0.9159  -16.0046 C   0  0  0  0  0  0  0  0  0  0  0  0
   21.6331   -0.6495  -14.8022 O   0  0  0  0  0  0  0  0  0  0  0  0
   19.6856   -2.6730  -15.0428 C   0  0  0  0  0  0  0  0  0  0  0  0
   19.5800   -2.0567  -13.8032 O   0  0  0  0  0  0  0  0  0  0  0  0
   22.2637    0.1007  -16.8366 O   0  0  0  0  0  0  0  0  0  0  0  0
   18.6321   -2.7657  -15.7228 O   0  0  0  0  0  0  0  0  0  0  0  0
  2  3  1  0
  2  5  1  0
  2  1  1  6
  4  3  1  0
  5  6  2  0
  7  8  1  0
  7  5  1  0
  8 13  1  0
  8  9  1  1
 10  9  1  0
 10 11  1  0
 11 12  2  0
 13 14  2  0
 13 16  1  0
 15 11  1  0
 16 17  1  0
 17 21  1  0
 17 18  1  6
 19 18  1  0
 20 19  2  0
 21 24  2  0
 21 22  1  0
 23 19  1  0
M  END
$$$$
