CED.pdb
     RDKit          3D

 24 23  0  0  1  0  0  0  0  0999 V2000
   27.1138  -20.8115  -10.3090 N   0  0  0  0  0  0  0  0  0  0  0  0
   25.7154  -21.0762  -10.6622 C   0  0  1  0  0  0  0  0  0  0  0  0
   24.8656  -20.4135   -9.5879 C   0  0  0  0  0  0  0  0  0  0  0  0
   25.0952  -21.1803   -7.9762 S   0  0  0  0  0  0  0  0  0  0  0  0
   25.3932  -20.3771  -11.9476 C   0  0  0  0  0  0  0  0  0  0  0  0
   25.6878  -19.1660  -12.1117 O   0  0  0  0  0  0  0  0  0  0  0  0
   24.7472  -21.0381  -13.0312 N   0  0  0  0  0  0  0  0  0  0  0  0
   24.4629  -20.3886  -14.2931 C   0  0  1  0  0  0  0  0  0  0  0  0
   25.2408  -20.9829  -15.4217 C   0  0  0  0  0  0  0  0  0  0  0  0
   26.6818  -20.5246  -15.4449 C   0  0  0  0  0  0  0  0  0  0  0  0
   27.4092  -21.1420  -16.5807 C   0  0  0  0  0  0  0  0  0  0  0  0
   27.9990  -22.2293  -16.4092 O   0  0  0  0  0  0  0  0  0  0  0  0
   23.0027  -20.3262  -14.5625 C   0  0  0  0  0  0  0  0  0  0  0  0
   22.2710  -21.2884  -14.2150 O   0  0  0  0  0  0  0  0  0  0  0  0
   27.4510  -20.5394  -17.8348 O   0  0  0  0  0  0  0  0  0  0  0  0
   22.3819  -19.2231  -15.1999 N   0  0  0  0  0  0  0  0  0  0  0  0
   20.9563  -19.1147  -15.3896 C   0  0  1  0  0  0  0  0  0  0  0  0
   20.4333  -17.7207  -15.3422 C   0  0  0  0  0  0  0  0  0  0  0  0
   18.9972  -17.5863  -15.5083 C   0  0  0  0  0  0  0  0  0  0  0  0
   18.5129  -17.2831  -16.6195 O   0  0  0  0  0  0  0  0  0  0  0  0
   20.5175  -19.8442  -16.6234 C   0  0  0  0  0  0  0  0  0  0  0  0
   19.2868  -20.4809  -16.7111 O   0  0  0  0  0  0  0  0  0  0  0  0
   18.1345  -17.7882  -14.4512 O   0  0  0  0  0  0  0  0  0  0  0  0
   21.2616  -19.9043  -17.6351 O   0  0  0  0  0  0  0  0  0  0  0  0
  2  3  1  0
  2  5  1  0
  2  1  1  1
  4  3  1  0
  5  6  2  0
  7  8  1  0
  7  5  1  0
  8 13  1  0
  8  9  1  6
 10  9  1  0
 10 11  1  0
 11 12  2  0
 13 14  2  0
 13 16  1  0
 15 11  1  0
 16 17  1  0
 17 21  1  0
 17 18  1  6
 19 18  1  0
 20 19  2  0
 21 24  2  0
 21 22  1  0
 23 19  1  0
M  END
$$$$
