PKH.pdb
     RDKit          3D

 27 28  0  0  1  0  0  0  0  0999 V2000
   20.4506  -17.7239  -16.9544 N   0  0  0  0  0  0  0  0  0  0  0  0
   19.8458  -19.0207  -16.7225 C   0  0  0  0  0  0  0  0  0  0  0  0
   20.0786  -19.3650  -15.2705 C   0  0  0  0  0  0  0  0  0  0  0  0
   21.1427  -18.3648  -14.8704 C   0  0  0  0  0  0  0  0  0  0  0  0
   20.7095  -17.1431  -15.6762 C   0  0  1  0  0  0  0  0  0  0  0  0
   21.6939  -16.0634  -15.6607 C   0  0  0  0  0  0  0  0  0  0  0  0
   22.0005  -15.5868  -14.5225 O   0  0  0  0  0  0  0  0  0  0  0  0
   22.3229  -15.5158  -16.8014 N   0  0  0  0  0  0  0  0  0  0  0  0
   23.2708  -14.4427  -16.6620 C   0  0  1  0  0  0  0  0  0  0  0  0
   24.3512  -14.5279  -17.7214 C   0  0  0  0  0  0  0  0  0  0  0  0
   25.0741  -15.8505  -17.6248 C   0  0  0  0  0  0  0  0  0  0  0  0
   26.0837  -15.8945  -18.7557 C   0  0  0  0  0  0  0  0  0  0  0  0
   26.7526  -17.2679  -18.7824 C   0  0  0  0  0  0  0  0  0  0  0  0
   27.7226  -17.3544  -19.8565 N   0  0  0  0  0  0  0  0  0  0  0  0
   22.5319  -13.1508  -16.7616 C   0  0  0  0  0  0  0  0  0  0  0  0
   21.5436  -13.0065  -17.5275 O   0  0  0  0  0  0  0  0  0  0  0  0
   22.9275  -12.0308  -15.9844 N   0  0  0  0  0  0  0  0  0  0  0  0
   22.0857  -10.8000  -15.9864 C   0  0  1  0  0  0  0  0  0  0  0  0
   22.4702   -9.9864  -14.7856 C   0  0  0  0  0  0  0  0  0  0  0  0
   21.8053   -8.6694  -14.7299 C   0  0  0  0  0  0  0  0  0  0  0  0
   20.8052   -8.1046  -15.4837 C   0  0  0  0  0  0  0  0  0  0  0  0
   20.4839   -6.8738  -14.9856 N   0  0  0  0  0  0  0  0  0  0  0  0
   21.2717   -6.6856  -13.9424 C   0  0  0  0  0  0  0  0  0  0  0  0
   22.0756   -7.7361  -13.7566 N   0  0  0  0  0  0  0  0  0  0  0  0
   22.4383  -10.1017  -17.2545 C   0  0  0  0  0  0  0  0  0  0  0  0
   21.4426   -9.3509  -17.8925 O   0  0  0  0  0  0  0  0  0  0  0  0
   23.5515  -10.1464  -17.7724 O   0  0  0  0  0  0  0  0  0  0  0  0
  1  5  1  0
  1  2  1  0
  2  3  1  0
  4  3  1  0
  5  4  1  0
  6  7  2  0
  5  6  1  6
  8  6  1  0
  9 10  1  6
  9  8  1  0
 11 12  1  0
 11 10  1  0
 13 14  1  0
 13 12  1  0
 15  9  1  0
 16 15  2  0
 17 15  1  0
 18 17  1  0
 19 20  1  0
 18 19  1  1
 20 21  2  0
 22 21  1  0
 23 22  1  0
 24 23  2  0
 24 20  1  0
 25 26  1  0
 25 18  1  0
 27 25  2  0
M  END
$$$$
