PKH.pdb
     RDKit          3D

 27 28  0  0  1  0  0  0  0  0999 V2000
   27.5153  -33.0099  -13.8645 N   0  0  0  0  0  0  0  0  0  0  0  0
   27.9808  -33.5076  -15.1439 C   0  0  0  0  0  0  0  0  0  0  0  0
   26.8418  -34.2869  -15.7573 C   0  0  0  0  0  0  0  0  0  0  0  0
   25.9111  -34.4763  -14.5781 C   0  0  0  0  0  0  0  0  0  0  0  0
   26.0945  -33.1484  -13.8482 C   0  0  1  0  0  0  0  0  0  0  0  0
   25.4728  -33.1264  -12.5261 C   0  0  0  0  0  0  0  0  0  0  0  0
   24.2360  -33.4165  -12.4719 O   0  0  0  0  0  0  0  0  0  0  0  0
   26.1345  -32.8108  -11.3180 N   0  0  0  0  0  0  0  0  0  0  0  0
   25.4348  -32.8967  -10.0640 C   0  0  1  0  0  0  0  0  0  0  0  0
   26.4048  -32.9925   -8.9035 C   0  0  0  0  0  0  0  0  0  0  0  0
   27.0549  -34.3555   -8.8775 C   0  0  0  0  0  0  0  0  0  0  0  0
   27.8241  -34.4618   -7.5746 C   0  0  0  0  0  0  0  0  0  0  0  0
   26.8438  -34.7010   -6.4274 C   0  0  0  0  0  0  0  0  0  0  0  0
   27.5368  -34.7715   -5.1558 N   0  0  0  0  0  0  0  0  0  0  0  0
   24.5660  -31.6918   -9.9302 C   0  0  0  0  0  0  0  0  0  0  0  0
   25.0219  -30.5252  -10.0545 O   0  0  0  0  0  0  0  0  0  0  0  0
   23.1801  -31.8275   -9.6549 N   0  0  0  0  0  0  0  0  0  0  0  0
   22.3300  -30.6079   -9.5405 C   0  0  1  0  0  0  0  0  0  0  0  0
   22.0701  -30.1049  -10.9301 C   0  0  0  0  0  0  0  0  0  0  0  0
   21.1204  -28.9756  -10.9789 C   0  0  0  0  0  0  0  0  0  0  0  0
   20.5022  -28.2425   -9.9950 C   0  0  0  0  0  0  0  0  0  0  0  0
   19.7599  -27.2419  -10.5554 N   0  0  0  0  0  0  0  0  0  0  0  0
   19.9200  -27.3566  -11.8613 C   0  0  0  0  0  0  0  0  0  0  0  0
   20.7264  -28.3805  -12.1545 N   0  0  0  0  0  0  0  0  0  0  0  0
   21.0766  -31.0795   -8.8873 C   0  0  0  0  0  0  0  0  0  0  0  0
   21.0469  -32.3864   -8.3840 O   0  0  0  0  0  0  0  0  0  0  0  0
   20.0682  -30.3884   -8.7646 O   0  0  0  0  0  0  0  0  0  0  0  0
  1  5  1  0
  1  2  1  0
  2  3  1  0
  4  3  1  0
  5  4  1  0
  6  7  2  0
  5  6  1  1
  8  6  1  0
  9 10  1  1
  9  8  1  0
 11 12  1  0
 11 10  1  0
 13 14  1  0
 13 12  1  0
 15  9  1  0
 16 15  2  0
 17 15  1  0
 18 17  1  0
 19 20  1  0
 18 19  1  6
 20 21  2  0
 22 21  1  0
 23 22  1  0
 24 23  2  0
 24 20  1  0
 25 26  1  0
 25 18  1  0
 27 25  2  0
M  END
$$$$
