PKH.pdb
     RDKit          3D

 27 28  0  0  1  0  0  0  0  0999 V2000
   28.4596  -21.3983  -12.6407 N   0  0  0  0  0  0  0  0  0  0  0  0
   29.6577  -21.7577  -11.9081 C   0  0  0  0  0  0  0  0  0  0  0  0
   30.4390  -20.4847  -11.6845 C   0  0  0  0  0  0  0  0  0  0  0  0
   29.7753  -19.5270  -12.6514 C   0  0  0  0  0  0  0  0  0  0  0  0
   28.3210  -19.9799  -12.5553 C   0  0  1  0  0  0  0  0  0  0  0  0
   27.4585  -19.3678  -13.5634 C   0  0  0  0  0  0  0  0  0  0  0  0
   27.3500  -18.1013  -13.5290 O   0  0  0  0  0  0  0  0  0  0  0  0
   26.7445  -20.0686  -14.5614 N   0  0  0  0  0  0  0  0  0  0  0  0
   25.8748  -19.3612  -15.4629 C   0  0  1  0  0  0  0  0  0  0  0  0
   26.2221  -19.6645  -16.9066 C   0  0  0  0  0  0  0  0  0  0  0  0
   27.7174  -19.5984  -17.1089 C   0  0  0  0  0  0  0  0  0  0  0  0
   27.9825  -19.8360  -18.5831 C   0  0  0  0  0  0  0  0  0  0  0  0
   28.2427  -21.3234  -18.8162 C   0  0  0  0  0  0  0  0  0  0  0  0
   28.5414  -21.5882  -20.2100 N   0  0  0  0  0  0  0  0  0  0  0  0
   24.4685  -19.7567  -15.1620 C   0  0  0  0  0  0  0  0  0  0  0  0
   23.4944  -19.3004  -15.8156 O   0  0  0  0  0  0  0  0  0  0  0  0
   24.1837  -20.6721  -14.1152 N   0  0  0  0  0  0  0  0  0  0  0  0
   22.7754  -20.8551  -13.6610 C   0  0  1  0  0  0  0  0  0  0  0  0
   22.6634  -20.2682  -12.2845 C   0  0  0  0  0  0  0  0  0  0  0  0
   23.7855  -20.6320  -11.3968 C   0  0  0  0  0  0  0  0  0  0  0  0
   24.9508  -21.3263  -11.6146 C   0  0  0  0  0  0  0  0  0  0  0  0
   25.7084  -21.3346  -10.4778 N   0  0  0  0  0  0  0  0  0  0  0  0
   25.0216  -20.6558   -9.5769 C   0  0  0  0  0  0  0  0  0  0  0  0
   23.8670  -20.2192  -10.0874 N   0  0  0  0  0  0  0  0  0  0  0  0
   21.9573  -20.0945  -14.6469 C   0  0  0  0  0  0  0  0  0  0  0  0
   22.1160  -18.7038  -14.7020 O   0  0  0  0  0  0  0  0  0  0  0  0
   21.1521  -20.6166  -15.4141 O   0  0  0  0  0  0  0  0  0  0  0  0
  1  5  1  0
  1  2  1  0
  2  3  1  0
  4  3  1  0
  5  4  1  0
  6  7  2  0
  5  6  1  6
  8  6  1  0
  9 10  1  6
  9  8  1  0
 11 12  1  0
 11 10  1  0
 13 14  1  0
 13 12  1  0
 15  9  1  0
 16 15  2  0
 17 15  1  0
 18 17  1  0
 19 20  1  0
 18 19  1  1
 20 21  2  0
 22 21  1  0
 23 22  1  0
 24 23  2  0
 24 20  1  0
 25 26  1  0
 25 18  1  0
 27 25  2  0
M  END
$$$$
