PKH.pdb
     RDKit          3D

 27 28  0  0  1  0  0  0  0  0999 V2000
   27.3591  -19.6613  -15.8736 N   0  0  0  0  0  0  0  0  0  0  0  0
   28.6485  -19.4900  -16.5136 C   0  0  0  0  0  0  0  0  0  0  0  0
   29.3847  -20.8024  -16.3853 C   0  0  0  0  0  0  0  0  0  0  0  0
   28.5692  -21.5264  -15.3348 C   0  0  0  0  0  0  0  0  0  0  0  0
   27.1595  -21.0633  -15.6926 C   0  0  1  0  0  0  0  0  0  0  0  0
   26.1596  -21.4353  -14.6943 C   0  0  0  0  0  0  0  0  0  0  0  0
   25.7314  -22.6319  -14.7335 O   0  0  0  0  0  0  0  0  0  0  0  0
   25.6389  -20.5758  -13.7008 N   0  0  0  0  0  0  0  0  0  0  0  0
   24.6259  -21.0455  -12.7938 C   0  0  1  0  0  0  0  0  0  0  0  0
   24.9641  -20.6813  -11.3621 C   0  0  0  0  0  0  0  0  0  0  0  0
   23.8918  -21.1883  -10.4271 C   0  0  0  0  0  0  0  0  0  0  0  0
   24.2728  -20.7495   -9.0262 C   0  0  0  0  0  0  0  0  0  0  0  0
   23.2174  -21.2428   -8.0378 C   0  0  0  0  0  0  0  0  0  0  0  0
   23.4753  -20.7365   -6.7039 N   0  0  0  0  0  0  0  0  0  0  0  0
   23.3217  -20.4460  -13.1989 C   0  0  0  0  0  0  0  0  0  0  0  0
   23.1234  -19.2033  -13.1726 O   0  0  0  0  0  0  0  0  0  0  0  0
   22.2509  -21.2711  -13.6321 N   0  0  0  0  0  0  0  0  0  0  0  0
   20.9591  -20.6469  -14.0383 C   0  0  1  0  0  0  0  0  0  0  0  0
   20.4616  -21.3819  -15.2482 C   0  0  0  0  0  0  0  0  0  0  0  0
   19.1464  -20.9094  -15.7240 C   0  0  0  0  0  0  0  0  0  0  0  0
   18.7568  -19.7742  -16.3925 C   0  0  0  0  0  0  0  0  0  0  0  0
   17.4217  -19.8342  -16.6755 N   0  0  0  0  0  0  0  0  0  0  0  0
   16.9977  -20.9873  -16.1907 C   0  0  0  0  0  0  0  0  0  0  0  0
   17.9984  -21.6590  -15.6148 N   0  0  0  0  0  0  0  0  0  0  0  0
   20.0574  -20.8467  -12.8691 C   0  0  0  0  0  0  0  0  0  0  0  0
   20.2421  -21.9906  -12.0821 O   0  0  0  0  0  0  0  0  0  0  0  0
   19.1618  -20.0663  -12.5557 O   0  0  0  0  0  0  0  0  0  0  0  0
  1  5  1  0
  1  2  1  0
  2  3  1  0
  4  3  1  0
  5  4  1  0
  6  7  2  0
  5  6  1  1
  8  6  1  0
  9 10  1  1
  9  8  1  0
 11 12  1  0
 11 10  1  0
 13 14  1  0
 13 12  1  0
 15  9  1  0
 16 15  2  0
 17 15  1  0
 18 17  1  0
 19 20  1  0
 18 19  1  6
 20 21  2  0
 22 21  1  0
 23 22  1  0
 24 23  2  0
 24 20  1  0
 25 26  1  0
 25 18  1  0
 27 25  2  0
M  END
$$$$
