PKH.pdb
     RDKit          3D

 27 28  0  0  1  0  0  0  0  0999 V2000
   27.7279  -19.2512  -15.2577 N   0  0  0  0  0  0  0  0  0  0  0  0
   29.0518  -19.0969  -15.8276 C   0  0  0  0  0  0  0  0  0  0  0  0
   29.6635  -20.4754  -15.9073 C   0  0  0  0  0  0  0  0  0  0  0  0
   28.7460  -21.2854  -15.0157 C   0  0  0  0  0  0  0  0  0  0  0  0
   27.3982  -20.6387  -15.3234 C   0  0  1  0  0  0  0  0  0  0  0  0
   26.3303  -21.0773  -14.4277 C   0  0  0  0  0  0  0  0  0  0  0  0
   25.9615  -22.2898  -14.5297 O   0  0  0  0  0  0  0  0  0  0  0  0
   25.6844  -20.2651  -13.4684 N   0  0  0  0  0  0  0  0  0  0  0  0
   24.6324  -20.8064  -12.6501 C   0  0  1  0  0  0  0  0  0  0  0  0
   24.9081  -20.5685  -11.1790 C   0  0  0  0  0  0  0  0  0  0  0  0
   23.8217  -21.1935  -10.3363 C   0  0  0  0  0  0  0  0  0  0  0  0
   24.1785  -20.9418   -8.8839 C   0  0  0  0  0  0  0  0  0  0  0  0
   23.1803  -21.6697   -7.9850 C   0  0  0  0  0  0  0  0  0  0  0  0
   23.4396  -21.3917   -6.5859 N   0  0  0  0  0  0  0  0  0  0  0  0
   23.3476  -20.1681  -13.0583 C   0  0  0  0  0  0  0  0  0  0  0  0
   23.1789  -18.9217  -13.0106 O   0  0  0  0  0  0  0  0  0  0  0  0
   22.2625  -20.9588  -13.5188 N   0  0  0  0  0  0  0  0  0  0  0  0
   21.0442  -20.2916  -14.0611 C   0  0  1  0  0  0  0  0  0  0  0  0
   20.8798  -20.7366  -15.4847 C   0  0  0  0  0  0  0  0  0  0  0  0
   21.8437  -20.1111  -16.4116 C   0  0  0  0  0  0  0  0  0  0  0  0
   22.7812  -19.1211  -16.2433 C   0  0  0  0  0  0  0  0  0  0  0  0
   23.4858  -18.9441  -17.4002 N   0  0  0  0  0  0  0  0  0  0  0  0
   22.9913  -19.8115  -18.2647 C   0  0  0  0  0  0  0  0  0  0  0  0
   22.0085  -20.5277  -17.7119 N   0  0  0  0  0  0  0  0  0  0  0  0
   19.9294  -20.7830  -13.2033 C   0  0  0  0  0  0  0  0  0  0  0  0
   18.7075  -20.1001  -13.2550 O   0  0  0  0  0  0  0  0  0  0  0  0
   20.0201  -21.7523  -12.4539 O   0  0  0  0  0  0  0  0  0  0  0  0
  1  5  1  0
  1  2  1  0
  2  3  1  0
  4  3  1  0
  5  4  1  0
  6  7  2  0
  5  6  1  1
  8  6  1  0
  9 10  1  1
  9  8  1  0
 11 12  1  0
 11 10  1  0
 13 14  1  0
 13 12  1  0
 15  9  1  0
 16 15  2  0
 17 15  1  0
 18 17  1  0
 19 20  1  0
 18 19  1  6
 20 21  2  0
 22 21  1  0
 23 22  1  0
 24 23  2  0
 24 20  1  0
 25 26  1  0
 25 18  1  0
 27 25  2  0
M  END
$$$$
