PKH.pdb
     RDKit          3D

 27 28  0  0  1  0  0  0  0  0999 V2000
   25.0655  -14.6432  -15.1381 N   0  0  0  0  0  0  0  0  0  0  0  0
   26.1661  -13.7207  -15.3358 C   0  0  0  0  0  0  0  0  0  0  0  0
   26.8817  -14.1481  -16.5952 C   0  0  0  0  0  0  0  0  0  0  0  0
   26.3274  -15.5386  -16.8230 C   0  0  0  0  0  0  0  0  0  0  0  0
   24.8838  -15.3538  -16.3629 C   0  0  1  0  0  0  0  0  0  0  0  0
   24.1459  -16.6108  -16.2604 C   0  0  0  0  0  0  0  0  0  0  0  0
   23.3946  -16.9133  -17.2407 O   0  0  0  0  0  0  0  0  0  0  0  0
   24.2035  -17.5045  -15.1673 N   0  0  0  0  0  0  0  0  0  0  0  0
   23.4781  -18.7461  -15.2066 C   0  0  1  0  0  0  0  0  0  0  0  0
   24.4157  -19.9300  -15.0795 C   0  0  0  0  0  0  0  0  0  0  0  0
   23.6407  -21.2227  -15.1775 C   0  0  0  0  0  0  0  0  0  0  0  0
   24.6355  -22.3563  -15.0180 C   0  0  0  0  0  0  0  0  0  0  0  0
   23.9087  -23.6914  -15.1714 C   0  0  0  0  0  0  0  0  0  0  0  0
   24.8185  -24.8047  -14.9844 N   0  0  0  0  0  0  0  0  0  0  0  0
   22.4799  -18.7394  -14.0984 C   0  0  0  0  0  0  0  0  0  0  0  0
   22.8075  -18.4900  -12.9090 O   0  0  0  0  0  0  0  0  0  0  0  0
   21.1122  -19.0180  -14.3564 N   0  0  0  0  0  0  0  0  0  0  0  0
   20.1154  -18.8926  -13.2546 C   0  0  1  0  0  0  0  0  0  0  0  0
   20.0321  -17.4414  -12.8823 C   0  0  0  0  0  0  0  0  0  0  0  0
   19.6367  -16.5678  -14.0048 C   0  0  0  0  0  0  0  0  0  0  0  0
   19.3565  -16.8260  -15.3247 C   0  0  0  0  0  0  0  0  0  0  0  0
   18.9627  -15.6778  -15.9514 N   0  0  0  0  0  0  0  0  0  0  0  0
   18.9985  -14.7300  -15.0324 C   0  0  0  0  0  0  0  0  0  0  0  0
   19.3960  -15.2219  -13.8558 N   0  0  0  0  0  0  0  0  0  0  0  0
   18.8362  -19.3793  -13.8436 C   0  0  0  0  0  0  0  0  0  0  0  0
   17.7057  -19.4257  -13.0178 O   0  0  0  0  0  0  0  0  0  0  0  0
   18.7159  -19.7419  -15.0113 O   0  0  0  0  0  0  0  0  0  0  0  0
  1  5  1  0
  1  2  1  0
  2  3  1  0
  4  3  1  0
  5  4  1  0
  6  7  2  0
  5  6  1  1
  8  6  1  0
  9 10  1  1
  9  8  1  0
 11 12  1  0
 11 10  1  0
 13 14  1  0
 13 12  1  0
 15  9  1  0
 16 15  2  0
 17 15  1  0
 18 17  1  0
 19 20  1  0
 18 19  1  6
 20 21  2  0
 22 21  1  0
 23 22  1  0
 24 23  2  0
 24 20  1  0
 25 26  1  0
 25 18  1  0
 27 25  2  0
M  END
$$$$
