PKH.pdb
     RDKit          3D

 27 28  0  0  1  0  0  0  0  0999 V2000
   24.0860  -15.3239  -18.7114 N   0  0  0  0  0  0  0  0  0  0  0  0
   24.7186  -14.5924  -19.7913 C   0  0  0  0  0  0  0  0  0  0  0  0
   24.7033  -15.4919  -21.0044 C   0  0  0  0  0  0  0  0  0  0  0  0
   24.3740  -16.8405  -20.3996 C   0  0  0  0  0  0  0  0  0  0  0  0
   23.4025  -16.4331  -19.2952 C   0  0  1  0  0  0  0  0  0  0  0  0
   23.0766  -17.5260  -18.3818 C   0  0  0  0  0  0  0  0  0  0  0  0
   22.3834  -18.4800  -18.8573 O   0  0  0  0  0  0  0  0  0  0  0  0
   23.4690  -17.6015  -17.0263 N   0  0  0  0  0  0  0  0  0  0  0  0
   23.0532  -18.7120  -16.2118 C   0  0  1  0  0  0  0  0  0  0  0  0
   24.1067  -19.0546  -15.1776 C   0  0  0  0  0  0  0  0  0  0  0  0
   23.6406  -20.2066  -14.3192 C   0  0  0  0  0  0  0  0  0  0  0  0
   24.7325  -20.4803  -13.3028 C   0  0  0  0  0  0  0  0  0  0  0  0
   24.2399  -21.5234  -12.3009 C   0  0  0  0  0  0  0  0  0  0  0  0
   25.3005  -21.9167  -11.3940 N   0  0  0  0  0  0  0  0  0  0  0  0
   21.7633  -18.3525  -15.5549 C   0  0  0  0  0  0  0  0  0  0  0  0
   21.4800  -17.1648  -15.2496 O   0  0  0  0  0  0  0  0  0  0  0  0
   20.8040  -19.3537  -15.2507 N   0  0  0  0  0  0  0  0  0  0  0  0
   19.3916  -18.9607  -14.9789 C   0  0  1  0  0  0  0  0  0  0  0  0
   18.8700  -18.2694  -16.2043 C   0  0  0  0  0  0  0  0  0  0  0  0
   17.4369  -17.9248  -16.1202 C   0  0  0  0  0  0  0  0  0  0  0  0
   16.5136  -18.0446  -15.1100 C   0  0  0  0  0  0  0  0  0  0  0  0
   15.3196  -17.5096  -15.5032 N   0  0  0  0  0  0  0  0  0  0  0  0
   15.5059  -17.0669  -16.7334 C   0  0  0  0  0  0  0  0  0  0  0  0
   16.7582  -17.2960  -17.1378 N   0  0  0  0  0  0  0  0  0  0  0  0
   18.6808  -20.2470  -14.7335 C   0  0  0  0  0  0  0  0  0  0  0  0
   17.7593  -20.3005  -13.6799 O   0  0  0  0  0  0  0  0  0  0  0  0
   18.8562  -21.2629  -15.4019 O   0  0  0  0  0  0  0  0  0  0  0  0
  1  5  1  0
  1  2  1  0
  2  3  1  0
  4  3  1  0
  5  4  1  0
  6  7  2  0
  5  6  1  1
  8  6  1  0
  9 10  1  1
  9  8  1  0
 11 12  1  0
 11 10  1  0
 13 14  1  0
 13 12  1  0
 15  9  1  0
 16 15  2  0
 17 15  1  0
 18 17  1  0
 19 20  1  0
 18 19  1  6
 20 21  2  0
 22 21  1  0
 23 22  1  0
 24 23  2  0
 24 20  1  0
 25 26  1  0
 25 18  1  0
 27 25  2  0
M  END
$$$$
