PKH.pdb
     RDKit          3D

 27 28  0  0  1  0  0  0  0  0999 V2000
   23.9857  -12.8177  -16.4785 N   0  0  0  0  0  0  0  0  0  0  0  0
   24.6344  -14.1136  -16.5144 C   0  0  0  0  0  0  0  0  0  0  0  0
   24.6792  -14.5467  -17.9605 C   0  0  0  0  0  0  0  0  0  0  0  0
   23.6997  -13.5931  -18.6115 C   0  0  0  0  0  0  0  0  0  0  0  0
   23.9646  -12.3179  -17.8156 C   0  0  1  0  0  0  0  0  0  0  0  0
   22.9910  -11.2608  -18.0795 C   0  0  0  0  0  0  0  0  0  0  0  0
   23.0324  -10.7208  -19.2300 O   0  0  0  0  0  0  0  0  0  0  0  0
   22.0190  -10.7990  -17.1636 N   0  0  0  0  0  0  0  0  0  0  0  0
   21.0304   -9.8396  -17.5777 C   0  0  1  0  0  0  0  0  0  0  0  0
   19.6283  -10.3637  -17.3402 C   0  0  0  0  0  0  0  0  0  0  0  0
   19.2112  -11.2713  -18.4731 C   0  0  0  0  0  0  0  0  0  0  0  0
   17.8189  -11.7799  -18.1523 C   0  0  0  0  0  0  0  0  0  0  0  0
   17.3792  -12.7648  -19.2344 C   0  0  0  0  0  0  0  0  0  0  0  0
   16.0205  -13.2166  -19.0069 N   0  0  0  0  0  0  0  0  0  0  0  0
   21.2591   -8.5759  -16.8190 C   0  0  0  0  0  0  0  0  0  0  0  0
   21.4822   -8.5743  -15.5803 O   0  0  0  0  0  0  0  0  0  0  0  0
   21.2314   -7.3207  -17.4813 N   0  0  0  0  0  0  0  0  0  0  0  0
   21.5062   -6.0753  -16.7088 C   0  0  1  0  0  0  0  0  0  0  0  0
   22.3432   -5.1805  -17.5749 C   0  0  0  0  0  0  0  0  0  0  0  0
   23.7390   -5.6394  -17.7192 C   0  0  0  0  0  0  0  0  0  0  0  0
   24.4321   -6.6857  -17.1604 C   0  0  0  0  0  0  0  0  0  0  0  0
   25.6974   -6.7340  -17.6731 N   0  0  0  0  0  0  0  0  0  0  0  0
   25.7806   -5.7357  -18.5336 C   0  0  0  0  0  0  0  0  0  0  0  0
   24.6308   -5.0581  -18.5901 N   0  0  0  0  0  0  0  0  0  0  0  0
   20.1626   -5.4847  -16.4515 C   0  0  0  0  0  0  0  0  0  0  0  0
   20.0716   -4.4259  -15.5390 O   0  0  0  0  0  0  0  0  0  0  0  0
   19.1305   -5.8726  -16.9936 O   0  0  0  0  0  0  0  0  0  0  0  0
  1  5  1  0
  1  2  1  0
  2  3  1  0
  4  3  1  0
  5  4  1  0
  6  7  2  0
  5  6  1  1
  8  6  1  0
  9 10  1  1
  9  8  1  0
 11 12  1  0
 11 10  1  0
 13 14  1  0
 13 12  1  0
 15  9  1  0
 16 15  2  0
 17 15  1  0
 18 17  1  0
 19 20  1  0
 18 19  1  6
 20 21  2  0
 22 21  1  0
 23 22  1  0
 24 23  2  0
 24 20  1  0
 25 26  1  0
 25 18  1  0
 27 25  2  0
M  END
$$$$
