PKH.pdb
     RDKit          3D

 27 28  0  0  1  0  0  0  0  0999 V2000
   27.4705  -16.8067  -18.0409 N   0  0  0  0  0  0  0  0  0  0  0  0
   28.6029  -16.0825  -18.5834 C   0  0  0  0  0  0  0  0  0  0  0  0
   29.8224  -16.9498  -18.3795 C   0  0  0  0  0  0  0  0  0  0  0  0
   29.3239  -17.9752  -17.3832 C   0  0  0  0  0  0  0  0  0  0  0  0
   27.8840  -18.1604  -17.8542 C   0  0  1  0  0  0  0  0  0  0  0  0
   27.0714  -18.9473  -16.9292 C   0  0  0  0  0  0  0  0  0  0  0  0
   26.9476  -20.1857  -17.1896 O   0  0  0  0  0  0  0  0  0  0  0  0
   26.4206  -18.4417  -15.7813 N   0  0  0  0  0  0  0  0  0  0  0  0
   25.6479  -19.3171  -14.9410 C   0  0  1  0  0  0  0  0  0  0  0  0
   26.0852  -19.2106  -13.4938 C   0  0  0  0  0  0  0  0  0  0  0  0
   25.2205  -20.0892  -12.6211 C   0  0  0  0  0  0  0  0  0  0  0  0
   25.7428  -19.9666  -11.2025 C   0  0  0  0  0  0  0  0  0  0  0  0
   24.9028  -20.8457  -10.2773 C   0  0  0  0  0  0  0  0  0  0  0  0
   25.2847  -20.6580   -8.8914 N   0  0  0  0  0  0  0  0  0  0  0  0
   24.2085  -18.9549  -15.0875 C   0  0  0  0  0  0  0  0  0  0  0  0
   23.7997  -17.7748  -14.9310 O   0  0  0  0  0  0  0  0  0  0  0  0
   23.2441  -19.9446  -15.4123 N   0  0  0  0  0  0  0  0  0  0  0  0
   21.8024  -19.5710  -15.4845 C   0  0  1  0  0  0  0  0  0  0  0  0
   21.2418  -20.1693  -16.7412 C   0  0  0  0  0  0  0  0  0  0  0  0
   19.7986  -19.9152  -16.9208 C   0  0  0  0  0  0  0  0  0  0  0  0
   18.6797  -20.5814  -16.4832 C   0  0  0  0  0  0  0  0  0  0  0  0
   17.5556  -19.9003  -16.8556 N   0  0  0  0  0  0  0  0  0  0  0  0
   17.9759  -18.8327  -17.5096 C   0  0  0  0  0  0  0  0  0  0  0  0
   19.3101  -18.8053  -17.5697 N   0  0  0  0  0  0  0  0  0  0  0  0
   21.1916  -20.1808  -14.2699 C   0  0  0  0  0  0  0  0  0  0  0  0
   20.0696  -19.5553  -13.7113 O   0  0  0  0  0  0  0  0  0  0  0  0
   21.6150  -21.2003  -13.7306 O   0  0  0  0  0  0  0  0  0  0  0  0
  1  5  1  0
  1  2  1  0
  2  3  1  0
  4  3  1  0
  5  4  1  0
  6  7  2  0
  5  6  1  1
  8  6  1  0
  9 10  1  1
  9  8  1  0
 11 12  1  0
 11 10  1  0
 13 14  1  0
 13 12  1  0
 15  9  1  0
 16 15  2  0
 17 15  1  0
 18 17  1  0
 19 20  1  0
 18 19  1  6
 20 21  2  0
 22 21  1  0
 23 22  1  0
 24 23  2  0
 24 20  1  0
 25 26  1  0
 25 18  1  0
 27 25  2  0
M  END
$$$$
