PKH.pdb
     RDKit          3D

 27 28  0  0  1  0  0  0  0  0999 V2000
   27.5825  -25.0993  -16.4968 N   0  0  0  0  0  0  0  0  0  0  0  0
   28.7513  -25.9245  -16.7301 C   0  0  0  0  0  0  0  0  0  0  0  0
   28.2613  -27.2387  -17.2901 C   0  0  0  0  0  0  0  0  0  0  0  0
   26.7793  -27.1850  -16.9846 C   0  0  0  0  0  0  0  0  0  0  0  0
   26.4933  -25.7008  -17.1970 C   0  0  1  0  0  0  0  0  0  0  0  0
   25.1597  -25.3012  -16.7536 C   0  0  0  0  0  0  0  0  0  0  0  0
   24.2665  -25.1973  -17.6526 O   0  0  0  0  0  0  0  0  0  0  0  0
   24.7924  -25.0248  -15.4173 N   0  0  0  0  0  0  0  0  0  0  0  0
   23.4308  -24.6920  -15.0935 C   0  0  1  0  0  0  0  0  0  0  0  0
   22.9122  -25.5562  -13.9617 C   0  0  0  0  0  0  0  0  0  0  0  0
   21.4198  -25.7479  -14.0927 C   0  0  0  0  0  0  0  0  0  0  0  0
   20.9858  -26.6749  -12.9735 C   0  0  0  0  0  0  0  0  0  0  0  0
   19.4617  -26.7815  -12.9685 C   0  0  0  0  0  0  0  0  0  0  0  0
   19.0047  -27.6682  -11.9163 N   0  0  0  0  0  0  0  0  0  0  0  0
   23.3781  -23.2478  -14.7243 C   0  0  0  0  0  0  0  0  0  0  0  0
   24.1391  -22.7558  -13.8509 O   0  0  0  0  0  0  0  0  0  0  0  0
   22.4549  -22.3740  -15.3561 N   0  0  0  0  0  0  0  0  0  0  0  0
   22.4512  -20.9259  -15.0005 C   0  0  1  0  0  0  0  0  0  0  0  0
   21.9136  -20.1711  -16.1807 C   0  0  0  0  0  0  0  0  0  0  0  0
   21.6928  -18.7366  -15.9106 C   0  0  0  0  0  0  0  0  0  0  0  0
   21.9364  -17.9539  -14.8081 C   0  0  0  0  0  0  0  0  0  0  0  0
   21.6212  -16.6529  -15.0807 N   0  0  0  0  0  0  0  0  0  0  0  0
   21.1927  -16.6354  -16.3298 C   0  0  0  0  0  0  0  0  0  0  0  0
   21.2208  -17.8610  -16.8604 N   0  0  0  0  0  0  0  0  0  0  0  0
   21.5385  -20.8262  -13.8271 C   0  0  0  0  0  0  0  0  0  0  0  0
   21.7791  -19.8144  -12.8888 O   0  0  0  0  0  0  0  0  0  0  0  0
   20.5873  -21.5799  -13.6352 O   0  0  0  0  0  0  0  0  0  0  0  0
  1  5  1  0
  1  2  1  0
  2  3  1  0
  4  3  1  0
  5  4  1  0
  6  7  2  0
  5  6  1  1
  8  6  1  0
  9 10  1  1
  9  8  1  0
 11 12  1  0
 11 10  1  0
 13 14  1  0
 13 12  1  0
 15  9  1  0
 16 15  2  0
 17 15  1  0
 18 17  1  0
 19 20  1  0
 18 19  1  6
 20 21  2  0
 22 21  1  0
 23 22  1  0
 24 23  2  0
 24 20  1  0
 25 26  1  0
 25 18  1  0
 27 25  2  0
M  END
$$$$
