PKH.pdb
     RDKit          3D

 27 28  0  0  1  0  0  0  0  0999 V2000
   26.4219  -15.8171  -17.8109 N   0  0  0  0  0  0  0  0  0  0  0  0
   27.2190  -14.9429  -18.6486 C   0  0  0  0  0  0  0  0  0  0  0  0
   27.4035  -15.6452  -19.9728 C   0  0  0  0  0  0  0  0  0  0  0  0
   26.9845  -17.0629  -19.6452 C   0  0  0  0  0  0  0  0  0  0  0  0
   25.8455  -16.8083  -18.6616 C   0  0  1  0  0  0  0  0  0  0  0  0
   25.3791  -18.0208  -17.9930 C   0  0  0  0  0  0  0  0  0  0  0  0
   24.7105  -18.8406  -18.6985 O   0  0  0  0  0  0  0  0  0  0  0  0
   25.6122  -18.3469  -16.6379 N   0  0  0  0  0  0  0  0  0  0  0  0
   25.1851  -19.6167  -16.1137 C   0  0  1  0  0  0  0  0  0  0  0  0
   26.3436  -20.3652  -15.4857 C   0  0  0  0  0  0  0  0  0  0  0  0
   27.3083  -20.8250  -16.5530 C   0  0  0  0  0  0  0  0  0  0  0  0
   27.9937  -22.0735  -16.0317 C   0  0  0  0  0  0  0  0  0  0  0  0
   28.8877  -22.6534  -17.1265 C   0  0  0  0  0  0  0  0  0  0  0  0
   29.7682  -23.6747  -16.5939 N   0  0  0  0  0  0  0  0  0  0  0  0
   24.1082  -19.3701  -15.1117 C   0  0  0  0  0  0  0  0  0  0  0  0
   24.3066  -18.6816  -14.0769 O   0  0  0  0  0  0  0  0  0  0  0  0
   22.8098  -19.9125  -15.2986 N   0  0  0  0  0  0  0  0  0  0  0  0
   21.7438  -19.6317  -14.2945 C   0  0  1  0  0  0  0  0  0  0  0  0
   20.5560  -19.0900  -15.0343 C   0  0  0  0  0  0  0  0  0  0  0  0
   20.7772  -17.7428  -15.5961 C   0  0  0  0  0  0  0  0  0  0  0  0
   21.5115  -16.6668  -15.1597 C   0  0  0  0  0  0  0  0  0  0  0  0
   21.4558  -15.6594  -16.0808 N   0  0  0  0  0  0  0  0  0  0  0  0
   20.7015  -16.1087  -17.0675 C   0  0  0  0  0  0  0  0  0  0  0  0
   20.2771  -17.3500  -16.8156 N   0  0  0  0  0  0  0  0  0  0  0  0
   21.4458  -20.9550  -13.6779 C   0  0  0  0  0  0  0  0  0  0  0  0
   22.1070  -22.0817  -14.1834 O   0  0  0  0  0  0  0  0  0  0  0  0
   20.6542  -21.1146  -12.7520 O   0  0  0  0  0  0  0  0  0  0  0  0
  1  5  1  0
  1  2  1  0
  2  3  1  0
  4  3  1  0
  5  4  1  0
  6  7  2  0
  5  6  1  1
  8  6  1  0
  9 10  1  1
  9  8  1  0
 11 12  1  0
 11 10  1  0
 13 14  1  0
 13 12  1  0
 15  9  1  0
 16 15  2  0
 17 15  1  0
 18 17  1  0
 19 20  1  0
 18 19  1  6
 20 21  2  0
 22 21  1  0
 23 22  1  0
 24 23  2  0
 24 20  1  0
 25 26  1  0
 25 18  1  0
 27 25  2  0
M  END
$$$$
