PKH.pdb
     RDKit          3D

 27 28  0  0  1  0  0  0  0  0999 V2000
   26.5102  -21.0138  -15.8188 N   0  0  0  0  0  0  0  0  0  0  0  0
   27.8945  -20.9187  -16.2382 C   0  0  0  0  0  0  0  0  0  0  0  0
   28.5586  -19.8969  -15.3461 C   0  0  0  0  0  0  0  0  0  0  0  0
   27.3710  -19.2105  -14.7051 C   0  0  0  0  0  0  0  0  0  0  0  0
   26.4113  -20.3859  -14.5404 C   0  0  1  0  0  0  0  0  0  0  0  0
   25.0665  -19.9804  -14.1381 C   0  0  0  0  0  0  0  0  0  0  0  0
   24.9611  -19.3795  -13.0226 O   0  0  0  0  0  0  0  0  0  0  0  0
   23.8886  -20.2032  -14.8864 N   0  0  0  0  0  0  0  0  0  0  0  0
   22.6280  -19.6855  -14.4257 C   0  0  1  0  0  0  0  0  0  0  0  0
   21.9032  -18.9482  -15.5339 C   0  0  0  0  0  0  0  0  0  0  0  0
   22.6954  -17.7346  -15.9588 C   0  0  0  0  0  0  0  0  0  0  0  0
   21.8781  -17.0102  -17.0111 C   0  0  0  0  0  0  0  0  0  0  0  0
   22.6379  -15.7681  -17.4741 C   0  0  0  0  0  0  0  0  0  0  0  0
   21.8448  -14.9886  -18.4044 N   0  0  0  0  0  0  0  0  0  0  0  0
   21.8089  -20.8270  -13.9250 C   0  0  0  0  0  0  0  0  0  0  0  0
   21.6076  -21.8571  -14.6196 O   0  0  0  0  0  0  0  0  0  0  0  0
   21.2244  -20.7843  -12.6321 N   0  0  0  0  0  0  0  0  0  0  0  0
   20.4745  -21.9688  -12.1244 C   0  0  1  0  0  0  0  0  0  0  0  0
   20.6047  -21.9808  -10.6296 C   0  0  0  0  0  0  0  0  0  0  0  0
   19.8212  -23.0498   -9.9794 C   0  0  0  0  0  0  0  0  0  0  0  0
   19.0059  -24.0356  -10.4804 C   0  0  0  0  0  0  0  0  0  0  0  0
   18.5611  -24.8341   -9.4650 N   0  0  0  0  0  0  0  0  0  0  0  0
   19.0950  -24.3487   -8.3588 C   0  0  0  0  0  0  0  0  0  0  0  0
   19.8548  -23.2826   -8.6243 N   0  0  0  0  0  0  0  0  0  0  0  0
   19.0651  -21.7350  -12.5477 C   0  0  0  0  0  0  0  0  0  0  0  0
   18.2855  -22.8480  -12.8875 O   0  0  0  0  0  0  0  0  0  0  0  0
   18.5477  -20.6227  -12.6156 O   0  0  0  0  0  0  0  0  0  0  0  0
  1  5  1  0
  1  2  1  0
  2  3  1  0
  4  3  1  0
  5  4  1  0
  6  7  2  0
  5  6  1  6
  8  6  1  0
  9 10  1  6
  9  8  1  0
 11 12  1  0
 11 10  1  0
 13 14  1  0
 13 12  1  0
 15  9  1  0
 16 15  2  0
 17 15  1  0
 18 17  1  0
 19 20  1  0
 18 19  1  1
 20 21  2  0
 22 21  1  0
 23 22  1  0
 24 23  2  0
 24 20  1  0
 25 26  1  0
 25 18  1  0
 27 25  2  0
M  END
$$$$
