PKH.pdb
     RDKit          3D

 27 28  0  0  1  0  0  0  0  0999 V2000
   26.5541  -21.0155  -15.9761 N   0  0  0  0  0  0  0  0  0  0  0  0
   27.8973  -20.9022  -16.5093 C   0  0  0  0  0  0  0  0  0  0  0  0
   28.5689  -19.7628  -15.7801 C   0  0  0  0  0  0  0  0  0  0  0  0
   27.3960  -19.0675  -15.1218 C   0  0  0  0  0  0  0  0  0  0  0  0
   26.5149  -20.2615  -14.7644 C   0  0  1  0  0  0  0  0  0  0  0  0
   25.1831  -19.8776  -14.3021 C   0  0  0  0  0  0  0  0  0  0  0  0
   25.1244  -19.2087  -13.2223 O   0  0  0  0  0  0  0  0  0  0  0  0
   23.9703  -20.1899  -14.9568 N   0  0  0  0  0  0  0  0  0  0  0  0
   22.7158  -19.7476  -14.4091 C   0  0  1  0  0  0  0  0  0  0  0  0
   21.9023  -18.9978  -15.4449 C   0  0  0  0  0  0  0  0  0  0  0  0
   22.7159  -18.7948  -16.7010 C   0  0  0  0  0  0  0  0  0  0  0  0
   21.7997  -18.1666  -17.7335 C   0  0  0  0  0  0  0  0  0  0  0  0
   22.5415  -18.0523  -19.0642 C   0  0  0  0  0  0  0  0  0  0  0  0
   21.6478  -17.6289  -20.1245 N   0  0  0  0  0  0  0  0  0  0  0  0
   21.9732  -20.9437  -13.9167 C   0  0  0  0  0  0  0  0  0  0  0  0
   22.0176  -22.0487  -14.5177 O   0  0  0  0  0  0  0  0  0  0  0  0
   21.1837  -20.8697  -12.7394 N   0  0  0  0  0  0  0  0  0  0  0  0
   20.4750  -22.0873  -12.2511 C   0  0  1  0  0  0  0  0  0  0  0  0
   20.4848  -22.0463  -10.7512 C   0  0  0  0  0  0  0  0  0  0  0  0
   19.6162  -23.0652  -10.1292 C   0  0  0  0  0  0  0  0  0  0  0  0
   18.9279  -24.1357  -10.6465 C   0  0  0  0  0  0  0  0  0  0  0  0
   18.3190  -24.8296   -9.6395 N   0  0  0  0  0  0  0  0  0  0  0  0
   18.6288  -24.1977   -8.5220 C   0  0  0  0  0  0  0  0  0  0  0  0
   19.4029  -23.1383   -8.7725 N   0  0  0  0  0  0  0  0  0  0  0  0
   19.0921  -21.9632  -12.7916 C   0  0  0  0  0  0  0  0  0  0  0  0
   18.6041  -20.6791  -13.0656 O   0  0  0  0  0  0  0  0  0  0  0  0
   18.3555  -22.9218  -13.0107 O   0  0  0  0  0  0  0  0  0  0  0  0
  1  5  1  0
  1  2  1  0
  2  3  1  0
  4  3  1  0
  5  4  1  0
  6  7  2  0
  5  6  1  6
  8  6  1  0
  9 10  1  6
  9  8  1  0
 11 12  1  0
 11 10  1  0
 13 14  1  0
 13 12  1  0
 15  9  1  0
 16 15  2  0
 17 15  1  0
 18 17  1  0
 19 20  1  0
 18 19  1  1
 20 21  2  0
 22 21  1  0
 23 22  1  0
 24 23  2  0
 24 20  1  0
 25 26  1  0
 25 18  1  0
 27 25  2  0
M  END
$$$$
