QKA.pdb
     RDKit          3D

 24 23  0  0  1  0  0  0  0  0999 V2000
   14.9819  -11.9101  -12.9405 N   0  0  0  0  0  0  0  0  0  0  0  0
   14.6576  -11.4108  -14.2174 C   0  0  0  0  0  0  0  0  0  0  0  0
   13.6559  -10.6579  -14.3349 O   0  0  0  0  0  0  0  0  0  0  0  0
   15.5008  -11.7781  -15.4114 C   0  0  0  0  0  0  0  0  0  0  0  0
   16.8803  -11.2141  -15.2130 C   0  0  0  0  0  0  0  0  0  0  0  0
   17.8234  -11.4607  -16.3310 C   0  0  2  0  0  0  0  0  0  0  0  0
   18.1755  -12.8680  -16.3210 N   0  0  0  0  0  0  0  0  0  0  0  0
   19.0667  -10.6662  -16.2957 C   0  0  0  0  0  0  0  0  0  0  0  0
   20.1570  -11.1176  -15.8593 O   0  0  0  0  0  0  0  0  0  0  0  0
   19.1104   -9.3080  -16.7642 N   0  0  0  0  0  0  0  0  0  0  0  0
   20.2932   -8.5117  -16.8106 C   0  0  1  0  0  0  0  0  0  0  0  0
   20.5092   -7.8339  -18.1484 C   0  0  0  0  0  0  0  0  0  0  0  0
   21.7762   -7.0186  -18.1841 C   0  0  0  0  0  0  0  0  0  0  0  0
   21.9050   -6.4899  -19.6079 C   0  0  0  0  0  0  0  0  0  0  0  0
   23.1741   -5.6936  -19.7893 C   0  0  0  0  0  0  0  0  0  0  0  0
   24.2873   -6.6244  -19.8010 N   0  0  0  0  0  0  0  0  0  0  0  0
   20.1099   -7.3966  -15.8134 C   0  0  0  0  0  0  0  0  0  0  0  0
   19.0176   -6.7809  -15.8129 O   0  0  0  0  0  0  0  0  0  0  0  0
   21.8285   -6.0037  -12.8052 C   0  0  0  0  0  0  0  0  0  0  0  0
   20.9007   -5.9155  -13.9937 C   0  0  2  0  0  0  0  0  0  0  0  0
   21.1065   -7.0295  -14.8983 N   0  0  0  0  0  0  0  0  0  0  0  0
   21.0749   -4.6472  -14.7404 C   0  0  0  0  0  0  0  0  0  0  0  0
   21.7844   -4.6121  -15.7765 O   0  0  0  0  0  0  0  0  0  0  0  0
   20.4751   -3.4627  -14.3393 O   0  0  0  0  0  0  0  0  0  0  0  0
  2  1  1  0
  2  3  2  0
  4  2  1  0
  5  4  1  0
  6  5  1  0
  6  8  1  0
  6  7  1  1
  8  9  2  0
 10  8  1  0
 10 11  1  0
 11 17  1  0
 11 12  1  6
 12 13  1  0
 13 14  1  0
 14 15  1  0
 16 15  1  0
 17 18  2  0
 20 19  1  1
 21 20  1  0
 21 17  1  0
 22 24  1  0
 22 20  1  0
 23 22  2  0
M  END
$$$$
