QKA.pdb
     RDKit          3D

 24 23  0  0  1  0  0  0  0  0999 V2000
   26.5817  -19.6767   -7.5998 N   0  0  0  0  0  0  0  0  0  0  0  0
   27.5751  -20.4929   -8.1757 C   0  0  0  0  0  0  0  0  0  0  0  0
   28.6088  -20.7500   -7.5055 O   0  0  0  0  0  0  0  0  0  0  0  0
   27.3922  -21.0414   -9.5676 C   0  0  0  0  0  0  0  0  0  0  0  0
   26.0266  -20.6494  -10.0594 C   0  0  0  0  0  0  0  0  0  0  0  0
   25.7249  -21.0525  -11.4546 C   0  0  2  0  0  0  0  0  0  0  0  0
   26.9183  -20.8421  -12.2522 N   0  0  0  0  0  0  0  0  0  0  0  0
   24.6031  -20.3350  -12.0911 C   0  0  0  0  0  0  0  0  0  0  0  0
   24.3533  -19.1214  -11.8730 O   0  0  0  0  0  0  0  0  0  0  0  0
   23.7135  -20.9869  -13.0128 N   0  0  0  0  0  0  0  0  0  0  0  0
   22.6298  -20.3397  -13.6776 C   0  0  1  0  0  0  0  0  0  0  0  0
   22.8602  -20.1558  -15.1639 C   0  0  0  0  0  0  0  0  0  0  0  0
   23.3431  -21.4169  -15.8331 C   0  0  0  0  0  0  0  0  0  0  0  0
   23.7022  -21.0319  -17.2634 C   0  0  0  0  0  0  0  0  0  0  0  0
   24.1368  -22.2333  -18.0669 C   0  0  0  0  0  0  0  0  0  0  0  0
   24.4471  -21.7828  -19.4109 N   0  0  0  0  0  0  0  0  0  0  0  0
   21.4360  -21.2522  -13.5599 C   0  0  0  0  0  0  0  0  0  0  0  0
   21.5664  -22.4429  -13.9305 O   0  0  0  0  0  0  0  0  0  0  0  0
   18.4497  -21.6896  -11.5965 C   0  0  0  0  0  0  0  0  0  0  0  0
   19.0812  -21.7364  -12.9677 C   0  0  2  0  0  0  0  0  0  0  0  0
   20.2010  -20.8201  -13.0565 N   0  0  0  0  0  0  0  0  0  0  0  0
   18.1075  -21.4159  -14.0380 C   0  0  0  0  0  0  0  0  0  0  0  0
   17.1849  -22.2207  -14.3196 O   0  0  0  0  0  0  0  0  0  0  0  0
   18.1670  -20.2363  -14.7651 O   0  0  0  0  0  0  0  0  0  0  0  0
  2  1  1  0
  2  3  2  0
  4  2  1  0
  5  4  1  0
  6  5  1  0
  6  8  1  0
  6  7  1  6
  8  9  2  0
 10  8  1  0
 10 11  1  0
 11 17  1  0
 11 12  1  6
 12 13  1  0
 13 14  1  0
 14 15  1  0
 16 15  1  0
 17 18  2  0
 20 19  1  1
 21 20  1  0
 21 17  1  0
 22 24  1  0
 22 20  1  0
 23 22  2  0
M  END
$$$$
