QKA.pdb
     RDKit          3D

 24 23  0  0  1  0  0  0  0  0999 V2000
   25.3397  -12.5595  -20.5655 N   0  0  0  0  0  0  0  0  0  0  0  0
   24.7677  -12.1141  -19.3575 C   0  0  0  0  0  0  0  0  0  0  0  0
   24.8603  -10.8950  -19.0589 O   0  0  0  0  0  0  0  0  0  0  0  0
   24.0615  -13.0876  -18.4491 C   0  0  0  0  0  0  0  0  0  0  0  0
   24.1173  -14.4526  -19.0768 C   0  0  0  0  0  0  0  0  0  0  0  0
   25.0662  -15.3966  -18.4375 C   0  0  2  0  0  0  0  0  0  0  0  0
   26.2124  -15.5457  -19.3142 N   0  0  0  0  0  0  0  0  0  0  0  0
   24.5227  -16.7371  -18.1442 C   0  0  0  0  0  0  0  0  0  0  0  0
   23.7108  -17.3287  -18.9015 O   0  0  0  0  0  0  0  0  0  0  0  0
   24.8921  -17.4605  -16.9584 N   0  0  0  0  0  0  0  0  0  0  0  0
   24.4974  -18.8031  -16.6806 C   0  0  1  0  0  0  0  0  0  0  0  0
   25.6153  -19.6522  -16.1102 C   0  0  0  0  0  0  0  0  0  0  0  0
   26.2941  -20.4934  -17.1604 C   0  0  0  0  0  0  0  0  0  0  0  0
   27.4151  -21.2428  -16.4499 C   0  0  0  0  0  0  0  0  0  0  0  0
   28.2161  -22.0833  -17.4140 C   0  0  0  0  0  0  0  0  0  0  0  0
   29.3216  -22.6718  -16.6811 N   0  0  0  0  0  0  0  0  0  0  0  0
   23.4456  -18.7364  -15.6032 C   0  0  0  0  0  0  0  0  0  0  0  0
   23.7484  -18.1859  -14.5181 O   0  0  0  0  0  0  0  0  0  0  0  0
   19.8722  -18.6212  -15.2025 C   0  0  0  0  0  0  0  0  0  0  0  0
   21.1829  -19.1792  -14.7008 C   0  0  2  0  0  0  0  0  0  0  0  0
   22.1570  -19.2622  -15.7713 N   0  0  0  0  0  0  0  0  0  0  0  0
   21.0179  -20.5201  -14.0916 C   0  0  0  0  0  0  0  0  0  0  0  0
   21.4473  -21.5431  -14.6810 O   0  0  0  0  0  0  0  0  0  0  0  0
   20.3943  -20.7060  -12.8667 O   0  0  0  0  0  0  0  0  0  0  0  0
  2  1  1  0
  2  3  2  0
  4  2  1  0
  5  4  1  0
  6  5  1  0
  6  8  1  0
  6  7  1  6
  8  9  2  0
 10  8  1  0
 10 11  1  0
 11 17  1  0
 11 12  1  1
 12 13  1  0
 13 14  1  0
 14 15  1  0
 16 15  1  0
 17 18  2  0
 20 19  1  6
 21 20  1  0
 21 17  1  0
 22 24  1  0
 22 20  1  0
 23 22  2  0
M  END
$$$$
