QKA.pdb
     RDKit          3D

 24 23  0  0  1  0  0  0  0  0999 V2000
   25.1568  -11.2497  -20.1467 N   0  0  0  0  0  0  0  0  0  0  0  0
   24.2394  -12.3145  -20.2436 C   0  0  0  0  0  0  0  0  0  0  0  0
   24.5254  -13.2928  -20.9820 O   0  0  0  0  0  0  0  0  0  0  0  0
   22.9444  -12.2715  -19.4737 C   0  0  0  0  0  0  0  0  0  0  0  0
   22.9920  -11.1065  -18.5245 C   0  0  0  0  0  0  0  0  0  0  0  0
   21.8179  -10.9834  -17.6264 C   0  0  2  0  0  0  0  0  0  0  0  0
   20.7965  -11.9024  -18.0918 N   0  0  0  0  0  0  0  0  0  0  0  0
   21.2287   -9.6331  -17.5383 C   0  0  0  0  0  0  0  0  0  0  0  0
   20.9358   -8.9452  -18.5503 O   0  0  0  0  0  0  0  0  0  0  0  0
   20.9486   -9.0107  -16.2733 N   0  0  0  0  0  0  0  0  0  0  0  0
   20.2369   -7.7835  -16.1217 C   0  0  1  0  0  0  0  0  0  0  0  0
   18.9380   -7.9328  -15.3559 C   0  0  0  0  0  0  0  0  0  0  0  0
   18.1531   -6.6477  -15.2953 C   0  0  0  0  0  0  0  0  0  0  0  0
   16.8536   -6.9737  -14.5686 C   0  0  0  0  0  0  0  0  0  0  0  0
   15.9006   -5.8036  -14.5882 C   0  0  0  0  0  0  0  0  0  0  0  0
   14.7035   -6.1907  -13.8652 N   0  0  0  0  0  0  0  0  0  0  0  0
   21.1017   -6.8762  -15.2848 C   0  0  0  0  0  0  0  0  0  0  0  0
   21.5913   -7.3400  -14.2277 O   0  0  0  0  0  0  0  0  0  0  0  0
   22.8548   -3.6094  -15.6558 C   0  0  0  0  0  0  0  0  0  0  0  0
   22.2677   -4.7376  -14.8411 C   0  0  2  0  0  0  0  0  0  0  0  0
   21.3736   -5.5486  -15.6438 N   0  0  0  0  0  0  0  0  0  0  0  0
   21.5348   -4.2406  -13.6528 C   0  0  0  0  0  0  0  0  0  0  0  0
   22.1452   -3.6348  -12.7371 O   0  0  0  0  0  0  0  0  0  0  0  0
   20.1678   -4.4168  -13.4980 O   0  0  0  0  0  0  0  0  0  0  0  0
  2  1  1  0
  2  3  2  0
  4  2  1  0
  5  4  1  0
  6  5  1  0
  6  8  1  0
  6  7  1  6
  8  9  2  0
 10  8  1  0
 10 11  1  0
 11 17  1  0
 11 12  1  1
 12 13  1  0
 13 14  1  0
 14 15  1  0
 16 15  1  0
 17 18  2  0
 20 19  1  6
 21 20  1  0
 21 17  1  0
 22 24  1  0
 22 20  1  0
 23 22  2  0
M  END
$$$$
