QKA.pdb
     RDKit          3D

 24 23  0  0  1  0  0  0  0  0999 V2000
   25.9401  -18.1034  -17.5844 N   0  0  0  0  0  0  0  0  0  0  0  0
   27.2794  -17.8072  -17.9057 C   0  0  0  0  0  0  0  0  0  0  0  0
   27.5434  -17.3806  -19.0600 O   0  0  0  0  0  0  0  0  0  0  0  0
   28.3658  -18.0012  -16.8792 C   0  0  0  0  0  0  0  0  0  0  0  0
   27.7222  -18.3052  -15.5549 C   0  0  0  0  0  0  0  0  0  0  0  0
   27.9996  -19.6612  -15.0214 C   0  0  2  0  0  0  0  0  0  0  0  0
   28.5616  -20.4606  -16.0937 N   0  0  0  0  0  0  0  0  0  0  0  0
   26.8315  -20.3737  -14.4681 C   0  0  0  0  0  0  0  0  0  0  0  0
   26.1889  -21.2418  -15.1133 O   0  0  0  0  0  0  0  0  0  0  0  0
   26.3482  -20.1168  -13.1391 N   0  0  0  0  0  0  0  0  0  0  0  0
   25.2423  -20.7917  -12.5418 C   0  0  1  0  0  0  0  0  0  0  0  0
   25.1072  -20.5259  -11.0562 C   0  0  0  0  0  0  0  0  0  0  0  0
   23.9566  -21.2776  -10.4380 C   0  0  0  0  0  0  0  0  0  0  0  0
   23.9721  -20.9377   -8.9523 C   0  0  0  0  0  0  0  0  0  0  0  0
   22.8617  -21.6426   -8.2121 C   0  0  0  0  0  0  0  0  0  0  0  0
   22.9213  -21.2320   -6.8216 N   0  0  0  0  0  0  0  0  0  0  0  0
   23.9939  -20.2293  -13.1718 C   0  0  0  0  0  0  0  0  0  0  0  0
   23.8513  -18.9837  -13.1858 O   0  0  0  0  0  0  0  0  0  0  0  0
   21.5701  -20.9809  -15.7118 C   0  0  0  0  0  0  0  0  0  0  0  0
   21.8104  -20.4518  -14.3178 C   0  0  2  0  0  0  0  0  0  0  0  0
   22.9998  -21.0415  -13.7353 N   0  0  0  0  0  0  0  0  0  0  0  0
   20.6569  -20.7041  -13.4222 C   0  0  0  0  0  0  0  0  0  0  0  0
   19.6484  -19.9559  -13.4589 O   0  0  0  0  0  0  0  0  0  0  0  0
   20.6359  -21.7567  -12.5192 O   0  0  0  0  0  0  0  0  0  0  0  0
  2  1  1  0
  2  3  2  0
  4  2  1  0
  5  4  1  0
  6  5  1  0
  6  8  1  0
  6  7  1  6
  8  9  2  0
 10  8  1  0
 10 11  1  0
 11 17  1  0
 11 12  1  1
 12 13  1  0
 13 14  1  0
 14 15  1  0
 16 15  1  0
 17 18  2  0
 20 19  1  6
 21 20  1  0
 21 17  1  0
 22 24  1  0
 22 20  1  0
 23 22  2  0
M  END
$$$$
