QKA.pdb
     RDKit          3D

 24 23  0  0  1  0  0  0  0  0999 V2000
   20.4698  -22.6535  -17.4817 N   0  0  0  0  0  0  0  0  0  0  0  0
   19.6333  -22.7398  -16.3514 C   0  0  0  0  0  0  0  0  0  0  0  0
   18.4688  -23.1949  -16.4953 O   0  0  0  0  0  0  0  0  0  0  0  0
   20.1343  -22.2931  -15.0019 C   0  0  0  0  0  0  0  0  0  0  0  0
   21.5523  -21.8168  -15.1530 C   0  0  0  0  0  0  0  0  0  0  0  0
   21.8645  -20.5491  -14.4490 C   0  0  2  0  0  0  0  0  0  0  0  0
   20.6112  -19.9194  -14.0784 N   0  0  0  0  0  0  0  0  0  0  0  0
   22.6665  -19.5791  -15.2199 C   0  0  0  0  0  0  0  0  0  0  0  0
   22.2701  -19.0640  -16.2971 O   0  0  0  0  0  0  0  0  0  0  0  0
   23.9687  -19.1565  -14.7821 N   0  0  0  0  0  0  0  0  0  0  0  0
   24.7748  -18.1989  -15.4665 C   0  0  1  0  0  0  0  0  0  0  0  0
   25.9267  -17.6768  -14.6320 C   0  0  0  0  0  0  0  0  0  0  0  0
   26.8381  -16.7653  -15.4128 C   0  0  0  0  0  0  0  0  0  0  0  0
   26.0329  -15.5052  -15.7077 C   0  0  0  0  0  0  0  0  0  0  0  0
   26.8688  -14.4684  -16.4176 C   0  0  0  0  0  0  0  0  0  0  0  0
   26.0343  -13.3040  -16.6487 N   0  0  0  0  0  0  0  0  0  0  0  0
   25.4075  -18.9130  -16.6333 C   0  0  0  0  0  0  0  0  0  0  0  0
   25.9158  -20.0408  -16.4279 O   0  0  0  0  0  0  0  0  0  0  0  0
   25.0327  -19.6249  -19.9726 C   0  0  0  0  0  0  0  0  0  0  0  0
   26.0697  -19.0924  -19.0123 C   0  0  2  0  0  0  0  0  0  0  0  0
   25.4464  -18.3661  -17.9235 N   0  0  0  0  0  0  0  0  0  0  0  0
   27.0479  -18.2070  -19.6873 C   0  0  0  0  0  0  0  0  0  0  0  0
   27.0589  -16.9736  -19.4488 O   0  0  0  0  0  0  0  0  0  0  0  0
   27.9789  -18.6878  -20.5960 O   0  0  0  0  0  0  0  0  0  0  0  0
  2  1  1  0
  2  3  2  0
  4  2  1  0
  5  4  1  0
  6  5  1  0
  6  8  1  0
  6  7  1  6
  8  9  2  0
 10  8  1  0
 10 11  1  0
 11 17  1  0
 11 12  1  1
 12 13  1  0
 13 14  1  0
 14 15  1  0
 16 15  1  0
 17 18  2  0
 20 19  1  6
 21 20  1  0
 21 17  1  0
 22 24  1  0
 22 20  1  0
 23 22  2  0
M  END
$$$$
