QKA.pdb
     RDKit          3D

 24 23  0  0  1  0  0  0  0  0999 V2000
   23.0231  -17.8223  -14.4589 N   0  0  0  0  0  0  0  0  0  0  0  0
   23.8955  -18.9059  -14.6818 C   0  0  0  0  0  0  0  0  0  0  0  0
   23.5625  -20.0452  -14.2636 O   0  0  0  0  0  0  0  0  0  0  0  0
   25.1989  -18.6924  -15.4078 C   0  0  0  0  0  0  0  0  0  0  0  0
   25.2692  -17.2572  -15.8503 C   0  0  0  0  0  0  0  0  0  0  0  0
   24.3904  -16.9118  -16.9943 C   0  0  2  0  0  0  0  0  0  0  0  0
   24.8568  -17.6429  -18.1572 N   0  0  0  0  0  0  0  0  0  0  0  0
   24.3316  -15.4770  -17.3351 C   0  0  0  0  0  0  0  0  0  0  0  0
   25.2207  -14.8951  -18.0086 O   0  0  0  0  0  0  0  0  0  0  0  0
   23.2396  -14.6431  -16.9130 N   0  0  0  0  0  0  0  0  0  0  0  0
   23.0595  -13.2878  -17.3204 C   0  0  1  0  0  0  0  0  0  0  0  0
   21.6307  -12.9605  -17.7044 C   0  0  0  0  0  0  0  0  0  0  0  0
   21.3350  -13.2748  -19.1483 C   0  0  0  0  0  0  0  0  0  0  0  0
   19.8687  -12.9235  -19.3712 C   0  0  0  0  0  0  0  0  0  0  0  0
   19.4580  -13.1491  -20.8059 C   0  0  0  0  0  0  0  0  0  0  0  0
   18.0600  -12.7816  -20.9330 N   0  0  0  0  0  0  0  0  0  0  0  0
   23.3676  -12.4258  -16.1230 C   0  0  0  0  0  0  0  0  0  0  0  0
   22.7232  -12.6325  -15.0674 O   0  0  0  0  0  0  0  0  0  0  0  0
   26.0950  -10.1697  -15.0016 C   0  0  0  0  0  0  0  0  0  0  0  0
   24.6782  -10.6893  -14.9411 C   0  0  2  0  0  0  0  0  0  0  0  0
   24.3376  -11.4141  -16.1495 N   0  0  0  0  0  0  0  0  0  0  0  0
   23.6956   -9.5986  -14.7378 C   0  0  0  0  0  0  0  0  0  0  0  0
   23.1332   -9.0582  -15.7226 O   0  0  0  0  0  0  0  0  0  0  0  0
   23.3567   -9.1320  -13.4764 O   0  0  0  0  0  0  0  0  0  0  0  0
  2  1  1  0
  2  3  2  0
  4  2  1  0
  5  4  1  0
  6  5  1  0
  6  8  1  0
  6  7  1  6
  8  9  2  0
 10  8  1  0
 10 11  1  0
 11 17  1  0
 11 12  1  1
 12 13  1  0
 13 14  1  0
 14 15  1  0
 16 15  1  0
 17 18  2  0
 20 19  1  6
 21 20  1  0
 21 17  1  0
 22 24  1  0
 22 20  1  0
 23 22  2  0
M  END
$$$$
