NKN.pdb
     RDKit          3D

 26 25  0  0  1  0  0  0  0  0999 V2000
    9.2016  -17.7924   15.7441 N   0  0  0  0  0  0  0  0  0  0  0  0
    8.3074  -16.7839   16.1510 C   0  0  0  0  0  0  0  0  0  0  0  0
    7.8134  -16.0189   15.2933 O   0  0  0  0  0  0  0  0  0  0  0  0
    7.9422  -16.6118   17.5671 C   0  0  0  0  0  0  0  0  0  0  0  0
    8.5980  -17.6253   18.4642 C   0  0  2  0  0  0  0  0  0  0  0  0
    8.0157  -18.9424   18.3029 N   0  0  0  0  0  0  0  0  0  0  0  0
    8.5278  -17.1473   19.8570 C   0  0  0  0  0  0  0  0  0  0  0  0
    9.1415  -16.1205   20.2623 O   0  0  0  0  0  0  0  0  0  0  0  0
    7.7545  -17.8403   20.7944 N   0  0  0  0  0  0  0  0  0  0  0  0
    7.8076  -17.5736   22.2328 C   0  0  1  0  0  0  0  0  0  0  0  0
    6.6469  -18.1695   22.9356 C   0  0  0  0  0  0  0  0  0  0  0  0
    6.5345  -19.6423   22.6751 C   0  0  0  0  0  0  0  0  0  0  0  0
    5.3642  -20.2475   23.4538 C   0  0  0  0  0  0  0  0  0  0  0  0
    5.3355  -21.7198   23.0976 C   0  0  0  0  0  0  0  0  0  0  0  0
    4.2572  -22.3681   23.8177 N   0  0  0  0  0  0  0  0  0  0  0  0
    9.1114  -17.9720   22.7667 C   0  0  0  0  0  0  0  0  0  0  0  0
    9.6924  -19.0632   22.5764 O   0  0  0  0  0  0  0  0  0  0  0  0
   11.8014  -16.8988   21.5575 N   0  0  0  0  0  0  0  0  0  0  0  0
   12.4416  -16.1219   22.5865 C   0  0  0  0  0  0  0  0  0  0  0  0
   13.3121  -15.2793   22.2604 O   0  0  0  0  0  0  0  0  0  0  0  0
   12.0766  -16.3159   24.0102 C   0  0  0  0  0  0  0  0  0  0  0  0
   11.0753  -17.4128   24.1860 C   0  0  2  0  0  0  0  0  0  0  0  0
    9.8184  -17.0401   23.5944 N   0  0  0  0  0  0  0  0  0  0  0  0
   10.9264  -17.7690   25.6206 C   0  0  0  0  0  0  0  0  0  0  0  0
   11.9630  -18.4114   26.2828 O   0  0  0  0  0  0  0  0  0  0  0  0
    9.8912  -17.5134   26.2754 O   0  0  0  0  0  0  0  0  0  0  0  0
  2  1  1  0
  2  3  2  0
  4  5  1  0
  4  2  1  0
  5  7  1  0
  5  6  1  1
  7  8  2  0
  9 10  1  0
  9  7  1  0
 11 12  1  0
 10 11  1  1
 13 14  1  0
 13 12  1  0
 15 14  1  0
 16 17  2  0
 16 10  1  0
 18 19  1  0
 19 20  2  0
 19 21  1  0
 22 21  1  1
 22 24  1  0
 22 23  1  0
 23 16  1  0
 24 25  1  0
 26 24  2  0
M  END
$$$$
