NKN.pdb
     RDKit          3D

 26 25  0  0  1  0  0  0  0  0999 V2000
   12.1019  -16.4509   14.0469 N   0  0  0  0  0  0  0  0  0  0  0  0
   12.1478  -17.4808   15.0057 C   0  0  0  0  0  0  0  0  0  0  0  0
   11.9539  -18.6631   14.6463 O   0  0  0  0  0  0  0  0  0  0  0  0
   12.4196  -17.1932   16.4241 C   0  0  0  0  0  0  0  0  0  0  0  0
   11.3484  -17.7188   17.3397 C   0  0  2  0  0  0  0  0  0  0  0  0
   10.0240  -17.5261   16.7839 N   0  0  0  0  0  0  0  0  0  0  0  0
   11.4989  -17.0874   18.6634 C   0  0  0  0  0  0  0  0  0  0  0  0
   12.6136  -16.9711   19.2459 O   0  0  0  0  0  0  0  0  0  0  0  0
   10.3756  -16.5844   19.3284 N   0  0  0  0  0  0  0  0  0  0  0  0
   10.4457  -15.9150   20.6283 C   0  0  1  0  0  0  0  0  0  0  0  0
    9.1930  -15.1813   20.9260 C   0  0  0  0  0  0  0  0  0  0  0  0
    8.9721  -14.0463   19.9706 C   0  0  0  0  0  0  0  0  0  0  0  0
    7.4840  -13.8797   19.6542 C   0  0  0  0  0  0  0  0  0  0  0  0
    7.3754  -12.6593   18.7629 C   0  0  0  0  0  0  0  0  0  0  0  0
    5.9770  -12.3631   18.5212 N   0  0  0  0  0  0  0  0  0  0  0  0
   10.8504  -16.8708   21.6610 C   0  0  0  0  0  0  0  0  0  0  0  0
   10.5080  -18.0712   21.7404 O   0  0  0  0  0  0  0  0  0  0  0  0
   15.0549  -17.7718   25.8117 N   0  0  0  0  0  0  0  0  0  0  0  0
   14.2168  -18.2805   24.7575 C   0  0  0  0  0  0  0  0  0  0  0  0
   13.9380  -19.5036   24.7379 O   0  0  0  0  0  0  0  0  0  0  0  0
   13.6916  -17.3711   23.7111 C   0  0  0  0  0  0  0  0  0  0  0  0
   12.1964  -17.3371   23.6993 C   0  0  2  0  0  0  0  0  0  0  0  0
   11.7266  -16.4159   22.6997 N   0  0  0  0  0  0  0  0  0  0  0  0
   11.6636  -17.0091   25.0468 C   0  0  0  0  0  0  0  0  0  0  0  0
   11.8023  -17.9207   26.0838 O   0  0  0  0  0  0  0  0  0  0  0  0
   11.0838  -15.9292   25.2986 O   0  0  0  0  0  0  0  0  0  0  0  0
  2  1  1  0
  2  3  2  0
  4  5  1  0
  4  2  1  0
  5  7  1  0
  5  6  1  6
  7  8  2  0
  9 10  1  0
  9  7  1  0
 11 12  1  0
 10 11  1  1
 13 14  1  0
 13 12  1  0
 15 14  1  0
 16 17  2  0
 16 10  1  0
 18 19  1  0
 19 20  2  0
 19 21  1  0
 22 21  1  1
 22 24  1  0
 22 23  1  0
 23 16  1  0
 24 25  1  0
 26 24  2  0
M  END
$$$$
