NKN.pdb
     RDKit          3D

 26 25  0  0  1  0  0  0  0  0999 V2000
   13.1200  -19.1552   17.2093 N   0  0  0  0  0  0  0  0  0  0  0  0
   13.6694  -17.8949   17.5125 C   0  0  0  0  0  0  0  0  0  0  0  0
   14.6867  -17.5049   16.8980 O   0  0  0  0  0  0  0  0  0  0  0  0
   13.0696  -17.0264   18.5393 C   0  0  0  0  0  0  0  0  0  0  0  0
   11.9426  -17.6933   19.2790 C   0  0  2  0  0  0  0  0  0  0  0  0
   10.7623  -17.8310   18.4496 N   0  0  0  0  0  0  0  0  0  0  0  0
   11.6731  -16.9415   20.5182 C   0  0  0  0  0  0  0  0  0  0  0  0
   12.5630  -16.6982   21.3809 O   0  0  0  0  0  0  0  0  0  0  0  0
   10.3846  -16.4626   20.7776 N   0  0  0  0  0  0  0  0  0  0  0  0
   10.0128  -15.7959   22.0266 C   0  0  1  0  0  0  0  0  0  0  0  0
    8.7467  -15.0398   21.8790 C   0  0  0  0  0  0  0  0  0  0  0  0
    8.8287  -14.0268   20.7759 C   0  0  0  0  0  0  0  0  0  0  0  0
    7.4700  -13.8499   20.0940 C   0  0  0  0  0  0  0  0  0  0  0  0
    7.6726  -12.8095   19.0113 C   0  0  0  0  0  0  0  0  0  0  0  0
    6.4128  -12.5654   18.3369 N   0  0  0  0  0  0  0  0  0  0  0  0
   10.0201  -16.7598   23.1286 C   0  0  0  0  0  0  0  0  0  0  0  0
    9.3857  -17.8366   23.1806 O   0  0  0  0  0  0  0  0  0  0  0  0
   14.1382  -17.7271   24.1133 N   0  0  0  0  0  0  0  0  0  0  0  0
   12.9693  -18.3555   24.6713 C   0  0  0  0  0  0  0  0  0  0  0  0
   12.5853  -19.4535   24.2010 O   0  0  0  0  0  0  0  0  0  0  0  0
   12.2313  -17.7134   25.7852 C   0  0  0  0  0  0  0  0  0  0  0  0
   10.8277  -17.3688   25.4003 C   0  0  2  0  0  0  0  0  0  0  0  0
   10.8250  -16.4694   24.2780 N   0  0  0  0  0  0  0  0  0  0  0  0
   10.0833  -16.8096   26.5581 C   0  0  0  0  0  0  0  0  0  0  0  0
    9.4735  -15.5677   26.4510 O   0  0  0  0  0  0  0  0  0  0  0  0
    9.9766  -17.4153   27.6479 O   0  0  0  0  0  0  0  0  0  0  0  0
  2  1  1  0
  2  3  2  0
  4  5  1  0
  4  2  1  0
  5  7  1  0
  5  6  1  6
  7  8  2  0
  9 10  1  0
  9  7  1  0
 11 12  1  0
 10 11  1  6
 13 14  1  0
 13 12  1  0
 15 14  1  0
 16 17  2  0
 16 10  1  0
 18 19  1  0
 19 20  2  0
 19 21  1  0
 22 21  1  1
 22 24  1  0
 22 23  1  0
 23 16  1  0
 24 25  1  0
 26 24  2  0
M  END
$$$$
