NKN.pdb
     RDKit          3D

 26 25  0  0  1  0  0  0  0  0999 V2000
    8.3973  -13.3357   16.0629 N   0  0  0  0  0  0  0  0  0  0  0  0
    7.8830  -14.1790   17.0661 C   0  0  0  0  0  0  0  0  0  0  0  0
    7.4043  -15.2901   16.7481 O   0  0  0  0  0  0  0  0  0  0  0  0
    7.8977  -13.7785   18.4831 C   0  0  0  0  0  0  0  0  0  0  0  0
    8.3427  -14.8876   19.3963 C   0  0  2  0  0  0  0  0  0  0  0  0
    7.3072  -15.8856   19.5741 N   0  0  0  0  0  0  0  0  0  0  0  0
    8.7858  -14.3044   20.6757 C   0  0  0  0  0  0  0  0  0  0  0  0
    9.8587  -13.6490   20.7966 O   0  0  0  0  0  0  0  0  0  0  0  0
    8.0041  -14.4667   21.8245 N   0  0  0  0  0  0  0  0  0  0  0  0
    8.3197  -13.8332   23.1059 C   0  0  1  0  0  0  0  0  0  0  0  0
    7.1270  -13.7653   23.9828 C   0  0  0  0  0  0  0  0  0  0  0  0
    7.4269  -13.0702   25.2777 C   0  0  0  0  0  0  0  0  0  0  0  0
    6.1512  -12.8701   26.0991 C   0  0  0  0  0  0  0  0  0  0  0  0
    6.5732  -12.1607   27.3696 C   0  0  0  0  0  0  0  0  0  0  0  0
    5.4013  -11.8781   28.1748 N   0  0  0  0  0  0  0  0  0  0  0  0
    9.4831  -14.4838   23.7114 C   0  0  0  0  0  0  0  0  0  0  0  0
   10.2419  -13.9965   24.5782 O   0  0  0  0  0  0  0  0  0  0  0  0
   10.9796  -18.1849   26.6638 N   0  0  0  0  0  0  0  0  0  0  0  0
    9.6267  -18.1731   26.1720 C   0  0  0  0  0  0  0  0  0  0  0  0
    8.8227  -19.0454   26.5806 O   0  0  0  0  0  0  0  0  0  0  0  0
    9.1913  -17.1447   25.1970 C   0  0  0  0  0  0  0  0  0  0  0  0
   10.2865  -16.7753   24.2479 C   0  0  2  0  0  0  0  0  0  0  0  0
    9.8123  -15.8132   23.2896 N   0  0  0  0  0  0  0  0  0  0  0  0
   10.8449  -17.9834   23.5876 C   0  0  0  0  0  0  0  0  0  0  0  0
   10.7576  -18.1184   22.2093 O   0  0  0  0  0  0  0  0  0  0  0  0
   11.4016  -18.9046   24.2257 O   0  0  0  0  0  0  0  0  0  0  0  0
  2  1  1  0
  2  3  2  0
  4  5  1  0
  4  2  1  0
  5  7  1  0
  5  6  1  1
  7  8  2  0
  9 10  1  0
  9  7  1  0
 11 12  1  0
 10 11  1  1
 13 14  1  0
 13 12  1  0
 15 14  1  0
 16 17  2  0
 16 10  1  0
 18 19  1  0
 19 20  2  0
 19 21  1  0
 22 21  1  1
 22 24  1  0
 22 23  1  0
 23 16  1  0
 24 25  1  0
 26 24  2  0
M  END
$$$$
