NKN.pdb
     RDKit          3D

 26 25  0  0  1  0  0  0  0  0999 V2000
    8.7065  -17.8151   17.0840 N   0  0  0  0  0  0  0  0  0  0  0  0
    9.7981  -16.9386   17.2331 C   0  0  0  0  0  0  0  0  0  0  0  0
   10.4735  -16.6229   16.2287 O   0  0  0  0  0  0  0  0  0  0  0  0
   10.1606  -16.3860   18.5490 C   0  0  0  0  0  0  0  0  0  0  0  0
    9.2794  -16.8952   19.6564 C   0  0  2  0  0  0  0  0  0  0  0  0
    7.8793  -16.8708   19.2835 N   0  0  0  0  0  0  0  0  0  0  0  0
    9.5485  -16.1154   20.8782 C   0  0  0  0  0  0  0  0  0  0  0  0
   10.7154  -15.8905   21.3062 O   0  0  0  0  0  0  0  0  0  0  0  0
    8.4847  -15.5874   21.6175 N   0  0  0  0  0  0  0  0  0  0  0  0
    8.6438  -15.0126   22.9543 C   0  0  1  0  0  0  0  0  0  0  0  0
    7.5358  -14.0831   23.2778 C   0  0  0  0  0  0  0  0  0  0  0  0
    7.6816  -13.5000   24.6520 C   0  0  0  0  0  0  0  0  0  0  0  0
    6.4678  -12.6405   25.0128 C   0  0  0  0  0  0  0  0  0  0  0  0
    6.6849  -12.1800   26.4398 C   0  0  0  0  0  0  0  0  0  0  0  0
    5.5217  -11.4405   26.8890 N   0  0  0  0  0  0  0  0  0  0  0  0
    8.8479  -16.0799   23.9357 C   0  0  0  0  0  0  0  0  0  0  0  0
    8.0474  -17.0002   24.2126 O   0  0  0  0  0  0  0  0  0  0  0  0
   10.7763  -20.6128   24.7344 N   0  0  0  0  0  0  0  0  0  0  0  0
   11.5907  -19.4932   24.3400 C   0  0  0  0  0  0  0  0  0  0  0  0
   12.8393  -19.6162   24.3472 O   0  0  0  0  0  0  0  0  0  0  0  0
   10.9618  -18.2144   23.9314 C   0  0  0  0  0  0  0  0  0  0  0  0
   10.6344  -17.3516   25.1083 C   0  0  2  0  0  0  0  0  0  0  0  0
   10.0786  -16.0997   24.6695 N   0  0  0  0  0  0  0  0  0  0  0  0
   11.8293  -17.1540   25.9688 C   0  0  0  0  0  0  0  0  0  0  0  0
   12.6482  -16.0517   25.7690 O   0  0  0  0  0  0  0  0  0  0  0  0
   12.1407  -17.9487   26.8839 O   0  0  0  0  0  0  0  0  0  0  0  0
  2  1  1  0
  2  3  2  0
  4  5  1  0
  4  2  1  0
  5  7  1  0
  5  6  1  6
  7  8  2  0
  9 10  1  0
  9  7  1  0
 11 12  1  0
 10 11  1  1
 13 14  1  0
 13 12  1  0
 15 14  1  0
 16 17  2  0
 16 10  1  0
 18 19  1  0
 19 20  2  0
 19 21  1  0
 22 21  1  6
 22 24  1  0
 22 23  1  0
 23 16  1  0
 24 25  1  0
 26 24  2  0
M  END
$$$$
