MNS.pdb
     RDKit          3D

 23 22  0  0  1  0  0  0  0  0999 V2000
   27.7150  -16.5586  -18.3955 C   0  0  0  0  0  0  0  0  0  0  0  0
   27.3305  -16.8270  -16.6665 S   0  0  0  0  0  0  0  0  0  0  0  0
   26.7276  -15.4406  -15.7471 C   0  0  0  0  0  0  0  0  0  0  0  0
   25.7743  -14.5065  -16.3616 C   0  0  0  0  0  0  0  0  0  0  0  0
   25.4118  -13.3289  -15.5585 C   0  0  2  0  0  0  0  0  0  0  0  0
   24.9498  -13.6946  -14.2529 N   0  0  0  0  0  0  0  0  0  0  0  0
   24.4141  -12.4436  -16.2576 C   0  0  0  0  0  0  0  0  0  0  0  0
   24.6064  -12.0338  -17.4051 O   0  0  0  0  0  0  0  0  0  0  0  0
   20.2094  -14.3372  -15.9032 N   0  0  0  0  0  0  0  0  0  0  0  0
   20.6845  -13.1741  -16.5963 C   0  0  0  0  0  0  0  0  0  0  0  0
   20.9791  -13.2857  -17.8035 O   0  0  0  0  0  0  0  0  0  0  0  0
   20.8255  -11.8812  -15.9180 C   0  0  0  0  0  0  0  0  0  0  0  0
   22.1651  -11.2840  -16.1152 C   0  0  2  0  0  0  0  0  0  0  0  0
   23.2347  -12.0898  -15.5538 N   0  0  0  0  0  0  0  0  0  0  0  0
   22.2725   -9.9214  -15.5681 C   0  0  0  0  0  0  0  0  0  0  0  0
   22.2533   -9.6703  -14.3557 O   0  0  0  0  0  0  0  0  0  0  0  0
   22.1306   -6.5480  -18.1507 O   0  0  0  0  0  0  0  0  0  0  0  0
   22.9996   -6.5353  -17.0738 C   0  0  0  0  0  0  0  0  0  0  0  0
   22.4762   -7.4289  -15.9649 C   0  0  2  0  0  0  0  0  0  0  0  0
   22.4090   -8.7857  -16.4646 N   0  0  0  0  0  0  0  0  0  0  0  0
   21.1969   -6.9659  -15.4239 C   0  0  0  0  0  0  0  0  0  0  0  0
   21.1443   -5.8554  -14.8389 O   0  0  0  0  0  0  0  0  0  0  0  0
   20.0362   -7.7096  -15.5330 O   0  0  0  0  0  0  0  0  0  0  0  0
  1  2  1  0
  3  2  1  0
  4  3  1  0
  5  4  1  0
  5  6  1  1
  7  5  1  0
  8  7  2  0
  9 10  1  0
 10 12  1  0
 11 10  2  0
 13 12  1  1
 13 15  1  0
 13 14  1  0
 14  7  1  0
 15 20  1  0
 16 15  2  0
 19 18  1  6
 18 17  1  0
 19 21  1  0
 20 19  1  0
 21 22  2  0
 21 23  1  0
M  END
$$$$
