MNS.pdb
     RDKit          3D

 23 22  0  0  1  0  0  0  0  0999 V2000
   27.6860  -19.0605   -5.8888 C   0  0  0  0  0  0  0  0  0  0  0  0
   28.3112  -19.8465   -7.3724 S   0  0  0  0  0  0  0  0  0  0  0  0
   27.3442  -21.1582   -8.0618 C   0  0  0  0  0  0  0  0  0  0  0  0
   26.1381  -20.8530   -8.8433 C   0  0  0  0  0  0  0  0  0  0  0  0
   26.0731  -21.4398  -10.1904 C   0  0  2  0  0  0  0  0  0  0  0  0
   27.3702  -21.5505  -10.7878 N   0  0  0  0  0  0  0  0  0  0  0  0
   25.1227  -20.6985  -11.0931 C   0  0  0  0  0  0  0  0  0  0  0  0
   24.1382  -20.1043  -10.6467 O   0  0  0  0  0  0  0  0  0  0  0  0
   23.2291  -18.4841  -15.3750 N   0  0  0  0  0  0  0  0  0  0  0  0
   24.5633  -18.9192  -15.6739 C   0  0  0  0  0  0  0  0  0  0  0  0
   25.0686  -18.5702  -16.7600 O   0  0  0  0  0  0  0  0  0  0  0  0
   25.3263  -19.7522  -14.7380 C   0  0  0  0  0  0  0  0  0  0  0  0
   24.6029  -19.9804  -13.4674 C   0  0  2  0  0  0  0  0  0  0  0  0
   25.3928  -20.7018  -12.4855 N   0  0  0  0  0  0  0  0  0  0  0  0
   23.3274  -20.6920  -13.6527 C   0  0  0  0  0  0  0  0  0  0  0  0
   23.2483  -21.8428  -14.1032 O   0  0  0  0  0  0  0  0  0  0  0  0
   19.9945  -20.0784  -11.2925 O   0  0  0  0  0  0  0  0  0  0  0  0
   19.7609  -19.9544  -12.6509 C   0  0  0  0  0  0  0  0  0  0  0  0
   20.8048  -20.7257  -13.4367 C   0  0  2  0  0  0  0  0  0  0  0  0
   22.0748  -20.0447  -13.3008 N   0  0  0  0  0  0  0  0  0  0  0  0
   20.4226  -20.9271  -14.8356 C   0  0  0  0  0  0  0  0  0  0  0  0
   20.8624  -20.1407  -15.7109 O   0  0  0  0  0  0  0  0  0  0  0  0
   19.5901  -21.9573  -15.2329 O   0  0  0  0  0  0  0  0  0  0  0  0
  1  2  1  0
  3  2  1  0
  4  3  1  0
  5  4  1  0
  5  6  1  6
  7  5  1  0
  8  7  2  0
  9 10  1  0
 10 12  1  0
 11 10  2  0
 13 12  1  6
 13 15  1  0
 13 14  1  0
 14  7  1  0
 15 20  1  0
 16 15  2  0
 19 18  1  1
 18 17  1  0
 19 21  1  0
 20 19  1  0
 21 22  2  0
 21 23  1  0
M  END
$$$$
