MNS.pdb
     RDKit          3D

 23 22  0  0  1  0  0  0  0  0999 V2000
   24.5750  -21.1655   -7.8308 C   0  0  0  0  0  0  0  0  0  0  0  0
   24.6026  -21.1783   -9.6221 S   0  0  0  0  0  0  0  0  0  0  0  0
   26.0820  -20.6149  -10.4124 C   0  0  0  0  0  0  0  0  0  0  0  0
   26.0826  -20.3194  -11.8517 C   0  0  0  0  0  0  0  0  0  0  0  0
   25.2394  -21.1841  -12.6910 C   0  0  2  0  0  0  0  0  0  0  0  0
   25.7607  -22.5153  -12.7789 N   0  0  0  0  0  0  0  0  0  0  0  0
   25.0064  -20.6024  -14.0603 C   0  0  0  0  0  0  0  0  0  0  0  0
   25.7803  -20.8213  -14.9957 O   0  0  0  0  0  0  0  0  0  0  0  0
   20.4194  -17.6790  -17.1109 N   0  0  0  0  0  0  0  0  0  0  0  0
   21.6346  -18.4216  -16.9355 C   0  0  0  0  0  0  0  0  0  0  0  0
   22.3702  -18.5930  -17.9285 O   0  0  0  0  0  0  0  0  0  0  0  0
   22.0161  -18.9708  -15.6300 C   0  0  0  0  0  0  0  0  0  0  0  0
   23.4718  -19.2151  -15.5245 C   0  0  2  0  0  0  0  0  0  0  0  0
   23.8610  -19.7872  -14.2479 N   0  0  0  0  0  0  0  0  0  0  0  0
   24.2756  -18.0034  -15.7560 C   0  0  0  0  0  0  0  0  0  0  0  0
   24.1398  -16.9604  -15.1024 O   0  0  0  0  0  0  0  0  0  0  0  0
   28.0514  -18.0791  -17.2432 O   0  0  0  0  0  0  0  0  0  0  0  0
   27.4714  -16.9943  -16.6095 C   0  0  0  0  0  0  0  0  0  0  0  0
   26.0496  -16.7966  -17.1006 C   0  0  2  0  0  0  0  0  0  0  0  0
   25.2905  -17.9909  -16.7961 N   0  0  0  0  0  0  0  0  0  0  0  0
   25.9874  -16.4383  -18.5188 C   0  0  0  0  0  0  0  0  0  0  0  0
   25.3413  -17.1707  -19.3088 O   0  0  0  0  0  0  0  0  0  0  0  0
   26.6174  -15.3163  -19.0255 O   0  0  0  0  0  0  0  0  0  0  0  0
  1  2  1  0
  3  2  1  0
  4  3  1  0
  5  4  1  0
  5  6  1  6
  7  5  1  0
  8  7  2  0
  9 10  1  0
 10 12  1  0
 11 10  2  0
 13 12  1  1
 13 15  1  0
 13 14  1  0
 14  7  1  0
 15 20  1  0
 16 15  2  0
 19 18  1  6
 18 17  1  0
 19 21  1  0
 20 19  1  0
 21 22  2  0
 21 23  1  0
M  END
$$$$
