MNS.pdb
     RDKit          3D

 23 22  0  0  1  0  0  0  0  0999 V2000
   13.2740   -5.8309   -6.8839 C   0  0  0  0  0  0  0  0  0  0  0  0
   14.8180   -6.3861   -7.6032 S   0  0  0  0  0  0  0  0  0  0  0  0
   14.7185   -7.3874   -9.0587 C   0  0  0  0  0  0  0  0  0  0  0  0
   15.9458   -7.8422   -9.7262 C   0  0  0  0  0  0  0  0  0  0  0  0
   15.7614   -8.6824  -10.9192 C   0  0  2  0  0  0  0  0  0  0  0  0
   15.8303  -10.0782  -10.6052 N   0  0  0  0  0  0  0  0  0  0  0  0
   16.7215   -8.3279  -12.0238 C   0  0  0  0  0  0  0  0  0  0  0  0
   17.5383   -9.1445  -12.4569 O   0  0  0  0  0  0  0  0  0  0  0  0
   14.4205   -5.3870  -15.4178 N   0  0  0  0  0  0  0  0  0  0  0  0
   15.6583   -6.0974  -15.2698 C   0  0  0  0  0  0  0  0  0  0  0  0
   15.7658   -7.2155  -15.8130 O   0  0  0  0  0  0  0  0  0  0  0  0
   16.7770   -5.5378  -14.5036 C   0  0  0  0  0  0  0  0  0  0  0  0
   17.4626   -6.5581  -13.6796 C   0  0  2  0  0  0  0  0  0  0  0  0
   16.6608   -7.0157  -12.5588 N   0  0  0  0  0  0  0  0  0  0  0  0
   18.7640   -6.1008  -13.1650 C   0  0  0  0  0  0  0  0  0  0  0  0
   18.8879   -5.3976  -12.1533 O   0  0  0  0  0  0  0  0  0  0  0  0
   22.0700   -8.3380  -13.6145 O   0  0  0  0  0  0  0  0  0  0  0  0
   22.3290   -7.0215  -13.9532 C   0  0  0  0  0  0  0  0  0  0  0  0
   21.2905   -6.1049  -13.3341 C   0  0  2  0  0  0  0  0  0  0  0  0
   19.9897   -6.4724  -13.8519 N   0  0  0  0  0  0  0  0  0  0  0  0
   21.5959   -4.6876  -13.5378 C   0  0  0  0  0  0  0  0  0  0  0  0
   21.0284   -4.0657  -14.4701 O   0  0  0  0  0  0  0  0  0  0  0  0
   22.4917   -4.0025  -12.7374 O   0  0  0  0  0  0  0  0  0  0  0  0
  1  2  1  0
  3  2  1  0
  4  3  1  0
  5  4  1  0
  5  6  1  1
  7  5  1  0
  8  7  2  0
  9 10  1  0
 10 12  1  0
 11 10  2  0
 13 12  1  1
 13 15  1  0
 13 14  1  0
 14  7  1  0
 15 20  1  0
 16 15  2  0
 19 18  1  6
 18 17  1  0
 19 21  1  0
 20 19  1  0
 21 22  2  0
 21 23  1  0
M  END
$$$$
