MNS.pdb
     RDKit          3D

 23 22  0  0  1  0  0  0  0  0999 V2000
   14.4871  -13.2351  -17.0403 C   0  0  0  0  0  0  0  0  0  0  0  0
   16.1481  -13.1490  -17.7059 S   0  0  0  0  0  0  0  0  0  0  0  0
   17.4877  -13.3168  -16.5620 C   0  0  0  0  0  0  0  0  0  0  0  0
   17.9484  -12.1544  -15.7903 C   0  0  0  0  0  0  0  0  0  0  0  0
   18.3013  -10.9579  -16.5694 C   0  0  2  0  0  0  0  0  0  0  0  0
   19.3884  -11.2073  -17.4681 N   0  0  0  0  0  0  0  0  0  0  0  0
   18.5856   -9.7668  -15.6931 C   0  0  0  0  0  0  0  0  0  0  0  0
   17.8307   -9.4479  -14.7711 O   0  0  0  0  0  0  0  0  0  0  0  0
   22.7903  -10.0665  -14.1805 N   0  0  0  0  0  0  0  0  0  0  0  0
   21.9226   -8.9730  -13.8484 C   0  0  0  0  0  0  0  0  0  0  0  0
   21.4251   -8.9407  -12.7046 O   0  0  0  0  0  0  0  0  0  0  0  0
   21.6188   -7.9135  -14.8163 C   0  0  0  0  0  0  0  0  0  0  0  0
   20.1830   -7.8694  -15.1720 C   0  0  2  0  0  0  0  0  0  0  0  0
   19.7573   -9.0130  -15.9591 N   0  0  0  0  0  0  0  0  0  0  0  0
   19.8077   -6.6421  -15.8934 C   0  0  0  0  0  0  0  0  0  0  0  0
   20.1690   -6.3949  -17.0517 O   0  0  0  0  0  0  0  0  0  0  0  0
   16.6799   -2.9374  -16.0075 O   0  0  0  0  0  0  0  0  0  0  0  0
   17.1594   -4.0679  -15.3695 C   0  0  0  0  0  0  0  0  0  0  0  0
   18.4967   -4.4767  -15.9582 C   0  0  2  0  0  0  0  0  0  0  0  0
   18.9713   -5.6447  -15.2470 N   0  0  0  0  0  0  0  0  0  0  0  0
   19.4712   -3.3841  -15.9569 C   0  0  0  0  0  0  0  0  0  0  0  0
   20.2177   -3.2292  -14.9585 O   0  0  0  0  0  0  0  0  0  0  0  0
   19.6022   -2.5098  -17.0203 O   0  0  0  0  0  0  0  0  0  0  0  0
  1  2  1  0
  3  2  1  0
  4  3  1  0
  5  4  1  0
  5  6  1  1
  7  5  1  0
  8  7  2  0
  9 10  1  0
 10 12  1  0
 11 10  2  0
 13 12  1  6
 13 15  1  0
 13 14  1  0
 14  7  1  0
 15 20  1  0
 16 15  2  0
 19 18  1  1
 18 17  1  0
 19 21  1  0
 20 19  1  0
 21 22  2  0
 21 23  1  0
M  END
$$$$
