TPI.pdb
     RDKit          3D

 23 23  0  0  1  0  0  0  0  0999 V2000
    7.5007  -12.5912   18.8214 C   0  0  0  0  0  0  0  0  0  0  0  0
    7.9411  -13.9286   18.2576 C   0  0  1  0  0  0  0  0  0  0  0  0
    8.6148  -13.6715   17.0690 O   0  0  0  0  0  0  0  0  0  0  0  0
    8.8694  -14.5554   19.2924 C   0  0  2  0  0  0  0  0  0  0  0  0
    9.4331  -15.7262   18.7193 N   0  0  0  0  0  0  0  0  0  0  0  0
    8.2179  -14.7128   20.5953 C   0  0  0  0  0  0  0  0  0  0  0  0
    7.6123  -13.6629   21.0182 O   0  0  0  0  0  0  0  0  0  0  0  0
    8.1834  -15.8501   21.4083 N   0  0  0  0  0  0  0  0  0  0  0  0
    8.9163  -17.0959   21.4036 C   0  0  0  0  0  0  0  0  0  0  0  0
    7.8038  -18.1173   21.5066 C   0  0  0  0  0  0  0  0  0  0  0  0
    6.8843  -17.4638   22.5135 C   0  0  0  0  0  0  0  0  0  0  0  0
    7.2823  -16.0068   22.5614 C   0  0  1  0  0  0  0  0  0  0  0  0
    8.0013  -15.7142   23.8245 C   0  0  0  0  0  0  0  0  0  0  0  0
    9.2323  -15.9666   23.8714 O   0  0  0  0  0  0  0  0  0  0  0  0
    5.7612  -11.7872   27.2357 C   0  0  0  0  0  0  0  0  0  0  0  0
    6.1451  -13.1210   26.6616 C   0  0  0  0  0  0  0  0  0  0  0  0
    7.5985  -13.1873   26.3807 C   0  0  2  0  0  0  0  0  0  0  0  0
    7.9468  -12.2632   25.1997 C   0  0  0  0  0  0  0  0  0  0  0  0
    8.1553  -14.5268   26.0198 C   0  0  2  0  0  0  0  0  0  0  0  0
    7.4071  -15.1769   24.9689 N   0  0  0  0  0  0  0  0  0  0  0  0
    8.4651  -15.4132   27.1494 C   0  0  0  0  0  0  0  0  0  0  0  0
    7.9268  -16.6914   27.2316 O   0  0  0  0  0  0  0  0  0  0  0  0
    9.2244  -15.0958   28.1120 O   0  0  0  0  0  0  0  0  0  0  0  0
  2  1  1  1
  3  2  1  0
  4  2  1  0
  4  5  1  6
  6  4  1  0
  7  6  2  0
  8  6  1  0
  8 12  1  0
  9 10  1  0
  9  8  1  0
 10 11  1  0
 11 12  1  0
 12 13  1  1
 13 14  2  0
 16 15  1  0
 17 16  1  0
 17 18  1  6
 19 20  1  6
 19 17  1  0
 20 13  1  0
 21 19  1  0
 22 21  1  0
 23 21  2  0
M  END
$$$$
