TPI.pdb
     RDKit          3D

 23 23  0  0  1  0  0  0  0  0999 V2000
    9.7155  -13.0906   19.9940 C   0  0  0  0  0  0  0  0  0  0  0  0
    8.3625  -12.9573   19.3219 C   0  0  1  0  0  0  0  0  0  0  0  0
    8.5782  -12.3829   18.0744 O   0  0  0  0  0  0  0  0  0  0  0  0
    7.7992  -14.3682   19.1887 C   0  0  2  0  0  0  0  0  0  0  0  0
    6.7329  -14.3246   18.2516 N   0  0  0  0  0  0  0  0  0  0  0  0
    7.5019  -14.9693   20.4913 C   0  0  0  0  0  0  0  0  0  0  0  0
    6.3629  -14.6392   20.9827 O   0  0  0  0  0  0  0  0  0  0  0  0
    8.3005  -15.8402   21.2395 N   0  0  0  0  0  0  0  0  0  0  0  0
    9.6390  -16.3568   21.0645 C   0  0  0  0  0  0  0  0  0  0  0  0
    9.4337  -17.8424   21.2703 C   0  0  0  0  0  0  0  0  0  0  0  0
    8.4647  -17.8568   22.4310 C   0  0  0  0  0  0  0  0  0  0  0  0
    7.8710  -16.4688   22.4990 C   0  0  1  0  0  0  0  0  0  0  0  0
    8.4241  -15.7322   23.6608 C   0  0  0  0  0  0  0  0  0  0  0  0
    9.6253  -15.3647   23.6051 O   0  0  0  0  0  0  0  0  0  0  0  0
    5.6117  -11.8707   26.1039 C   0  0  0  0  0  0  0  0  0  0  0  0
    6.5882  -12.8002   25.4418 C   0  0  0  0  0  0  0  0  0  0  0  0
    7.3006  -13.6318   26.4401 C   0  0  2  0  0  0  0  0  0  0  0  0
    8.1321  -12.7332   27.3734 C   0  0  0  0  0  0  0  0  0  0  0  0
    8.2557  -14.6521   25.9097 C   0  0  2  0  0  0  0  0  0  0  0  0
    7.7039  -15.4168   24.8155 N   0  0  0  0  0  0  0  0  0  0  0  0
    8.9287  -15.4802   26.9192 C   0  0  0  0  0  0  0  0  0  0  0  0
   10.1019  -15.0584   27.5323 O   0  0  0  0  0  0  0  0  0  0  0  0
    8.5088  -16.6120   27.3021 O   0  0  0  0  0  0  0  0  0  0  0  0
  2  1  1  6
  3  2  1  0
  4  2  1  0
  4  5  1  6
  6  4  1  0
  7  6  2  0
  8  6  1  0
  8 12  1  0
  9 10  1  0
  9  8  1  0
 10 11  1  0
 11 12  1  0
 12 13  1  1
 13 14  2  0
 16 15  1  0
 17 16  1  0
 17 18  1  1
 19 20  1  6
 19 17  1  0
 20 13  1  0
 21 19  1  0
 22 21  1  0
 23 21  2  0
M  END
$$$$
