TPI.pdb
     RDKit          3D

 23 23  0  0  1  0  0  0  0  0999 V2000
    8.3636  -20.0279   20.3841 C   0  0  0  0  0  0  0  0  0  0  0  0
    7.3713  -19.0033   19.8687 C   0  0  1  0  0  0  0  0  0  0  0  0
    6.2626  -19.7022   19.4049 O   0  0  0  0  0  0  0  0  0  0  0  0
    7.0060  -18.1139   21.0524 C   0  0  2  0  0  0  0  0  0  0  0  0
    5.6706  -17.6678   20.8661 N   0  0  0  0  0  0  0  0  0  0  0  0
    8.0139  -17.0790   21.2971 C   0  0  0  0  0  0  0  0  0  0  0  0
    9.2195  -17.5149   21.3640 O   0  0  0  0  0  0  0  0  0  0  0  0
    7.8136  -15.7047   21.4618 N   0  0  0  0  0  0  0  0  0  0  0  0
    6.6315  -14.8785   21.5570 C   0  0  0  0  0  0  0  0  0  0  0  0
    6.9320  -13.7810   20.5588 C   0  0  0  0  0  0  0  0  0  0  0  0
    8.3976  -13.5214   20.8252 C   0  0  0  0  0  0  0  0  0  0  0  0
    8.9058  -14.7257   21.5835 C   0  0  1  0  0  0  0  0  0  0  0  0
    9.1323  -14.3761   23.0064 C   0  0  0  0  0  0  0  0  0  0  0  0
   10.0989  -13.6192   23.2783 O   0  0  0  0  0  0  0  0  0  0  0  0
    5.9312  -11.9907   26.1020 C   0  0  0  0  0  0  0  0  0  0  0  0
    7.0523  -12.6500   25.3508 C   0  0  0  0  0  0  0  0  0  0  0  0
    7.6713  -13.7332   26.1502 C   0  0  2  0  0  0  0  0  0  0  0  0
    8.4075  -13.1348   27.3626 C   0  0  0  0  0  0  0  0  0  0  0  0
    8.6766  -14.5941   25.4554 C   0  0  2  0  0  0  0  0  0  0  0  0
    8.3463  -14.8289   24.0688 N   0  0  0  0  0  0  0  0  0  0  0  0
    9.0780  -15.8111   26.1735 C   0  0  0  0  0  0  0  0  0  0  0  0
    8.7445  -17.0727   25.6968 O   0  0  0  0  0  0  0  0  0  0  0  0
    9.7401  -15.8113   27.2531 O   0  0  0  0  0  0  0  0  0  0  0  0
  2  1  1  1
  3  2  1  0
  4  2  1  0
  4  5  1  6
  6  4  1  0
  7  6  2  0
  8  6  1  0
  8 12  1  0
  9 10  1  0
  9  8  1  0
 10 11  1  0
 11 12  1  0
 12 13  1  1
 13 14  2  0
 16 15  1  0
 17 16  1  0
 17 18  1  1
 19 20  1  6
 19 17  1  0
 20 13  1  0
 21 19  1  0
 22 21  1  0
 23 21  2  0
M  END
$$$$
