TPI.pdb
     RDKit          3D

 23 23  0  0  1  0  0  0  0  0999 V2000
   10.0617  -19.5847   19.3094 C   0  0  0  0  0  0  0  0  0  0  0  0
    9.6075  -18.5773   20.3482 C   0  0  1  0  0  0  0  0  0  0  0  0
    9.9148  -19.1071   21.5962 O   0  0  0  0  0  0  0  0  0  0  0  0
   10.3904  -17.2952   20.0861 C   0  0  2  0  0  0  0  0  0  0  0  0
   11.7713  -17.6258   20.0604 N   0  0  0  0  0  0  0  0  0  0  0  0
    9.9933  -16.2114   20.9886 C   0  0  0  0  0  0  0  0  0  0  0  0
   10.9284  -15.7932   21.7623 O   0  0  0  0  0  0  0  0  0  0  0  0
    8.7413  -15.5980   21.0980 N   0  0  0  0  0  0  0  0  0  0  0  0
    7.4699  -15.8141   20.4454 C   0  0  0  0  0  0  0  0  0  0  0  0
    7.0936  -14.4126   20.0148 C   0  0  0  0  0  0  0  0  0  0  0  0
    7.5106  -13.6022   21.2213 C   0  0  0  0  0  0  0  0  0  0  0  0
    8.4527  -14.4807   22.0115 C   0  0  1  0  0  0  0  0  0  0  0  0
    7.7835  -14.9743   23.2389 C   0  0  0  0  0  0  0  0  0  0  0  0
    7.5270  -16.2031   23.3141 O   0  0  0  0  0  0  0  0  0  0  0  0
    5.8040  -11.6954   27.4801 C   0  0  0  0  0  0  0  0  0  0  0  0
    6.1950  -12.5587   26.3148 C   0  0  0  0  0  0  0  0  0  0  0  0
    7.3522  -13.4216   26.6493 C   0  0  2  0  0  0  0  0  0  0  0  0
    8.6338  -12.5724   26.7286 C   0  0  0  0  0  0  0  0  0  0  0  0
    7.6640  -14.5307   25.6969 C   0  0  2  0  0  0  0  0  0  0  0  0
    7.4168  -14.1696   24.3202 N   0  0  0  0  0  0  0  0  0  0  0  0
    7.1297  -15.8503   26.0588 C   0  0  0  0  0  0  0  0  0  0  0  0
    6.2583  -16.5308   25.2174 O   0  0  0  0  0  0  0  0  0  0  0  0
    7.4096  -16.4579   27.1341 O   0  0  0  0  0  0  0  0  0  0  0  0
  2  1  1  6
  3  2  1  0
  4  2  1  0
  4  5  1  1
  6  4  1  0
  7  6  2  0
  8  6  1  0
  8 12  1  0
  9 10  1  0
  9  8  1  0
 10 11  1  0
 11 12  1  0
 12 13  1  1
 13 14  2  0
 16 15  1  0
 17 16  1  0
 17 18  1  6
 19 20  1  6
 19 17  1  0
 20 13  1  0
 21 19  1  0
 22 21  1  0
 23 21  2  0
M  END
$$$$
