TPI.pdb
     RDKit          3D

 23 23  0  0  1  0  0  0  0  0999 V2000
    5.8430  -17.8839   22.3606 C   0  0  0  0  0  0  0  0  0  0  0  0
    6.7410  -18.8013   21.5528 C   0  0  1  0  0  0  0  0  0  0  0  0
    5.9448  -19.8322   21.0670 O   0  0  0  0  0  0  0  0  0  0  0  0
    7.3120  -17.9630   20.4140 C   0  0  2  0  0  0  0  0  0  0  0  0
    7.8584  -18.8519   19.4506 N   0  0  0  0  0  0  0  0  0  0  0  0
    8.1959  -16.9003   20.9000 C   0  0  0  0  0  0  0  0  0  0  0  0
    9.4267  -17.2447   21.0198 O   0  0  0  0  0  0  0  0  0  0  0  0
    7.8565  -15.5867   21.2392 N   0  0  0  0  0  0  0  0  0  0  0  0
    6.5962  -14.9027   21.4209 C   0  0  0  0  0  0  0  0  0  0  0  0
    6.7877  -13.6589   20.5797 C   0  0  0  0  0  0  0  0  0  0  0  0
    8.2183  -13.2912   20.9031 C   0  0  0  0  0  0  0  0  0  0  0  0
    8.8431  -14.5278   21.5064 C   0  0  1  0  0  0  0  0  0  0  0  0
    9.0273  -14.3476   22.9664 C   0  0  0  0  0  0  0  0  0  0  0  0
    9.9424  -13.5760   23.3519 O   0  0  0  0  0  0  0  0  0  0  0  0
    6.6938  -11.2784   26.1522 C   0  0  0  0  0  0  0  0  0  0  0  0
    7.7570  -12.2047   25.6347 C   0  0  0  0  0  0  0  0  0  0  0  0
    7.3489  -13.6224   25.7732 C   0  0  2  0  0  0  0  0  0  0  0  0
    7.0283  -13.9341   27.2463 C   0  0  0  0  0  0  0  0  0  0  0  0
    8.3444  -14.6550   25.3521 C   0  0  2  0  0  0  0  0  0  0  0  0
    8.2548  -14.9754   23.9464 N   0  0  0  0  0  0  0  0  0  0  0  0
    8.4374  -15.8397   26.2157 C   0  0  0  0  0  0  0  0  0  0  0  0
    9.2548  -15.8507   27.3390 O   0  0  0  0  0  0  0  0  0  0  0  0
    7.8006  -16.9156   26.0140 O   0  0  0  0  0  0  0  0  0  0  0  0
  2  1  1  1
  3  2  1  0
  4  2  1  0
  4  5  1  6
  6  4  1  0
  7  6  2  0
  8  6  1  0
  8 12  1  0
  9 10  1  0
  9  8  1  0
 10 11  1  0
 11 12  1  0
 12 13  1  1
 13 14  2  0
 16 15  1  0
 17 16  1  0
 17 18  1  1
 19 20  1  6
 19 17  1  0
 20 13  1  0
 21 19  1  0
 22 21  1  0
 23 21  2  0
M  END
$$$$
