TPI.pdb
     RDKit          3D

 23 23  0  0  1  0  0  0  0  0999 V2000
    8.8413  -19.0578   21.0127 C   0  0  0  0  0  0  0  0  0  0  0  0
   10.1766  -18.6640   20.4110 C   0  0  1  0  0  0  0  0  0  0  0  0
   10.3555  -19.4345   19.2678 O   0  0  0  0  0  0  0  0  0  0  0  0
   10.0813  -17.1815   20.0667 C   0  0  2  0  0  0  0  0  0  0  0  0
   11.1425  -16.8724   19.1749 N   0  0  0  0  0  0  0  0  0  0  0  0
    9.9660  -16.3430   21.2627 C   0  0  0  0  0  0  0  0  0  0  0  0
   11.0805  -15.8744   21.6940 O   0  0  0  0  0  0  0  0  0  0  0  0
    8.8067  -16.0055   21.9684 N   0  0  0  0  0  0  0  0  0  0  0  0
    7.4245  -16.4137   21.8598 C   0  0  0  0  0  0  0  0  0  0  0  0
    6.7017  -15.0837   21.8552 C   0  0  0  0  0  0  0  0  0  0  0  0
    7.4722  -14.3160   22.9055 C   0  0  0  0  0  0  0  0  0  0  0  0
    8.7779  -15.0539   23.0908 C   0  0  1  0  0  0  0  0  0  0  0  0
    8.7770  -15.7783   24.3844 C   0  0  0  0  0  0  0  0  0  0  0  0
    8.4332  -16.9878   24.3798 O   0  0  0  0  0  0  0  0  0  0  0  0
    9.9988  -13.4174   29.5485 C   0  0  0  0  0  0  0  0  0  0  0  0
    9.3335  -14.2479   28.4885 C   0  0  0  0  0  0  0  0  0  0  0  0
   10.3225  -15.0618   27.7434 C   0  0  2  0  0  0  0  0  0  0  0  0
   11.3463  -14.1413   27.0545 C   0  0  0  0  0  0  0  0  0  0  0  0
    9.7902  -15.9485   26.6641 C   0  0  2  0  0  0  0  0  0  0  0  0
    9.1316  -15.2112   25.6108 N   0  0  0  0  0  0  0  0  0  0  0  0
    9.0300  -17.1201   27.1194 C   0  0  0  0  0  0  0  0  0  0  0  0
    7.7055  -17.3100   26.7453 O   0  0  0  0  0  0  0  0  0  0  0  0
    9.5036  -18.0255   27.8676 O   0  0  0  0  0  0  0  0  0  0  0  0
  2  1  1  6
  3  2  1  0
  4  2  1  0
  4  5  1  1
  6  4  1  0
  7  6  2  0
  8  6  1  0
  8 12  1  0
  9 10  1  0
  9  8  1  0
 10 11  1  0
 11 12  1  0
 12 13  1  1
 13 14  2  0
 16 15  1  0
 17 16  1  0
 17 18  1  6
 19 20  1  6
 19 17  1  0
 20 13  1  0
 21 19  1  0
 22 21  1  0
 23 21  2  0
M  END
$$$$
