TPI.pdb
     RDKit          3D

 23 23  0  0  1  0  0  0  0  0999 V2000
    4.4574  -16.5606   21.5739 C   0  0  0  0  0  0  0  0  0  0  0  0
    5.1505  -17.8843   21.3137 C   0  0  1  0  0  0  0  0  0  0  0  0
    4.1976  -18.7515   20.7917 O   0  0  0  0  0  0  0  0  0  0  0  0
    6.2567  -17.6074   20.3012 C   0  0  2  0  0  0  0  0  0  0  0  0
    6.6626  -18.8512   19.7487 N   0  0  0  0  0  0  0  0  0  0  0  0
    7.3157  -16.7615   20.8578 C   0  0  0  0  0  0  0  0  0  0  0  0
    8.3190  -17.4070   21.3317 O   0  0  0  0  0  0  0  0  0  0  0  0
    7.3539  -15.3653   20.9283 N   0  0  0  0  0  0  0  0  0  0  0  0
    6.4348  -14.3257   20.5238 C   0  0  0  0  0  0  0  0  0  0  0  0
    7.3369  -13.3917   19.7459 C   0  0  0  0  0  0  0  0  0  0  0  0
    8.5840  -13.3923   20.6009 C   0  0  0  0  0  0  0  0  0  0  0  0
    8.4768  -14.6035   21.4982 C   0  0  1  0  0  0  0  0  0  0  0  0
    8.1680  -14.1858   22.8867 C   0  0  0  0  0  0  0  0  0  0  0  0
    7.4784  -13.1466   23.0476 O   0  0  0  0  0  0  0  0  0  0  0  0
    6.7036  -11.7125   27.2775 C   0  0  0  0  0  0  0  0  0  0  0  0
    7.9153  -12.5410   26.9591 C   0  0  0  0  0  0  0  0  0  0  0  0
    7.6972  -13.3704   25.7507 C   0  0  2  0  0  0  0  0  0  0  0  0
    6.5361  -14.3522   25.9914 C   0  0  0  0  0  0  0  0  0  0  0  0
    8.8454  -14.2113   25.2936 C   0  0  2  0  0  0  0  0  0  0  0  0
    8.5896  -14.8661   24.0317 N   0  0  0  0  0  0  0  0  0  0  0  0
    9.4247  -15.1034   26.3068 C   0  0  0  0  0  0  0  0  0  0  0  0
    9.5581  -16.4668   26.0753 O   0  0  0  0  0  0  0  0  0  0  0  0
    9.8372  -14.7161   27.4398 O   0  0  0  0  0  0  0  0  0  0  0  0
  2  1  1  6
  3  2  1  0
  4  2  1  0
  4  5  1  1
  6  4  1  0
  7  6  2  0
  8  6  1  0
  8 12  1  0
  9 10  1  0
  9  8  1  0
 10 11  1  0
 11 12  1  0
 12 13  1  1
 13 14  2  0
 16 15  1  0
 17 16  1  0
 17 18  1  1
 19 20  1  6
 19 17  1  0
 20 13  1  0
 21 19  1  0
 22 21  1  0
 23 21  2  0
M  END
$$$$
