TPI.pdb
     RDKit          3D

 23 23  0  0  1  0  0  0  0  0999 V2000
   11.0127  -14.8211   20.2397 C   0  0  0  0  0  0  0  0  0  0  0  0
   10.5087  -13.5490   19.5857 C   0  0  1  0  0  0  0  0  0  0  0  0
   11.3223  -13.3021   18.4858 O   0  0  0  0  0  0  0  0  0  0  0  0
    9.0700  -13.8176   19.1573 C   0  0  2  0  0  0  0  0  0  0  0  0
    8.6653  -12.7585   18.3020 N   0  0  0  0  0  0  0  0  0  0  0  0
    8.1985  -14.1063   20.2992 C   0  0  0  0  0  0  0  0  0  0  0  0
    7.5428  -13.0937   20.7381 O   0  0  0  0  0  0  0  0  0  0  0  0
    8.0067  -15.3306   20.9473 N   0  0  0  0  0  0  0  0  0  0  0  0
    8.6055  -16.6375   20.7972 C   0  0  0  0  0  0  0  0  0  0  0  0
    7.3893  -17.5354   20.7216 C   0  0  0  0  0  0  0  0  0  0  0  0
    6.4949  -16.9243   21.7765 C   0  0  0  0  0  0  0  0  0  0  0  0
    7.0394  -15.5389   22.0368 C   0  0  1  0  0  0  0  0  0  0  0  0
    7.7229  -15.4965   23.3518 C   0  0  0  0  0  0  0  0  0  0  0  0
    8.9112  -15.9037   23.4092 O   0  0  0  0  0  0  0  0  0  0  0  0
    5.7525  -12.0208   27.3927 C   0  0  0  0  0  0  0  0  0  0  0  0
    6.0229  -13.2686   26.6016 C   0  0  0  0  0  0  0  0  0  0  0  0
    7.4749  -13.4567   26.3735 C   0  0  2  0  0  0  0  0  0  0  0  0
    8.0114  -12.3385   25.4615 C   0  0  0  0  0  0  0  0  0  0  0  0
    7.8959  -14.7376   25.7281 C   0  0  2  0  0  0  0  0  0  0  0  0
    7.1392  -15.0354   24.5342 N   0  0  0  0  0  0  0  0  0  0  0  0
    8.0396  -15.8882   26.6299 C   0  0  0  0  0  0  0  0  0  0  0  0
    8.9976  -15.9004   27.6360 O   0  0  0  0  0  0  0  0  0  0  0  0
    7.3251  -16.9319   26.5668 O   0  0  0  0  0  0  0  0  0  0  0  0
  2  1  1  6
  3  2  1  0
  4  2  1  0
  4  5  1  1
  6  4  1  0
  7  6  2  0
  8  6  1  0
  8 12  1  0
  9 10  1  0
  9  8  1  0
 10 11  1  0
 11 12  1  0
 12 13  1  1
 13 14  2  0
 16 15  1  0
 17 16  1  0
 17 18  1  6
 19 20  1  6
 19 17  1  0
 20 13  1  0
 21 19  1  0
 22 21  1  0
 23 21  2  0
M  END
$$$$
