TPI.pdb
     RDKit          3D

 23 23  0  0  1  0  0  0  0  0999 V2000
   10.7788  -14.9248   20.0310 C   0  0  0  0  0  0  0  0  0  0  0  0
   10.2802  -13.5758   19.5497 C   0  0  1  0  0  0  0  0  0  0  0  0
   10.9988  -13.2574   18.4030 O   0  0  0  0  0  0  0  0  0  0  0  0
    8.7961  -13.7424   19.2412 C   0  0  2  0  0  0  0  0  0  0  0  0
    8.3674  -12.5909   18.5290 N   0  0  0  0  0  0  0  0  0  0  0  0
    8.0216  -14.1018   20.4319 C   0  0  0  0  0  0  0  0  0  0  0  0
    7.3973  -13.1215   20.9770 O   0  0  0  0  0  0  0  0  0  0  0  0
    7.8903  -15.3614   21.0251 N   0  0  0  0  0  0  0  0  0  0  0  0
    8.5194  -16.6408   20.7873 C   0  0  0  0  0  0  0  0  0  0  0  0
    7.3270  -17.5704   20.7137 C   0  0  0  0  0  0  0  0  0  0  0  0
    6.4583  -17.0385   21.8311 C   0  0  0  0  0  0  0  0  0  0  0  0
    6.9733  -15.6516   22.1391 C   0  0  1  0  0  0  0  0  0  0  0  0
    7.7068  -15.6527   23.4274 C   0  0  0  0  0  0  0  0  0  0  0  0
    8.9127  -16.0090   23.4162 O   0  0  0  0  0  0  0  0  0  0  0  0
    5.7456  -12.1119   27.2645 C   0  0  0  0  0  0  0  0  0  0  0  0
    6.0447  -13.4096   26.5698 C   0  0  0  0  0  0  0  0  0  0  0  0
    7.5037  -13.6045   26.3994 C   0  0  2  0  0  0  0  0  0  0  0  0
    8.0753  -12.5089   25.4814 C   0  0  0  0  0  0  0  0  0  0  0  0
    7.9455  -14.9008   25.8003 C   0  0  2  0  0  0  0  0  0  0  0  0
    7.1523  -15.2852   24.6558 N   0  0  0  0  0  0  0  0  0  0  0  0
    8.1688  -15.9985   26.7505 C   0  0  0  0  0  0  0  0  0  0  0  0
    9.1114  -15.8928   27.7656 O   0  0  0  0  0  0  0  0  0  0  0  0
    7.5407  -17.0979   26.7239 O   0  0  0  0  0  0  0  0  0  0  0  0
  2  1  1  6
  3  2  1  0
  4  2  1  0
  4  5  1  1
  6  4  1  0
  7  6  2  0
  8  6  1  0
  8 12  1  0
  9 10  1  0
  9  8  1  0
 10 11  1  0
 11 12  1  0
 12 13  1  1
 13 14  2  0
 16 15  1  0
 17 16  1  0
 17 18  1  6
 19 20  1  6
 19 17  1  0
 20 13  1  0
 21 19  1  0
 22 21  1  0
 23 21  2  0
M  END
$$$$
