TPI.pdb
     RDKit          3D

 23 23  0  0  1  0  0  0  0  0999 V2000
    4.5105  -19.2026   22.3205 C   0  0  0  0  0  0  0  0  0  0  0  0
    5.7235  -18.3303   22.5811 C   0  0  1  0  0  0  0  0  0  0  0  0
    6.5399  -19.0174   23.4722 O   0  0  0  0  0  0  0  0  0  0  0  0
    6.4177  -18.1335   21.2376 C   0  0  2  0  0  0  0  0  0  0  0  0
    6.6533  -19.4170   20.6771 N   0  0  0  0  0  0  0  0  0  0  0  0
    7.5752  -17.2411   21.3396 C   0  0  0  0  0  0  0  0  0  0  0  0
    8.7113  -17.8268   21.2209 O   0  0  0  0  0  0  0  0  0  0  0  0
    7.5798  -15.8580   21.5467 N   0  0  0  0  0  0  0  0  0  0  0  0
    6.5325  -14.8694   21.6692 C   0  0  0  0  0  0  0  0  0  0  0  0
    6.9947  -13.7983   20.7045 C   0  0  0  0  0  0  0  0  0  0  0  0
    8.4818  -13.7665   20.9763 C   0  0  0  0  0  0  0  0  0  0  0  0
    8.8043  -15.0554   21.6965 C   0  0  1  0  0  0  0  0  0  0  0  0
    9.0759  -14.7868   23.1290 C   0  0  0  0  0  0  0  0  0  0  0  0
   10.1797  -14.2645   23.4294 O   0  0  0  0  0  0  0  0  0  0  0  0
    5.7697  -12.1260   26.0634 C   0  0  0  0  0  0  0  0  0  0  0  0
    6.8473  -12.8739   25.3317 C   0  0  0  0  0  0  0  0  0  0  0  0
    7.4683  -13.9049   26.1961 C   0  0  2  0  0  0  0  0  0  0  0  0
    8.1923  -13.2324   27.3766 C   0  0  0  0  0  0  0  0  0  0  0  0
    8.4838  -14.7973   25.5584 C   0  0  2  0  0  0  0  0  0  0  0  0
    8.1908  -15.0733   24.1711 N   0  0  0  0  0  0  0  0  0  0  0  0
    8.8518  -15.9943   26.3262 C   0  0  0  0  0  0  0  0  0  0  0  0
   10.0044  -16.0275   27.1012 O   0  0  0  0  0  0  0  0  0  0  0  0
    8.1708  -17.0618   26.3445 O   0  0  0  0  0  0  0  0  0  0  0  0
  2  1  1  6
  3  2  1  0
  4  2  1  0
  4  5  1  1
  6  4  1  0
  7  6  2  0
  8  6  1  0
  8 12  1  0
  9 10  1  0
  9  8  1  0
 10 11  1  0
 11 12  1  0
 12 13  1  1
 13 14  2  0
 16 15  1  0
 17 16  1  0
 17 18  1  1
 19 20  1  6
 19 17  1  0
 20 13  1  0
 21 19  1  0
 22 21  1  0
 23 21  2  0
M  END
$$$$
