TPI.pdb
     RDKit          3D

 23 23  0  0  1  0  0  0  0  0999 V2000
    9.7472  -14.0206   17.8855 C   0  0  0  0  0  0  0  0  0  0  0  0
    9.3352  -14.2408   19.3284 C   0  0  1  0  0  0  0  0  0  0  0  0
    9.8428  -13.1783   20.0673 O   0  0  0  0  0  0  0  0  0  0  0  0
    7.8104  -14.2493   19.3517 C   0  0  2  0  0  0  0  0  0  0  0  0
    7.3596  -13.0248   18.7911 N   0  0  0  0  0  0  0  0  0  0  0  0
    7.2803  -14.5994   20.6719 C   0  0  0  0  0  0  0  0  0  0  0  0
    6.5710  -13.6814   21.2216 O   0  0  0  0  0  0  0  0  0  0  0  0
    7.4566  -15.7916   21.3815 N   0  0  0  0  0  0  0  0  0  0  0  0
    8.2525  -16.9757   21.1502 C   0  0  0  0  0  0  0  0  0  0  0  0
    7.2393  -18.0819   21.3525 C   0  0  0  0  0  0  0  0  0  0  0  0
    6.4692  -17.5728   22.5500 C   0  0  0  0  0  0  0  0  0  0  0  0
    6.7795  -16.0974   22.6520 C   0  0  1  0  0  0  0  0  0  0  0  0
    7.6866  -15.8434   23.7968 C   0  0  0  0  0  0  0  0  0  0  0  0
    8.9122  -16.0753   23.6376 O   0  0  0  0  0  0  0  0  0  0  0  0
    5.8586  -12.0219   27.5186 C   0  0  0  0  0  0  0  0  0  0  0  0
    6.2355  -13.3718   26.9785 C   0  0  0  0  0  0  0  0  0  0  0  0
    7.6036  -13.3605   26.4096 C   0  0  2  0  0  0  0  0  0  0  0  0
    7.6500  -12.4438   25.1738 C   0  0  0  0  0  0  0  0  0  0  0  0
    8.1564  -14.6734   25.9563 C   0  0  2  0  0  0  0  0  0  0  0  0
    7.2756  -15.3637   25.0428 N   0  0  0  0  0  0  0  0  0  0  0  0
    8.6928  -15.5385   27.0153 C   0  0  0  0  0  0  0  0  0  0  0  0
    8.2480  -16.8452   27.1731 O   0  0  0  0  0  0  0  0  0  0  0  0
    9.5770  -15.1765   27.8465 O   0  0  0  0  0  0  0  0  0  0  0  0
  2  1  1  6
  3  2  1  0
  4  2  1  0
  4  5  1  1
  6  4  1  0
  7  6  2  0
  8  6  1  0
  8 12  1  0
  9 10  1  0
  9  8  1  0
 10 11  1  0
 11 12  1  0
 12 13  1  1
 13 14  2  0
 16 15  1  0
 17 16  1  0
 17 18  1  6
 19 20  1  1
 19 17  1  0
 20 13  1  0
 21 19  1  0
 22 21  1  0
 23 21  2  0
M  END
$$$$
