LTE.pdb
     RDKit          3D

 25 24  0  0  1  0  0  0  0  0999 V2000
   13.1063  -18.3357   15.9253 C   0  0  0  0  0  0  0  0  0  0  0  0
   12.8589  -16.8262   15.9832 C   0  0  2  0  0  0  0  0  0  0  0  0
   13.8929  -16.1729   15.1278 C   0  0  0  0  0  0  0  0  0  0  0  0
   12.8611  -16.3437   17.4222 C   0  0  0  0  0  0  0  0  0  0  0  0
   12.5113  -14.8854   17.4436 C   0  0  2  0  0  0  0  0  0  0  0  0
   13.6830  -14.1077   17.0997 N   0  0  0  0  0  0  0  0  0  0  0  0
   11.8887  -14.4446   18.7032 C   0  0  0  0  0  0  0  0  0  0  0  0
   12.5905  -13.9006   19.5946 O   0  0  0  0  0  0  0  0  0  0  0  0
    8.4655  -12.4427   19.1616 C   0  0  0  0  0  0  0  0  0  0  0  0
    8.4830  -13.6593   20.0253 C   0  0  1  0  0  0  0  0  0  0  0  0
    7.6157  -14.6141   19.4500 O   0  0  0  0  0  0  0  0  0  0  0  0
    9.8646  -14.2418   20.2216 C   0  0  2  0  0  0  0  0  0  0  0  0
   10.5060  -14.5935   18.9962 N   0  0  0  0  0  0  0  0  0  0  0  0
    9.7189  -15.4234   21.1190 C   0  0  0  0  0  0  0  0  0  0  0  0
    9.7501  -16.5982   20.6700 O   0  0  0  0  0  0  0  0  0  0  0  0
    9.5422  -15.2339   22.4965 N   0  0  0  0  0  0  0  0  0  0  0  0
    9.8400  -16.3180   23.4917 C   0  0  1  0  0  0  0  0  0  0  0  0
   11.2619  -16.6444   23.2566 C   0  0  0  0  0  0  0  0  0  0  0  0
   11.9545  -17.6260   24.1036 C   0  0  0  0  0  0  0  0  0  0  0  0
   13.3588  -17.9081   23.8578 C   0  0  0  0  0  0  0  0  0  0  0  0
   14.2073  -17.7518   24.7717 O   0  0  0  0  0  0  0  0  0  0  0  0
    9.4690  -15.8269   24.8181 C   0  0  0  0  0  0  0  0  0  0  0  0
    9.1116  -16.7032   25.8624 O   0  0  0  0  0  0  0  0  0  0  0  0
   13.8154  -18.3562   22.6274 O   0  0  0  0  0  0  0  0  0  0  0  0
    9.4507  -14.6180   25.0886 O   0  0  0  0  0  0  0  0  0  0  0  0
  2  1  1  1
  2  3  1  0
  4  5  1  0
  4  2  1  0
  5  6  1  1
  7  5  1  0
  7  8  2  0
 10  9  1  6
 10 12  1  0
 11 10  1  0
 12 13  1  6
 13  7  1  0
 14 12  1  0
 15 14  2  0
 16 14  1  0
 17 16  1  0
 17 22  1  0
 17 18  1  1
 19 20  1  0
 19 18  1  0
 20 21  2  0
 22 23  1  0
 24 20  1  0
 25 22  2  0
M  END
$$$$
