LTE.pdb
     RDKit          3D

 25 24  0  0  1  0  0  0  0  0999 V2000
    9.3851  -13.0148   18.5235 C   0  0  0  0  0  0  0  0  0  0  0  0
    7.8921  -13.2463   18.7690 C   0  0  2  0  0  0  0  0  0  0  0  0
    7.2454  -11.9052   18.8737 C   0  0  0  0  0  0  0  0  0  0  0  0
    7.6856  -14.1223   19.9911 C   0  0  0  0  0  0  0  0  0  0  0  0
    8.3356  -15.4518   19.7482 C   0  0  2  0  0  0  0  0  0  0  0  0
    7.5151  -16.2265   18.8412 N   0  0  0  0  0  0  0  0  0  0  0  0
    8.6624  -16.1851   20.9828 C   0  0  0  0  0  0  0  0  0  0  0  0
    7.8490  -16.1940   21.9426 O   0  0  0  0  0  0  0  0  0  0  0  0
    8.4303  -19.3797   22.0977 C   0  0  0  0  0  0  0  0  0  0  0  0
    9.8902  -19.1139   22.2534 C   0  0  1  0  0  0  0  0  0  0  0  0
   10.5606  -19.7145   21.1650 O   0  0  0  0  0  0  0  0  0  0  0  0
   10.2307  -17.6434   22.3455 C   0  0  2  0  0  0  0  0  0  0  0  0
    9.8703  -16.9084   21.1766 N   0  0  0  0  0  0  0  0  0  0  0  0
   11.6931  -17.5483   22.6196 C   0  0  0  0  0  0  0  0  0  0  0  0
   12.5060  -17.1803   21.7328 O   0  0  0  0  0  0  0  0  0  0  0  0
   12.1858  -17.8739   23.8909 N   0  0  0  0  0  0  0  0  0  0  0  0
   13.6250  -17.6626   24.2626 C   0  0  1  0  0  0  0  0  0  0  0  0
   13.8622  -16.2296   23.9906 C   0  0  0  0  0  0  0  0  0  0  0  0
   15.1494  -15.6063   24.3305 C   0  0  0  0  0  0  0  0  0  0  0  0
   16.1687  -15.4799   23.3022 C   0  0  0  0  0  0  0  0  0  0  0  0
   17.3554  -15.8187   23.5395 O   0  0  0  0  0  0  0  0  0  0  0  0
   13.8095  -18.1300   25.6358 C   0  0  0  0  0  0  0  0  0  0  0  0
   14.9877  -18.7854   26.0463 O   0  0  0  0  0  0  0  0  0  0  0  0
   15.8811  -14.9910   22.0367 O   0  0  0  0  0  0  0  0  0  0  0  0
   12.9403  -17.9731   26.5046 O   0  0  0  0  0  0  0  0  0  0  0  0
  2  1  1  1
  2  3  1  0
  4  5  1  0
  4  2  1  0
  5  6  1  6
  7  5  1  0
  7  8  2  0
 10  9  1  6
 10 12  1  0
 11 10  1  0
 12 13  1  6
 13  7  1  0
 14 12  1  0
 15 14  2  0
 16 14  1  0
 17 16  1  0
 17 22  1  0
 17 18  1  1
 19 20  1  0
 19 18  1  0
 20 21  2  0
 22 23  1  0
 24 20  1  0
 25 22  2  0
M  END
$$$$
