LTE.pdb
     RDKit          3D

 25 24  0  0  1  0  0  0  0  0999 V2000
    8.5307  -13.8575   18.8150 C   0  0  0  0  0  0  0  0  0  0  0  0
    7.5543  -13.4102   19.9056 C   0  0  2  0  0  0  0  0  0  0  0  0
    7.6421  -11.9232   19.9985 C   0  0  0  0  0  0  0  0  0  0  0  0
    7.8548  -14.1237   21.2110 C   0  0  0  0  0  0  0  0  0  0  0  0
    7.5799  -15.5877   21.0362 C   0  0  2  0  0  0  0  0  0  0  0  0
    6.1951  -15.7719   20.6564 N   0  0  0  0  0  0  0  0  0  0  0  0
    7.9612  -16.4046   22.2007 C   0  0  0  0  0  0  0  0  0  0  0  0
    7.2914  -16.3356   23.2635 O   0  0  0  0  0  0  0  0  0  0  0  0
    7.2662  -19.3358   23.5348 C   0  0  0  0  0  0  0  0  0  0  0  0
    8.7375  -19.4608   23.3208 C   0  0  1  0  0  0  0  0  0  0  0  0
    8.9436  -20.1607   22.1115 O   0  0  0  0  0  0  0  0  0  0  0  0
    9.4606  -18.1329   23.2999 C   0  0  2  0  0  0  0  0  0  0  0  0
    9.0682  -17.2960   22.2127 N   0  0  0  0  0  0  0  0  0  0  0  0
   10.9211  -18.4295   23.2596 C   0  0  0  0  0  0  0  0  0  0  0  0
   11.5870  -18.3127   22.1987 O   0  0  0  0  0  0  0  0  0  0  0  0
   11.5787  -18.8491   24.4243 N   0  0  0  0  0  0  0  0  0  0  0  0
   13.0752  -18.9442   24.5005 C   0  0  1  0  0  0  0  0  0  0  0  0
   13.5441  -17.6024   24.0962 C   0  0  0  0  0  0  0  0  0  0  0  0
   14.5193  -17.4470   23.0074 C   0  0  0  0  0  0  0  0  0  0  0  0
   15.1748  -16.1633   22.8215 C   0  0  0  0  0  0  0  0  0  0  0  0
   15.0069  -15.2380   23.6552 O   0  0  0  0  0  0  0  0  0  0  0  0
   13.4298  -19.4093   25.8407 C   0  0  0  0  0  0  0  0  0  0  0  0
   12.8349  -18.8675   26.9976 O   0  0  0  0  0  0  0  0  0  0  0  0
   16.0011  -15.9087   21.7372 O   0  0  0  0  0  0  0  0  0  0  0  0
   14.2699  -20.3013   26.0246 O   0  0  0  0  0  0  0  0  0  0  0  0
  2  1  1  6
  2  3  1  0
  4  5  1  0
  4  2  1  0
  5  6  1  1
  7  5  1  0
  7  8  2  0
 10  9  1  6
 10 12  1  0
 11 10  1  0
 12 13  1  6
 13  7  1  0
 14 12  1  0
 15 14  2  0
 16 14  1  0
 17 16  1  0
 17 22  1  0
 17 18  1  1
 19 20  1  0
 19 18  1  0
 20 21  2  0
 22 23  1  0
 24 20  1  0
 25 22  2  0
M  END
$$$$
