LTE.pdb
     RDKit          3D

 25 24  0  0  1  0  0  0  0  0999 V2000
    9.3162  -11.6408   19.8163 C   0  0  0  0  0  0  0  0  0  0  0  0
    8.4231  -12.8260   19.4416 C   0  0  2  0  0  0  0  0  0  0  0  0
    7.5794  -12.3994   18.2867 C   0  0  0  0  0  0  0  0  0  0  0  0
    7.6234  -13.2886   20.6458 C   0  0  0  0  0  0  0  0  0  0  0  0
    7.6314  -14.7878   20.6846 C   0  0  2  0  0  0  0  0  0  0  0  0
    6.6437  -15.2953   19.7557 N   0  0  0  0  0  0  0  0  0  0  0  0
    7.4748  -15.3456   22.0384 C   0  0  0  0  0  0  0  0  0  0  0  0
    6.4842  -15.0192   22.7421 O   0  0  0  0  0  0  0  0  0  0  0  0
    6.3186  -18.3113   23.3342 C   0  0  0  0  0  0  0  0  0  0  0  0
    7.7010  -18.2452   23.8914 C   0  0  1  0  0  0  0  0  0  0  0  0
    8.5207  -19.1031   23.1253 O   0  0  0  0  0  0  0  0  0  0  0  0
    8.2740  -16.8461   23.9234 C   0  0  2  0  0  0  0  0  0  0  0  0
    8.3917  -16.2569   22.6291 N   0  0  0  0  0  0  0  0  0  0  0  0
    9.5965  -16.9294   24.6065 C   0  0  0  0  0  0  0  0  0  0  0  0
   10.6750  -16.8354   23.9656 O   0  0  0  0  0  0  0  0  0  0  0  0
    9.6527  -17.1169   25.9945 N   0  0  0  0  0  0  0  0  0  0  0  0
   10.9554  -17.2936   26.7197 C   0  0  1  0  0  0  0  0  0  0  0  0
   10.6467  -16.9178   28.1151 C   0  0  0  0  0  0  0  0  0  0  0  0
   11.6386  -17.1184   29.1812 C   0  0  0  0  0  0  0  0  0  0  0  0
   11.3269  -16.6782   30.5308 C   0  0  0  0  0  0  0  0  0  0  0  0
   10.2286  -16.1199   30.7787 O   0  0  0  0  0  0  0  0  0  0  0  0
   11.4269  -18.6559   26.4746 C   0  0  0  0  0  0  0  0  0  0  0  0
   12.7993  -18.9756   26.4541 O   0  0  0  0  0  0  0  0  0  0  0  0
   12.2105  -16.8538   31.5850 O   0  0  0  0  0  0  0  0  0  0  0  0
   10.6439  -19.5947   26.2730 O   0  0  0  0  0  0  0  0  0  0  0  0
  2  1  1  1
  2  3  1  0
  4  5  1  0
  4  2  1  0
  5  6  1  6
  7  5  1  0
  7  8  2  0
 10  9  1  6
 10 12  1  0
 11 10  1  0
 12 13  1  6
 13  7  1  0
 14 12  1  0
 15 14  2  0
 16 14  1  0
 17 16  1  0
 17 22  1  0
 17 18  1  1
 19 20  1  0
 19 18  1  0
 20 21  2  0
 22 23  1  0
 24 20  1  0
 25 22  2  0
M  END
$$$$
