LTE.pdb
     RDKit          3D

 25 24  0  0  1  0  0  0  0  0999 V2000
    7.1060  -12.0626   27.4954 C   0  0  0  0  0  0  0  0  0  0  0  0
    6.7988  -12.0958   25.9963 C   0  0  2  0  0  0  0  0  0  0  0  0
    6.0455  -10.8495   25.6690 C   0  0  0  0  0  0  0  0  0  0  0  0
    6.0590  -13.3708   25.6350 C   0  0  0  0  0  0  0  0  0  0  0  0
    6.9443  -14.5442   25.9323 C   0  0  2  0  0  0  0  0  0  0  0  0
    8.2209  -14.0680   26.4217 N   0  0  0  0  0  0  0  0  0  0  0  0
    7.0839  -15.4810   24.8046 C   0  0  0  0  0  0  0  0  0  0  0  0
    6.0594  -15.9123   24.2152 O   0  0  0  0  0  0  0  0  0  0  0  0
    6.5936  -15.7550   21.9243 C   0  0  0  0  0  0  0  0  0  0  0  0
    8.0380  -16.1268   21.8863 C   0  0  1  0  0  0  0  0  0  0  0  0
    8.7801  -14.9612   21.5936 O   0  0  0  0  0  0  0  0  0  0  0  0
    8.5313  -16.7679   23.1639 C   0  0  2  0  0  0  0  0  0  0  0  0
    8.3335  -15.9499   24.3163 N   0  0  0  0  0  0  0  0  0  0  0  0
    9.9734  -17.0893   22.9648 C   0  0  0  0  0  0  0  0  0  0  0  0
   10.8790  -16.2789   23.2901 O   0  0  0  0  0  0  0  0  0  0  0  0
   10.3414  -18.3197   22.4029 N   0  0  0  0  0  0  0  0  0  0  0  0
   11.7722  -18.7715   22.3490 C   0  0  1  0  0  0  0  0  0  0  0  0
   12.1754  -18.8665   23.7675 C   0  0  0  0  0  0  0  0  0  0  0  0
   11.8151  -20.0436   24.5708 C   0  0  0  0  0  0  0  0  0  0  0  0
   12.3998  -20.2060   25.8914 C   0  0  0  0  0  0  0  0  0  0  0  0
   11.7065  -20.0105   26.9212 O   0  0  0  0  0  0  0  0  0  0  0  0
   11.8297  -19.9925   21.5463 C   0  0  0  0  0  0  0  0  0  0  0  0
   10.6628  -20.6554   21.1162 O   0  0  0  0  0  0  0  0  0  0  0  0
   13.7234  -20.5792   26.0697 O   0  0  0  0  0  0  0  0  0  0  0  0
   12.9057  -20.5035   21.2055 O   0  0  0  0  0  0  0  0  0  0  0  0
  2  1  1  1
  2  3  1  0
  4  5  1  0
  4  2  1  0
  5  6  1  6
  7  5  1  0
  7  8  2  0
 10  9  1  1
 10 12  1  0
 11 10  1  0
 12 13  1  1
 13  7  1  0
 14 12  1  0
 15 14  2  0
 16 14  1  0
 17 16  1  0
 17 22  1  0
 17 18  1  1
 19 20  1  0
 19 18  1  0
 20 21  2  0
 22 23  1  0
 24 20  1  0
 25 22  2  0
M  END
$$$$
