LTE.pdb
     RDKit          3D

 25 24  0  0  1  0  0  0  0  0999 V2000
    2.3688  -18.1040   19.8788 C   0  0  0  0  0  0  0  0  0  0  0  0
    3.2857  -19.2712   20.2531 C   0  0  2  0  0  0  0  0  0  0  0  0
    2.6160  -20.0285   21.3511 C   0  0  0  0  0  0  0  0  0  0  0  0
    4.6692  -18.7631   20.6155 C   0  0  0  0  0  0  0  0  0  0  0  0
    5.2259  -18.0027   19.4488 C   0  0  2  0  0  0  0  0  0  0  0  0
    5.2449  -18.8617   18.2835 N   0  0  0  0  0  0  0  0  0  0  0  0
    6.5345  -17.3827   19.7166 C   0  0  0  0  0  0  0  0  0  0  0  0
    7.5882  -18.0581   19.5882 O   0  0  0  0  0  0  0  0  0  0  0  0
    6.8792  -13.3680   21.4893 C   0  0  0  0  0  0  0  0  0  0  0  0
    7.8463  -13.8900   20.4802 C   0  0  1  0  0  0  0  0  0  0  0  0
    9.1093  -13.3188   20.7514 O   0  0  0  0  0  0  0  0  0  0  0  0
    7.9369  -15.3993   20.4534 C   0  0  2  0  0  0  0  0  0  0  0  0
    6.7006  -16.0310   20.1233 N   0  0  0  0  0  0  0  0  0  0  0  0
    8.4299  -15.8328   21.7920 C   0  0  0  0  0  0  0  0  0  0  0  0
    7.6370  -16.0755   22.7381 O   0  0  0  0  0  0  0  0  0  0  0  0
    9.8064  -15.9767   22.0138 N   0  0  0  0  0  0  0  0  0  0  0  0
   10.3564  -16.3924   23.3476 C   0  0  1  0  0  0  0  0  0  0  0  0
   11.2114  -17.5575   23.0393 C   0  0  0  0  0  0  0  0  0  0  0  0
   10.8585  -18.8964   23.5329 C   0  0  0  0  0  0  0  0  0  0  0  0
   11.7350  -20.0160   23.2322 C   0  0  0  0  0  0  0  0  0  0  0  0
   12.8020  -19.8335   22.5937 O   0  0  0  0  0  0  0  0  0  0  0  0
   10.9959  -15.2260   23.9551 C   0  0  0  0  0  0  0  0  0  0  0  0
   10.6532  -14.7784   25.2467 O   0  0  0  0  0  0  0  0  0  0  0  0
   11.4389  -21.3107   23.6313 O   0  0  0  0  0  0  0  0  0  0  0  0
   11.8693  -14.5750   23.3648 O   0  0  0  0  0  0  0  0  0  0  0  0
  2  1  1  1
  2  3  1  0
  4  5  1  0
  4  2  1  0
  5  6  1  6
  7  5  1  0
  7  8  2  0
 10  9  1  1
 10 12  1  0
 11 10  1  0
 12 13  1  1
 13  7  1  0
 14 12  1  0
 15 14  2  0
 16 14  1  0
 17 16  1  0
 17 22  1  0
 17 18  1  6
 19 20  1  0
 19 18  1  0
 20 21  2  0
 22 23  1  0
 24 20  1  0
 25 22  2  0
M  END
$$$$
