LTE.pdb
     RDKit          3D

 25 24  0  0  1  0  0  0  0  0999 V2000
    8.8172  -11.9791   19.0715 C   0  0  0  0  0  0  0  0  0  0  0  0
    7.8771  -13.1624   18.8287 C   0  0  2  0  0  0  0  0  0  0  0  0
    6.5560  -12.6036   18.4163 C   0  0  0  0  0  0  0  0  0  0  0  0
    7.8098  -14.0471   20.0601 C   0  0  0  0  0  0  0  0  0  0  0  0
    9.2062  -14.3978   20.4802 C   0  0  2  0  0  0  0  0  0  0  0  0
    9.9363  -14.9045   19.3374 N   0  0  0  0  0  0  0  0  0  0  0  0
    9.2654  -15.3060   21.6380 C   0  0  0  0  0  0  0  0  0  0  0  0
    8.5405  -15.0907   22.6435 O   0  0  0  0  0  0  0  0  0  0  0  0
    9.4998  -19.4004   21.5092 C   0  0  0  0  0  0  0  0  0  0  0  0
   10.5429  -18.7698   22.3697 C   0  0  1  0  0  0  0  0  0  0  0  0
   11.7648  -18.7950   21.6618 O   0  0  0  0  0  0  0  0  0  0  0  0
   10.2022  -17.3601   22.7982 C   0  0  2  0  0  0  0  0  0  0  0  0
   10.1101  -16.4470   21.7055 N   0  0  0  0  0  0  0  0  0  0  0  0
   11.2438  -16.9355   23.7767 C   0  0  0  0  0  0  0  0  0  0  0  0
   12.2842  -16.3312   23.4093 O   0  0  0  0  0  0  0  0  0  0  0  0
   11.0712  -17.2104   25.1404 N   0  0  0  0  0  0  0  0  0  0  0  0
   12.0976  -16.8212   26.1647 C   0  0  1  0  0  0  0  0  0  0  0  0
   11.3057  -16.2337   27.2654 C   0  0  0  0  0  0  0  0  0  0  0  0
   10.7243  -14.8899   27.1346 C   0  0  0  0  0  0  0  0  0  0  0  0
   10.0127  -14.3131   28.2630 C   0  0  0  0  0  0  0  0  0  0  0  0
    9.3773  -13.2370   28.1299 O   0  0  0  0  0  0  0  0  0  0  0  0
   12.9035  -18.0032   26.4674 C   0  0  0  0  0  0  0  0  0  0  0  0
   14.1734  -17.9032   27.0702 O   0  0  0  0  0  0  0  0  0  0  0  0
   10.0019  -14.9151   29.5122 O   0  0  0  0  0  0  0  0  0  0  0  0
   12.5099  -19.1493   26.2091 O   0  0  0  0  0  0  0  0  0  0  0  0
  2  1  1  1
  2  3  1  0
  4  5  1  0
  4  2  1  0
  5  6  1  6
  7  5  1  0
  7  8  2  0
 10  9  1  6
 10 12  1  0
 11 10  1  0
 12 13  1  6
 13  7  1  0
 14 12  1  0
 15 14  2  0
 16 14  1  0
 17 16  1  0
 17 22  1  0
 17 18  1  1
 19 20  1  0
 19 18  1  0
 20 21  2  0
 22 23  1  0
 24 20  1  0
 25 22  2  0
M  END
$$$$
