LTE.pdb
     RDKit          3D

 25 24  0  0  1  0  0  0  0  0999 V2000
    9.9824  -12.8489   19.4395 C   0  0  0  0  0  0  0  0  0  0  0  0
    8.5067  -13.2329   19.3067 C   0  0  2  0  0  0  0  0  0  0  0  0
    7.7123  -11.9703   19.3564 C   0  0  0  0  0  0  0  0  0  0  0  0
    8.1229  -14.2398   20.3756 C   0  0  0  0  0  0  0  0  0  0  0  0
    9.0175  -15.4375   20.2550 C   0  0  2  0  0  0  0  0  0  0  0  0
    8.6602  -16.1833   19.0667 N   0  0  0  0  0  0  0  0  0  0  0  0
    9.0470  -16.2783   21.4637 C   0  0  0  0  0  0  0  0  0  0  0  0
    7.9933  -16.8335   21.8690 O   0  0  0  0  0  0  0  0  0  0  0  0
   10.5090  -19.5301   22.2243 C   0  0  0  0  0  0  0  0  0  0  0  0
   11.1110  -18.5842   23.2088 C   0  0  1  0  0  0  0  0  0  0  0  0
   12.4185  -18.2757   22.7727 O   0  0  0  0  0  0  0  0  0  0  0  0
   10.3019  -17.3222   23.4075 C   0  0  2  0  0  0  0  0  0  0  0  0
   10.2183  -16.5169   22.2324 N   0  0  0  0  0  0  0  0  0  0  0  0
   10.9254  -16.5749   24.5369 C   0  0  0  0  0  0  0  0  0  0  0  0
   11.9039  -15.8051   24.3558 O   0  0  0  0  0  0  0  0  0  0  0  0
   10.4189  -16.7254   25.8352 N   0  0  0  0  0  0  0  0  0  0  0  0
   11.0595  -16.0607   27.0193 C   0  0  1  0  0  0  0  0  0  0  0  0
   10.0768  -15.0389   27.4363 C   0  0  0  0  0  0  0  0  0  0  0  0
    9.2786  -14.3159   26.4358 C   0  0  0  0  0  0  0  0  0  0  0  0
    8.3289  -13.3095   26.8800 C   0  0  0  0  0  0  0  0  0  0  0  0
    7.5993  -12.7139   26.0478 O   0  0  0  0  0  0  0  0  0  0  0  0
   11.4061  -17.1005   27.9873 C   0  0  0  0  0  0  0  0  0  0  0  0
   12.1885  -16.8250   29.1267 O   0  0  0  0  0  0  0  0  0  0  0  0
    8.1872  -12.9701   28.2171 O   0  0  0  0  0  0  0  0  0  0  0  0
   11.0296  -18.2733   27.8534 O   0  0  0  0  0  0  0  0  0  0  0  0
  2  1  1  1
  2  3  1  0
  4  5  1  0
  4  2  1  0
  5  6  1  6
  7  5  1  0
  7  8  2  0
 10  9  1  6
 10 12  1  0
 11 10  1  0
 12 13  1  6
 13  7  1  0
 14 12  1  0
 15 14  2  0
 16 14  1  0
 17 16  1  0
 17 22  1  0
 17 18  1  1
 19 20  1  0
 19 18  1  0
 20 21  2  0
 22 23  1  0
 24 20  1  0
 25 22  2  0
M  END
$$$$
