NYL.pdb
     RDKit          3D

 29 29  0  0  1  0  0  0  0  0999 V2000
   13.2211  -17.0858   18.5836 N   0  0  0  0  0  0  0  0  0  0  0  0
   11.9597  -17.6846   18.8306 C   0  0  0  0  0  0  0  0  0  0  0  0
   11.8054  -18.8966   18.5237 O   0  0  0  0  0  0  0  0  0  0  0  0
   10.8443  -16.8984   19.4384 C   0  0  0  0  0  0  0  0  0  0  0  0
   10.7447  -17.2716   20.9201 C   0  0  2  0  0  0  0  0  0  0  0  0
   10.6177  -18.6895   21.0508 N   0  0  0  0  0  0  0  0  0  0  0  0
    9.6690  -16.5179   21.5861 C   0  0  0  0  0  0  0  0  0  0  0  0
    9.6882  -15.2573   21.4541 O   0  0  0  0  0  0  0  0  0  0  0  0
    7.4493  -20.0156   28.0233 O   0  0  0  0  0  0  0  0  0  0  0  0
    7.2049  -19.3238   26.8341 C   0  0  0  0  0  0  0  0  0  0  0  0
    6.4408  -18.1787   26.8921 C   0  0  0  0  0  0  0  0  0  0  0  0
    6.2057  -17.5038   25.7131 C   0  0  0  0  0  0  0  0  0  0  0  0
    6.7104  -17.9404   24.4889 C   0  0  0  0  0  0  0  0  0  0  0  0
    6.4291  -17.1972   23.2450 C   0  0  0  0  0  0  0  0  0  0  0  0
    7.5459  -16.2937   22.8209 C   0  0  2  0  0  0  0  0  0  0  0  0
    8.6382  -17.1207   22.3492 N   0  0  0  0  0  0  0  0  0  0  0  0
    7.9893  -15.3394   23.8616 C   0  0  0  0  0  0  0  0  0  0  0  0
    7.6015  -14.1510   23.7855 O   0  0  0  0  0  0  0  0  0  0  0  0
    7.4717  -19.0843   24.4426 C   0  0  0  0  0  0  0  0  0  0  0  0
    7.7049  -19.7568   25.6228 C   0  0  0  0  0  0  0  0  0  0  0  0
    8.5054  -11.9555   25.3131 C   0  0  0  0  0  0  0  0  0  0  0  0
    7.4931  -13.0660   25.6106 C   0  0  2  0  0  0  0  0  0  0  0  0
    6.2730  -12.4467   26.1917 C   0  0  0  0  0  0  0  0  0  0  0  0
    8.1537  -14.0717   26.5089 C   0  0  0  0  0  0  0  0  0  0  0  0
    9.3478  -14.7368   25.9169 C   0  0  2  0  0  0  0  0  0  0  0  0
    8.8348  -15.7128   24.9419 N   0  0  0  0  0  0  0  0  0  0  0  0
   10.1983  -15.4449   26.8949 C   0  0  0  0  0  0  0  0  0  0  0  0
   10.4330  -16.8091   26.8119 O   0  0  0  0  0  0  0  0  0  0  0  0
   10.7426  -14.8241   27.8454 O   0  0  0  0  0  0  0  0  0  0  0  0
  1  2  1  0
  2  3  2  0
  4  2  1  0
  5  4  1  0
  5  6  1  6
  7  8  2  0
  7  5  1  0
  9 10  1  0
 10 20  2  0
 10 11  1  0
 11 12  2  0
 12 13  1  0
 13 14  1  0
 15 14  1  1
 15 16  1  0
 16  7  1  0
 17 15  1  0
 17 18  2  0
 19 13  2  0
 20 19  1  0
 22 23  1  1
 22 21  1  0
 24 22  1  0
 25 24  1  1
 25 26  1  0
 26 17  1  0
 27 25  1  0
 28 27  1  0
 29 27  2  0
M  END
$$$$
