NYL.pdb
     RDKit          3D

 29 29  0  0  1  0  0  0  0  0999 V2000
    8.9786  -13.0632   19.6200 N   0  0  0  0  0  0  0  0  0  0  0  0
    8.3443  -14.3130   19.8354 C   0  0  0  0  0  0  0  0  0  0  0  0
    7.6445  -14.7940   18.9048 O   0  0  0  0  0  0  0  0  0  0  0  0
    8.5023  -15.0391   21.1314 C   0  0  0  0  0  0  0  0  0  0  0  0
    9.9333  -15.5784   21.2091 C   0  0  2  0  0  0  0  0  0  0  0  0
   10.1395  -16.5441   20.1753 N   0  0  0  0  0  0  0  0  0  0  0  0
   10.2377  -16.0831   22.5587 C   0  0  0  0  0  0  0  0  0  0  0  0
   10.0411  -17.3183   22.7648 O   0  0  0  0  0  0  0  0  0  0  0  0
   11.6336  -16.4352   31.2525 O   0  0  0  0  0  0  0  0  0  0  0  0
   11.6057  -16.0491   29.9099 C   0  0  0  0  0  0  0  0  0  0  0  0
   12.1347  -16.9104   28.9734 C   0  0  0  0  0  0  0  0  0  0  0  0
   12.1021  -16.5198   27.6516 C   0  0  0  0  0  0  0  0  0  0  0  0
   11.5591  -15.3014   27.2458 C   0  0  0  0  0  0  0  0  0  0  0  0
   11.5511  -14.9122   25.8220 C   0  0  0  0  0  0  0  0  0  0  0  0
   10.6934  -15.7916   24.9649 C   0  0  2  0  0  0  0  0  0  0  0  0
   10.7284  -15.2725   23.6126 N   0  0  0  0  0  0  0  0  0  0  0  0
    9.3065  -15.9572   25.4540 C   0  0  0  0  0  0  0  0  0  0  0  0
    9.1127  -16.6617   26.4711 O   0  0  0  0  0  0  0  0  0  0  0  0
   11.0339  -14.4496   28.1887 C   0  0  0  0  0  0  0  0  0  0  0  0
   11.0680  -14.8429   29.5091 C   0  0  0  0  0  0  0  0  0  0  0  0
    6.1450  -12.8520   27.1152 C   0  0  0  0  0  0  0  0  0  0  0  0
    6.7774  -13.0518   25.7344 C   0  0  2  0  0  0  0  0  0  0  0  0
    6.6420  -11.7856   24.9675 C   0  0  0  0  0  0  0  0  0  0  0  0
    6.1157  -14.2326   25.0841 C   0  0  0  0  0  0  0  0  0  0  0  0
    6.8104  -15.5306   25.3104 C   0  0  2  0  0  0  0  0  0  0  0  0
    8.1867  -15.3523   24.8202 N   0  0  0  0  0  0  0  0  0  0  0  0
    6.2013  -16.6781   24.6080 C   0  0  0  0  0  0  0  0  0  0  0  0
    6.8657  -17.3578   23.5982 O   0  0  0  0  0  0  0  0  0  0  0  0
    5.0462  -17.0792   24.9082 O   0  0  0  0  0  0  0  0  0  0  0  0
  1  2  1  0
  2  3  2  0
  4  2  1  0
  5  4  1  0
  5  6  1  6
  7  8  2  0
  7  5  1  0
  9 10  1  0
 10 20  2  0
 10 11  1  0
 11 12  2  0
 12 13  1  0
 13 14  1  0
 15 14  1  1
 15 16  1  0
 16  7  1  0
 17 15  1  0
 17 18  2  0
 19 13  2  0
 20 19  1  0
 22 23  1  6
 22 21  1  0
 24 22  1  0
 25 24  1  6
 25 26  1  0
 26 17  1  0
 27 25  1  0
 28 27  1  0
 29 27  2  0
M  END
$$$$
