NYL.pdb
     RDKit          3D

 29 29  0  0  1  0  0  0  0  0999 V2000
    9.8732  -20.7154   19.0237 N   0  0  0  0  0  0  0  0  0  0  0  0
   10.3414  -19.6268   18.2451 C   0  0  0  0  0  0  0  0  0  0  0  0
   10.7708  -19.8653   17.0850 O   0  0  0  0  0  0  0  0  0  0  0  0
   10.3256  -18.2346   18.7868 C   0  0  0  0  0  0  0  0  0  0  0  0
    9.8459  -18.2895   20.2399 C   0  0  2  0  0  0  0  0  0  0  0  0
    8.4860  -18.7286   20.2806 N   0  0  0  0  0  0  0  0  0  0  0  0
   10.0729  -17.0045   20.9226 C   0  0  0  0  0  0  0  0  0  0  0  0
   11.2753  -16.6164   21.0251 O   0  0  0  0  0  0  0  0  0  0  0  0
    7.2593  -13.3055   16.4165 O   0  0  0  0  0  0  0  0  0  0  0  0
    7.5427  -13.4601   17.7761 C   0  0  0  0  0  0  0  0  0  0  0  0
    6.8582  -14.4283   18.4779 C   0  0  0  0  0  0  0  0  0  0  0  0
    7.1454  -14.5726   19.8187 C   0  0  0  0  0  0  0  0  0  0  0  0
    8.0906  -13.7809   20.4696 C   0  0  0  0  0  0  0  0  0  0  0  0
    8.3642  -13.9572   21.9094 C   0  0  0  0  0  0  0  0  0  0  0  0
    9.3909  -15.0082   22.2003 C   0  0  2  0  0  0  0  0  0  0  0  0
    9.0356  -16.2007   21.4577 N   0  0  0  0  0  0  0  0  0  0  0  0
    9.5824  -15.2943   23.6396 C   0  0  0  0  0  0  0  0  0  0  0  0
   10.7516  -15.3829   24.0797 O   0  0  0  0  0  0  0  0  0  0  0  0
    8.7678  -12.8178   19.7596 C   0  0  0  0  0  0  0  0  0  0  0  0
    8.4785  -12.6760   18.4196 C   0  0  0  0  0  0  0  0  0  0  0  0
    5.8480  -12.3332   27.0460 C   0  0  0  0  0  0  0  0  0  0  0  0
    7.1794  -13.0867   27.1231 C   0  0  2  0  0  0  0  0  0  0  0  0
    8.2634  -12.1012   27.3751 C   0  0  0  0  0  0  0  0  0  0  0  0
    7.3485  -13.8678   25.8519 C   0  0  0  0  0  0  0  0  0  0  0  0
    8.4701  -14.8476   25.8748 C   0  0  2  0  0  0  0  0  0  0  0  0
    8.4987  -15.4724   24.5425 N   0  0  0  0  0  0  0  0  0  0  0  0
    8.3320  -15.9081   26.8935 C   0  0  0  0  0  0  0  0  0  0  0  0
    8.1009  -17.2314   26.5493 O   0  0  0  0  0  0  0  0  0  0  0  0
    8.4208  -15.6397   28.1204 O   0  0  0  0  0  0  0  0  0  0  0  0
  1  2  1  0
  2  3  2  0
  4  2  1  0
  5  4  1  0
  5  6  1  6
  7  8  2  0
  7  5  1  0
  9 10  1  0
 10 20  2  0
 10 11  1  0
 11 12  2  0
 12 13  1  0
 13 14  1  0
 15 14  1  1
 15 16  1  0
 16  7  1  0
 17 15  1  0
 17 18  2  0
 19 13  2  0
 20 19  1  0
 22 23  1  6
 22 21  1  0
 24 22  1  0
 25 24  1  6
 25 26  1  0
 26 17  1  0
 27 25  1  0
 28 27  1  0
 29 27  2  0
M  END
$$$$
