NYL.pdb
     RDKit          3D

 29 29  0  0  1  0  0  0  0  0999 V2000
    6.1532  -23.5343   22.8697 N   0  0  0  0  0  0  0  0  0  0  0  0
    6.7096  -22.4920   23.6537 C   0  0  0  0  0  0  0  0  0  0  0  0
    6.6623  -22.5998   24.9080 O   0  0  0  0  0  0  0  0  0  0  0  0
    7.3348  -21.2983   23.0087 C   0  0  0  0  0  0  0  0  0  0  0  0
    7.0179  -20.0684   23.8638 C   0  0  2  0  0  0  0  0  0  0  0  0
    5.6038  -19.9595   24.0434 N   0  0  0  0  0  0  0  0  0  0  0  0
    7.6373  -18.8567   23.3009 C   0  0  0  0  0  0  0  0  0  0  0  0
    8.8558  -18.9424   22.9620 O   0  0  0  0  0  0  0  0  0  0  0  0
    9.0289  -11.6991   18.5537 O   0  0  0  0  0  0  0  0  0  0  0  0
    8.4459  -12.6753   19.3660 C   0  0  0  0  0  0  0  0  0  0  0  0
    8.3320  -13.9545   18.8670 C   0  0  0  0  0  0  0  0  0  0  0  0
    7.7553  -14.9100   19.6765 C   0  0  0  0  0  0  0  0  0  0  0  0
    7.2939  -14.6219   20.9603 C   0  0  0  0  0  0  0  0  0  0  0  0
    6.6722  -15.6689   21.7946 C   0  0  0  0  0  0  0  0  0  0  0  0
    7.6636  -16.5122   22.5357 C   0  0  2  0  0  0  0  0  0  0  0  0
    6.9521  -17.6288   23.1244 N   0  0  0  0  0  0  0  0  0  0  0  0
    8.4607  -15.7766   23.5425 C   0  0  0  0  0  0  0  0  0  0  0  0
    9.5142  -15.2102   23.1714 O   0  0  0  0  0  0  0  0  0  0  0  0
    7.4126  -13.3420   21.4482 C   0  0  0  0  0  0  0  0  0  0  0  0
    7.9895  -12.3891   20.6366 C   0  0  0  0  0  0  0  0  0  0  0  0
    8.1836  -11.9866   25.3994 C   0  0  0  0  0  0  0  0  0  0  0  0
    7.1553  -13.0453   25.8096 C   0  0  2  0  0  0  0  0  0  0  0  0
    6.0357  -12.3657   26.5128 C   0  0  0  0  0  0  0  0  0  0  0  0
    7.8573  -14.0816   26.6391 C   0  0  0  0  0  0  0  0  0  0  0  0
    8.8508  -14.9011   25.8908 C   0  0  2  0  0  0  0  0  0  0  0  0
    8.0829  -15.6854   24.9101 N   0  0  0  0  0  0  0  0  0  0  0  0
    9.6330  -15.8288   26.7326 C   0  0  0  0  0  0  0  0  0  0  0  0
   10.6045  -15.3790   27.6140 O   0  0  0  0  0  0  0  0  0  0  0  0
    9.4395  -17.0716   26.6748 O   0  0  0  0  0  0  0  0  0  0  0  0
  1  2  1  0
  2  3  2  0
  4  2  1  0
  5  4  1  0
  5  6  1  6
  7  8  2  0
  7  5  1  0
  9 10  1  0
 10 20  2  0
 10 11  1  0
 11 12  2  0
 12 13  1  0
 13 14  1  0
 15 14  1  1
 15 16  1  0
 16  7  1  0
 17 15  1  0
 17 18  2  0
 19 13  2  0
 20 19  1  0
 22 23  1  1
 22 21  1  0
 24 22  1  0
 25 24  1  1
 25 26  1  0
 26 17  1  0
 27 25  1  0
 28 27  1  0
 29 27  2  0
M  END
$$$$
