NYL.pdb
     RDKit          3D

 29 29  0  0  1  0  0  0  0  0999 V2000
   13.8226  -20.3602   25.0281 N   0  0  0  0  0  0  0  0  0  0  0  0
   13.4327  -19.1050   25.5603 C   0  0  0  0  0  0  0  0  0  0  0  0
   14.3362  -18.2928   25.8936 O   0  0  0  0  0  0  0  0  0  0  0  0
   11.9890  -18.7561   25.7212 C   0  0  0  0  0  0  0  0  0  0  0  0
   11.5215  -18.0450   24.4484 C   0  0  2  0  0  0  0  0  0  0  0  0
   12.4000  -16.9556   24.1564 N   0  0  0  0  0  0  0  0  0  0  0  0
   10.1058  -17.6520   24.5495 C   0  0  0  0  0  0  0  0  0  0  0  0
    9.2720  -18.5761   24.7898 O   0  0  0  0  0  0  0  0  0  0  0  0
   11.0307  -15.3148   30.2028 O   0  0  0  0  0  0  0  0  0  0  0  0
   10.2972  -15.1965   29.0194 C   0  0  0  0  0  0  0  0  0  0  0  0
    9.2887  -16.1056   28.7846 C   0  0  0  0  0  0  0  0  0  0  0  0
    8.5712  -15.9799   27.6140 C   0  0  0  0  0  0  0  0  0  0  0  0
    8.8337  -14.9779   26.6808 C   0  0  0  0  0  0  0  0  0  0  0  0
    8.0511  -14.8807   25.4331 C   0  0  0  0  0  0  0  0  0  0  0  0
    8.2237  -16.0584   24.5239 C   0  0  2  0  0  0  0  0  0  0  0  0
    9.6427  -16.3217   24.3945 N   0  0  0  0  0  0  0  0  0  0  0  0
    7.5695  -15.9133   23.2043 C   0  0  0  0  0  0  0  0  0  0  0  0
    6.3218  -15.8132   23.1649 O   0  0  0  0  0  0  0  0  0  0  0  0
    9.8423  -14.0760   26.9252 C   0  0  0  0  0  0  0  0  0  0  0  0
   10.5577  -14.2043   28.0962 C   0  0  0  0  0  0  0  0  0  0  0  0
    6.5741  -13.1304   20.9946 C   0  0  0  0  0  0  0  0  0  0  0  0
    8.0495  -13.4228   20.7051 C   0  0  2  0  0  0  0  0  0  0  0  0
    8.6300  -12.2534   19.9942 C   0  0  0  0  0  0  0  0  0  0  0  0
    8.1281  -14.7075   19.9317 C   0  0  0  0  0  0  0  0  0  0  0  0
    7.6304  -15.9024   20.6687 C   0  0  2  0  0  0  0  0  0  0  0  0
    8.2950  -15.8827   21.9819 N   0  0  0  0  0  0  0  0  0  0  0  0
    7.9223  -17.1908   20.0084 C   0  0  0  0  0  0  0  0  0  0  0  0
    7.3573  -17.5361   18.7899 O   0  0  0  0  0  0  0  0  0  0  0  0
    8.7024  -18.0251   20.5379 O   0  0  0  0  0  0  0  0  0  0  0  0
  1  2  1  0
  2  3  2  0
  4  2  1  0
  5  4  1  0
  5  6  1  1
  7  8  2  0
  7  5  1  0
  9 10  1  0
 10 20  2  0
 10 11  1  0
 11 12  2  0
 12 13  1  0
 13 14  1  0
 15 14  1  1
 15 16  1  0
 16  7  1  0
 17 15  1  0
 17 18  2  0
 19 13  2  0
 20 19  1  0
 22 23  1  6
 22 21  1  0
 24 22  1  0
 25 24  1  6
 25 26  1  0
 26 17  1  0
 27 25  1  0
 28 27  1  0
 29 27  2  0
M  END
$$$$
