NYL.pdb
     RDKit          3D

 29 29  0  0  1  0  0  0  0  0999 V2000
   10.6476  -19.4240   17.0233 N   0  0  0  0  0  0  0  0  0  0  0  0
   10.3313  -19.2550   18.3952 C   0  0  0  0  0  0  0  0  0  0  0  0
   10.1862  -20.2861   19.1044 O   0  0  0  0  0  0  0  0  0  0  0  0
   10.1745  -17.8905   18.9828 C   0  0  0  0  0  0  0  0  0  0  0  0
    9.9254  -18.0401   20.4861 C   0  0  2  0  0  0  0  0  0  0  0  0
    8.7058  -18.7540   20.7023 N   0  0  0  0  0  0  0  0  0  0  0  0
    9.9741  -16.7339   21.1647 C   0  0  0  0  0  0  0  0  0  0  0  0
   11.0844  -16.1225   21.1485 O   0  0  0  0  0  0  0  0  0  0  0  0
    7.5993  -13.2881   16.4742 O   0  0  0  0  0  0  0  0  0  0  0  0
    7.6957  -13.4449   17.8593 C   0  0  0  0  0  0  0  0  0  0  0  0
    7.0324  -14.5023   18.4428 C   0  0  0  0  0  0  0  0  0  0  0  0
    7.1341  -14.6479   19.8100 C   0  0  0  0  0  0  0  0  0  0  0  0
    7.8751  -13.7713   20.6016 C   0  0  0  0  0  0  0  0  0  0  0  0
    7.9526  -13.9527   22.0644 C   0  0  0  0  0  0  0  0  0  0  0  0
    9.0505  -14.8751   22.4968 C   0  0  2  0  0  0  0  0  0  0  0  0
    8.8650  -16.1425   21.8193 N   0  0  0  0  0  0  0  0  0  0  0  0
    9.1631  -15.0471   23.9624 C   0  0  0  0  0  0  0  0  0  0  0  0
   10.2720  -14.8350   24.5044 O   0  0  0  0  0  0  0  0  0  0  0  0
    8.5329  -12.7195   20.0089 C   0  0  0  0  0  0  0  0  0  0  0  0
    8.4294  -12.5767   18.6421 C   0  0  0  0  0  0  0  0  0  0  0  0
    8.0075  -12.6627   27.4239 C   0  0  0  0  0  0  0  0  0  0  0  0
    6.9775  -13.3291   26.5067 C   0  0  2  0  0  0  0  0  0  0  0  0
    5.6592  -12.6796   26.7300 C   0  0  0  0  0  0  0  0  0  0  0  0
    6.9863  -14.8041   26.7883 C   0  0  0  0  0  0  0  0  0  0  0  0
    8.1694  -15.5283   26.2458 C   0  0  2  0  0  0  0  0  0  0  0  0
    8.0689  -15.4419   24.7799 N   0  0  0  0  0  0  0  0  0  0  0  0
    8.2430  -16.9515   26.6334 C   0  0  0  0  0  0  0  0  0  0  0  0
    8.6565  -17.3483   27.8962 O   0  0  0  0  0  0  0  0  0  0  0  0
    7.9287  -17.8590   25.8193 O   0  0  0  0  0  0  0  0  0  0  0  0
  1  2  1  0
  2  3  2  0
  4  2  1  0
  5  4  1  0
  5  6  1  6
  7  8  2  0
  7  5  1  0
  9 10  1  0
 10 20  2  0
 10 11  1  0
 11 12  2  0
 12 13  1  0
 13 14  1  0
 15 14  1  1
 15 16  1  0
 16  7  1  0
 17 15  1  0
 17 18  2  0
 19 13  2  0
 20 19  1  0
 22 23  1  1
 22 21  1  0
 24 22  1  0
 25 24  1  1
 25 26  1  0
 26 17  1  0
 27 25  1  0
 28 27  1  0
 29 27  2  0
M  END
$$$$
