NYL.pdb
     RDKit          3D

 29 29  0  0  1  0  0  0  0  0999 V2000
    5.3214  -20.0716   20.4239 N   0  0  0  0  0  0  0  0  0  0  0  0
    6.1158  -19.5142   19.3900 C   0  0  0  0  0  0  0  0  0  0  0  0
    5.9979  -19.9862   18.2279 O   0  0  0  0  0  0  0  0  0  0  0  0
    7.0667  -18.3971   19.6722 C   0  0  0  0  0  0  0  0  0  0  0  0
    7.1360  -18.1961   21.1885 C   0  0  2  0  0  0  0  0  0  0  0  0
    5.8504  -17.8111   21.6813 N   0  0  0  0  0  0  0  0  0  0  0  0
    8.2129  -17.2593   21.5511 C   0  0  0  0  0  0  0  0  0  0  0  0
    9.4022  -17.6536   21.3588 O   0  0  0  0  0  0  0  0  0  0  0  0
    8.2140  -13.7687   16.1915 O   0  0  0  0  0  0  0  0  0  0  0  0
    8.3834  -13.7792   17.5785 C   0  0  0  0  0  0  0  0  0  0  0  0
    7.5428  -13.0000   18.3432 C   0  0  0  0  0  0  0  0  0  0  0  0
    7.7185  -13.0177   19.7106 C   0  0  0  0  0  0  0  0  0  0  0  0
    8.7041  -13.7873   20.3273 C   0  0  0  0  0  0  0  0  0  0  0  0
    8.8694  -13.7729   21.7940 C   0  0  0  0  0  0  0  0  0  0  0  0
    9.1304  -15.1258   22.3812 C   0  0  2  0  0  0  0  0  0  0  0  0
    7.9879  -15.9688   22.0919 N   0  0  0  0  0  0  0  0  0  0  0  0
    9.4523  -15.1138   23.8257 C   0  0  0  0  0  0  0  0  0  0  0  0
   10.5499  -14.6317   24.1882 O   0  0  0  0  0  0  0  0  0  0  0  0
    9.5375  -14.5611   19.5546 C   0  0  0  0  0  0  0  0  0  0  0  0
    9.3593  -14.5413   18.1881 C   0  0  0  0  0  0  0  0  0  0  0  0
    8.5709  -12.4583   26.6745 C   0  0  0  0  0  0  0  0  0  0  0  0
    7.4818  -13.4331   26.2163 C   0  0  2  0  0  0  0  0  0  0  0  0
    6.1566  -12.8487   26.5510 C   0  0  0  0  0  0  0  0  0  0  0  0
    7.7430  -14.7629   26.8629 C   0  0  0  0  0  0  0  0  0  0  0  0
    8.8645  -15.5335   26.2570 C   0  0  2  0  0  0  0  0  0  0  0  0
    8.5712  -15.6249   24.8175 N   0  0  0  0  0  0  0  0  0  0  0  0
    9.0267  -16.8989   26.7959 C   0  0  0  0  0  0  0  0  0  0  0  0
    9.4239  -17.1296   28.1044 O   0  0  0  0  0  0  0  0  0  0  0  0
    8.8067  -17.9075   26.0751 O   0  0  0  0  0  0  0  0  0  0  0  0
  1  2  1  0
  2  3  2  0
  4  2  1  0
  5  4  1  0
  5  6  1  6
  7  8  2  0
  7  5  1  0
  9 10  1  0
 10 20  2  0
 10 11  1  0
 11 12  2  0
 12 13  1  0
 13 14  1  0
 15 14  1  1
 15 16  1  0
 16  7  1  0
 17 15  1  0
 17 18  2  0
 19 13  2  0
 20 19  1  0
 22 23  1  1
 22 21  1  0
 24 22  1  0
 25 24  1  1
 25 26  1  0
 26 17  1  0
 27 25  1  0
 28 27  1  0
 29 27  2  0
M  END
$$$$
