EFP.pdb
     RDKit          3D

 28 29  0  0  1  0  0  0  0  0999 V2000
    9.6707  -18.0186   21.0740 N   0  0  0  0  0  0  0  0  0  0  0  0
   10.9769  -17.4883   21.4224 C   0  0  1  0  0  0  0  0  0  0  0  0
   11.6411  -17.0078   20.1616 C   0  0  0  0  0  0  0  0  0  0  0  0
   11.1964  -17.9250   19.0387 C   0  0  0  0  0  0  0  0  0  0  0  0
   11.8238  -17.5430   17.7488 C   0  0  0  0  0  0  0  0  0  0  0  0
   11.0905  -17.3172   16.7575 O   0  0  0  0  0  0  0  0  0  0  0  0
   10.7557  -16.3969   22.4026 C   0  0  0  0  0  0  0  0  0  0  0  0
   11.7260  -15.6431   22.7304 O   0  0  0  0  0  0  0  0  0  0  0  0
   13.2008  -17.4409   17.6545 O   0  0  0  0  0  0  0  0  0  0  0  0
    9.5123  -16.1425   23.0018 N   0  0  0  0  0  0  0  0  0  0  0  0
    9.3209  -15.2104   24.1399 C   0  0  1  0  0  0  0  0  0  0  0  0
    7.9316  -14.6764   23.9584 C   0  0  0  0  0  0  0  0  0  0  0  0
    7.3876  -13.7898   24.9573 C   0  0  0  0  0  0  0  0  0  0  0  0
    7.6937  -12.4388   24.8941 C   0  0  0  0  0  0  0  0  0  0  0  0
    7.2020  -11.4974   25.7701 C   0  0  0  0  0  0  0  0  0  0  0  0
    6.3546  -11.9317   26.7677 C   0  0  0  0  0  0  0  0  0  0  0  0
    6.0236  -13.2756   26.8653 C   0  0  0  0  0  0  0  0  0  0  0  0
    6.5274  -14.1964   25.9787 C   0  0  0  0  0  0  0  0  0  0  0  0
    9.4034  -16.0383   25.3525 C   0  0  0  0  0  0  0  0  0  0  0  0
    9.1812  -17.3030   25.2668 O   0  0  0  0  0  0  0  0  0  0  0  0
    9.7238  -15.5634   26.6493 N   0  0  0  0  0  0  0  0  0  0  0  0
    9.2847  -14.3502   27.3319 C   0  0  0  0  0  0  0  0  0  0  0  0
   10.5459  -13.8463   28.0331 C   0  0  0  0  0  0  0  0  0  0  0  0
   11.5076  -14.9933   27.9619 C   0  0  0  0  0  0  0  0  0  0  0  0
   10.6291  -16.1723   27.6110 C   0  0  1  0  0  0  0  0  0  0  0  0
    9.9909  -16.6843   28.8194 C   0  0  0  0  0  0  0  0  0  0  0  0
   10.5819  -17.2200   29.7858 O   0  0  0  0  0  0  0  0  0  0  0  0
    8.5870  -16.5572   28.8894 O   0  0  0  0  0  0  0  0  0  0  0  0
  2  1  1  6
  2  7  1  0
  2  3  1  0
  3  4  1  0
  5  4  1  0
  6  5  2  0
  7  8  2  0
  9  5  1  0
 10 11  1  0
 10  7  1  0
 11 12  1  6
 12 13  1  0
 13 18  1  0
 14 13  2  0
 14 15  1  0
 15 16  2  0
 16 17  1  0
 18 17  2  0
 19 20  2  0
 19 11  1  0
 21 19  1  0
 22 21  1  0
 23 24  1  0
 23 22  1  0
 24 25  1  0
 25 21  1  0
 25 26  1  1
 26 28  1  0
 27 26  2  0
M  END
$$$$
