EFP.pdb
     RDKit          3D

 28 29  0  0  1  0  0  0  0  0999 V2000
   11.5056  -16.5573   20.0011 N   0  0  0  0  0  0  0  0  0  0  0  0
   10.5984  -17.1413   20.9730 C   0  0  1  0  0  0  0  0  0  0  0  0
   11.1693  -18.4601   21.4163 C   0  0  0  0  0  0  0  0  0  0  0  0
   12.4912  -18.6452   20.6964 C   0  0  0  0  0  0  0  0  0  0  0  0
   13.1181  -19.9450   21.0440 C   0  0  0  0  0  0  0  0  0  0  0  0
   12.6377  -21.0003   20.5676 O   0  0  0  0  0  0  0  0  0  0  0  0
   10.4719  -16.1705   22.0877 C   0  0  0  0  0  0  0  0  0  0  0  0
   11.4259  -15.3647   22.3280 O   0  0  0  0  0  0  0  0  0  0  0  0
   14.2178  -19.9783   21.8837 O   0  0  0  0  0  0  0  0  0  0  0  0
    9.3372  -16.0877   22.9096 N   0  0  0  0  0  0  0  0  0  0  0  0
    9.2146  -15.1515   24.0538 C   0  0  1  0  0  0  0  0  0  0  0  0
    7.8226  -14.6051   23.9444 C   0  0  0  0  0  0  0  0  0  0  0  0
    7.3103  -13.7793   25.0099 C   0  0  0  0  0  0  0  0  0  0  0  0
    7.5393  -12.4123   24.9692 C   0  0  0  0  0  0  0  0  0  0  0  0
    7.0668  -11.5253   25.9101 C   0  0  0  0  0  0  0  0  0  0  0  0
    6.3217  -12.0344   26.9529 C   0  0  0  0  0  0  0  0  0  0  0  0
    6.0700  -13.3967   27.0300 C   0  0  0  0  0  0  0  0  0  0  0  0
    6.5527  -14.2621   26.0782 C   0  0  0  0  0  0  0  0  0  0  0  0
    9.3534  -15.9776   25.2624 C   0  0  0  0  0  0  0  0  0  0  0  0
    9.2102  -17.2533   25.1721 O   0  0  0  0  0  0  0  0  0  0  0  0
    9.6487  -15.4889   26.5602 N   0  0  0  0  0  0  0  0  0  0  0  0
    9.2855  -14.2195   27.1824 C   0  0  0  0  0  0  0  0  0  0  0  0
   10.5494  -13.8045   27.9351 C   0  0  0  0  0  0  0  0  0  0  0  0
   11.4073  -15.0331   27.9491 C   0  0  0  0  0  0  0  0  0  0  0  0
   10.4460  -16.1418   27.5863 C   0  0  1  0  0  0  0  0  0  0  0  0
    9.7042  -16.5547   28.7733 C   0  0  0  0  0  0  0  0  0  0  0  0
   10.2051  -17.0371   29.8156 O   0  0  0  0  0  0  0  0  0  0  0  0
    8.3033  -16.3896   28.7265 O   0  0  0  0  0  0  0  0  0  0  0  0
  2  1  1  6
  2  7  1  0
  2  3  1  0
  3  4  1  0
  5  4  1  0
  6  5  2  0
  7  8  2  0
  9  5  1  0
 10 11  1  0
 10  7  1  0
 11 12  1  1
 12 13  1  0
 13 18  1  0
 14 13  2  0
 14 15  1  0
 15 16  2  0
 16 17  1  0
 18 17  2  0
 19 20  2  0
 19 11  1  0
 21 19  1  0
 22 21  1  0
 23 24  1  0
 23 22  1  0
 24 25  1  0
 25 21  1  0
 25 26  1  1
 26 28  1  0
 27 26  2  0
M  END
$$$$
