EFP.pdb
     RDKit          3D

 28 29  0  0  1  0  0  0  0  0999 V2000
    9.9369  -18.2443   21.1932 N   0  0  0  0  0  0  0  0  0  0  0  0
   11.1830  -17.5644   21.4996 C   0  0  1  0  0  0  0  0  0  0  0  0
   11.7960  -17.1006   20.2071 C   0  0  0  0  0  0  0  0  0  0  0  0
   10.9270  -17.6259   19.0806 C   0  0  0  0  0  0  0  0  0  0  0  0
   11.4243  -17.1715   17.7579 C   0  0  0  0  0  0  0  0  0  0  0  0
   11.1110  -16.0289   17.3485 O   0  0  0  0  0  0  0  0  0  0  0  0
   10.8526  -16.4408   22.4102 C   0  0  0  0  0  0  0  0  0  0  0  0
   11.7431  -15.5761   22.6870 O   0  0  0  0  0  0  0  0  0  0  0  0
   12.2224  -18.0072   16.9962 O   0  0  0  0  0  0  0  0  0  0  0  0
    9.5884  -16.2728   22.9963 N   0  0  0  0  0  0  0  0  0  0  0  0
    9.3231  -15.3627   24.1373 C   0  0  1  0  0  0  0  0  0  0  0  0
    7.8788  -14.9876   23.9904 C   0  0  0  0  0  0  0  0  0  0  0  0
    7.3223  -13.9913   24.8722 C   0  0  0  0  0  0  0  0  0  0  0  0
    6.5155  -14.4005   25.9232 C   0  0  0  0  0  0  0  0  0  0  0  0
    5.9623  -13.5424   26.8469 C   0  0  0  0  0  0  0  0  0  0  0  0
    6.2313  -12.1966   26.7122 C   0  0  0  0  0  0  0  0  0  0  0  0
    7.0341  -11.7465   25.6740 C   0  0  0  0  0  0  0  0  0  0  0  0
    7.5749  -12.6228   24.7643 C   0  0  0  0  0  0  0  0  0  0  0  0
    9.5277  -16.1708   25.3488 C   0  0  0  0  0  0  0  0  0  0  0  0
    9.6931  -17.4421   25.2363 O   0  0  0  0  0  0  0  0  0  0  0  0
    9.5709  -15.6665   26.6732 N   0  0  0  0  0  0  0  0  0  0  0  0
    8.9123  -14.4969   27.2465 C   0  0  0  0  0  0  0  0  0  0  0  0
    9.9802  -13.8796   28.1490 C   0  0  0  0  0  0  0  0  0  0  0  0
   11.0374  -14.9349   28.2680 C   0  0  0  0  0  0  0  0  0  0  0  0
   10.3429  -16.1892   27.7894 C   0  0  1  0  0  0  0  0  0  0  0  0
    9.5496  -16.7547   28.8759 C   0  0  0  0  0  0  0  0  0  0  0  0
    8.2989  -16.8233   28.9072 O   0  0  0  0  0  0  0  0  0  0  0  0
   10.2687  -17.2637   29.9785 O   0  0  0  0  0  0  0  0  0  0  0  0
  2  1  1  6
  2  7  1  0
  2  3  1  0
  3  4  1  0
  5  4  1  0
  6  5  2  0
  7  8  2  0
  9  5  1  0
 10 11  1  0
 10  7  1  0
 11 12  1  6
 12 13  1  0
 13 18  1  0
 14 13  2  0
 14 15  1  0
 15 16  2  0
 16 17  1  0
 18 17  2  0
 19 20  2  0
 19 11  1  0
 21 19  1  0
 22 21  1  0
 23 24  1  0
 23 22  1  0
 24 25  1  0
 25 21  1  0
 25 26  1  1
 26 28  1  0
 27 26  2  0
M  END
$$$$
