EFP.pdb
     RDKit          3D

 28 29  0  0  1  0  0  0  0  0999 V2000
   11.0454  -16.5793   19.7752 N   0  0  0  0  0  0  0  0  0  0  0  0
   10.0575  -17.0582   20.7258 C   0  0  1  0  0  0  0  0  0  0  0  0
   10.4189  -18.4663   21.1106 C   0  0  0  0  0  0  0  0  0  0  0  0
   11.8164  -18.7338   20.5857 C   0  0  0  0  0  0  0  0  0  0  0  0
   11.9323  -20.1070   20.0338 C   0  0  0  0  0  0  0  0  0  0  0  0
   10.9148  -20.8382   19.9998 O   0  0  0  0  0  0  0  0  0  0  0  0
   10.0789  -16.1274   21.8808 C   0  0  0  0  0  0  0  0  0  0  0  0
   11.1582  -15.5252   22.1802 O   0  0  0  0  0  0  0  0  0  0  0  0
   13.1529  -20.5622   19.5663 O   0  0  0  0  0  0  0  0  0  0  0  0
    8.9541  -15.8673   22.6791 N   0  0  0  0  0  0  0  0  0  0  0  0
    8.9754  -14.9839   23.8706 C   0  0  1  0  0  0  0  0  0  0  0  0
    7.6259  -14.3303   23.8776 C   0  0  0  0  0  0  0  0  0  0  0  0
    7.2784  -13.4564   24.9709 C   0  0  0  0  0  0  0  0  0  0  0  0
    7.6654  -12.1259   24.9159 C   0  0  0  0  0  0  0  0  0  0  0  0
    7.3573  -11.1951   25.8824 C   0  0  0  0  0  0  0  0  0  0  0  0
    6.6191  -11.6189   26.9674 C   0  0  0  0  0  0  0  0  0  0  0  0
    6.2122  -12.9422   27.0600 C   0  0  0  0  0  0  0  0  0  0  0  0
    6.5324  -13.8527   26.0821 C   0  0  0  0  0  0  0  0  0  0  0  0
    9.1238  -15.8783   25.0284 C   0  0  0  0  0  0  0  0  0  0  0  0
    8.9254  -17.1409   24.8772 O   0  0  0  0  0  0  0  0  0  0  0  0
    9.4854  -15.4717   26.3376 N   0  0  0  0  0  0  0  0  0  0  0  0
    9.2705  -14.1935   27.0088 C   0  0  0  0  0  0  0  0  0  0  0  0
   10.5806  -13.9462   27.7561 C   0  0  0  0  0  0  0  0  0  0  0  0
   11.2989  -15.2608   27.7147 C   0  0  0  0  0  0  0  0  0  0  0  0
   10.2180  -16.2442   27.3284 C   0  0  1  0  0  0  0  0  0  0  0  0
    9.4488  -16.6162   28.5115 C   0  0  0  0  0  0  0  0  0  0  0  0
    8.2409  -16.3491   28.7102 O   0  0  0  0  0  0  0  0  0  0  0  0
   10.1401  -17.3384   29.5077 O   0  0  0  0  0  0  0  0  0  0  0  0
  2  1  1  6
  2  7  1  0
  2  3  1  0
  3  4  1  0
  5  4  1  0
  6  5  2  0
  7  8  2  0
  9  5  1  0
 10 11  1  0
 10  7  1  0
 11 12  1  1
 12 13  1  0
 13 18  1  0
 14 13  2  0
 14 15  1  0
 15 16  2  0
 16 17  1  0
 18 17  2  0
 19 20  2  0
 19 11  1  0
 21 19  1  0
 22 21  1  0
 23 24  1  0
 23 22  1  0
 24 25  1  0
 25 21  1  0
 25 26  1  1
 26 28  1  0
 27 26  2  0
M  END
$$$$
