EFP.pdb
     RDKit          3D

 28 29  0  0  1  0  0  0  0  0999 V2000
   11.1280  -16.8645   20.1074 N   0  0  0  0  0  0  0  0  0  0  0  0
   10.1053  -17.2950   21.0441 C   0  0  1  0  0  0  0  0  0  0  0  0
   10.4356  -18.6920   21.4920 C   0  0  0  0  0  0  0  0  0  0  0  0
   11.0227  -19.4221   20.2994 C   0  0  0  0  0  0  0  0  0  0  0  0
   11.2723  -20.8518   20.6107 C   0  0  0  0  0  0  0  0  0  0  0  0
   12.4016  -21.1958   21.0321 O   0  0  0  0  0  0  0  0  0  0  0  0
   10.1041  -16.3218   22.1639 C   0  0  0  0  0  0  0  0  0  0  0  0
   11.2027  -15.8127   22.5526 O   0  0  0  0  0  0  0  0  0  0  0  0
   10.2638  -21.7830   20.4340 O   0  0  0  0  0  0  0  0  0  0  0  0
    8.9371  -15.9218   22.8332 N   0  0  0  0  0  0  0  0  0  0  0  0
    8.9289  -15.0066   24.0007 C   0  0  1  0  0  0  0  0  0  0  0  0
    7.5721  -14.3692   23.9684 C   0  0  0  0  0  0  0  0  0  0  0  0
    7.2251  -13.4123   24.9901 C   0  0  0  0  0  0  0  0  0  0  0  0
    6.4203  -13.8177   26.0441 C   0  0  0  0  0  0  0  0  0  0  0  0
    6.0571  -13.0020   27.0920 C   0  0  0  0  0  0  0  0  0  0  0  0
    6.5258  -11.7050   27.0861 C   0  0  0  0  0  0  0  0  0  0  0  0
    7.3338  -11.2603   26.0495 C   0  0  0  0  0  0  0  0  0  0  0  0
    7.6826  -12.0938   25.0145 C   0  0  0  0  0  0  0  0  0  0  0  0
    9.0686  -15.8679   25.1844 C   0  0  0  0  0  0  0  0  0  0  0  0
    8.8499  -17.1311   25.0724 O   0  0  0  0  0  0  0  0  0  0  0  0
    9.4425  -15.4276   26.4792 N   0  0  0  0  0  0  0  0  0  0  0  0
    9.1705  -14.1580   27.1460 C   0  0  0  0  0  0  0  0  0  0  0  0
   10.4843  -13.8255   27.8528 C   0  0  0  0  0  0  0  0  0  0  0  0
   11.2787  -15.0950   27.8010 C   0  0  0  0  0  0  0  0  0  0  0  0
   10.2482  -16.1452   27.4544 C   0  0  1  0  0  0  0  0  0  0  0  0
    9.5370  -16.5508   28.6623 C   0  0  0  0  0  0  0  0  0  0  0  0
   10.0546  -17.0927   29.6666 O   0  0  0  0  0  0  0  0  0  0  0  0
    8.1475  -16.3045   28.6849 O   0  0  0  0  0  0  0  0  0  0  0  0
  2  1  1  6
  2  7  1  0
  2  3  1  0
  3  4  1  0
  5  4  1  0
  6  5  2  0
  7  8  2  0
  9  5  1  0
 10 11  1  0
 10  7  1  0
 11 12  1  1
 12 13  1  0
 13 18  1  0
 14 13  2  0
 14 15  1  0
 15 16  2  0
 16 17  1  0
 18 17  2  0
 19 20  2  0
 19 11  1  0
 21 19  1  0
 22 21  1  0
 23 24  1  0
 23 22  1  0
 24 25  1  0
 25 21  1  0
 25 26  1  1
 26 28  1  0
 27 26  2  0
M  END
$$$$
