EFP.pdb
     RDKit          3D

 28 29  0  0  1  0  0  0  0  0999 V2000
   11.5196  -16.7857   20.1337 N   0  0  0  0  0  0  0  0  0  0  0  0
   10.5593  -17.2594   21.1146 C   0  0  1  0  0  0  0  0  0  0  0  0
   11.0362  -18.5865   21.6371 C   0  0  0  0  0  0  0  0  0  0  0  0
   11.0136  -19.5633   20.4772 C   0  0  0  0  0  0  0  0  0  0  0  0
   11.4812  -20.9088   20.8951 C   0  0  0  0  0  0  0  0  0  0  0  0
   11.4497  -21.8494   20.0672 O   0  0  0  0  0  0  0  0  0  0  0  0
   10.4750  -16.2254   22.1751 C   0  0  0  0  0  0  0  0  0  0  0  0
   11.5114  -15.5542   22.4794 O   0  0  0  0  0  0  0  0  0  0  0  0
   11.9434  -21.1093   22.1842 O   0  0  0  0  0  0  0  0  0  0  0  0
    9.2937  -15.9386   22.8767 N   0  0  0  0  0  0  0  0  0  0  0  0
    9.2247  -15.0065   24.0287 C   0  0  1  0  0  0  0  0  0  0  0  0
    7.8545  -14.4037   23.9423 C   0  0  0  0  0  0  0  0  0  0  0  0
    7.4490  -13.4444   24.9399 C   0  0  0  0  0  0  0  0  0  0  0  0
    6.6967  -13.8777   26.0213 C   0  0  0  0  0  0  0  0  0  0  0  0
    6.2867  -13.0595   27.0497 C   0  0  0  0  0  0  0  0  0  0  0  0
    6.6500  -11.7303   26.9943 C   0  0  0  0  0  0  0  0  0  0  0  0
    7.4026  -11.2570   25.9291 C   0  0  0  0  0  0  0  0  0  0  0  0
    7.7999  -12.0936   24.9142 C   0  0  0  0  0  0  0  0  0  0  0  0
    9.3465  -15.8463   25.2297 C   0  0  0  0  0  0  0  0  0  0  0  0
    9.1257  -17.1108   25.1380 O   0  0  0  0  0  0  0  0  0  0  0  0
    9.7047  -15.3832   26.5210 N   0  0  0  0  0  0  0  0  0  0  0  0
    9.4625  -14.0866   27.1460 C   0  0  0  0  0  0  0  0  0  0  0  0
   10.7700  -13.7810   27.8763 C   0  0  0  0  0  0  0  0  0  0  0  0
   11.5192  -15.0788   27.8790 C   0  0  0  0  0  0  0  0  0  0  0  0
   10.4602  -16.1012   27.5353 C   0  0  1  0  0  0  0  0  0  0  0  0
    9.7059  -16.4473   28.7356 C   0  0  0  0  0  0  0  0  0  0  0  0
    8.4925  -16.2032   28.9307 O   0  0  0  0  0  0  0  0  0  0  0  0
   10.4196  -17.1140   29.7546 O   0  0  0  0  0  0  0  0  0  0  0  0
  2  1  1  6
  2  7  1  0
  2  3  1  0
  3  4  1  0
  5  4  1  0
  6  5  2  0
  7  8  2  0
  9  5  1  0
 10 11  1  0
 10  7  1  0
 11 12  1  1
 12 13  1  0
 13 18  1  0
 14 13  2  0
 14 15  1  0
 15 16  2  0
 16 17  1  0
 18 17  2  0
 19 20  2  0
 19 11  1  0
 21 19  1  0
 22 21  1  0
 23 24  1  0
 23 22  1  0
 24 25  1  0
 25 21  1  0
 25 26  1  1
 26 28  1  0
 27 26  2  0
M  END
$$$$
