MMF.pdb
     RDKit          3D

 28 28  0  0  1  0  0  0  0  0999 V2000
    7.3483  -13.5307   26.9985 C   0  0  0  0  0  0  0  0  0  0  0  0
    5.6402  -14.0695   27.3152 S   0  0  0  0  0  0  0  0  0  0  0  0
    5.1543  -15.3519   26.1238 C   0  0  0  0  0  0  0  0  0  0  0  0
    6.3418  -16.2846   25.8802 C   0  0  0  0  0  0  0  0  0  0  0  0
    6.0569  -17.0337   24.5993 C   0  0  2  0  0  0  0  0  0  0  0  0
    5.5414  -18.3451   25.0001 N   0  0  0  0  0  0  0  0  0  0  0  0
    7.2890  -17.2730   23.8131 C   0  0  0  0  0  0  0  0  0  0  0  0
    7.9301  -18.3539   23.8062 O   0  0  0  0  0  0  0  0  0  0  0  0
    9.1553  -11.7609   20.3740 C   0  0  0  0  0  0  0  0  0  0  0  0
    7.7369  -12.8160   20.5772 S   0  0  0  0  0  0  0  0  0  0  0  0
    7.9534  -14.1561   21.7266 C   0  0  0  0  0  0  0  0  0  0  0  0
    9.1455  -15.0394   21.4287 C   0  0  0  0  0  0  0  0  0  0  0  0
    9.0988  -16.1685   22.4342 C   0  0  2  0  0  0  0  0  0  0  0  0
    7.7802  -16.2105   23.0129 N   0  0  0  0  0  0  0  0  0  0  0  0
   10.0976  -16.0447   23.4942 C   0  0  0  0  0  0  0  0  0  0  0  0
   10.4601  -14.8954   23.8451 O   0  0  0  0  0  0  0  0  0  0  0  0
   10.6919  -17.1439   24.1606 N   0  0  0  0  0  0  0  0  0  0  0  0
   11.2475  -16.9591   25.4732 C   0  0  1  0  0  0  0  0  0  0  0  0
   10.2051  -16.6301   26.4944 C   0  0  0  0  0  0  0  0  0  0  0  0
   10.1877  -15.1756   26.7652 C   0  0  0  0  0  0  0  0  0  0  0  0
   11.0037  -14.6133   27.7555 C   0  0  0  0  0  0  0  0  0  0  0  0
   11.0188  -13.2668   28.0095 C   0  0  0  0  0  0  0  0  0  0  0  0
   10.2078  -12.4289   27.2715 C   0  0  0  0  0  0  0  0  0  0  0  0
    9.4072  -12.9863   26.2988 C   0  0  0  0  0  0  0  0  0  0  0  0
    9.3848  -14.3292   26.0374 C   0  0  0  0  0  0  0  0  0  0  0  0
   12.0509  -18.1535   25.8117 C   0  0  0  0  0  0  0  0  0  0  0  0
   12.1434  -19.1651   25.0879 O   0  0  0  0  0  0  0  0  0  0  0  0
   12.7509  -18.1586   27.0102 O   0  0  0  0  0  0  0  0  0  0  0  0
  1  2  1  0
  3  2  1  0
  4  3  1  0
  5  6  1  1
  5  4  1  0
  7  5  1  0
  8  7  2  0
 10  9  1  0
 10 11  1  0
 11 12  1  0
 13 12  1  6
 13 14  1  0
 14  7  1  0
 15 13  1  0
 15 16  2  0
 17 15  1  0
 18 19  1  1
 18 17  1  0
 20 21  2  0
 20 19  1  0
 22 21  1  0
 23 22  2  0
 24 23  1  0
 24 25  2  0
 25 20  1  0
 26 18  1  0
 27 26  2  0
 28 26  1  0
M  END
$$$$
