MMF.pdb
     RDKit          3D

 28 28  0  0  1  0  0  0  0  0999 V2000
    8.2020  -12.0927   18.9186 C   0  0  0  0  0  0  0  0  0  0  0  0
    7.1179  -13.3964   18.2601 S   0  0  0  0  0  0  0  0  0  0  0  0
    8.0682  -14.9173   17.9701 C   0  0  0  0  0  0  0  0  0  0  0  0
    9.3016  -14.9169   18.8745 C   0  0  0  0  0  0  0  0  0  0  0  0
    9.1510  -16.0827   19.8239 C   0  0  2  0  0  0  0  0  0  0  0  0
    7.7140  -16.2236   20.0717 N   0  0  0  0  0  0  0  0  0  0  0  0
    9.7934  -15.8171   21.1317 C   0  0  0  0  0  0  0  0  0  0  0  0
   11.0233  -15.6152   21.2925 O   0  0  0  0  0  0  0  0  0  0  0  0
    6.9847  -12.7065   26.4961 C   0  0  0  0  0  0  0  0  0  0  0  0
    7.8840  -12.4455   24.9830 S   0  0  0  0  0  0  0  0  0  0  0  0
    7.8962  -13.8293   23.8656 C   0  0  0  0  0  0  0  0  0  0  0  0
    8.3341  -15.1319   24.4994 C   0  0  0  0  0  0  0  0  0  0  0  0
    9.4509  -15.6709   23.6333 C   0  0  2  0  0  0  0  0  0  0  0  0
    8.9650  -15.7883   22.2822 N   0  0  0  0  0  0  0  0  0  0  0  0
    9.9656  -16.9622   24.0851 C   0  0  0  0  0  0  0  0  0  0  0  0
    9.4865  -18.0077   23.5822 O   0  0  0  0  0  0  0  0  0  0  0  0
   10.9787  -17.1179   25.0623 N   0  0  0  0  0  0  0  0  0  0  0  0
   10.6110  -17.2937   26.4406 C   0  0  1  0  0  0  0  0  0  0  0  0
    9.4786  -16.4054   26.8483 C   0  0  0  0  0  0  0  0  0  0  0  0
    9.8800  -15.5440   27.9823 C   0  0  0  0  0  0  0  0  0  0  0  0
    9.4318  -14.2202   28.0806 C   0  0  0  0  0  0  0  0  0  0  0  0
    9.7744  -13.4110   29.1321 C   0  0  0  0  0  0  0  0  0  0  0  0
   10.5866  -13.9064   30.1318 C   0  0  0  0  0  0  0  0  0  0  0  0
   11.0248  -15.2085   30.0309 C   0  0  0  0  0  0  0  0  0  0  0  0
   10.6885  -16.0246   28.9854 C   0  0  0  0  0  0  0  0  0  0  0  0
   10.3491  -18.7304   26.6734 C   0  0  0  0  0  0  0  0  0  0  0  0
   10.8095  -19.3810   27.6328 O   0  0  0  0  0  0  0  0  0  0  0  0
    9.5397  -19.4071   25.7716 O   0  0  0  0  0  0  0  0  0  0  0  0
  1  2  1  0
  3  2  1  0
  4  3  1  0
  5  6  1  1
  5  4  1  0
  7  5  1  0
  8  7  2  0
 10  9  1  0
 10 11  1  0
 11 12  1  0
 13 12  1  1
 13 14  1  0
 14  7  1  0
 15 13  1  0
 15 16  2  0
 17 15  1  0
 18 19  1  6
 18 17  1  0
 20 21  2  0
 20 19  1  0
 22 21  1  0
 23 22  2  0
 24 23  1  0
 24 25  2  0
 25 20  1  0
 26 18  1  0
 27 26  2  0
 28 26  1  0
M  END
$$$$
