MMF.pdb
     RDKit          3D

 28 28  0  0  1  0  0  0  0  0999 V2000
    6.5123  -11.9584   26.6970 C   0  0  0  0  0  0  0  0  0  0  0  0
    6.0130  -13.5461   27.4308 S   0  0  0  0  0  0  0  0  0  0  0  0
    5.5383  -14.7194   26.1276 C   0  0  0  0  0  0  0  0  0  0  0  0
    6.8021  -15.3221   25.5121 C   0  0  0  0  0  0  0  0  0  0  0  0
    6.3605  -16.1650   24.3384 C   0  0  2  0  0  0  0  0  0  0  0  0
    5.7324  -17.3597   24.9079 N   0  0  0  0  0  0  0  0  0  0  0  0
    7.5095  -16.6244   23.5244 C   0  0  0  0  0  0  0  0  0  0  0  0
    7.8807  -17.8212   23.4291 O   0  0  0  0  0  0  0  0  0  0  0  0
    8.5517  -11.6767   20.2283 C   0  0  0  0  0  0  0  0  0  0  0  0
    8.1146  -13.1504   19.3320 S   0  0  0  0  0  0  0  0  0  0  0  0
    8.2764  -14.6658   20.2491 C   0  0  0  0  0  0  0  0  0  0  0  0
    9.5800  -14.7934   21.0072 C   0  0  0  0  0  0  0  0  0  0  0  0
    9.3927  -15.9325   21.9846 C   0  0  2  0  0  0  0  0  0  0  0  0
    8.2416  -15.6479   22.8027 N   0  0  0  0  0  0  0  0  0  0  0  0
   10.5571  -16.1645   22.8371 C   0  0  0  0  0  0  0  0  0  0  0  0
   11.6777  -16.3176   22.2928 O   0  0  0  0  0  0  0  0  0  0  0  0
   10.5086  -16.2295   24.2509 N   0  0  0  0  0  0  0  0  0  0  0  0
   11.6926  -16.5858   24.9837 C   0  0  1  0  0  0  0  0  0  0  0  0
   12.2196  -15.4523   25.8054 C   0  0  0  0  0  0  0  0  0  0  0  0
   11.1728  -14.9474   26.7211 C   0  0  0  0  0  0  0  0  0  0  0  0
   11.5056  -14.2186   27.8704 C   0  0  0  0  0  0  0  0  0  0  0  0
   10.5522  -13.7242   28.7214 C   0  0  0  0  0  0  0  0  0  0  0  0
    9.2181  -13.9459   28.4466 C   0  0  0  0  0  0  0  0  0  0  0  0
    8.8955  -14.6630   27.3154 C   0  0  0  0  0  0  0  0  0  0  0  0
    9.8398  -15.1607   26.4594 C   0  0  0  0  0  0  0  0  0  0  0  0
   11.4043  -17.8035   25.7716 C   0  0  0  0  0  0  0  0  0  0  0  0
   10.3005  -18.3840   25.7874 O   0  0  0  0  0  0  0  0  0  0  0  0
   12.4215  -18.3428   26.5468 O   0  0  0  0  0  0  0  0  0  0  0  0
  1  2  1  0
  3  2  1  0
  4  3  1  0
  5  6  1  1
  5  4  1  0
  7  5  1  0
  8  7  2  0
 10  9  1  0
 10 11  1  0
 11 12  1  0
 13 12  1  6
 13 14  1  0
 14  7  1  0
 15 13  1  0
 15 16  2  0
 17 15  1  0
 18 19  1  1
 18 17  1  0
 20 21  2  0
 20 19  1  0
 22 21  1  0
 23 22  2  0
 24 23  1  0
 24 25  2  0
 25 20  1  0
 26 18  1  0
 27 26  2  0
 28 26  1  0
M  END
$$$$
