MMF.pdb
     RDKit          3D

 28 28  0  0  1  0  0  0  0  0999 V2000
    6.2277  -17.8542   27.8585 C   0  0  0  0  0  0  0  0  0  0  0  0
    7.2525  -19.3320   27.5855 S   0  0  0  0  0  0  0  0  0  0  0  0
    7.1934  -19.8239   25.8376 C   0  0  0  0  0  0  0  0  0  0  0  0
    5.9924  -19.1531   25.1692 C   0  0  0  0  0  0  0  0  0  0  0  0
    6.0776  -19.4683   23.6939 C   0  0  2  0  0  0  0  0  0  0  0  0
    6.3837  -20.8979   23.5996 N   0  0  0  0  0  0  0  0  0  0  0  0
    7.1883  -18.7419   23.0366 C   0  0  0  0  0  0  0  0  0  0  0  0
    8.2724  -19.2694   22.6820 O   0  0  0  0  0  0  0  0  0  0  0  0
    7.7526  -12.4103   20.4413 C   0  0  0  0  0  0  0  0  0  0  0  0
    7.2671  -12.7540   22.1183 S   0  0  0  0  0  0  0  0  0  0  0  0
    6.7885  -14.4377   22.4341 C   0  0  0  0  0  0  0  0  0  0  0  0
    7.2755  -15.4240   21.3946 C   0  0  0  0  0  0  0  0  0  0  0  0
    7.9989  -16.5156   22.1516 C   0  0  2  0  0  0  0  0  0  0  0  0
    7.0182  -17.3560   22.7898 N   0  0  0  0  0  0  0  0  0  0  0  0
    8.9363  -16.0069   23.1511 C   0  0  0  0  0  0  0  0  0  0  0  0
    9.8608  -15.2464   22.7738 O   0  0  0  0  0  0  0  0  0  0  0  0
    8.8735  -16.3159   24.5317 N   0  0  0  0  0  0  0  0  0  0  0  0
    9.8057  -15.7018   25.4371 C   0  0  1  0  0  0  0  0  0  0  0  0
    9.1601  -15.2661   26.7143 C   0  0  0  0  0  0  0  0  0  0  0  0
    8.1397  -14.2279   26.4497 C   0  0  0  0  0  0  0  0  0  0  0  0
    6.7790  -14.5526   26.3720 C   0  0  0  0  0  0  0  0  0  0  0  0
    5.8152  -13.6046   26.1480 C   0  0  0  0  0  0  0  0  0  0  0  0
    6.1863  -12.2845   25.9927 C   0  0  0  0  0  0  0  0  0  0  0  0
    7.5253  -11.9700   26.0700 C   0  0  0  0  0  0  0  0  0  0  0  0
    8.4952  -12.9088   26.2932 C   0  0  0  0  0  0  0  0  0  0  0  0
   10.9422  -16.6270   25.6344 C   0  0  0  0  0  0  0  0  0  0  0  0
   11.8976  -16.4102   26.4064 O   0  0  0  0  0  0  0  0  0  0  0  0
   10.9555  -17.8162   24.9188 O   0  0  0  0  0  0  0  0  0  0  0  0
  1  2  1  0
  3  2  1  0
  4  3  1  0
  5  6  1  1
  5  4  1  0
  7  5  1  0
  8  7  2  0
 10  9  1  0
 10 11  1  0
 11 12  1  0
 13 12  1  1
 13 14  1  0
 14  7  1  0
 15 13  1  0
 15 16  2  0
 17 15  1  0
 18 19  1  1
 18 17  1  0
 20 21  2  0
 20 19  1  0
 22 21  1  0
 23 22  2  0
 24 23  1  0
 24 25  2  0
 25 20  1  0
 26 18  1  0
 27 26  2  0
 28 26  1  0
M  END
$$$$
