MMF.pdb
     RDKit          3D

 28 28  0  0  1  0  0  0  0  0999 V2000
    7.1527  -20.6241   26.1775 C   0  0  0  0  0  0  0  0  0  0  0  0
    5.5991  -20.8138   25.2507 S   0  0  0  0  0  0  0  0  0  0  0  0
    5.9041  -20.6342   23.4689 C   0  0  0  0  0  0  0  0  0  0  0  0
    7.0846  -19.6854   23.2563 C   0  0  0  0  0  0  0  0  0  0  0  0
    6.7750  -18.8676   22.0240 C   0  0  2  0  0  0  0  0  0  0  0  0
    7.0649  -19.7323   20.8775 N   0  0  0  0  0  0  0  0  0  0  0  0
    7.6579  -17.6840   21.9097 C   0  0  0  0  0  0  0  0  0  0  0  0
    8.8301  -17.7117   21.4576 O   0  0  0  0  0  0  0  0  0  0  0  0
    7.8380  -12.6996   17.9707 C   0  0  0  0  0  0  0  0  0  0  0  0
    7.7636  -12.6342   19.7473 S   0  0  0  0  0  0  0  0  0  0  0  0
    7.1918  -14.1242   20.5327 C   0  0  0  0  0  0  0  0  0  0  0  0
    7.1640  -14.0546   22.0442 C   0  0  0  0  0  0  0  0  0  0  0  0
    7.9461  -15.2513   22.5385 C   0  0  2  0  0  0  0  0  0  0  0  0
    7.1467  -16.4332   22.3396 N   0  0  0  0  0  0  0  0  0  0  0  0
    8.3354  -15.1513   23.9438 C   0  0  0  0  0  0  0  0  0  0  0  0
    8.1117  -14.0769   24.5529 O   0  0  0  0  0  0  0  0  0  0  0  0
    8.9548  -16.1942   24.6746 N   0  0  0  0  0  0  0  0  0  0  0  0
    9.2234  -16.0139   26.0750 C   0  0  1  0  0  0  0  0  0  0  0  0
    7.9861  -15.7156   26.8610 C   0  0  0  0  0  0  0  0  0  0  0  0
    7.6168  -14.2896   26.7221 C   0  0  0  0  0  0  0  0  0  0  0  0
    6.3409  -13.9109   26.2846 C   0  0  0  0  0  0  0  0  0  0  0  0
    5.9706  -12.5967   26.1680 C   0  0  0  0  0  0  0  0  0  0  0  0
    6.8765  -11.6065   26.4895 C   0  0  0  0  0  0  0  0  0  0  0  0
    8.1298  -11.9835   26.9192 C   0  0  0  0  0  0  0  0  0  0  0  0
    8.5093  -13.2927   27.0392 C   0  0  0  0  0  0  0  0  0  0  0  0
    9.9637  -17.1970   26.5638 C   0  0  0  0  0  0  0  0  0  0  0  0
   10.3425  -17.3502   27.7422 O   0  0  0  0  0  0  0  0  0  0  0  0
   10.2609  -18.2078   25.6602 O   0  0  0  0  0  0  0  0  0  0  0  0
  1  2  1  0
  3  2  1  0
  4  3  1  0
  5  6  1  6
  5  4  1  0
  7  5  1  0
  8  7  2  0
 10  9  1  0
 10 11  1  0
 11 12  1  0
 13 12  1  1
 13 14  1  0
 14  7  1  0
 15 13  1  0
 15 16  2  0
 17 15  1  0
 18 19  1  1
 18 17  1  0
 20 21  2  0
 20 19  1  0
 22 21  1  0
 23 22  2  0
 24 23  1  0
 24 25  2  0
 25 20  1  0
 26 18  1  0
 27 26  2  0
 28 26  1  0
M  END
$$$$
