MMF.pdb
     RDKit          3D

 28 28  0  0  1  0  0  0  0  0999 V2000
    6.5336  -14.3122   26.2149 C   0  0  0  0  0  0  0  0  0  0  0  0
    6.1579  -15.9770   26.8441 S   0  0  0  0  0  0  0  0  0  0  0  0
    6.2878  -17.1989   25.5061 C   0  0  0  0  0  0  0  0  0  0  0  0
    5.7932  -16.5690   24.2032 C   0  0  0  0  0  0  0  0  0  0  0  0
    5.8147  -17.6557   23.1535 C   0  0  2  0  0  0  0  0  0  0  0  0
    5.9331  -18.9221   23.8804 N   0  0  0  0  0  0  0  0  0  0  0  0
    6.9994  -17.5487   22.2712 C   0  0  0  0  0  0  0  0  0  0  0  0
    6.9884  -17.7733   21.0348 O   0  0  0  0  0  0  0  0  0  0  0  0
    8.3004  -11.9161   20.7185 C   0  0  0  0  0  0  0  0  0  0  0  0
    8.2509  -13.4386   19.7989 S   0  0  0  0  0  0  0  0  0  0  0  0
    7.8089  -14.8773   20.7469 C   0  0  0  0  0  0  0  0  0  0  0  0
    8.3526  -14.8779   22.1593 C   0  0  0  0  0  0  0  0  0  0  0  0
    9.1202  -16.1716   22.3178 C   0  0  2  0  0  0  0  0  0  0  0  0
    8.2311  -17.1667   22.8606 N   0  0  0  0  0  0  0  0  0  0  0  0
   10.2996  -16.0468   23.1722 C   0  0  0  0  0  0  0  0  0  0  0  0
   11.2804  -15.3884   22.7479 O   0  0  0  0  0  0  0  0  0  0  0  0
   10.4144  -16.6239   24.4603 N   0  0  0  0  0  0  0  0  0  0  0  0
   11.6633  -16.5358   25.1662 C   0  0  1  0  0  0  0  0  0  0  0  0
   12.0519  -15.1229   25.4670 C   0  0  0  0  0  0  0  0  0  0  0  0
   11.0348  -14.4792   26.3273 C   0  0  0  0  0  0  0  0  0  0  0  0
   10.0652  -13.6241   25.7872 C   0  0  0  0  0  0  0  0  0  0  0  0
    9.1017  -13.0333   26.5618 C   0  0  0  0  0  0  0  0  0  0  0  0
    9.0766  -13.2819   27.9190 C   0  0  0  0  0  0  0  0  0  0  0  0
   10.0319  -14.1233   28.4457 C   0  0  0  0  0  0  0  0  0  0  0  0
   10.9980  -14.7182   27.6809 C   0  0  0  0  0  0  0  0  0  0  0  0
   11.5817  -17.3952   26.3668 C   0  0  0  0  0  0  0  0  0  0  0  0
   12.4928  -17.5097   27.2109 O   0  0  0  0  0  0  0  0  0  0  0  0
   10.4202  -18.1254   26.5766 O   0  0  0  0  0  0  0  0  0  0  0  0
  1  2  1  0
  3  2  1  0
  4  3  1  0
  5  6  1  1
  5  4  1  0
  7  5  1  0
  8  7  2  0
 10  9  1  0
 10 11  1  0
 11 12  1  0
 13 12  1  1
 13 14  1  0
 14  7  1  0
 15 13  1  0
 15 16  2  0
 17 15  1  0
 18 19  1  1
 18 17  1  0
 20 21  2  0
 20 19  1  0
 22 21  1  0
 23 22  2  0
 24 23  1  0
 24 25  2  0
 25 20  1  0
 26 18  1  0
 27 26  2  0
 28 26  1  0
M  END
$$$$
