MMF.pdb
     RDKit          3D

 28 28  0  0  1  0  0  0  0  0999 V2000
   12.9680  -21.3502   21.4663 C   0  0  0  0  0  0  0  0  0  0  0  0
   11.3366  -22.1025   21.7515 S   0  0  0  0  0  0  0  0  0  0  0  0
   10.2993  -21.9349   20.2696 C   0  0  0  0  0  0  0  0  0  0  0  0
   10.7503  -20.7057   19.4792 C   0  0  0  0  0  0  0  0  0  0  0  0
    9.6257  -19.6992   19.5520 C   0  0  2  0  0  0  0  0  0  0  0  0
    9.1475  -19.5223   18.1786 N   0  0  0  0  0  0  0  0  0  0  0  0
   10.0974  -18.3762   20.0217 C   0  0  0  0  0  0  0  0  0  0  0  0
   11.1435  -17.8090   19.6173 O   0  0  0  0  0  0  0  0  0  0  0  0
    6.5340  -12.9702   20.8344 C   0  0  0  0  0  0  0  0  0  0  0  0
    8.0301  -13.0999   19.8799 S   0  0  0  0  0  0  0  0  0  0  0  0
    9.1799  -14.3335   20.4453 C   0  0  0  0  0  0  0  0  0  0  0  0
    8.5457  -15.4470   21.2504 C   0  0  0  0  0  0  0  0  0  0  0  0
    9.6546  -16.4251   21.5688 C   0  0  2  0  0  0  0  0  0  0  0  0
    9.3163  -17.7021   20.9943 N   0  0  0  0  0  0  0  0  0  0  0  0
    9.9000  -16.5796   23.0015 C   0  0  0  0  0  0  0  0  0  0  0  0
    9.6243  -17.6784   23.5419 O   0  0  0  0  0  0  0  0  0  0  0  0
   10.4331  -15.5640   23.8321 N   0  0  0  0  0  0  0  0  0  0  0  0
    9.5815  -14.9144   24.7905 C   0  0  1  0  0  0  0  0  0  0  0  0
    8.4589  -14.1666   24.1439 C   0  0  0  0  0  0  0  0  0  0  0  0
    7.6785  -13.4261   25.1596 C   0  0  0  0  0  0  0  0  0  0  0  0
    6.5918  -14.0211   25.8138 C   0  0  0  0  0  0  0  0  0  0  0  0
    5.8678  -13.3612   26.7720 C   0  0  0  0  0  0  0  0  0  0  0  0
    6.2120  -12.0685   27.1110 C   0  0  0  0  0  0  0  0  0  0  0  0
    7.2812  -11.4876   26.4652 C   0  0  0  0  0  0  0  0  0  0  0  0
    8.0105  -12.1378   25.5073 C   0  0  0  0  0  0  0  0  0  0  0  0
    9.1313  -15.9235   25.7733 C   0  0  0  0  0  0  0  0  0  0  0  0
    8.4755  -15.6586   26.8006 O   0  0  0  0  0  0  0  0  0  0  0  0
    9.4546  -17.2541   25.5465 O   0  0  0  0  0  0  0  0  0  0  0  0
  1  2  1  0
  3  2  1  0
  4  3  1  0
  5  6  1  6
  5  4  1  0
  7  5  1  0
  8  7  2  0
 10  9  1  0
 10 11  1  0
 11 12  1  0
 13 12  1  1
 13 14  1  0
 14  7  1  0
 15 13  1  0
 15 16  2  0
 17 15  1  0
 18 19  1  6
 18 17  1  0
 20 21  2  0
 20 19  1  0
 22 21  1  0
 23 22  2  0
 24 23  1  0
 24 25  2  0
 25 20  1  0
 26 18  1  0
 27 26  2  0
 28 26  1  0
M  END
$$$$
