MMF.pdb
     RDKit          3D

 28 28  0  0  1  0  0  0  0  0999 V2000
    6.7666  -13.1798   27.1130 C   0  0  0  0  0  0  0  0  0  0  0  0
    7.7759  -13.2837   25.6033 S   0  0  0  0  0  0  0  0  0  0  0  0
    7.9218  -15.0117   25.0622 C   0  0  0  0  0  0  0  0  0  0  0  0
    6.5290  -15.6422   25.0199 C   0  0  0  0  0  0  0  0  0  0  0  0
    6.4416  -16.4292   23.7330 C   0  0  2  0  0  0  0  0  0  0  0  0
    5.1841  -17.1780   23.7977 N   0  0  0  0  0  0  0  0  0  0  0  0
    7.5336  -17.4231   23.6175 C   0  0  0  0  0  0  0  0  0  0  0  0
    7.7295  -18.3625   24.4291 O   0  0  0  0  0  0  0  0  0  0  0  0
    8.6698  -12.0044   20.3660 C   0  0  0  0  0  0  0  0  0  0  0  0
    8.9523  -13.7020   19.9138 S   0  0  0  0  0  0  0  0  0  0  0  0
    8.2781  -14.9035   21.0387 C   0  0  0  0  0  0  0  0  0  0  0  0
    9.0080  -14.9897   22.3616 C   0  0  0  0  0  0  0  0  0  0  0  0
    9.5386  -16.4027   22.4622 C   0  0  2  0  0  0  0  0  0  0  0  0
    8.4194  -17.3081   22.5164 N   0  0  0  0  0  0  0  0  0  0  0  0
   10.4025  -16.6182   23.6214 C   0  0  0  0  0  0  0  0  0  0  0  0
   11.5517  -16.1135   23.6147 O   0  0  0  0  0  0  0  0  0  0  0  0
   10.0290  -17.3656   24.7648 N   0  0  0  0  0  0  0  0  0  0  0  0
   10.8953  -17.3843   25.9115 C   0  0  1  0  0  0  0  0  0  0  0  0
   10.1477  -17.2139   27.1960 C   0  0  0  0  0  0  0  0  0  0  0  0
    9.7234  -15.8065   27.3642 C   0  0  0  0  0  0  0  0  0  0  0  0
   10.4930  -14.9016   28.1071 C   0  0  0  0  0  0  0  0  0  0  0  0
   10.1297  -13.5891   28.2591 C   0  0  0  0  0  0  0  0  0  0  0  0
    8.9703  -13.1337   27.6652 C   0  0  0  0  0  0  0  0  0  0  0  0
    8.2168  -14.0270   26.9357 C   0  0  0  0  0  0  0  0  0  0  0  0
    8.5707  -15.3393   26.7778 C   0  0  0  0  0  0  0  0  0  0  0  0
   11.7097  -18.6175   25.8603 C   0  0  0  0  0  0  0  0  0  0  0  0
   11.6042  -19.4919   24.9772 O   0  0  0  0  0  0  0  0  0  0  0  0
   12.6554  -18.8242   26.8550 O   0  0  0  0  0  0  0  0  0  0  0  0
  1  2  1  0
  3  2  1  0
  4  3  1  0
  5  6  1  1
  5  4  1  0
  7  5  1  0
  8  7  2  0
 10  9  1  0
 10 11  1  0
 11 12  1  0
 13 12  1  1
 13 14  1  0
 14  7  1  0
 15 13  1  0
 15 16  2  0
 17 15  1  0
 18 19  1  1
 18 17  1  0
 20 21  2  0
 20 19  1  0
 22 21  1  0
 23 22  2  0
 24 23  1  0
 24 25  2  0
 25 20  1  0
 26 18  1  0
 27 26  2  0
 28 26  1  0
M  END
$$$$
