MMF.pdb
     RDKit          3D

 28 28  0  0  1  0  0  0  0  0999 V2000
    7.2741  -11.7636   18.0267 C   0  0  0  0  0  0  0  0  0  0  0  0
    6.9867  -13.3237   17.1369 S   0  0  0  0  0  0  0  0  0  0  0  0
    7.7808  -14.7028   18.0132 C   0  0  0  0  0  0  0  0  0  0  0  0
    8.0056  -14.3052   19.4728 C   0  0  0  0  0  0  0  0  0  0  0  0
    8.6070  -15.5047   20.1676 C   0  0  2  0  0  0  0  0  0  0  0  0
    7.4890  -16.3993   20.4772 N   0  0  0  0  0  0  0  0  0  0  0  0
    9.2396  -15.1379   21.4556 C   0  0  0  0  0  0  0  0  0  0  0  0
   10.2740  -14.4327   21.5650 O   0  0  0  0  0  0  0  0  0  0  0  0
    6.3082  -12.7618   26.7142 C   0  0  0  0  0  0  0  0  0  0  0  0
    6.0473  -12.9709   24.9665 S   0  0  0  0  0  0  0  0  0  0  0  0
    7.3862  -13.7506   24.0929 C   0  0  0  0  0  0  0  0  0  0  0  0
    8.0424  -14.8838   24.8515 C   0  0  0  0  0  0  0  0  0  0  0  0
    9.1625  -15.3914   23.9707 C   0  0  2  0  0  0  0  0  0  0  0  0
    8.6379  -15.6145   22.6477 N   0  0  0  0  0  0  0  0  0  0  0  0
    9.7824  -16.6183   24.4677 C   0  0  0  0  0  0  0  0  0  0  0  0
    9.2915  -17.7206   24.1220 O   0  0  0  0  0  0  0  0  0  0  0  0
   10.9112  -16.6506   25.3221 N   0  0  0  0  0  0  0  0  0  0  0  0
   10.8930  -17.4926   26.4868 C   0  0  1  0  0  0  0  0  0  0  0  0
    9.6949  -17.2503   27.3491 C   0  0  0  0  0  0  0  0  0  0  0  0
    9.8406  -15.9782   28.0905 C   0  0  0  0  0  0  0  0  0  0  0  0
   10.8016  -15.8338   29.0997 C   0  0  0  0  0  0  0  0  0  0  0  0
   10.9677  -14.6590   29.7852 C   0  0  0  0  0  0  0  0  0  0  0  0
   10.1676  -13.5770   29.4793 C   0  0  0  0  0  0  0  0  0  0  0  0
    9.2241  -13.7236   28.4863 C   0  0  0  0  0  0  0  0  0  0  0  0
    9.0504  -14.8921   27.7959 C   0  0  0  0  0  0  0  0  0  0  0  0
   11.0314  -18.8980   26.0481 C   0  0  0  0  0  0  0  0  0  0  0  0
   10.6768  -19.3222   24.9301 O   0  0  0  0  0  0  0  0  0  0  0  0
   11.5911  -19.8115   26.9305 O   0  0  0  0  0  0  0  0  0  0  0  0
  1  2  1  0
  3  2  1  0
  4  3  1  0
  5  6  1  1
  5  4  1  0
  7  5  1  0
  8  7  2  0
 10  9  1  0
 10 11  1  0
 11 12  1  0
 13 12  1  1
 13 14  1  0
 14  7  1  0
 15 13  1  0
 15 16  2  0
 17 15  1  0
 18 19  1  6
 18 17  1  0
 20 21  2  0
 20 19  1  0
 22 21  1  0
 23 22  2  0
 24 23  1  0
 24 25  2  0
 25 20  1  0
 26 18  1  0
 27 26  2  0
 28 26  1  0
M  END
$$$$
