MMF.pdb
     RDKit          3D

 28 28  0  0  1  0  0  0  0  0999 V2000
    7.3033  -12.0967   19.7808 C   0  0  0  0  0  0  0  0  0  0  0  0
    9.0703  -12.5148   19.8874 S   0  0  0  0  0  0  0  0  0  0  0  0
    9.2822  -14.3112   20.0562 C   0  0  0  0  0  0  0  0  0  0  0  0
    7.9642  -15.0054   19.7096 C   0  0  0  0  0  0  0  0  0  0  0  0
    8.1987  -16.4911   19.8540 C   0  0  2  0  0  0  0  0  0  0  0  0
    7.0198  -17.1471   19.2831 N   0  0  0  0  0  0  0  0  0  0  0  0
    8.2796  -16.9025   21.2745 C   0  0  0  0  0  0  0  0  0  0  0  0
    7.3047  -16.9184   22.0674 O   0  0  0  0  0  0  0  0  0  0  0  0
   11.4316  -22.2340   24.0007 C   0  0  0  0  0  0  0  0  0  0  0  0
   12.0576  -20.7270   24.7101 S   0  0  0  0  0  0  0  0  0  0  0  0
   10.9999  -19.3094   24.5217 C   0  0  0  0  0  0  0  0  0  0  0  0
   10.7670  -18.8986   23.0838 C   0  0  0  0  0  0  0  0  0  0  0  0
    9.7797  -17.7535   23.1244 C   0  0  2  0  0  0  0  0  0  0  0  0
    9.5431  -17.3064   21.7754 N   0  0  0  0  0  0  0  0  0  0  0  0
   10.2269  -16.6290   23.9441 C   0  0  0  0  0  0  0  0  0  0  0  0
   10.9360  -15.7419   23.4096 O   0  0  0  0  0  0  0  0  0  0  0  0
    9.9124  -16.4687   25.3156 N   0  0  0  0  0  0  0  0  0  0  0  0
   10.3976  -15.3151   26.0224 C   0  0  1  0  0  0  0  0  0  0  0  0
    9.9823  -14.0316   25.3759 C   0  0  0  0  0  0  0  0  0  0  0  0
    8.6499  -13.6140   25.8652 C   0  0  0  0  0  0  0  0  0  0  0  0
    7.4761  -14.1170   25.2890 C   0  0  0  0  0  0  0  0  0  0  0  0
    6.2321  -13.7597   25.7392 C   0  0  0  0  0  0  0  0  0  0  0  0
    6.1210  -12.8766   26.7938 C   0  0  0  0  0  0  0  0  0  0  0  0
    7.2779  -12.3847   27.3573 C   0  0  0  0  0  0  0  0  0  0  0  0
    8.5244  -12.7351   26.9153 C   0  0  0  0  0  0  0  0  0  0  0  0
    9.9818  -15.4263   27.4371 C   0  0  0  0  0  0  0  0  0  0  0  0
    9.2259  -16.3149   27.8785 O   0  0  0  0  0  0  0  0  0  0  0  0
   10.4584  -14.4858   28.3398 O   0  0  0  0  0  0  0  0  0  0  0  0
  1  2  1  0
  3  2  1  0
  4  3  1  0
  5  6  1  1
  5  4  1  0
  7  5  1  0
  8  7  2  0
 10  9  1  0
 10 11  1  0
 11 12  1  0
 13 12  1  6
 13 14  1  0
 14  7  1  0
 15 13  1  0
 15 16  2  0
 17 15  1  0
 18 19  1  6
 18 17  1  0
 20 21  2  0
 20 19  1  0
 22 21  1  0
 23 22  2  0
 24 23  1  0
 24 25  2  0
 25 20  1  0
 26 18  1  0
 27 26  2  0
 28 26  1  0
M  END
$$$$
