MMF.pdb
     RDKit          3D

 28 28  0  0  1  0  0  0  0  0999 V2000
    2.4592  -17.8179   19.3199 C   0  0  0  0  0  0  0  0  0  0  0  0
    3.5192  -19.1457   19.9694 S   0  0  0  0  0  0  0  0  0  0  0  0
    4.4643  -18.5514   21.4025 C   0  0  0  0  0  0  0  0  0  0  0  0
    5.4581  -19.6325   21.8299 C   0  0  0  0  0  0  0  0  0  0  0  0
    6.2687  -19.0591   22.9689 C   0  0  2  0  0  0  0  0  0  0  0  0
    5.3794  -18.1354   23.6775 N   0  0  0  0  0  0  0  0  0  0  0  0
    7.4211  -18.2658   22.4827 C   0  0  0  0  0  0  0  0  0  0  0  0
    8.4053  -18.7452   21.8656 O   0  0  0  0  0  0  0  0  0  0  0  0
    7.6304  -13.0632   19.2850 C   0  0  0  0  0  0  0  0  0  0  0  0
    6.4050  -13.4903   20.5025 S   0  0  0  0  0  0  0  0  0  0  0  0
    6.8849  -14.7740   21.6363 C   0  0  0  0  0  0  0  0  0  0  0  0
    8.3714  -14.8286   21.9150 C   0  0  0  0  0  0  0  0  0  0  0  0
    8.5957  -16.0464   22.7838 C   0  0  2  0  0  0  0  0  0  0  0  0
    7.4148  -16.8697   22.7300 N   0  0  0  0  0  0  0  0  0  0  0  0
    8.9048  -15.7194   24.1745 C   0  0  0  0  0  0  0  0  0  0  0  0
    8.5650  -14.5945   24.6156 O   0  0  0  0  0  0  0  0  0  0  0  0
    9.5687  -16.5934   25.0693 N   0  0  0  0  0  0  0  0  0  0  0  0
    9.6719  -16.2389   26.4584 C   0  0  1  0  0  0  0  0  0  0  0  0
    8.3364  -16.0008   27.0888 C   0  0  0  0  0  0  0  0  0  0  0  0
    7.9223  -14.5922   26.9057 C   0  0  0  0  0  0  0  0  0  0  0  0
    6.6927  -14.2692   26.3170 C   0  0  0  0  0  0  0  0  0  0  0  0
    6.2800  -12.9725   26.1560 C   0  0  0  0  0  0  0  0  0  0  0  0
    7.0944  -11.9440   26.5842 C   0  0  0  0  0  0  0  0  0  0  0  0
    8.3025  -12.2664   27.1625 C   0  0  0  0  0  0  0  0  0  0  0  0
    8.7237  -13.5577   27.3279 C   0  0  0  0  0  0  0  0  0  0  0  0
   10.4740  -17.2741   27.1452 C   0  0  0  0  0  0  0  0  0  0  0  0
   10.7784  -17.2383   28.3543 O   0  0  0  0  0  0  0  0  0  0  0  0
   10.9216  -18.3595   26.4050 O   0  0  0  0  0  0  0  0  0  0  0  0
  1  2  1  0
  3  2  1  0
  4  3  1  0
  5  6  1  6
  5  4  1  0
  7  5  1  0
  8  7  2  0
 10  9  1  0
 10 11  1  0
 11 12  1  0
 13 12  1  6
 13 14  1  0
 14  7  1  0
 15 13  1  0
 15 16  2  0
 17 15  1  0
 18 19  1  1
 18 17  1  0
 20 21  2  0
 20 19  1  0
 22 21  1  0
 23 22  2  0
 24 23  1  0
 24 25  2  0
 25 20  1  0
 26 18  1  0
 27 26  2  0
 28 26  1  0
M  END
$$$$
