HWT.pdb
     RDKit          3D

 32 34  0  0  1  0  0  0  0  0999 V2000
    9.0878  -15.6800   20.5924 N   0  0  0  0  0  0  0  0  0  0  0  0
    9.6741  -16.7788   21.3366 C   0  0  1  0  0  0  0  0  0  0  0  0
   10.9745  -17.1567   20.6508 C   0  0  0  0  0  0  0  0  0  0  0  0
   10.6504  -17.5988   19.2760 C   0  0  0  0  0  0  0  0  0  0  0  0
   10.3061  -18.8939   18.9434 C   0  0  0  0  0  0  0  0  0  0  0  0
   10.0829  -18.9161   17.6154 N   0  0  0  0  0  0  0  0  0  0  0  0
   10.2758  -17.6790   17.1049 C   0  0  0  0  0  0  0  0  0  0  0  0
   10.6221  -16.8885   18.1362 N   0  0  0  0  0  0  0  0  0  0  0  0
    9.8596  -16.4507   22.7588 C   0  0  0  0  0  0  0  0  0  0  0  0
   10.7475  -15.5911   23.0706 O   0  0  0  0  0  0  0  0  0  0  0  0
    9.0608  -17.0861   23.7382 N   0  0  0  0  0  0  0  0  0  0  0  0
    9.2804  -16.8440   25.1697 C   0  0  1  0  0  0  0  0  0  0  0  0
    7.9082  -16.7974   25.7851 C   0  0  0  0  0  0  0  0  0  0  0  0
    7.1115  -15.6065   25.4925 C   0  0  0  0  0  0  0  0  0  0  0  0
    6.0020  -15.4879   24.7057 C   0  0  0  0  0  0  0  0  0  0  0  0
    5.6012  -14.2042   24.6947 N   0  0  0  0  0  0  0  0  0  0  0  0
    6.4237  -13.4682   25.4595 C   0  0  0  0  0  0  0  0  0  0  0  0
    6.4954  -12.1324   25.8056 C   0  0  0  0  0  0  0  0  0  0  0  0
    7.5019  -11.6843   26.6410 C   0  0  0  0  0  0  0  0  0  0  0  0
    8.4480  -12.5523   27.1428 C   0  0  0  0  0  0  0  0  0  0  0  0
    8.3600  -13.8798   26.7866 C   0  0  0  0  0  0  0  0  0  0  0  0
    7.3608  -14.3282   25.9566 C   0  0  0  0  0  0  0  0  0  0  0  0
   10.0873  -17.8954   25.7690 C   0  0  0  0  0  0  0  0  0  0  0  0
    9.9979  -19.0632   25.2404 O   0  0  0  0  0  0  0  0  0  0  0  0
   13.9532  -20.0135   27.6777 C   0  0  0  0  0  0  0  0  0  0  0  0
   13.1977  -18.8223   27.0986 C   0  0  1  0  0  0  0  0  0  0  0  0
   13.3666  -18.8801   25.7165 O   0  0  0  0  0  0  0  0  0  0  0  0
   11.7014  -18.9865   27.3569 C   0  0  2  0  0  0  0  0  0  0  0  0
   10.9741  -17.8281   26.8586 N   0  0  0  0  0  0  0  0  0  0  0  0
   11.5510  -19.0449   28.8232 C   0  0  0  0  0  0  0  0  0  0  0  0
   11.9712  -19.9792   29.5491 O   0  0  0  0  0  0  0  0  0  0  0  0
   10.8948  -18.0015   29.5201 O   0  0  0  0  0  0  0  0  0  0  0  0
  2  1  1  6
  3  2  1  0
  3  4  1  0
  4  5  2  0
  5  6  1  0
  7  6  1  0
  8  4  1  0
  8  7  2  0
  9 10  2  0
  9  2  1  0
 11  9  1  0
 12 11  1  0
 13 14  1  0
 12 13  1  1
 14 15  2  0
 14 22  1  0
 15 16  1  0
 16 17  1  0
 17 18  2  0
 18 19  1  0
 20 19  2  0
 21 20  1  0
 22 21  2  0
 22 17  1  0
 23 29  1  0
 23 12  1  0
 24 23  2  0
 26 28  1  0
 26 25  1  1
 27 26  1  0
 28 29  1  1
 28 30  1  0
 30 32  1  0
 31 30  2  0
M  END
$$$$
