HWT.pdb
     RDKit          3D

 32 34  0  0  1  0  0  0  0  0999 V2000
    8.1708  -16.4433   21.1477 N   0  0  0  0  0  0  0  0  0  0  0  0
    8.8789  -15.2546   21.5841 C   0  0  1  0  0  0  0  0  0  0  0  0
    8.0173  -14.0534   21.2393 C   0  0  0  0  0  0  0  0  0  0  0  0
    7.9101  -13.9802   19.7649 C   0  0  0  0  0  0  0  0  0  0  0  0
    8.4821  -12.9843   18.9986 C   0  0  0  0  0  0  0  0  0  0  0  0
    8.1756  -13.2473   17.7138 N   0  0  0  0  0  0  0  0  0  0  0  0
    7.4311  -14.3741   17.6493 C   0  0  0  0  0  0  0  0  0  0  0  0
    7.2801  -14.8066   18.9136 N   0  0  0  0  0  0  0  0  0  0  0  0
    9.2282  -15.3084   23.0123 C   0  0  0  0  0  0  0  0  0  0  0  0
    9.9158  -14.3541   23.5034 O   0  0  0  0  0  0  0  0  0  0  0  0
    8.8006  -16.4018   23.8013 N   0  0  0  0  0  0  0  0  0  0  0  0
    9.2104  -16.5300   25.2055 C   0  0  1  0  0  0  0  0  0  0  0  0
    7.9373  -16.4593   26.0043 C   0  0  0  0  0  0  0  0  0  0  0  0
    7.0835  -15.2989   25.7534 C   0  0  0  0  0  0  0  0  0  0  0  0
    5.8807  -15.2411   25.1099 C   0  0  0  0  0  0  0  0  0  0  0  0
    5.4532  -13.9663   25.0824 N   0  0  0  0  0  0  0  0  0  0  0  0
    6.3495  -13.1765   25.6957 C   0  0  0  0  0  0  0  0  0  0  0  0
    6.4346  -11.8226   25.9587 C   0  0  0  0  0  0  0  0  0  0  0  0
    7.5288  -11.3136   26.6336 C   0  0  0  0  0  0  0  0  0  0  0  0
    8.5501  -12.1378   27.0554 C   0  0  0  0  0  0  0  0  0  0  0  0
    8.4472  -13.4841   26.7840 C   0  0  0  0  0  0  0  0  0  0  0  0
    7.3610  -13.9931   26.1136 C   0  0  0  0  0  0  0  0  0  0  0  0
    9.9085  -17.7838   25.4432 C   0  0  0  0  0  0  0  0  0  0  0  0
    9.2855  -18.8607   25.1217 O   0  0  0  0  0  0  0  0  0  0  0  0
   12.8722  -19.5033   24.0892 C   0  0  0  0  0  0  0  0  0  0  0  0
   13.0483  -19.5529   25.6029 C   0  0  1  0  0  0  0  0  0  0  0  0
   13.8453  -18.4620   25.9449 O   0  0  0  0  0  0  0  0  0  0  0  0
   11.7001  -19.3320   26.2858 C   0  0  2  0  0  0  0  0  0  0  0  0
   11.1908  -18.0036   25.9774 N   0  0  0  0  0  0  0  0  0  0  0  0
   11.9660  -19.4124   27.7347 C   0  0  0  0  0  0  0  0  0  0  0  0
   11.8958  -18.4434   28.5300 O   0  0  0  0  0  0  0  0  0  0  0  0
   12.3308  -20.6438   28.3308 O   0  0  0  0  0  0  0  0  0  0  0  0
  2  1  1  1
  3  2  1  0
  3  4  1  0
  4  5  2  0
  5  6  1  0
  7  6  1  0
  8  4  1  0
  8  7  2  0
  9 10  2  0
  9  2  1  0
 11  9  1  0
 12 11  1  0
 13 14  1  0
 12 13  1  1
 14 15  2  0
 14 22  1  0
 15 16  1  0
 16 17  1  0
 17 18  2  0
 18 19  1  0
 20 19  2  0
 21 20  1  0
 22 21  2  0
 22 17  1  0
 23 29  1  0
 23 12  1  0
 24 23  2  0
 26 28  1  0
 26 25  1  6
 27 26  1  0
 28 29  1  1
 28 30  1  0
 30 32  1  0
 31 30  2  0
M  END
$$$$
