HWT.pdb
     RDKit          3D

 32 34  0  0  1  0  0  0  0  0999 V2000
    8.7122  -17.6371   20.6677 N   0  0  0  0  0  0  0  0  0  0  0  0
    9.6345  -16.5546   20.9547 C   0  0  1  0  0  0  0  0  0  0  0  0
    9.1813  -15.3419   20.1620 C   0  0  0  0  0  0  0  0  0  0  0  0
    9.2031  -15.7040   18.7271 C   0  0  0  0  0  0  0  0  0  0  0  0
   10.3080  -16.2182   18.0781 C   0  0  0  0  0  0  0  0  0  0  0  0
    9.9542  -16.4233   16.7949 N   0  0  0  0  0  0  0  0  0  0  0  0
    8.6653  -16.0551   16.6181 C   0  0  0  0  0  0  0  0  0  0  0  0
    8.2244  -15.6182   17.8110 N   0  0  0  0  0  0  0  0  0  0  0  0
    9.7390  -16.2807   22.3965 C   0  0  0  0  0  0  0  0  0  0  0  0
   10.3751  -15.2413   22.7703 O   0  0  0  0  0  0  0  0  0  0  0  0
    9.1404  -17.1628   23.3262 N   0  0  0  0  0  0  0  0  0  0  0  0
    9.3154  -16.9741   24.7718 C   0  0  1  0  0  0  0  0  0  0  0  0
    7.9258  -16.8253   25.3293 C   0  0  0  0  0  0  0  0  0  0  0  0
    7.2171  -15.5969   24.9726 C   0  0  0  0  0  0  0  0  0  0  0  0
    6.3447  -15.3764   23.9458 C   0  0  0  0  0  0  0  0  0  0  0  0
    5.9455  -14.0924   23.9710 N   0  0  0  0  0  0  0  0  0  0  0  0
    6.5364  -13.4562   24.9953 C   0  0  0  0  0  0  0  0  0  0  0  0
    6.5020  -12.1664   25.4900 C   0  0  0  0  0  0  0  0  0  0  0  0
    7.2560  -11.8271   26.5981 C   0  0  0  0  0  0  0  0  0  0  0  0
    8.0519  -12.7594   27.2287 C   0  0  0  0  0  0  0  0  0  0  0  0
    8.0731  -14.0395   26.7210 C   0  0  0  0  0  0  0  0  0  0  0  0
    7.3247  -14.3799   25.6199 C   0  0  0  0  0  0  0  0  0  0  0  0
   10.0035  -18.1042   25.3760 C   0  0  0  0  0  0  0  0  0  0  0  0
    9.4441  -19.2542   25.2508 O   0  0  0  0  0  0  0  0  0  0  0  0
   13.5147  -19.5656   24.9686 C   0  0  0  0  0  0  0  0  0  0  0  0
   13.2422  -19.4546   26.4647 C   0  0  1  0  0  0  0  0  0  0  0  0
   13.7982  -18.2460   26.8800 O   0  0  0  0  0  0  0  0  0  0  0  0
   11.7385  -19.3428   26.7075 C   0  0  2  0  0  0  0  0  0  0  0  0
   11.2166  -18.1337   26.0872 N   0  0  0  0  0  0  0  0  0  0  0  0
   11.5749  -19.2331   28.1695 C   0  0  0  0  0  0  0  0  0  0  0  0
   11.1869  -18.2016   28.7709 O   0  0  0  0  0  0  0  0  0  0  0  0
   11.8602  -20.3371   29.0090 O   0  0  0  0  0  0  0  0  0  0  0  0
  2  1  1  1
  3  2  1  0
  3  4  1  0
  4  5  2  0
  5  6  1  0
  7  6  1  0
  8  4  1  0
  8  7  2  0
  9 10  2  0
  9  2  1  0
 11  9  1  0
 12 11  1  0
 13 14  1  0
 12 13  1  1
 14 15  2  0
 14 22  1  0
 15 16  1  0
 16 17  1  0
 17 18  2  0
 18 19  1  0
 20 19  2  0
 21 20  1  0
 22 21  2  0
 22 17  1  0
 23 29  1  0
 23 12  1  0
 24 23  2  0
 26 28  1  0
 26 25  1  6
 27 26  1  0
 28 29  1  6
 28 30  1  0
 30 32  1  0
 31 30  2  0
M  END
$$$$
