HWT.pdb
     RDKit          3D

 32 34  0  0  1  0  0  0  0  0999 V2000
    7.5522  -14.6546   20.2191 N   0  0  0  0  0  0  0  0  0  0  0  0
    8.0141  -15.9345   20.7225 C   0  0  1  0  0  0  0  0  0  0  0  0
    8.8871  -16.5622   19.6511 C   0  0  0  0  0  0  0  0  0  0  0  0
    8.0481  -16.7775   18.4509 C   0  0  0  0  0  0  0  0  0  0  0  0
    7.0166  -17.6929   18.3852 C   0  0  0  0  0  0  0  0  0  0  0  0
    6.4878  -17.6062   17.1496 N   0  0  0  0  0  0  0  0  0  0  0  0
    7.1530  -16.6677   16.4392 C   0  0  0  0  0  0  0  0  0  0  0  0
    8.1028  -16.1730   17.2525 N   0  0  0  0  0  0  0  0  0  0  0  0
    8.7078  -15.8066   22.0137 C   0  0  0  0  0  0  0  0  0  0  0  0
    9.6108  -14.9145   22.1296 O   0  0  0  0  0  0  0  0  0  0  0  0
    8.3644  -16.6633   23.0856 N   0  0  0  0  0  0  0  0  0  0  0  0
    9.0514  -16.5712   24.3801 C   0  0  1  0  0  0  0  0  0  0  0  0
    7.9602  -16.5745   25.4160 C   0  0  0  0  0  0  0  0  0  0  0  0
    7.0915  -15.3983   25.4399 C   0  0  0  0  0  0  0  0  0  0  0  0
    5.7962  -15.2791   25.0252 C   0  0  0  0  0  0  0  0  0  0  0  0
    5.3877  -14.0106   25.2055 N   0  0  0  0  0  0  0  0  0  0  0  0
    6.3876  -13.2852   25.7322 C   0  0  0  0  0  0  0  0  0  0  0  0
    6.5354  -11.9659   26.1157 C   0  0  0  0  0  0  0  0  0  0  0  0
    7.7370  -11.5252   26.6389 C   0  0  0  0  0  0  0  0  0  0  0  0
    8.8048  -12.3842   26.7883 C   0  0  0  0  0  0  0  0  0  0  0  0
    8.6381  -13.6951   26.4004 C   0  0  0  0  0  0  0  0  0  0  0  0
    7.4451  -14.1362   25.8801 C   0  0  0  0  0  0  0  0  0  0  0  0
    9.9642  -17.6863   24.5779 C   0  0  0  0  0  0  0  0  0  0  0  0
    9.4441  -18.8611   24.5967 O   0  0  0  0  0  0  0  0  0  0  0  0
   13.6273  -18.3163   23.0846 C   0  0  0  0  0  0  0  0  0  0  0  0
   13.5822  -18.6857   24.5633 C   0  0  1  0  0  0  0  0  0  0  0  0
   14.0546  -17.5770   25.2631 O   0  0  0  0  0  0  0  0  0  0  0  0
   12.1324  -18.8852   25.0004 C   0  0  2  0  0  0  0  0  0  0  0  0
   11.3601  -17.6769   24.7501 N   0  0  0  0  0  0  0  0  0  0  0  0
   12.1809  -19.1230   26.4555 C   0  0  0  0  0  0  0  0  0  0  0  0
   11.6944  -18.3563   27.3226 O   0  0  0  0  0  0  0  0  0  0  0  0
   12.8076  -20.2823   26.9734 O   0  0  0  0  0  0  0  0  0  0  0  0
  2  1  1  6
  3  2  1  0
  3  4  1  0
  4  5  2  0
  5  6  1  0
  7  6  1  0
  8  4  1  0
  8  7  2  0
  9 10  2  0
  9  2  1  0
 11  9  1  0
 12 11  1  0
 13 14  1  0
 12 13  1  1
 14 15  2  0
 14 22  1  0
 15 16  1  0
 16 17  1  0
 17 18  2  0
 18 19  1  0
 20 19  2  0
 21 20  1  0
 22 21  2  0
 22 17  1  0
 23 29  1  0
 23 12  1  0
 24 23  2  0
 26 28  1  0
 26 25  1  6
 27 26  1  0
 28 29  1  1
 28 30  1  0
 30 32  1  0
 31 30  2  0
M  END
$$$$
