HWT.pdb
     RDKit          3D

 32 34  0  0  1  0  0  0  0  0999 V2000
   10.3282  -16.5967   18.1212 N   0  0  0  0  0  0  0  0  0  0  0  0
    9.3515  -17.0756   19.0812 C   0  0  1  0  0  0  0  0  0  0  0  0
    9.4871  -18.5854   19.1611 C   0  0  0  0  0  0  0  0  0  0  0  0
    9.0740  -19.1476   17.8557 C   0  0  0  0  0  0  0  0  0  0  0  0
    7.9861  -18.7002   17.1329 C   0  0  0  0  0  0  0  0  0  0  0  0
    7.9241  -19.4415   16.0102 N   0  0  0  0  0  0  0  0  0  0  0  0
    8.9362  -20.3380   16.0053 C   0  0  0  0  0  0  0  0  0  0  0  0
    9.6274  -20.1420   17.1420 N   0  0  0  0  0  0  0  0  0  0  0  0
    9.4958  -16.4249   20.3929 C   0  0  0  0  0  0  0  0  0  0  0  0
   10.6637  -16.0869   20.7753 O   0  0  0  0  0  0  0  0  0  0  0  0
    8.3527  -16.1904   21.1923 N   0  0  0  0  0  0  0  0  0  0  0  0
    8.4766  -15.6580   22.5551 C   0  0  1  0  0  0  0  0  0  0  0  0
    7.0716  -15.3482   22.9955 C   0  0  0  0  0  0  0  0  0  0  0  0
    6.9062  -14.9627   24.3964 C   0  0  0  0  0  0  0  0  0  0  0  0
    6.4911  -15.7219   25.4525 C   0  0  0  0  0  0  0  0  0  0  0  0
    6.4595  -14.9606   26.5607 N   0  0  0  0  0  0  0  0  0  0  0  0
    6.8459  -13.7102   26.2603 C   0  0  0  0  0  0  0  0  0  0  0  0
    7.0003  -12.5401   26.9790 C   0  0  0  0  0  0  0  0  0  0  0  0
    7.4291  -11.3879   26.3464 C   0  0  0  0  0  0  0  0  0  0  0  0
    7.7096  -11.3804   24.9967 C   0  0  0  0  0  0  0  0  0  0  0  0
    7.5498  -12.5562   24.2975 C   0  0  0  0  0  0  0  0  0  0  0  0
    7.1239  -13.7031   24.9233 C   0  0  0  0  0  0  0  0  0  0  0  0
    9.1043  -16.6206   23.4469 C   0  0  0  0  0  0  0  0  0  0  0  0
    8.6765  -17.8305   23.3826 O   0  0  0  0  0  0  0  0  0  0  0  0
   12.7982  -18.5287   26.0616 C   0  0  0  0  0  0  0  0  0  0  0  0
   12.2228  -17.4241   25.1819 C   0  0  1  0  0  0  0  0  0  0  0  0
   12.6412  -17.6957   23.8806 O   0  0  0  0  0  0  0  0  0  0  0  0
   10.6983  -17.5151   25.1719 C   0  0  2  0  0  0  0  0  0  0  0  0
   10.1339  -16.4280   24.3854 N   0  0  0  0  0  0  0  0  0  0  0  0
   10.2771  -17.3516   26.5762 C   0  0  0  0  0  0  0  0  0  0  0  0
    9.7127  -16.3304   27.0398 O   0  0  0  0  0  0  0  0  0  0  0  0
   10.4977  -18.3862   27.5174 O   0  0  0  0  0  0  0  0  0  0  0  0
  2  1  1  6
  3  2  1  0
  3  4  1  0
  4  5  2  0
  5  6  1  0
  7  6  1  0
  8  4  1  0
  8  7  2  0
  9 10  2  0
  9  2  1  0
 11  9  1  0
 12 11  1  0
 13 14  1  0
 12 13  1  1
 14 15  2  0
 14 22  1  0
 15 16  1  0
 16 17  1  0
 17 18  2  0
 18 19  1  0
 20 19  2  0
 21 20  1  0
 22 21  2  0
 22 17  1  0
 23 29  1  0
 23 12  1  0
 24 23  2  0
 26 28  1  0
 26 25  1  1
 27 26  1  0
 28 29  1  6
 28 30  1  0
 30 32  1  0
 31 30  2  0
M  END
$$$$
