IMS.pdb
     RDKit          3D

 23 22  0  0  1  0  0  0  0  0999 V2000
    8.0371  -11.9302   19.0534 C   0  0  0  0  0  0  0  0  0  0  0  0
    7.3430  -12.9609   19.9164 C   0  0  0  0  0  0  0  0  0  0  0  0
    8.0207  -14.3106   19.7772 C   0  0  2  0  0  0  0  0  0  0  0  0
    7.8642  -14.7589   18.3379 C   0  0  0  0  0  0  0  0  0  0  0  0
    7.4941  -15.3157   20.7505 C   0  0  2  0  0  0  0  0  0  0  0  0
    6.0653  -15.4715   20.4527 N   0  0  0  0  0  0  0  0  0  0  0  0
    7.6798  -14.9506   22.1703 C   0  0  0  0  0  0  0  0  0  0  0  0
    7.0835  -13.9306   22.6018 O   0  0  0  0  0  0  0  0  0  0  0  0
    7.9716  -12.6532   28.3029 C   0  0  0  0  0  0  0  0  0  0  0  0
    7.6141  -13.0196   26.5604 S   0  0  0  0  0  0  0  0  0  0  0  0
    7.1298  -14.8036   26.5075 C   0  0  0  0  0  0  0  0  0  0  0  0
    7.2537  -15.2280   25.1038 C   0  0  0  0  0  0  0  0  0  0  0  0
    8.6236  -15.3178   24.5045 C   0  0  2  0  0  0  0  0  0  0  0  0
    8.4722  -15.6597   23.0672 N   0  0  0  0  0  0  0  0  0  0  0  0
    9.5555  -16.2324   25.1544 C   0  0  0  0  0  0  0  0  0  0  0  0
    9.1678  -17.3345   25.6938 O   0  0  0  0  0  0  0  0  0  0  0  0
   13.2313  -16.0683   23.9260 O   0  0  0  0  0  0  0  0  0  0  0  0
   13.2662  -16.6064   25.1998 C   0  0  0  0  0  0  0  0  0  0  0  0
   11.8877  -17.0448   25.6559 C   0  0  2  0  0  0  0  0  0  0  0  0
   10.9541  -16.0154   25.2562 N   0  0  0  0  0  0  0  0  0  0  0  0
   11.8371  -17.3546   27.0774 C   0  0  0  0  0  0  0  0  0  0  0  0
   12.6223  -18.3625   27.5960 O   0  0  0  0  0  0  0  0  0  0  0  0
   11.0858  -16.7153   27.8433 O   0  0  0  0  0  0  0  0  0  0  0  0
  2  1  1  0
  3  4  1  6
  3  2  1  0
  5  3  1  0
  5  6  1  6
  7  8  2  0
  7  5  1  0
 10 11  1  0
 10  9  1  0
 11 12  1  0
 13 12  1  1
 13 14  1  0
 14  7  1  0
 15 13  1  0
 16 15  2  0
 18 17  1  0
 19 18  1  1
 19 21  1  0
 19 20  1  0
 20 15  1  0
 21 22  1  0
 23 21  2  0
M  END
$$$$
