IMS.pdb
     RDKit          3D

 23 22  0  0  1  0  0  0  0  0999 V2000
    6.6319  -11.8284   28.0688 C   0  0  0  0  0  0  0  0  0  0  0  0
    6.0235  -13.0415   27.4001 C   0  0  0  0  0  0  0  0  0  0  0  0
    6.9780  -13.6118   26.3687 C   0  0  2  0  0  0  0  0  0  0  0  0
    7.3507  -12.4928   25.4168 C   0  0  0  0  0  0  0  0  0  0  0  0
    6.4094  -14.7997   25.6614 C   0  0  2  0  0  0  0  0  0  0  0  0
    6.2056  -15.8324   26.6843 N   0  0  0  0  0  0  0  0  0  0  0  0
    7.2547  -15.3264   24.5697 C   0  0  0  0  0  0  0  0  0  0  0  0
    7.9144  -16.3754   24.7857 O   0  0  0  0  0  0  0  0  0  0  0  0
    8.6561  -11.9107   19.3167 C   0  0  0  0  0  0  0  0  0  0  0  0
    8.2127  -13.4782   18.5139 S   0  0  0  0  0  0  0  0  0  0  0  0
    8.6228  -14.8057   19.7344 C   0  0  0  0  0  0  0  0  0  0  0  0
    7.9661  -14.4293   20.9965 C   0  0  0  0  0  0  0  0  0  0  0  0
    8.1559  -15.3140   22.1903 C   0  0  2  0  0  0  0  0  0  0  0  0
    7.3726  -14.7399   23.3138 N   0  0  0  0  0  0  0  0  0  0  0  0
    9.5338  -15.5623   22.5992 C   0  0  0  0  0  0  0  0  0  0  0  0
   10.2490  -14.6609   23.1754 O   0  0  0  0  0  0  0  0  0  0  0  0
   10.8734  -18.2054   24.6892 O   0  0  0  0  0  0  0  0  0  0  0  0
   11.6986  -18.2573   23.5803 C   0  0  0  0  0  0  0  0  0  0  0  0
   11.6077  -16.9848   22.7599 C   0  0  2  0  0  0  0  0  0  0  0  0
   10.2164  -16.7926   22.4157 N   0  0  0  0  0  0  0  0  0  0  0  0
   12.4956  -16.9941   21.6064 C   0  0  0  0  0  0  0  0  0  0  0  0
   11.9782  -16.8955   20.3320 O   0  0  0  0  0  0  0  0  0  0  0  0
   13.7320  -17.0910   21.7538 O   0  0  0  0  0  0  0  0  0  0  0  0
  2  1  1  0
  3  4  1  6
  3  2  1  0
  5  3  1  0
  5  6  1  1
  7  8  2  0
  7  5  1  0
 10 11  1  0
 10  9  1  0
 11 12  1  0
 13 12  1  6
 13 14  1  0
 14  7  1  0
 15 13  1  0
 16 15  2  0
 18 17  1  0
 19 18  1  6
 19 21  1  0
 19 20  1  0
 20 15  1  0
 21 22  1  0
 23 21  2  0
M  END
$$$$
