IMS.pdb
     RDKit          3D

 23 22  0  0  1  0  0  0  0  0999 V2000
    7.8082  -12.0854   19.6515 C   0  0  0  0  0  0  0  0  0  0  0  0
    7.5626  -13.3599   20.4290 C   0  0  0  0  0  0  0  0  0  0  0  0
    8.5227  -14.4457   19.9824 C   0  0  2  0  0  0  0  0  0  0  0  0
    8.2282  -14.7518   18.5275 C   0  0  0  0  0  0  0  0  0  0  0  0
    8.4510  -15.6615   20.8491 C   0  0  2  0  0  0  0  0  0  0  0  0
    7.1189  -16.2413   20.6401 N   0  0  0  0  0  0  0  0  0  0  0  0
    8.6724  -15.4036   22.2873 C   0  0  0  0  0  0  0  0  0  0  0  0
    9.8489  -15.1847   22.6748 O   0  0  0  0  0  0  0  0  0  0  0  0
    8.0795  -11.8214   28.2254 C   0  0  0  0  0  0  0  0  0  0  0  0
    8.1163  -12.5967   26.5835 S   0  0  0  0  0  0  0  0  0  0  0  0
    6.7525  -13.8457   26.5829 C   0  0  0  0  0  0  0  0  0  0  0  0
    6.6920  -14.3967   25.2196 C   0  0  0  0  0  0  0  0  0  0  0  0
    7.8889  -15.1267   24.6921 C   0  0  2  0  0  0  0  0  0  0  0  0
    7.6656  -15.3863   23.2469 N   0  0  0  0  0  0  0  0  0  0  0  0
    8.2531  -16.3576   25.3846 C   0  0  0  0  0  0  0  0  0  0  0  0
    7.3784  -17.2436   25.7101 O   0  0  0  0  0  0  0  0  0  0  0  0
   11.9695  -17.9551   25.1937 O   0  0  0  0  0  0  0  0  0  0  0  0
   10.8523  -18.7074   25.5088 C   0  0  0  0  0  0  0  0  0  0  0  0
    9.9102  -17.9474   26.4227 C   0  0  2  0  0  0  0  0  0  0  0  0
    9.5763  -16.7057   25.7608 N   0  0  0  0  0  0  0  0  0  0  0  0
   10.4504  -17.7646   27.7620 C   0  0  0  0  0  0  0  0  0  0  0  0
   10.8089  -18.8589   28.5206 O   0  0  0  0  0  0  0  0  0  0  0  0
   10.5961  -16.6202   28.2405 O   0  0  0  0  0  0  0  0  0  0  0  0
  2  1  1  0
  3  4  1  6
  3  2  1  0
  5  3  1  0
  5  6  1  1
  7  8  2  0
  7  5  1  0
 10 11  1  0
 10  9  1  0
 11 12  1  0
 13 12  1  1
 13 14  1  0
 14  7  1  0
 15 13  1  0
 16 15  2  0
 18 17  1  0
 19 18  1  6
 19 21  1  0
 19 20  1  0
 20 15  1  0
 21 22  1  0
 23 21  2  0
M  END
$$$$
