IMS.pdb
     RDKit          3D

 23 22  0  0  1  0  0  0  0  0999 V2000
    5.3732  -20.3141   20.1303 C   0  0  0  0  0  0  0  0  0  0  0  0
    5.4957  -18.8063   20.1066 C   0  0  0  0  0  0  0  0  0  0  0  0
    6.3284  -18.3245   21.2791 C   0  0  2  0  0  0  0  0  0  0  0  0
    5.6991  -18.8685   22.5461 C   0  0  0  0  0  0  0  0  0  0  0  0
    6.4708  -16.8366   21.3036 C   0  0  2  0  0  0  0  0  0  0  0  0
    7.0354  -16.4531   20.0042 N   0  0  0  0  0  0  0  0  0  0  0  0
    7.3183  -16.3193   22.3980 C   0  0  0  0  0  0  0  0  0  0  0  0
    8.5662  -16.4260   22.2809 O   0  0  0  0  0  0  0  0  0  0  0  0
    7.0781  -10.6978   26.1941 C   0  0  0  0  0  0  0  0  0  0  0  0
    6.4457  -12.1497   27.0832 S   0  0  0  0  0  0  0  0  0  0  0  0
    7.5352  -13.5599   26.5890 C   0  0  0  0  0  0  0  0  0  0  0  0
    6.9361  -14.1460   25.3793 C   0  0  0  0  0  0  0  0  0  0  0  0
    7.6804  -15.2366   24.6719 C   0  0  2  0  0  0  0  0  0  0  0  0
    6.8299  -15.7199   23.5544 N   0  0  0  0  0  0  0  0  0  0  0  0
    8.1292  -16.3534   25.4957 C   0  0  0  0  0  0  0  0  0  0  0  0
    7.3038  -17.1807   26.0346 O   0  0  0  0  0  0  0  0  0  0  0  0
   10.8571  -18.5954   24.5531 O   0  0  0  0  0  0  0  0  0  0  0  0
   11.0936  -18.4075   25.9029 C   0  0  0  0  0  0  0  0  0  0  0  0
    9.9030  -17.7684   26.5920 C   0  0  2  0  0  0  0  0  0  0  0  0
    9.4881  -16.6450   25.7815 N   0  0  0  0  0  0  0  0  0  0  0  0
   10.1772  -17.4154   27.9774 C   0  0  0  0  0  0  0  0  0  0  0  0
   10.5596  -18.3869   28.8781 O   0  0  0  0  0  0  0  0  0  0  0  0
   10.0703  -16.2339   28.3677 O   0  0  0  0  0  0  0  0  0  0  0  0
  2  1  1  0
  3  4  1  1
  3  2  1  0
  5  3  1  0
  5  6  1  6
  7  8  2  0
  7  5  1  0
 10 11  1  0
 10  9  1  0
 11 12  1  0
 13 12  1  1
 13 14  1  0
 14  7  1  0
 15 13  1  0
 16 15  2  0
 18 17  1  0
 19 18  1  6
 19 21  1  0
 19 20  1  0
 20 15  1  0
 21 22  1  0
 23 21  2  0
M  END
$$$$
