IMS.pdb
     RDKit          3D

 23 22  0  0  1  0  0  0  0  0999 V2000
    6.5902  -19.0089   18.3797 C   0  0  0  0  0  0  0  0  0  0  0  0
    6.6606  -17.5048   18.5276 C   0  0  0  0  0  0  0  0  0  0  0  0
    7.3449  -17.1325   19.8289 C   0  0  2  0  0  0  0  0  0  0  0  0
    6.6554  -17.8903   20.9458 C   0  0  0  0  0  0  0  0  0  0  0  0
    7.3596  -15.6561   20.0628 C   0  0  2  0  0  0  0  0  0  0  0  0
    8.0533  -15.0616   18.9140 N   0  0  0  0  0  0  0  0  0  0  0  0
    8.0137  -15.2407   21.3211 C   0  0  0  0  0  0  0  0  0  0  0  0
    9.2679  -15.3100   21.3869 O   0  0  0  0  0  0  0  0  0  0  0  0
    6.6910  -11.4548   28.1187 C   0  0  0  0  0  0  0  0  0  0  0  0
    6.1756  -11.9591   26.4519 S   0  0  0  0  0  0  0  0  0  0  0  0
    7.4236  -13.2030   25.8909 C   0  0  0  0  0  0  0  0  0  0  0  0
    7.0556  -13.5718   24.5145 C   0  0  0  0  0  0  0  0  0  0  0  0
    7.9820  -14.4605   23.7427 C   0  0  2  0  0  0  0  0  0  0  0  0
    7.3356  -14.7765   22.4435 N   0  0  0  0  0  0  0  0  0  0  0  0
    8.4137  -15.6824   24.4120 C   0  0  0  0  0  0  0  0  0  0  0  0
    7.5992  -16.6445   24.6710 O   0  0  0  0  0  0  0  0  0  0  0  0
   12.3398  -16.9142   24.3651 O   0  0  0  0  0  0  0  0  0  0  0  0
   11.2393  -17.7510   24.4126 C   0  0  0  0  0  0  0  0  0  0  0  0
   10.1761  -17.2179   25.3538 C   0  0  2  0  0  0  0  0  0  0  0  0
    9.7435  -15.9392   24.8352 N   0  0  0  0  0  0  0  0  0  0  0  0
   10.6258  -17.1617   26.7371 C   0  0  0  0  0  0  0  0  0  0  0  0
   11.0527  -18.3073   27.3749 O   0  0  0  0  0  0  0  0  0  0  0  0
   10.6312  -16.0807   27.3627 O   0  0  0  0  0  0  0  0  0  0  0  0
  2  1  1  0
  3  4  1  1
  3  2  1  0
  5  3  1  0
  5  6  1  6
  7  8  2  0
  7  5  1  0
 10 11  1  0
 10  9  1  0
 11 12  1  0
 13 12  1  1
 13 14  1  0
 14  7  1  0
 15 13  1  0
 16 15  2  0
 18 17  1  0
 19 18  1  6
 19 21  1  0
 19 20  1  0
 20 15  1  0
 21 22  1  0
 23 21  2  0
M  END
$$$$
