IMS.pdb
     RDKit          3D

 23 22  0  0  1  0  0  0  0  0999 V2000
    1.4925  -19.2670   21.9870 C   0  0  0  0  0  0  0  0  0  0  0  0
    2.8278  -19.6356   22.5953 C   0  0  0  0  0  0  0  0  0  0  0  0
    3.8232  -18.5063   22.4110 C   0  0  2  0  0  0  0  0  0  0  0  0
    3.8805  -18.1789   20.9322 C   0  0  0  0  0  0  0  0  0  0  0  0
    5.1673  -18.8332   22.9776 C   0  0  2  0  0  0  0  0  0  0  0  0
    4.9290  -19.3874   24.3157 N   0  0  0  0  0  0  0  0  0  0  0  0
    6.0937  -17.6850   23.0613 C   0  0  0  0  0  0  0  0  0  0  0  0
    6.6717  -17.3131   22.0078 O   0  0  0  0  0  0  0  0  0  0  0  0
    5.8014  -11.9081   26.5825 C   0  0  0  0  0  0  0  0  0  0  0  0
    7.0143  -13.0504   27.3053 S   0  0  0  0  0  0  0  0  0  0  0  0
    7.8293  -13.8941   25.8757 C   0  0  0  0  0  0  0  0  0  0  0  0
    6.9769  -15.0421   25.5276 C   0  0  0  0  0  0  0  0  0  0  0  0
    7.3339  -15.8551   24.3212 C   0  0  2  0  0  0  0  0  0  0  0  0
    6.3727  -16.9835   24.2297 N   0  0  0  0  0  0  0  0  0  0  0  0
    8.7066  -16.3431   24.2527 C   0  0  0  0  0  0  0  0  0  0  0  0
    9.1230  -17.3178   24.9824 O   0  0  0  0  0  0  0  0  0  0  0  0
   10.8639  -16.2487   20.9540 O   0  0  0  0  0  0  0  0  0  0  0  0
   11.6587  -15.8795   22.0242 C   0  0  0  0  0  0  0  0  0  0  0  0
   11.0568  -16.3249   23.3432 C   0  0  2  0  0  0  0  0  0  0  0  0
    9.7049  -15.8141   23.3942 N   0  0  0  0  0  0  0  0  0  0  0  0
   11.8667  -15.9403   24.4901 C   0  0  0  0  0  0  0  0  0  0  0  0
   13.1719  -16.3728   24.5938 O   0  0  0  0  0  0  0  0  0  0  0  0
   11.3933  -15.2170   25.3915 O   0  0  0  0  0  0  0  0  0  0  0  0
  2  1  1  0
  3  4  1  6
  3  2  1  0
  5  3  1  0
  5  6  1  1
  7  8  2  0
  7  5  1  0
 10 11  1  0
 10  9  1  0
 11 12  1  0
 13 12  1  1
 13 14  1  0
 14  7  1  0
 15 13  1  0
 16 15  2  0
 18 17  1  0
 19 18  1  6
 19 21  1  0
 19 20  1  0
 20 15  1  0
 21 22  1  0
 23 21  2  0
M  END
$$$$
