IMS.pdb
     RDKit          3D

 23 22  0  0  1  0  0  0  0  0999 V2000
    6.8458  -11.8824   27.9373 C   0  0  0  0  0  0  0  0  0  0  0  0
    6.0926  -12.8662   27.0690 C   0  0  0  0  0  0  0  0  0  0  0  0
    7.0375  -13.5444   26.0956 C   0  0  2  0  0  0  0  0  0  0  0  0
    7.7061  -12.4620   25.2720 C   0  0  0  0  0  0  0  0  0  0  0  0
    6.3472  -14.5644   25.2484 C   0  0  2  0  0  0  0  0  0  0  0  0
    5.7737  -15.5506   26.1720 N   0  0  0  0  0  0  0  0  0  0  0  0
    7.2206  -15.2379   24.2649 C   0  0  0  0  0  0  0  0  0  0  0  0
    7.5424  -16.4345   24.4812 O   0  0  0  0  0  0  0  0  0  0  0  0
    8.9068  -13.8157   17.7835 C   0  0  0  0  0  0  0  0  0  0  0  0
    7.7336  -12.9528   18.8685 S   0  0  0  0  0  0  0  0  0  0  0  0
    7.3332  -14.1411   20.2278 C   0  0  0  0  0  0  0  0  0  0  0  0
    8.6102  -14.4776   20.8773 C   0  0  0  0  0  0  0  0  0  0  0  0
    8.5799  -15.3199   22.1157 C   0  0  2  0  0  0  0  0  0  0  0  0
    7.7143  -14.6378   23.1112 N   0  0  0  0  0  0  0  0  0  0  0  0
    9.8726  -15.6541   22.7027 C   0  0  0  0  0  0  0  0  0  0  0  0
   10.5450  -14.8089   23.4024 O   0  0  0  0  0  0  0  0  0  0  0  0
   10.9459  -18.6753   24.7338 O   0  0  0  0  0  0  0  0  0  0  0  0
   11.8219  -18.5837   23.6672 C   0  0  0  0  0  0  0  0  0  0  0  0
   11.8383  -17.1853   23.0800 C   0  0  2  0  0  0  0  0  0  0  0  0
   10.5109  -16.9149   22.5740 N   0  0  0  0  0  0  0  0  0  0  0  0
   12.8867  -17.0041   22.0866 C   0  0  0  0  0  0  0  0  0  0  0  0
   14.2114  -17.1440   22.4427 O   0  0  0  0  0  0  0  0  0  0  0  0
   12.6027  -16.7207   20.9038 O   0  0  0  0  0  0  0  0  0  0  0  0
  2  1  1  0
  3  4  1  6
  3  2  1  0
  5  3  1  0
  5  6  1  1
  7  8  2  0
  7  5  1  0
 10 11  1  0
 10  9  1  0
 11 12  1  0
 13 12  1  6
 13 14  1  0
 14  7  1  0
 15 13  1  0
 16 15  2  0
 18 17  1  0
 19 18  1  6
 19 21  1  0
 19 20  1  0
 20 15  1  0
 21 22  1  0
 23 21  2  0
M  END
$$$$
