IMS.pdb
     RDKit          3D

 23 22  0  0  1  0  0  0  0  0999 V2000
    7.9634  -15.8548   16.5770 C   0  0  0  0  0  0  0  0  0  0  0  0
    7.4503  -14.7397   17.4615 C   0  0  0  0  0  0  0  0  0  0  0  0
    8.0244  -14.8663   18.8596 C   0  0  2  0  0  0  0  0  0  0  0  0
    7.6420  -16.2325   19.3931 C   0  0  0  0  0  0  0  0  0  0  0  0
    7.5841  -13.7566   19.7590 C   0  0  2  0  0  0  0  0  0  0  0  0
    8.0474  -12.5105   19.1369 N   0  0  0  0  0  0  0  0  0  0  0  0
    8.0910  -13.8514   21.1439 C   0  0  0  0  0  0  0  0  0  0  0  0
    9.3008  -13.5765   21.3513 O   0  0  0  0  0  0  0  0  0  0  0  0
    7.9914  -12.0610   27.8576 C   0  0  0  0  0  0  0  0  0  0  0  0
    6.5755  -12.3608   26.7604 S   0  0  0  0  0  0  0  0  0  0  0  0
    6.8725  -14.0163   25.9917 C   0  0  0  0  0  0  0  0  0  0  0  0
    6.7078  -13.8379   24.5402 C   0  0  0  0  0  0  0  0  0  0  0  0
    7.8186  -14.2791   23.6372 C   0  0  2  0  0  0  0  0  0  0  0  0
    7.3198  -14.2257   22.2394 N   0  0  0  0  0  0  0  0  0  0  0  0
    8.4059  -15.5831   23.9234 C   0  0  0  0  0  0  0  0  0  0  0  0
    7.7334  -16.6748   23.8141 O   0  0  0  0  0  0  0  0  0  0  0  0
   11.8868  -16.3601   23.0291 O   0  0  0  0  0  0  0  0  0  0  0  0
   11.7252  -17.1135   24.1779 C   0  0  0  0  0  0  0  0  0  0  0  0
   10.2880  -17.0874   24.6620 C   0  0  2  0  0  0  0  0  0  0  0  0
    9.7478  -15.7858   24.3377 N   0  0  0  0  0  0  0  0  0  0  0  0
   10.1619  -17.4343   26.0701 C   0  0  0  0  0  0  0  0  0  0  0  0
   10.6562  -18.6343   26.5358 O   0  0  0  0  0  0  0  0  0  0  0  0
    9.6070  -16.6540   26.8721 O   0  0  0  0  0  0  0  0  0  0  0  0
  2  1  1  0
  3  4  1  1
  3  2  1  0
  5  3  1  0
  5  6  1  6
  7  8  2  0
  7  5  1  0
 10 11  1  0
 10  9  1  0
 11 12  1  0
 13 12  1  1
 13 14  1  0
 14  7  1  0
 15 13  1  0
 16 15  2  0
 18 17  1  0
 19 18  1  1
 19 21  1  0
 19 20  1  0
 20 15  1  0
 21 22  1  0
 23 21  2  0
M  END
$$$$
