IMS.pdb
     RDKit          3D

 23 22  0  0  1  0  0  0  0  0999 V2000
    8.6284  -19.5056   18.4077 C   0  0  0  0  0  0  0  0  0  0  0  0
    8.5476  -18.0025   18.5594 C   0  0  0  0  0  0  0  0  0  0  0  0
    8.7947  -17.6020   20.0012 C   0  0  2  0  0  0  0  0  0  0  0  0
    7.8522  -18.4088   20.8719 C   0  0  0  0  0  0  0  0  0  0  0  0
    8.6533  -16.1294   20.2159 C   0  0  2  0  0  0  0  0  0  0  0  0
    9.5967  -15.4842   19.2951 N   0  0  0  0  0  0  0  0  0  0  0  0
    8.9108  -15.6838   21.6011 C   0  0  0  0  0  0  0  0  0  0  0  0
   10.0841  -15.7784   22.0446 O   0  0  0  0  0  0  0  0  0  0  0  0
    7.0943  -11.7136   27.8356 C   0  0  0  0  0  0  0  0  0  0  0  0
    7.1972  -12.0151   26.0477 S   0  0  0  0  0  0  0  0  0  0  0  0
    6.8544  -13.8178   25.8179 C   0  0  0  0  0  0  0  0  0  0  0  0
    6.9637  -14.0825   24.3744 C   0  0  0  0  0  0  0  0  0  0  0  0
    8.1830  -14.7917   23.8700 C   0  0  2  0  0  0  0  0  0  0  0  0
    7.9414  -15.1648   22.4530 N   0  0  0  0  0  0  0  0  0  0  0  0
    8.6215  -15.9511   24.6387 C   0  0  0  0  0  0  0  0  0  0  0  0
    7.9317  -17.0360   24.6933 O   0  0  0  0  0  0  0  0  0  0  0  0
   12.2558  -18.5890   26.1423 O   0  0  0  0  0  0  0  0  0  0  0  0
   11.6791  -17.5111   25.4952 C   0  0  0  0  0  0  0  0  0  0  0  0
   10.2949  -17.2123   26.0387 C   0  0  2  0  0  0  0  0  0  0  0  0
    9.8262  -16.0099   25.3862 N   0  0  0  0  0  0  0  0  0  0  0  0
   10.2656  -17.1336   27.4919 C   0  0  0  0  0  0  0  0  0  0  0  0
   10.6330  -18.2231   28.2531 O   0  0  0  0  0  0  0  0  0  0  0  0
    9.9091  -16.0838   28.0669 O   0  0  0  0  0  0  0  0  0  0  0  0
  2  1  1  0
  3  4  1  1
  3  2  1  0
  5  3  1  0
  5  6  1  6
  7  8  2  0
  7  5  1  0
 10 11  1  0
 10  9  1  0
 11 12  1  0
 13 12  1  1
 13 14  1  0
 14  7  1  0
 15 13  1  0
 16 15  2  0
 18 17  1  0
 19 18  1  6
 19 21  1  0
 19 20  1  0
 20 15  1  0
 21 22  1  0
 23 21  2  0
M  END
$$$$
