IMS.pdb
     RDKit          3D

 23 22  0  0  1  0  0  0  0  0999 V2000
    7.3200  -12.3079   18.2315 C   0  0  0  0  0  0  0  0  0  0  0  0
    7.7655  -13.6554   18.7557 C   0  0  0  0  0  0  0  0  0  0  0  0
    8.2696  -13.5287   20.1806 C   0  0  2  0  0  0  0  0  0  0  0  0
    9.4604  -12.5912   20.1668 C   0  0  0  0  0  0  0  0  0  0  0  0
    8.5916  -14.8546   20.7911 C   0  0  2  0  0  0  0  0  0  0  0  0
    7.4103  -15.7018   20.5885 N   0  0  0  0  0  0  0  0  0  0  0  0
    8.9377  -14.8011   22.2268 C   0  0  0  0  0  0  0  0  0  0  0  0
   10.1342  -14.5701   22.5387 O   0  0  0  0  0  0  0  0  0  0  0  0
    6.9242  -11.0942   27.1293 C   0  0  0  0  0  0  0  0  0  0  0  0
    6.1371  -12.7176   27.3378 S   0  0  0  0  0  0  0  0  0  0  0  0
    7.4159  -13.9651   26.8601 C   0  0  0  0  0  0  0  0  0  0  0  0
    7.3496  -14.0906   25.3953 C   0  0  0  0  0  0  0  0  0  0  0  0
    8.3766  -14.9346   24.7049 C   0  0  2  0  0  0  0  0  0  0  0  0
    8.0283  -14.9897   23.2622 N   0  0  0  0  0  0  0  0  0  0  0  0
    8.5739  -16.2782   25.2371 C   0  0  0  0  0  0  0  0  0  0  0  0
    7.5958  -17.0970   25.4067 O   0  0  0  0  0  0  0  0  0  0  0  0
   12.2615  -18.1852   25.2584 O   0  0  0  0  0  0  0  0  0  0  0  0
   11.0401  -18.8290   25.1755 C   0  0  0  0  0  0  0  0  0  0  0  0
   10.0058  -18.1763   26.0726 C   0  0  2  0  0  0  0  0  0  0  0  0
    9.8322  -16.8167   25.6116 N   0  0  0  0  0  0  0  0  0  0  0  0
   10.3448  -18.2719   27.4850 C   0  0  0  0  0  0  0  0  0  0  0  0
   10.5062  -17.1284   28.2385 O   0  0  0  0  0  0  0  0  0  0  0  0
   10.4937  -19.3850   28.0313 O   0  0  0  0  0  0  0  0  0  0  0  0
  2  1  1  0
  3  4  1  6
  3  2  1  0
  5  3  1  0
  5  6  1  1
  7  8  2  0
  7  5  1  0
 10 11  1  0
 10  9  1  0
 11 12  1  0
 13 12  1  1
 13 14  1  0
 14  7  1  0
 15 13  1  0
 16 15  2  0
 18 17  1  0
 19 18  1  6
 19 21  1  0
 19 20  1  0
 20 15  1  0
 21 22  1  0
 23 21  2  0
M  END
$$$$
