IMS.pdb
     RDKit          3D

 23 22  0  0  1  0  0  0  0  0999 V2000
    7.7967  -11.7430   19.8788 C   0  0  0  0  0  0  0  0  0  0  0  0
    7.5718  -13.0904   20.5290 C   0  0  0  0  0  0  0  0  0  0  0  0
    8.5291  -14.1195   19.9591 C   0  0  2  0  0  0  0  0  0  0  0  0
    8.1418  -14.3588   18.5135 C   0  0  0  0  0  0  0  0  0  0  0  0
    8.5540  -15.3805   20.7615 C   0  0  2  0  0  0  0  0  0  0  0  0
    7.2405  -16.0107   20.5835 N   0  0  0  0  0  0  0  0  0  0  0  0
    8.8336  -15.1872   22.1996 C   0  0  0  0  0  0  0  0  0  0  0  0
   10.0020  -14.8657   22.5372 O   0  0  0  0  0  0  0  0  0  0  0  0
    6.8719  -10.8593   26.5468 C   0  0  0  0  0  0  0  0  0  0  0  0
    7.2735  -12.6161   26.7722 S   0  0  0  0  0  0  0  0  0  0  0  0
    6.5977  -13.4845   25.2859 C   0  0  0  0  0  0  0  0  0  0  0  0
    6.9992  -14.8950   25.4085 C   0  0  0  0  0  0  0  0  0  0  0  0
    8.2115  -15.3587   24.6608 C   0  0  2  0  0  0  0  0  0  0  0  0
    7.8904  -15.3369   23.2109 N   0  0  0  0  0  0  0  0  0  0  0  0
    8.7530  -16.6567   25.0473 C   0  0  0  0  0  0  0  0  0  0  0  0
    8.2010  -17.7623   24.6880 O   0  0  0  0  0  0  0  0  0  0  0  0
   12.5642  -19.0592   24.7449 O   0  0  0  0  0  0  0  0  0  0  0  0
   11.7105  -17.9708   24.7395 C   0  0  0  0  0  0  0  0  0  0  0  0
   10.6819  -18.0658   25.8501 C   0  0  2  0  0  0  0  0  0  0  0  0
    9.9183  -16.8378   25.8363 N   0  0  0  0  0  0  0  0  0  0  0  0
   11.2769  -18.3653   27.1444 C   0  0  0  0  0  0  0  0  0  0  0  0
   11.0630  -17.5257   28.2171 O   0  0  0  0  0  0  0  0  0  0  0  0
   11.9857  -19.3816   27.3009 O   0  0  0  0  0  0  0  0  0  0  0  0
  2  1  1  0
  3  4  1  6
  3  2  1  0
  5  3  1  0
  5  6  1  1
  7  8  2  0
  7  5  1  0
 10 11  1  0
 10  9  1  0
 11 12  1  0
 13 12  1  1
 13 14  1  0
 14  7  1  0
 15 13  1  0
 16 15  2  0
 18 17  1  0
 19 18  1  6
 19 21  1  0
 19 20  1  0
 20 15  1  0
 21 22  1  0
 23 21  2  0
M  END
$$$$
