IMS.pdb
     RDKit          3D

 23 22  0  0  1  0  0  0  0  0999 V2000
    7.5123  -11.9687   19.4489 C   0  0  0  0  0  0  0  0  0  0  0  0
    7.4473  -13.2168   20.3017 C   0  0  0  0  0  0  0  0  0  0  0  0
    8.4119  -14.2647   19.7804 C   0  0  2  0  0  0  0  0  0  0  0  0
    8.0137  -14.5892   18.3544 C   0  0  0  0  0  0  0  0  0  0  0  0
    8.4601  -15.4784   20.6517 C   0  0  2  0  0  0  0  0  0  0  0  0
    7.1420  -16.1156   20.5478 N   0  0  0  0  0  0  0  0  0  0  0  0
    8.7814  -15.2046   22.0679 C   0  0  0  0  0  0  0  0  0  0  0  0
    9.9803  -14.9708   22.3681 O   0  0  0  0  0  0  0  0  0  0  0  0
    7.5168  -11.4196   27.5333 C   0  0  0  0  0  0  0  0  0  0  0  0
    6.2153  -12.5837   27.0342 S   0  0  0  0  0  0  0  0  0  0  0  0
    7.0761  -14.1791   26.6690 C   0  0  0  0  0  0  0  0  0  0  0  0
    7.0304  -14.3531   25.2084 C   0  0  0  0  0  0  0  0  0  0  0  0
    8.1834  -15.0320   24.5350 C   0  0  2  0  0  0  0  0  0  0  0  0
    7.8458  -15.1877   23.0971 N   0  0  0  0  0  0  0  0  0  0  0  0
    8.6060  -16.3067   25.1041 C   0  0  0  0  0  0  0  0  0  0  0  0
    7.8398  -17.3406   25.1097 O   0  0  0  0  0  0  0  0  0  0  0  0
   12.0035  -19.4698   25.8168 O   0  0  0  0  0  0  0  0  0  0  0  0
   11.4523  -18.2968   25.3334 C   0  0  0  0  0  0  0  0  0  0  0  0
   10.2898  -17.8344   26.1910 C   0  0  2  0  0  0  0  0  0  0  0  0
    9.8751  -16.5414   25.6936 N   0  0  0  0  0  0  0  0  0  0  0  0
   10.6031  -17.8367   27.6126 C   0  0  0  0  0  0  0  0  0  0  0  0
   10.8589  -19.0245   28.2646 O   0  0  0  0  0  0  0  0  0  0  0  0
   10.6443  -16.7686   28.2585 O   0  0  0  0  0  0  0  0  0  0  0  0
  2  1  1  0
  3  4  1  6
  3  2  1  0
  5  3  1  0
  5  6  1  1
  7  8  2  0
  7  5  1  0
 10 11  1  0
 10  9  1  0
 11 12  1  0
 13 12  1  1
 13 14  1  0
 14  7  1  0
 15 13  1  0
 16 15  2  0
 18 17  1  0
 19 18  1  6
 19 21  1  0
 19 20  1  0
 20 15  1  0
 21 22  1  0
 23 21  2  0
M  END
$$$$
