PYY.pdb
     RDKit          3D

 32 34  0  0  1  0  0  0  0  0999 V2000
    8.6450  -15.8199   18.3848 N   0  0  0  0  0  0  0  0  0  0  0  0
    8.3813  -15.5998   16.9840 C   0  0  0  0  0  0  0  0  0  0  0  0
    8.6280  -14.1563   16.6880 C   0  0  0  0  0  0  0  0  0  0  0  0
    8.7679  -13.5474   18.0898 C   0  0  0  0  0  0  0  0  0  0  0  0
    9.4358  -14.7083   18.8072 C   0  0  1  0  0  0  0  0  0  0  0  0
    9.4707  -14.5215   20.2711 C   0  0  0  0  0  0  0  0  0  0  0  0
   10.5372  -14.0745   20.7683 O   0  0  0  0  0  0  0  0  0  0  0  0
    6.0318  -11.7447   27.9506 O   0  0  0  0  0  0  0  0  0  0  0  0
    6.2391  -12.2998   26.6879 C   0  0  0  0  0  0  0  0  0  0  0  0
    5.9778  -13.6076   26.4369 C   0  0  0  0  0  0  0  0  0  0  0  0
    6.1872  -14.1553   25.1733 C   0  0  0  0  0  0  0  0  0  0  0  0
    6.6672  -13.3937   24.1282 C   0  0  0  0  0  0  0  0  0  0  0  0
    6.8772  -13.9910   22.8117 C   0  0  0  0  0  0  0  0  0  0  0  0
    8.3176  -14.3696   22.5272 C   0  0  2  0  0  0  0  0  0  0  0  0
    8.4071  -14.8050   21.1396 N   0  0  0  0  0  0  0  0  0  0  0  0
    8.8503  -15.3783   23.4562 C   0  0  0  0  0  0  0  0  0  0  0  0
    8.7567  -16.6156   23.2477 O   0  0  0  0  0  0  0  0  0  0  0  0
    6.9261  -12.0713   24.4011 C   0  0  0  0  0  0  0  0  0  0  0  0
    6.7257  -11.5100   25.6444 C   0  0  0  0  0  0  0  0  0  0  0  0
   12.6289  -18.2050   31.0474 O   0  0  0  0  0  0  0  0  0  0  0  0
   12.1952  -17.4591   29.9321 C   0  0  0  0  0  0  0  0  0  0  0  0
   12.7929  -17.6087   28.7015 C   0  0  0  0  0  0  0  0  0  0  0  0
   12.3569  -16.8692   27.6129 C   0  0  0  0  0  0  0  0  0  0  0  0
   11.3241  -15.9670   27.7112 C   0  0  0  0  0  0  0  0  0  0  0  0
   10.8648  -15.1886   26.5688 C   0  0  0  0  0  0  0  0  0  0  0  0
   10.0653  -16.0161   25.5466 C   0  0  2  0  0  0  0  0  0  0  0  0
    9.5090  -14.9879   24.6539 N   0  0  0  0  0  0  0  0  0  0  0  0
    9.0408  -16.8266   26.1951 C   0  0  0  0  0  0  0  0  0  0  0  0
    7.8866  -16.2405   26.6771 O   0  0  0  0  0  0  0  0  0  0  0  0
   10.7316  -15.8229   28.9444 C   0  0  0  0  0  0  0  0  0  0  0  0
   11.1609  -16.5614   30.0489 C   0  0  0  0  0  0  0  0  0  0  0  0
    9.1844  -18.0646   26.3286 O   0  0  0  0  0  0  0  0  0  0  0  0
  1  5  1  0
  1  2  1  0
  2  3  1  0
  4  3  1  0
  5  4  1  0
  5  6  1  1
  7  6  2  0
  8  9  1  0
  9 10  2  0
 10 11  1  0
 12 13  1  0
 12 11  2  0
 14 13  1  1
 14 16  1  0
 14 15  1  0
 15  6  1  0
 16 17  2  0
 18 12  1  0
 19 18  2  0
 19  9  1  0
 21 22  2  0
 21 20  1  0
 23 22  1  0
 24 23  2  0
 26 25  1  1
 25 24  1  0
 27 26  1  0
 27 16  1  0
 28 29  1  0
 28 26  1  0
 30 24  1  0
 30 31  2  0
 31 21  1  0
 32 28  2  0
M  END
$$$$
