PYY.pdb
     RDKit          3D

 32 34  0  0  1  0  0  0  0  0999 V2000
    8.1386  -14.3141   20.8135 N   0  0  0  0  0  0  0  0  0  0  0  0
    7.5749  -13.1997   20.0920 C   0  0  0  0  0  0  0  0  0  0  0  0
    8.3259  -13.0518   18.8090 C   0  0  0  0  0  0  0  0  0  0  0  0
    9.5254  -13.9869   19.0148 C   0  0  0  0  0  0  0  0  0  0  0  0
    8.8630  -15.0733   19.8450 C   0  0  1  0  0  0  0  0  0  0  0  0
    9.8415  -16.0109   20.4304 C   0  0  0  0  0  0  0  0  0  0  0  0
   10.4261  -16.7986   19.6416 O   0  0  0  0  0  0  0  0  0  0  0  0
   15.0589  -15.5357   17.0019 O   0  0  0  0  0  0  0  0  0  0  0  0
   14.3694  -15.3785   18.2041 C   0  0  0  0  0  0  0  0  0  0  0  0
   14.6433  -16.1523   19.2848 C   0  0  0  0  0  0  0  0  0  0  0  0
   13.9506  -15.9897   20.4825 C   0  0  0  0  0  0  0  0  0  0  0  0
   12.9609  -15.0387   20.6192 C   0  0  0  0  0  0  0  0  0  0  0  0
   12.2496  -14.8868   21.8862 C   0  0  0  0  0  0  0  0  0  0  0  0
   11.5141  -16.1341   22.3357 C   0  0  2  0  0  0  0  0  0  0  0  0
   10.1628  -16.0847   21.7933 N   0  0  0  0  0  0  0  0  0  0  0  0
   11.5152  -16.3181   23.7953 C   0  0  0  0  0  0  0  0  0  0  0  0
   12.4425  -15.8994   24.5356 O   0  0  0  0  0  0  0  0  0  0  0  0
   12.6973  -14.2643   19.5142 C   0  0  0  0  0  0  0  0  0  0  0  0
   13.3712  -14.4092   18.3201 C   0  0  0  0  0  0  0  0  0  0  0  0
    5.5900  -11.3567   26.8591 O   0  0  0  0  0  0  0  0  0  0  0  0
    6.4202  -12.3072   26.2300 C   0  0  0  0  0  0  0  0  0  0  0  0
    5.9241  -13.5245   25.8225 C   0  0  0  0  0  0  0  0  0  0  0  0
    6.7510  -14.4503   25.2051 C   0  0  0  0  0  0  0  0  0  0  0  0
    8.0831  -14.1988   24.9754 C   0  0  0  0  0  0  0  0  0  0  0  0
    8.9538  -15.1704   24.3274 C   0  0  0  0  0  0  0  0  0  0  0  0
    9.5153  -16.2286   25.2938 C   0  0  2  0  0  0  0  0  0  0  0  0
   10.4439  -16.9902   24.4443 N   0  0  0  0  0  0  0  0  0  0  0  0
    8.4551  -17.0516   25.8644 C   0  0  0  0  0  0  0  0  0  0  0  0
    7.8271  -18.0136   25.0975 O   0  0  0  0  0  0  0  0  0  0  0  0
    8.5717  -12.9800   25.3855 C   0  0  0  0  0  0  0  0  0  0  0  0
    7.7499  -12.0386   26.0084 C   0  0  0  0  0  0  0  0  0  0  0  0
    8.0928  -16.9049   27.0554 O   0  0  0  0  0  0  0  0  0  0  0  0
  1  5  1  0
  1  2  1  0
  2  3  1  0
  4  3  1  0
  5  4  1  0
  5  6  1  1
  7  6  2  0
  8  9  1  0
  9 10  2  0
 10 11  1  0
 12 13  1  0
 12 11  2  0
 14 13  1  1
 14 16  1  0
 14 15  1  0
 15  6  1  0
 16 17  2  0
 18 12  1  0
 19 18  2  0
 19  9  1  0
 21 22  2  0
 21 20  1  0
 23 22  1  0
 24 23  2  0
 26 25  1  6
 25 24  1  0
 27 26  1  0
 27 16  1  0
 28 29  1  0
 28 26  1  0
 30 24  1  0
 30 31  2  0
 31 21  1  0
 32 28  2  0
M  END
$$$$
