PYY.pdb
     RDKit          3D

 32 34  0  0  1  0  0  0  0  0999 V2000
    8.6269  -21.4946   18.4383 N   0  0  0  0  0  0  0  0  0  0  0  0
    7.8561  -22.5917   17.9072 C   0  0  0  0  0  0  0  0  0  0  0  0
    7.2422  -22.1456   16.6203 C   0  0  0  0  0  0  0  0  0  0  0  0
    7.5014  -20.6329   16.6337 C   0  0  0  0  0  0  0  0  0  0  0  0
    8.8471  -20.6105   17.3386 C   0  0  1  0  0  0  0  0  0  0  0  0
    9.2514  -19.2482   17.7385 C   0  0  0  0  0  0  0  0  0  0  0  0
   10.4310  -18.8976   17.4736 O   0  0  0  0  0  0  0  0  0  0  0  0
    8.6546  -10.7856   20.4815 O   0  0  0  0  0  0  0  0  0  0  0  0
    8.4038  -12.0858   20.0433 C   0  0  0  0  0  0  0  0  0  0  0  0
    9.2118  -12.6979   19.1409 C   0  0  0  0  0  0  0  0  0  0  0  0
    8.9552  -13.9968   18.7077 C   0  0  0  0  0  0  0  0  0  0  0  0
    7.8731  -14.7124   19.1763 C   0  0  0  0  0  0  0  0  0  0  0  0
    7.6261  -16.0738   18.7076 C   0  0  0  0  0  0  0  0  0  0  0  0
    8.8237  -16.9959   18.8279 C   0  0  2  0  0  0  0  0  0  0  0  0
    8.4197  -18.3247   18.3877 N   0  0  0  0  0  0  0  0  0  0  0  0
    9.4104  -17.0174   20.1769 C   0  0  0  0  0  0  0  0  0  0  0  0
    8.7269  -17.2084   21.2158 O   0  0  0  0  0  0  0  0  0  0  0  0
    7.0660  -14.0762   20.0897 C   0  0  0  0  0  0  0  0  0  0  0  0
    7.3024  -12.7916   20.5311 C   0  0  0  0  0  0  0  0  0  0  0  0
   12.9856  -19.6385   27.3289 O   0  0  0  0  0  0  0  0  0  0  0  0
   12.5035  -19.3165   26.0435 C   0  0  0  0  0  0  0  0  0  0  0  0
   13.1920  -19.6909   24.9122 C   0  0  0  0  0  0  0  0  0  0  0  0
   12.7071  -19.3680   23.6542 C   0  0  0  0  0  0  0  0  0  0  0  0
   11.5350  -18.6702   23.4819 C   0  0  0  0  0  0  0  0  0  0  0  0
   11.0241  -18.3294   22.1609 C   0  0  0  0  0  0  0  0  0  0  0  0
   11.3736  -16.8965   21.7210 C   0  0  2  0  0  0  0  0  0  0  0  0
   10.8054  -16.8205   20.3663 N   0  0  0  0  0  0  0  0  0  0  0  0
   12.8125  -16.6607   21.7525 C   0  0  0  0  0  0  0  0  0  0  0  0
   13.5076  -16.4204   20.5834 O   0  0  0  0  0  0  0  0  0  0  0  0
   10.8524  -18.2993   24.6172 C   0  0  0  0  0  0  0  0  0  0  0  0
   11.3296  -18.6181   25.8902 C   0  0  0  0  0  0  0  0  0  0  0  0
   13.4458  -16.6712   22.8342 O   0  0  0  0  0  0  0  0  0  0  0  0
  1  5  1  0
  1  2  1  0
  2  3  1  0
  4  3  1  0
  5  4  1  0
  5  6  1  1
  7  6  2  0
  8  9  1  0
  9 10  2  0
 10 11  1  0
 12 13  1  0
 12 11  2  0
 14 13  1  1
 14 16  1  0
 14 15  1  0
 15  6  1  0
 16 17  2  0
 18 12  1  0
 19 18  2  0
 19  9  1  0
 21 22  2  0
 21 20  1  0
 23 22  1  0
 24 23  2  0
 26 25  1  6
 25 24  1  0
 27 26  1  0
 27 16  1  0
 28 29  1  0
 28 26  1  0
 30 24  1  0
 30 31  2  0
 31 21  1  0
 32 28  2  0
M  END
$$$$
