PYY.pdb
     RDKit          3D

 32 34  0  0  1  0  0  0  0  0999 V2000
    8.3674  -15.6829   18.4700 N   0  0  0  0  0  0  0  0  0  0  0  0
    8.1830  -15.0995   17.1639 C   0  0  0  0  0  0  0  0  0  0  0  0
    7.7563  -13.6795   17.3476 C   0  0  0  0  0  0  0  0  0  0  0  0
    7.4445  -13.6164   18.8490 C   0  0  0  0  0  0  0  0  0  0  0  0
    8.4966  -14.5811   19.3693 C   0  0  1  0  0  0  0  0  0  0  0  0
    8.2833  -14.9376   20.7858 C   0  0  0  0  0  0  0  0  0  0  0  0
    8.4362  -14.0238   21.6379 O   0  0  0  0  0  0  0  0  0  0  0  0
    7.3386  -20.2713   27.9108 O   0  0  0  0  0  0  0  0  0  0  0  0
    7.3382  -19.7229   26.6285 C   0  0  0  0  0  0  0  0  0  0  0  0
    8.4020  -19.8625   25.7974 C   0  0  0  0  0  0  0  0  0  0  0  0
    8.3947  -19.3120   24.5178 C   0  0  0  0  0  0  0  0  0  0  0  0
    7.3095  -18.6045   24.0438 C   0  0  0  0  0  0  0  0  0  0  0  0
    7.3256  -18.0379   22.6974 C   0  0  0  0  0  0  0  0  0  0  0  0
    7.7537  -16.5844   22.6434 C   0  0  2  0  0  0  0  0  0  0  0  0
    7.9250  -16.2131   21.2449 N   0  0  0  0  0  0  0  0  0  0  0  0
    8.9577  -16.3007   23.4398 C   0  0  0  0  0  0  0  0  0  0  0  0
   10.1163  -16.6114   23.0602 O   0  0  0  0  0  0  0  0  0  0  0  0
    6.2414  -18.4734   24.8994 C   0  0  0  0  0  0  0  0  0  0  0  0
    6.2287  -19.0104   26.1692 C   0  0  0  0  0  0  0  0  0  0  0  0
    5.1929  -11.9222   27.9288 O   0  0  0  0  0  0  0  0  0  0  0  0
    6.3851  -12.3821   27.3326 C   0  0  0  0  0  0  0  0  0  0  0  0
    6.4573  -12.6173   25.9785 C   0  0  0  0  0  0  0  0  0  0  0  0
    7.6356  -13.0694   25.4047 C   0  0  0  0  0  0  0  0  0  0  0  0
    8.7678  -13.2997   26.1502 C   0  0  0  0  0  0  0  0  0  0  0  0
   10.0067  -13.7752   25.5493 C   0  0  0  0  0  0  0  0  0  0  0  0
   10.0841  -15.3085   25.4397 C   0  0  2  0  0  0  0  0  0  0  0  0
    8.8596  -15.6476   24.6987 N   0  0  0  0  0  0  0  0  0  0  0  0
   10.1514  -15.9383   26.7534 C   0  0  0  0  0  0  0  0  0  0  0  0
    9.1364  -16.7709   27.1826 O   0  0  0  0  0  0  0  0  0  0  0  0
    8.6880  -13.0623   27.5028 C   0  0  0  0  0  0  0  0  0  0  0  0
    7.5075  -12.6069   28.0935 C   0  0  0  0  0  0  0  0  0  0  0  0
   11.1254  -15.7390   27.5169 O   0  0  0  0  0  0  0  0  0  0  0  0
  1  5  1  0
  1  2  1  0
  2  3  1  0
  4  3  1  0
  5  4  1  0
  5  6  1  1
  7  6  2  0
  8  9  1  0
  9 10  2  0
 10 11  1  0
 12 13  1  0
 12 11  2  0
 14 13  1  6
 14 16  1  0
 14 15  1  0
 15  6  1  0
 16 17  2  0
 18 12  1  0
 19 18  2  0
 19  9  1  0
 21 22  2  0
 21 20  1  0
 23 22  1  0
 24 23  2  0
 26 25  1  1
 25 24  1  0
 27 26  1  0
 27 16  1  0
 28 29  1  0
 28 26  1  0
 30 24  1  0
 30 31  2  0
 31 21  1  0
 32 28  2  0
M  END
$$$$
