PYY.pdb
     RDKit          3D

 32 34  0  0  1  0  0  0  0  0999 V2000
    7.9527  -15.1905   18.7496 N   0  0  0  0  0  0  0  0  0  0  0  0
    7.6576  -14.4093   17.5737 C   0  0  0  0  0  0  0  0  0  0  0  0
    7.0634  -13.1122   18.0170 C   0  0  0  0  0  0  0  0  0  0  0  0
    6.7920  -13.3615   19.5069 C   0  0  0  0  0  0  0  0  0  0  0  0
    7.9712  -14.2618   19.8343 C   0  0  1  0  0  0  0  0  0  0  0  0
    7.8471  -14.8923   21.1633 C   0  0  0  0  0  0  0  0  0  0  0  0
    7.8243  -14.1274   22.1627 O   0  0  0  0  0  0  0  0  0  0  0  0
    2.1896  -18.7753   19.4872 O   0  0  0  0  0  0  0  0  0  0  0  0
    3.3803  -18.6652   20.2052 C   0  0  0  0  0  0  0  0  0  0  0  0
    4.5877  -18.7141   19.5874 C   0  0  0  0  0  0  0  0  0  0  0  0
    5.7730  -18.6035   20.3109 C   0  0  0  0  0  0  0  0  0  0  0  0
    5.7688  -18.4402   21.6806 C   0  0  0  0  0  0  0  0  0  0  0  0
    7.0254  -18.3253   22.4167 C   0  0  0  0  0  0  0  0  0  0  0  0
    7.4634  -16.8965   22.6729 C   0  0  2  0  0  0  0  0  0  0  0  0
    7.7534  -16.2732   21.3883 N   0  0  0  0  0  0  0  0  0  0  0  0
    8.5974  -16.7918   23.6043 C   0  0  0  0  0  0  0  0  0  0  0  0
    9.7351  -17.2653   23.3507 O   0  0  0  0  0  0  0  0  0  0  0  0
    4.5368  -18.3928   22.2890 C   0  0  0  0  0  0  0  0  0  0  0  0
    3.3524  -18.5004   21.5913 C   0  0  0  0  0  0  0  0  0  0  0  0
    5.5955  -11.0889   26.6689 O   0  0  0  0  0  0  0  0  0  0  0  0
    6.6858  -11.9544   26.4445 C   0  0  0  0  0  0  0  0  0  0  0  0
    7.5731  -12.2553   27.4526 C   0  0  0  0  0  0  0  0  0  0  0  0
    8.6410  -13.1078   27.2188 C   0  0  0  0  0  0  0  0  0  0  0  0
    8.8591  -13.6826   25.9889 C   0  0  0  0  0  0  0  0  0  0  0  0
    9.9810  -14.5782   25.7411 C   0  0  0  0  0  0  0  0  0  0  0  0
    9.5946  -16.0675   25.7800 C   0  0  2  0  0  0  0  0  0  0  0  0
    8.4516  -16.1352   24.8566 N   0  0  0  0  0  0  0  0  0  0  0  0
    9.2645  -16.5018   27.1326 C   0  0  0  0  0  0  0  0  0  0  0  0
   10.2533  -16.6223   28.0894 O   0  0  0  0  0  0  0  0  0  0  0  0
    7.9681  -13.3772   24.9863 C   0  0  0  0  0  0  0  0  0  0  0  0
    6.8884  -12.5201   25.2083 C   0  0  0  0  0  0  0  0  0  0  0  0
    8.0839  -16.7737   27.4543 O   0  0  0  0  0  0  0  0  0  0  0  0
  1  5  1  0
  1  2  1  0
  2  3  1  0
  4  3  1  0
  5  4  1  0
  5  6  1  1
  7  6  2  0
  8  9  1  0
  9 10  2  0
 10 11  1  0
 12 13  1  0
 12 11  2  0
 14 13  1  6
 14 16  1  0
 14 15  1  0
 15  6  1  0
 16 17  2  0
 18 12  1  0
 19 18  2  0
 19  9  1  0
 21 22  2  0
 21 20  1  0
 23 22  1  0
 24 23  2  0
 26 25  1  1
 25 24  1  0
 27 26  1  0
 27 16  1  0
 28 29  1  0
 28 26  1  0
 30 24  1  0
 30 31  2  0
 31 21  1  0
 32 28  2  0
M  END
$$$$
