PYY.pdb
     RDKit          3D

 32 34  0  0  1  0  0  0  0  0999 V2000
    8.0650  -15.5586   17.9319 N   0  0  0  0  0  0  0  0  0  0  0  0
    7.6909  -15.2643   16.5704 C   0  0  0  0  0  0  0  0  0  0  0  0
    7.9543  -13.8150   16.3212 C   0  0  0  0  0  0  0  0  0  0  0  0
    8.2298  -13.2785   17.7325 C   0  0  0  0  0  0  0  0  0  0  0  0
    8.9211  -14.4893   18.3358 C   0  0  1  0  0  0  0  0  0  0  0  0
    9.0848  -14.3745   19.7984 C   0  0  0  0  0  0  0  0  0  0  0  0
    9.8735  -13.4891   20.2209 O   0  0  0  0  0  0  0  0  0  0  0  0
    6.8010  -12.9612   28.0657 O   0  0  0  0  0  0  0  0  0  0  0  0
    6.8690  -13.4056   26.7454 C   0  0  0  0  0  0  0  0  0  0  0  0
    6.6042  -14.6955   26.4170 C   0  0  0  0  0  0  0  0  0  0  0  0
    6.6741  -15.1324   25.0961 C   0  0  0  0  0  0  0  0  0  0  0  0
    7.0142  -14.2750   24.0704 C   0  0  0  0  0  0  0  0  0  0  0  0
    7.0794  -14.7571   22.6929 C   0  0  0  0  0  0  0  0  0  0  0  0
    8.4889  -14.9936   22.1868 C   0  0  2  0  0  0  0  0  0  0  0  0
    8.4281  -15.1766   20.7426 N   0  0  0  0  0  0  0  0  0  0  0  0
    9.1688  -16.1139   22.8555 C   0  0  0  0  0  0  0  0  0  0  0  0
    8.5752  -17.1724   23.1878 O   0  0  0  0  0  0  0  0  0  0  0  0
    7.2789  -12.9725   24.4220 C   0  0  0  0  0  0  0  0  0  0  0  0
    7.2154  -12.5202   25.7229 C   0  0  0  0  0  0  0  0  0  0  0  0
   10.9003  -14.9804   30.8987 O   0  0  0  0  0  0  0  0  0  0  0  0
   10.6900  -15.0227   29.5050 C   0  0  0  0  0  0  0  0  0  0  0  0
   10.9511  -13.9273   28.7137 C   0  0  0  0  0  0  0  0  0  0  0  0
   10.7400  -13.9820   27.3446 C   0  0  0  0  0  0  0  0  0  0  0  0
   10.2677  -15.1148   26.7246 C   0  0  0  0  0  0  0  0  0  0  0  0
   10.0447  -15.1741   25.2863 C   0  0  0  0  0  0  0  0  0  0  0  0
   10.9995  -16.1373   24.5586 C   0  0  2  0  0  0  0  0  0  0  0  0
   10.5558  -16.0458   23.1592 N   0  0  0  0  0  0  0  0  0  0  0  0
   10.9139  -17.4891   25.0993 C   0  0  0  0  0  0  0  0  0  0  0  0
   11.9257  -17.9894   25.8953 O   0  0  0  0  0  0  0  0  0  0  0  0
   10.0091  -16.2055   27.5220 C   0  0  0  0  0  0  0  0  0  0  0  0
   10.2173  -16.1639   28.9021 C   0  0  0  0  0  0  0  0  0  0  0  0
    9.9268  -18.2219   24.8547 O   0  0  0  0  0  0  0  0  0  0  0  0
  1  5  1  0
  1  2  1  0
  2  3  1  0
  4  3  1  0
  5  4  1  0
  5  6  1  1
  7  6  2  0
  8  9  1  0
  9 10  2  0
 10 11  1  0
 12 13  1  0
 12 11  2  0
 14 13  1  1
 14 16  1  0
 14 15  1  0
 15  6  1  0
 16 17  2  0
 18 12  1  0
 19 18  2  0
 19  9  1  0
 21 22  2  0
 21 20  1  0
 23 22  1  0
 24 23  2  0
 26 25  1  1
 25 24  1  0
 27 26  1  0
 27 16  1  0
 28 29  1  0
 28 26  1  0
 30 24  1  0
 30 31  2  0
 31 21  1  0
 32 28  2  0
M  END
$$$$
