PYY.pdb
     RDKit          3D

 32 34  0  0  1  0  0  0  0  0999 V2000
    6.5279  -18.7696   20.2574 N   0  0  0  0  0  0  0  0  0  0  0  0
    5.7287  -19.3162   19.1885 C   0  0  0  0  0  0  0  0  0  0  0  0
    6.2417  -18.7642   17.8984 C   0  0  0  0  0  0  0  0  0  0  0  0
    7.1940  -17.6549   18.3654 C   0  0  0  0  0  0  0  0  0  0  0  0
    7.7232  -18.2919   19.6392 C   0  0  1  0  0  0  0  0  0  0  0  0
    8.4869  -17.3403   20.4701 C   0  0  0  0  0  0  0  0  0  0  0  0
    9.7195  -17.5563   20.6061 O   0  0  0  0  0  0  0  0  0  0  0  0
    8.1416  -12.1037   16.3707 O   0  0  0  0  0  0  0  0  0  0  0  0
    8.1283  -12.5457   17.6935 C   0  0  0  0  0  0  0  0  0  0  0  0
    6.9774  -12.6024   18.4104 C   0  0  0  0  0  0  0  0  0  0  0  0
    6.9716  -13.0449   19.7314 C   0  0  0  0  0  0  0  0  0  0  0  0
    8.1315  -13.4426   20.3633 C   0  0  0  0  0  0  0  0  0  0  0  0
    8.0991  -13.9041   21.7490 C   0  0  0  0  0  0  0  0  0  0  0  0
    8.6807  -15.2894   21.9530 C   0  0  2  0  0  0  0  0  0  0  0  0
    7.9393  -16.2212   21.1136 N   0  0  0  0  0  0  0  0  0  0  0  0
    8.6997  -15.7126   23.3619 C   0  0  0  0  0  0  0  0  0  0  0  0
    7.6554  -15.9969   24.0035 O   0  0  0  0  0  0  0  0  0  0  0  0
    9.2873  -13.3784   19.6215 C   0  0  0  0  0  0  0  0  0  0  0  0
    9.3144  -12.9435   18.3134 C   0  0  0  0  0  0  0  0  0  0  0  0
    9.9545  -21.3722   29.5734 O   0  0  0  0  0  0  0  0  0  0  0  0
    9.8594  -20.5153   28.4576 C   0  0  0  0  0  0  0  0  0  0  0  0
   10.9054  -20.3820   27.5732 C   0  0  0  0  0  0  0  0  0  0  0  0
   10.7990  -19.5361   26.4800 C   0  0  0  0  0  0  0  0  0  0  0  0
    9.6620  -18.8034   26.2332 C   0  0  0  0  0  0  0  0  0  0  0  0
    9.5485  -17.9136   25.0854 C   0  0  0  0  0  0  0  0  0  0  0  0
    9.9456  -16.4596   25.3972 C   0  0  2  0  0  0  0  0  0  0  0  0
    9.9264  -15.8219   24.0718 N   0  0  0  0  0  0  0  0  0  0  0  0
   11.2483  -16.3865   26.0490 C   0  0  0  0  0  0  0  0  0  0  0  0
   12.4028  -16.2950   25.2963 O   0  0  0  0  0  0  0  0  0  0  0  0
    8.6208  -18.9419   27.1215 C   0  0  0  0  0  0  0  0  0  0  0  0
    8.7147  -19.7903   28.2265 C   0  0  0  0  0  0  0  0  0  0  0  0
   11.3480  -16.4052   27.2984 O   0  0  0  0  0  0  0  0  0  0  0  0
  1  5  1  0
  1  2  1  0
  2  3  1  0
  4  3  1  0
  5  4  1  0
  5  6  1  1
  7  6  2  0
  8  9  1  0
  9 10  2  0
 10 11  1  0
 12 13  1  0
 12 11  2  0
 14 13  1  1
 14 16  1  0
 14 15  1  0
 15  6  1  0
 16 17  2  0
 18 12  1  0
 19 18  2  0
 19  9  1  0
 21 22  2  0
 21 20  1  0
 23 22  1  0
 24 23  2  0
 26 25  1  6
 25 24  1  0
 27 26  1  0
 27 16  1  0
 28 29  1  0
 28 26  1  0
 30 24  1  0
 30 31  2  0
 31 21  1  0
 32 28  2  0
M  END
$$$$
