PYY.pdb
     RDKit          3D

 32 34  0  0  1  0  0  0  0  0999 V2000
    8.5589  -15.9281   18.2564 N   0  0  0  0  0  0  0  0  0  0  0  0
    8.1371  -15.8069   16.8825 C   0  0  0  0  0  0  0  0  0  0  0  0
    8.0671  -14.3528   16.5465 C   0  0  0  0  0  0  0  0  0  0  0  0
    8.2045  -13.6857   17.9218 C   0  0  0  0  0  0  0  0  0  0  0  0
    9.1480  -14.6709   18.5908 C   0  0  1  0  0  0  0  0  0  0  0  0
    9.2715  -14.4360   20.0429 C   0  0  0  0  0  0  0  0  0  0  0  0
   10.3248  -13.8779   20.4475 O   0  0  0  0  0  0  0  0  0  0  0  0
    6.2144  -11.7357   27.9050 O   0  0  0  0  0  0  0  0  0  0  0  0
    6.3696  -12.2927   26.6358 C   0  0  0  0  0  0  0  0  0  0  0  0
    6.0652  -13.5922   26.3899 C   0  0  0  0  0  0  0  0  0  0  0  0
    6.2227  -14.1419   25.1196 C   0  0  0  0  0  0  0  0  0  0  0  0
    6.6932  -13.3909   24.0625 C   0  0  0  0  0  0  0  0  0  0  0  0
    6.8484  -13.9902   22.7393 C   0  0  0  0  0  0  0  0  0  0  0  0
    8.2817  -14.3276   22.3777 C   0  0  2  0  0  0  0  0  0  0  0  0
    8.3050  -14.7883   20.9957 N   0  0  0  0  0  0  0  0  0  0  0  0
    8.9011  -15.2992   23.2925 C   0  0  0  0  0  0  0  0  0  0  0  0
    8.6125  -16.5239   23.2852 O   0  0  0  0  0  0  0  0  0  0  0  0
    6.9963  -12.0769   24.3304 C   0  0  0  0  0  0  0  0  0  0  0  0
    6.8475  -11.5138   25.5802 C   0  0  0  0  0  0  0  0  0  0  0  0
   12.3885  -17.4884   31.1797 O   0  0  0  0  0  0  0  0  0  0  0  0
   12.0008  -16.8368   29.9909 C   0  0  0  0  0  0  0  0  0  0  0  0
   12.6073  -17.1288   28.7905 C   0  0  0  0  0  0  0  0  0  0  0  0
   12.2166  -16.4809   27.6288 C   0  0  0  0  0  0  0  0  0  0  0  0
   11.2214  -15.5322   27.6227 C   0  0  0  0  0  0  0  0  0  0  0  0
   10.8098  -14.8499   26.4033 C   0  0  0  0  0  0  0  0  0  0  0  0
   10.2758  -15.8034   25.3195 C   0  0  2  0  0  0  0  0  0  0  0  0
    9.8742  -14.8855   24.2425 N   0  0  0  0  0  0  0  0  0  0  0  0
    9.1740  -16.6192   25.8171 C   0  0  0  0  0  0  0  0  0  0  0  0
    7.9022  -16.0901   25.9184 O   0  0  0  0  0  0  0  0  0  0  0  0
   10.6198  -15.2457   28.8263 C   0  0  0  0  0  0  0  0  0  0  0  0
   11.0036  -15.8908   30.0036 C   0  0  0  0  0  0  0  0  0  0  0  0
    9.3560  -17.8106   26.1618 O   0  0  0  0  0  0  0  0  0  0  0  0
  1  5  1  0
  1  2  1  0
  2  3  1  0
  4  3  1  0
  5  4  1  0
  5  6  1  1
  7  6  2  0
  8  9  1  0
  9 10  2  0
 10 11  1  0
 12 13  1  0
 12 11  2  0
 14 13  1  1
 14 16  1  0
 14 15  1  0
 15  6  1  0
 16 17  2  0
 18 12  1  0
 19 18  2  0
 19  9  1  0
 21 22  2  0
 21 20  1  0
 23 22  1  0
 24 23  2  0
 26 25  1  1
 25 24  1  0
 27 26  1  0
 27 16  1  0
 28 29  1  0
 28 26  1  0
 30 24  1  0
 30 31  2  0
 31 21  1  0
 32 28  2  0
M  END
$$$$
