PYY.pdb
     RDKit          3D

 32 34  0  0  1  0  0  0  0  0999 V2000
    7.9885  -16.2203   18.4085 N   0  0  0  0  0  0  0  0  0  0  0  0
    7.6131  -16.1309   17.0188 C   0  0  0  0  0  0  0  0  0  0  0  0
    7.9308  -14.7513   16.5415 C   0  0  0  0  0  0  0  0  0  0  0  0
    8.2408  -14.0092   17.8487 C   0  0  0  0  0  0  0  0  0  0  0  0
    8.8899  -15.1359   18.6344 C   0  0  1  0  0  0  0  0  0  0  0  0
    9.0720  -14.7972   20.0596 C   0  0  0  0  0  0  0  0  0  0  0  0
   10.1561  -14.2468   20.3857 O   0  0  0  0  0  0  0  0  0  0  0  0
    6.4657  -11.6872   27.9472 O   0  0  0  0  0  0  0  0  0  0  0  0
    6.5436  -12.2745   26.6845 C   0  0  0  0  0  0  0  0  0  0  0  0
    6.9622  -11.5728   25.6009 C   0  0  0  0  0  0  0  0  0  0  0  0
    7.0375  -12.1659   24.3427 C   0  0  0  0  0  0  0  0  0  0  0  0
    6.6910  -13.4866   24.1466 C   0  0  0  0  0  0  0  0  0  0  0  0
    6.7799  -14.0861   22.8173 C   0  0  0  0  0  0  0  0  0  0  0  0
    8.1829  -14.5003   22.4185 C   0  0  2  0  0  0  0  0  0  0  0  0
    8.1291  -15.0438   21.0678 N   0  0  0  0  0  0  0  0  0  0  0  0
    8.8058  -15.4385   23.3652 C   0  0  0  0  0  0  0  0  0  0  0  0
    8.5965  -16.6787   23.3348 O   0  0  0  0  0  0  0  0  0  0  0  0
    6.2695  -14.1814   25.2555 C   0  0  0  0  0  0  0  0  0  0  0  0
    6.1879  -13.6131   26.5090 C   0  0  0  0  0  0  0  0  0  0  0  0
   12.2597  -17.5255   31.2992 O   0  0  0  0  0  0  0  0  0  0  0  0
   11.8823  -16.8763   30.1057 C   0  0  0  0  0  0  0  0  0  0  0  0
   11.1838  -15.6907   30.1322 C   0  0  0  0  0  0  0  0  0  0  0  0
   10.8188  -15.0626   28.9515 C   0  0  0  0  0  0  0  0  0  0  0  0
   11.1328  -15.5867   27.7197 C   0  0  0  0  0  0  0  0  0  0  0  0
   10.7498  -14.9285   26.4779 C   0  0  0  0  0  0  0  0  0  0  0  0
   10.1077  -15.8811   25.4537 C   0  0  2  0  0  0  0  0  0  0  0  0
    9.6910  -14.9721   24.3749 N   0  0  0  0  0  0  0  0  0  0  0  0
    8.9972  -16.6263   26.0355 C   0  0  0  0  0  0  0  0  0  0  0  0
    9.1950  -17.8978   26.5377 O   0  0  0  0  0  0  0  0  0  0  0  0
   11.8311  -16.7718   27.7012 C   0  0  0  0  0  0  0  0  0  0  0  0
   12.2049  -17.4149   28.8829 C   0  0  0  0  0  0  0  0  0  0  0  0
    7.8465  -16.1326   26.0921 O   0  0  0  0  0  0  0  0  0  0  0  0
  1  5  1  0
  1  2  1  0
  2  3  1  0
  4  3  1  0
  5  4  1  0
  5  6  1  1
  7  6  2  0
  8  9  1  0
  9 10  2  0
 10 11  1  0
 12 13  1  0
 12 11  2  0
 14 13  1  1
 14 16  1  0
 14 15  1  0
 15  6  1  0
 16 17  2  0
 18 12  1  0
 19 18  2  0
 19  9  1  0
 21 22  2  0
 21 20  1  0
 23 22  1  0
 24 23  2  0
 26 25  1  1
 25 24  1  0
 27 26  1  0
 27 16  1  0
 28 29  1  0
 28 26  1  0
 30 24  1  0
 30 31  2  0
 31 21  1  0
 32 28  2  0
M  END
$$$$
