PYY.pdb
     RDKit          3D

 32 34  0  0  1  0  0  0  0  0999 V2000
    7.8999  -18.9199   20.0746 N   0  0  0  0  0  0  0  0  0  0  0  0
    7.1261  -19.5324   19.0228 C   0  0  0  0  0  0  0  0  0  0  0  0
    7.4851  -18.8646   17.7355 C   0  0  0  0  0  0  0  0  0  0  0  0
    8.2987  -17.6508   18.2048 C   0  0  0  0  0  0  0  0  0  0  0  0
    8.9812  -18.2551   19.4203 C   0  0  1  0  0  0  0  0  0  0  0  0
    9.6503  -17.2379   20.2549 C   0  0  0  0  0  0  0  0  0  0  0  0
   10.8526  -16.9763   19.9891 O   0  0  0  0  0  0  0  0  0  0  0  0
    7.2859  -11.8859   17.4534 O   0  0  0  0  0  0  0  0  0  0  0  0
    7.6515  -12.4985   18.6519 C   0  0  0  0  0  0  0  0  0  0  0  0
    8.8409  -12.2334   19.2494 C   0  0  0  0  0  0  0  0  0  0  0  0
    9.1996  -12.8490   20.4465 C   0  0  0  0  0  0  0  0  0  0  0  0
    8.3637  -13.7504   21.0721 C   0  0  0  0  0  0  0  0  0  0  0  0
    8.7621  -14.3818   22.3279 C   0  0  0  0  0  0  0  0  0  0  0  0
    9.7034  -15.5580   22.1570 C   0  0  2  0  0  0  0  0  0  0  0  0
    9.0449  -16.5480   21.3150 N   0  0  0  0  0  0  0  0  0  0  0  0
   10.1556  -16.1338   23.4331 C   0  0  0  0  0  0  0  0  0  0  0  0
    9.3703  -16.6729   24.2552 O   0  0  0  0  0  0  0  0  0  0  0  0
    7.1634  -14.0063   20.4524 C   0  0  0  0  0  0  0  0  0  0  0  0
    6.7896  -13.4079   19.2678 C   0  0  0  0  0  0  0  0  0  0  0  0
   13.8880  -23.4756   24.9058 O   0  0  0  0  0  0  0  0  0  0  0  0
   13.3861  -22.2164   24.5173 C   0  0  0  0  0  0  0  0  0  0  0  0
   13.1812  -21.9119   23.1909 C   0  0  0  0  0  0  0  0  0  0  0  0
   12.6872  -20.6701   22.8222 C   0  0  0  0  0  0  0  0  0  0  0  0
   12.3844  -19.7014   23.7499 C   0  0  0  0  0  0  0  0  0  0  0  0
   11.8658  -18.3958   23.3645 C   0  0  0  0  0  0  0  0  0  0  0  0
   12.1457  -17.2956   24.4038 C   0  0  2  0  0  0  0  0  0  0  0  0
   11.5293  -16.1056   23.7974 N   0  0  0  0  0  0  0  0  0  0  0  0
   13.5749  -17.1385   24.6483 C   0  0  0  0  0  0  0  0  0  0  0  0
   14.3967  -16.6061   23.6741 O   0  0  0  0  0  0  0  0  0  0  0  0
   12.5919  -20.0131   25.0736 C   0  0  0  0  0  0  0  0  0  0  0  0
   13.0888  -21.2599   25.4586 C   0  0  0  0  0  0  0  0  0  0  0  0
   14.0856  -17.4812   25.7406 O   0  0  0  0  0  0  0  0  0  0  0  0
  1  5  1  0
  1  2  1  0
  2  3  1  0
  4  3  1  0
  5  4  1  0
  5  6  1  1
  7  6  2  0
  8  9  1  0
  9 10  2  0
 10 11  1  0
 12 13  1  0
 12 11  2  0
 14 13  1  1
 14 16  1  0
 14 15  1  0
 15  6  1  0
 16 17  2  0
 18 12  1  0
 19 18  2  0
 19  9  1  0
 21 22  2  0
 21 20  1  0
 23 22  1  0
 24 23  2  0
 26 25  1  6
 25 24  1  0
 27 26  1  0
 27 16  1  0
 28 29  1  0
 28 26  1  0
 30 24  1  0
 30 31  2  0
 31 21  1  0
 32 28  2  0
M  END
$$$$
