PYY.pdb
     RDKit          3D

 32 34  0  0  1  0  0  0  0  0999 V2000
    8.3067  -15.3354   17.9416 N   0  0  0  0  0  0  0  0  0  0  0  0
    8.0899  -14.7007   16.6647 C   0  0  0  0  0  0  0  0  0  0  0  0
    8.5489  -13.2827   16.7690 C   0  0  0  0  0  0  0  0  0  0  0  0
    8.7654  -13.1124   18.2788 C   0  0  0  0  0  0  0  0  0  0  0  0
    9.2492  -14.5099   18.6269 C   0  0  1  0  0  0  0  0  0  0  0  0
    9.2992  -14.7425   20.0838 C   0  0  0  0  0  0  0  0  0  0  0  0
   10.3758  -14.4644   20.6738 O   0  0  0  0  0  0  0  0  0  0  0  0
    6.7503  -12.3463   27.8519 O   0  0  0  0  0  0  0  0  0  0  0  0
    6.7680  -12.9504   26.5949 C   0  0  0  0  0  0  0  0  0  0  0  0
    7.2820  -12.3161   25.5108 C   0  0  0  0  0  0  0  0  0  0  0  0
    7.2963  -12.9256   24.2582 C   0  0  0  0  0  0  0  0  0  0  0  0
    6.7903  -14.1947   24.0684 C   0  0  0  0  0  0  0  0  0  0  0  0
    6.8180  -14.8128   22.7450 C   0  0  0  0  0  0  0  0  0  0  0  0
    8.1944  -15.2735   22.3065 C   0  0  2  0  0  0  0  0  0  0  0  0
    8.2394  -15.2477   20.8505 N   0  0  0  0  0  0  0  0  0  0  0  0
    8.5683  -16.5903   22.8457 C   0  0  0  0  0  0  0  0  0  0  0  0
    9.3700  -17.3645   22.2619 O   0  0  0  0  0  0  0  0  0  0  0  0
    6.2740  -14.8216   25.1777 C   0  0  0  0  0  0  0  0  0  0  0  0
    6.2503  -14.2360   26.4257 C   0  0  0  0  0  0  0  0  0  0  0  0
   11.9906  -14.7914   30.4278 O   0  0  0  0  0  0  0  0  0  0  0  0
   11.3066  -15.0100   29.2142 C   0  0  0  0  0  0  0  0  0  0  0  0
   11.3251  -16.2416   28.6003 C   0  0  0  0  0  0  0  0  0  0  0  0
   10.6483  -16.4433   27.4073 C   0  0  0  0  0  0  0  0  0  0  0  0
    9.9391  -15.4384   26.7926 C   0  0  0  0  0  0  0  0  0  0  0  0
    9.2279  -15.6482   25.5388 C   0  0  0  0  0  0  0  0  0  0  0  0
    8.8898  -17.1250   25.2672 C   0  0  2  0  0  0  0  0  0  0  0  0
    8.0285  -17.0518   24.0770 N   0  0  0  0  0  0  0  0  0  0  0  0
    8.2329  -17.7451   26.4122 C   0  0  0  0  0  0  0  0  0  0  0  0
    6.9874  -17.3118   26.8232 O   0  0  0  0  0  0  0  0  0  0  0  0
    9.9253  -14.2102   27.4122 C   0  0  0  0  0  0  0  0  0  0  0  0
   10.6025  -13.9935   28.6139 C   0  0  0  0  0  0  0  0  0  0  0  0
    8.7807  -18.6786   27.0444 O   0  0  0  0  0  0  0  0  0  0  0  0
  1  5  1  0
  1  2  1  0
  2  3  1  0
  4  3  1  0
  5  4  1  0
  5  6  1  1
  7  6  2  0
  8  9  1  0
  9 10  2  0
 10 11  1  0
 12 13  1  0
 12 11  2  0
 14 13  1  6
 14 16  1  0
 14 15  1  0
 15  6  1  0
 16 17  2  0
 18 12  1  0
 19 18  2  0
 19  9  1  0
 21 22  2  0
 21 20  1  0
 23 22  1  0
 24 23  2  0
 26 25  1  1
 25 24  1  0
 27 26  1  0
 27 16  1  0
 28 29  1  0
 28 26  1  0
 30 24  1  0
 30 31  2  0
 31 21  1  0
 32 28  2  0
M  END
$$$$
