PYY.pdb
     RDKit          3D

 32 34  0  0  1  0  0  0  0  0999 V2000
    8.5434  -14.7033   19.7794 N   0  0  0  0  0  0  0  0  0  0  0  0
    8.3111  -13.9102   18.5974 C   0  0  0  0  0  0  0  0  0  0  0  0
    7.2909  -12.8709   18.9307 C   0  0  0  0  0  0  0  0  0  0  0  0
    6.7741  -13.3373   20.2985 C   0  0  0  0  0  0  0  0  0  0  0  0
    8.0549  -13.9214   20.8700 C   0  0  1  0  0  0  0  0  0  0  0  0
    7.8193  -14.6974   22.1035 C   0  0  0  0  0  0  0  0  0  0  0  0
    7.3711  -14.0717   23.0996 O   0  0  0  0  0  0  0  0  0  0  0  0
    7.3191  -21.7628   27.5750 O   0  0  0  0  0  0  0  0  0  0  0  0
    7.4988  -20.9129   26.4838 C   0  0  0  0  0  0  0  0  0  0  0  0
    6.4426  -20.3974   25.8053 C   0  0  0  0  0  0  0  0  0  0  0  0
    6.6296  -19.5491   24.7162 C   0  0  0  0  0  0  0  0  0  0  0  0
    7.8917  -19.1991   24.2836 C   0  0  0  0  0  0  0  0  0  0  0  0
    8.0616  -18.3067   23.1395 C   0  0  0  0  0  0  0  0  0  0  0  0
    7.8593  -16.8396   23.4645 C   0  0  2  0  0  0  0  0  0  0  0  0
    8.0580  -16.0722   22.2420 N   0  0  0  0  0  0  0  0  0  0  0  0
    8.7161  -16.3610   24.5604 C   0  0  0  0  0  0  0  0  0  0  0  0
    9.9211  -16.0393   24.3944 O   0  0  0  0  0  0  0  0  0  0  0  0
    8.9493  -19.7308   24.9829 C   0  0  0  0  0  0  0  0  0  0  0  0
    8.7857  -20.5719   26.0631 C   0  0  0  0  0  0  0  0  0  0  0  0
    6.3241   -9.9432   25.7647 O   0  0  0  0  0  0  0  0  0  0  0  0
    6.7564  -11.1823   26.2805 C   0  0  0  0  0  0  0  0  0  0  0  0
    8.0860  -11.4146   26.5496 C   0  0  0  0  0  0  0  0  0  0  0  0
    8.4980  -12.6374   27.0566 C   0  0  0  0  0  0  0  0  0  0  0  0
    7.6115  -13.6576   27.3096 C   0  0  0  0  0  0  0  0  0  0  0  0
    8.0425  -14.9433   27.8418 C   0  0  0  0  0  0  0  0  0  0  0  0
    9.0558  -15.6700   26.9395 C   0  0  2  0  0  0  0  0  0  0  0  0
    8.2061  -16.2380   25.8816 N   0  0  0  0  0  0  0  0  0  0  0  0
    9.8040  -16.6811   27.6776 C   0  0  0  0  0  0  0  0  0  0  0  0
   10.7573  -16.3076   28.6048 O   0  0  0  0  0  0  0  0  0  0  0  0
    6.2844  -13.4179   27.0381 C   0  0  0  0  0  0  0  0  0  0  0  0
    5.8560  -12.1910   26.5273 C   0  0  0  0  0  0  0  0  0  0  0  0
    9.6000  -17.9032   27.4878 O   0  0  0  0  0  0  0  0  0  0  0  0
  1  5  1  0
  1  2  1  0
  2  3  1  0
  4  3  1  0
  5  4  1  0
  5  6  1  1
  7  6  2  0
  8  9  1  0
  9 10  2  0
 10 11  1  0
 12 13  1  0
 12 11  2  0
 14 13  1  6
 14 16  1  0
 14 15  1  0
 15  6  1  0
 16 17  2  0
 18 12  1  0
 19 18  2  0
 19  9  1  0
 21 22  2  0
 21 20  1  0
 23 22  1  0
 24 23  2  0
 26 25  1  1
 25 24  1  0
 27 26  1  0
 27 16  1  0
 28 29  1  0
 28 26  1  0
 30 24  1  0
 30 31  2  0
 31 21  1  0
 32 28  2  0
M  END
$$$$
