PYY.pdb
     RDKit          3D

 32 34  0  0  1  0  0  0  0  0999 V2000
    8.0242  -15.8790   18.2269 N   0  0  0  0  0  0  0  0  0  0  0  0
    7.5908  -15.6239   16.8751 C   0  0  0  0  0  0  0  0  0  0  0  0
    7.7262  -14.1590   16.6145 C   0  0  0  0  0  0  0  0  0  0  0  0
    7.9937  -13.5941   18.0162 C   0  0  0  0  0  0  0  0  0  0  0  0
    8.7991  -14.7403   18.6042 C   0  0  1  0  0  0  0  0  0  0  0  0
    8.9916  -14.6046   20.0615 C   0  0  0  0  0  0  0  0  0  0  0  0
   10.0908  -14.1338   20.4549 O   0  0  0  0  0  0  0  0  0  0  0  0
    6.0978  -11.7980   27.9218 O   0  0  0  0  0  0  0  0  0  0  0  0
    6.2240  -12.3882   26.6645 C   0  0  0  0  0  0  0  0  0  0  0  0
    6.5536  -11.6584   25.5687 C   0  0  0  0  0  0  0  0  0  0  0  0
    6.6779  -12.2546   24.3158 C   0  0  0  0  0  0  0  0  0  0  0  0
    6.4719  -13.6068   24.1374 C   0  0  0  0  0  0  0  0  0  0  0  0
    6.6095  -14.2087   22.8134 C   0  0  0  0  0  0  0  0  0  0  0  0
    8.0424  -14.5015   22.4134 C   0  0  2  0  0  0  0  0  0  0  0  0
    8.0430  -14.9609   21.0307 N   0  0  0  0  0  0  0  0  0  0  0  0
    8.7158  -15.4537   23.3102 C   0  0  0  0  0  0  0  0  0  0  0  0
    8.5326  -16.6969   23.2478 O   0  0  0  0  0  0  0  0  0  0  0  0
    6.1389  -14.3297   25.2584 C   0  0  0  0  0  0  0  0  0  0  0  0
    6.0109  -13.7590   26.5070 C   0  0  0  0  0  0  0  0  0  0  0  0
   12.4834  -17.6468   31.0909 O   0  0  0  0  0  0  0  0  0  0  0  0
   12.0378  -16.9897   29.9256 C   0  0  0  0  0  0  0  0  0  0  0  0
   12.2878  -17.5108   28.6766 C   0  0  0  0  0  0  0  0  0  0  0  0
   11.8441  -16.8548   27.5387 C   0  0  0  0  0  0  0  0  0  0  0  0
   11.1453  -15.6725   27.6048 C   0  0  0  0  0  0  0  0  0  0  0  0
   10.6787  -14.9813   26.4103 C   0  0  0  0  0  0  0  0  0  0  0  0
   10.0794  -15.9251   25.3525 C   0  0  2  0  0  0  0  0  0  0  0  0
    9.6227  -14.9983   24.3056 N   0  0  0  0  0  0  0  0  0  0  0  0
    9.0030  -16.7386   25.9064 C   0  0  0  0  0  0  0  0  0  0  0  0
    9.2369  -18.0477   26.2798 O   0  0  0  0  0  0  0  0  0  0  0  0
   10.8992  -15.1578   28.8566 C   0  0  0  0  0  0  0  0  0  0  0  0
   11.3403  -15.8083   30.0107 C   0  0  0  0  0  0  0  0  0  0  0  0
    7.8496  -16.2708   26.0545 O   0  0  0  0  0  0  0  0  0  0  0  0
  1  5  1  0
  1  2  1  0
  2  3  1  0
  4  3  1  0
  5  4  1  0
  5  6  1  1
  7  6  2  0
  8  9  1  0
  9 10  2  0
 10 11  1  0
 12 13  1  0
 12 11  2  0
 14 13  1  1
 14 16  1  0
 14 15  1  0
 15  6  1  0
 16 17  2  0
 18 12  1  0
 19 18  2  0
 19  9  1  0
 21 22  2  0
 21 20  1  0
 23 22  1  0
 24 23  2  0
 26 25  1  1
 25 24  1  0
 27 26  1  0
 27 16  1  0
 28 29  1  0
 28 26  1  0
 30 24  1  0
 30 31  2  0
 31 21  1  0
 32 28  2  0
M  END
$$$$
