IFW.pdb
     RDKit          3D

 34 36  0  0  1  0  0  0  0  0999 V2000
   23.7110  -25.7151  -15.7075 C   0  0  0  0  0  0  0  0  0  0  0  0
   24.7107  -24.6017  -15.6428 C   0  0  0  0  0  0  0  0  0  0  0  0
   23.9980  -23.2813  -15.7070 C   0  0  2  0  0  0  0  0  0  0  0  0
   23.1382  -23.1702  -16.9306 C   0  0  0  0  0  0  0  0  0  0  0  0
   25.0320  -22.1699  -15.6186 C   0  0  2  0  0  0  0  0  0  0  0  0
   25.9518  -22.3352  -16.7697 N   0  0  0  0  0  0  0  0  0  0  0  0
   25.8406  -22.2058  -14.4036 C   0  0  0  0  0  0  0  0  0  0  0  0
   26.4054  -23.2898  -14.0247 O   0  0  0  0  0  0  0  0  0  0  0  0
   26.0860  -21.0819  -13.5375 N   0  0  0  0  0  0  0  0  0  0  0  0
   26.8203  -21.2644  -12.2915 C   0  0  1  0  0  0  0  0  0  0  0  0
   27.8598  -20.1466  -12.2993 C   0  0  0  0  0  0  0  0  0  0  0  0
   28.7256  -20.1351  -11.1034 C   0  0  0  0  0  0  0  0  0  0  0  0
   28.4570  -19.3411  -10.0099 C   0  0  0  0  0  0  0  0  0  0  0  0
   29.2609  -19.3368   -8.8637 C   0  0  0  0  0  0  0  0  0  0  0  0
   30.3601  -20.1542   -8.8229 C   0  0  0  0  0  0  0  0  0  0  0  0
   30.6517  -20.9547   -9.8961 C   0  0  0  0  0  0  0  0  0  0  0  0
   29.8468  -20.9488  -11.0261 C   0  0  0  0  0  0  0  0  0  0  0  0
   25.9443  -21.0960  -11.1248 C   0  0  0  0  0  0  0  0  0  0  0  0
   24.7801  -20.6151  -11.3308 O   0  0  0  0  0  0  0  0  0  0  0  0
   26.3044  -21.4343   -9.7905 N   0  0  0  0  0  0  0  0  0  0  0  0
   25.2877  -21.3998   -8.7355 C   0  0  1  0  0  0  0  0  0  0  0  0
   25.9918  -21.7680   -7.4521 C   0  0  0  0  0  0  0  0  0  0  0  0
   26.6292  -20.6543   -6.7570 C   0  0  0  0  0  0  0  0  0  0  0  0
   26.2115  -19.3304   -6.6832 C   0  0  0  0  0  0  0  0  0  0  0  0
   27.1044  -18.6538   -5.9443 N   0  0  0  0  0  0  0  0  0  0  0  0
   28.0782  -19.4883   -5.5397 C   0  0  0  0  0  0  0  0  0  0  0  0
   29.2195  -19.3288   -4.7594 C   0  0  0  0  0  0  0  0  0  0  0  0
   30.0596  -20.3834   -4.4805 C   0  0  0  0  0  0  0  0  0  0  0  0
   29.7999  -21.6494   -4.9688 C   0  0  0  0  0  0  0  0  0  0  0  0
   28.6680  -21.7988   -5.7415 C   0  0  0  0  0  0  0  0  0  0  0  0
   27.8128  -20.7494   -6.0309 C   0  0  0  0  0  0  0  0  0  0  0  0
   24.5782  -20.1311   -8.7150 C   0  0  0  0  0  0  0  0  0  0  0  0
   23.3119  -19.9846   -8.0924 O   0  0  0  0  0  0  0  0  0  0  0  0
   25.0077  -19.0725   -9.2322 O   0  0  0  0  0  0  0  0  0  0  0  0
  2  1  1  0
  3  2  1  0
  3  4  1  6
  5  3  1  0
  5  6  1  6
  7  5  1  0
  8  7  2  0
  9  7  1  0
 10  9  1  0
 11 12  1  0
 10 11  1  1
 12 13  2  0
 13 14  1  0
 15 14  2  0
 16 15  1  0
 17 16  2  0
 17 12  1  0
 18 10  1  0
 18 19  2  0
 20 18  1  0
 21 20  1  0
 21 22  1  1
 23 22  1  0
 23 31  1  0
 24 23  2  0
 25 24  1  0
 25 26  1  0
 26 27  1  0
 26 31  2  0
 27 28  2  0
 28 29  1  0
 30 29  2  0
 31 30  1  0
 32 21  1  0
 33 32  1  0
 34 32  2  0
M  END
$$$$
