IFW.pdb
     RDKit          3D

 34 36  0  0  1  0  0  0  0  0999 V2000
   26.5134  -26.2432  -20.5411 C   0  0  0  0  0  0  0  0  0  0  0  0
   26.6505  -26.6983  -19.1208 C   0  0  0  0  0  0  0  0  0  0  0  0
   27.4242  -25.6768  -18.3377 C   0  0  2  0  0  0  0  0  0  0  0  0
   28.8217  -26.1372  -18.0476 C   0  0  0  0  0  0  0  0  0  0  0  0
   26.6456  -25.3461  -17.0741 C   0  0  2  0  0  0  0  0  0  0  0  0
   25.2141  -25.2627  -17.4512 N   0  0  0  0  0  0  0  0  0  0  0  0
   27.0132  -24.0707  -16.4662 C   0  0  0  0  0  0  0  0  0  0  0  0
   28.2121  -23.8531  -16.0752 O   0  0  0  0  0  0  0  0  0  0  0  0
   26.1154  -22.9658  -16.2507 N   0  0  0  0  0  0  0  0  0  0  0  0
   26.5792  -21.7701  -15.5576 C   0  0  1  0  0  0  0  0  0  0  0  0
   26.0391  -20.6148  -16.3963 C   0  0  0  0  0  0  0  0  0  0  0  0
   26.3505  -19.2831  -15.8398 C   0  0  0  0  0  0  0  0  0  0  0  0
   25.4526  -18.5831  -15.0640 C   0  0  0  0  0  0  0  0  0  0  0  0
   25.7450  -17.3284  -14.5159 C   0  0  0  0  0  0  0  0  0  0  0  0
   26.9731  -16.7703  -14.7577 C   0  0  0  0  0  0  0  0  0  0  0  0
   27.8860  -17.4439  -15.5261 C   0  0  0  0  0  0  0  0  0  0  0  0
   27.5831  -18.6865  -16.0636 C   0  0  0  0  0  0  0  0  0  0  0  0
   26.0157  -21.6839  -14.2040 C   0  0  0  0  0  0  0  0  0  0  0  0
   24.7688  -21.9226  -14.0722 O   0  0  0  0  0  0  0  0  0  0  0  0
   26.7636  -21.3577  -13.0384 N   0  0  0  0  0  0  0  0  0  0  0  0
   26.0678  -21.1591  -11.7640 C   0  0  1  0  0  0  0  0  0  0  0  0
   27.1387  -21.0445  -10.7064 C   0  0  0  0  0  0  0  0  0  0  0  0
   26.6551  -20.6971   -9.3741 C   0  0  0  0  0  0  0  0  0  0  0  0
   25.3447  -20.4902   -8.9584 C   0  0  0  0  0  0  0  0  0  0  0  0
   25.3668  -20.1857   -7.6517 N   0  0  0  0  0  0  0  0  0  0  0  0
   26.6370  -20.1888   -7.2103 C   0  0  0  0  0  0  0  0  0  0  0  0
   27.2252  -19.9608   -5.9697 C   0  0  0  0  0  0  0  0  0  0  0  0
   28.5874  -20.0453   -5.7873 C   0  0  0  0  0  0  0  0  0  0  0  0
   29.4283  -20.3616   -6.8368 C   0  0  0  0  0  0  0  0  0  0  0  0
   28.8378  -20.5852   -8.0624 C   0  0  0  0  0  0  0  0  0  0  0  0
   27.4705  -20.5047   -8.2627 C   0  0  0  0  0  0  0  0  0  0  0  0
   25.1352  -20.0459  -11.8294 C   0  0  0  0  0  0  0  0  0  0  0  0
   23.8339  -20.1177  -11.2688 O   0  0  0  0  0  0  0  0  0  0  0  0
   25.3862  -18.9441  -12.3732 O   0  0  0  0  0  0  0  0  0  0  0  0
  2  1  1  0
  3  2  1  0
  3  4  1  1
  5  3  1  0
  5  6  1  6
  7  5  1  0
  8  7  2  0
  9  7  1  0
 10  9  1  0
 11 12  1  0
 10 11  1  6
 12 13  2  0
 13 14  1  0
 15 14  2  0
 16 15  1  0
 17 16  2  0
 17 12  1  0
 18 10  1  0
 18 19  2  0
 20 18  1  0
 21 20  1  0
 21 22  1  1
 23 22  1  0
 23 31  1  0
 24 23  2  0
 25 24  1  0
 25 26  1  0
 26 27  1  0
 26 31  2  0
 27 28  2  0
 28 29  1  0
 30 29  2  0
 31 30  1  0
 32 21  1  0
 33 32  1  0
 34 32  2  0
M  END
$$$$
