IFW.pdb
     RDKit          3D

 34 36  0  0  1  0  0  0  0  0999 V2000
   29.4010  -28.4354  -19.5583 C   0  0  0  0  0  0  0  0  0  0  0  0
   30.2149  -27.2915  -19.0363 C   0  0  0  0  0  0  0  0  0  0  0  0
   29.3728  -26.4525  -18.1185 C   0  0  2  0  0  0  0  0  0  0  0  0
   28.1022  -26.0066  -18.7789 C   0  0  0  0  0  0  0  0  0  0  0  0
   30.2132  -25.2855  -17.6245 C   0  0  2  0  0  0  0  0  0  0  0  0
   31.3195  -25.8537  -16.8172 N   0  0  0  0  0  0  0  0  0  0  0  0
   29.4865  -24.3483  -16.7731 C   0  0  0  0  0  0  0  0  0  0  0  0
   29.1247  -24.6821  -15.5918 O   0  0  0  0  0  0  0  0  0  0  0  0
   29.1152  -23.0076  -17.1443 N   0  0  0  0  0  0  0  0  0  0  0  0
   28.3876  -22.1628  -16.2051 C   0  0  1  0  0  0  0  0  0  0  0  0
   28.7782  -20.7402  -16.5969 C   0  0  0  0  0  0  0  0  0  0  0  0
   28.0521  -19.6982  -15.8438 C   0  0  0  0  0  0  0  0  0  0  0  0
   27.1094  -18.8865  -16.4360 C   0  0  0  0  0  0  0  0  0  0  0  0
   26.4018  -17.9085  -15.7267 C   0  0  0  0  0  0  0  0  0  0  0  0
   26.6533  -17.7490  -14.3890 C   0  0  0  0  0  0  0  0  0  0  0  0
   27.5859  -18.5423  -13.7737 C   0  0  0  0  0  0  0  0  0  0  0  0
   28.2803  -19.5074  -14.4885 C   0  0  0  0  0  0  0  0  0  0  0  0
   26.9354  -22.3203  -16.3583 C   0  0  0  0  0  0  0  0  0  0  0  0
   26.4775  -22.4065  -17.5465 O   0  0  0  0  0  0  0  0  0  0  0  0
   26.0129  -22.3860  -15.2770 N   0  0  0  0  0  0  0  0  0  0  0  0
   24.5784  -22.4984  -15.5551 C   0  0  1  0  0  0  0  0  0  0  0  0
   23.9228  -22.9055  -14.2578 C   0  0  0  0  0  0  0  0  0  0  0  0
   22.4921  -23.1783  -14.3489 C   0  0  0  0  0  0  0  0  0  0  0  0
   21.8558  -24.4035  -14.5125 C   0  0  0  0  0  0  0  0  0  0  0  0
   20.5327  -24.1825  -14.5498 N   0  0  0  0  0  0  0  0  0  0  0  0
   20.2924  -22.8662  -14.4165 C   0  0  0  0  0  0  0  0  0  0  0  0
   19.1316  -22.0994  -14.3732 C   0  0  0  0  0  0  0  0  0  0  0  0
   19.1718  -20.7330  -14.2086 C   0  0  0  0  0  0  0  0  0  0  0  0
   20.3748  -20.0661  -14.0797 C   0  0  0  0  0  0  0  0  0  0  0  0
   21.5198  -20.8327  -14.1245 C   0  0  0  0  0  0  0  0  0  0  0  0
   21.4970  -22.2070  -14.2888 C   0  0  0  0  0  0  0  0  0  0  0  0
   24.0535  -21.2880  -16.1654 C   0  0  0  0  0  0  0  0  0  0  0  0
   24.4679  -19.9948  -15.7547 O   0  0  0  0  0  0  0  0  0  0  0  0
   23.2064  -21.2724  -17.0900 O   0  0  0  0  0  0  0  0  0  0  0  0
  2  1  1  0
  3  2  1  0
  3  4  1  6
  5  3  1  0
  5  6  1  1
  7  5  1  0
  8  7  2  0
  9  7  1  0
 10  9  1  0
 11 12  1  0
 10 11  1  6
 12 13  2  0
 13 14  1  0
 15 14  2  0
 16 15  1  0
 17 16  2  0
 17 12  1  0
 18 10  1  0
 18 19  2  0
 20 18  1  0
 21 20  1  0
 21 22  1  1
 23 22  1  0
 23 31  1  0
 24 23  2  0
 25 24  1  0
 25 26  1  0
 26 27  1  0
 26 31  2  0
 27 28  2  0
 28 29  1  0
 30 29  2  0
 31 30  1  0
 32 21  1  0
 33 32  1  0
 34 32  2  0
M  END
$$$$
