IFW.pdb
     RDKit          3D

 34 36  0  0  1  0  0  0  0  0999 V2000
   25.9880  -22.0197  -20.4047 C   0  0  0  0  0  0  0  0  0  0  0  0
   24.6655  -21.4557  -19.9850 C   0  0  0  0  0  0  0  0  0  0  0  0
   24.7491  -20.9827  -18.5621 C   0  0  2  0  0  0  0  0  0  0  0  0
   25.1637  -22.0833  -17.6316 C   0  0  0  0  0  0  0  0  0  0  0  0
   23.4121  -20.3681  -18.1785 C   0  0  2  0  0  0  0  0  0  0  0  0
   23.2289  -19.1597  -19.0179 N   0  0  0  0  0  0  0  0  0  0  0  0
   23.3298  -19.9482  -16.7828 C   0  0  0  0  0  0  0  0  0  0  0  0
   23.8270  -18.8313  -16.4046 O   0  0  0  0  0  0  0  0  0  0  0  0
   22.7083  -20.7024  -15.7253 N   0  0  0  0  0  0  0  0  0  0  0  0
   22.6986  -20.1827  -14.3633 C   0  0  1  0  0  0  0  0  0  0  0  0
   21.3326  -20.5871  -13.8152 C   0  0  0  0  0  0  0  0  0  0  0  0
   21.0636  -20.0726  -12.4576 C   0  0  0  0  0  0  0  0  0  0  0  0
   20.6288  -18.7847  -12.2333 C   0  0  0  0  0  0  0  0  0  0  0  0
   20.3527  -18.2930  -10.9518 C   0  0  0  0  0  0  0  0  0  0  0  0
   20.5197  -19.1229   -9.8741 C   0  0  0  0  0  0  0  0  0  0  0  0
   20.9512  -20.4090  -10.0674 C   0  0  0  0  0  0  0  0  0  0  0  0
   21.2216  -20.8834  -11.3428 C   0  0  0  0  0  0  0  0  0  0  0  0
   23.7469  -20.8065  -13.5454 C   0  0  0  0  0  0  0  0  0  0  0  0
   23.8984  -22.0694  -13.6506 O   0  0  0  0  0  0  0  0  0  0  0  0
   24.6005  -20.1000  -12.6527 N   0  0  0  0  0  0  0  0  0  0  0  0
   25.6272  -20.8295  -11.9034 C   0  0  1  0  0  0  0  0  0  0  0  0
   26.6465  -19.8049  -11.4679 C   0  0  0  0  0  0  0  0  0  0  0  0
   27.7805  -20.3415  -10.7224 C   0  0  0  0  0  0  0  0  0  0  0  0
   28.7508  -21.2384  -11.1545 C   0  0  0  0  0  0  0  0  0  0  0  0
   29.5969  -21.4572  -10.1362 N   0  0  0  0  0  0  0  0  0  0  0  0
   29.2109  -20.7377   -9.0677 C   0  0  0  0  0  0  0  0  0  0  0  0
   29.7172  -20.5780   -7.7812 C   0  0  0  0  0  0  0  0  0  0  0  0
   29.1169  -19.7438   -6.8648 C   0  0  0  0  0  0  0  0  0  0  0  0
   27.9803  -19.0288   -7.1899 C   0  0  0  0  0  0  0  0  0  0  0  0
   27.4847  -19.1933   -8.4658 C   0  0  0  0  0  0  0  0  0  0  0  0
   28.0762  -20.0273   -9.3991 C   0  0  0  0  0  0  0  0  0  0  0  0
   25.0475  -21.6252  -10.8338 C   0  0  0  0  0  0  0  0  0  0  0  0
   24.0223  -21.1240   -9.9908 O   0  0  0  0  0  0  0  0  0  0  0  0
   25.3894  -22.8007  -10.5620 O   0  0  0  0  0  0  0  0  0  0  0  0
  2  1  1  0
  3  2  1  0
  3  4  1  1
  5  3  1  0
  5  6  1  6
  7  5  1  0
  8  7  2  0
  9  7  1  0
 10  9  1  0
 11 12  1  0
 10 11  1  1
 12 13  2  0
 13 14  1  0
 15 14  2  0
 16 15  1  0
 17 16  2  0
 17 12  1  0
 18 10  1  0
 18 19  2  0
 20 18  1  0
 21 20  1  0
 21 22  1  1
 23 22  1  0
 23 31  1  0
 24 23  2  0
 25 24  1  0
 25 26  1  0
 26 27  1  0
 26 31  2  0
 27 28  2  0
 28 29  1  0
 30 29  2  0
 31 30  1  0
 32 21  1  0
 33 32  1  0
 34 32  2  0
M  END
$$$$
