IFW.pdb
     RDKit          3D

 34 36  0  0  1  0  0  0  0  0999 V2000
   28.2133  -18.1965  -19.0405 C   0  0  0  0  0  0  0  0  0  0  0  0
   27.1489  -18.2422  -17.9878 C   0  0  0  0  0  0  0  0  0  0  0  0
   27.2094  -19.5589  -17.2681 C   0  0  2  0  0  0  0  0  0  0  0  0
   27.1637  -20.7174  -18.2194 C   0  0  0  0  0  0  0  0  0  0  0  0
   26.0862  -19.6012  -16.2440 C   0  0  2  0  0  0  0  0  0  0  0  0
   25.6430  -18.2038  -16.0223 N   0  0  0  0  0  0  0  0  0  0  0  0
   26.4831  -20.1452  -14.9487 C   0  0  0  0  0  0  0  0  0  0  0  0
   26.7907  -21.3811  -14.8241 O   0  0  0  0  0  0  0  0  0  0  0  0
   26.5729  -19.3914  -13.7253 N   0  0  0  0  0  0  0  0  0  0  0  0
   26.6793  -20.0820  -12.4459 C   0  0  1  0  0  0  0  0  0  0  0  0
   27.2521  -19.0323  -11.4972 C   0  0  0  0  0  0  0  0  0  0  0  0
   28.0364  -19.6047  -10.3849 C   0  0  0  0  0  0  0  0  0  0  0  0
   27.4743  -19.8869   -9.1591 C   0  0  0  0  0  0  0  0  0  0  0  0
   28.2046  -20.4472   -8.1041 C   0  0  0  0  0  0  0  0  0  0  0  0
   29.5324  -20.7286   -8.2941 C   0  0  0  0  0  0  0  0  0  0  0  0
   30.1179  -20.4583   -9.5031 C   0  0  0  0  0  0  0  0  0  0  0  0
   29.3827  -19.9025  -10.5400 C   0  0  0  0  0  0  0  0  0  0  0  0
   25.3611  -20.5037  -11.9543 C   0  0  0  0  0  0  0  0  0  0  0  0
   24.7620  -21.4261  -12.6017 O   0  0  0  0  0  0  0  0  0  0  0  0
   24.7145  -19.9578  -10.8105 N   0  0  0  0  0  0  0  0  0  0  0  0
   24.7721  -20.6764   -9.5345 C   0  0  1  0  0  0  0  0  0  0  0  0
   26.2202  -20.6749   -9.1088 C   0  0  0  0  0  0  0  0  0  0  0  0
   26.4667  -21.1719   -7.7591 C   0  0  0  0  0  0  0  0  0  0  0  0
   26.0918  -22.3912   -7.2065 C   0  0  0  0  0  0  0  0  0  0  0  0
   26.5222  -22.4211   -5.9358 N   0  0  0  0  0  0  0  0  0  0  0  0
   27.1587  -21.2718   -5.6491 C   0  0  0  0  0  0  0  0  0  0  0  0
   27.7986  -20.7835   -4.5137 C   0  0  0  0  0  0  0  0  0  0  0  0
   28.3975  -19.5438   -4.4964 C   0  0  0  0  0  0  0  0  0  0  0  0
   28.3854  -18.7312   -5.6136 C   0  0  0  0  0  0  0  0  0  0  0  0
   27.7488  -19.2219   -6.7337 C   0  0  0  0  0  0  0  0  0  0  0  0
   27.1424  -20.4658   -6.7680 C   0  0  0  0  0  0  0  0  0  0  0  0
   23.8375  -20.1267   -8.5662 C   0  0  0  0  0  0  0  0  0  0  0  0
   23.6310  -18.7302   -8.4253 O   0  0  0  0  0  0  0  0  0  0  0  0
   23.1421  -20.8174   -7.7839 O   0  0  0  0  0  0  0  0  0  0  0  0
  2  1  1  0
  3  2  1  0
  3  4  1  6
  5  3  1  0
  5  6  1  1
  7  5  1  0
  8  7  2  0
  9  7  1  0
 10  9  1  0
 11 12  1  0
 10 11  1  1
 12 13  2  0
 13 14  1  0
 15 14  2  0
 16 15  1  0
 17 16  2  0
 17 12  1  0
 18 10  1  0
 18 19  2  0
 20 18  1  0
 21 20  1  0
 21 22  1  1
 23 22  1  0
 23 31  1  0
 24 23  2  0
 25 24  1  0
 25 26  1  0
 26 27  1  0
 26 31  2  0
 27 28  2  0
 28 29  1  0
 30 29  2  0
 31 30  1  0
 32 21  1  0
 33 32  1  0
 34 32  2  0
M  END
$$$$
