ICK.pdb
     RDKit          3D

 24 23  0  0  1  0  0  0  0  0999 V2000
    6.6169  -11.9814   27.6933 C   0  0  0  0  0  0  0  0  0  0  0  0
    5.9462  -13.0847   26.9212 C   0  0  0  0  0  0  0  0  0  0  0  0
    6.8723  -13.7762   25.9687 C   0  0  2  0  0  0  0  0  0  0  0  0
    7.5908  -12.7563   25.1445 C   0  0  0  0  0  0  0  0  0  0  0  0
    6.1806  -14.8363   25.1466 C   0  0  2  0  0  0  0  0  0  0  0  0
    5.6625  -15.8315   26.0643 N   0  0  0  0  0  0  0  0  0  0  0  0
    7.2401  -15.5009   24.3138 C   0  0  0  0  0  0  0  0  0  0  0  0
    7.8895  -16.4906   24.7424 O   0  0  0  0  0  0  0  0  0  0  0  0
    7.5546  -15.0399   23.0049 N   0  0  0  0  0  0  0  0  0  0  0  0
    8.5342  -15.7364   22.1618 C   0  0  1  0  0  0  0  0  0  0  0  0
    8.4475  -15.0815   20.7894 C   0  0  0  0  0  0  0  0  0  0  0  0
    6.7978  -15.3563   20.1093 S   0  0  0  0  0  0  0  0  0  0  0  0
    9.8815  -15.5171   22.6998 C   0  0  0  0  0  0  0  0  0  0  0  0
   10.0425  -14.6055   23.5676 O   0  0  0  0  0  0  0  0  0  0  0  0
   11.0075  -16.2670   22.3026 N   0  0  0  0  0  0  0  0  0  0  0  0
   12.1206  -16.5533   23.1900 C   0  0  1  0  0  0  0  0  0  0  0  0
   11.8428  -17.7749   24.0220 C   0  0  0  0  0  0  0  0  0  0  0  0
   11.4844  -17.4752   25.4327 C   0  0  0  0  0  0  0  0  0  0  0  0
   11.3091  -18.7010   26.2775 C   0  0  0  0  0  0  0  0  0  0  0  0
   10.9233  -18.3295   27.6783 C   0  0  0  0  0  0  0  0  0  0  0  0
    9.8346  -19.1072   28.1980 N   0  0  0  0  0  0  0  0  0  0  0  0
   13.3200  -16.7174   22.3327 C   0  0  0  0  0  0  0  0  0  0  0  0
   14.5792  -16.2197   22.6920 O   0  0  0  0  0  0  0  0  0  0  0  0
   13.2899  -17.3197   21.2148 O   0  0  0  0  0  0  0  0  0  0  0  0
  2  1  1  0
  3  2  1  0
  3  4  1  6
  5  6  1  1
  5  7  1  0
  5  3  1  0
  7  9  1  0
  8  7  2  0
  9 10  1  0
 10 11  1  6
 11 12  1  0
 13 15  1  0
 13 10  1  0
 14 13  2  0
 16 22  1  0
 16 15  1  0
 16 17  1  6
 18 17  1  0
 19 18  1  0
 20 19  1  0
 21 20  1  0
 22 23  1  0
 24 22  2  0
M  END
$$$$
