ICK.pdb
     RDKit          3D

 24 23  0  0  1  0  0  0  0  0999 V2000
    7.1381  -11.9748   18.5136 C   0  0  0  0  0  0  0  0  0  0  0  0
    7.9167  -13.1887   18.0853 C   0  0  0  0  0  0  0  0  0  0  0  0
    8.1362  -14.1640   19.2004 C   0  0  2  0  0  0  0  0  0  0  0  0
    8.7575  -13.4587   20.3633 C   0  0  0  0  0  0  0  0  0  0  0  0
    8.8990  -15.3906   18.7626 C   0  0  2  0  0  0  0  0  0  0  0  0
    8.1303  -16.0317   17.7141 N   0  0  0  0  0  0  0  0  0  0  0  0
    8.9267  -16.3277   19.9368 C   0  0  0  0  0  0  0  0  0  0  0  0
    8.0248  -17.1880   20.1136 O   0  0  0  0  0  0  0  0  0  0  0  0
    9.9739  -16.2827   20.8991 N   0  0  0  0  0  0  0  0  0  0  0  0
   10.0044  -17.2036   22.0422 C   0  0  1  0  0  0  0  0  0  0  0  0
   10.7577  -18.4387   21.5659 C   0  0  0  0  0  0  0  0  0  0  0  0
   12.2715  -17.9192   20.7305 S   0  0  0  0  0  0  0  0  0  0  0  0
   10.7600  -16.5902   23.1403 C   0  0  0  0  0  0  0  0  0  0  0  0
   11.7530  -15.8551   22.8512 O   0  0  0  0  0  0  0  0  0  0  0  0
   10.4399  -16.7751   24.5009 N   0  0  0  0  0  0  0  0  0  0  0  0
   11.1510  -16.1103   25.5784 C   0  0  1  0  0  0  0  0  0  0  0  0
   10.2542  -15.9088   26.7687 C   0  0  0  0  0  0  0  0  0  0  0  0
   10.9414  -15.3238   27.9494 C   0  0  0  0  0  0  0  0  0  0  0  0
   10.0361  -15.1204   29.1268 C   0  0  0  0  0  0  0  0  0  0  0  0
   10.7928  -14.5393   30.2839 C   0  0  0  0  0  0  0  0  0  0  0  0
    9.9848  -14.3361   31.4527 N   0  0  0  0  0  0  0  0  0  0  0  0
   12.3290  -16.9534   25.8979 C   0  0  0  0  0  0  0  0  0  0  0  0
   13.5682  -16.4125   26.2638 O   0  0  0  0  0  0  0  0  0  0  0  0
   12.2969  -18.2227   25.8622 O   0  0  0  0  0  0  0  0  0  0  0  0
  2  1  1  0
  3  2  1  0
  3  4  1  1
  5  6  1  6
  5  7  1  0
  5  3  1  0
  7  9  1  0
  8  7  2  0
  9 10  1  0
 10 11  1  6
 11 12  1  0
 13 15  1  0
 13 10  1  0
 14 13  2  0
 16 22  1  0
 16 15  1  0
 16 17  1  1
 18 17  1  0
 19 18  1  0
 20 19  1  0
 21 20  1  0
 22 23  1  0
 24 22  2  0
M  END
$$$$
