ICK.pdb
     RDKit          3D

 24 23  0  0  1  0  0  0  0  0999 V2000
    6.5656  -12.4309   19.0506 C   0  0  0  0  0  0  0  0  0  0  0  0
    7.7951  -13.2181   18.6871 C   0  0  0  0  0  0  0  0  0  0  0  0
    8.6232  -13.5891   19.8785 C   0  0  2  0  0  0  0  0  0  0  0  0
   10.0481  -13.2087   19.6322 C   0  0  0  0  0  0  0  0  0  0  0  0
    8.4470  -15.0315   20.2867 C   0  0  2  0  0  0  0  0  0  0  0  0
    7.0404  -15.2359   20.5713 N   0  0  0  0  0  0  0  0  0  0  0  0
    9.1975  -15.2136   21.5755 C   0  0  0  0  0  0  0  0  0  0  0  0
   10.4557  -15.1920   21.6131 O   0  0  0  0  0  0  0  0  0  0  0  0
    8.5180  -15.4183   22.8088 N   0  0  0  0  0  0  0  0  0  0  0  0
    9.2519  -15.5952   24.0681 C   0  0  1  0  0  0  0  0  0  0  0  0
    8.2297  -15.4011   25.1803 C   0  0  0  0  0  0  0  0  0  0  0  0
    9.0155  -15.7458   26.7688 S   0  0  0  0  0  0  0  0  0  0  0  0
    9.7672  -16.9671   24.1415 C   0  0  0  0  0  0  0  0  0  0  0  0
    8.9629  -17.9249   23.9279 O   0  0  0  0  0  0  0  0  0  0  0  0
   11.1106  -17.2768   24.4373 N   0  0  0  0  0  0  0  0  0  0  0  0
   11.6271  -18.6339   24.4417 C   0  0  1  0  0  0  0  0  0  0  0  0
   12.7513  -18.7831   23.4539 C   0  0  0  0  0  0  0  0  0  0  0  0
   12.8652  -20.1454   22.8711 C   0  0  0  0  0  0  0  0  0  0  0  0
   14.0541  -20.3132   21.9736 C   0  0  0  0  0  0  0  0  0  0  0  0
   14.0748  -21.6865   21.3714 C   0  0  0  0  0  0  0  0  0  0  0  0
   15.2230  -21.9329   20.5461 N   0  0  0  0  0  0  0  0  0  0  0  0
   12.0573  -18.9235   25.8315 C   0  0  0  0  0  0  0  0  0  0  0  0
   12.2522  -20.2270   26.3059 O   0  0  0  0  0  0  0  0  0  0  0  0
   12.2789  -18.0116   26.6875 O   0  0  0  0  0  0  0  0  0  0  0  0
  2  1  1  0
  3  2  1  0
  3  4  1  6
  5  6  1  1
  5  7  1  0
  5  3  1  0
  7  9  1  0
  8  7  2  0
  9 10  1  0
 10 11  1  1
 11 12  1  0
 13 15  1  0
 13 10  1  0
 14 13  2  0
 16 22  1  0
 16 15  1  0
 16 17  1  6
 18 17  1  0
 19 18  1  0
 20 19  1  0
 21 20  1  0
 22 23  1  0
 24 22  2  0
M  END
$$$$
