ICK.pdb
     RDKit          3D

 24 23  0  0  1  0  0  0  0  0999 V2000
    7.2192  -16.5253   17.8701 C   0  0  0  0  0  0  0  0  0  0  0  0
    7.0190  -15.2051   18.5634 C   0  0  0  0  0  0  0  0  0  0  0  0
    7.5223  -15.2051   19.9739 C   0  0  2  0  0  0  0  0  0  0  0  0
    6.9737  -16.3926   20.6981 C   0  0  0  0  0  0  0  0  0  0  0  0
    7.2708  -13.8974   20.6844 C   0  0  2  0  0  0  0  0  0  0  0  0
    7.9477  -12.8567   19.9361 N   0  0  0  0  0  0  0  0  0  0  0  0
    7.9409  -13.9951   22.0256 C   0  0  0  0  0  0  0  0  0  0  0  0
    9.1946  -14.0324   22.1338 O   0  0  0  0  0  0  0  0  0  0  0  0
    7.1868  -14.0497   23.2310 N   0  0  0  0  0  0  0  0  0  0  0  0
    7.8426  -14.1012   24.5437 C   0  0  1  0  0  0  0  0  0  0  0  0
    6.7802  -13.7020   25.5594 C   0  0  0  0  0  0  0  0  0  0  0  0
    6.3912  -11.9518   25.3473 S   0  0  0  0  0  0  0  0  0  0  0  0
    8.2622  -15.4791   24.8235 C   0  0  0  0  0  0  0  0  0  0  0  0
    7.4245  -16.4135   24.6364 O   0  0  0  0  0  0  0  0  0  0  0  0
    9.5486  -15.8192   25.2898 N   0  0  0  0  0  0  0  0  0  0  0  0
    9.9772  -17.1906   25.4995 C   0  0  1  0  0  0  0  0  0  0  0  0
   11.2863  -17.4550   24.8082 C   0  0  0  0  0  0  0  0  0  0  0  0
   11.8545  -18.7998   25.0864 C   0  0  0  0  0  0  0  0  0  0  0  0
   12.0533  -19.6303   23.8544 C   0  0  0  0  0  0  0  0  0  0  0  0
   12.6288  -20.9701   24.2047 C   0  0  0  0  0  0  0  0  0  0  0  0
   12.8329  -21.8211   23.0670 N   0  0  0  0  0  0  0  0  0  0  0  0
   10.0649  -17.3920   26.9665 C   0  0  0  0  0  0  0  0  0  0  0  0
    9.9407  -18.6526   27.5647 O   0  0  0  0  0  0  0  0  0  0  0  0
   10.2584  -16.4375   27.7819 O   0  0  0  0  0  0  0  0  0  0  0  0
  2  1  1  0
  3  2  1  0
  3  4  1  1
  5  6  1  6
  5  7  1  0
  5  3  1  0
  7  9  1  0
  8  7  2  0
  9 10  1  0
 10 11  1  1
 11 12  1  0
 13 15  1  0
 13 10  1  0
 14 13  2  0
 16 22  1  0
 16 15  1  0
 16 17  1  6
 18 17  1  0
 19 18  1  0
 20 19  1  0
 21 20  1  0
 22 23  1  0
 24 22  2  0
M  END
$$$$
