ICK.pdb
     RDKit          3D

 24 23  0  0  1  0  0  0  0  0999 V2000
    7.4173  -11.1962   25.9641 C   0  0  0  0  0  0  0  0  0  0  0  0
    7.5509  -12.6932   25.8970 C   0  0  0  0  0  0  0  0  0  0  0  0
    6.2298  -13.3932   25.8103 C   0  0  2  0  0  0  0  0  0  0  0  0
    5.3719  -12.9818   26.9638 C   0  0  0  0  0  0  0  0  0  0  0  0
    6.3691  -14.8892   25.6670 C   0  0  2  0  0  0  0  0  0  0  0  0
    7.4241  -15.3174   26.5641 N   0  0  0  0  0  0  0  0  0  0  0  0
    6.8390  -15.1498   24.2637 C   0  0  0  0  0  0  0  0  0  0  0  0
    6.0428  -15.1301   23.2888 O   0  0  0  0  0  0  0  0  0  0  0  0
    8.2042  -15.4300   23.9771 N   0  0  0  0  0  0  0  0  0  0  0  0
    8.6727  -15.6307   22.6001 C   0  0  1  0  0  0  0  0  0  0  0  0
    8.4968  -14.2908   21.8977 C   0  0  0  0  0  0  0  0  0  0  0  0
    8.9485  -14.4737   20.1593 S   0  0  0  0  0  0  0  0  0  0  0  0
   10.1012  -15.9653   22.6168 C   0  0  0  0  0  0  0  0  0  0  0  0
   10.8838  -15.2321   23.2950 O   0  0  0  0  0  0  0  0  0  0  0  0
   10.6501  -17.0600   21.9179 N   0  0  0  0  0  0  0  0  0  0  0  0
   11.8921  -17.7043   22.3065 C   0  0  1  0  0  0  0  0  0  0  0  0
   11.8107  -19.1922   22.1035 C   0  0  0  0  0  0  0  0  0  0  0  0
   12.1956  -19.9860   23.2994 C   0  0  0  0  0  0  0  0  0  0  0  0
   11.0263  -20.4115   24.1352 C   0  0  0  0  0  0  0  0  0  0  0  0
   11.4897  -21.0444   25.4134 C   0  0  0  0  0  0  0  0  0  0  0  0
   10.4161  -21.4214   26.2882 N   0  0  0  0  0  0  0  0  0  0  0  0
   12.9680  -17.0840   21.4953 C   0  0  0  0  0  0  0  0  0  0  0  0
   13.1795  -17.4055   20.1484 O   0  0  0  0  0  0  0  0  0  0  0  0
   13.7717  -16.2192   21.9641 O   0  0  0  0  0  0  0  0  0  0  0  0
  2  1  1  0
  3  2  1  0
  3  4  1  1
  5  6  1  1
  5  7  1  0
  5  3  1  0
  7  9  1  0
  8  7  2  0
  9 10  1  0
 10 11  1  6
 11 12  1  0
 13 15  1  0
 13 10  1  0
 14 13  2  0
 16 22  1  0
 16 15  1  0
 16 17  1  6
 18 17  1  0
 19 18  1  0
 20 19  1  0
 21 20  1  0
 22 23  1  0
 24 22  2  0
M  END
$$$$
