ICK.pdb
     RDKit          3D

 24 23  0  0  1  0  0  0  0  0999 V2000
    8.0109  -16.8451   17.8425 C   0  0  0  0  0  0  0  0  0  0  0  0
    7.6464  -15.4544   18.2859 C   0  0  0  0  0  0  0  0  0  0  0  0
    7.9602  -15.2013   19.7283 C   0  0  2  0  0  0  0  0  0  0  0  0
    7.3809  -16.2979   20.5635 C   0  0  0  0  0  0  0  0  0  0  0  0
    7.5534  -13.8202   20.1814 C   0  0  2  0  0  0  0  0  0  0  0  0
    8.2855  -12.8631   19.3756 N   0  0  0  0  0  0  0  0  0  0  0  0
    8.0278  -13.6703   21.5992 C   0  0  0  0  0  0  0  0  0  0  0  0
    9.2515  -13.5677   21.8764 O   0  0  0  0  0  0  0  0  0  0  0  0
    7.1137  -13.6380   22.6892 N   0  0  0  0  0  0  0  0  0  0  0  0
    7.5781  -13.4967   24.0749 C   0  0  1  0  0  0  0  0  0  0  0  0
    6.3720  -13.0232   24.8754 C   0  0  0  0  0  0  0  0  0  0  0  0
    6.8567  -12.8138   26.6019 S   0  0  0  0  0  0  0  0  0  0  0  0
    7.9915  -14.8089   24.5850 C   0  0  0  0  0  0  0  0  0  0  0  0
    7.1799  -15.7786   24.4808 O   0  0  0  0  0  0  0  0  0  0  0  0
    9.2445  -15.0486   25.1854 N   0  0  0  0  0  0  0  0  0  0  0  0
    9.4560  -16.0724   26.1932 C   0  0  1  0  0  0  0  0  0  0  0  0
    8.3879  -16.0133   27.2503 C   0  0  0  0  0  0  0  0  0  0  0  0
    8.8696  -16.3542   28.6141 C   0  0  0  0  0  0  0  0  0  0  0  0
   10.0044  -15.4923   29.0793 C   0  0  0  0  0  0  0  0  0  0  0  0
   10.5484  -15.9903   30.3851 C   0  0  0  0  0  0  0  0  0  0  0  0
   11.7057  -15.2705   30.8354 N   0  0  0  0  0  0  0  0  0  0  0  0
    9.4732  -17.3747   25.4831 C   0  0  0  0  0  0  0  0  0  0  0  0
    9.8622  -18.5686   26.1040 O   0  0  0  0  0  0  0  0  0  0  0  0
    9.1370  -17.4987   24.2645 O   0  0  0  0  0  0  0  0  0  0  0  0
  2  1  1  0
  3  2  1  0
  3  4  1  1
  5  6  1  6
  5  7  1  0
  5  3  1  0
  7  9  1  0
  8  7  2  0
  9 10  1  0
 10 11  1  1
 11 12  1  0
 13 15  1  0
 13 10  1  0
 14 13  2  0
 16 22  1  0
 16 15  1  0
 16 17  1  1
 18 17  1  0
 19 18  1  0
 20 19  1  0
 21 20  1  0
 22 23  1  0
 24 22  2  0
M  END
$$$$
