ICK.pdb
     RDKit          3D

 24 23  0  0  1  0  0  0  0  0999 V2000
    5.6416  -11.2866   27.0147 C   0  0  0  0  0  0  0  0  0  0  0  0
    6.3461  -12.4500   27.6579 C   0  0  0  0  0  0  0  0  0  0  0  0
    7.0312  -13.3378   26.6653 C   0  0  2  0  0  0  0  0  0  0  0  0
    8.1811  -12.6046   26.0522 C   0  0  0  0  0  0  0  0  0  0  0  0
    6.0800  -13.9229   25.6500 C   0  0  2  0  0  0  0  0  0  0  0  0
    5.1743  -14.8058   26.3583 N   0  0  0  0  0  0  0  0  0  0  0  0
    6.9022  -14.7723   24.7225 C   0  0  0  0  0  0  0  0  0  0  0  0
    7.3469  -15.8949   25.0786 O   0  0  0  0  0  0  0  0  0  0  0  0
    7.2133  -14.3438   23.4018 N   0  0  0  0  0  0  0  0  0  0  0  0
    7.9307  -15.2147   22.4625 C   0  0  1  0  0  0  0  0  0  0  0  0
    8.0208  -14.4381   21.1554 C   0  0  0  0  0  0  0  0  0  0  0  0
    8.8168  -15.4738   19.9090 S   0  0  0  0  0  0  0  0  0  0  0  0
    9.2907  -15.4506   22.9604 C   0  0  0  0  0  0  0  0  0  0  0  0
    9.9776  -14.4509   23.3327 O   0  0  0  0  0  0  0  0  0  0  0  0
    9.8744  -16.7311   23.0468 N   0  0  0  0  0  0  0  0  0  0  0  0
   11.2597  -16.9452   23.4258 C   0  0  1  0  0  0  0  0  0  0  0  0
   11.4338  -18.2842   24.0880 C   0  0  0  0  0  0  0  0  0  0  0  0
   11.6054  -18.2102   25.5623 C   0  0  0  0  0  0  0  0  0  0  0  0
   10.7369  -19.1738   26.3135 C   0  0  0  0  0  0  0  0  0  0  0  0
   11.0186  -19.1062   27.7849 C   0  0  0  0  0  0  0  0  0  0  0  0
   10.1749  -19.9622   28.5697 N   0  0  0  0  0  0  0  0  0  0  0  0
   12.0663  -16.8211   22.1871 C   0  0  0  0  0  0  0  0  0  0  0  0
   13.3368  -16.2315   22.1689 O   0  0  0  0  0  0  0  0  0  0  0  0
   11.6625  -17.2400   21.0580 O   0  0  0  0  0  0  0  0  0  0  0  0
  2  1  1  0
  3  2  1  0
  3  4  1  6
  5  6  1  1
  5  7  1  0
  5  3  1  0
  7  9  1  0
  8  7  2  0
  9 10  1  0
 10 11  1  6
 11 12  1  0
 13 15  1  0
 13 10  1  0
 14 13  2  0
 16 22  1  0
 16 15  1  0
 16 17  1  6
 18 17  1  0
 19 18  1  0
 20 19  1  0
 21 20  1  0
 22 23  1  0
 24 22  2  0
M  END
$$$$
