ICK.pdb
     RDKit          3D

 24 23  0  0  1  0  0  0  0  0999 V2000
    7.1254  -12.5303   19.6511 C   0  0  0  0  0  0  0  0  0  0  0  0
    6.8443  -13.7490   20.4872 C   0  0  0  0  0  0  0  0  0  0  0  0
    8.0218  -14.1778   21.3073 C   0  0  2  0  0  0  0  0  0  0  0  0
    9.2043  -14.3771   20.4141 C   0  0  0  0  0  0  0  0  0  0  0  0
    7.7212  -15.3695   22.1834 C   0  0  2  0  0  0  0  0  0  0  0  0
    6.3941  -15.1818   22.7356 N   0  0  0  0  0  0  0  0  0  0  0  0
    8.6945  -15.3249   23.3273 C   0  0  0  0  0  0  0  0  0  0  0  0
    9.9110  -15.0562   23.1463 O   0  0  0  0  0  0  0  0  0  0  0  0
    8.2825  -15.5845   24.6643 N   0  0  0  0  0  0  0  0  0  0  0  0
    9.2249  -15.4993   25.7869 C   0  0  1  0  0  0  0  0  0  0  0  0
    8.5369  -14.6517   26.8489 C   0  0  0  0  0  0  0  0  0  0  0  0
    8.5604  -12.9230   26.3284 S   0  0  0  0  0  0  0  0  0  0  0  0
    9.4508  -16.8417   26.3347 C   0  0  0  0  0  0  0  0  0  0  0  0
    8.4400  -17.5514   26.6256 O   0  0  0  0  0  0  0  0  0  0  0  0
   10.7333  -17.3845   26.5548 N   0  0  0  0  0  0  0  0  0  0  0  0
   10.9475  -18.7325   27.0503 C   0  0  1  0  0  0  0  0  0  0  0  0
   12.2546  -19.2855   26.5528 C   0  0  0  0  0  0  0  0  0  0  0  0
   12.2638  -19.5965   25.0996 C   0  0  0  0  0  0  0  0  0  0  0  0
   13.6156  -19.9844   24.5808 C   0  0  0  0  0  0  0  0  0  0  0  0
   13.5604  -20.2570   23.1071 C   0  0  0  0  0  0  0  0  0  0  0  0
   14.8428  -20.5411   22.5286 N   0  0  0  0  0  0  0  0  0  0  0  0
   10.8957  -18.6575   28.5309 C   0  0  0  0  0  0  0  0  0  0  0  0
   10.6837  -19.7830   29.3374 O   0  0  0  0  0  0  0  0  0  0  0  0
   11.0395  -17.5694   29.1704 O   0  0  0  0  0  0  0  0  0  0  0  0
  2  1  1  0
  3  2  1  0
  3  4  1  6
  5  6  1  1
  5  7  1  0
  5  3  1  0
  7  9  1  0
  8  7  2  0
  9 10  1  0
 10 11  1  1
 11 12  1  0
 13 15  1  0
 13 10  1  0
 14 13  2  0
 16 22  1  0
 16 15  1  0
 16 17  1  1
 18 17  1  0
 19 18  1  0
 20 19  1  0
 21 20  1  0
 22 23  1  0
 24 22  2  0
M  END
$$$$
