ICK.pdb
     RDKit          3D

 24 23  0  0  1  0  0  0  0  0999 V2000
    6.9695  -12.2217   19.8820 C   0  0  0  0  0  0  0  0  0  0  0  0
    7.5591  -13.1992   18.9021 C   0  0  0  0  0  0  0  0  0  0  0  0
    8.5142  -14.1601   19.5403 C   0  0  2  0  0  0  0  0  0  0  0  0
    9.5496  -13.3989   20.3048 C   0  0  0  0  0  0  0  0  0  0  0  0
    9.0959  -15.1463   18.5568 C   0  0  2  0  0  0  0  0  0  0  0  0
    7.9897  -15.7668   17.8547 N   0  0  0  0  0  0  0  0  0  0  0  0
    9.7735  -16.2173   19.3639 C   0  0  0  0  0  0  0  0  0  0  0  0
    9.3782  -17.4122   19.3354 O   0  0  0  0  0  0  0  0  0  0  0  0
   10.8911  -15.9265   20.1951 N   0  0  0  0  0  0  0  0  0  0  0  0
   11.9010  -16.9459   20.5060 C   0  0  1  0  0  0  0  0  0  0  0  0
   12.5907  -17.2692   19.1871 C   0  0  0  0  0  0  0  0  0  0  0  0
   13.7753  -18.6053   19.4544 S   0  0  0  0  0  0  0  0  0  0  0  0
   12.8942  -16.3811   21.4265 C   0  0  0  0  0  0  0  0  0  0  0  0
   13.5091  -15.3277   21.0768 O   0  0  0  0  0  0  0  0  0  0  0  0
   13.2014  -16.9482   22.6803 N   0  0  0  0  0  0  0  0  0  0  0  0
   14.1966  -16.3904   23.5786 C   0  0  1  0  0  0  0  0  0  0  0  0
   14.1549  -17.0750   24.9170 C   0  0  0  0  0  0  0  0  0  0  0  0
   12.8043  -17.5575   25.3058 C   0  0  0  0  0  0  0  0  0  0  0  0
   12.7546  -18.1470   26.6832 C   0  0  0  0  0  0  0  0  0  0  0  0
   11.3484  -18.5144   27.0529 C   0  0  0  0  0  0  0  0  0  0  0  0
   11.2421  -19.1609   28.3300 N   0  0  0  0  0  0  0  0  0  0  0  0
   15.5113  -16.5438   22.9090 C   0  0  0  0  0  0  0  0  0  0  0  0
   16.6222  -15.7556   23.2359 O   0  0  0  0  0  0  0  0  0  0  0  0
   15.7220  -17.3991   21.9937 O   0  0  0  0  0  0  0  0  0  0  0  0
  2  1  1  0
  3  2  1  0
  3  4  1  6
  5  6  1  1
  5  7  1  0
  5  3  1  0
  7  9  1  0
  8  7  2  0
  9 10  1  0
 10 11  1  6
 11 12  1  0
 13 15  1  0
 13 10  1  0
 14 13  2  0
 16 22  1  0
 16 15  1  0
 16 17  1  1
 18 17  1  0
 19 18  1  0
 20 19  1  0
 21 20  1  0
 22 23  1  0
 24 22  2  0
M  END
$$$$
