ICK.pdb
     RDKit          3D

 24 23  0  0  1  0  0  0  0  0999 V2000
    7.0523  -16.1966   18.4377 C   0  0  0  0  0  0  0  0  0  0  0  0
    6.8350  -14.8863   19.1444 C   0  0  0  0  0  0  0  0  0  0  0  0
    7.4348  -14.8572   20.5163 C   0  0  2  0  0  0  0  0  0  0  0  0
    6.9562  -16.0412   21.2939 C   0  0  0  0  0  0  0  0  0  0  0  0
    7.2129  -13.5425   21.2236 C   0  0  2  0  0  0  0  0  0  0  0  0
    7.7683  -12.4973   20.3868 N   0  0  0  0  0  0  0  0  0  0  0  0
    8.0249  -13.5858   22.4871 C   0  0  0  0  0  0  0  0  0  0  0  0
    9.2766  -13.4518   22.4700 O   0  0  0  0  0  0  0  0  0  0  0  0
    7.4136  -13.7802   23.7572 N   0  0  0  0  0  0  0  0  0  0  0  0
    8.2120  -13.8731   24.9859 C   0  0  1  0  0  0  0  0  0  0  0  0
    7.4267  -13.1236   26.0542 C   0  0  0  0  0  0  0  0  0  0  0  0
    5.6641  -13.4328   25.8146 S   0  0  0  0  0  0  0  0  0  0  0  0
    8.3228  -15.2798   25.3882 C   0  0  0  0  0  0  0  0  0  0  0  0
    7.2633  -15.9759   25.4427 O   0  0  0  0  0  0  0  0  0  0  0  0
    9.5459  -15.8989   25.7177 N   0  0  0  0  0  0  0  0  0  0  0  0
    9.6471  -17.2944   26.1058 C   0  0  1  0  0  0  0  0  0  0  0  0
   10.7040  -17.9997   25.3013 C   0  0  0  0  0  0  0  0  0  0  0  0
   10.2246  -19.2331   24.6252 C   0  0  0  0  0  0  0  0  0  0  0  0
   10.1344  -19.1004   23.1348 C   0  0  0  0  0  0  0  0  0  0  0  0
    9.4891  -20.3125   22.5320 C   0  0  0  0  0  0  0  0  0  0  0  0
    9.2431  -20.1898   21.1232 N   0  0  0  0  0  0  0  0  0  0  0  0
    9.9404  -17.3140   27.5598 C   0  0  0  0  0  0  0  0  0  0  0  0
    9.7873  -18.4633   28.3459 O   0  0  0  0  0  0  0  0  0  0  0  0
   10.3501  -16.2921   28.1931 O   0  0  0  0  0  0  0  0  0  0  0  0
  2  1  1  0
  3  2  1  0
  3  4  1  1
  5  6  1  6
  5  7  1  0
  5  3  1  0
  7  9  1  0
  8  7  2  0
  9 10  1  0
 10 11  1  1
 11 12  1  0
 13 15  1  0
 13 10  1  0
 14 13  2  0
 16 22  1  0
 16 15  1  0
 16 17  1  6
 18 17  1  0
 19 18  1  0
 20 19  1  0
 21 20  1  0
 22 23  1  0
 24 22  2  0
M  END
$$$$
