ICK.pdb
     RDKit          3D

 24 23  0  0  1  0  0  0  0  0999 V2000
    6.7327  -12.1170   27.8978 C   0  0  0  0  0  0  0  0  0  0  0  0
    6.0513  -13.0656   26.9494 C   0  0  0  0  0  0  0  0  0  0  0  0
    7.0162  -13.8364   26.1022 C   0  0  2  0  0  0  0  0  0  0  0  0
    7.9839  -12.8914   25.4648 C   0  0  0  0  0  0  0  0  0  0  0  0
    6.3287  -14.7499   25.1169 C   0  0  2  0  0  0  0  0  0  0  0  0
    5.5493  -15.7060   25.8783 N   0  0  0  0  0  0  0  0  0  0  0  0
    7.4091  -15.5151   24.4062 C   0  0  0  0  0  0  0  0  0  0  0  0
    7.9887  -16.4924   24.9481 O   0  0  0  0  0  0  0  0  0  0  0  0
    7.8230  -15.1674   23.0900 N   0  0  0  0  0  0  0  0  0  0  0  0
    8.8101  -15.9722   22.3593 C   0  0  1  0  0  0  0  0  0  0  0  0
    8.8671  -15.3907   20.9528 C   0  0  0  0  0  0  0  0  0  0  0  0
    7.3385  -15.8008   20.0839 S   0  0  0  0  0  0  0  0  0  0  0  0
   10.1274  -15.8112   22.9851 C   0  0  0  0  0  0  0  0  0  0  0  0
   10.5975  -14.6389   23.1062 O   0  0  0  0  0  0  0  0  0  0  0  0
   10.8987  -16.8920   23.4593 N   0  0  0  0  0  0  0  0  0  0  0  0
   12.2457  -16.7352   23.9784 C   0  0  1  0  0  0  0  0  0  0  0  0
   12.5741  -17.8287   24.9573 C   0  0  0  0  0  0  0  0  0  0  0  0
   11.8183  -17.7424   26.2339 C   0  0  0  0  0  0  0  0  0  0  0  0
   12.0805  -18.8903   27.1616 C   0  0  0  0  0  0  0  0  0  0  0  0
   11.3800  -18.6847   28.4715 C   0  0  0  0  0  0  0  0  0  0  0  0
   11.6571  -19.7105   29.4366 N   0  0  0  0  0  0  0  0  0  0  0  0
   13.1578  -16.7349   22.8085 C   0  0  0  0  0  0  0  0  0  0  0  0
   12.8132  -17.3169   21.5818 O   0  0  0  0  0  0  0  0  0  0  0  0
   14.3131  -16.2079   22.8367 O   0  0  0  0  0  0  0  0  0  0  0  0
  2  1  1  0
  3  2  1  0
  3  4  1  6
  5  6  1  1
  5  7  1  0
  5  3  1  0
  7  9  1  0
  8  7  2  0
  9 10  1  0
 10 11  1  6
 11 12  1  0
 13 15  1  0
 13 10  1  0
 14 13  2  0
 16 22  1  0
 16 15  1  0
 16 17  1  1
 18 17  1  0
 19 18  1  0
 20 19  1  0
 21 20  1  0
 22 23  1  0
 24 22  2  0
M  END
$$$$
