ICK.pdb
     RDKit          3D

 24 23  0  0  1  0  0  0  0  0999 V2000
    6.5200  -12.0861   27.6026 C   0  0  0  0  0  0  0  0  0  0  0  0
    5.8951  -13.0605   26.6416 C   0  0  0  0  0  0  0  0  0  0  0  0
    6.9076  -13.8625   25.8837 C   0  0  2  0  0  0  0  0  0  0  0  0
    7.8970  -12.9404   25.2462 C   0  0  0  0  0  0  0  0  0  0  0  0
    6.2778  -14.8332   24.9145 C   0  0  2  0  0  0  0  0  0  0  0  0
    5.4652  -15.7539   25.6847 N   0  0  0  0  0  0  0  0  0  0  0  0
    7.3983  -15.6259   24.3030 C   0  0  0  0  0  0  0  0  0  0  0  0
    7.8836  -16.6334   24.8810 O   0  0  0  0  0  0  0  0  0  0  0  0
    7.9587  -15.2713   23.0441 N   0  0  0  0  0  0  0  0  0  0  0  0
    8.9461  -16.1283   22.3760 C   0  0  1  0  0  0  0  0  0  0  0  0
    8.9846  -15.6707   20.9238 C   0  0  0  0  0  0  0  0  0  0  0  0
    7.4203  -16.0985   20.1303 S   0  0  0  0  0  0  0  0  0  0  0  0
   10.2678  -15.9026   22.9720 C   0  0  0  0  0  0  0  0  0  0  0  0
   10.7280  -14.7202   22.9867 O   0  0  0  0  0  0  0  0  0  0  0  0
   11.0537  -16.9318   23.5297 N   0  0  0  0  0  0  0  0  0  0  0  0
   12.4227  -16.7314   23.9706 C   0  0  1  0  0  0  0  0  0  0  0  0
   12.8441  -17.8171   24.9221 C   0  0  0  0  0  0  0  0  0  0  0  0
   12.1544  -17.7675   26.2375 C   0  0  0  0  0  0  0  0  0  0  0  0
   11.4604  -19.0469   26.5962 C   0  0  0  0  0  0  0  0  0  0  0  0
   10.7121  -18.9008   27.8876 C   0  0  0  0  0  0  0  0  0  0  0  0
   10.1235  -20.1253   28.3504 N   0  0  0  0  0  0  0  0  0  0  0  0
   13.2645  -16.6955   22.7497 C   0  0  0  0  0  0  0  0  0  0  0  0
   12.8255  -17.1896   21.5146 O   0  0  0  0  0  0  0  0  0  0  0  0
   14.4403  -16.2151   22.7383 O   0  0  0  0  0  0  0  0  0  0  0  0
  2  1  1  0
  3  2  1  0
  3  4  1  6
  5  6  1  1
  5  7  1  0
  5  3  1  0
  7  9  1  0
  8  7  2  0
  9 10  1  0
 10 11  1  6
 11 12  1  0
 13 15  1  0
 13 10  1  0
 14 13  2  0
 16 22  1  0
 16 15  1  0
 16 17  1  1
 18 17  1  0
 19 18  1  0
 20 19  1  0
 21 20  1  0
 22 23  1  0
 24 22  2  0
M  END
$$$$
