HLE.pdb
     RDKit          3D

 28 28  0  0  1  0  0  0  0  0999 V2000
   28.9409  -14.4658  -18.3831 N   0  0  0  0  0  0  0  0  0  0  0  0
   27.5857  -14.0640  -18.7083 C   0  0  1  0  0  0  0  0  0  0  0  0
   26.6874  -15.2417  -18.5632 C   0  0  0  0  0  0  0  0  0  0  0  0
   27.1046  -16.2704  -19.5511 C   0  0  0  0  0  0  0  0  0  0  0  0
   27.4414  -17.6062  -19.3426 C   0  0  0  0  0  0  0  0  0  0  0  0
   27.7638  -18.2016  -20.4868 N   0  0  0  0  0  0  0  0  0  0  0  0
   27.6424  -17.2715  -21.4451 C   0  0  0  0  0  0  0  0  0  0  0  0
   27.2469  -16.1055  -20.8971 N   0  0  0  0  0  0  0  0  0  0  0  0
   27.2275  -12.9365  -17.8108 C   0  0  0  0  0  0  0  0  0  0  0  0
   27.1002  -13.1119  -16.5618 O   0  0  0  0  0  0  0  0  0  0  0  0
   29.6621   -8.6067  -18.1364 C   0  0  0  0  0  0  0  0  0  0  0  0
   29.1448   -9.9059  -17.5691 C   0  0  1  0  0  0  0  0  0  0  0  0
   30.2160  -10.3666  -16.5692 C   0  0  0  0  0  0  0  0  0  0  0  0
   27.8403   -9.7732  -16.8807 C   0  0  0  0  0  0  0  0  0  0  0  0
   26.6783  -10.4778  -17.4493 C   0  0  2  0  0  0  0  0  0  0  0  0
   27.0069  -11.6140  -18.2800 N   0  0  0  0  0  0  0  0  0  0  0  0
   25.6228   -9.6423  -18.0368 C   0  0  0  0  0  0  0  0  0  0  0  0
   25.2064   -8.6632  -17.3641 O   0  0  0  0  0  0  0  0  0  0  0  0
   25.0400   -9.8551  -19.3140 N   0  0  0  0  0  0  0  0  0  0  0  0
   23.6136   -9.9331  -19.4957 C   0  0  1  0  0  0  0  0  0  0  0  0
   23.1758  -10.6857  -20.7129 C   0  0  0  0  0  0  0  0  0  0  0  0
   21.7504  -10.6802  -21.0667 C   0  0  0  0  0  0  0  0  0  0  0  0
   21.3007  -11.4547  -22.2118 C   0  0  0  0  0  0  0  0  0  0  0  0
   20.6934  -12.5468  -22.1706 O   0  0  0  0  0  0  0  0  0  0  0  0
   22.8941  -10.4280  -18.2809 C   0  0  0  0  0  0  0  0  0  0  0  0
   22.9836  -11.6192  -17.9486 O   0  0  0  0  0  0  0  0  0  0  0  0
   21.5924  -10.8938  -23.4799 O   0  0  0  0  0  0  0  0  0  0  0  0
   22.1308   -9.5632  -17.5287 O   0  0  0  0  0  0  0  0  0  0  0  0
  2  1  1  1
  3  4  1  0
  3  2  1  0
  4  8  1  0
  5  4  2  0
  5  6  1  0
  6  7  1  0
  8  7  2  0
  9  2  1  0
  9 16  1  0
 10  9  2  0
 12 13  1  1
 12 11  1  0
 15 14  1  6
 14 12  1  0
 15 16  1  0
 17 15  1  0
 18 17  2  0
 19 17  1  0
 20 25  1  0
 20 19  1  0
 20 21  1  6
 22 21  1  0
 23 22  1  0
 24 23  2  0
 25 28  1  0
 26 25  2  0
 27 23  1  0
M  END
$$$$
