HLE.pdb
     RDKit          3D

 28 28  0  0  1  0  0  0  0  0999 V2000
   28.4404  -20.7246  -17.0105 N   0  0  0  0  0  0  0  0  0  0  0  0
   28.1692  -19.7061  -16.0139 C   0  0  1  0  0  0  0  0  0  0  0  0
   27.1592  -18.7582  -16.5581 C   0  0  0  0  0  0  0  0  0  0  0  0
   27.8228  -17.9051  -17.5780 C   0  0  0  0  0  0  0  0  0  0  0  0
   29.1608  -17.8753  -17.9655 C   0  0  0  0  0  0  0  0  0  0  0  0
   29.3629  -16.9661  -18.9143 N   0  0  0  0  0  0  0  0  0  0  0  0
   28.1723  -16.3981  -19.1544 C   0  0  0  0  0  0  0  0  0  0  0  0
   27.2370  -16.9527  -18.3582 N   0  0  0  0  0  0  0  0  0  0  0  0
   27.7211  -20.3988  -14.7792 C   0  0  0  0  0  0  0  0  0  0  0  0
   26.8501  -21.3186  -14.8266 O   0  0  0  0  0  0  0  0  0  0  0  0
   31.0998  -20.8648  -10.3725 C   0  0  0  0  0  0  0  0  0  0  0  0
   30.0943  -21.1626  -11.4576 C   0  0  1  0  0  0  0  0  0  0  0  0
   30.0733  -22.6935  -11.5816 C   0  0  0  0  0  0  0  0  0  0  0  0
   28.7325  -20.6653  -11.1552 C   0  0  0  0  0  0  0  0  0  0  0  0
   27.7424  -20.6405  -12.2456 C   0  0  2  0  0  0  0  0  0  0  0  0
   28.2257  -20.0843  -13.4891 N   0  0  0  0  0  0  0  0  0  0  0  0
   26.3968  -20.1609  -11.9042 C   0  0  0  0  0  0  0  0  0  0  0  0
   26.0756  -19.0012  -12.2738 O   0  0  0  0  0  0  0  0  0  0  0  0
   25.4268  -20.9135  -11.1909 N   0  0  0  0  0  0  0  0  0  0  0  0
   24.0182  -20.6343  -11.2976 C   0  0  1  0  0  0  0  0  0  0  0  0
   23.3908  -21.0540  -12.5899 C   0  0  0  0  0  0  0  0  0  0  0  0
   21.9510  -20.8322  -12.7758 C   0  0  0  0  0  0  0  0  0  0  0  0
   21.5055  -19.7972  -13.6944 C   0  0  0  0  0  0  0  0  0  0  0  0
   21.8080  -19.7050  -14.9040 O   0  0  0  0  0  0  0  0  0  0  0  0
   23.2290  -21.1486  -10.1352 C   0  0  0  0  0  0  0  0  0  0  0  0
   23.7731  -21.8695   -9.2857 O   0  0  0  0  0  0  0  0  0  0  0  0
   20.6493  -18.8150  -13.1376 O   0  0  0  0  0  0  0  0  0  0  0  0
   21.8972  -20.8234  -10.0052 O   0  0  0  0  0  0  0  0  0  0  0  0
  2  1  1  6
  3  4  1  0
  3  2  1  0
  4  8  1  0
  5  4  2  0
  5  6  1  0
  6  7  1  0
  8  7  2  0
  9  2  1  0
  9 16  1  0
 10  9  2  0
 12 13  1  1
 12 11  1  0
 15 14  1  1
 14 12  1  0
 15 16  1  0
 17 15  1  0
 18 17  2  0
 19 17  1  0
 20 25  1  0
 20 19  1  0
 20 21  1  6
 22 21  1  0
 23 22  1  0
 24 23  2  0
 25 28  1  0
 26 25  2  0
 27 23  1  0
M  END
$$$$
