HLE.pdb
     RDKit          3D

 28 28  0  0  1  0  0  0  0  0999 V2000
   27.1508  -21.4668  -16.2022 N   0  0  0  0  0  0  0  0  0  0  0  0
   26.7157  -20.4879  -15.2242 C   0  0  1  0  0  0  0  0  0  0  0  0
   26.0974  -19.3377  -15.9381 C   0  0  0  0  0  0  0  0  0  0  0  0
   27.1555  -18.6566  -16.7286 C   0  0  0  0  0  0  0  0  0  0  0  0
   28.5187  -18.9357  -16.7999 C   0  0  0  0  0  0  0  0  0  0  0  0
   29.1361  -18.0935  -17.6226 N   0  0  0  0  0  0  0  0  0  0  0  0
   28.1935  -17.2639  -18.0929 C   0  0  0  0  0  0  0  0  0  0  0  0
   26.9978  -17.5906  -17.5639 N   0  0  0  0  0  0  0  0  0  0  0  0
   25.7836  -21.1723  -14.2927 C   0  0  0  0  0  0  0  0  0  0  0  0
   25.2159  -22.2580  -14.6183 O   0  0  0  0  0  0  0  0  0  0  0  0
   25.5711  -20.2628   -8.6714 C   0  0  0  0  0  0  0  0  0  0  0  0
   25.9956  -20.5549  -10.0897 C   0  0  1  0  0  0  0  0  0  0  0  0
   27.4564  -21.0189   -9.9881 C   0  0  0  0  0  0  0  0  0  0  0  0
   25.1813  -21.6026  -10.7473 C   0  0  0  0  0  0  0  0  0  0  0  0
   24.5769  -21.2958  -12.0552 C   0  0  2  0  0  0  0  0  0  0  0  0
   25.4704  -20.6680  -13.0022 N   0  0  0  0  0  0  0  0  0  0  0  0
   23.2496  -20.6672  -12.0375 C   0  0  0  0  0  0  0  0  0  0  0  0
   22.3576  -21.1990  -11.3261 O   0  0  0  0  0  0  0  0  0  0  0  0
   22.8993  -19.4970  -12.7615 N   0  0  0  0  0  0  0  0  0  0  0  0
   21.6757  -19.4067  -13.5153 C   0  0  1  0  0  0  0  0  0  0  0  0
   21.8407  -18.9363  -14.9265 C   0  0  0  0  0  0  0  0  0  0  0  0
   20.6502  -18.8531  -15.7824 C   0  0  0  0  0  0  0  0  0  0  0  0
   20.7899  -18.3717  -17.1470 C   0  0  0  0  0  0  0  0  0  0  0  0
   21.3978  -18.9499  -18.0741 O   0  0  0  0  0  0  0  0  0  0  0  0
   20.8642  -20.6628  -13.4683 C   0  0  0  0  0  0  0  0  0  0  0  0
   21.3376  -21.7242  -13.9004 O   0  0  0  0  0  0  0  0  0  0  0  0
   20.1682  -17.1285  -17.4218 O   0  0  0  0  0  0  0  0  0  0  0  0
   19.5903  -20.6441  -12.9456 O   0  0  0  0  0  0  0  0  0  0  0  0
  2  1  1  6
  3  4  1  0
  3  2  1  0
  4  8  1  0
  5  4  2  0
  5  6  1  0
  6  7  1  0
  8  7  2  0
  9  2  1  0
  9 16  1  0
 10  9  2  0
 12 13  1  1
 12 11  1  0
 15 14  1  1
 14 12  1  0
 15 16  1  0
 17 15  1  0
 18 17  2  0
 19 17  1  0
 20 25  1  0
 20 19  1  0
 20 21  1  6
 22 21  1  0
 23 22  1  0
 24 23  2  0
 25 28  1  0
 26 25  2  0
 27 23  1  0
M  END
$$$$
