HLE.pdb
     RDKit          3D

 28 28  0  0  1  0  0  0  0  0999 V2000
   26.5424  -28.9105  -18.7164 N   0  0  0  0  0  0  0  0  0  0  0  0
   26.5533  -29.0039  -17.2690 C   0  0  1  0  0  0  0  0  0  0  0  0
   25.4326  -28.1886  -16.7264 C   0  0  0  0  0  0  0  0  0  0  0  0
   25.8356  -26.7587  -16.7648 C   0  0  0  0  0  0  0  0  0  0  0  0
   26.8021  -26.0956  -16.0115 C   0  0  0  0  0  0  0  0  0  0  0  0
   26.8639  -24.8089  -16.3404 N   0  0  0  0  0  0  0  0  0  0  0  0
   25.9486  -24.6192  -17.3017 C   0  0  0  0  0  0  0  0  0  0  0  0
   25.3226  -25.7829  -17.5671 N   0  0  0  0  0  0  0  0  0  0  0  0
   26.4596  -30.4429  -16.9145 C   0  0  0  0  0  0  0  0  0  0  0  0
   25.7131  -31.2293  -17.5710 O   0  0  0  0  0  0  0  0  0  0  0  0
   30.6855  -33.7036  -16.4528 C   0  0  0  0  0  0  0  0  0  0  0  0
   29.3120  -33.1131  -16.6575 C   0  0  1  0  0  0  0  0  0  0  0  0
   28.6266  -34.0277  -17.6838 C   0  0  0  0  0  0  0  0  0  0  0  0
   28.5025  -33.0542  -15.4188 C   0  0  0  0  0  0  0  0  0  0  0  0
   27.1723  -32.4250  -15.4858 C   0  0  2  0  0  0  0  0  0  0  0  0
   27.1831  -31.0234  -15.8387 N   0  0  0  0  0  0  0  0  0  0  0  0
   26.2481  -32.7165  -14.3821 C   0  0  0  0  0  0  0  0  0  0  0  0
   26.3780  -32.0568  -13.3179 O   0  0  0  0  0  0  0  0  0  0  0  0
   25.2124  -33.6866  -14.4295 N   0  0  0  0  0  0  0  0  0  0  0  0
   24.3494  -33.9335  -13.3035 C   0  0  1  0  0  0  0  0  0  0  0  0
   22.8856  -33.8506  -13.6039 C   0  0  0  0  0  0  0  0  0  0  0  0
   22.3414  -32.5793  -14.0985 C   0  0  0  0  0  0  0  0  0  0  0  0
   20.9033  -32.4369  -14.2566 C   0  0  0  0  0  0  0  0  0  0  0  0
   20.2119  -31.4681  -13.8737 O   0  0  0  0  0  0  0  0  0  0  0  0
   24.6707  -35.2070  -12.5869 C   0  0  0  0  0  0  0  0  0  0  0  0
   25.1134  -36.1790  -13.2167 O   0  0  0  0  0  0  0  0  0  0  0  0
   20.2521  -33.5128  -14.9096 O   0  0  0  0  0  0  0  0  0  0  0  0
   24.4758  -35.3038  -11.2272 O   0  0  0  0  0  0  0  0  0  0  0  0
  2  1  1  6
  3  4  1  0
  3  2  1  0
  4  8  1  0
  5  4  2  0
  5  6  1  0
  6  7  1  0
  8  7  2  0
  9  2  1  0
  9 16  1  0
 10  9  2  0
 12 13  1  6
 12 11  1  0
 15 14  1  1
 14 12  1  0
 15 16  1  0
 17 15  1  0
 18 17  2  0
 19 17  1  0
 20 25  1  0
 20 19  1  0
 20 21  1  6
 22 21  1  0
 23 22  1  0
 24 23  2  0
 25 28  1  0
 26 25  2  0
 27 23  1  0
M  END
$$$$
