HLE.pdb
     RDKit          3D

 28 28  0  0  1  0  0  0  0  0999 V2000
   27.7069  -35.7880   -7.3675 N   0  0  0  0  0  0  0  0  0  0  0  0
   28.4257  -34.6790   -6.7696 C   0  0  1  0  0  0  0  0  0  0  0  0
   27.4426  -33.7396   -6.1648 C   0  0  0  0  0  0  0  0  0  0  0  0
   26.7628  -33.0054   -7.2635 C   0  0  0  0  0  0  0  0  0  0  0  0
   27.3174  -32.3632   -8.3686 C   0  0  0  0  0  0  0  0  0  0  0  0
   26.3722  -31.8167   -9.1273 N   0  0  0  0  0  0  0  0  0  0  0  0
   25.2025  -32.0928   -8.5328 C   0  0  0  0  0  0  0  0  0  0  0  0
   25.4219  -32.8069   -7.4111 N   0  0  0  0  0  0  0  0  0  0  0  0
   29.3808  -35.2463   -5.7843 C   0  0  0  0  0  0  0  0  0  0  0  0
   29.0440  -36.2050   -5.0264 O   0  0  0  0  0  0  0  0  0  0  0  0
   34.3472  -36.6737   -3.9546 C   0  0  0  0  0  0  0  0  0  0  0  0
   34.0458  -35.2001   -3.8318 C   0  0  1  0  0  0  0  0  0  0  0  0
   35.3789  -34.4893   -4.1092 C   0  0  0  0  0  0  0  0  0  0  0  0
   33.0165  -34.7252   -4.7847 C   0  0  0  0  0  0  0  0  0  0  0  0
   31.6273  -35.1749   -4.5901 C   0  0  2  0  0  0  0  0  0  0  0  0
   30.7075  -34.7636   -5.6263 N   0  0  0  0  0  0  0  0  0  0  0  0
   31.0630  -35.0104   -3.2441 C   0  0  0  0  0  0  0  0  0  0  0  0
   30.3545  -33.9932   -3.0249 O   0  0  0  0  0  0  0  0  0  0  0  0
   31.2537  -35.9198   -2.1705 N   0  0  0  0  0  0  0  0  0  0  0  0
   30.6972  -35.6817   -0.8639 C   0  0  1  0  0  0  0  0  0  0  0  0
   29.4697  -36.4781   -0.5493 C   0  0  0  0  0  0  0  0  0  0  0  0
   28.8350  -36.3006    0.7631 C   0  0  0  0  0  0  0  0  0  0  0  0
   27.6504  -37.0776    1.0891 C   0  0  0  0  0  0  0  0  0  0  0  0
   27.0680  -37.8858    0.3336 O   0  0  0  0  0  0  0  0  0  0  0  0
   31.7052  -35.8081    0.2345 C   0  0  0  0  0  0  0  0  0  0  0  0
   31.4679  -35.3286    1.3531 O   0  0  0  0  0  0  0  0  0  0  0  0
   27.1302  -36.8789    2.3921 O   0  0  0  0  0  0  0  0  0  0  0  0
   32.8986  -36.4566    0.0069 O   0  0  0  0  0  0  0  0  0  0  0  0
  2  1  1  1
  3  4  1  0
  3  2  1  0
  4  8  1  0
  5  4  2  0
  5  6  1  0
  6  7  1  0
  8  7  2  0
  9  2  1  0
  9 16  1  0
 10  9  2  0
 12 13  1  6
 12 11  1  0
 15 14  1  1
 14 12  1  0
 15 16  1  0
 17 15  1  0
 18 17  2  0
 19 17  1  0
 20 25  1  0
 20 19  1  0
 20 21  1  1
 22 21  1  0
 23 22  1  0
 24 23  2  0
 25 28  1  0
 26 25  2  0
 27 23  1  0
M  END
$$$$
