IPA.pdb
     RDKit          3D

 21 21  0  0  1  0  0  0  0  0999 V2000
   20.1181  -30.9540  -10.1272 C   0  0  0  0  0  0  0  0  0  0  0  0
   21.4749  -31.2871  -10.7525 C   0  0  0  0  0  0  0  0  0  0  0  0
   21.9903  -32.5317  -10.1151 C   0  0  2  0  0  0  0  0  0  0  0  0
   22.0462  -32.4714   -8.6233 C   0  0  0  0  0  0  0  0  0  0  0  0
   23.2852  -33.0392  -10.7449 C   0  0  2  0  0  0  0  0  0  0  0  0
   23.0291  -33.2327  -12.1481 N   0  0  0  0  0  0  0  0  0  0  0  0
   23.8029  -34.2577  -10.1461 C   0  0  0  0  0  0  0  0  0  0  0  0
   23.2262  -35.3487  -10.4904 O   0  0  0  0  0  0  0  0  0  0  0  0
   24.8784  -34.3087   -9.2295 N   0  0  0  0  0  0  0  0  0  0  0  0
   25.4991  -33.0433   -8.7728 C   0  0  0  0  0  0  0  0  0  0  0  0
   26.8435  -33.4020   -8.2396 C   0  0  0  0  0  0  0  0  0  0  0  0
   27.0322  -34.8424   -8.5700 C   0  0  0  0  0  0  0  0  0  0  0  0
   25.5793  -35.3343   -8.5571 C   0  0  1  0  0  0  0  0  0  0  0  0
   25.2354  -35.5656   -7.1482 C   0  0  0  0  0  0  0  0  0  0  0  0
   24.8899  -34.5168   -6.5073 O   0  0  0  0  0  0  0  0  0  0  0  0
   24.2683  -38.3288   -4.8391 C   0  0  0  0  0  0  0  0  0  0  0  0
   24.5966  -36.8743   -5.1753 C   0  0  2  0  0  0  0  0  0  0  0  0
   25.2471  -36.7825   -6.4565 N   0  0  0  0  0  0  0  0  0  0  0  0
   25.4067  -36.3636   -4.0661 C   0  0  0  0  0  0  0  0  0  0  0  0
   24.8687  -36.2818   -2.7979 O   0  0  0  0  0  0  0  0  0  0  0  0
   26.5880  -35.9950   -4.2398 O   0  0  0  0  0  0  0  0  0  0  0  0
  2  1  1  0
  3  2  1  0
  3  4  1  1
  5  3  1  0
  5  6  1  6
  7  5  1  0
  7  9  1  0
  8  7  2  0
  9 13  1  0
 10  9  1  0
 10 11  1  0
 11 12  1  0
 13 12  1  0
 13 14  1  1
 14 18  1  0
 15 14  2  0
 17 18  1  0
 17 19  1  0
 17 16  1  1
 19 20  1  0
 21 19  2  0
M  END
$$$$
