IPA.pdb
     RDKit          3D

 21 21  0  0  1  0  0  0  0  0999 V2000
   23.2450  -21.0780   -8.6371 C   0  0  0  0  0  0  0  0  0  0  0  0
   24.5903  -21.5011   -9.2320 C   0  0  0  0  0  0  0  0  0  0  0  0
   25.1875  -20.3228   -9.9217 C   0  0  2  0  0  0  0  0  0  0  0  0
   24.3386  -19.7666  -11.0181 C   0  0  0  0  0  0  0  0  0  0  0  0
   26.6401  -20.5411  -10.3383 C   0  0  2  0  0  0  0  0  0  0  0  0
   26.6381  -21.5199  -11.3937 N   0  0  0  0  0  0  0  0  0  0  0  0
   27.5155  -20.9571   -9.2558 C   0  0  0  0  0  0  0  0  0  0  0  0
   28.0348  -22.1235   -9.3622 O   0  0  0  0  0  0  0  0  0  0  0  0
   27.8205  -20.1702   -8.1213 N   0  0  0  0  0  0  0  0  0  0  0  0
   27.1352  -18.8694   -7.9387 C   0  0  0  0  0  0  0  0  0  0  0  0
   27.9699  -18.0834   -6.9869 C   0  0  0  0  0  0  0  0  0  0  0  0
   29.2092  -18.8857   -6.7869 C   0  0  0  0  0  0  0  0  0  0  0  0
   28.6714  -20.3062   -7.0019 C   0  0  1  0  0  0  0  0  0  0  0  0
   28.0482  -20.7069   -5.7339 C   0  0  0  0  0  0  0  0  0  0  0  0
   26.7995  -20.4532   -5.6530 O   0  0  0  0  0  0  0  0  0  0  0  0
   28.6801  -22.6513   -2.5894 C   0  0  0  0  0  0  0  0  0  0  0  0
   27.8581  -21.7761   -3.5354 C   0  0  2  0  0  0  0  0  0  0  0  0
   28.6650  -21.3205   -4.6373 N   0  0  0  0  0  0  0  0  0  0  0  0
   27.3054  -20.6896   -2.7220 C   0  0  0  0  0  0  0  0  0  0  0  0
   26.2195  -20.9231   -1.9030 O   0  0  0  0  0  0  0  0  0  0  0  0
   27.7976  -19.5414   -2.7503 O   0  0  0  0  0  0  0  0  0  0  0  0
  2  1  1  0
  3  2  1  0
  3  4  1  6
  5  3  1  0
  5  6  1  6
  7  5  1  0
  7  9  1  0
  8  7  2  0
  9 13  1  0
 10  9  1  0
 10 11  1  0
 11 12  1  0
 13 12  1  0
 13 14  1  1
 14 18  1  0
 15 14  2  0
 17 18  1  0
 17 19  1  0
 17 16  1  1
 19 20  1  0
 21 19  2  0
M  END
$$$$
