IPA.pdb
     RDKit          3D

 21 21  0  0  1  0  0  0  0  0999 V2000
   21.3604  -20.0841  -17.8782 C   0  0  0  0  0  0  0  0  0  0  0  0
   22.8311  -20.3229  -18.2282 C   0  0  0  0  0  0  0  0  0  0  0  0
   23.5187  -20.8569  -17.0186 C   0  0  2  0  0  0  0  0  0  0  0  0
   23.2674  -20.0636  -15.7778 C   0  0  0  0  0  0  0  0  0  0  0  0
   24.9974  -21.1583  -17.2501 C   0  0  2  0  0  0  0  0  0  0  0  0
   25.0704  -22.1852  -18.2561 N   0  0  0  0  0  0  0  0  0  0  0  0
   25.7191  -21.5601  -16.0547 C   0  0  0  0  0  0  0  0  0  0  0  0
   25.7862  -22.8194  -15.8287 O   0  0  0  0  0  0  0  0  0  0  0  0
   26.3363  -20.6659  -15.1499 N   0  0  0  0  0  0  0  0  0  0  0  0
   26.2297  -19.2076  -15.3892 C   0  0  0  0  0  0  0  0  0  0  0  0
   27.3284  -18.5712  -14.6091 C   0  0  0  0  0  0  0  0  0  0  0  0
   28.1496  -19.6983  -14.0847 C   0  0  0  0  0  0  0  0  0  0  0  0
   27.0862  -20.7968  -13.9599 C   0  0  1  0  0  0  0  0  0  0  0  0
   26.3821  -20.5466  -12.6957 C   0  0  0  0  0  0  0  0  0  0  0  0
   25.4515  -19.6756  -12.7700 O   0  0  0  0  0  0  0  0  0  0  0  0
   25.9878  -21.9885   -9.2498 C   0  0  0  0  0  0  0  0  0  0  0  0
   25.5858  -21.1346  -10.4522 C   0  0  2  0  0  0  0  0  0  0  0  0
   26.6197  -21.1477  -11.4541 N   0  0  0  0  0  0  0  0  0  0  0  0
   25.2875  -19.7976   -9.9319 C   0  0  0  0  0  0  0  0  0  0  0  0
   26.1893  -18.7686  -10.1129 O   0  0  0  0  0  0  0  0  0  0  0  0
   24.2241  -19.5605   -9.3201 O   0  0  0  0  0  0  0  0  0  0  0  0
  2  1  1  0
  3  2  1  0
  3  4  1  1
  5  3  1  0
  5  6  1  6
  7  5  1  0
  7  9  1  0
  8  7  2  0
  9 13  1  0
 10  9  1  0
 10 11  1  0
 11 12  1  0
 13 12  1  0
 13 14  1  1
 14 18  1  0
 15 14  2  0
 17 18  1  0
 17 19  1  0
 17 16  1  1
 19 20  1  0
 21 19  2  0
M  END
$$$$
