IPA.pdb
     RDKit          3D

 21 21  0  0  1  0  0  0  0  0999 V2000
   21.9449  -19.5547  -11.3147 C   0  0  0  0  0  0  0  0  0  0  0  0
   23.4705  -19.6300  -11.4129 C   0  0  0  0  0  0  0  0  0  0  0  0
   23.9006  -20.9881  -10.9753 C   0  0  2  0  0  0  0  0  0  0  0  0
   23.5066  -21.3277   -9.5748 C   0  0  0  0  0  0  0  0  0  0  0  0
   25.3691  -21.2802  -11.2741 C   0  0  2  0  0  0  0  0  0  0  0  0
   26.1550  -20.4656  -10.3850 N   0  0  0  0  0  0  0  0  0  0  0  0
   25.7547  -21.0491  -12.6559 C   0  0  0  0  0  0  0  0  0  0  0  0
   26.4698  -20.0098  -12.8792 O   0  0  0  0  0  0  0  0  0  0  0  0
   25.3966  -21.8826  -13.7404 N   0  0  0  0  0  0  0  0  0  0  0  0
   24.4688  -23.0138  -13.5067 C   0  0  0  0  0  0  0  0  0  0  0  0
   24.6577  -23.9558  -14.6458 C   0  0  0  0  0  0  0  0  0  0  0  0
   25.8209  -23.4270  -15.4118 C   0  0  0  0  0  0  0  0  0  0  0  0
   25.7011  -21.9260  -15.1191 C   0  0  1  0  0  0  0  0  0  0  0  0
   24.6859  -21.4059  -16.0441 C   0  0  0  0  0  0  0  0  0  0  0  0
   23.4803  -21.5859  -15.6644 O   0  0  0  0  0  0  0  0  0  0  0  0
   24.3422  -18.9309  -18.7927 C   0  0  0  0  0  0  0  0  0  0  0  0
   23.8121  -20.0386  -17.8826 C   0  0  2  0  0  0  0  0  0  0  0  0
   24.8986  -20.7521  -17.2635 N   0  0  0  0  0  0  0  0  0  0  0  0
   22.9512  -20.8840  -18.7144 C   0  0  0  0  0  0  0  0  0  0  0  0
   23.2870  -22.2037  -18.9381 O   0  0  0  0  0  0  0  0  0  0  0  0
   21.9067  -20.4360  -19.2338 O   0  0  0  0  0  0  0  0  0  0  0  0
  2  1  1  0
  3  2  1  0
  3  4  1  1
  5  3  1  0
  5  6  1  1
  7  5  1  0
  7  9  1  0
  8  7  2  0
  9 13  1  0
 10  9  1  0
 10 11  1  0
 11 12  1  0
 13 12  1  0
 13 14  1  6
 14 18  1  0
 15 14  2  0
 17 18  1  0
 17 19  1  0
 17 16  1  6
 19 20  1  0
 21 19  2  0
M  END
$$$$
