IPA.pdb
     RDKit          3D

 21 21  0  0  1  0  0  0  0  0999 V2000
   24.8152  -13.2518  -17.1321 C   0  0  0  0  0  0  0  0  0  0  0  0
   23.3449  -13.3850  -16.7281 C   0  0  0  0  0  0  0  0  0  0  0  0
   22.7843  -12.0162  -16.5464 C   0  0  2  0  0  0  0  0  0  0  0  0
   23.5555  -11.1665  -15.5897 C   0  0  0  0  0  0  0  0  0  0  0  0
   21.2814  -12.0118  -16.2773 C   0  0  2  0  0  0  0  0  0  0  0  0
   20.6667  -12.8425  -17.2793 N   0  0  0  0  0  0  0  0  0  0  0  0
   20.6801  -10.6890  -16.2695 C   0  0  0  0  0  0  0  0  0  0  0  0
   20.3735  -10.1982  -17.4126 O   0  0  0  0  0  0  0  0  0  0  0  0
   20.4200   -9.9313  -15.1044 N   0  0  0  0  0  0  0  0  0  0  0  0
   20.8236  -10.4723  -13.7855 C   0  0  0  0  0  0  0  0  0  0  0  0
   20.0228   -9.7378  -12.7659 C   0  0  0  0  0  0  0  0  0  0  0  0
   19.0477   -8.9187  -13.5390 C   0  0  0  0  0  0  0  0  0  0  0  0
   19.8369   -8.6739  -14.8315 C   0  0  1  0  0  0  0  0  0  0  0  0
   20.7519   -7.5601  -14.5505 C   0  0  0  0  0  0  0  0  0  0  0  0
   21.8359   -7.8984  -13.9669 O   0  0  0  0  0  0  0  0  0  0  0  0
   21.4237   -4.0330  -15.5581 C   0  0  0  0  0  0  0  0  0  0  0  0
   21.6707   -5.2937  -14.7298 C   0  0  2  0  0  0  0  0  0  0  0  0
   20.5628   -6.2055  -14.8483 N   0  0  0  0  0  0  0  0  0  0  0  0
   21.9209   -4.8470  -13.3568 C   0  0  0  0  0  0  0  0  0  0  0  0
   21.0357   -5.1768  -12.3507 O   0  0  0  0  0  0  0  0  0  0  0  0
   22.9281   -4.1661  -13.0681 O   0  0  0  0  0  0  0  0  0  0  0  0
  2  1  1  0
  3  2  1  0
  3  4  1  1
  5  3  1  0
  5  6  1  6
  7  5  1  0
  7  9  1  0
  8  7  2  0
  9 13  1  0
 10  9  1  0
 10 11  1  0
 11 12  1  0
 13 12  1  0
 13 14  1  1
 14 18  1  0
 15 14  2  0
 17 18  1  0
 17 19  1  0
 17 16  1  6
 19 20  1  0
 21 19  2  0
M  END
$$$$
