IPA.pdb
     RDKit          3D

 21 21  0  0  1  0  0  0  0  0999 V2000
   19.0462  -19.0422  -15.2164 C   0  0  0  0  0  0  0  0  0  0  0  0
   20.4234  -19.2381  -14.5780 C   0  0  0  0  0  0  0  0  0  0  0  0
   20.2740  -20.1628  -13.4188 C   0  0  2  0  0  0  0  0  0  0  0  0
   19.1833  -19.7787  -12.4727 C   0  0  0  0  0  0  0  0  0  0  0  0
   21.5958  -20.4702  -12.7194 C   0  0  2  0  0  0  0  0  0  0  0  0
   22.5707  -20.7301  -13.7460 N   0  0  0  0  0  0  0  0  0  0  0  0
   21.5316  -21.5784  -11.7818 C   0  0  0  0  0  0  0  0  0  0  0  0
   21.4856  -22.7523  -12.2930 O   0  0  0  0  0  0  0  0  0  0  0  0
   21.5175  -21.4409  -10.3746 N   0  0  0  0  0  0  0  0  0  0  0  0
   21.5229  -20.0833   -9.7812 C   0  0  0  0  0  0  0  0  0  0  0  0
   21.9852  -20.2407   -8.3734 C   0  0  0  0  0  0  0  0  0  0  0  0
   22.4064  -21.6643   -8.2489 C   0  0  0  0  0  0  0  0  0  0  0  0
   21.4829  -22.3297   -9.2772 C   0  0  1  0  0  0  0  0  0  0  0  0
   20.1886  -22.5157   -8.6088 C   0  0  0  0  0  0  0  0  0  0  0  0
   19.4288  -21.4897   -8.6290 O   0  0  0  0  0  0  0  0  0  0  0  0
   17.7096  -25.0269   -8.2746 C   0  0  0  0  0  0  0  0  0  0  0  0
   18.3182  -23.7744   -7.6443 C   0  0  2  0  0  0  0  0  0  0  0  0
   19.7165  -23.6686   -7.9706 N   0  0  0  0  0  0  0  0  0  0  0  0
   18.0548  -23.8627   -6.2055 C   0  0  0  0  0  0  0  0  0  0  0  0
   16.7733  -23.6840   -5.7253 O   0  0  0  0  0  0  0  0  0  0  0  0
   18.9718  -24.0987   -5.3901 O   0  0  0  0  0  0  0  0  0  0  0  0
  2  1  1  0
  3  2  1  0
  3  4  1  1
  5  3  1  0
  5  6  1  6
  7  5  1  0
  7  9  1  0
  8  7  2  0
  9 13  1  0
 10  9  1  0
 10 11  1  0
 11 12  1  0
 13 12  1  0
 13 14  1  1
 14 18  1  0
 15 14  2  0
 17 18  1  0
 17 19  1  0
 17 16  1  6
 19 20  1  0
 21 19  2  0
M  END
$$$$
