IPA.pdb
     RDKit          3D

 21 21  0  0  1  0  0  0  0  0999 V2000
   10.4800  -21.6564    0.4539 C   0  0  0  0  0  0  0  0  0  0  0  0
   11.7467  -20.8260    0.2335 C   0  0  0  0  0  0  0  0  0  0  0  0
   12.8180  -21.3638    1.1189 C   0  0  2  0  0  0  0  0  0  0  0  0
   12.5183  -21.2416    2.5775 C   0  0  0  0  0  0  0  0  0  0  0  0
   14.2126  -20.8651    0.7481 C   0  0  2  0  0  0  0  0  0  0  0  0
   14.4581  -21.2602   -0.6140 N   0  0  0  0  0  0  0  0  0  0  0  0
   15.2704  -21.3473    1.6198 C   0  0  0  0  0  0  0  0  0  0  0  0
   15.7983  -22.4710    1.3035 O   0  0  0  0  0  0  0  0  0  0  0  0
   15.7396  -20.6665    2.7668 N   0  0  0  0  0  0  0  0  0  0  0  0
   15.1055  -19.3854    3.1565 C   0  0  0  0  0  0  0  0  0  0  0  0
   16.0743  -18.6906    4.0504 C   0  0  0  0  0  0  0  0  0  0  0  0
   17.3170  -19.5111    4.0059 C   0  0  0  0  0  0  0  0  0  0  0  0
   16.7335  -20.9049    3.7419 C   0  0  1  0  0  0  0  0  0  0  0  0
   16.2837  -21.4163    5.0430 C   0  0  0  0  0  0  0  0  0  0  0  0
   15.1267  -21.0118    5.4008 O   0  0  0  0  0  0  0  0  0  0  0  0
   16.7560  -24.2550    7.3209 C   0  0  0  0  0  0  0  0  0  0  0  0
   16.2941  -22.8231    7.0514 C   0  0  2  0  0  0  0  0  0  0  0  0
   16.9732  -22.2765    5.9056 N   0  0  0  0  0  0  0  0  0  0  0  0
   16.5270  -22.0712    8.2875 C   0  0  0  0  0  0  0  0  0  0  0  0
   15.8113  -22.3765    9.4273 O   0  0  0  0  0  0  0  0  0  0  0  0
   17.3679  -21.1483    8.3382 O   0  0  0  0  0  0  0  0  0  0  0  0
  2  1  1  0
  3  2  1  0
  3  4  1  1
  5  3  1  0
  5  6  1  6
  7  5  1  0
  7  9  1  0
  8  7  2  0
  9 13  1  0
 10  9  1  0
 10 11  1  0
 11 12  1  0
 13 12  1  0
 13 14  1  1
 14 18  1  0
 15 14  2  0
 17 18  1  0
 17 19  1  0
 17 16  1  1
 19 20  1  0
 21 19  2  0
M  END
$$$$
