IPA.pdb
     RDKit          3D

 21 21  0  0  1  0  0  0  0  0999 V2000
   20.4778  -23.6311  -15.6618 C   0  0  0  0  0  0  0  0  0  0  0  0
   20.6589  -23.0217  -14.2695 C   0  0  0  0  0  0  0  0  0  0  0  0
   21.8176  -22.0856  -14.3162 C   0  0  2  0  0  0  0  0  0  0  0  0
   23.0709  -22.6974  -14.8520 C   0  0  0  0  0  0  0  0  0  0  0  0
   22.0309  -21.3256  -13.0093 C   0  0  2  0  0  0  0  0  0  0  0  0
   20.7879  -20.6752  -12.6870 N   0  0  0  0  0  0  0  0  0  0  0  0
   23.1177  -20.3619  -13.0496 C   0  0  0  0  0  0  0  0  0  0  0  0
   22.8367  -19.2096  -13.5340 O   0  0  0  0  0  0  0  0  0  0  0  0
   24.4331  -20.6147  -12.5969 N   0  0  0  0  0  0  0  0  0  0  0  0
   24.7572  -21.9414  -12.0225 C   0  0  0  0  0  0  0  0  0  0  0  0
   26.0007  -21.7613  -11.2213 C   0  0  0  0  0  0  0  0  0  0  0  0
   26.2584  -20.2940  -11.2097 C   0  0  0  0  0  0  0  0  0  0  0  0
   25.6397  -19.8815  -12.5514 C   0  0  1  0  0  0  0  0  0  0  0  0
   26.6445  -20.1843  -13.5787 C   0  0  0  0  0  0  0  0  0  0  0  0
   26.6872  -21.4099  -13.9340 O   0  0  0  0  0  0  0  0  0  0  0  0
   28.4996  -21.0243  -15.6167 C   0  0  0  0  0  0  0  0  0  0  0  0
   28.0202  -19.5764  -15.5154 C   0  0  2  0  0  0  0  0  0  0  0  0
   27.5339  -19.2930  -14.1903 N   0  0  0  0  0  0  0  0  0  0  0  0
   27.0114  -19.3980  -16.5632 C   0  0  0  0  0  0  0  0  0  0  0  0
   27.3540  -19.5699  -17.8889 O   0  0  0  0  0  0  0  0  0  0  0  0
   25.8327  -19.0900  -16.2849 O   0  0  0  0  0  0  0  0  0  0  0  0
  2  1  1  0
  3  2  1  0
  3  4  1  1
  5  3  1  0
  5  6  1  6
  7  5  1  0
  7  9  1  0
  8  7  2  0
  9 13  1  0
 10  9  1  0
 10 11  1  0
 11 12  1  0
 13 12  1  0
 13 14  1  6
 14 18  1  0
 15 14  2  0
 17 18  1  0
 17 19  1  0
 17 16  1  1
 19 20  1  0
 21 19  2  0
M  END
$$$$
