TPH.pdb
     RDKit          3D

 25 26  0  0  1  0  0  0  0  0999 V2000
   24.6074  -13.3648  -19.0150 C   0  0  0  0  0  0  0  0  0  0  0  0
   24.6063  -14.4318  -17.9624 C   0  0  1  0  0  0  0  0  0  0  0  0
   25.1331  -15.6322  -18.4710 O   0  0  0  0  0  0  0  0  0  0  0  0
   25.4732  -13.9647  -16.7765 C   0  0  2  0  0  0  0  0  0  0  0  0
   25.7244  -15.1271  -15.9975 N   0  0  0  0  0  0  0  0  0  0  0  0
   24.8915  -12.8058  -16.1108 C   0  0  0  0  0  0  0  0  0  0  0  0
   23.6083  -12.8682  -15.9773 O   0  0  0  0  0  0  0  0  0  0  0  0
   25.4847  -11.6520  -15.5983 N   0  0  0  0  0  0  0  0  0  0  0  0
   26.8651  -11.5862  -15.0760 C   0  0  0  0  0  0  0  0  0  0  0  0
   27.3892  -10.4552  -15.9845 C   0  0  0  0  0  0  0  0  0  0  0  0
   26.1494   -9.6352  -16.3686 C   0  0  0  0  0  0  0  0  0  0  0  0
   25.1026  -10.2891  -15.4464 C   0  0  1  0  0  0  0  0  0  0  0  0
   23.7999   -9.8005  -15.7595 C   0  0  0  0  0  0  0  0  0  0  0  0
   23.3694   -9.9286  -16.9556 O   0  0  0  0  0  0  0  0  0  0  0  0
   22.8359   -9.1537  -14.9427 N   0  0  0  0  0  0  0  0  0  0  0  0
   21.5608   -8.6959  -15.3627 C   0  0  1  0  0  0  0  0  0  0  0  0
   20.3737   -8.8678  -14.5347 C   0  0  0  0  0  0  0  0  0  0  0  0
   19.1713   -8.2532  -15.1483 C   0  0  0  0  0  0  0  0  0  0  0  0
   19.0629   -7.7028  -16.4079 C   0  0  0  0  0  0  0  0  0  0  0  0
   17.7940   -7.2471  -16.5839 N   0  0  0  0  0  0  0  0  0  0  0  0
   17.1325   -7.5189  -15.4364 C   0  0  0  0  0  0  0  0  0  0  0  0
   17.9672   -8.1278  -14.5683 N   0  0  0  0  0  0  0  0  0  0  0  0
   21.6849   -7.2489  -15.6953 C   0  0  0  0  0  0  0  0  0  0  0  0
   20.8664   -6.6787  -16.6552 O   0  0  0  0  0  0  0  0  0  0  0  0
   22.5164   -6.4900  -15.1374 O   0  0  0  0  0  0  0  0  0  0  0  0
  2  1  1  6
  2  3  1  0
  4  2  1  0
  4  5  1  1
  6  4  1  0
  6  8  1  0
  7  6  2  0
  8 12  1  0
  9  8  1  0
  9 10  1  0
 11 10  1  0
 12 11  1  0
 13 15  1  0
 12 13  1  6
 14 13  2  0
 16 17  1  1
 16 15  1  0
 17 18  1  0
 18 19  2  0
 18 22  1  0
 19 20  1  0
 20 21  1  0
 22 21  2  0
 23 16  1  0
 23 24  1  0
 25 23  2  0
M  END
$$$$
