TPH.pdb
     RDKit          3D

 25 26  0  0  1  0  0  0  0  0999 V2000
   24.9677  -22.6966  -14.8784 C   0  0  0  0  0  0  0  0  0  0  0  0
   24.9128  -22.6279  -13.3822 C   0  0  1  0  0  0  0  0  0  0  0  0
   25.3559  -23.8347  -12.8126 O   0  0  0  0  0  0  0  0  0  0  0  0
   25.8227  -21.4805  -12.9009 C   0  0  2  0  0  0  0  0  0  0  0  0
   26.0402  -21.7125  -11.5152 N   0  0  0  0  0  0  0  0  0  0  0  0
   25.3044  -20.1795  -13.3051 C   0  0  0  0  0  0  0  0  0  0  0  0
   24.0485  -20.0149  -13.0523 O   0  0  0  0  0  0  0  0  0  0  0  0
   25.9334  -19.0930  -13.9130 N   0  0  0  0  0  0  0  0  0  0  0  0
   27.2369  -18.5411  -13.4900 C   0  0  0  0  0  0  0  0  0  0  0  0
   27.9749  -18.6643  -14.8389 C   0  0  0  0  0  0  0  0  0  0  0  0
   26.8756  -18.6142  -15.9094 C   0  0  0  0  0  0  0  0  0  0  0  0
   25.6643  -18.2514  -15.0291 C   0  0  1  0  0  0  0  0  0  0  0  0
   24.4629  -18.3239  -15.7941 C   0  0  0  0  0  0  0  0  0  0  0  0
   24.5090  -18.8501  -16.9574 O   0  0  0  0  0  0  0  0  0  0  0  0
   23.1468  -17.8888  -15.4888 N   0  0  0  0  0  0  0  0  0  0  0  0
   21.9688  -18.2374  -16.1978 C   0  0  1  0  0  0  0  0  0  0  0  0
   21.6291  -19.6256  -16.4840 C   0  0  0  0  0  0  0  0  0  0  0  0
   21.3249  -20.3915  -15.2507 C   0  0  0  0  0  0  0  0  0  0  0  0
   21.2812  -19.9137  -13.9579 C   0  0  0  0  0  0  0  0  0  0  0  0
   20.9673  -20.9363  -13.1186 N   0  0  0  0  0  0  0  0  0  0  0  0
   20.8206  -22.0322  -13.8969 C   0  0  0  0  0  0  0  0  0  0  0  0
   21.0373  -21.7011  -15.1870 N   0  0  0  0  0  0  0  0  0  0  0  0
   20.8133  -17.6165  -15.4915 C   0  0  0  0  0  0  0  0  0  0  0  0
   19.5365  -17.7152  -16.0173 O   0  0  0  0  0  0  0  0  0  0  0  0
   20.9329  -16.9874  -14.4105 O   0  0  0  0  0  0  0  0  0  0  0  0
  2  1  1  6
  2  3  1  0
  4  2  1  0
  4  5  1  1
  6  4  1  0
  6  8  1  0
  7  6  2  0
  8 12  1  0
  9  8  1  0
  9 10  1  0
 11 10  1  0
 12 11  1  0
 13 15  1  0
 12 13  1  6
 14 13  2  0
 16 17  1  1
 16 15  1  0
 17 18  1  0
 18 19  2  0
 18 22  1  0
 19 20  1  0
 20 21  1  0
 22 21  2  0
 23 16  1  0
 23 24  1  0
 25 23  2  0
M  END
$$$$
