TPH.pdb
     RDKit          3D

 25 26  0  0  1  0  0  0  0  0999 V2000
   23.6042   -9.5688  -20.6584 C   0  0  0  0  0  0  0  0  0  0  0  0
   22.5997  -10.6806  -20.6947 C   0  0  1  0  0  0  0  0  0  0  0  0
   22.8590  -11.5500  -21.7689 O   0  0  0  0  0  0  0  0  0  0  0  0
   22.6832  -11.4728  -19.3750 C   0  0  2  0  0  0  0  0  0  0  0  0
   21.9526  -12.6724  -19.5953 N   0  0  0  0  0  0  0  0  0  0  0  0
   22.3175  -10.6479  -18.2303 C   0  0  0  0  0  0  0  0  0  0  0  0
   21.6843   -9.5670  -18.5449 O   0  0  0  0  0  0  0  0  0  0  0  0
   22.5351  -10.8304  -16.8646 N   0  0  0  0  0  0  0  0  0  0  0  0
   22.5593  -12.1461  -16.1931 C   0  0  0  0  0  0  0  0  0  0  0  0
   23.9624  -12.0433  -15.5606 C   0  0  0  0  0  0  0  0  0  0  0  0
   24.2223  -10.5397  -15.3910 C   0  0  0  0  0  0  0  0  0  0  0  0
   22.8313   -9.9870  -15.7566 C   0  0  1  0  0  0  0  0  0  0  0  0
   22.8764   -8.5643  -15.8443 C   0  0  0  0  0  0  0  0  0  0  0  0
   23.6547   -8.0286  -16.7043 O   0  0  0  0  0  0  0  0  0  0  0  0
   22.1809   -7.5717  -15.1056 N   0  0  0  0  0  0  0  0  0  0  0  0
   22.2697   -6.1702  -15.3049 C   0  0  1  0  0  0  0  0  0  0  0  0
   21.2395   -5.4316  -16.0243 C   0  0  0  0  0  0  0  0  0  0  0  0
   21.0417   -5.9467  -17.4010 C   0  0  0  0  0  0  0  0  0  0  0  0
   21.8633   -5.7566  -18.4921 C   0  0  0  0  0  0  0  0  0  0  0  0
   21.3256   -6.3922  -19.5670 N   0  0  0  0  0  0  0  0  0  0  0  0
   20.1815   -6.9671  -19.1325 C   0  0  0  0  0  0  0  0  0  0  0  0
   20.0108   -6.6967  -17.8215 N   0  0  0  0  0  0  0  0  0  0  0  0
   22.4470   -5.5322  -13.9703 C   0  0  0  0  0  0  0  0  0  0  0  0
   22.8371   -4.2074  -13.8741 O   0  0  0  0  0  0  0  0  0  0  0  0
   22.2570   -6.1459  -12.8905 O   0  0  0  0  0  0  0  0  0  0  0  0
  2  1  1  1
  2  3  1  0
  4  2  1  0
  4  5  1  6
  6  4  1  0
  6  8  1  0
  7  6  2  0
  8 12  1  0
  9  8  1  0
  9 10  1  0
 11 10  1  0
 12 11  1  0
 13 15  1  0
 12 13  1  6
 14 13  2  0
 16 17  1  1
 16 15  1  0
 17 18  1  0
 18 19  2  0
 18 22  1  0
 19 20  1  0
 20 21  1  0
 22 21  2  0
 23 16  1  0
 23 24  1  0
 25 23  2  0
M  END
$$$$
