TPH.pdb
     RDKit          3D

 25 26  0  0  1  0  0  0  0  0999 V2000
   17.5536  -20.2978    2.8222 C   0  0  0  0  0  0  0  0  0  0  0  0
   16.1393  -19.9185    2.5020 C   0  0  1  0  0  0  0  0  0  0  0  0
   15.6714  -20.6389    1.3888 O   0  0  0  0  0  0  0  0  0  0  0  0
   15.2485  -20.2382    3.7187 C   0  0  2  0  0  0  0  0  0  0  0  0
   13.9143  -20.2604    3.2280 N   0  0  0  0  0  0  0  0  0  0  0  0
   15.5494  -19.3665    4.8475 C   0  0  0  0  0  0  0  0  0  0  0  0
   15.3533  -18.1127    4.6073 O   0  0  0  0  0  0  0  0  0  0  0  0
   16.0088  -19.6586    6.1317 N   0  0  0  0  0  0  0  0  0  0  0  0
   15.5948  -20.8401    6.9162 C   0  0  0  0  0  0  0  0  0  0  0  0
   16.9953  -21.4319    7.1763 C   0  0  0  0  0  0  0  0  0  0  0  0
   17.9587  -20.2381    7.1139 C   0  0  0  0  0  0  0  0  0  0  0  0
   16.9436  -19.0816    7.0371 C   0  0  1  0  0  0  0  0  0  0  0  0
   17.6199  -17.8512    6.7873 C   0  0  0  0  0  0  0  0  0  0  0  0
   18.2531  -17.7135    5.6862 O   0  0  0  0  0  0  0  0  0  0  0  0
   17.7334  -16.6821    7.5843 N   0  0  0  0  0  0  0  0  0  0  0  0
   18.4040  -15.4869    7.2189 C   0  0  1  0  0  0  0  0  0  0  0  0
   17.6853  -14.3387    6.6808 C   0  0  0  0  0  0  0  0  0  0  0  0
   18.5944  -13.2114    6.3600 C   0  0  0  0  0  0  0  0  0  0  0  0
   19.1222  -12.8861    5.1283 C   0  0  0  0  0  0  0  0  0  0  0  0
   19.9077  -11.7842    5.2605 N   0  0  0  0  0  0  0  0  0  0  0  0
   19.8586  -11.4400    6.5672 C   0  0  0  0  0  0  0  0  0  0  0  0
   19.0634  -12.3045    7.2315 N   0  0  0  0  0  0  0  0  0  0  0  0
   19.1886  -15.0275    8.3991 C   0  0  0  0  0  0  0  0  0  0  0  0
   20.1123  -14.0044    8.2704 O   0  0  0  0  0  0  0  0  0  0  0  0
   19.0572  -15.5305    9.5430 O   0  0  0  0  0  0  0  0  0  0  0  0
  2  1  1  1
  2  3  1  0
  4  2  1  0
  4  5  1  6
  6  4  1  0
  6  8  1  0
  7  6  2  0
  8 12  1  0
  9  8  1  0
  9 10  1  0
 11 10  1  0
 12 11  1  0
 13 15  1  0
 12 13  1  6
 14 13  2  0
 16 17  1  1
 16 15  1  0
 17 18  1  0
 18 19  2  0
 18 22  1  0
 19 20  1  0
 20 21  1  0
 22 21  2  0
 23 16  1  0
 23 24  1  0
 25 23  2  0
M  END
$$$$
