TPH.pdb
     RDKit          3D

 25 26  0  0  1  0  0  0  0  0999 V2000
   17.9939   -7.6672  -16.3030 C   0  0  0  0  0  0  0  0  0  0  0  0
   18.4694   -9.0848  -16.1991 C   0  0  1  0  0  0  0  0  0  0  0  0
   18.7624   -9.6053  -17.4721 O   0  0  0  0  0  0  0  0  0  0  0  0
   19.7451   -9.1220  -15.3346 C   0  0  2  0  0  0  0  0  0  0  0  0
   20.3685  -10.3684  -15.6158 N   0  0  0  0  0  0  0  0  0  0  0  0
   19.4593   -8.7969  -13.9428 C   0  0  0  0  0  0  0  0  0  0  0  0
   18.4540   -9.4412  -13.4505 O   0  0  0  0  0  0  0  0  0  0  0  0
   20.0856   -7.9145  -13.0624 N   0  0  0  0  0  0  0  0  0  0  0  0
   21.5287   -7.5990  -13.0848 C   0  0  0  0  0  0  0  0  0  0  0  0
   21.4157   -6.0678  -13.2326 C   0  0  0  0  0  0  0  0  0  0  0  0
   20.0572   -5.6997  -12.6195 C   0  0  0  0  0  0  0  0  0  0  0  0
   19.6662   -7.0577  -12.0058 C   0  0  1  0  0  0  0  0  0  0  0  0
   18.3260   -7.0091  -11.5208 C   0  0  0  0  0  0  0  0  0  0  0  0
   17.3932   -6.6851  -12.3316 O   0  0  0  0  0  0  0  0  0  0  0  0
   17.8034   -7.2628  -10.2257 N   0  0  0  0  0  0  0  0  0  0  0  0
   16.4314   -7.2603   -9.8660 C   0  0  1  0  0  0  0  0  0  0  0  0
   15.9234   -8.0831   -8.7755 C   0  0  0  0  0  0  0  0  0  0  0  0
   14.4421   -8.0621   -8.7035 C   0  0  0  0  0  0  0  0  0  0  0  0
   13.5552   -8.7497   -9.5047 C   0  0  0  0  0  0  0  0  0  0  0  0
   12.2865   -8.4570   -9.1131 N   0  0  0  0  0  0  0  0  0  0  0  0
   12.4002   -7.5949   -8.0777 C   0  0  0  0  0  0  0  0  0  0  0  0
   13.7053   -7.3566   -7.8308 N   0  0  0  0  0  0  0  0  0  0  0  0
   16.0339   -5.8489   -9.6019 C   0  0  0  0  0  0  0  0  0  0  0  0
   16.9980   -4.8676   -9.4470 O   0  0  0  0  0  0  0  0  0  0  0  0
   14.8352   -5.4842   -9.5084 O   0  0  0  0  0  0  0  0  0  0  0  0
  2  1  1  6
  2  3  1  0
  4  2  1  0
  4  5  1  1
  6  4  1  0
  6  8  1  0
  7  6  2  0
  8 12  1  0
  9  8  1  0
  9 10  1  0
 11 10  1  0
 12 11  1  0
 13 15  1  0
 12 13  1  6
 14 13  2  0
 16 17  1  1
 16 15  1  0
 17 18  1  0
 18 19  2  0
 18 22  1  0
 19 20  1  0
 20 21  1  0
 22 21  2  0
 23 16  1  0
 23 24  1  0
 25 23  2  0
M  END
$$$$
