PHA.pdb
     RDKit          3D

 23 24  0  0  1  0  0  0  0  0999 V2000
   15.1066  -20.1962    3.5155 N   0  0  0  0  0  0  0  0  0  0  0  0
   14.6636  -20.9885    2.3544 C   0  0  0  0  0  0  0  0  0  0  0  0
   15.7121  -20.5819    1.3343 C   0  0  0  0  0  0  0  0  0  0  0  0
   16.9895  -20.4952    2.1433 C   0  0  0  0  0  0  0  0  0  0  0  0
   16.4925  -20.5339    3.5695 C   0  0  1  0  0  0  0  0  0  0  0  0
   17.2973  -19.6345    4.4571 C   0  0  0  0  0  0  0  0  0  0  0  0
   18.4975  -19.8803    4.6232 O   0  0  0  0  0  0  0  0  0  0  0  0
   16.7074  -18.5293    5.0937 N   0  0  0  0  0  0  0  0  0  0  0  0
   17.2709  -17.5362    5.9323 C   0  0  1  0  0  0  0  0  0  0  0  0
   16.8815  -16.1050    5.6116 C   0  0  0  0  0  0  0  0  0  0  0  0
   17.3171  -15.6557    4.2668 C   0  0  0  0  0  0  0  0  0  0  0  0
   18.0386  -16.4106    3.3695 C   0  0  0  0  0  0  0  0  0  0  0  0
   18.2778  -15.6343    2.3099 N   0  0  0  0  0  0  0  0  0  0  0  0
   17.7381  -14.4337    2.5086 C   0  0  0  0  0  0  0  0  0  0  0  0
   17.1486  -14.4437    3.7070 N   0  0  0  0  0  0  0  0  0  0  0  0
   17.3105  -17.7931    7.3544 C   0  0  0  0  0  0  0  0  0  0  0  0
   17.9029  -17.0273    8.1585 O   0  0  0  0  0  0  0  0  0  0  0  0
   15.4412  -19.5334    9.8515 C   0  0  0  0  0  0  0  0  0  0  0  0
   16.8481  -19.2585    9.3088 C   0  0  2  0  0  0  0  0  0  0  0  0
   16.6768  -18.9294    7.9099 N   0  0  0  0  0  0  0  0  0  0  0  0
   17.7152  -20.4097    9.5308 C   0  0  0  0  0  0  0  0  0  0  0  0
   18.0097  -20.8511   10.8054 O   0  0  0  0  0  0  0  0  0  0  0  0
   18.2109  -21.0216    8.5581 O   0  0  0  0  0  0  0  0  0  0  0  0
  1  5  1  0
  2  1  1  0
  2  3  1  0
  4  3  1  0
  5  6  1  1
  5  4  1  0
  6  7  2  0
  6  8  1  0
  8  9  1  0
  9 16  1  0
  9 10  1  1
 10 11  1  0
 11 15  1  0
 12 11  2  0
 12 13  1  0
 13 14  1  0
 15 14  2  0
 16 20  1  0
 16 17  2  0
 19 18  1  6
 19 21  1  0
 20 19  1  0
 21 22  1  0
 23 21  2  0
M  END
$$$$
