PHA.pdb
     RDKit          3D

 23 24  0  0  1  0  0  0  0  0999 V2000
   17.1430  -11.2169  -15.5012 N   0  0  0  0  0  0  0  0  0  0  0  0
   16.4650  -12.5238  -15.4335 C   0  0  0  0  0  0  0  0  0  0  0  0
   17.2676  -13.2979  -16.4638 C   0  0  0  0  0  0  0  0  0  0  0  0
   18.6886  -12.8197  -16.2495 C   0  0  0  0  0  0  0  0  0  0  0  0
   18.5098  -11.6061  -15.3675 C   0  0  1  0  0  0  0  0  0  0  0  0
   19.4819  -10.5219  -15.7200 C   0  0  0  0  0  0  0  0  0  0  0  0
   20.6925  -10.7506  -15.6163 O   0  0  0  0  0  0  0  0  0  0  0  0
   19.0352   -9.2648  -16.1613 N   0  0  0  0  0  0  0  0  0  0  0  0
   19.7582   -8.0994  -16.5166 C   0  0  1  0  0  0  0  0  0  0  0  0
   19.5685   -7.6160  -17.9424 C   0  0  0  0  0  0  0  0  0  0  0  0
   20.0141   -8.5915  -18.9670 C   0  0  0  0  0  0  0  0  0  0  0  0
   21.0788   -9.4546  -18.8356 C   0  0  0  0  0  0  0  0  0  0  0  0
   21.1860  -10.1203  -19.9880 N   0  0  0  0  0  0  0  0  0  0  0  0
   20.2375   -9.7102  -20.8273 C   0  0  0  0  0  0  0  0  0  0  0  0
   19.5177   -8.7734  -20.2044 N   0  0  0  0  0  0  0  0  0  0  0  0
   19.8005   -7.0119  -15.5649 C   0  0  0  0  0  0  0  0  0  0  0  0
   18.7852   -6.6477  -14.9165 O   0  0  0  0  0  0  0  0  0  0  0  0
   22.5113   -5.1877  -13.8580 C   0  0  0  0  0  0  0  0  0  0  0  0
   21.0484   -5.2667  -14.3088 C   0  0  2  0  0  0  0  0  0  0  0  0
   20.9994   -6.3027  -15.3182 N   0  0  0  0  0  0  0  0  0  0  0  0
   20.5910   -3.9682  -14.7892 C   0  0  0  0  0  0  0  0  0  0  0  0
   20.0988   -3.0144  -13.9206 O   0  0  0  0  0  0  0  0  0  0  0  0
   20.6382   -3.6959  -16.0097 O   0  0  0  0  0  0  0  0  0  0  0  0
  1  5  1  0
  2  1  1  0
  2  3  1  0
  4  3  1  0
  5  6  1  6
  5  4  1  0
  6  7  2  0
  6  8  1  0
  8  9  1  0
  9 16  1  0
  9 10  1  6
 10 11  1  0
 11 15  1  0
 12 11  2  0
 12 13  1  0
 13 14  1  0
 15 14  2  0
 16 20  1  0
 16 17  2  0
 19 18  1  6
 19 21  1  0
 20 19  1  0
 21 22  1  0
 23 21  2  0
M  END
$$$$
