PHA.pdb
     RDKit          3D

 23 24  0  0  1  0  0  0  0  0999 V2000
   23.5777  -12.0071  -15.9758 N   0  0  0  0  0  0  0  0  0  0  0  0
   24.0063  -13.3282  -16.4688 C   0  0  0  0  0  0  0  0  0  0  0  0
   22.7761  -13.7326  -17.2614 C   0  0  0  0  0  0  0  0  0  0  0  0
   22.3271  -12.4427  -17.9159 C   0  0  0  0  0  0  0  0  0  0  0  0
   23.1289  -11.3924  -17.1834 C   0  0  1  0  0  0  0  0  0  0  0  0
   22.3295  -10.1446  -16.9630 C   0  0  0  0  0  0  0  0  0  0  0  0
   21.9392   -9.5058  -17.9469 O   0  0  0  0  0  0  0  0  0  0  0  0
   22.0242   -9.7005  -15.6653 N   0  0  0  0  0  0  0  0  0  0  0  0
   21.1615   -8.6686  -15.2205 C   0  0  1  0  0  0  0  0  0  0  0  0
   19.9643   -9.1177  -14.4032 C   0  0  0  0  0  0  0  0  0  0  0  0
   19.1269  -10.1362  -15.0826 C   0  0  0  0  0  0  0  0  0  0  0  0
   18.0349   -9.8687  -15.8772 C   0  0  0  0  0  0  0  0  0  0  0  0
   17.5256  -11.0454  -16.2495 N   0  0  0  0  0  0  0  0  0  0  0  0
   18.2510  -12.0295  -15.7230 C   0  0  0  0  0  0  0  0  0  0  0  0
   19.2332  -11.4755  -15.0072 N   0  0  0  0  0  0  0  0  0  0  0  0
   21.7618   -7.4594  -14.7033 C   0  0  0  0  0  0  0  0  0  0  0  0
   22.5555   -7.4688  -13.7267 O   0  0  0  0  0  0  0  0  0  0  0  0
   21.8543   -3.9217  -15.8599 C   0  0  0  0  0  0  0  0  0  0  0  0
   22.1723   -5.0106  -14.8291 C   0  0  2  0  0  0  0  0  0  0  0  0
   21.4801   -6.1988  -15.2803 N   0  0  0  0  0  0  0  0  0  0  0  0
   21.7752   -4.5813  -13.4934 C   0  0  0  0  0  0  0  0  0  0  0  0
   22.5436   -3.6935  -12.7669 O   0  0  0  0  0  0  0  0  0  0  0  0
   20.7200   -5.0160  -12.9799 O   0  0  0  0  0  0  0  0  0  0  0  0
  1  5  1  0
  2  1  1  0
  2  3  1  0
  4  3  1  0
  5  6  1  1
  5  4  1  0
  6  7  2  0
  6  8  1  0
  8  9  1  0
  9 16  1  0
  9 10  1  1
 10 11  1  0
 11 15  1  0
 12 11  2  0
 12 13  1  0
 13 14  1  0
 15 14  2  0
 16 20  1  0
 16 17  2  0
 19 18  1  6
 19 21  1  0
 20 19  1  0
 21 22  1  0
 23 21  2  0
M  END
$$$$
