PHA.pdb
     RDKit          3D

 23 24  0  0  1  0  0  0  0  0999 V2000
   26.3080  -18.7808  -15.5316 N   0  0  0  0  0  0  0  0  0  0  0  0
   27.6731  -18.4262  -15.9596 C   0  0  0  0  0  0  0  0  0  0  0  0
   28.4808  -19.3979  -15.1179 C   0  0  0  0  0  0  0  0  0  0  0  0
   27.6522  -20.6656  -15.1335 C   0  0  0  0  0  0  0  0  0  0  0  0
   26.3272  -20.1993  -15.6899 C   0  0  1  0  0  0  0  0  0  0  0  0
   25.1772  -20.8947  -15.0278 C   0  0  0  0  0  0  0  0  0  0  0  0
   25.0641  -22.1185  -15.1620 O   0  0  0  0  0  0  0  0  0  0  0  0
   24.2390  -20.1773  -14.2663 N   0  0  0  0  0  0  0  0  0  0  0  0
   23.0676  -20.6093  -13.5969 C   0  0  1  0  0  0  0  0  0  0  0  0
   22.9784  -20.2476  -12.1258 C   0  0  0  0  0  0  0  0  0  0  0  0
   24.1711  -20.6482  -11.3401 C   0  0  0  0  0  0  0  0  0  0  0  0
   25.2241  -21.3967  -11.8159 C   0  0  0  0  0  0  0  0  0  0  0  0
   26.0605  -21.5879  -10.7930 N   0  0  0  0  0  0  0  0  0  0  0  0
   25.5752  -20.9928   -9.7056 C   0  0  0  0  0  0  0  0  0  0  0  0
   24.4173  -20.4160  -10.0377 N   0  0  0  0  0  0  0  0  0  0  0  0
   21.8025  -20.4602  -14.2806 C   0  0  0  0  0  0  0  0  0  0  0  0
   21.4107  -19.3532  -14.7333 O   0  0  0  0  0  0  0  0  0  0  0  0
   19.4538  -22.8387  -15.8255 C   0  0  0  0  0  0  0  0  0  0  0  0
   19.7458  -21.4366  -15.2792 C   0  0  2  0  0  0  0  0  0  0  0  0
   20.9409  -21.5656  -14.4733 N   0  0  0  0  0  0  0  0  0  0  0  0
   18.5985  -20.9288  -14.5362 C   0  0  0  0  0  0  0  0  0  0  0  0
   17.5000  -20.4008  -15.1850 O   0  0  0  0  0  0  0  0  0  0  0  0
   18.5924  -20.9642  -13.2853 O   0  0  0  0  0  0  0  0  0  0  0  0
  1  5  1  0
  2  1  1  0
  2  3  1  0
  4  3  1  0
  5  6  1  1
  5  4  1  0
  6  7  2  0
  6  8  1  0
  8  9  1  0
  9 16  1  0
  9 10  1  1
 10 11  1  0
 11 15  1  0
 12 11  2  0
 12 13  1  0
 13 14  1  0
 15 14  2  0
 16 20  1  0
 16 17  2  0
 19 18  1  1
 19 21  1  0
 20 19  1  0
 21 22  1  0
 23 21  2  0
M  END
$$$$
