PHA.pdb
     RDKit          3D

 23 24  0  0  1  0  0  0  0  0999 V2000
   27.7265  -20.9224  -15.9323 N   0  0  0  0  0  0  0  0  0  0  0  0
   28.5383  -20.6893  -17.1402 C   0  0  0  0  0  0  0  0  0  0  0  0
   28.0586  -19.3009  -17.5240 C   0  0  0  0  0  0  0  0  0  0  0  0
   27.8949  -18.5942  -16.1946 C   0  0  0  0  0  0  0  0  0  0  0  0
   27.9746  -19.7250  -15.1959 C   0  0  1  0  0  0  0  0  0  0  0  0
   27.0310  -19.5156  -14.0512 C   0  0  0  0  0  0  0  0  0  0  0  0
   27.1448  -18.4936  -13.3648 O   0  0  0  0  0  0  0  0  0  0  0  0
   26.0317  -20.4582  -13.7554 N   0  0  0  0  0  0  0  0  0  0  0  0
   24.9782  -20.4222  -12.8089 C   0  0  1  0  0  0  0  0  0  0  0  0
   23.5992  -20.7593  -13.3453 C   0  0  0  0  0  0  0  0  0  0  0  0
   23.2640  -20.0600  -14.6097 C   0  0  0  0  0  0  0  0  0  0  0  0
   22.6610  -18.8257  -14.7018 C   0  0  0  0  0  0  0  0  0  0  0  0
   22.4806  -18.5756  -16.0009 N   0  0  0  0  0  0  0  0  0  0  0  0
   22.9438  -19.5970  -16.7180 C   0  0  0  0  0  0  0  0  0  0  0  0
   23.4246  -20.5083  -15.8682 N   0  0  0  0  0  0  0  0  0  0  0  0
   25.2196  -20.9964  -11.5042 C   0  0  0  0  0  0  0  0  0  0  0  0
   25.2215  -22.2395  -11.3081 O   0  0  0  0  0  0  0  0  0  0  0  0
   26.1377  -19.7094   -8.1440 C   0  0  0  0  0  0  0  0  0  0  0  0
   25.4233  -20.7263   -9.0413 C   0  0  2  0  0  0  0  0  0  0  0  0
   25.4678  -20.1758  -10.3789 N   0  0  0  0  0  0  0  0  0  0  0  0
   24.0684  -20.9692   -8.5599 C   0  0  0  0  0  0  0  0  0  0  0  0
   23.8364  -21.6649   -7.3902 O   0  0  0  0  0  0  0  0  0  0  0  0
   23.0847  -20.5457   -9.2073 O   0  0  0  0  0  0  0  0  0  0  0  0
  1  5  1  0
  2  1  1  0
  2  3  1  0
  4  3  1  0
  5  6  1  1
  5  4  1  0
  6  7  2  0
  6  8  1  0
  8  9  1  0
  9 16  1  0
  9 10  1  6
 10 11  1  0
 11 15  1  0
 12 11  2  0
 12 13  1  0
 13 14  1  0
 15 14  2  0
 16 20  1  0
 16 17  2  0
 19 18  1  1
 19 21  1  0
 20 19  1  0
 21 22  1  0
 23 21  2  0
M  END
$$$$
