PHA.pdb
     RDKit          3D

 23 24  0  0  1  0  0  0  0  0999 V2000
   44.9016  -10.4561   -6.0591 N   0  0  0  0  0  0  0  0  0  0  0  0
   46.0995  -11.2812   -5.8217 C   0  0  0  0  0  0  0  0  0  0  0  0
   45.6756  -12.5732   -6.4971 C   0  0  0  0  0  0  0  0  0  0  0  0
   44.9255  -12.1087   -7.7282 C   0  0  0  0  0  0  0  0  0  0  0  0
   44.7139  -10.6366   -7.4626 C   0  0  1  0  0  0  0  0  0  0  0  0
   43.3764  -10.1754   -7.9555 C   0  0  0  0  0  0  0  0  0  0  0  0
   43.1621  -10.1636   -9.1731 O   0  0  0  0  0  0  0  0  0  0  0  0
   42.3776   -9.7617   -7.0579 N   0  0  0  0  0  0  0  0  0  0  0  0
   41.0427   -9.3466   -7.2876 C   0  0  1  0  0  0  0  0  0  0  0  0
   40.0362   -9.7481   -6.2253 C   0  0  0  0  0  0  0  0  0  0  0  0
   38.6349   -9.4077   -6.5727 C   0  0  0  0  0  0  0  0  0  0  0  0
   38.2394   -8.6982   -7.6843 C   0  0  0  0  0  0  0  0  0  0  0  0
   36.9144   -8.5549   -7.6048 N   0  0  0  0  0  0  0  0  0  0  0  0
   36.4702   -9.1425   -6.4959 C   0  0  0  0  0  0  0  0  0  0  0  0
   37.5223   -9.6661   -5.8612 N   0  0  0  0  0  0  0  0  0  0  0  0
   40.8254   -8.0032   -7.7758 C   0  0  0  0  0  0  0  0  0  0  0  0
   41.3299   -6.9957   -7.2153 O   0  0  0  0  0  0  0  0  0  0  0  0
   39.1678   -6.5630  -10.7860 C   0  0  0  0  0  0  0  0  0  0  0  0
   39.8491   -6.4154   -9.4209 C   0  0  2  0  0  0  0  0  0  0  0  0
   40.0275   -7.7609   -8.9186 N   0  0  0  0  0  0  0  0  0  0  0  0
   39.0514   -5.5697   -8.5406 C   0  0  0  0  0  0  0  0  0  0  0  0
   39.3409   -4.2297   -8.3768 O   0  0  0  0  0  0  0  0  0  0  0  0
   38.0816   -6.0515   -7.9134 O   0  0  0  0  0  0  0  0  0  0  0  0
  1  5  1  0
  2  1  1  0
  2  3  1  0
  4  3  1  0
  5  6  1  1
  5  4  1  0
  6  7  2  0
  6  8  1  0
  8  9  1  0
  9 16  1  0
  9 10  1  1
 10 11  1  0
 11 15  1  0
 12 11  2  0
 12 13  1  0
 13 14  1  0
 15 14  2  0
 16 20  1  0
 16 17  2  0
 19 18  1  6
 19 21  1  0
 20 19  1  0
 21 22  1  0
 23 21  2  0
M  END
$$$$
