PHA.pdb
     RDKit          3D

 23 24  0  0  1  0  0  0  0  0999 V2000
   20.9880   -9.9720  -20.1833 N   0  0  0  0  0  0  0  0  0  0  0  0
   20.7457  -10.5168  -21.5312 C   0  0  0  0  0  0  0  0  0  0  0  0
   19.2709  -10.8605  -21.4223 C   0  0  0  0  0  0  0  0  0  0  0  0
   18.6923   -9.7193  -20.6119 C   0  0  0  0  0  0  0  0  0  0  0  0
   19.9220   -9.0295  -20.0693 C   0  0  1  0  0  0  0  0  0  0  0  0
   19.7034   -8.5337  -18.6724 C   0  0  0  0  0  0  0  0  0  0  0  0
   18.8284   -7.6834  -18.4724 O   0  0  0  0  0  0  0  0  0  0  0  0
   20.4740   -9.0203  -17.6029 N   0  0  0  0  0  0  0  0  0  0  0  0
   20.4366   -8.7111  -16.2209 C   0  0  1  0  0  0  0  0  0  0  0  0
   20.4351   -9.9014  -15.2795 C   0  0  0  0  0  0  0  0  0  0  0  0
   19.2017  -10.7217  -15.3577 C   0  0  0  0  0  0  0  0  0  0  0  0
   18.0469  -10.3633  -16.0161 C   0  0  0  0  0  0  0  0  0  0  0  0
   17.1584  -11.3370  -15.8037 N   0  0  0  0  0  0  0  0  0  0  0  0
   17.7087  -12.2820  -15.0445 C   0  0  0  0  0  0  0  0  0  0  0  0
   18.9609  -11.9078  -14.7696 N   0  0  0  0  0  0  0  0  0  0  0  0
   21.2720   -7.6312  -15.7454 C   0  0  0  0  0  0  0  0  0  0  0  0
   22.5286   -7.6968  -15.7635 O   0  0  0  0  0  0  0  0  0  0  0  0
   20.6218   -4.0887  -14.8787 C   0  0  0  0  0  0  0  0  0  0  0  0
   21.5459   -5.3115  -14.8942 C   0  0  2  0  0  0  0  0  0  0  0  0
   20.7058   -6.4398  -15.2342 N   0  0  0  0  0  0  0  0  0  0  0  0
   22.2207   -5.4581  -13.6099 C   0  0  0  0  0  0  0  0  0  0  0  0
   21.9034   -6.4874  -12.7460 O   0  0  0  0  0  0  0  0  0  0  0  0
   23.1074   -4.6440  -13.2678 O   0  0  0  0  0  0  0  0  0  0  0  0
  1  5  1  0
  2  1  1  0
  2  3  1  0
  4  3  1  0
  5  6  1  1
  5  4  1  0
  6  7  2  0
  6  8  1  0
  8  9  1  0
  9 16  1  0
  9 10  1  1
 10 11  1  0
 11 15  1  0
 12 11  2  0
 12 13  1  0
 13 14  1  0
 15 14  2  0
 16 20  1  0
 16 17  2  0
 19 18  1  1
 19 21  1  0
 20 19  1  0
 21 22  1  0
 23 21  2  0
M  END
$$$$
