PHA.pdb
     RDKit          3D

 23 24  0  0  1  0  0  0  0  0999 V2000
   21.8265  -10.8697  -16.1970 N   0  0  0  0  0  0  0  0  0  0  0  0
   21.8667  -12.1619  -16.9047 C   0  0  0  0  0  0  0  0  0  0  0  0
   20.3806  -12.4293  -17.0628 C   0  0  0  0  0  0  0  0  0  0  0  0
   19.7973  -11.0644  -17.3640 C   0  0  0  0  0  0  0  0  0  0  0  0
   20.9328  -10.1270  -17.0259 C   0  0  1  0  0  0  0  0  0  0  0  0
   20.4336   -8.8640  -16.3931 C   0  0  0  0  0  0  0  0  0  0  0  0
   19.6517   -8.1479  -17.0290 O   0  0  0  0  0  0  0  0  0  0  0  0
   20.8412   -8.4920  -15.1008 N   0  0  0  0  0  0  0  0  0  0  0  0
   20.4469   -7.4030  -14.2849 C   0  0  1  0  0  0  0  0  0  0  0  0
   20.2839   -7.7118  -12.8081 C   0  0  0  0  0  0  0  0  0  0  0  0
   19.1326   -8.5974  -12.5077 C   0  0  0  0  0  0  0  0  0  0  0  0
   18.1503   -8.9583  -13.4024 C   0  0  0  0  0  0  0  0  0  0  0  0
   17.2721   -9.7107  -12.7352 N   0  0  0  0  0  0  0  0  0  0  0  0
   17.6642   -9.8331  -11.4690 C   0  0  0  0  0  0  0  0  0  0  0  0
   18.8042   -9.1520  -11.3264 N   0  0  0  0  0  0  0  0  0  0  0  0
   21.0745   -6.1213  -14.5158 C   0  0  0  0  0  0  0  0  0  0  0  0
   22.3008   -5.9276  -14.3094 O   0  0  0  0  0  0  0  0  0  0  0  0
   20.0532   -3.0889  -16.3569 C   0  0  0  0  0  0  0  0  0  0  0  0
   20.9913   -3.7864  -15.3656 C   0  0  2  0  0  0  0  0  0  0  0  0
   20.3284   -5.0169  -14.9901 N   0  0  0  0  0  0  0  0  0  0  0  0
   21.2776   -2.9140  -14.2328 C   0  0  0  0  0  0  0  0  0  0  0  0
   22.1156   -1.8241  -14.3601 O   0  0  0  0  0  0  0  0  0  0  0  0
   20.7621   -3.1428  -13.1156 O   0  0  0  0  0  0  0  0  0  0  0  0
  1  5  1  0
  2  1  1  0
  2  3  1  0
  4  3  1  0
  5  6  1  1
  5  4  1  0
  6  7  2  0
  6  8  1  0
  8  9  1  0
  9 16  1  0
  9 10  1  1
 10 11  1  0
 11 15  1  0
 12 11  2  0
 12 13  1  0
 13 14  1  0
 15 14  2  0
 16 20  1  0
 16 17  2  0
 19 18  1  6
 19 21  1  0
 20 19  1  0
 21 22  1  0
 23 21  2  0
M  END
$$$$
