PHA.pdb
     RDKit          3D

 23 24  0  0  1  0  0  0  0  0999 V2000
   19.9122  -10.2485  -18.8982 N   0  0  0  0  0  0  0  0  0  0  0  0
   19.4170  -11.4421  -19.6071 C   0  0  0  0  0  0  0  0  0  0  0  0
   19.3779  -12.4389  -18.4625 C   0  0  0  0  0  0  0  0  0  0  0  0
   18.8938  -11.6188  -17.2848 C   0  0  0  0  0  0  0  0  0  0  0  0
   19.0219  -10.1984  -17.7836 C   0  0  1  0  0  0  0  0  0  0  0  0
   19.4708   -9.2716  -16.6954 C   0  0  0  0  0  0  0  0  0  0  0  0
   18.8881   -9.3063  -15.6055 O   0  0  0  0  0  0  0  0  0  0  0  0
   20.5337   -8.3757  -16.9007 N   0  0  0  0  0  0  0  0  0  0  0  0
   21.0926   -7.3934  -16.0464 C   0  0  1  0  0  0  0  0  0  0  0  0
   22.5087   -7.6621  -15.5718 C   0  0  0  0  0  0  0  0  0  0  0  0
   22.7266   -9.0523  -15.1028 C   0  0  0  0  0  0  0  0  0  0  0  0
   21.7636  -10.0347  -15.0477 C   0  0  0  0  0  0  0  0  0  0  0  0
   22.3399  -11.1170  -14.5194 N   0  0  0  0  0  0  0  0  0  0  0  0
   23.6151  -10.8513  -14.2446 C   0  0  0  0  0  0  0  0  0  0  0  0
   23.8551   -9.5867  -14.6011 N   0  0  0  0  0  0  0  0  0  0  0  0
   20.8754   -6.0033  -16.3792 C   0  0  0  0  0  0  0  0  0  0  0  0
   21.1966   -5.5227  -17.4970 O   0  0  0  0  0  0  0  0  0  0  0  0
   18.9702   -3.2270  -14.8393 C   0  0  0  0  0  0  0  0  0  0  0  0
   20.0488   -3.7300  -15.8052 C   0  0  2  0  0  0  0  0  0  0  0  0
   20.2845   -5.1134  -15.4516 N   0  0  0  0  0  0  0  0  0  0  0  0
   21.2430   -2.8980  -15.7157 C   0  0  0  0  0  0  0  0  0  0  0  0
   21.4173   -1.8021  -16.5372 O   0  0  0  0  0  0  0  0  0  0  0  0
   22.1377   -3.1680  -14.8835 O   0  0  0  0  0  0  0  0  0  0  0  0
  1  5  1  0
  2  1  1  0
  2  3  1  0
  4  3  1  0
  5  6  1  1
  5  4  1  0
  6  7  2  0
  6  8  1  0
  8  9  1  0
  9 16  1  0
  9 10  1  6
 10 11  1  0
 11 15  1  0
 12 11  2  0
 12 13  1  0
 13 14  1  0
 15 14  2  0
 16 20  1  0
 16 17  2  0
 19 18  1  1
 19 21  1  0
 20 19  1  0
 21 22  1  0
 23 21  2  0
M  END
$$$$
