STS.pdb
     RDKit          3D

 20 19  0  0  1  0  0  0  0  0999 V2000
   26.7977  -25.2149  -16.9785 O   0  0  0  0  0  0  0  0  0  0  0  0
   27.4737  -24.5089  -17.9732 C   0  0  0  0  0  0  0  0  0  0  0  0
   28.6185  -23.7759  -17.3069 C   0  0  2  0  0  0  0  0  0  0  0  0
   29.4512  -24.7935  -16.6767 N   0  0  0  0  0  0  0  0  0  0  0  0
   28.1597  -22.8479  -16.2621 C   0  0  0  0  0  0  0  0  0  0  0  0
   28.7095  -22.7862  -15.1331 O   0  0  0  0  0  0  0  0  0  0  0  0
   28.3251  -19.2521  -15.9342 C   0  0  0  0  0  0  0  0  0  0  0  0
   26.8882  -19.6192  -16.1108 C   0  0  1  0  0  0  0  0  0  0  0  0
   26.4765  -19.5637  -17.4422 O   0  0  0  0  0  0  0  0  0  0  0  0
   26.5890  -21.0112  -15.5397 C   0  0  2  0  0  0  0  0  0  0  0  0
   27.0656  -21.9822  -16.5037 N   0  0  0  0  0  0  0  0  0  0  0  0
   25.0972  -21.1048  -15.4768 C   0  0  0  0  0  0  0  0  0  0  0  0
   24.4399  -21.6272  -16.4276 O   0  0  0  0  0  0  0  0  0  0  0  0
   22.9120  -21.3383  -12.0857 O   0  0  0  0  0  0  0  0  0  0  0  0
   22.4469  -20.3608  -12.9525 C   0  0  0  0  0  0  0  0  0  0  0  0
   22.9002  -20.7642  -14.3564 C   0  0  2  0  0  0  0  0  0  0  0  0
   24.3501  -20.6269  -14.3778 N   0  0  0  0  0  0  0  0  0  0  0  0
   22.2573  -19.9399  -15.3869 C   0  0  0  0  0  0  0  0  0  0  0  0
   20.9781  -20.1758  -15.8525 O   0  0  0  0  0  0  0  0  0  0  0  0
   22.8917  -18.9799  -15.8680 O   0  0  0  0  0  0  0  0  0  0  0  0
  2  1  1  0
  3  4  1  1
  3  2  1  0
  5  3  1  0
  5  6  2  0
  8  7  1  6
  8 10  1  0
  9  8  1  0
 10 11  1  6
 10 12  1  0
 11  5  1  0
 12 13  2  0
 12 17  1  0
 14 15  1  0
 16 15  1  1
 16 18  1  0
 17 16  1  0
 18 20  2  0
 18 19  1  0
M  END
$$$$
