STS.pdb
     RDKit          3D

 20 19  0  0  1  0  0  0  0  0999 V2000
   17.2694  -11.2384  -18.7056 O   0  0  0  0  0  0  0  0  0  0  0  0
   17.8147  -10.7338  -17.5254 C   0  0  0  0  0  0  0  0  0  0  0  0
   19.1890  -11.3481  -17.3651 C   0  0  2  0  0  0  0  0  0  0  0  0
   18.9801  -12.7637  -17.0849 N   0  0  0  0  0  0  0  0  0  0  0  0
   19.9382  -10.7646  -16.2419 C   0  0  0  0  0  0  0  0  0  0  0  0
   19.7065  -11.0798  -15.0470 O   0  0  0  0  0  0  0  0  0  0  0  0
   23.4088  -10.9958  -15.1851 C   0  0  0  0  0  0  0  0  0  0  0  0
   23.1815   -9.5783  -15.5969 C   0  0  1  0  0  0  0  0  0  0  0  0
   23.5820   -9.3264  -16.9088 O   0  0  0  0  0  0  0  0  0  0  0  0
   21.7130   -9.1705  -15.4224 C   0  0  2  0  0  0  0  0  0  0  0  0
   20.9602   -9.8139  -16.4800 N   0  0  0  0  0  0  0  0  0  0  0  0
   21.6787   -7.6927  -15.6533 C   0  0  0  0  0  0  0  0  0  0  0  0
   21.4970   -7.2227  -16.8173 O   0  0  0  0  0  0  0  0  0  0  0  0
   20.1995   -3.6557  -15.3859 O   0  0  0  0  0  0  0  0  0  0  0  0
   20.2818   -5.0113  -15.1053 C   0  0  0  0  0  0  0  0  0  0  0  0
   21.7617   -5.3267  -14.8830 C   0  0  2  0  0  0  0  0  0  0  0  0
   21.8433   -6.7552  -14.6102 N   0  0  0  0  0  0  0  0  0  0  0  0
   22.3234   -4.5275  -13.7873 C   0  0  0  0  0  0  0  0  0  0  0  0
   22.7980   -3.2412  -13.9579 O   0  0  0  0  0  0  0  0  0  0  0  0
   22.3771   -5.0289  -12.6466 O   0  0  0  0  0  0  0  0  0  0  0  0
  2  1  1  0
  3  4  1  1
  3  2  1  0
  5  3  1  0
  5  6  2  0
  8  7  1  6
  8 10  1  0
  9  8  1  0
 10 11  1  6
 10 12  1  0
 11  5  1  0
 12 13  2  0
 12 17  1  0
 14 15  1  0
 16 15  1  1
 16 18  1  0
 17 16  1  0
 18 20  2  0
 18 19  1  0
M  END
$$$$
