STS.pdb
     RDKit          3D

 20 19  0  0  1  0  0  0  0  0999 V2000
   17.7396  -13.0044  -17.7671 O   0  0  0  0  0  0  0  0  0  0  0  0
   18.3554  -12.4550  -16.6429 C   0  0  0  0  0  0  0  0  0  0  0  0
   18.5726  -10.9830  -16.9220 C   0  0  2  0  0  0  0  0  0  0  0  0
   19.4899  -10.9066  -18.0528 N   0  0  0  0  0  0  0  0  0  0  0  0
   19.1870  -10.2799  -15.7855 C   0  0  0  0  0  0  0  0  0  0  0  0
   18.7016  -10.3284  -14.6267 O   0  0  0  0  0  0  0  0  0  0  0  0
   22.6659  -10.6604  -14.4086 C   0  0  0  0  0  0  0  0  0  0  0  0
   22.5079   -9.2641  -14.9147 C   0  0  1  0  0  0  0  0  0  0  0  0
   23.0259   -9.0933  -16.1983 O   0  0  0  0  0  0  0  0  0  0  0  0
   21.0397   -8.8202  -14.8915 C   0  0  2  0  0  0  0  0  0  0  0  0
   20.3642   -9.5147  -15.9689 N   0  0  0  0  0  0  0  0  0  0  0  0
   21.0591   -7.3592  -15.2136 C   0  0  0  0  0  0  0  0  0  0  0  0
   21.0788   -6.9613  -16.4179 O   0  0  0  0  0  0  0  0  0  0  0  0
   19.8737   -2.9790  -14.4907 O   0  0  0  0  0  0  0  0  0  0  0  0
   19.8457   -4.3011  -14.0730 C   0  0  0  0  0  0  0  0  0  0  0  0
   21.1324   -4.9520  -14.5827 C   0  0  2  0  0  0  0  0  0  0  0  0
   21.0567   -6.3597  -14.2161 N   0  0  0  0  0  0  0  0  0  0  0  0
   22.3230   -4.3035  -14.0198 C   0  0  0  0  0  0  0  0  0  0  0  0
   22.9905   -3.2722  -14.6521 O   0  0  0  0  0  0  0  0  0  0  0  0
   22.7563   -4.6984  -12.9191 O   0  0  0  0  0  0  0  0  0  0  0  0
  2  1  1  0
  3  4  1  6
  3  2  1  0
  5  3  1  0
  5  6  2  0
  8  7  1  6
  8 10  1  0
  9  8  1  0
 10 11  1  6
 10 12  1  0
 11  5  1  0
 12 13  2  0
 12 17  1  0
 14 15  1  0
 16 15  1  1
 16 18  1  0
 17 16  1  0
 18 20  2  0
 18 19  1  0
M  END
$$$$
