STS.pdb
     RDKit          3D

 20 19  0  0  1  0  0  0  0  0999 V2000
   16.7488  -10.3122  -14.5401 O   0  0  0  0  0  0  0  0  0  0  0  0
   16.8063  -11.6470  -14.9401 C   0  0  0  0  0  0  0  0  0  0  0  0
   17.6720  -11.7090  -16.1804 C   0  0  2  0  0  0  0  0  0  0  0  0
   17.6927  -13.1047  -16.6020 N   0  0  0  0  0  0  0  0  0  0  0  0
   19.0573  -11.2885  -15.9208 C   0  0  0  0  0  0  0  0  0  0  0  0
   19.8691  -12.0113  -15.2888 O   0  0  0  0  0  0  0  0  0  0  0  0
   22.0666  -10.6211  -17.9299 C   0  0  0  0  0  0  0  0  0  0  0  0
   21.5850   -9.3160  -17.3862 C   0  0  1  0  0  0  0  0  0  0  0  0
   20.7790   -8.6205  -18.2870 O   0  0  0  0  0  0  0  0  0  0  0  0
   20.8321   -9.5016  -16.0626 C   0  0  2  0  0  0  0  0  0  0  0  0
   19.5236  -10.0344  -16.3842 N   0  0  0  0  0  0  0  0  0  0  0  0
   20.6549   -8.1237  -15.5074 C   0  0  0  0  0  0  0  0  0  0  0  0
   19.6039   -7.4567  -15.7516 O   0  0  0  0  0  0  0  0  0  0  0  0
   22.0223   -4.7345  -12.4399 O   0  0  0  0  0  0  0  0  0  0  0  0
   22.3173   -5.9748  -12.9857 C   0  0  0  0  0  0  0  0  0  0  0  0
   21.4239   -6.1389  -14.2162 C   0  0  2  0  0  0  0  0  0  0  0  0
   21.6273   -7.4991  -14.6960 N   0  0  0  0  0  0  0  0  0  0  0  0
   21.7394   -5.1423  -15.2468 C   0  0  0  0  0  0  0  0  0  0  0  0
   21.0456   -3.9557  -15.3865 O   0  0  0  0  0  0  0  0  0  0  0  0
   22.6771   -5.3730  -16.0360 O   0  0  0  0  0  0  0  0  0  0  0  0
  2  1  1  0
  3  4  1  1
  3  2  1  0
  5  3  1  0
  5  6  2  0
  8  7  1  6
  8 10  1  0
  9  8  1  0
 10 11  1  6
 10 12  1  0
 11  5  1  0
 12 13  2  0
 12 17  1  0
 14 15  1  0
 16 15  1  1
 16 18  1  0
 17 16  1  0
 18 20  2  0
 18 19  1  0
M  END
$$$$
