STS.pdb
     RDKit          3D

 20 19  0  0  1  0  0  0  0  0999 V2000
   16.6564  -10.7507  -18.7844 O   0  0  0  0  0  0  0  0  0  0  0  0
   17.0784  -10.1903  -17.5791 C   0  0  0  0  0  0  0  0  0  0  0  0
   18.1714  -11.0800  -17.0264 C   0  0  2  0  0  0  0  0  0  0  0  0
   17.5216  -12.3077  -16.5828 N   0  0  0  0  0  0  0  0  0  0  0  0
   18.8543  -10.4797  -15.8704 C   0  0  0  0  0  0  0  0  0  0  0  0
   18.4223  -10.6084  -14.6966 O   0  0  0  0  0  0  0  0  0  0  0  0
   22.1561  -11.1875  -14.5514 C   0  0  0  0  0  0  0  0  0  0  0  0
   22.1859   -9.7551  -14.9732 C   0  0  1  0  0  0  0  0  0  0  0  0
   22.7604   -9.5745  -16.2311 O   0  0  0  0  0  0  0  0  0  0  0  0
   20.7829   -9.1348  -14.9570 C   0  0  2  0  0  0  0  0  0  0  0  0
   20.0394   -9.7262  -16.0510 N   0  0  0  0  0  0  0  0  0  0  0  0
   20.9847   -7.6829  -15.2567 C   0  0  0  0  0  0  0  0  0  0  0  0
   20.6704   -7.2051  -16.3889 O   0  0  0  0  0  0  0  0  0  0  0  0
   20.1846   -3.5300  -15.0595 O   0  0  0  0  0  0  0  0  0  0  0  0
   20.1388   -4.8935  -14.8108 C   0  0  0  0  0  0  0  0  0  0  0  0
   21.5835   -5.3542  -14.6111 C   0  0  2  0  0  0  0  0  0  0  0  0
   21.5256   -6.7794  -14.3159 N   0  0  0  0  0  0  0  0  0  0  0  0
   22.2455   -4.6000  -13.5399 C   0  0  0  0  0  0  0  0  0  0  0  0
   22.8413   -3.3697  -13.7403 O   0  0  0  0  0  0  0  0  0  0  0  0
   22.2743   -5.0887  -12.3928 O   0  0  0  0  0  0  0  0  0  0  0  0
  2  1  1  0
  3  4  1  1
  3  2  1  0
  5  3  1  0
  5  6  2  0
  8  7  1  6
  8 10  1  0
  9  8  1  0
 10 11  1  6
 10 12  1  0
 11  5  1  0
 12 13  2  0
 12 17  1  0
 14 15  1  0
 16 15  1  1
 16 18  1  0
 17 16  1  0
 18 20  2  0
 18 19  1  0
M  END
$$$$
