STS.pdb
     RDKit          3D

 20 19  0  0  1  0  0  0  0  0999 V2000
   16.6723  -10.6314  -18.2279 O   0  0  0  0  0  0  0  0  0  0  0  0
   17.1512  -10.4559  -16.9299 C   0  0  0  0  0  0  0  0  0  0  0  0
   18.5437  -11.0476  -16.8794 C   0  0  2  0  0  0  0  0  0  0  0  0
   18.3819  -12.4614  -16.5613 N   0  0  0  0  0  0  0  0  0  0  0  0
   19.3772  -10.4353  -15.8336 C   0  0  0  0  0  0  0  0  0  0  0  0
   19.3059  -10.7879  -14.6288 O   0  0  0  0  0  0  0  0  0  0  0  0
   22.9691  -10.5029  -15.3346 C   0  0  0  0  0  0  0  0  0  0  0  0
   22.6108   -9.0770  -15.5976 C   0  0  1  0  0  0  0  0  0  0  0  0
   22.8037   -8.7086  -16.9288 O   0  0  0  0  0  0  0  0  0  0  0  0
   21.1636   -8.7759  -15.1873 C   0  0  2  0  0  0  0  0  0  0  0  0
   20.3000   -9.4126  -16.1611 N   0  0  0  0  0  0  0  0  0  0  0  0
   21.0106   -7.2937  -15.3215 C   0  0  0  0  0  0  0  0  0  0  0  0
   20.3909   -6.7929  -16.3085 O   0  0  0  0  0  0  0  0  0  0  0  0
   19.5925   -3.3638  -14.3487 O   0  0  0  0  0  0  0  0  0  0  0  0
   19.8301   -4.7198  -14.1808 C   0  0  0  0  0  0  0  0  0  0  0  0
   21.3028   -4.9549  -14.5198 C   0  0  2  0  0  0  0  0  0  0  0  0
   21.5365   -6.3855  -14.3767 N   0  0  0  0  0  0  0  0  0  0  0  0
   22.1869   -4.1667  -13.6528 C   0  0  0  0  0  0  0  0  0  0  0  0
   22.6296   -2.8992  -13.9789 O   0  0  0  0  0  0  0  0  0  0  0  0
   22.5589   -4.6601  -12.5694 O   0  0  0  0  0  0  0  0  0  0  0  0
  2  1  1  0
  3  4  1  1
  3  2  1  0
  5  3  1  0
  5  6  2  0
  8  7  1  6
  8 10  1  0
  9  8  1  0
 10 11  1  6
 10 12  1  0
 11  5  1  0
 12 13  2  0
 12 17  1  0
 14 15  1  0
 16 15  1  1
 16 18  1  0
 17 16  1  0
 18 20  2  0
 18 19  1  0
M  END
$$$$
