STS.pdb
     RDKit          3D

 20 19  0  0  1  0  0  0  0  0999 V2000
   19.0183  -13.3199  -15.3478 O   0  0  0  0  0  0  0  0  0  0  0  0
   18.8229  -12.2597  -16.2326 C   0  0  0  0  0  0  0  0  0  0  0  0
   17.6642  -11.4403  -15.7053 C   0  0  2  0  0  0  0  0  0  0  0  0
   16.4905  -11.8411  -16.4720 N   0  0  0  0  0  0  0  0  0  0  0  0
   17.8644   -9.9957  -15.8959 C   0  0  0  0  0  0  0  0  0  0  0  0
   17.8321   -9.4596  -17.0327 O   0  0  0  0  0  0  0  0  0  0  0  0
   15.9082   -7.0499  -14.9109 C   0  0  0  0  0  0  0  0  0  0  0  0
   17.1823   -7.0327  -14.1319 C   0  0  1  0  0  0  0  0  0  0  0  0
   17.0509   -7.6104  -12.8694 O   0  0  0  0  0  0  0  0  0  0  0  0
   18.3182   -7.7247  -14.8962 C   0  0  2  0  0  0  0  0  0  0  0  0
   18.1036   -9.1532  -14.7833 N   0  0  0  0  0  0  0  0  0  0  0  0
   19.5693   -7.3773  -14.1529 C   0  0  0  0  0  0  0  0  0  0  0  0
   19.9717   -8.0973  -13.1892 O   0  0  0  0  0  0  0  0  0  0  0  0
   22.6313   -6.0842  -15.8366 O   0  0  0  0  0  0  0  0  0  0  0  0
   22.7233   -6.6035  -14.5540 C   0  0  0  0  0  0  0  0  0  0  0  0
   21.5875   -5.9785  -13.7426 C   0  0  2  0  0  0  0  0  0  0  0  0
   20.3580   -6.2511  -14.4746 N   0  0  0  0  0  0  0  0  0  0  0  0
   21.7976   -4.5395  -13.5429 C   0  0  0  0  0  0  0  0  0  0  0  0
   20.9823   -3.5732  -14.1001 O   0  0  0  0  0  0  0  0  0  0  0  0
   22.7561   -4.1663  -12.8376 O   0  0  0  0  0  0  0  0  0  0  0  0
  2  1  1  0
  3  4  1  6
  3  2  1  0
  5  3  1  0
  5  6  2  0
  8  7  1  6
  8 10  1  0
  9  8  1  0
 10 11  1  1
 10 12  1  0
 11  5  1  0
 12 13  2  0
 12 17  1  0
 14 15  1  0
 16 15  1  6
 16 18  1  0
 17 16  1  0
 18 20  2  0
 18 19  1  0
M  END
$$$$
