STS.pdb
     RDKit          3D

 20 19  0  0  1  0  0  0  0  0999 V2000
   21.6033  -10.0869  -15.8547 O   0  0  0  0  0  0  0  0  0  0  0  0
   21.5028   -9.0657  -14.9103 C   0  0  0  0  0  0  0  0  0  0  0  0
   21.2837   -7.7725  -15.6662 C   0  0  2  0  0  0  0  0  0  0  0  0
   22.5469   -7.4573  -16.3229 N   0  0  0  0  0  0  0  0  0  0  0  0
   20.9379   -6.6531  -14.7770 C   0  0  0  0  0  0  0  0  0  0  0  0
   21.8047   -6.0422  -14.1016 O   0  0  0  0  0  0  0  0  0  0  0  0
   19.3890   -3.2930  -15.5776 C   0  0  0  0  0  0  0  0  0  0  0  0
   18.4417   -4.1202  -14.7720 C   0  0  1  0  0  0  0  0  0  0  0  0
   17.5387   -4.8306  -15.5625 O   0  0  0  0  0  0  0  0  0  0  0  0
   19.1882   -5.0913  -13.8485 C   0  0  2  0  0  0  0  0  0  0  0  0
   19.5938   -6.2246  -14.6550 N   0  0  0  0  0  0  0  0  0  0  0  0
   18.1713   -5.5606  -12.8565 C   0  0  0  0  0  0  0  0  0  0  0  0
   17.4400   -6.5669  -13.1047 O   0  0  0  0  0  0  0  0  0  0  0  0
   16.1700   -5.0982   -8.5145 O   0  0  0  0  0  0  0  0  0  0  0  0
   17.0552   -4.5541   -9.4329 C   0  0  0  0  0  0  0  0  0  0  0  0
   16.9031   -5.3607  -10.7234 C   0  0  2  0  0  0  0  0  0  0  0  0
   17.9710   -4.9234  -11.6123 N   0  0  0  0  0  0  0  0  0  0  0  0
   15.5778   -5.1688  -11.3247 C   0  0  0  0  0  0  0  0  0  0  0  0
   15.2701   -4.1032  -12.1487 O   0  0  0  0  0  0  0  0  0  0  0  0
   14.6840   -6.0044  -11.0836 O   0  0  0  0  0  0  0  0  0  0  0  0
  2  1  1  0
  3  4  1  1
  3  2  1  0
  5  3  1  0
  5  6  2  0
  8  7  1  6
  8 10  1  0
  9  8  1  0
 10 11  1  6
 10 12  1  0
 11  5  1  0
 12 13  2  0
 12 17  1  0
 14 15  1  0
 16 15  1  1
 16 18  1  0
 17 16  1  0
 18 20  2  0
 18 19  1  0
M  END
$$$$
