STS.pdb
     RDKit          3D

 20 19  0  0  1  0  0  0  0  0999 V2000
   15.7535   -9.7687  -17.6964 O   0  0  0  0  0  0  0  0  0  0  0  0
   16.3707   -9.2684  -16.5502 C   0  0  0  0  0  0  0  0  0  0  0  0
   17.2921  -10.3492  -16.0260 C   0  0  2  0  0  0  0  0  0  0  0  0
   16.4458  -11.3181  -15.3396 N   0  0  0  0  0  0  0  0  0  0  0  0
   18.2729   -9.8319  -15.0597 C   0  0  0  0  0  0  0  0  0  0  0  0
   18.0964   -9.9142  -13.8175 O   0  0  0  0  0  0  0  0  0  0  0  0
   22.0496  -10.5379  -14.5834 C   0  0  0  0  0  0  0  0  0  0  0  0
   21.8210   -9.1368  -15.0477 C   0  0  1  0  0  0  0  0  0  0  0  0
   21.9636   -8.9955  -16.4278 O   0  0  0  0  0  0  0  0  0  0  0  0
   20.4412   -8.6206  -14.6198 C   0  0  2  0  0  0  0  0  0  0  0  0
   19.4652   -9.2154  -15.5103 N   0  0  0  0  0  0  0  0  0  0  0  0
   20.4706   -7.1462  -14.8722 C   0  0  0  0  0  0  0  0  0  0  0  0
   20.1443   -6.6759  -16.0042 O   0  0  0  0  0  0  0  0  0  0  0  0
   19.7610   -2.7902  -13.8402 O   0  0  0  0  0  0  0  0  0  0  0  0
   19.7034   -4.1435  -13.5427 C   0  0  0  0  0  0  0  0  0  0  0  0
   20.9224   -4.7919  -14.2004 C   0  0  2  0  0  0  0  0  0  0  0  0
   20.8553   -6.2124  -13.8852 N   0  0  0  0  0  0  0  0  0  0  0  0
   22.1738   -4.1857  -13.7298 C   0  0  0  0  0  0  0  0  0  0  0  0
   22.8059   -3.1501  -14.3909 O   0  0  0  0  0  0  0  0  0  0  0  0
   22.6949   -4.6225  -12.6843 O   0  0  0  0  0  0  0  0  0  0  0  0
  2  1  1  0
  3  4  1  1
  3  2  1  0
  5  3  1  0
  5  6  2  0
  8  7  1  6
  8 10  1  0
  9  8  1  0
 10 11  1  6
 10 12  1  0
 11  5  1  0
 12 13  2  0
 12 17  1  0
 14 15  1  0
 16 15  1  1
 16 18  1  0
 17 16  1  0
 18 20  2  0
 18 19  1  0
M  END
$$$$
