STS.pdb
     RDKit          3D

 20 19  0  0  1  0  0  0  0  0999 V2000
   14.8369   -9.5502  -12.1913 O   0  0  0  0  0  0  0  0  0  0  0  0
   15.4852   -8.3164  -12.2384 C   0  0  0  0  0  0  0  0  0  0  0  0
   16.7548   -8.4428  -11.4237 C   0  0  2  0  0  0  0  0  0  0  0  0
   16.3491   -8.4547  -10.0233 N   0  0  0  0  0  0  0  0  0  0  0  0
   17.6682   -7.3078  -11.6263 C   0  0  0  0  0  0  0  0  0  0  0  0
   17.6302   -6.2805  -10.9025 O   0  0  0  0  0  0  0  0  0  0  0  0
   21.4836   -7.2512  -11.4963 C   0  0  0  0  0  0  0  0  0  0  0  0
   20.9970   -6.9732  -12.8807 C   0  0  1  0  0  0  0  0  0  0  0  0
   20.9485   -8.1178  -13.6759 O   0  0  0  0  0  0  0  0  0  0  0  0
   19.6188   -6.2996  -12.8678 C   0  0  2  0  0  0  0  0  0  0  0  0
   18.6336   -7.3418  -12.6616 N   0  0  0  0  0  0  0  0  0  0  0  0
   19.4333   -5.7433  -14.2442 C   0  0  0  0  0  0  0  0  0  0  0  0
   19.0280   -6.4818  -15.1925 O   0  0  0  0  0  0  0  0  0  0  0  0
   18.1936   -2.3072  -14.8210 O   0  0  0  0  0  0  0  0  0  0  0  0
   18.1834   -3.1394  -15.9303 C   0  0  0  0  0  0  0  0  0  0  0  0
   19.5080   -3.9040  -15.9203 C   0  0  2  0  0  0  0  0  0  0  0  0
   19.6933   -4.3918  -14.5604 N   0  0  0  0  0  0  0  0  0  0  0  0
   20.6233   -3.0535  -16.3532 C   0  0  0  0  0  0  0  0  0  0  0  0
   20.7118   -2.5127  -17.6215 O   0  0  0  0  0  0  0  0  0  0  0  0
   21.5368   -2.8044  -15.5415 O   0  0  0  0  0  0  0  0  0  0  0  0
  2  1  1  0
  3  4  1  1
  3  2  1  0
  5  3  1  0
  5  6  2  0
  8  7  1  1
  8 10  1  0
  9  8  1  0
 10 11  1  6
 10 12  1  0
 11  5  1  0
 12 13  2  0
 12 17  1  0
 14 15  1  0
 16 15  1  1
 16 18  1  0
 17 16  1  0
 18 20  2  0
 18 19  1  0
M  END
$$$$
