STS.pdb
     RDKit          3D

 20 19  0  0  1  0  0  0  0  0999 V2000
   15.0039  -12.1074  -10.6602 O   0  0  0  0  0  0  0  0  0  0  0  0
   15.1718  -10.8804  -11.3014 C   0  0  0  0  0  0  0  0  0  0  0  0
   15.3430   -9.8292  -10.2256 C   0  0  2  0  0  0  0  0  0  0  0  0
   14.0319   -9.6438   -9.6150 N   0  0  0  0  0  0  0  0  0  0  0  0
   15.7823   -8.5350  -10.7689 C   0  0  0  0  0  0  0  0  0  0  0  0
   14.9955   -7.7585  -11.3679 O   0  0  0  0  0  0  0  0  0  0  0  0
   16.5826   -5.5630   -9.1542 C   0  0  0  0  0  0  0  0  0  0  0  0
   17.8635   -5.9925   -9.7910 C   0  0  1  0  0  0  0  0  0  0  0  0
   18.6857   -6.7078   -8.9209 O   0  0  0  0  0  0  0  0  0  0  0  0
   17.6118   -6.8224  -11.0564 C   0  0  2  0  0  0  0  0  0  0  0  0
   17.1290   -8.1201  -10.6297 N   0  0  0  0  0  0  0  0  0  0  0  0
   18.9558   -7.0054  -11.6878 C   0  0  0  0  0  0  0  0  0  0  0  0
   19.7153   -7.9567  -11.3310 O   0  0  0  0  0  0  0  0  0  0  0  0
   19.5238   -5.8173  -15.2142 O   0  0  0  0  0  0  0  0  0  0  0  0
   20.4897   -6.7102  -14.7748 C   0  0  0  0  0  0  0  0  0  0  0  0
   20.7487   -6.3902  -13.3018 C   0  0  2  0  0  0  0  0  0  0  0  0
   19.4463   -6.1475  -12.6964 N   0  0  0  0  0  0  0  0  0  0  0  0
   21.6453   -5.2377  -13.1512 C   0  0  0  0  0  0  0  0  0  0  0  0
   22.9818   -5.2706  -13.5001 O   0  0  0  0  0  0  0  0  0  0  0  0
   21.1836   -4.1762  -12.6869 O   0  0  0  0  0  0  0  0  0  0  0  0
  2  1  1  0
  3  4  1  6
  3  2  1  0
  5  3  1  0
  5  6  2  0
  8  7  1  1
  8 10  1  0
  9  8  1  0
 10 11  1  1
 10 12  1  0
 11  5  1  0
 12 13  2  0
 12 17  1  0
 14 15  1  0
 16 15  1  6
 16 18  1  0
 17 16  1  0
 18 20  2  0
 18 19  1  0
M  END
$$$$
