STS.pdb
     RDKit          3D

 20 19  0  0  1  0  0  0  0  0999 V2000
   18.1159  -11.5976  -19.4333 O   0  0  0  0  0  0  0  0  0  0  0  0
   18.3449  -10.9378  -18.2262 C   0  0  0  0  0  0  0  0  0  0  0  0
   19.6026  -11.5259  -17.6226 C   0  0  2  0  0  0  0  0  0  0  0  0
   19.2870  -12.9050  -17.2695 N   0  0  0  0  0  0  0  0  0  0  0  0
   20.0206  -10.8241  -16.3995 C   0  0  0  0  0  0  0  0  0  0  0  0
   19.5994  -11.1534  -15.2615 O   0  0  0  0  0  0  0  0  0  0  0  0
   23.1740  -10.8286  -14.8421 C   0  0  0  0  0  0  0  0  0  0  0  0
   22.9535   -9.4027  -15.2279 C   0  0  1  0  0  0  0  0  0  0  0  0
   23.5683   -9.0686  -16.4343 O   0  0  0  0  0  0  0  0  0  0  0  0
   21.4590   -9.0653  -15.3039 C   0  0  2  0  0  0  0  0  0  0  0  0
   20.9260   -9.7378  -16.4714 N   0  0  0  0  0  0  0  0  0  0  0  0
   21.3943   -7.5896  -15.5413 C   0  0  0  0  0  0  0  0  0  0  0  0
   21.5603   -7.1124  -16.7048 O   0  0  0  0  0  0  0  0  0  0  0  0
   18.8383   -5.2648  -15.2459 O   0  0  0  0  0  0  0  0  0  0  0  0
   19.7563   -4.7224  -14.3591 C   0  0  0  0  0  0  0  0  0  0  0  0
   21.1343   -5.2323  -14.7839 C   0  0  2  0  0  0  0  0  0  0  0  0
   21.1499   -6.6618  -14.5051 N   0  0  0  0  0  0  0  0  0  0  0  0
   22.2103   -4.5256  -14.0785 C   0  0  0  0  0  0  0  0  0  0  0  0
   22.5573   -3.2160  -14.3497 O   0  0  0  0  0  0  0  0  0  0  0  0
   22.8442   -5.1315  -13.1918 O   0  0  0  0  0  0  0  0  0  0  0  0
  2  1  1  0
  3  4  1  1
  3  2  1  0
  5  3  1  0
  5  6  2  0
  8  7  1  6
  8 10  1  0
  9  8  1  0
 10 11  1  6
 10 12  1  0
 11  5  1  0
 12 13  2  0
 12 17  1  0
 14 15  1  0
 16 15  1  1
 16 18  1  0
 17 16  1  0
 18 20  2  0
 18 19  1  0
M  END
$$$$
