PCM.pdb
     RDKit          3D

 22 22  0  0  1  0  0  0  0  0999 V2000
   19.8595  -11.3498  -16.8261 N   0  0  0  0  0  0  0  0  0  0  0  0
   19.3716  -12.2597  -17.8804 C   0  0  0  0  0  0  0  0  0  0  0  0
   17.9281  -11.7366  -17.9582 C   0  0  0  0  0  0  0  0  0  0  0  0
   18.2192  -10.2436  -18.1593 C   0  0  0  0  0  0  0  0  0  0  0  0
   19.4833  -10.0539  -17.3724 C   0  0  1  0  0  0  0  0  0  0  0  0
   19.3250   -9.0390  -16.3031 C   0  0  0  0  0  0  0  0  0  0  0  0
   19.1916   -7.8364  -16.7098 O   0  0  0  0  0  0  0  0  0  0  0  0
   19.3099   -9.2814  -14.9249 N   0  0  0  0  0  0  0  0  0  0  0  0
   19.2106   -8.2540  -13.9140 C   0  0  1  0  0  0  0  0  0  0  0  0
   18.7851   -8.8452  -12.5747 C   0  0  0  0  0  0  0  0  0  0  0  0
   18.8518   -7.6243  -11.2547 S   0  0  0  0  0  0  0  0  0  0  0  0
   20.4171   -7.4275  -13.7795 C   0  0  0  0  0  0  0  0  0  0  0  0
   21.5856   -7.9254  -13.7096 O   0  0  0  0  0  0  0  0  0  0  0  0
   23.0233   -5.8723  -18.2293 C   0  0  0  0  0  0  0  0  0  0  0  0
   24.1095   -5.2039  -16.9926 S   0  0  0  0  0  0  0  0  0  0  0  0
   23.3516   -4.6939  -15.4570 C   0  0  0  0  0  0  0  0  0  0  0  0
   22.1647   -5.5087  -15.0880 C   0  0  0  0  0  0  0  0  0  0  0  0
   21.4587   -5.1409  -13.8439 C   0  0  2  0  0  0  0  0  0  0  0  0
   20.2818   -6.0282  -13.7249 N   0  0  0  0  0  0  0  0  0  0  0  0
   20.9808   -3.7533  -13.8714 C   0  0  0  0  0  0  0  0  0  0  0  0
   21.7254   -2.6619  -13.5020 O   0  0  0  0  0  0  0  0  0  0  0  0
   19.7908   -3.5007  -14.2625 O   0  0  0  0  0  0  0  0  0  0  0  0
  2  1  1  0
  3  2  1  0
  4  3  1  0
  4  5  1  0
  5  1  1  0
  5  6  1  1
  6  8  1  0
  7  6  2  0
  9  8  1  0
  9 12  1  0
  9 10  1  1
 11 10  1  0
 12 19  1  0
 13 12  2  0
 14 15  1  0
 16 15  1  0
 17 16  1  0
 18 20  1  0
 18 17  1  6
 19 18  1  0
 20 21  1  0
 22 20  2  0
M  END
$$$$
