PCM.pdb
     RDKit          3D

 22 22  0  0  1  0  0  0  0  0999 V2000
   26.3597  -18.1534  -16.4206 N   0  0  0  0  0  0  0  0  0  0  0  0
   26.3846  -17.8765  -17.8699 C   0  0  0  0  0  0  0  0  0  0  0  0
   27.0300  -19.1955  -18.3248 C   0  0  0  0  0  0  0  0  0  0  0  0
   26.0761  -20.1837  -17.6408 C   0  0  0  0  0  0  0  0  0  0  0  0
   25.6941  -19.4477  -16.3897 C   0  0  1  0  0  0  0  0  0  0  0  0
   26.0454  -20.2100  -15.1674 C   0  0  0  0  0  0  0  0  0  0  0  0
   25.2853  -21.2020  -14.9076 O   0  0  0  0  0  0  0  0  0  0  0  0
   27.1098  -19.9413  -14.2995 N   0  0  0  0  0  0  0  0  0  0  0  0
   27.3568  -20.6480  -13.0637 C   0  0  1  0  0  0  0  0  0  0  0  0
   28.8517  -20.8387  -12.8334 C   0  0  0  0  0  0  0  0  0  0  0  0
   29.1989  -21.4543  -11.1787 S   0  0  0  0  0  0  0  0  0  0  0  0
   26.7025  -20.0519  -11.8917 C   0  0  0  0  0  0  0  0  0  0  0  0
   26.8126  -18.8193  -11.5974 O   0  0  0  0  0  0  0  0  0  0  0  0
   20.5571  -21.1926   -8.8427 C   0  0  0  0  0  0  0  0  0  0  0  0
   21.9746  -21.7995   -7.9604 S   0  0  0  0  0  0  0  0  0  0  0  0
   23.4966  -20.8881   -8.1730 C   0  0  0  0  0  0  0  0  0  0  0  0
   24.1631  -21.1521   -9.4749 C   0  0  0  0  0  0  0  0  0  0  0  0
   25.3736  -20.3633   -9.7812 C   0  0  2  0  0  0  0  0  0  0  0  0
   25.9214  -20.8719  -11.0570 N   0  0  0  0  0  0  0  0  0  0  0  0
   26.4067  -20.5168   -8.7497 C   0  0  0  0  0  0  0  0  0  0  0  0
   26.6494  -19.6147   -7.7450 O   0  0  0  0  0  0  0  0  0  0  0  0
   27.1551  -21.5525   -8.7519 O   0  0  0  0  0  0  0  0  0  0  0  0
  2  1  1  0
  3  2  1  0
  4  3  1  0
  4  5  1  0
  5  1  1  0
  5  6  1  1
  6  8  1  0
  7  6  2  0
  9  8  1  0
  9 12  1  0
  9 10  1  1
 11 10  1  0
 12 19  1  0
 13 12  2  0
 14 15  1  0
 16 15  1  0
 17 16  1  0
 18 20  1  0
 18 17  1  1
 19 18  1  0
 20 21  1  0
 22 20  2  0
M  END
$$$$
