PCM.pdb
     RDKit          3D

 22 22  0  0  1  0  0  0  0  0999 V2000
   27.7468  -22.4477  -16.8445 N   0  0  0  0  0  0  0  0  0  0  0  0
   28.2562  -22.5815  -18.2230 C   0  0  0  0  0  0  0  0  0  0  0  0
   27.9489  -21.1528  -18.7002 C   0  0  0  0  0  0  0  0  0  0  0  0
   28.6477  -20.3660  -17.5836 C   0  0  0  0  0  0  0  0  0  0  0  0
   28.4569  -21.2598  -16.3929 C   0  0  1  0  0  0  0  0  0  0  0  0
   27.7297  -20.5765  -15.2962 C   0  0  0  0  0  0  0  0  0  0  0  0
   28.3404  -19.5848  -14.7736 O   0  0  0  0  0  0  0  0  0  0  0  0
   26.4665  -20.9173  -14.7999 N   0  0  0  0  0  0  0  0  0  0  0  0
   25.7565  -20.1714  -13.7865 C   0  0  1  0  0  0  0  0  0  0  0  0
   24.3935  -19.7179  -14.2970 C   0  0  0  0  0  0  0  0  0  0  0  0
   23.4095  -18.9635  -12.9930 S   0  0  0  0  0  0  0  0  0  0  0  0
   25.6453  -20.8675  -12.4981 C   0  0  0  0  0  0  0  0  0  0  0  0
   25.1848  -22.0487  -12.3939 O   0  0  0  0  0  0  0  0  0  0  0  0
   29.2068  -19.3078   -6.9427 C   0  0  0  0  0  0  0  0  0  0  0  0
   27.4891  -19.3960   -6.4980 S   0  0  0  0  0  0  0  0  0  0  0  0
   26.4328  -20.3467   -7.5810 C   0  0  0  0  0  0  0  0  0  0  0  0
   26.5980  -19.9998   -9.0167 C   0  0  0  0  0  0  0  0  0  0  0  0
   25.8214  -20.7916   -9.9920 C   0  0  2  0  0  0  0  0  0  0  0  0
   26.0629  -20.2067  -11.3283 N   0  0  0  0  0  0  0  0  0  0  0  0
   24.3792  -20.7340   -9.7245 C   0  0  0  0  0  0  0  0  0  0  0  0
   23.7075  -21.5726   -8.8715 O   0  0  0  0  0  0  0  0  0  0  0  0
   23.6614  -19.8523  -10.3078 O   0  0  0  0  0  0  0  0  0  0  0  0
  2  1  1  0
  3  2  1  0
  4  3  1  0
  4  5  1  0
  5  1  1  0
  5  6  1  1
  6  8  1  0
  7  6  2  0
  9  8  1  0
  9 12  1  0
  9 10  1  6
 11 10  1  0
 12 19  1  0
 13 12  2  0
 14 15  1  0
 16 15  1  0
 17 16  1  0
 18 20  1  0
 18 17  1  1
 19 18  1  0
 20 21  1  0
 22 20  2  0
M  END
$$$$
