PCM.pdb
     RDKit          3D

 22 22  0  0  1  0  0  0  0  0999 V2000
   25.8335  -33.4140   -8.7822 N   0  0  0  0  0  0  0  0  0  0  0  0
   24.8728  -32.4217   -9.3019 C   0  0  0  0  0  0  0  0  0  0  0  0
   24.0681  -32.2110   -8.0090 C   0  0  0  0  0  0  0  0  0  0  0  0
   25.2231  -31.8898   -7.0513 C   0  0  0  0  0  0  0  0  0  0  0  0
   26.3395  -32.7287   -7.6017 C   0  0  1  0  0  0  0  0  0  0  0  0
   26.8602  -33.6881   -6.5982 C   0  0  0  0  0  0  0  0  0  0  0  0
   26.2545  -34.8109   -6.5535 O   0  0  0  0  0  0  0  0  0  0  0  0
   27.9292  -33.4727   -5.7212 N   0  0  0  0  0  0  0  0  0  0  0  0
   28.3456  -34.4004   -4.6947 C   0  0  1  0  0  0  0  0  0  0  0  0
   29.8450  -34.6644   -4.7733 C   0  0  0  0  0  0  0  0  0  0  0  0
   30.3351  -35.2504   -6.4024 S   0  0  0  0  0  0  0  0  0  0  0  0
   27.9364  -34.0155   -3.3378 C   0  0  0  0  0  0  0  0  0  0  0  0
   27.9581  -32.8106   -2.9304 O   0  0  0  0  0  0  0  0  0  0  0  0
   22.0871  -34.7520   -1.1122 C   0  0  0  0  0  0  0  0  0  0  0  0
   23.1189  -35.5238    0.1109 S   0  0  0  0  0  0  0  0  0  0  0  0
   24.8134  -34.9632    0.1933 C   0  0  0  0  0  0  0  0  0  0  0  0
   25.5619  -35.1649   -1.0748 C   0  0  0  0  0  0  0  0  0  0  0  0
   26.9525  -34.6695   -1.1193 C   0  0  2  0  0  0  0  0  0  0  0  0
   27.5023  -35.0149   -2.4478 N   0  0  0  0  0  0  0  0  0  0  0  0
   27.7962  -35.3039   -0.0993 C   0  0  0  0  0  0  0  0  0  0  0  0
   27.9025  -34.8814    1.2015 O   0  0  0  0  0  0  0  0  0  0  0  0
   28.4977  -36.3274   -0.4045 O   0  0  0  0  0  0  0  0  0  0  0  0
  2  1  1  0
  3  2  1  0
  4  3  1  0
  4  5  1  0
  5  1  1  0
  5  6  1  1
  6  8  1  0
  7  6  2  0
  9  8  1  0
  9 12  1  0
  9 10  1  1
 11 10  1  0
 12 19  1  0
 13 12  2  0
 14 15  1  0
 16 15  1  0
 17 16  1  0
 18 20  1  0
 18 17  1  6
 19 18  1  0
 20 21  1  0
 22 20  2  0
M  END
$$$$
