PCM.pdb
     RDKit          3D

 22 22  0  0  1  0  0  0  0  0999 V2000
   27.8593  -24.1259  -17.6850 N   0  0  0  0  0  0  0  0  0  0  0  0
   27.7996  -25.5669  -17.9970 C   0  0  0  0  0  0  0  0  0  0  0  0
   27.7469  -26.0927  -16.5533 C   0  0  0  0  0  0  0  0  0  0  0  0
   26.5663  -25.2622  -16.0332 C   0  0  0  0  0  0  0  0  0  0  0  0
   26.7142  -23.9792  -16.7982 C   0  0  1  0  0  0  0  0  0  0  0  0
   26.8700  -22.8108  -15.8987 C   0  0  0  0  0  0  0  0  0  0  0  0
   28.0752  -22.4958  -15.6198 O   0  0  0  0  0  0  0  0  0  0  0  0
   25.8368  -22.0461  -15.3455 N   0  0  0  0  0  0  0  0  0  0  0  0
   26.0265  -20.9976  -14.3697 C   0  0  1  0  0  0  0  0  0  0  0  0
   25.6195  -19.6429  -14.9380 C   0  0  0  0  0  0  0  0  0  0  0  0
   25.3289  -18.4335  -13.6378 S   0  0  0  0  0  0  0  0  0  0  0  0
   25.3779  -21.2572  -13.0778 C   0  0  0  0  0  0  0  0  0  0  0  0
   24.2165  -21.7674  -12.9834 O   0  0  0  0  0  0  0  0  0  0  0  0
   28.7976  -19.8944   -7.5933 C   0  0  0  0  0  0  0  0  0  0  0  0
   27.1229  -19.9421   -7.0025 S   0  0  0  0  0  0  0  0  0  0  0  0
   25.8898  -20.5410   -8.1484 C   0  0  0  0  0  0  0  0  0  0  0  0
   26.3489  -20.5359   -9.5620 C   0  0  0  0  0  0  0  0  0  0  0  0
   25.4224  -21.0890  -10.5704 C   0  0  2  0  0  0  0  0  0  0  0  0
   26.0633  -20.9303  -11.8935 N   0  0  0  0  0  0  0  0  0  0  0  0
   24.1429  -20.3700  -10.5961 C   0  0  0  0  0  0  0  0  0  0  0  0
   23.0194  -20.7472   -9.9051 O   0  0  0  0  0  0  0  0  0  0  0  0
   24.0259  -19.3101  -11.3002 O   0  0  0  0  0  0  0  0  0  0  0  0
  2  1  1  0
  3  2  1  0
  4  3  1  0
  4  5  1  0
  5  1  1  0
  5  6  1  1
  6  8  1  0
  7  6  2  0
  9  8  1  0
  9 12  1  0
  9 10  1  6
 11 10  1  0
 12 19  1  0
 13 12  2  0
 14 15  1  0
 16 15  1  0
 17 16  1  0
 18 20  1  0
 18 17  1  1
 19 18  1  0
 20 21  1  0
 22 20  2  0
M  END
$$$$
