PCM.pdb
     RDKit          3D

 22 22  0  0  1  0  0  0  0  0999 V2000
   27.9221  -21.0088  -15.9027 N   0  0  0  0  0  0  0  0  0  0  0  0
   28.5512  -19.9701  -16.7410 C   0  0  0  0  0  0  0  0  0  0  0  0
   27.5938  -18.8165  -16.4003 C   0  0  0  0  0  0  0  0  0  0  0  0
   27.6780  -18.8724  -14.8693 C   0  0  0  0  0  0  0  0  0  0  0  0
   27.8693  -20.3387  -14.6114 C   0  0  1  0  0  0  0  0  0  0  0  0
   26.7963  -20.8965  -13.7535 C   0  0  0  0  0  0  0  0  0  0  0  0
   26.0165  -21.7275  -14.3288 O   0  0  0  0  0  0  0  0  0  0  0  0
   26.5727  -20.5975  -12.4048 N   0  0  0  0  0  0  0  0  0  0  0  0
   25.3386  -20.8612  -11.7015 C   0  0  1  0  0  0  0  0  0  0  0  0
   25.4641  -20.5019  -10.2252 C   0  0  0  0  0  0  0  0  0  0  0  0
   23.9389  -20.8262   -9.3273 S   0  0  0  0  0  0  0  0  0  0  0  0
   24.1570  -20.2361  -12.3099 C   0  0  0  0  0  0  0  0  0  0  0  0
   24.1856  -19.0750  -12.8287 O   0  0  0  0  0  0  0  0  0  0  0  0
   23.4775  -20.4716  -17.4583 C   0  0  0  0  0  0  0  0  0  0  0  0
   21.7200  -20.3362  -17.2367 S   0  0  0  0  0  0  0  0  0  0  0  0
   21.1339  -20.2381  -15.5518 C   0  0  0  0  0  0  0  0  0  0  0  0
   22.1796  -20.5595  -14.5457 C   0  0  0  0  0  0  0  0  0  0  0  0
   21.7909  -20.4751  -13.1234 C   0  0  2  0  0  0  0  0  0  0  0  0
   22.9417  -20.9447  -12.3223 N   0  0  0  0  0  0  0  0  0  0  0  0
   20.6414  -21.3341  -12.8145 C   0  0  0  0  0  0  0  0  0  0  0  0
   20.7191  -22.6753  -12.5367 O   0  0  0  0  0  0  0  0  0  0  0  0
   19.4654  -20.8347  -12.7917 O   0  0  0  0  0  0  0  0  0  0  0  0
  2  1  1  0
  3  2  1  0
  4  3  1  0
  4  5  1  0
  5  1  1  0
  5  6  1  1
  6  8  1  0
  7  6  2  0
  9  8  1  0
  9 12  1  0
  9 10  1  1
 11 10  1  0
 12 19  1  0
 13 12  2  0
 14 15  1  0
 16 15  1  0
 17 16  1  0
 18 20  1  0
 18 17  1  6
 19 18  1  0
 20 21  1  0
 22 20  2  0
M  END
$$$$
