PCM.pdb
     RDKit          3D

 22 22  0  0  1  0  0  0  0  0999 V2000
   21.6200  -16.5507  -15.4202 N   0  0  0  0  0  0  0  0  0  0  0  0
   20.1999  -16.4933  -15.8174 C   0  0  0  0  0  0  0  0  0  0  0  0
   20.2501  -17.5520  -16.9310 C   0  0  0  0  0  0  0  0  0  0  0  0
   20.8913  -18.7035  -16.1455 C   0  0  0  0  0  0  0  0  0  0  0  0
   21.7936  -17.9777  -15.1904 C   0  0  1  0  0  0  0  0  0  0  0  0
   23.2108  -18.3844  -15.3471 C   0  0  0  0  0  0  0  0  0  0  0  0
   23.4667  -19.5959  -15.0365 O   0  0  0  0  0  0  0  0  0  0  0  0
   24.2616  -17.5754  -15.7940 N   0  0  0  0  0  0  0  0  0  0  0  0
   25.6425  -17.9938  -15.8681 C   0  0  1  0  0  0  0  0  0  0  0  0
   26.4788  -16.9814  -16.6427 C   0  0  0  0  0  0  0  0  0  0  0  0
   26.0414  -16.9502  -18.3877 S   0  0  0  0  0  0  0  0  0  0  0  0
   26.2444  -18.3061  -14.5654 C   0  0  0  0  0  0  0  0  0  0  0  0
   26.0731  -17.5762  -13.5377 O   0  0  0  0  0  0  0  0  0  0  0  0
   23.8837  -20.2510  -10.4371 C   0  0  0  0  0  0  0  0  0  0  0  0
   25.4709  -20.6266   -9.7329 S   0  0  0  0  0  0  0  0  0  0  0  0
   26.8758  -20.5217  -10.8318 C   0  0  0  0  0  0  0  0  0  0  0  0
   26.5240  -20.0350  -12.1913 C   0  0  0  0  0  0  0  0  0  0  0  0
   27.6362  -19.8419  -13.1436 C   0  0  2  0  0  0  0  0  0  0  0  0
   27.0439  -19.4572  -14.4427 N   0  0  0  0  0  0  0  0  0  0  0  0
   28.4101  -21.0731  -13.3437 C   0  0  0  0  0  0  0  0  0  0  0  0
   29.3287  -21.5729  -12.4559 O   0  0  0  0  0  0  0  0  0  0  0  0
   28.2447  -21.7592  -14.4090 O   0  0  0  0  0  0  0  0  0  0  0  0
  2  1  1  0
  3  2  1  0
  4  3  1  0
  4  5  1  0
  5  1  1  0
  5  6  1  6
  6  8  1  0
  7  6  2  0
  9  8  1  0
  9 12  1  0
  9 10  1  1
 11 10  1  0
 12 19  1  0
 13 12  2  0
 14 15  1  0
 16 15  1  0
 17 16  1  0
 18 20  1  0
 18 17  1  1
 19 18  1  0
 20 21  1  0
 22 20  2  0
M  END
$$$$
