NQY.pdb
     RDKit          3D

 30 30  0  0  1  0  0  0  0  0999 V2000
    7.6803  -12.5864   15.8907 N   0  0  0  0  0  0  0  0  0  0  0  0
    8.5960  -13.2619   16.7474 C   0  0  0  0  0  0  0  0  0  0  0  0
    9.7448  -13.4575   16.3113 O   0  0  0  0  0  0  0  0  0  0  0  0
    8.1933  -13.7085   18.0940 C   0  0  0  0  0  0  0  0  0  0  0  0
    8.4966  -15.1766   18.2306 C   0  0  2  0  0  0  0  0  0  0  0  0
    7.9439  -15.9124   17.1378 N   0  0  0  0  0  0  0  0  0  0  0  0
    8.0960  -15.7044   19.5613 C   0  0  0  0  0  0  0  0  0  0  0  0
    7.2676  -15.1533   20.3020 O   0  0  0  0  0  0  0  0  0  0  0  0
    8.9662  -21.7219   20.5039 N   0  0  0  0  0  0  0  0  0  0  0  0
    8.5272  -21.3281   21.7945 C   0  0  0  0  0  0  0  0  0  0  0  0
    8.3562  -22.2261   22.6440 O   0  0  0  0  0  0  0  0  0  0  0  0
    8.2662  -19.9191   22.1752 C   0  0  0  0  0  0  0  0  0  0  0  0
    8.4881  -19.0426   20.9914 C   0  0  0  0  0  0  0  0  0  0  0  0
    8.3710  -17.5734   21.2385 C   0  0  2  0  0  0  0  0  0  0  0  0
    8.7079  -16.9083   19.9899 N   0  0  0  0  0  0  0  0  0  0  0  0
    9.2298  -17.0812   22.3495 C   0  0  0  0  0  0  0  0  0  0  0  0
   10.4581  -17.3164   22.4448 O   0  0  0  0  0  0  0  0  0  0  0  0
   10.9293  -14.1028   30.6167 O   0  0  0  0  0  0  0  0  0  0  0  0
   10.4002  -14.2879   29.3517 C   0  0  0  0  0  0  0  0  0  0  0  0
   11.2563  -14.4527   28.2745 C   0  0  0  0  0  0  0  0  0  0  0  0
   10.7552  -14.6404   26.9931 C   0  0  0  0  0  0  0  0  0  0  0  0
    9.3994  -14.6709   26.7392 C   0  0  0  0  0  0  0  0  0  0  0  0
    8.7968  -14.8645   25.4113 C   0  0  0  0  0  0  0  0  0  0  0  0
    9.3858  -16.0301   24.6524 C   0  0  2  0  0  0  0  0  0  0  0  0
    8.6782  -16.2792   23.4147 N   0  0  0  0  0  0  0  0  0  0  0  0
    9.5429  -17.2312   25.4748 C   0  0  0  0  0  0  0  0  0  0  0  0
   10.7516  -17.5699   26.0415 O   0  0  0  0  0  0  0  0  0  0  0  0
    8.5579  -14.5055   27.8211 C   0  0  0  0  0  0  0  0  0  0  0  0
    9.0478  -14.3194   29.0913 C   0  0  0  0  0  0  0  0  0  0  0  0
    8.5589  -17.9744   25.6726 O   0  0  0  0  0  0  0  0  0  0  0  0
  1  2  1  0
  2  3  2  0
  4  2  1  0
  4  5  1  0
  5  7  1  0
  5  6  1  6
  7  8  2  0
  9 10  1  0
 10 11  2  0
 12 10  1  0
 12 13  1  0
 14 13  1  6
 15 14  1  0
 15  7  1  0
 16 17  2  0
 16 14  1  0
 18 19  1  0
 19 29  2  0
 20 19  1  0
 20 21  2  0
 21 22  1  0
 22 28  2  0
 22 23  1  0
 24 23  1  1
 24 26  1  0
 24 25  1  0
 25 16  1  0
 26 27  1  0
 29 28  1  0
 30 26  2  0
M  END
$$$$
