NQY.pdb
     RDKit          3D

 30 30  0  0  1  0  0  0  0  0999 V2000
    8.0000  -11.7233   19.1098 N   0  0  0  0  0  0  0  0  0  0  0  0
    8.3478  -13.0917   19.2968 C   0  0  0  0  0  0  0  0  0  0  0  0
    8.9376  -13.6620   18.3613 O   0  0  0  0  0  0  0  0  0  0  0  0
    8.0200  -13.7979   20.5494 C   0  0  0  0  0  0  0  0  0  0  0  0
    8.1954  -15.2774   20.3340 C   0  0  2  0  0  0  0  0  0  0  0  0
    7.1995  -15.7816   19.4423 N   0  0  0  0  0  0  0  0  0  0  0  0
    8.2683  -16.0203   21.6194 C   0  0  0  0  0  0  0  0  0  0  0  0
    7.2737  -16.4186   22.2444 O   0  0  0  0  0  0  0  0  0  0  0  0
   12.6385  -20.0463   21.7950 N   0  0  0  0  0  0  0  0  0  0  0  0
   12.3634  -20.0074   23.1866 C   0  0  0  0  0  0  0  0  0  0  0  0
   13.0499  -20.7373   23.9304 O   0  0  0  0  0  0  0  0  0  0  0  0
   11.3131  -19.1519   23.7891 C   0  0  0  0  0  0  0  0  0  0  0  0
   10.8647  -18.1463   22.7856 C   0  0  0  0  0  0  0  0  0  0  0  0
    9.8032  -17.1992   23.2431 C   0  0  2  0  0  0  0  0  0  0  0  0
    9.5589  -16.2783   22.1445 N   0  0  0  0  0  0  0  0  0  0  0  0
   10.1534  -16.4600   24.4861 C   0  0  0  0  0  0  0  0  0  0  0  0
   11.1130  -15.6577   24.5794 O   0  0  0  0  0  0  0  0  0  0  0  0
    6.1956  -10.9974   25.1642 O   0  0  0  0  0  0  0  0  0  0  0  0
    6.7694  -12.0956   25.7802 C   0  0  0  0  0  0  0  0  0  0  0  0
    7.9893  -11.9543   26.4221 C   0  0  0  0  0  0  0  0  0  0  0  0
    8.5900  -13.0379   27.0491 C   0  0  0  0  0  0  0  0  0  0  0  0
    8.0057  -14.2878   27.0605 C   0  0  0  0  0  0  0  0  0  0  0  0
    8.5818  -15.4794   27.7023 C   0  0  0  0  0  0  0  0  0  0  0  0
    9.7692  -16.0432   26.9583 C   0  0  2  0  0  0  0  0  0  0  0  0
    9.3822  -16.6312   25.6937 N   0  0  0  0  0  0  0  0  0  0  0  0
   10.5906  -16.9358   27.7781 C   0  0  0  0  0  0  0  0  0  0  0  0
   10.9035  -18.2134   27.3698 O   0  0  0  0  0  0  0  0  0  0  0  0
    6.7907  -14.4145   26.4174 C   0  0  0  0  0  0  0  0  0  0  0  0
    6.1914  -13.3460   25.7952 C   0  0  0  0  0  0  0  0  0  0  0  0
   11.0232  -16.5356   28.8792 O   0  0  0  0  0  0  0  0  0  0  0  0
  1  2  1  0
  2  3  2  0
  4  2  1  0
  4  5  1  0
  5  7  1  0
  5  6  1  6
  7  8  2  0
  9 10  1  0
 10 11  2  0
 12 10  1  0
 12 13  1  0
 14 13  1  6
 15 14  1  0
 15  7  1  0
 16 17  2  0
 16 14  1  0
 18 19  1  0
 19 29  2  0
 20 19  1  0
 20 21  2  0
 21 22  1  0
 22 28  2  0
 22 23  1  0
 24 23  1  1
 24 26  1  0
 24 25  1  0
 25 16  1  0
 26 27  1  0
 29 28  1  0
 30 26  2  0
M  END
$$$$
