NQY.pdb
     RDKit          3D

 30 30  0  0  1  0  0  0  0  0999 V2000
    8.3137  -12.4404   17.4327 N   0  0  0  0  0  0  0  0  0  0  0  0
    7.8159  -13.7360   17.1125 C   0  0  0  0  0  0  0  0  0  0  0  0
    7.4454  -13.9297   15.9407 O   0  0  0  0  0  0  0  0  0  0  0  0
    7.7452  -14.7993   18.1320 C   0  0  0  0  0  0  0  0  0  0  0  0
    8.1743  -14.2310   19.4583 C   0  0  2  0  0  0  0  0  0  0  0  0
    9.4691  -13.6353   19.3597 N   0  0  0  0  0  0  0  0  0  0  0  0
    8.0661  -15.2320   20.5519 C   0  0  0  0  0  0  0  0  0  0  0  0
    7.0187  -15.8316   20.8383 O   0  0  0  0  0  0  0  0  0  0  0  0
   12.4133  -19.0884   20.4988 N   0  0  0  0  0  0  0  0  0  0  0  0
   11.8632  -19.4741   21.7487 C   0  0  0  0  0  0  0  0  0  0  0  0
   12.3091  -20.5122   22.2788 O   0  0  0  0  0  0  0  0  0  0  0  0
   10.7985  -18.7119   22.4440 C   0  0  0  0  0  0  0  0  0  0  0  0
   10.4744  -17.4911   21.6542 C   0  0  0  0  0  0  0  0  0  0  0  0
    9.3699  -16.6412   22.1939 C   0  0  2  0  0  0  0  0  0  0  0  0
    9.2394  -15.5025   21.2989 N   0  0  0  0  0  0  0  0  0  0  0  0
    9.5886  -16.1914   23.5952 C   0  0  0  0  0  0  0  0  0  0  0  0
   10.5524  -15.4770   23.9612 O   0  0  0  0  0  0  0  0  0  0  0  0
    6.5717  -10.3137   26.1807 O   0  0  0  0  0  0  0  0  0  0  0  0
    6.8445  -11.6627   26.3237 C   0  0  0  0  0  0  0  0  0  0  0  0
    5.8392  -12.5876   26.0904 C   0  0  0  0  0  0  0  0  0  0  0  0
    6.0824  -13.9481   26.2256 C   0  0  0  0  0  0  0  0  0  0  0  0
    7.3206  -14.4329   26.5939 C   0  0  0  0  0  0  0  0  0  0  0  0
    7.6513  -15.8569   26.7572 C   0  0  0  0  0  0  0  0  0  0  0  0
    8.9174  -16.2620   26.0401 C   0  0  2  0  0  0  0  0  0  0  0  0
    8.6730  -16.5649   24.6461 N   0  0  0  0  0  0  0  0  0  0  0  0
    9.6593  -17.3162   26.7343 C   0  0  0  0  0  0  0  0  0  0  0  0
   10.2108  -17.1157   27.9802 O   0  0  0  0  0  0  0  0  0  0  0  0
    8.3128  -13.5008   26.8232 C   0  0  0  0  0  0  0  0  0  0  0  0
    8.0782  -12.1534   26.6910 C   0  0  0  0  0  0  0  0  0  0  0  0
    9.8006  -18.4306   26.1885 O   0  0  0  0  0  0  0  0  0  0  0  0
  1  2  1  0
  2  3  2  0
  4  2  1  0
  4  5  1  0
  5  7  1  0
  5  6  1  6
  7  8  2  0
  9 10  1  0
 10 11  2  0
 12 10  1  0
 12 13  1  0
 14 13  1  6
 15 14  1  0
 15  7  1  0
 16 17  2  0
 16 14  1  0
 18 19  1  0
 19 29  2  0
 20 19  1  0
 20 21  2  0
 21 22  1  0
 22 28  2  0
 22 23  1  0
 24 23  1  1
 24 26  1  0
 24 25  1  0
 25 16  1  0
 26 27  1  0
 29 28  1  0
 30 26  2  0
M  END
$$$$
