NQY.pdb
     RDKit          3D

 30 30  0  0  1  0  0  0  0  0999 V2000
    9.0480  -15.1653   15.7399 N   0  0  0  0  0  0  0  0  0  0  0  0
    8.2067  -14.0749   16.1031 C   0  0  0  0  0  0  0  0  0  0  0  0
    7.7715  -13.3605   15.1820 O   0  0  0  0  0  0  0  0  0  0  0  0
    7.8691  -13.8088   17.5139 C   0  0  0  0  0  0  0  0  0  0  0  0
    8.4575  -14.8991   18.3688 C   0  0  2  0  0  0  0  0  0  0  0  0
    8.2574  -16.1793   17.7669 N   0  0  0  0  0  0  0  0  0  0  0  0
    7.9751  -14.8245   19.7729 C   0  0  0  0  0  0  0  0  0  0  0  0
    8.0944  -13.8207   20.4918 O   0  0  0  0  0  0  0  0  0  0  0  0
    3.6185  -18.6621   22.0374 N   0  0  0  0  0  0  0  0  0  0  0  0
    4.0651  -18.3005   20.7399 C   0  0  0  0  0  0  0  0  0  0  0  0
    3.4021  -18.7130   19.7665 O   0  0  0  0  0  0  0  0  0  0  0  0
    5.2658  -17.4673   20.4908 C   0  0  0  0  0  0  0  0  0  0  0  0
    5.8343  -17.0247   21.7947 C   0  0  0  0  0  0  0  0  0  0  0  0
    7.0372  -16.1417   21.7139 C   0  0  2  0  0  0  0  0  0  0  0  0
    7.3452  -15.9781   20.3020 N   0  0  0  0  0  0  0  0  0  0  0  0
    8.2162  -16.6639   22.4562 C   0  0  0  0  0  0  0  0  0  0  0  0
    9.3928  -16.6239   22.0235 O   0  0  0  0  0  0  0  0  0  0  0  0
    7.8215  -12.1773   29.6773 O   0  0  0  0  0  0  0  0  0  0  0  0
    7.7493  -12.9059   28.5031 C   0  0  0  0  0  0  0  0  0  0  0  0
    6.5947  -12.8501   27.7389 C   0  0  0  0  0  0  0  0  0  0  0  0
    6.4923  -13.5700   26.5559 C   0  0  0  0  0  0  0  0  0  0  0  0
    7.5232  -14.3629   26.0949 C   0  0  0  0  0  0  0  0  0  0  0  0
    7.4865  -15.1524   24.8543 C   0  0  0  0  0  0  0  0  0  0  0  0
    8.1486  -16.5035   24.9866 C   0  0  2  0  0  0  0  0  0  0  0  0
    8.0659  -17.2659   23.7590 N   0  0  0  0  0  0  0  0  0  0  0  0
    7.6951  -17.2539   26.1591 C   0  0  0  0  0  0  0  0  0  0  0  0
    8.5521  -17.5850   27.1850 O   0  0  0  0  0  0  0  0  0  0  0  0
    8.6674  -14.4093   26.8659 C   0  0  0  0  0  0  0  0  0  0  0  0
    8.7747  -13.6993   28.0373 C   0  0  0  0  0  0  0  0  0  0  0  0
    6.4999  -17.6071   26.2389 O   0  0  0  0  0  0  0  0  0  0  0  0
  1  2  1  0
  2  3  2  0
  4  2  1  0
  4  5  1  0
  5  7  1  0
  5  6  1  6
  7  8  2  0
  9 10  1  0
 10 11  2  0
 12 10  1  0
 12 13  1  0
 14 13  1  6
 15 14  1  0
 15  7  1  0
 16 17  2  0
 16 14  1  0
 18 19  1  0
 19 29  2  0
 20 19  1  0
 20 21  2  0
 21 22  1  0
 22 28  2  0
 22 23  1  0
 24 23  1  6
 24 26  1  0
 24 25  1  0
 25 16  1  0
 26 27  1  0
 29 28  1  0
 30 26  2  0
M  END
$$$$
