NQY.pdb
     RDKit          3D

 30 30  0  0  1  0  0  0  0  0999 V2000
   15.4873  -13.1406   17.5259 N   0  0  0  0  0  0  0  0  0  0  0  0
   15.0340  -14.4194   17.9594 C   0  0  0  0  0  0  0  0  0  0  0  0
   15.9013  -15.2757   18.2098 O   0  0  0  0  0  0  0  0  0  0  0  0
   13.5954  -14.7103   18.1035 C   0  0  0  0  0  0  0  0  0  0  0  0
   13.3769  -15.4572   19.3921 C   0  0  2  0  0  0  0  0  0  0  0  0
   13.5316  -16.8638   19.1954 N   0  0  0  0  0  0  0  0  0  0  0  0
   12.0884  -15.0887   20.0353 C   0  0  0  0  0  0  0  0  0  0  0  0
   11.7281  -13.9196   20.2401 O   0  0  0  0  0  0  0  0  0  0  0  0
    8.3209  -19.8481   19.2253 N   0  0  0  0  0  0  0  0  0  0  0  0
    7.6966  -18.5917   19.4384 C   0  0  0  0  0  0  0  0  0  0  0  0
    6.4581  -18.5823   19.5912 O   0  0  0  0  0  0  0  0  0  0  0  0
    8.4370  -17.3082   19.4872 C   0  0  0  0  0  0  0  0  0  0  0  0
    9.1460  -17.2008   20.7929 C   0  0  0  0  0  0  0  0  0  0  0  0
    9.9198  -15.9411   21.0114 C   0  0  2  0  0  0  0  0  0  0  0  0
   11.2365  -16.1498   20.4303 N   0  0  0  0  0  0  0  0  0  0  0  0
   10.0286  -15.5438   22.4412 C   0  0  0  0  0  0  0  0  0  0  0  0
    9.4846  -14.5251   22.9305 O   0  0  0  0  0  0  0  0  0  0  0  0
   10.2974  -14.9960   31.0642 O   0  0  0  0  0  0  0  0  0  0  0  0
   10.1497  -15.1702   29.6995 C   0  0  0  0  0  0  0  0  0  0  0  0
   10.0915  -14.0579   28.8750 C   0  0  0  0  0  0  0  0  0  0  0  0
    9.9436  -14.2006   27.5017 C   0  0  0  0  0  0  0  0  0  0  0  0
    9.8494  -15.4411   26.9049 C   0  0  0  0  0  0  0  0  0  0  0  0
    9.6914  -15.6693   25.4603 C   0  0  0  0  0  0  0  0  0  0  0  0
   10.9980  -15.9376   24.7517 C   0  0  2  0  0  0  0  0  0  0  0  0
   10.7920  -16.3355   23.3754 N   0  0  0  0  0  0  0  0  0  0  0  0
   11.8743  -16.8509   25.4875 C   0  0  0  0  0  0  0  0  0  0  0  0
   12.1980  -18.0973   24.9991 O   0  0  0  0  0  0  0  0  0  0  0  0
    9.9089  -16.5405   27.7378 C   0  0  0  0  0  0  0  0  0  0  0  0
   10.0550  -16.4056   29.0974 C   0  0  0  0  0  0  0  0  0  0  0  0
   12.3454  -16.4978   26.5889 O   0  0  0  0  0  0  0  0  0  0  0  0
  1  2  1  0
  2  3  2  0
  4  2  1  0
  4  5  1  0
  5  7  1  0
  5  6  1  6
  7  8  2  0
  9 10  1  0
 10 11  2  0
 12 10  1  0
 12 13  1  0
 14 13  1  1
 15 14  1  0
 15  7  1  0
 16 17  2  0
 16 14  1  0
 18 19  1  0
 19 29  2  0
 20 19  1  0
 20 21  2  0
 21 22  1  0
 22 28  2  0
 22 23  1  0
 24 23  1  1
 24 26  1  0
 24 25  1  0
 25 16  1  0
 26 27  1  0
 29 28  1  0
 30 26  2  0
M  END
$$$$
