NQY.pdb
     RDKit          3D

 30 30  0  0  1  0  0  0  0  0999 V2000
   14.0458  -16.1660   13.6518 N   0  0  0  0  0  0  0  0  0  0  0  0
   13.3672  -16.9451   14.6322 C   0  0  0  0  0  0  0  0  0  0  0  0
   13.9647  -17.9392   15.0827 O   0  0  0  0  0  0  0  0  0  0  0  0
   12.0127  -16.5836   15.0901 C   0  0  0  0  0  0  0  0  0  0  0  0
   11.9546  -16.7150   16.5886 C   0  0  2  0  0  0  0  0  0  0  0  0
   10.7736  -17.4110   16.9912 N   0  0  0  0  0  0  0  0  0  0  0  0
   12.1284  -15.4041   17.2676 C   0  0  0  0  0  0  0  0  0  0  0  0
   13.1952  -14.7716   17.2855 O   0  0  0  0  0  0  0  0  0  0  0  0
    7.2611  -11.6965   18.3592 N   0  0  0  0  0  0  0  0  0  0  0  0
    7.2853  -13.1144   18.4080 C   0  0  0  0  0  0  0  0  0  0  0  0
    6.1895  -13.7108   18.3785 O   0  0  0  0  0  0  0  0  0  0  0  0
    8.5343  -13.9088   18.4911 C   0  0  0  0  0  0  0  0  0  0  0  0
    9.7002  -12.9837   18.5538 C   0  0  0  0  0  0  0  0  0  0  0  0
   11.0384  -13.6324   18.7012 C   0  0  2  0  0  0  0  0  0  0  0  0
   10.9971  -14.8630   17.9273 N   0  0  0  0  0  0  0  0  0  0  0  0
   11.4202  -13.9070   20.1129 C   0  0  0  0  0  0  0  0  0  0  0  0
   10.7327  -13.5667   21.1052 O   0  0  0  0  0  0  0  0  0  0  0  0
   12.2440  -19.5645   26.4629 O   0  0  0  0  0  0  0  0  0  0  0  0
   12.0876  -18.7570   25.3503 C   0  0  0  0  0  0  0  0  0  0  0  0
   11.9980  -19.3387   24.0957 C   0  0  0  0  0  0  0  0  0  0  0  0
   11.8408  -18.5546   22.9605 C   0  0  0  0  0  0  0  0  0  0  0  0
   11.7676  -17.1786   23.0308 C   0  0  0  0  0  0  0  0  0  0  0  0
   11.6024  -16.2852   21.8740 C   0  0  0  0  0  0  0  0  0  0  0  0
   12.8023  -15.4020   21.6254 C   0  0  2  0  0  0  0  0  0  0  0  0
   12.6439  -14.6033   20.4288 N   0  0  0  0  0  0  0  0  0  0  0  0
   14.0711  -16.1315   21.6640 C   0  0  0  0  0  0  0  0  0  0  0  0
   14.8035  -16.3747   20.5233 O   0  0  0  0  0  0  0  0  0  0  0  0
   11.8581  -16.6122   24.2866 C   0  0  0  0  0  0  0  0  0  0  0  0
   12.0138  -17.3828   25.4135 C   0  0  0  0  0  0  0  0  0  0  0  0
   14.5082  -16.5481   22.7571 O   0  0  0  0  0  0  0  0  0  0  0  0
  1  2  1  0
  2  3  2  0
  4  2  1  0
  4  5  1  0
  5  7  1  0
  5  6  1  6
  7  8  2  0
  9 10  1  0
 10 11  2  0
 12 10  1  0
 12 13  1  0
 14 13  1  1
 15 14  1  0
 15  7  1  0
 16 17  2  0
 16 14  1  0
 18 19  1  0
 19 29  2  0
 20 19  1  0
 20 21  2  0
 21 22  1  0
 22 28  2  0
 22 23  1  0
 24 23  1  6
 24 26  1  0
 24 25  1  0
 25 16  1  0
 26 27  1  0
 29 28  1  0
 30 26  2  0
M  END
$$$$
