NQY.pdb
     RDKit          3D

 30 30  0  0  1  0  0  0  0  0999 V2000
    9.3787  -14.2245   15.9342 N   0  0  0  0  0  0  0  0  0  0  0  0
    8.1284  -13.6234   16.2568 C   0  0  0  0  0  0  0  0  0  0  0  0
    7.6281  -12.8610   15.4103 O   0  0  0  0  0  0  0  0  0  0  0  0
    7.4594  -13.8973   17.5424 C   0  0  0  0  0  0  0  0  0  0  0  0
    8.3616  -14.7571   18.3867 C   0  0  2  0  0  0  0  0  0  0  0  0
    8.6577  -15.9868   17.7222 N   0  0  0  0  0  0  0  0  0  0  0  0
    7.8252  -14.9421   19.7606 C   0  0  0  0  0  0  0  0  0  0  0  0
    7.8236  -14.0543   20.6268 O   0  0  0  0  0  0  0  0  0  0  0  0
    5.0302  -20.4109   20.7232 N   0  0  0  0  0  0  0  0  0  0  0  0
    4.5336  -19.3620   19.9066 C   0  0  0  0  0  0  0  0  0  0  0  0
    3.6468  -19.6483   19.0766 O   0  0  0  0  0  0  0  0  0  0  0  0
    5.0128  -17.9616   19.9927 C   0  0  0  0  0  0  0  0  0  0  0  0
    5.9335  -17.8294   21.1563 C   0  0  0  0  0  0  0  0  0  0  0  0
    6.5864  -16.4953   21.3211 C   0  0  2  0  0  0  0  0  0  0  0  0
    7.2891  -16.2144   20.0792 N   0  0  0  0  0  0  0  0  0  0  0  0
    7.5131  -16.4199   22.4828 C   0  0  0  0  0  0  0  0  0  0  0  0
    8.6770  -16.8873   22.4844 O   0  0  0  0  0  0  0  0  0  0  0  0
   10.6733  -14.4275   30.5846 O   0  0  0  0  0  0  0  0  0  0  0  0
   10.0476  -14.4296   29.3504 C   0  0  0  0  0  0  0  0  0  0  0  0
   10.4796  -15.3098   28.3712 C   0  0  0  0  0  0  0  0  0  0  0  0
    9.8716  -15.3355   27.1230 C   0  0  0  0  0  0  0  0  0  0  0  0
    8.8233  -14.4959   26.8068 C   0  0  0  0  0  0  0  0  0  0  0  0
    8.1321  -14.4661   25.5086 C   0  0  0  0  0  0  0  0  0  0  0  0
    7.9077  -15.8389   24.9200 C   0  0  2  0  0  0  0  0  0  0  0  0
    7.1101  -15.7833   23.7135 N   0  0  0  0  0  0  0  0  0  0  0  0
    7.4047  -16.8077   25.8956 C   0  0  0  0  0  0  0  0  0  0  0  0
    8.2543  -17.5867   26.6493 O   0  0  0  0  0  0  0  0  0  0  0  0
    8.4030  -13.6243   27.7914 C   0  0  0  0  0  0  0  0  0  0  0  0
    9.0006  -13.5942   29.0283 C   0  0  0  0  0  0  0  0  0  0  0  0
    6.1728  -16.9376   26.0548 O   0  0  0  0  0  0  0  0  0  0  0  0
  1  2  1  0
  2  3  2  0
  4  2  1  0
  4  5  1  0
  5  7  1  0
  5  6  1  6
  7  8  2  0
  9 10  1  0
 10 11  2  0
 12 10  1  0
 12 13  1  0
 14 13  1  6
 15 14  1  0
 15  7  1  0
 16 17  2  0
 16 14  1  0
 18 19  1  0
 19 29  2  0
 20 19  1  0
 20 21  2  0
 21 22  1  0
 22 28  2  0
 22 23  1  0
 24 23  1  1
 24 26  1  0
 24 25  1  0
 25 16  1  0
 26 27  1  0
 29 28  1  0
 30 26  2  0
M  END
$$$$
