NQY.pdb
     RDKit          3D

 30 30  0  0  1  0  0  0  0  0999 V2000
    7.8938  -14.6842   14.9481 N   0  0  0  0  0  0  0  0  0  0  0  0
    7.9874  -14.1348   16.2589 C   0  0  0  0  0  0  0  0  0  0  0  0
    8.3206  -12.9397   16.3526 O   0  0  0  0  0  0  0  0  0  0  0  0
    7.7000  -14.9536   17.4514 C   0  0  0  0  0  0  0  0  0  0  0  0
    8.8012  -14.7508   18.4575 C   0  0  2  0  0  0  0  0  0  0  0  0
   10.0735  -15.0613   17.8864 N   0  0  0  0  0  0  0  0  0  0  0  0
    8.5317  -15.4736   19.7282 C   0  0  0  0  0  0  0  0  0  0  0  0
    7.4770  -15.3684   20.3724 O   0  0  0  0  0  0  0  0  0  0  0  0
   10.9931  -21.2249   20.9924 N   0  0  0  0  0  0  0  0  0  0  0  0
   11.5693  -19.9419   20.8040 C   0  0  0  0  0  0  0  0  0  0  0  0
   12.7795  -19.8079   21.0771 O   0  0  0  0  0  0  0  0  0  0  0  0
   10.8107  -18.7699   20.3049 C   0  0  0  0  0  0  0  0  0  0  0  0
    9.7282  -18.4383   21.2731 C   0  0  0  0  0  0  0  0  0  0  0  0
    9.4929  -16.9820   21.5123 C   0  0  2  0  0  0  0  0  0  0  0  0
    9.5524  -16.3274   20.2150 N   0  0  0  0  0  0  0  0  0  0  0  0
   10.4589  -16.3658   22.4615 C   0  0  0  0  0  0  0  0  0  0  0  0
   11.5047  -16.9293   22.8639 O   0  0  0  0  0  0  0  0  0  0  0  0
    5.6800  -10.7935   27.4958 O   0  0  0  0  0  0  0  0  0  0  0  0
    6.2537  -11.6737   26.5954 C   0  0  0  0  0  0  0  0  0  0  0  0
    5.9833  -13.0285   26.7035 C   0  0  0  0  0  0  0  0  0  0  0  0
    6.5441  -13.9363   25.8148 C   0  0  0  0  0  0  0  0  0  0  0  0
    7.3849  -13.5341   24.7974 C   0  0  0  0  0  0  0  0  0  0  0  0
    8.0149  -14.4363   23.8211 C   0  0  0  0  0  0  0  0  0  0  0  0
    9.4402  -14.7932   24.1709 C   0  0  2  0  0  0  0  0  0  0  0  0
   10.2384  -15.0410   22.9892 N   0  0  0  0  0  0  0  0  0  0  0  0
    9.5376  -15.8650   25.1636 C   0  0  0  0  0  0  0  0  0  0  0  0
    9.9474  -15.6223   26.4559 O   0  0  0  0  0  0  0  0  0  0  0  0
    7.6457  -12.1818   24.7012 C   0  0  0  0  0  0  0  0  0  0  0  0
    7.0938  -11.2788   25.5775 C   0  0  0  0  0  0  0  0  0  0  0  0
    9.2428  -17.0340   24.8378 O   0  0  0  0  0  0  0  0  0  0  0  0
  1  2  1  0
  2  3  2  0
  4  2  1  0
  4  5  1  0
  5  7  1  0
  5  6  1  6
  7  8  2  0
  9 10  1  0
 10 11  2  0
 12 10  1  0
 12 13  1  0
 14 13  1  6
 15 14  1  0
 15  7  1  0
 16 17  2  0
 16 14  1  0
 18 19  1  0
 19 29  2  0
 20 19  1  0
 20 21  2  0
 21 22  1  0
 22 28  2  0
 22 23  1  0
 24 23  1  6
 24 26  1  0
 24 25  1  0
 25 16  1  0
 26 27  1  0
 29 28  1  0
 30 26  2  0
M  END
$$$$
