VTY.pdb
     RDKit          3D

 27 27  0  0  1  0  0  0  0  0999 V2000
    8.0898  -12.7981   20.8035 C   0  0  0  0  0  0  0  0  0  0  0  0
    7.7159  -13.4553   19.4944 C   0  0  1  0  0  0  0  0  0  0  0  0
    7.8408  -12.5095   18.3264 C   0  0  0  0  0  0  0  0  0  0  0  0
    8.4576  -14.7488   19.2753 C   0  0  2  0  0  0  0  0  0  0  0  0
    7.8444  -15.3876   18.1095 N   0  0  0  0  0  0  0  0  0  0  0  0
    8.3841  -15.6786   20.3999 C   0  0  0  0  0  0  0  0  0  0  0  0
    7.6954  -16.7327   20.2436 O   0  0  0  0  0  0  0  0  0  0  0  0
    9.2165  -18.1771   20.8725 C   0  0  0  0  0  0  0  0  0  0  0  0
    9.8061  -17.6981   22.1610 C   0  0  1  0  0  0  0  0  0  0  0  0
   11.1277  -17.2571   21.9201 O   0  0  0  0  0  0  0  0  0  0  0  0
    9.0470  -16.4802   22.7040 C   0  0  2  0  0  0  0  0  0  0  0  0
    9.0123  -15.5098   21.6495 N   0  0  0  0  0  0  0  0  0  0  0  0
    9.7875  -15.9593   23.9056 C   0  0  0  0  0  0  0  0  0  0  0  0
   10.2168  -14.7781   23.9062 O   0  0  0  0  0  0  0  0  0  0  0  0
    6.3976  -10.8411   26.5728 O   0  0  0  0  0  0  0  0  0  0  0  0
    6.8097  -12.1778   26.5063 C   0  0  0  0  0  0  0  0  0  0  0  0
    6.0770  -13.0951   25.7810 C   0  0  0  0  0  0  0  0  0  0  0  0
    6.4505  -14.4191   25.6918 C   0  0  0  0  0  0  0  0  0  0  0  0
    7.5912  -14.8799   26.3373 C   0  0  0  0  0  0  0  0  0  0  0  0
    7.9278  -16.2995   26.2236 C   0  0  0  0  0  0  0  0  0  0  0  0
    9.4057  -16.5111   26.3429 C   0  0  2  0  0  0  0  0  0  0  0  0
   10.0138  -16.7764   25.0456 N   0  0  0  0  0  0  0  0  0  0  0  0
    9.7466  -17.5224   27.3342 C   0  0  0  0  0  0  0  0  0  0  0  0
    9.7731  -18.8873   27.1714 O   0  0  0  0  0  0  0  0  0  0  0  0
    8.3124  -13.9433   27.0601 C   0  0  0  0  0  0  0  0  0  0  0  0
    7.9422  -12.6197   27.1512 C   0  0  0  0  0  0  0  0  0  0  0  0
   10.0599  -17.1038   28.5037 O   0  0  0  0  0  0  0  0  0  0  0  0
  2  3  1  6
  2  1  1  0
  4  2  1  0
  4  5  1  6
  6  7  2  0
  6  4  1  0
  9  8  1  6
  9 11  1  0
 10  9  1  0
 11 12  1  6
 12  6  1  0
 13 14  2  0
 13 11  1  0
 16 15  1  0
 17 16  2  0
 18 17  1  0
 19 25  1  0
 19 18  2  0
 20 19  1  0
 21 20  1  6
 21 22  1  0
 22 13  1  0
 23 21  1  0
 24 23  1  0
 25 26  2  0
 26 16  1  0
 27 23  2  0
M  END
$$$$
