VTY.pdb
     RDKit          3D

 27 27  0  0  1  0  0  0  0  0999 V2000
    8.7156  -12.8000   20.4949 C   0  0  0  0  0  0  0  0  0  0  0  0
    8.1437  -13.4477   19.2543 C   0  0  1  0  0  0  0  0  0  0  0  0
    8.3947  -12.6251   18.0155 C   0  0  0  0  0  0  0  0  0  0  0  0
    8.5923  -14.8783   19.1015 C   0  0  2  0  0  0  0  0  0  0  0  0
    7.8605  -15.4237   17.9569 N   0  0  0  0  0  0  0  0  0  0  0  0
    8.3180  -15.7188   20.2646 C   0  0  0  0  0  0  0  0  0  0  0  0
    7.1059  -16.0063   20.5060 O   0  0  0  0  0  0  0  0  0  0  0  0
    8.5687  -19.0254   21.1323 C   0  0  0  0  0  0  0  0  0  0  0  0
    9.3934  -18.3781   22.1993 C   0  0  1  0  0  0  0  0  0  0  0  0
   10.7465  -18.3753   21.7892 O   0  0  0  0  0  0  0  0  0  0  0  0
    9.0065  -16.9053   22.3881 C   0  0  2  0  0  0  0  0  0  0  0  0
    9.2828  -16.2423   21.1476 N   0  0  0  0  0  0  0  0  0  0  0  0
    9.8343  -16.3395   23.5097 C   0  0  0  0  0  0  0  0  0  0  0  0
   10.9985  -15.9281   23.2755 O   0  0  0  0  0  0  0  0  0  0  0  0
    4.7664  -12.6716   26.4829 O   0  0  0  0  0  0  0  0  0  0  0  0
    6.1067  -13.0758   26.4451 C   0  0  0  0  0  0  0  0  0  0  0  0
    6.4747  -14.1942   25.7255 C   0  0  0  0  0  0  0  0  0  0  0  0
    7.7834  -14.6231   25.6643 C   0  0  0  0  0  0  0  0  0  0  0  0
    8.7879  -13.9352   26.3335 C   0  0  0  0  0  0  0  0  0  0  0  0
   10.1559  -14.4481   26.2488 C   0  0  0  0  0  0  0  0  0  0  0  0
   10.1602  -15.9217   25.9815 C   0  0  2  0  0  0  0  0  0  0  0  0
    9.3274  -16.2591   24.8345 N   0  0  0  0  0  0  0  0  0  0  0  0
    9.8233  -16.7044   27.1629 C   0  0  0  0  0  0  0  0  0  0  0  0
   10.4176  -16.6593   28.4018 O   0  0  0  0  0  0  0  0  0  0  0  0
    8.3975  -12.8155   27.0501 C   0  0  0  0  0  0  0  0  0  0  0  0
    7.0910  -12.3840   27.1133 C   0  0  0  0  0  0  0  0  0  0  0  0
    8.8599  -17.5410   27.0473 O   0  0  0  0  0  0  0  0  0  0  0  0
  2  3  1  6
  2  1  1  0
  4  2  1  0
  4  5  1  6
  6  7  2  0
  6  4  1  0
  9  8  1  6
  9 11  1  0
 10  9  1  0
 11 12  1  6
 12  6  1  0
 13 14  2  0
 13 11  1  0
 16 15  1  0
 17 16  2  0
 18 17  1  0
 19 25  1  0
 19 18  2  0
 20 19  1  0
 21 20  1  1
 21 22  1  0
 22 13  1  0
 23 21  1  0
 24 23  1  0
 25 26  2  0
 26 16  1  0
 27 23  2  0
M  END
$$$$
