VTY.pdb
     RDKit          3D

 27 27  0  0  1  0  0  0  0  0999 V2000
    7.9640  -12.9317   16.8915 C   0  0  0  0  0  0  0  0  0  0  0  0
    7.8601  -13.0360   18.3961 C   0  0  1  0  0  0  0  0  0  0  0  0
    6.4958  -13.4990   18.8418 C   0  0  0  0  0  0  0  0  0  0  0  0
    8.9744  -13.8609   18.9871 C   0  0  2  0  0  0  0  0  0  0  0  0
    8.9679  -15.1399   18.2750 N   0  0  0  0  0  0  0  0  0  0  0  0
    8.8268  -14.1299   20.4156 C   0  0  0  0  0  0  0  0  0  0  0  0
    8.8216  -13.1336   21.2012 O   0  0  0  0  0  0  0  0  0  0  0  0
    6.2083  -16.4098   21.9494 C   0  0  0  0  0  0  0  0  0  0  0  0
    7.5239  -16.7931   22.5491 C   0  0  1  0  0  0  0  0  0  0  0  0
    8.0488  -17.8914   21.8299 O   0  0  0  0  0  0  0  0  0  0  0  0
    8.5531  -15.6641   22.4061 C   0  0  2  0  0  0  0  0  0  0  0  0
    8.6890  -15.4028   21.0032 N   0  0  0  0  0  0  0  0  0  0  0  0
    9.8517  -16.1299   23.0063 C   0  0  0  0  0  0  0  0  0  0  0  0
   10.2183  -17.3210   22.8446 O   0  0  0  0  0  0  0  0  0  0  0  0
   10.9195  -15.8338   31.5555 O   0  0  0  0  0  0  0  0  0  0  0  0
   10.6581  -15.6656   30.1901 C   0  0  0  0  0  0  0  0  0  0  0  0
   10.6415  -14.4016   29.6367 C   0  0  0  0  0  0  0  0  0  0  0  0
   10.3882  -14.1958   28.2974 C   0  0  0  0  0  0  0  0  0  0  0  0
   10.1379  -15.2675   27.4494 C   0  0  0  0  0  0  0  0  0  0  0  0
    9.8559  -14.9874   26.0411 C   0  0  0  0  0  0  0  0  0  0  0  0
   10.9782  -15.4550   25.1665 C   0  0  2  0  0  0  0  0  0  0  0  0
   10.6773  -15.2494   23.7557 N   0  0  0  0  0  0  0  0  0  0  0  0
   11.3779  -16.8255   25.4559 C   0  0  0  0  0  0  0  0  0  0  0  0
   10.6192  -17.9664   25.3436 O   0  0  0  0  0  0  0  0  0  0  0  0
   10.1590  -16.5278   28.0246 C   0  0  0  0  0  0  0  0  0  0  0  0
   10.4119  -16.7371   29.3624 C   0  0  0  0  0  0  0  0  0  0  0  0
   12.5780  -17.0036   25.8672 O   0  0  0  0  0  0  0  0  0  0  0  0
  2  3  1  6
  2  1  1  0
  4  2  1  0
  4  5  1  6
  6  7  2  0
  6  4  1  0
  9  8  1  6
  9 11  1  0
 10  9  1  0
 11 12  1  6
 12  6  1  0
 13 14  2  0
 13 11  1  0
 16 15  1  0
 17 16  2  0
 18 17  1  0
 19 25  1  0
 19 18  2  0
 20 19  1  0
 21 20  1  1
 21 22  1  0
 22 13  1  0
 23 21  1  0
 24 23  1  0
 25 26  2  0
 26 16  1  0
 27 23  2  0
M  END
$$$$
