VTY.pdb
     RDKit          3D

 27 27  0  0  1  0  0  0  0  0999 V2000
    8.8581  -12.3727   18.0861 C   0  0  0  0  0  0  0  0  0  0  0  0
    8.8077  -13.3911   19.2023 C   0  0  1  0  0  0  0  0  0  0  0  0
    7.5755  -13.2370   20.0582 C   0  0  0  0  0  0  0  0  0  0  0  0
    8.9902  -14.7989   18.6963 C   0  0  2  0  0  0  0  0  0  0  0  0
    7.8983  -15.0468   17.7532 N   0  0  0  0  0  0  0  0  0  0  0  0
    8.9373  -15.8210   19.7390 C   0  0  0  0  0  0  0  0  0  0  0  0
    8.1279  -16.7841   19.5737 O   0  0  0  0  0  0  0  0  0  0  0  0
    9.3634  -18.4555   20.0369 C   0  0  0  0  0  0  0  0  0  0  0  0
   10.1454  -18.1498   21.2748 C   0  0  1  0  0  0  0  0  0  0  0  0
   11.4958  -17.9314   20.9171 O   0  0  0  0  0  0  0  0  0  0  0  0
    9.6666  -16.8480   21.9308 C   0  0  2  0  0  0  0  0  0  0  0  0
    9.7079  -15.8343   20.9181 N   0  0  0  0  0  0  0  0  0  0  0  0
   10.5942  -16.5243   23.0702 C   0  0  0  0  0  0  0  0  0  0  0  0
   11.6982  -15.9720   22.8342 O   0  0  0  0  0  0  0  0  0  0  0  0
    6.1520  -11.1667   27.8281 O   0  0  0  0  0  0  0  0  0  0  0  0
    6.6688  -12.1949   27.0301 C   0  0  0  0  0  0  0  0  0  0  0  0
    7.9995  -12.1885   26.6650 C   0  0  0  0  0  0  0  0  0  0  0  0
    8.5447  -13.1826   25.8809 C   0  0  0  0  0  0  0  0  0  0  0  0
    7.7629  -14.2373   25.4264 C   0  0  0  0  0  0  0  0  0  0  0  0
    8.3910  -15.2533   24.5811 C   0  0  0  0  0  0  0  0  0  0  0  0
    9.5478  -15.8947   25.2837 C   0  0  2  0  0  0  0  0  0  0  0  0
   10.2489  -16.8302   24.4140 N   0  0  0  0  0  0  0  0  0  0  0  0
    9.1656  -16.4960   26.5542 C   0  0  0  0  0  0  0  0  0  0  0  0
    9.4020  -16.0141   27.8199 O   0  0  0  0  0  0  0  0  0  0  0  0
    6.4298  -14.2249   25.8039 C   0  0  0  0  0  0  0  0  0  0  0  0
    5.8817  -13.2333   26.5873 C   0  0  0  0  0  0  0  0  0  0  0  0
    8.5338  -17.6092   26.5006 O   0  0  0  0  0  0  0  0  0  0  0  0
  2  3  1  6
  2  1  1  0
  4  2  1  0
  4  5  1  6
  6  7  2  0
  6  4  1  0
  9  8  1  6
  9 11  1  0
 10  9  1  0
 11 12  1  6
 12  6  1  0
 13 14  2  0
 13 11  1  0
 16 15  1  0
 17 16  2  0
 18 17  1  0
 19 25  1  0
 19 18  2  0
 20 19  1  0
 21 20  1  6
 21 22  1  0
 22 13  1  0
 23 21  1  0
 24 23  1  0
 25 26  2  0
 26 16  1  0
 27 23  2  0
M  END
$$$$
