VTY.pdb
     RDKit          3D

 27 27  0  0  1  0  0  0  0  0999 V2000
    3.5814  -21.4970   22.2170 C   0  0  0  0  0  0  0  0  0  0  0  0
    4.8988  -21.3220   22.9379 C   0  0  1  0  0  0  0  0  0  0  0  0
    5.9765  -22.2170   22.3795 C   0  0  0  0  0  0  0  0  0  0  0  0
    5.3221  -19.8773   23.0062 C   0  0  2  0  0  0  0  0  0  0  0  0
    5.3150  -19.3763   21.6307 N   0  0  0  0  0  0  0  0  0  0  0  0
    6.6568  -19.6706   23.5633 C   0  0  0  0  0  0  0  0  0  0  0  0
    6.8557  -20.0434   24.7597 O   0  0  0  0  0  0  0  0  0  0  0  0
    9.9134  -21.0103   22.4381 C   0  0  0  0  0  0  0  0  0  0  0  0
   10.0554  -19.5215   22.4664 C   0  0  1  0  0  0  0  0  0  0  0  0
    9.7337  -19.0097   21.1883 O   0  0  0  0  0  0  0  0  0  0  0  0
    9.0561  -18.8835   23.4405 C   0  0  2  0  0  0  0  0  0  0  0  0
    7.7495  -19.0915   22.8887 N   0  0  0  0  0  0  0  0  0  0  0  0
    9.3773  -17.4182   23.5543 C   0  0  0  0  0  0  0  0  0  0  0  0
    8.5688  -16.5685   23.1028 O   0  0  0  0  0  0  0  0  0  0  0  0
    9.7771  -16.0712   30.6013 O   0  0  0  0  0  0  0  0  0  0  0  0
    9.7637  -15.7999   29.2276 C   0  0  0  0  0  0  0  0  0  0  0  0
   10.4957  -14.7457   28.7207 C   0  0  0  0  0  0  0  0  0  0  0  0
   10.5077  -14.4474   27.3748 C   0  0  0  0  0  0  0  0  0  0  0  0
    9.7742  -15.2076   26.4726 C   0  0  0  0  0  0  0  0  0  0  0  0
    9.8092  -14.8324   25.0587 C   0  0  0  0  0  0  0  0  0  0  0  0
   10.9019  -15.5601   24.3379 C   0  0  2  0  0  0  0  0  0  0  0  0
   10.5801  -16.9705   24.1639 N   0  0  0  0  0  0  0  0  0  0  0  0
   12.2068  -15.3593   24.9533 C   0  0  0  0  0  0  0  0  0  0  0  0
   12.9250  -14.1905   25.0444 O   0  0  0  0  0  0  0  0  0  0  0  0
    9.0462  -16.2612   27.0017 C   0  0  0  0  0  0  0  0  0  0  0  0
    9.0319  -16.5621   28.3459 C   0  0  0  0  0  0  0  0  0  0  0  0
   12.7650  -16.3876   25.4749 O   0  0  0  0  0  0  0  0  0  0  0  0
  2  3  1  6
  2  1  1  0
  4  2  1  0
  4  5  1  6
  6  7  2  0
  6  4  1  0
  9  8  1  6
  9 11  1  0
 10  9  1  0
 11 12  1  6
 12  6  1  0
 13 14  2  0
 13 11  1  0
 16 15  1  0
 17 16  2  0
 18 17  1  0
 19 25  1  0
 19 18  2  0
 20 19  1  0
 21 20  1  1
 21 22  1  0
 22 13  1  0
 23 21  1  0
 24 23  1  0
 25 26  2  0
 26 16  1  0
 27 23  2  0
M  END
$$$$
