VTY.pdb
     RDKit          3D

 27 27  0  0  1  0  0  0  0  0999 V2000
    7.8217  -12.0426   25.0500 C   0  0  0  0  0  0  0  0  0  0  0  0
    6.6726  -12.5961   25.8617 C   0  0  1  0  0  0  0  0  0  0  0  0
    5.7540  -11.5098   26.3623 C   0  0  0  0  0  0  0  0  0  0  0  0
    5.9350  -13.6887   25.1315 C   0  0  2  0  0  0  0  0  0  0  0  0
    4.9214  -14.1971   26.0575 N   0  0  0  0  0  0  0  0  0  0  0  0
    6.7794  -14.8064   24.7162 C   0  0  0  0  0  0  0  0  0  0  0  0
    7.1224  -15.6429   25.6065 O   0  0  0  0  0  0  0  0  0  0  0  0
    6.7165  -16.2719   21.0492 C   0  0  0  0  0  0  0  0  0  0  0  0
    8.1361  -16.1772   21.5109 C   0  0  1  0  0  0  0  0  0  0  0  0
    8.7114  -15.0024   20.9744 O   0  0  0  0  0  0  0  0  0  0  0  0
    8.2188  -16.0293   23.0359 C   0  0  2  0  0  0  0  0  0  0  0  0
    7.2499  -15.0411   23.4093 N   0  0  0  0  0  0  0  0  0  0  0  0
    9.6137  -15.5934   23.3933 C   0  0  0  0  0  0  0  0  0  0  0  0
    9.9843  -14.4216   23.1306 O   0  0  0  0  0  0  0  0  0  0  0  0
    9.7577  -16.9653   30.3999 O   0  0  0  0  0  0  0  0  0  0  0  0
   10.2497  -16.4266   29.2047 C   0  0  0  0  0  0  0  0  0  0  0  0
   10.1694  -17.1497   28.0321 C   0  0  0  0  0  0  0  0  0  0  0  0
   10.6424  -16.6534   26.8362 C   0  0  0  0  0  0  0  0  0  0  0  0
   11.2229  -15.3930   26.7706 C   0  0  0  0  0  0  0  0  0  0  0  0
   11.7251  -14.9262   25.4778 C   0  0  0  0  0  0  0  0  0  0  0  0
   11.8359  -16.0595   24.5049 C   0  0  2  0  0  0  0  0  0  0  0  0
   10.5265  -16.4808   24.0242 N   0  0  0  0  0  0  0  0  0  0  0  0
   12.6199  -17.1699   25.0282 C   0  0  0  0  0  0  0  0  0  0  0  0
   13.9353  -17.1587   25.4278 O   0  0  0  0  0  0  0  0  0  0  0  0
   11.2939  -14.6834   27.9586 C   0  0  0  0  0  0  0  0  0  0  0  0
   10.8223  -15.1762   29.1553 C   0  0  0  0  0  0  0  0  0  0  0  0
   12.0250  -18.2997   25.1326 O   0  0  0  0  0  0  0  0  0  0  0  0
  2  3  1  6
  2  1  1  0
  4  2  1  0
  4  5  1  1
  6  7  2  0
  6  4  1  0
  9  8  1  1
  9 11  1  0
 10  9  1  0
 11 12  1  6
 12  6  1  0
 13 14  2  0
 13 11  1  0
 16 15  1  0
 17 16  2  0
 18 17  1  0
 19 25  1  0
 19 18  2  0
 20 19  1  0
 21 20  1  1
 21 22  1  0
 22 13  1  0
 23 21  1  0
 24 23  1  0
 25 26  2  0
 26 16  1  0
 27 23  2  0
M  END
$$$$
