CIK.pdb
     RDKit          3D

 24 23  0  0  1  0  0  0  0  0999 V2000
   20.0487  -20.9958  -11.7279 N   0  0  0  0  0  0  0  0  0  0  0  0
   20.8746  -21.6109  -12.7216 C   0  0  1  0  0  0  0  0  0  0  0  0
   20.0954  -21.8199  -13.9790 C   0  0  0  0  0  0  0  0  0  0  0  0
   18.9953  -23.2488  -13.7222 S   0  0  0  0  0  0  0  0  0  0  0  0
   22.0818  -20.7591  -12.9845 C   0  0  0  0  0  0  0  0  0  0  0  0
   21.9371  -19.4936  -12.8840 O   0  0  0  0  0  0  0  0  0  0  0  0
   26.7072  -21.7484  -10.6272 C   0  0  0  0  0  0  0  0  0  0  0  0
   25.5177  -21.0996  -11.3013 C   0  0  0  0  0  0  0  0  0  0  0  0
   25.6762  -21.1207  -12.8186 C   0  0  2  0  0  0  0  0  0  0  0  0
   26.9085  -20.2994  -13.1276 C   0  0  0  0  0  0  0  0  0  0  0  0
   24.4803  -20.4785  -13.4877 C   0  0  2  0  0  0  0  0  0  0  0  0
   23.3154  -21.3503  -13.3269 N   0  0  0  0  0  0  0  0  0  0  0  0
   24.7317  -20.3945  -14.9528 C   0  0  0  0  0  0  0  0  0  0  0  0
   24.8500  -21.5270  -15.5595 O   0  0  0  0  0  0  0  0  0  0  0  0
   24.8442  -19.2323  -15.7131 N   0  0  0  0  0  0  0  0  0  0  0  0
   25.0378  -19.3210  -17.1726 C   0  0  1  0  0  0  0  0  0  0  0  0
   24.1518  -18.3150  -17.8229 C   0  0  0  0  0  0  0  0  0  0  0  0
   24.1618  -18.2322  -19.2947 C   0  0  0  0  0  0  0  0  0  0  0  0
   23.2485  -17.2168  -19.8796 C   0  0  0  0  0  0  0  0  0  0  0  0
   23.3777  -17.1501  -21.3860 C   0  0  0  0  0  0  0  0  0  0  0  0
   22.4582  -16.1749  -21.9359 N   0  0  0  0  0  0  0  0  0  0  0  0
   26.4541  -19.2900  -17.4742 C   0  0  0  0  0  0  0  0  0  0  0  0
   27.3399  -18.5785  -16.6826 O   0  0  0  0  0  0  0  0  0  0  0  0
   26.9396  -19.8993  -18.4520 O   0  0  0  0  0  0  0  0  0  0  0  0
  2  5  1  0
  2  1  1  1
  3  2  1  0
  4  3  1  0
  5  6  2  0
  8  7  1  0
  9 11  1  0
  9  8  1  0
  9 10  1  1
 12  5  1  0
 11 12  1  6
 13 11  1  0
 13 14  2  0
 15 13  1  0
 16 22  1  0
 16 15  1  0
 16 17  1  6
 18 17  1  0
 19 18  1  0
 20 19  1  0
 21 20  1  0
 22 23  1  0
 24 22  2  0
M  END
$$$$
