CIK.pdb
     RDKit          3D

 24 23  0  0  1  0  0  0  0  0999 V2000
   25.8963  -24.6332  -15.8313 N   0  0  0  0  0  0  0  0  0  0  0  0
   24.5041  -24.4086  -16.0752 C   0  0  1  0  0  0  0  0  0  0  0  0
   23.7554  -25.6993  -16.0017 C   0  0  0  0  0  0  0  0  0  0  0  0
   24.6709  -26.9315  -16.9823 S   0  0  0  0  0  0  0  0  0  0  0  0
   23.9607  -23.4260  -15.0795 C   0  0  0  0  0  0  0  0  0  0  0  0
   24.5741  -23.3257  -13.9631 O   0  0  0  0  0  0  0  0  0  0  0  0
   22.9340  -18.5207  -16.5175 C   0  0  0  0  0  0  0  0  0  0  0  0
   23.2832  -19.7457  -15.7003 C   0  0  0  0  0  0  0  0  0  0  0  0
   22.0273  -20.3787  -15.1087 C   0  0  2  0  0  0  0  0  0  0  0  0
   21.4910  -19.3907  -14.0965 C   0  0  0  0  0  0  0  0  0  0  0  0
   22.3670  -21.6710  -14.3981 C   0  0  2  0  0  0  0  0  0  0  0  0
   22.8195  -22.6552  -15.3828 N   0  0  0  0  0  0  0  0  0  0  0  0
   21.1269  -22.2331  -13.7954 C   0  0  0  0  0  0  0  0  0  0  0  0
   20.5804  -21.5090  -12.8779 O   0  0  0  0  0  0  0  0  0  0  0  0
   20.5132  -23.4395  -14.1261 N   0  0  0  0  0  0  0  0  0  0  0  0
   19.2377  -23.8176  -13.4893 C   0  0  1  0  0  0  0  0  0  0  0  0
   19.5443  -24.5881  -12.2515 C   0  0  0  0  0  0  0  0  0  0  0  0
   18.4137  -25.1126  -11.4645 C   0  0  0  0  0  0  0  0  0  0  0  0
   18.7810  -25.7581  -10.1777 C   0  0  0  0  0  0  0  0  0  0  0  0
   18.0092  -27.0406   -9.9550 C   0  0  0  0  0  0  0  0  0  0  0  0
   18.4820  -27.7231   -8.7677 N   0  0  0  0  0  0  0  0  0  0  0  0
   18.3873  -22.6500  -13.3820 C   0  0  0  0  0  0  0  0  0  0  0  0
   17.1032  -22.6486  -13.9000 O   0  0  0  0  0  0  0  0  0  0  0  0
   18.7675  -21.5996  -12.8205 O   0  0  0  0  0  0  0  0  0  0  0  0
  2  5  1  0
  2  1  1  1
  3  2  1  0
  4  3  1  0
  5  6  2  0
  8  7  1  0
  9 11  1  0
  9  8  1  0
  9 10  1  1
 12  5  1  0
 11 12  1  6
 13 11  1  0
 13 14  2  0
 15 13  1  0
 16 22  1  0
 16 15  1  0
 16 17  1  1
 18 17  1  0
 19 18  1  0
 20 19  1  0
 21 20  1  0
 22 23  1  0
 24 22  2  0
M  END
$$$$
