CIK.pdb
     RDKit          3D

 24 23  0  0  1  0  0  0  0  0999 V2000
   22.3271  -15.4166  -17.6037 N   0  0  0  0  0  0  0  0  0  0  0  0
   22.6594  -14.1350  -18.1471 C   0  0  1  0  0  0  0  0  0  0  0  0
   21.5251  -13.6165  -18.9696 C   0  0  0  0  0  0  0  0  0  0  0  0
   21.1028  -14.8895  -20.2022 S   0  0  0  0  0  0  0  0  0  0  0  0
   22.9885  -13.1776  -17.0393 C   0  0  0  0  0  0  0  0  0  0  0  0
   22.3107  -13.2769  -15.9607 O   0  0  0  0  0  0  0  0  0  0  0  0
   28.1194  -12.0118  -16.0182 C   0  0  0  0  0  0  0  0  0  0  0  0
   26.6434  -12.2933  -15.8373 C   0  0  0  0  0  0  0  0  0  0  0  0
   25.8163  -11.0376  -16.0965 C   0  0  2  0  0  0  0  0  0  0  0  0
   26.1347  -10.0801  -14.9694 C   0  0  0  0  0  0  0  0  0  0  0  0
   24.3376  -11.3580  -16.0629 C   0  0  2  0  0  0  0  0  0  0  0  0
   24.0069  -12.2160  -17.2020 N   0  0  0  0  0  0  0  0  0  0  0  0
   23.5647  -10.1004  -16.2576 C   0  0  0  0  0  0  0  0  0  0  0  0
   23.7482   -9.5078  -17.3888 O   0  0  0  0  0  0  0  0  0  0  0  0
   22.6780   -9.5196  -15.3532 N   0  0  0  0  0  0  0  0  0  0  0  0
   21.9942   -8.2586  -15.6965 C   0  0  1  0  0  0  0  0  0  0  0  0
   20.7331   -8.5925  -16.4162 C   0  0  0  0  0  0  0  0  0  0  0  0
   19.8477   -7.4827  -16.8129 C   0  0  0  0  0  0  0  0  0  0  0  0
   18.5977   -7.8852  -17.5078 C   0  0  0  0  0  0  0  0  0  0  0  0
   17.7671   -6.6841  -17.9048 C   0  0  0  0  0  0  0  0  0  0  0  0
   16.5700   -7.0991  -18.6074 N   0  0  0  0  0  0  0  0  0  0  0  0
   21.9149   -7.4171  -14.5202 C   0  0  0  0  0  0  0  0  0  0  0  0
   21.7491   -6.0467  -14.6293 O   0  0  0  0  0  0  0  0  0  0  0  0
   21.9894   -7.8833  -13.3626 O   0  0  0  0  0  0  0  0  0  0  0  0
  2  5  1  0
  2  1  1  1
  3  2  1  0
  4  3  1  0
  5  6  2  0
  8  7  1  0
  9 11  1  0
  9  8  1  0
  9 10  1  1
 12  5  1  0
 11 12  1  6
 13 11  1  0
 13 14  2  0
 15 13  1  0
 16 22  1  0
 16 15  1  0
 16 17  1  1
 18 17  1  0
 19 18  1  0
 20 19  1  0
 21 20  1  0
 22 23  1  0
 24 22  2  0
M  END
$$$$
