CIK.pdb
     RDKit          3D

 24 23  0  0  1  0  0  0  0  0999 V2000
   21.9066  -20.4680  -14.8690 N   0  0  0  0  0  0  0  0  0  0  0  0
   22.1331  -19.6665  -16.0329 C   0  0  1  0  0  0  0  0  0  0  0  0
   20.9364  -19.7092  -16.9263 C   0  0  0  0  0  0  0  0  0  0  0  0
   20.6984  -21.4353  -17.4573 S   0  0  0  0  0  0  0  0  0  0  0  0
   22.4413  -18.2539  -15.6311 C   0  0  0  0  0  0  0  0  0  0  0  0
   21.8613  -17.8041  -14.5852 O   0  0  0  0  0  0  0  0  0  0  0  0
   27.3737  -16.8358  -15.2196 C   0  0  0  0  0  0  0  0  0  0  0  0
   25.8746  -16.8912  -15.0198 C   0  0  0  0  0  0  0  0  0  0  0  0
   25.1650  -15.9334  -15.9721 C   0  0  2  0  0  0  0  0  0  0  0  0
   25.4961  -14.5370  -15.4937 C   0  0  0  0  0  0  0  0  0  0  0  0
   23.6659  -16.1303  -15.9058 C   0  0  2  0  0  0  0  0  0  0  0  0
   23.3366  -17.4721  -16.3898 N   0  0  0  0  0  0  0  0  0  0  0  0
   23.0103  -15.1814  -16.8474 C   0  0  0  0  0  0  0  0  0  0  0  0
   23.4245  -15.2384  -18.0679 O   0  0  0  0  0  0  0  0  0  0  0  0
   22.0101  -14.2612  -16.5402 N   0  0  0  0  0  0  0  0  0  0  0  0
   21.4565  -13.3929  -17.5963 C   0  0  1  0  0  0  0  0  0  0  0  0
   20.1099  -12.9281  -17.1600 C   0  0  0  0  0  0  0  0  0  0  0  0
   19.3495  -12.0552  -18.0726 C   0  0  0  0  0  0  0  0  0  0  0  0
   17.9838  -11.6928  -17.6135 C   0  0  0  0  0  0  0  0  0  0  0  0
   17.2982  -10.7551  -18.5835 C   0  0  0  0  0  0  0  0  0  0  0  0
   15.9201  -10.5344  -18.1948 N   0  0  0  0  0  0  0  0  0  0  0  0
   22.4417  -12.3989  -17.9693 C   0  0  0  0  0  0  0  0  0  0  0  0
   22.5796  -11.9844  -19.2833 O   0  0  0  0  0  0  0  0  0  0  0  0
   23.2052  -11.8718  -17.1312 O   0  0  0  0  0  0  0  0  0  0  0  0
  2  5  1  0
  2  1  1  1
  3  2  1  0
  4  3  1  0
  5  6  2  0
  8  7  1  0
  9 11  1  0
  9  8  1  0
  9 10  1  1
 12  5  1  0
 11 12  1  6
 13 11  1  0
 13 14  2  0
 15 13  1  0
 16 22  1  0
 16 15  1  0
 16 17  1  1
 18 17  1  0
 19 18  1  0
 20 19  1  0
 21 20  1  0
 22 23  1  0
 24 22  2  0
M  END
$$$$
