CIK.pdb
     RDKit          3D

 24 23  0  0  1  0  0  0  0  0999 V2000
   29.6539  -22.8179  -16.8422 N   0  0  0  0  0  0  0  0  0  0  0  0
   28.4978  -22.1451  -17.3511 C   0  0  1  0  0  0  0  0  0  0  0  0
   27.5354  -23.1368  -17.9190 C   0  0  0  0  0  0  0  0  0  0  0  0
   28.3470  -23.9577  -19.3280 S   0  0  0  0  0  0  0  0  0  0  0  0
   27.8484  -21.3445  -16.2606 C   0  0  0  0  0  0  0  0  0  0  0  0
   28.0049  -21.7562  -15.0612 O   0  0  0  0  0  0  0  0  0  0  0  0
   26.5714  -15.5358  -15.0373 C   0  0  0  0  0  0  0  0  0  0  0  0
   26.2885  -16.9897  -14.7265 C   0  0  0  0  0  0  0  0  0  0  0  0
   26.8795  -17.8985  -15.8000 C   0  0  2  0  0  0  0  0  0  0  0  0
   26.1530  -17.5655  -17.0844 C   0  0  0  0  0  0  0  0  0  0  0  0
   26.6324  -19.3527  -15.4614 C   0  0  2  0  0  0  0  0  0  0  0  0
   27.1008  -20.1890  -16.5679 N   0  0  0  0  0  0  0  0  0  0  0  0
   25.1650  -19.5849  -15.3634 C   0  0  0  0  0  0  0  0  0  0  0  0
   24.5497  -19.7188  -16.4895 O   0  0  0  0  0  0  0  0  0  0  0  0
   24.4123  -19.6735  -14.1942 N   0  0  0  0  0  0  0  0  0  0  0  0
   22.9624  -19.9342  -14.2679 C   0  0  1  0  0  0  0  0  0  0  0  0
   22.5030  -20.3983  -12.9286 C   0  0  0  0  0  0  0  0  0  0  0  0
   21.0665  -20.6748  -12.7469 C   0  0  0  0  0  0  0  0  0  0  0  0
   20.5902  -21.9607  -13.3187 C   0  0  0  0  0  0  0  0  0  0  0  0
   19.0955  -22.1278  -13.1508 C   0  0  0  0  0  0  0  0  0  0  0  0
   18.6252  -23.2887  -13.8789 N   0  0  0  0  0  0  0  0  0  0  0  0
   22.2975  -18.7964  -14.8688 C   0  0  0  0  0  0  0  0  0  0  0  0
   21.2329  -18.9653  -15.7379 O   0  0  0  0  0  0  0  0  0  0  0  0
   22.6481  -17.6198  -14.6323 O   0  0  0  0  0  0  0  0  0  0  0  0
  2  5  1  0
  2  1  1  1
  3  2  1  0
  4  3  1  0
  5  6  2  0
  8  7  1  0
  9 11  1  0
  9  8  1  0
  9 10  1  6
 12  5  1  0
 11 12  1  6
 13 11  1  0
 13 14  2  0
 15 13  1  0
 16 22  1  0
 16 15  1  0
 16 17  1  1
 18 17  1  0
 19 18  1  0
 20 19  1  0
 21 20  1  0
 22 23  1  0
 24 22  2  0
M  END
$$$$
