CIK.pdb
     RDKit          3D

 24 23  0  0  1  0  0  0  0  0999 V2000
   18.3587  -13.7988  -16.8040 N   0  0  0  0  0  0  0  0  0  0  0  0
   18.9017  -12.5992  -17.3646 C   0  0  1  0  0  0  0  0  0  0  0  0
   17.7990  -11.7079  -17.8356 C   0  0  0  0  0  0  0  0  0  0  0  0
   16.8897  -12.5899  -19.1445 S   0  0  0  0  0  0  0  0  0  0  0  0
   19.7505  -11.8955  -16.3467 C   0  0  0  0  0  0  0  0  0  0  0  0
   19.3178  -11.8661  -15.1448 O   0  0  0  0  0  0  0  0  0  0  0  0
   24.7553  -13.1352  -15.6567 C   0  0  0  0  0  0  0  0  0  0  0  0
   23.3286  -12.6532  -15.5066 C   0  0  0  0  0  0  0  0  0  0  0  0
   23.2226  -11.1652  -15.8268 C   0  0  2  0  0  0  0  0  0  0  0  0
   24.0868  -10.4504  -14.8116 C   0  0  0  0  0  0  0  0  0  0  0  0
   21.7943  -10.6886  -15.6750 C   0  0  2  0  0  0  0  0  0  0  0  0
   20.9716  -11.2980  -16.7214 N   0  0  0  0  0  0  0  0  0  0  0  0
   21.7450   -9.2202  -15.9165 C   0  0  0  0  0  0  0  0  0  0  0  0
   22.1557   -8.8366  -17.0779 O   0  0  0  0  0  0  0  0  0  0  0  0
   21.3022   -8.2443  -15.0260 N   0  0  0  0  0  0  0  0  0  0  0  0
   21.2510   -6.8312  -15.4455 C   0  0  1  0  0  0  0  0  0  0  0  0
   19.8977   -6.5596  -16.0064 C   0  0  0  0  0  0  0  0  0  0  0  0
   19.5510   -5.1647  -16.3337 C   0  0  0  0  0  0  0  0  0  0  0  0
   18.1798   -4.9599  -16.8677 C   0  0  0  0  0  0  0  0  0  0  0  0
   17.9727   -3.5396  -17.3472 C   0  0  0  0  0  0  0  0  0  0  0  0
   16.7067   -3.4125  -18.0400 N   0  0  0  0  0  0  0  0  0  0  0  0
   21.7326   -5.9906  -14.3688 C   0  0  0  0  0  0  0  0  0  0  0  0
   21.7759   -6.4520  -13.0639 O   0  0  0  0  0  0  0  0  0  0  0  0
   22.1298   -4.8214  -14.5644 O   0  0  0  0  0  0  0  0  0  0  0  0
  2  5  1  0
  2  1  1  1
  3  2  1  0
  4  3  1  0
  5  6  2  0
  8  7  1  0
  9 11  1  0
  9  8  1  0
  9 10  1  1
 12  5  1  0
 11 12  1  6
 13 11  1  0
 13 14  2  0
 15 13  1  0
 16 22  1  0
 16 15  1  0
 16 17  1  1
 18 17  1  0
 19 18  1  0
 20 19  1  0
 21 20  1  0
 22 23  1  0
 24 22  2  0
M  END
$$$$
