CIK.pdb
     RDKit          3D

 24 23  0  0  1  0  0  0  0  0999 V2000
   28.7022  -20.4404  -15.0512 N   0  0  0  0  0  0  0  0  0  0  0  0
   27.8484  -19.5841  -14.2858 C   0  0  1  0  0  0  0  0  0  0  0  0
   27.2977  -18.4998  -15.1535 C   0  0  0  0  0  0  0  0  0  0  0  0
   28.6289  -17.2921  -15.4491 S   0  0  0  0  0  0  0  0  0  0  0  0
   26.7370  -20.3838  -13.6715 C   0  0  0  0  0  0  0  0  0  0  0  0
   26.3112  -21.3934  -14.3288 O   0  0  0  0  0  0  0  0  0  0  0  0
   26.4810  -20.3427   -8.3472 C   0  0  0  0  0  0  0  0  0  0  0  0
   26.2009  -21.1479   -9.5976 C   0  0  0  0  0  0  0  0  0  0  0  0
   25.0227  -20.5601  -10.3684 C   0  0  2  0  0  0  0  0  0  0  0  0
   23.7833  -21.2430   -9.8337 C   0  0  0  0  0  0  0  0  0  0  0  0
   25.1489  -20.8628  -11.8458 C   0  0  2  0  0  0  0  0  0  0  0  0
   26.1988  -20.0196  -12.4201 N   0  0  0  0  0  0  0  0  0  0  0  0
   23.8864  -20.4705  -12.5305 C   0  0  0  0  0  0  0  0  0  0  0  0
   23.6651  -19.2013  -12.5982 O   0  0  0  0  0  0  0  0  0  0  0  0
   22.9448  -21.3279  -13.0961 N   0  0  0  0  0  0  0  0  0  0  0  0
   21.7348  -20.7771  -13.7349 C   0  0  1  0  0  0  0  0  0  0  0  0
   21.6068  -21.3812  -15.0908 C   0  0  0  0  0  0  0  0  0  0  0  0
   20.4239  -21.0289  -15.8968 C   0  0  0  0  0  0  0  0  0  0  0  0
   20.2623  -21.7987  -17.1572 C   0  0  0  0  0  0  0  0  0  0  0  0
   19.0446  -21.3487  -17.9351 C   0  0  0  0  0  0  0  0  0  0  0  0
   18.9308  -22.0840  -19.1783 N   0  0  0  0  0  0  0  0  0  0  0  0
   20.6152  -20.8867  -12.8226 C   0  0  0  0  0  0  0  0  0  0  0  0
   19.5518  -20.0020  -12.8836 O   0  0  0  0  0  0  0  0  0  0  0  0
   20.5552  -21.7773  -11.9471 O   0  0  0  0  0  0  0  0  0  0  0  0
  2  5  1  0
  2  1  1  6
  3  2  1  0
  4  3  1  0
  5  6  2  0
  8  7  1  0
  9 11  1  0
  9  8  1  0
  9 10  1  1
 12  5  1  0
 11 12  1  6
 13 11  1  0
 13 14  2  0
 15 13  1  0
 16 22  1  0
 16 15  1  0
 16 17  1  6
 18 17  1  0
 19 18  1  0
 20 19  1  0
 21 20  1  0
 22 23  1  0
 24 22  2  0
M  END
$$$$
