HSE.pdb
     RDKit          3D

 26 26  0  0  1  0  0  0  0  0999 V2000
   20.2145  -13.0720  -18.0925 N   0  0  0  0  0  0  0  0  0  0  0  0
   21.0615  -11.8977  -18.0599 C   0  0  1  0  0  0  0  0  0  0  0  0
   21.1674  -11.2592  -19.4395 C   0  0  0  0  0  0  0  0  0  0  0  0
   21.9160  -12.1984  -20.3061 C   0  0  0  0  0  0  0  0  0  0  0  0
   21.4623  -12.7365  -21.4769 C   0  0  0  0  0  0  0  0  0  0  0  0
   22.4268  -13.5452  -21.9777 N   0  0  0  0  0  0  0  0  0  0  0  0
   23.4737  -13.5199  -21.1387 C   0  0  0  0  0  0  0  0  0  0  0  0
   23.1489  -12.6883  -20.1136 N   0  0  0  0  0  0  0  0  0  0  0  0
   20.4133  -10.8992  -17.1595 C   0  0  0  0  0  0  0  0  0  0  0  0
   19.1981  -10.6335  -17.3030 O   0  0  0  0  0  0  0  0  0  0  0  0
   19.4651   -8.9199  -13.1167 O   0  0  0  0  0  0  0  0  0  0  0  0
   20.0785   -9.8057  -13.9513 C   0  0  0  0  0  0  0  0  0  0  0  0
   20.4368   -9.2507  -15.3180 C   0  0  2  0  0  0  0  0  0  0  0  0
   21.1141  -10.2233  -16.1314 N   0  0  0  0  0  0  0  0  0  0  0  0
   21.2183   -7.9979  -15.1573 C   0  0  0  0  0  0  0  0  0  0  0  0
   22.4842   -8.0405  -14.9722 O   0  0  0  0  0  0  0  0  0  0  0  0
   20.6670   -6.6923  -15.1922 N   0  0  0  0  0  0  0  0  0  0  0  0
   21.4571   -5.4842  -15.0463 C   0  0  1  0  0  0  0  0  0  0  0  0
   20.5547   -4.3119  -15.3919 C   0  0  0  0  0  0  0  0  0  0  0  0
   21.3509   -3.0471  -15.3040 C   0  0  0  0  0  0  0  0  0  0  0  0
   20.4816   -1.8937  -15.5740 C   0  0  0  0  0  0  0  0  0  0  0  0
   20.0242   -1.2160  -14.6323 O   0  0  0  0  0  0  0  0  0  0  0  0
   21.8214   -5.3539  -13.6179 C   0  0  0  0  0  0  0  0  0  0  0  0
   22.9443   -4.6637  -13.1798 O   0  0  0  0  0  0  0  0  0  0  0  0
   20.1717   -1.5616  -16.8790 O   0  0  0  0  0  0  0  0  0  0  0  0
   21.1039   -5.8797  -12.7340 O   0  0  0  0  0  0  0  0  0  0  0  0
  2  9  1  0
  2  1  1  6
  3  2  1  0
  4  3  1  0
  5  4  2  0
  6  7  1  0
  6  5  1  0
  7  8  2  0
  8  4  1  0
  9 14  1  0
 10  9  2  0
 12 11  1  0
 13 12  1  1
 14 13  1  0
 15 16  2  0
 15 13  1  0
 17 15  1  0
 18 19  1  1
 18 17  1  0
 19 20  1  0
 20 21  1  0
 21 22  2  0
 23 18  1  0
 24 23  1  0
 25 21  1  0
 26 23  2  0
M  END
$$$$
