HSE.pdb
     RDKit          3D

 26 26  0  0  1  0  0  0  0  0999 V2000
   18.5617   -9.4073  -12.6128 N   0  0  0  0  0  0  0  0  0  0  0  0
   18.0388   -8.5624  -13.6664 C   0  0  1  0  0  0  0  0  0  0  0  0
   17.1179   -9.3470  -14.5928 C   0  0  0  0  0  0  0  0  0  0  0  0
   17.8872  -10.5035  -15.1069 C   0  0  0  0  0  0  0  0  0  0  0  0
   17.6159  -11.8179  -14.8520 C   0  0  0  0  0  0  0  0  0  0  0  0
   18.5368  -12.5765  -15.4935 N   0  0  0  0  0  0  0  0  0  0  0  0
   19.3770  -11.7570  -16.1438 C   0  0  0  0  0  0  0  0  0  0  0  0
   18.9683  -10.4838  -15.8992 N   0  0  0  0  0  0  0  0  0  0  0  0
   17.2148   -7.4971  -13.0228 C   0  0  0  0  0  0  0  0  0  0  0  0
   16.4932   -6.7597  -13.7322 O   0  0  0  0  0  0  0  0  0  0  0  0
   17.5512   -6.3104   -8.9184 O   0  0  0  0  0  0  0  0  0  0  0  0
   16.3509   -6.2652   -9.5624 C   0  0  0  0  0  0  0  0  0  0  0  0
   16.4420   -6.1858  -11.0755 C   0  0  2  0  0  0  0  0  0  0  0  0
   17.2062   -7.2722  -11.6249 N   0  0  0  0  0  0  0  0  0  0  0  0
   16.9725   -4.8567  -11.4732 C   0  0  0  0  0  0  0  0  0  0  0  0
   18.1858   -4.7306  -11.8614 O   0  0  0  0  0  0  0  0  0  0  0  0
   16.2240   -3.6528  -11.4640 N   0  0  0  0  0  0  0  0  0  0  0  0
   16.7408   -2.3838  -11.9411 C   0  0  1  0  0  0  0  0  0  0  0  0
   17.0312   -2.5450  -13.4236 C   0  0  0  0  0  0  0  0  0  0  0  0
   17.4804   -1.2273  -13.9740 C   0  0  0  0  0  0  0  0  0  0  0  0
   17.7870   -1.3654  -15.4044 C   0  0  0  0  0  0  0  0  0  0  0  0
   18.2310   -0.3950  -16.0497 O   0  0  0  0  0  0  0  0  0  0  0  0
   15.6616   -1.3798  -11.8100 C   0  0  0  0  0  0  0  0  0  0  0  0
   15.9026   -0.0225  -11.6405 O   0  0  0  0  0  0  0  0  0  0  0  0
   17.5808   -2.5781  -16.0339 O   0  0  0  0  0  0  0  0  0  0  0  0
   14.4602   -1.7372  -11.8495 O   0  0  0  0  0  0  0  0  0  0  0  0
  2  9  1  0
  2  1  1  1
  3  2  1  0
  4  3  1  0
  5  4  2  0
  6  7  1  0
  6  5  1  0
  7  8  2  0
  8  4  1  0
  9 14  1  0
 10  9  2  0
 12 11  1  0
 13 12  1  1
 14 13  1  0
 15 16  2  0
 15 13  1  0
 17 15  1  0
 18 19  1  6
 18 17  1  0
 19 20  1  0
 20 21  1  0
 21 22  2  0
 23 18  1  0
 24 23  1  0
 25 21  1  0
 26 23  2  0
M  END
$$$$
