HSE.pdb
     RDKit          3D

 26 26  0  0  1  0  0  0  0  0999 V2000
   20.5983  -12.0728  -17.2947 N   0  0  0  0  0  0  0  0  0  0  0  0
   20.9383  -10.9809  -18.1832 C   0  0  1  0  0  0  0  0  0  0  0  0
   19.7036  -10.4571  -18.9065 C   0  0  0  0  0  0  0  0  0  0  0  0
   19.2568  -11.5140  -19.8428 C   0  0  0  0  0  0  0  0  0  0  0  0
   19.7776  -11.7522  -21.0830 C   0  0  0  0  0  0  0  0  0  0  0  0
   19.1109  -12.7949  -21.6336 N   0  0  0  0  0  0  0  0  0  0  0  0
   18.1835  -13.2104  -20.7573 C   0  0  0  0  0  0  0  0  0  0  0  0
   18.2819  -12.4155  -19.6589 N   0  0  0  0  0  0  0  0  0  0  0  0
   21.4658   -9.8646  -17.3443 C   0  0  0  0  0  0  0  0  0  0  0  0
   20.7895   -9.4435  -16.3784 O   0  0  0  0  0  0  0  0  0  0  0  0
   25.0474   -6.7437  -16.2435 O   0  0  0  0  0  0  0  0  0  0  0  0
   24.6106   -7.8501  -16.9087 C   0  0  0  0  0  0  0  0  0  0  0  0
   23.1176   -8.1055  -16.8095 C   0  0  2  0  0  0  0  0  0  0  0  0
   22.7152   -9.2448  -17.5882 N   0  0  0  0  0  0  0  0  0  0  0  0
   22.3761   -6.8723  -17.1776 C   0  0  0  0  0  0  0  0  0  0  0  0
   22.1219   -6.6081  -18.4040 O   0  0  0  0  0  0  0  0  0  0  0  0
   21.8977   -5.9112  -16.2517 N   0  0  0  0  0  0  0  0  0  0  0  0
   21.1031   -4.7582  -16.6316 C   0  0  1  0  0  0  0  0  0  0  0  0
   19.6924   -5.2533  -16.9016 C   0  0  0  0  0  0  0  0  0  0  0  0
   19.1131   -5.7809  -15.6259 C   0  0  0  0  0  0  0  0  0  0  0  0
   17.7132   -6.1721  -15.8410 C   0  0  0  0  0  0  0  0  0  0  0  0
   16.9091   -5.3734  -16.3612 O   0  0  0  0  0  0  0  0  0  0  0  0
   21.0363   -3.8523  -15.4634 C   0  0  0  0  0  0  0  0  0  0  0  0
   20.4109   -2.6126  -15.4977 O   0  0  0  0  0  0  0  0  0  0  0  0
   17.2897   -7.4321  -15.4634 O   0  0  0  0  0  0  0  0  0  0  0  0
   21.5591   -4.1888  -14.3743 O   0  0  0  0  0  0  0  0  0  0  0  0
  2  9  1  0
  2  1  1  1
  3  2  1  0
  4  3  1  0
  5  4  2  0
  6  7  1  0
  6  5  1  0
  7  8  2  0
  8  4  1  0
  9 14  1  0
 10  9  2  0
 12 11  1  0
 13 12  1  6
 14 13  1  0
 15 16  2  0
 15 13  1  0
 17 15  1  0
 18 19  1  1
 18 17  1  0
 19 20  1  0
 20 21  1  0
 21 22  2  0
 23 18  1  0
 24 23  1  0
 25 21  1  0
 26 23  2  0
M  END
$$$$
