HSE.pdb
     RDKit          3D

 26 26  0  0  1  0  0  0  0  0999 V2000
   20.2425  -10.3948  -16.3455 N   0  0  0  0  0  0  0  0  0  0  0  0
   19.0291   -9.9528  -15.6900 C   0  0  1  0  0  0  0  0  0  0  0  0
   18.5443  -10.9849  -14.6792 C   0  0  0  0  0  0  0  0  0  0  0  0
   18.1634  -12.2003  -15.4350 C   0  0  0  0  0  0  0  0  0  0  0  0
   17.5310  -12.2204  -16.6457 C   0  0  0  0  0  0  0  0  0  0  0  0
   17.3531  -13.5119  -17.0136 N   0  0  0  0  0  0  0  0  0  0  0  0
   17.8641  -14.2967  -16.0526 C   0  0  0  0  0  0  0  0  0  0  0  0
   18.3600  -13.4796  -15.0860 N   0  0  0  0  0  0  0  0  0  0  0  0
   19.3542   -8.7095  -14.9306 C   0  0  0  0  0  0  0  0  0  0  0  0
   18.4666   -8.1538  -14.2443 O   0  0  0  0  0  0  0  0  0  0  0  0
   22.5193   -5.3991  -13.3342 O   0  0  0  0  0  0  0  0  0  0  0  0
   22.2754   -6.5977  -13.9352 C   0  0  0  0  0  0  0  0  0  0  0  0
   20.8359   -6.8136  -14.3660 C   0  0  2  0  0  0  0  0  0  0  0  0
   20.6387   -8.1139  -14.9460 N   0  0  0  0  0  0  0  0  0  0  0  0
   20.4178   -5.7148  -15.2737 C   0  0  0  0  0  0  0  0  0  0  0  0
   20.6477   -5.7870  -16.5309 O   0  0  0  0  0  0  0  0  0  0  0  0
   19.7533   -4.5333  -14.8586 N   0  0  0  0  0  0  0  0  0  0  0  0
   19.3677   -3.4692  -15.7664 C   0  0  1  0  0  0  0  0  0  0  0  0
   17.9526   -3.0557  -15.3996 C   0  0  0  0  0  0  0  0  0  0  0  0
   17.4734   -2.0415  -16.3911 C   0  0  0  0  0  0  0  0  0  0  0  0
   16.1130   -1.6098  -16.0415 C   0  0  0  0  0  0  0  0  0  0  0  0
   15.5337   -2.0955  -15.0497 O   0  0  0  0  0  0  0  0  0  0  0  0
   20.2484   -2.3098  -15.5016 C   0  0  0  0  0  0  0  0  0  0  0  0
   20.5128   -1.3252  -16.4448 O   0  0  0  0  0  0  0  0  0  0  0  0
   15.4760   -0.6609  -16.8182 O   0  0  0  0  0  0  0  0  0  0  0  0
   20.7986   -2.1791  -14.3823 O   0  0  0  0  0  0  0  0  0  0  0  0
  2  9  1  0
  2  1  1  1
  3  2  1  0
  4  3  1  0
  5  4  2  0
  6  7  1  0
  6  5  1  0
  7  8  2  0
  8  4  1  0
  9 14  1  0
 10  9  2  0
 12 11  1  0
 13 12  1  6
 14 13  1  0
 15 16  2  0
 15 13  1  0
 17 15  1  0
 18 19  1  1
 18 17  1  0
 19 20  1  0
 20 21  1  0
 21 22  2  0
 23 18  1  0
 24 23  1  0
 25 21  1  0
 26 23  2  0
M  END
$$$$
