HSE.pdb
     RDKit          3D

 26 26  0  0  1  0  0  0  0  0999 V2000
   35.0639  -38.0816   -8.1324 N   0  0  0  0  0  0  0  0  0  0  0  0
   35.3288  -36.8848   -7.3613 C   0  0  1  0  0  0  0  0  0  0  0  0
   34.6094  -35.6795   -7.9543 C   0  0  0  0  0  0  0  0  0  0  0  0
   35.2283  -35.3973   -9.2700 C   0  0  0  0  0  0  0  0  0  0  0  0
   34.6042  -35.4937  -10.4813 C   0  0  0  0  0  0  0  0  0  0  0  0
   35.4921  -35.1577  -11.4476 N   0  0  0  0  0  0  0  0  0  0  0  0
   36.6588  -34.8536  -10.8586 C   0  0  0  0  0  0  0  0  0  0  0  0
   36.4855  -35.0043   -9.5188 N   0  0  0  0  0  0  0  0  0  0  0  0
   34.7759  -37.0994   -5.9915 C   0  0  0  0  0  0  0  0  0  0  0  0
   33.7563  -37.8102   -5.8401 O   0  0  0  0  0  0  0  0  0  0  0  0
   36.9472  -36.6217   -2.3997 O   0  0  0  0  0  0  0  0  0  0  0  0
   35.6435  -36.2251   -2.4185 C   0  0  0  0  0  0  0  0  0  0  0  0
   34.8099  -36.8272   -3.5352 C   0  0  2  0  0  0  0  0  0  0  0  0
   35.3552  -36.5303   -4.8316 N   0  0  0  0  0  0  0  0  0  0  0  0
   33.3983  -36.3869   -3.3955 C   0  0  0  0  0  0  0  0  0  0  0  0
   32.9599  -35.3874   -4.0643 O   0  0  0  0  0  0  0  0  0  0  0  0
   32.4410  -37.0008   -2.5491 N   0  0  0  0  0  0  0  0  0  0  0  0
   31.0656  -36.5527   -2.4369 C   0  0  1  0  0  0  0  0  0  0  0  0
   30.2073  -37.7864   -2.2145 C   0  0  0  0  0  0  0  0  0  0  0  0
   30.0860  -38.5301   -3.5082 C   0  0  0  0  0  0  0  0  0  0  0  0
   29.2518  -39.7246   -3.3176 C   0  0  0  0  0  0  0  0  0  0  0  0
   29.0253  -40.4933   -4.2730 O   0  0  0  0  0  0  0  0  0  0  0  0
   30.9615  -35.7180   -1.2193 C   0  0  0  0  0  0  0  0  0  0  0  0
   32.0290  -35.4901   -0.3605 O   0  0  0  0  0  0  0  0  0  0  0  0
   28.7175  -39.9938   -2.0720 O   0  0  0  0  0  0  0  0  0  0  0  0
   29.8717  -35.1753   -0.9187 O   0  0  0  0  0  0  0  0  0  0  0  0
  2  9  1  0
  2  1  1  6
  3  2  1  0
  4  3  1  0
  5  4  2  0
  6  7  1  0
  6  5  1  0
  7  8  2  0
  8  4  1  0
  9 14  1  0
 10  9  2  0
 12 11  1  0
 13 12  1  1
 14 13  1  0
 15 16  2  0
 15 13  1  0
 17 15  1  0
 18 19  1  1
 18 17  1  0
 19 20  1  0
 20 21  1  0
 21 22  2  0
 23 18  1  0
 24 23  1  0
 25 21  1  0
 26 23  2  0
M  END
$$$$
