HSE.pdb
     RDKit          3D

 26 26  0  0  1  0  0  0  0  0999 V2000
   20.5176  -14.8456  -16.8400 N   0  0  0  0  0  0  0  0  0  0  0  0
   19.6487  -13.6911  -16.9362 C   0  0  1  0  0  0  0  0  0  0  0  0
   18.7347  -13.5894  -15.7212 C   0  0  0  0  0  0  0  0  0  0  0  0
   17.6193  -14.5422  -15.9249 C   0  0  0  0  0  0  0  0  0  0  0  0
   17.2417  -15.0834  -17.1210 C   0  0  0  0  0  0  0  0  0  0  0  0
   16.1865  -15.9047  -16.9046 N   0  0  0  0  0  0  0  0  0  0  0  0
   15.9003  -15.8843  -15.5938 C   0  0  0  0  0  0  0  0  0  0  0  0
   16.7878  -15.0429  -15.0003 N   0  0  0  0  0  0  0  0  0  0  0  0
   20.5140  -12.4748  -16.9412 C   0  0  0  0  0  0  0  0  0  0  0  0
   21.4489  -12.3771  -16.1142 O   0  0  0  0  0  0  0  0  0  0  0  0
   20.6365   -9.4523  -20.0479 O   0  0  0  0  0  0  0  0  0  0  0  0
   21.6543   -9.9051  -19.2626 C   0  0  0  0  0  0  0  0  0  0  0  0
   21.2464  -10.2979  -17.8541 C   0  0  2  0  0  0  0  0  0  0  0  0
   20.3294  -11.4048  -17.8500 N   0  0  0  0  0  0  0  0  0  0  0  0
   20.7101   -9.1101  -17.1417 C   0  0  0  0  0  0  0  0  0  0  0  0
   19.4585   -8.8433  -17.1733 O   0  0  0  0  0  0  0  0  0  0  0  0
   21.4929   -8.1974  -16.3906 N   0  0  0  0  0  0  0  0  0  0  0  0
   20.9425   -7.0406  -15.7095 C   0  0  1  0  0  0  0  0  0  0  0  0
   22.0286   -6.4972  -14.7966 C   0  0  0  0  0  0  0  0  0  0  0  0
   21.5113   -5.2741  -14.1054 C   0  0  0  0  0  0  0  0  0  0  0  0
   22.5064   -4.7929  -13.1372 C   0  0  0  0  0  0  0  0  0  0  0  0
   23.0226   -3.6657  -13.2724 O   0  0  0  0  0  0  0  0  0  0  0  0
   20.6663   -6.0056  -16.7305 C   0  0  0  0  0  0  0  0  0  0  0  0
   19.6011   -5.1184  -16.6446 O   0  0  0  0  0  0  0  0  0  0  0  0
   22.8694   -5.5964  -12.0732 O   0  0  0  0  0  0  0  0  0  0  0  0
   21.4098   -5.8966  -17.7345 O   0  0  0  0  0  0  0  0  0  0  0  0
  2  9  1  0
  2  1  1  1
  3  2  1  0
  4  3  1  0
  5  4  2  0
  6  7  1  0
  6  5  1  0
  7  8  2  0
  8  4  1  0
  9 14  1  0
 10  9  2  0
 12 11  1  0
 13 12  1  6
 14 13  1  0
 15 16  2  0
 15 13  1  0
 17 15  1  0
 18 19  1  1
 18 17  1  0
 19 20  1  0
 20 21  1  0
 21 22  2  0
 23 18  1  0
 24 23  1  0
 25 21  1  0
 26 23  2  0
M  END
$$$$
