HSE.pdb
     RDKit          3D

 26 26  0  0  1  0  0  0  0  0999 V2000
   19.1631  -12.5829  -18.0907 N   0  0  0  0  0  0  0  0  0  0  0  0
   20.3563  -11.8523  -17.7168 C   0  0  1  0  0  0  0  0  0  0  0  0
   21.2576  -11.6191  -18.9231 C   0  0  0  0  0  0  0  0  0  0  0  0
   21.7889  -12.9371  -19.3406 C   0  0  0  0  0  0  0  0  0  0  0  0
   21.5528  -13.5482  -20.5393 C   0  0  0  0  0  0  0  0  0  0  0  0
   22.2058  -14.7350  -20.5501 N   0  0  0  0  0  0  0  0  0  0  0  0
   22.8448  -14.8735  -19.3783 C   0  0  0  0  0  0  0  0  0  0  0  0
   22.5816  -13.7617  -18.6416 N   0  0  0  0  0  0  0  0  0  0  0  0
   19.9270  -10.5117  -17.2203 C   0  0  0  0  0  0  0  0  0  0  0  0
   19.5025   -9.6580  -18.0320 O   0  0  0  0  0  0  0  0  0  0  0  0
   19.3594   -9.4939  -13.0934 O   0  0  0  0  0  0  0  0  0  0  0  0
   18.6934   -8.9440  -14.1477 C   0  0  0  0  0  0  0  0  0  0  0  0
   19.4951   -8.8591  -15.4339 C   0  0  2  0  0  0  0  0  0  0  0  0
   19.9754  -10.1474  -15.8529 N   0  0  0  0  0  0  0  0  0  0  0  0
   20.5887   -7.8668  -15.2742 C   0  0  0  0  0  0  0  0  0  0  0  0
   21.7989   -8.2529  -15.1165 O   0  0  0  0  0  0  0  0  0  0  0  0
   20.4103   -6.4604  -15.2810 N   0  0  0  0  0  0  0  0  0  0  0  0
   21.5039   -5.5131  -15.1727 C   0  0  1  0  0  0  0  0  0  0  0  0
   21.0113   -4.1910  -15.7362 C   0  0  0  0  0  0  0  0  0  0  0  0
   22.1103   -3.1802  -15.6279 C   0  0  0  0  0  0  0  0  0  0  0  0
   21.5722   -1.8342  -15.8682 C   0  0  0  0  0  0  0  0  0  0  0  0
   21.4743   -1.0185  -14.9300 O   0  0  0  0  0  0  0  0  0  0  0  0
   21.7780   -5.3040  -13.7335 C   0  0  0  0  0  0  0  0  0  0  0  0
   20.9429   -5.7682  -12.7254 O   0  0  0  0  0  0  0  0  0  0  0  0
   21.1736   -1.4745  -17.1415 O   0  0  0  0  0  0  0  0  0  0  0  0
   22.8049   -4.6820  -13.3715 O   0  0  0  0  0  0  0  0  0  0  0  0
  2  9  1  0
  2  1  1  6
  3  2  1  0
  4  3  1  0
  5  4  2  0
  6  7  1  0
  6  5  1  0
  7  8  2  0
  8  4  1  0
  9 14  1  0
 10  9  2  0
 12 11  1  0
 13 12  1  1
 14 13  1  0
 15 16  2  0
 15 13  1  0
 17 15  1  0
 18 19  1  1
 18 17  1  0
 19 20  1  0
 20 21  1  0
 21 22  2  0
 23 18  1  0
 24 23  1  0
 25 21  1  0
 26 23  2  0
M  END
$$$$
