HSE.pdb
     RDKit          3D

 26 26  0  0  1  0  0  0  0  0999 V2000
   18.4816  -12.3557  -17.4663 N   0  0  0  0  0  0  0  0  0  0  0  0
   19.7374  -11.6820  -17.2089 C   0  0  1  0  0  0  0  0  0  0  0  0
   20.5822  -11.5937  -18.4741 C   0  0  0  0  0  0  0  0  0  0  0  0
   21.0068  -12.9696  -18.8203 C   0  0  0  0  0  0  0  0  0  0  0  0
   20.4992  -13.7284  -19.8366 C   0  0  0  0  0  0  0  0  0  0  0  0
   21.1368  -14.9236  -19.8373 N   0  0  0  0  0  0  0  0  0  0  0  0
   22.0331  -14.9222  -18.8387 C   0  0  0  0  0  0  0  0  0  0  0  0
   21.9448  -13.7153  -18.2194 N   0  0  0  0  0  0  0  0  0  0  0  0
   19.4217  -10.2845  -16.7900 C   0  0  0  0  0  0  0  0  0  0  0  0
   18.8320   -9.5183  -17.5855 O   0  0  0  0  0  0  0  0  0  0  0  0
   19.3114   -8.9852  -12.7721 O   0  0  0  0  0  0  0  0  0  0  0  0
   18.6165   -8.4368  -13.8084 C   0  0  0  0  0  0  0  0  0  0  0  0
   19.3451   -8.4459  -15.1400 C   0  0  2  0  0  0  0  0  0  0  0  0
   19.7607   -9.7697  -15.5153 N   0  0  0  0  0  0  0  0  0  0  0  0
   20.4761   -7.4841  -15.0952 C   0  0  0  0  0  0  0  0  0  0  0  0
   21.6803   -7.9017  -14.9762 O   0  0  0  0  0  0  0  0  0  0  0  0
   20.3416   -6.0752  -15.1770 N   0  0  0  0  0  0  0  0  0  0  0  0
   21.4580   -5.1554  -15.0646 C   0  0  1  0  0  0  0  0  0  0  0  0
   21.0336   -3.8509  -15.7175 C   0  0  0  0  0  0  0  0  0  0  0  0
   22.1147   -2.8352  -15.5149 C   0  0  0  0  0  0  0  0  0  0  0  0
   21.6808   -1.5359  -16.0465 C   0  0  0  0  0  0  0  0  0  0  0  0
   21.7166   -0.5177  -15.3273 O   0  0  0  0  0  0  0  0  0  0  0  0
   21.6716   -4.8795  -13.6265 C   0  0  0  0  0  0  0  0  0  0  0  0
   22.8879   -4.4566  -13.1062 O   0  0  0  0  0  0  0  0  0  0  0  0
   21.2317   -1.4460  -17.3502 O   0  0  0  0  0  0  0  0  0  0  0  0
   20.7304   -5.0243  -12.8105 O   0  0  0  0  0  0  0  0  0  0  0  0
  2  9  1  0
  2  1  1  6
  3  2  1  0
  4  3  1  0
  5  4  2  0
  6  7  1  0
  6  5  1  0
  7  8  2  0
  8  4  1  0
  9 14  1  0
 10  9  2  0
 12 11  1  0
 13 12  1  1
 14 13  1  0
 15 16  2  0
 15 13  1  0
 17 15  1  0
 18 19  1  6
 18 17  1  0
 19 20  1  0
 20 21  1  0
 21 22  2  0
 23 18  1  0
 24 23  1  0
 25 21  1  0
 26 23  2  0
M  END
$$$$
