KPP.pdb
     RDKit          3D

 24 25  0  0  1  0  0  0  0  0999 V2000
    8.7267  -14.5203   20.6954 N   0  0  0  0  0  0  0  0  0  0  0  0
    8.0232  -15.1422   21.7921 C   0  0  1  0  0  0  0  0  0  0  0  0
    7.8900  -16.6097   21.5990 C   0  0  0  0  0  0  0  0  0  0  0  0
    7.1805  -17.3591   22.6312 C   0  0  0  0  0  0  0  0  0  0  0  0
    6.9666  -18.7989   22.5974 C   0  0  0  0  0  0  0  0  0  0  0  0
    6.1930  -19.4876   23.6482 C   0  0  0  0  0  0  0  0  0  0  0  0
    6.0124  -20.8963   23.1895 N   0  0  0  0  0  0  0  0  0  0  0  0
    8.6716  -14.8695   23.1296 C   0  0  0  0  0  0  0  0  0  0  0  0
    9.7986  -15.3992   23.2327 O   0  0  0  0  0  0  0  0  0  0  0  0
    8.1058  -14.1191   24.1458 N   0  0  0  0  0  0  0  0  0  0  0  0
    7.3108  -12.8713   23.9844 C   0  0  0  0  0  0  0  0  0  0  0  0
    6.1149  -13.2033   24.8953 C   0  0  0  0  0  0  0  0  0  0  0  0
    6.5830  -14.3556   25.7911 C   0  0  0  0  0  0  0  0  0  0  0  0
    8.0901  -14.2112   25.5893 C   0  0  1  0  0  0  0  0  0  0  0  0
    8.9070  -15.1642   26.2650 C   0  0  0  0  0  0  0  0  0  0  0  0
    9.0949  -16.3283   25.8850 O   0  0  0  0  0  0  0  0  0  0  0  0
    9.5702  -14.7669   27.4729 N   0  0  0  0  0  0  0  0  0  0  0  0
    9.5474  -13.4656   28.1208 C   0  0  0  0  0  0  0  0  0  0  0  0
   10.8972  -13.3744   28.8218 C   0  0  0  0  0  0  0  0  0  0  0  0
   10.9859  -14.7796   29.3708 C   0  0  0  0  0  0  0  0  0  0  0  0
   10.4261  -15.6249   28.2879 C   0  0  1  0  0  0  0  0  0  0  0  0
    9.7177  -16.8084   28.7793 C   0  0  0  0  0  0  0  0  0  0  0  0
    8.3538  -16.9028   28.6264 O   0  0  0  0  0  0  0  0  0  0  0  0
   10.3338  -17.7367   29.3367 O   0  0  0  0  0  0  0  0  0  0  0  0
  2  1  1  6
  3  4  1  0
  3  2  1  0
  5  6  1  0
  5  4  1  0
  6  7  1  0
  8  2  1  0
  9  8  2  0
 10 11  1  0
 10  8  1  0
 12 11  1  0
 13 12  1  0
 13 14  1  0
 14 10  1  0
 14 15  1  6
 16 15  2  0
 17 18  1  0
 17 15  1  0
 19 18  1  0
 20 21  1  0
 20 19  1  0
 21 17  1  0
 22 23  1  0
 21 22  1  1
 24 22  2  0
M  END
$$$$
