KPP.pdb
     RDKit          3D

 24 25  0  0  1  0  0  0  0  0999 V2000
   12.2655  -15.5607   19.7548 N   0  0  0  0  0  0  0  0  0  0  0  0
   10.8611  -15.2586   19.6108 C   0  0  1  0  0  0  0  0  0  0  0  0
   10.1067  -16.4061   19.0429 C   0  0  0  0  0  0  0  0  0  0  0  0
    9.2463  -16.1391   17.8944 C   0  0  0  0  0  0  0  0  0  0  0  0
    9.7357  -15.8503   16.5538 C   0  0  0  0  0  0  0  0  0  0  0  0
    8.8134  -15.5060   15.4548 C   0  0  0  0  0  0  0  0  0  0  0  0
    9.6572  -15.2911   14.2427 N   0  0  0  0  0  0  0  0  0  0  0  0
   10.2206  -14.8321   20.9114 C   0  0  0  0  0  0  0  0  0  0  0  0
   10.8114  -15.2942   21.9108 O   0  0  0  0  0  0  0  0  0  0  0  0
    9.1048  -14.0198   21.0159 N   0  0  0  0  0  0  0  0  0  0  0  0
    8.7605  -12.8744   20.1300 C   0  0  0  0  0  0  0  0  0  0  0  0
    7.2836  -13.2004   19.8429 C   0  0  0  0  0  0  0  0  0  0  0  0
    6.8588  -14.1934   20.9305 C   0  0  0  0  0  0  0  0  0  0  0  0
    7.9862  -13.9420   21.9298 C   0  0  1  0  0  0  0  0  0  0  0  0
    7.9608  -14.7332   23.1153 C   0  0  0  0  0  0  0  0  0  0  0  0
    8.2030  -15.9474   23.1587 O   0  0  0  0  0  0  0  0  0  0  0  0
    7.6359  -14.0972   24.3589 N   0  0  0  0  0  0  0  0  0  0  0  0
    7.3777  -12.6875   24.6033 C   0  0  0  0  0  0  0  0  0  0  0  0
    7.8342  -12.4685   26.0405 C   0  0  0  0  0  0  0  0  0  0  0  0
    7.2798  -13.7255   26.6701 C   0  0  0  0  0  0  0  0  0  0  0  0
    7.5152  -14.7740   25.6474 C   0  0  1  0  0  0  0  0  0  0  0  0
    6.4858  -15.8152   25.6324 C   0  0  0  0  0  0  0  0  0  0  0  0
    6.4790  -16.7856   26.6076 O   0  0  0  0  0  0  0  0  0  0  0  0
    5.6110  -15.8368   24.7457 O   0  0  0  0  0  0  0  0  0  0  0  0
  2  1  1  1
  3  4  1  0
  3  2  1  0
  5  6  1  0
  5  4  1  0
  6  7  1  0
  8  2  1  0
  9  8  2  0
 10 11  1  0
 10  8  1  0
 12 11  1  0
 13 12  1  0
 13 14  1  0
 14 10  1  0
 14 15  1  1
 16 15  2  0
 17 18  1  0
 17 15  1  0
 19 18  1  0
 20 21  1  0
 20 19  1  0
 21 17  1  0
 22 23  1  0
 21 22  1  6
 24 22  2  0
M  END
$$$$
