KPP.pdb
     RDKit          3D

 24 25  0  0  1  0  0  0  0  0999 V2000
    6.3588  -19.0433   25.9730 N   0  0  0  0  0  0  0  0  0  0  0  0
    6.8441  -17.6923   26.1274 C   0  0  1  0  0  0  0  0  0  0  0  0
    8.2819  -17.6634   26.5022 C   0  0  0  0  0  0  0  0  0  0  0  0
    9.1386  -18.7084   25.9504 C   0  0  0  0  0  0  0  0  0  0  0  0
   10.4291  -18.4630   25.3222 C   0  0  0  0  0  0  0  0  0  0  0  0
   11.2195  -19.5602   24.7322 C   0  0  0  0  0  0  0  0  0  0  0  0
   12.5051  -18.9585   24.2712 N   0  0  0  0  0  0  0  0  0  0  0  0
    6.6318  -16.8520   24.8895 C   0  0  0  0  0  0  0  0  0  0  0  0
    6.3672  -17.5416   23.8817 O   0  0  0  0  0  0  0  0  0  0  0  0
    6.7131  -15.4709   24.8461 N   0  0  0  0  0  0  0  0  0  0  0  0
    5.9982  -14.5160   25.7362 C   0  0  0  0  0  0  0  0  0  0  0  0
    7.1679  -13.5930   26.1231 C   0  0  0  0  0  0  0  0  0  0  0  0
    8.2610  -13.8488   25.0795 C   0  0  0  0  0  0  0  0  0  0  0  0
    7.4068  -14.5196   24.0058 C   0  0  1  0  0  0  0  0  0  0  0  0
    8.0967  -14.9521   22.8357 C   0  0  0  0  0  0  0  0  0  0  0  0
    8.7611  -15.9945   22.7530 O   0  0  0  0  0  0  0  0  0  0  0  0
    8.0281  -14.1378   21.6572 N   0  0  0  0  0  0  0  0  0  0  0  0
    7.2748  -12.9102   21.4594 C   0  0  0  0  0  0  0  0  0  0  0  0
    6.9493  -12.9082   19.9708 C   0  0  0  0  0  0  0  0  0  0  0  0
    8.2771  -13.3825   19.4269 C   0  0  0  0  0  0  0  0  0  0  0  0
    8.7163  -14.4136   20.3990 C   0  0  1  0  0  0  0  0  0  0  0  0
   10.1698  -14.4771   20.5644 C   0  0  0  0  0  0  0  0  0  0  0  0
   10.9352  -15.1514   19.6413 O   0  0  0  0  0  0  0  0  0  0  0  0
   10.7277  -13.9274   21.5332 O   0  0  0  0  0  0  0  0  0  0  0  0
  2  1  1  6
  3  4  1  0
  3  2  1  0
  5  6  1  0
  5  4  1  0
  6  7  1  0
  8  2  1  0
  9  8  2  0
 10 11  1  0
 10  8  1  0
 12 11  1  0
 13 12  1  0
 13 14  1  0
 14 10  1  0
 14 15  1  6
 16 15  2  0
 17 18  1  0
 17 15  1  0
 19 18  1  0
 20 21  1  0
 20 19  1  0
 21 17  1  0
 22 23  1  0
 21 22  1  1
 24 22  2  0
M  END
$$$$
