KPP.pdb
     RDKit          3D

 24 25  0  0  1  0  0  0  0  0999 V2000
   11.4164  -16.1154   17.1578 N   0  0  0  0  0  0  0  0  0  0  0  0
   10.0746  -15.7137   17.5079 C   0  0  1  0  0  0  0  0  0  0  0  0
    9.0674  -16.7112   17.0614 C   0  0  0  0  0  0  0  0  0  0  0  0
    9.0702  -18.0098   17.7279 C   0  0  0  0  0  0  0  0  0  0  0  0
    8.1353  -19.0856   17.4300 C   0  0  0  0  0  0  0  0  0  0  0  0
    8.2227  -20.3922   18.1096 C   0  0  0  0  0  0  0  0  0  0  0  0
    7.0581  -21.1967   17.6365 N   0  0  0  0  0  0  0  0  0  0  0  0
    9.9092  -15.4629   18.9889 C   0  0  0  0  0  0  0  0  0  0  0  0
   10.6282  -16.2112   19.6850 O   0  0  0  0  0  0  0  0  0  0  0  0
    9.0648  -14.5162   19.5425 N   0  0  0  0  0  0  0  0  0  0  0  0
    8.8345  -13.1353   19.0372 C   0  0  0  0  0  0  0  0  0  0  0  0
    7.2958  -13.0978   19.0703 C   0  0  0  0  0  0  0  0  0  0  0  0
    6.8725  -14.2462   19.9929 C   0  0  0  0  0  0  0  0  0  0  0  0
    8.2040  -14.4774   20.7044 C   0  0  1  0  0  0  0  0  0  0  0  0
    8.2280  -15.5337   21.6614 C   0  0  0  0  0  0  0  0  0  0  0  0
    8.1911  -16.7401   21.3820 O   0  0  0  0  0  0  0  0  0  0  0  0
    8.3022  -15.1978   23.0536 N   0  0  0  0  0  0  0  0  0  0  0  0
    8.3873  -13.8759   23.6528 C   0  0  0  0  0  0  0  0  0  0  0  0
    9.1667  -14.1005   24.9426 C   0  0  0  0  0  0  0  0  0  0  0  0
    8.5156  -15.3837   25.4045 C   0  0  0  0  0  0  0  0  0  0  0  0
    8.3192  -16.1576   24.1542 C   0  0  1  0  0  0  0  0  0  0  0  0
    7.1225  -17.0011   24.1727 C   0  0  0  0  0  0  0  0  0  0  0  0
    7.1328  -18.1893   24.8660 O   0  0  0  0  0  0  0  0  0  0  0  0
    6.0891  -16.6582   23.5672 O   0  0  0  0  0  0  0  0  0  0  0  0
  2  1  1  1
  3  4  1  0
  3  2  1  0
  5  6  1  0
  5  4  1  0
  6  7  1  0
  8  2  1  0
  9  8  2  0
 10 11  1  0
 10  8  1  0
 12 11  1  0
 13 12  1  0
 13 14  1  0
 14 10  1  0
 14 15  1  6
 16 15  2  0
 17 18  1  0
 17 15  1  0
 19 18  1  0
 20 21  1  0
 20 19  1  0
 21 17  1  0
 22 23  1  0
 21 22  1  1
 24 22  2  0
M  END
$$$$
