KPP.pdb
     RDKit          3D

 24 25  0  0  1  0  0  0  0  0999 V2000
    6.0271  -19.2997   25.3296 N   0  0  0  0  0  0  0  0  0  0  0  0
    7.0635  -18.2979   25.2476 C   0  0  1  0  0  0  0  0  0  0  0  0
    8.3991  -18.9057   25.0123 C   0  0  0  0  0  0  0  0  0  0  0  0
    9.4883  -18.4890   25.8901 C   0  0  0  0  0  0  0  0  0  0  0  0
   10.3550  -19.4085   26.6135 C   0  0  0  0  0  0  0  0  0  0  0  0
   11.5073  -18.9250   27.3979 C   0  0  0  0  0  0  0  0  0  0  0  0
   12.1762  -20.1344   27.9613 N   0  0  0  0  0  0  0  0  0  0  0  0
    6.7895  -17.2621   24.1819 C   0  0  0  0  0  0  0  0  0  0  0  0
    6.3672  -17.7672   23.1199 O   0  0  0  0  0  0  0  0  0  0  0  0
    6.9743  -15.8990   24.3360 N   0  0  0  0  0  0  0  0  0  0  0  0
    6.4127  -15.0490   25.4210 C   0  0  0  0  0  0  0  0  0  0  0  0
    7.6790  -14.2740   25.8283 C   0  0  0  0  0  0  0  0  0  0  0  0
    8.6579  -14.4354   24.6600 C   0  0  0  0  0  0  0  0  0  0  0  0
    7.6674  -14.8760   23.5841 C   0  0  1  0  0  0  0  0  0  0  0  0
    8.2215  -15.1661   22.3032 C   0  0  0  0  0  0  0  0  0  0  0  0
    8.8502  -16.1962   22.0231 O   0  0  0  0  0  0  0  0  0  0  0  0
    8.0485  -14.2111   21.2474 N   0  0  0  0  0  0  0  0  0  0  0  0
    7.3045  -12.9625   21.2822 C   0  0  0  0  0  0  0  0  0  0  0  0
    6.8270  -12.7728   19.8477 C   0  0  0  0  0  0  0  0  0  0  0  0
    8.0813  -13.1863   19.1131 C   0  0  0  0  0  0  0  0  0  0  0  0
    8.5970  -14.3336   19.8995 C   0  0  1  0  0  0  0  0  0  0  0  0
   10.0582  -14.4287   19.9021 C   0  0  0  0  0  0  0  0  0  0  0  0
   10.7662  -14.0639   21.0239 O   0  0  0  0  0  0  0  0  0  0  0  0
   10.6742  -14.8370   18.8992 O   0  0  0  0  0  0  0  0  0  0  0  0
  2  1  1  6
  3  4  1  0
  3  2  1  0
  5  6  1  0
  5  4  1  0
  6  7  1  0
  8  2  1  0
  9  8  2  0
 10 11  1  0
 10  8  1  0
 12 11  1  0
 13 12  1  0
 13 14  1  0
 14 10  1  0
 14 15  1  6
 16 15  2  0
 17 18  1  0
 17 15  1  0
 19 18  1  0
 20 21  1  0
 20 19  1  0
 21 17  1  0
 22 23  1  0
 21 22  1  1
 24 22  2  0
M  END
$$$$
