GKQ.pdb
     RDKit          3D

 23 22  0  0  1  0  0  0  0  0999 V2000
    5.0206  -18.9645   22.5287 N   0  0  0  0  0  0  0  0  0  0  0  0
    5.0128  -17.5362   22.6149 C   0  0  0  0  0  0  0  0  0  0  0  0
    6.3703  -16.9744   22.2999 C   0  0  0  0  0  0  0  0  0  0  0  0
    7.3411  -17.7082   22.0388 O   0  0  0  0  0  0  0  0  0  0  0  0
    6.5466  -15.5655   22.3012 N   0  0  0  0  0  0  0  0  0  0  0  0
    7.8199  -14.9399   21.8682 C   0  0  1  0  0  0  0  0  0  0  0  0
    7.4339  -13.6111   21.3077 C   0  0  0  0  0  0  0  0  0  0  0  0
    6.9206  -13.6213   19.9073 C   0  0  0  0  0  0  0  0  0  0  0  0
    8.0770  -13.7225   18.9112 C   0  0  0  0  0  0  0  0  0  0  0  0
    7.6065  -13.7064   17.4950 C   0  0  0  0  0  0  0  0  0  0  0  0
    8.7189  -13.9253   16.5823 N   0  0  0  0  0  0  0  0  0  0  0  0
    8.6987  -14.9185   23.0361 C   0  0  0  0  0  0  0  0  0  0  0  0
    8.3190  -14.3634   24.1317 O   0  0  0  0  0  0  0  0  0  0  0  0
    7.6838  -18.6200   26.3316 N   0  0  0  0  0  0  0  0  0  0  0  0
    8.9289  -18.2528   26.9845 C   0  0  0  0  0  0  0  0  0  0  0  0
    9.0907  -18.7123   28.1165 O   0  0  0  0  0  0  0  0  0  0  0  0
    9.9017  -17.3963   26.3254 C   0  0  0  0  0  0  0  0  0  0  0  0
    9.5611  -16.7894   25.0292 C   0  0  0  0  0  0  0  0  0  0  0  0
   10.6030  -15.9346   24.3686 C   0  0  2  0  0  0  0  0  0  0  0  0
   10.0049  -15.4732   23.1189 N   0  0  0  0  0  0  0  0  0  0  0  0
   11.9441  -16.4556   24.2699 C   0  0  0  0  0  0  0  0  0  0  0  0
   12.8453  -16.1376   25.3060 O   0  0  0  0  0  0  0  0  0  0  0  0
   12.3941  -17.1708   23.3361 O   0  0  0  0  0  0  0  0  0  0  0  0
  2  1  1  0
  3  2  1  0
  4  3  2  0
  5  3  1  0
  6 12  1  0
  6  5  1  0
  6  7  1  1
  8  7  1  0
  9  8  1  0
 10  9  1  0
 11 10  1  0
 12 20  1  0
 13 12  2  0
 15 17  1  0
 15 14  1  0
 16 15  2  0
 18 17  1  0
 19 18  1  6
 20 19  1  0
 21 22  1  0
 21 19  1  0
 23 21  2  0
M  END
$$$$
