GKQ.pdb
     RDKit          3D

 23 22  0  0  1  0  0  0  0  0999 V2000
   11.6302  -17.4107   18.2821 N   0  0  0  0  0  0  0  0  0  0  0  0
   12.0368  -18.7793   18.3780 C   0  0  0  0  0  0  0  0  0  0  0  0
   11.4155  -19.4386   19.5767 C   0  0  0  0  0  0  0  0  0  0  0  0
   10.8371  -18.7824   20.4621 O   0  0  0  0  0  0  0  0  0  0  0  0
   11.4926  -20.8512   19.6993 N   0  0  0  0  0  0  0  0  0  0  0  0
   10.8718  -21.5686   20.8396 C   0  0  1  0  0  0  0  0  0  0  0  0
   10.5605  -22.9339   20.3219 C   0  0  0  0  0  0  0  0  0  0  0  0
    9.8081  -23.8250   21.2517 C   0  0  0  0  0  0  0  0  0  0  0  0
    8.3027  -23.7107   21.0059 C   0  0  0  0  0  0  0  0  0  0  0  0
    7.5122  -24.5836   21.9227 C   0  0  0  0  0  0  0  0  0  0  0  0
    6.0872  -24.4444   21.6616 N   0  0  0  0  0  0  0  0  0  0  0  0
   11.8202  -21.4986   21.9496 C   0  0  0  0  0  0  0  0  0  0  0  0
   13.0829  -21.4023   21.7275 O   0  0  0  0  0  0  0  0  0  0  0  0
   12.5606  -20.1167   29.2895 N   0  0  0  0  0  0  0  0  0  0  0  0
   11.9341  -20.0849   27.9788 C   0  0  0  0  0  0  0  0  0  0  0  0
   10.8556  -19.4918   27.9199 O   0  0  0  0  0  0  0  0  0  0  0  0
   12.5579  -20.7208   26.8295 C   0  0  0  0  0  0  0  0  0  0  0  0
   11.8064  -20.8191   25.5685 C   0  0  0  0  0  0  0  0  0  0  0  0
   12.5048  -21.4348   24.3913 C   0  0  2  0  0  0  0  0  0  0  0  0
   11.5008  -21.5224   23.3346 N   0  0  0  0  0  0  0  0  0  0  0  0
   13.2891  -22.6242   24.6146 C   0  0  0  0  0  0  0  0  0  0  0  0
   14.6707  -22.4614   24.8417 O   0  0  0  0  0  0  0  0  0  0  0  0
   12.8559  -23.8067   24.6220 O   0  0  0  0  0  0  0  0  0  0  0  0
  2  1  1  0
  3  2  1  0
  4  3  2  0
  5  3  1  0
  6 12  1  0
  6  5  1  0
  6  7  1  6
  8  7  1  0
  9  8  1  0
 10  9  1  0
 11 10  1  0
 12 20  1  0
 13 12  2  0
 15 17  1  0
 15 14  1  0
 16 15  2  0
 18 17  1  0
 19 18  1  1
 20 19  1  0
 21 22  1  0
 21 19  1  0
 23 21  2  0
M  END
$$$$
