GKQ.pdb
     RDKit          3D

 23 22  0  0  1  0  0  0  0  0999 V2000
    4.5881  -20.2686   22.5988 N   0  0  0  0  0  0  0  0  0  0  0  0
    4.3747  -18.8551   22.6630 C   0  0  0  0  0  0  0  0  0  0  0  0
    5.6588  -18.1098   22.4328 C   0  0  0  0  0  0  0  0  0  0  0  0
    6.7513  -18.6976   22.3318 O   0  0  0  0  0  0  0  0  0  0  0  0
    5.6209  -16.6942   22.3280 N   0  0  0  0  0  0  0  0  0  0  0  0
    6.8335  -15.9051   22.0008 C   0  0  1  0  0  0  0  0  0  0  0  0
    6.3255  -14.5870   21.5174 C   0  0  0  0  0  0  0  0  0  0  0  0
    7.3629  -13.6248   21.0452 C   0  0  0  0  0  0  0  0  0  0  0  0
    7.6376  -13.8194   19.5531 C   0  0  0  0  0  0  0  0  0  0  0  0
    8.7606  -12.9641   19.0688 C   0  0  0  0  0  0  0  0  0  0  0  0
    9.0926  -13.2863   17.6888 N   0  0  0  0  0  0  0  0  0  0  0  0
    7.6578  -15.8773   23.2076 C   0  0  0  0  0  0  0  0  0  0  0  0
    7.1178  -15.7478   24.3671 O   0  0  0  0  0  0  0  0  0  0  0  0
    8.5894  -18.4169   27.9030 N   0  0  0  0  0  0  0  0  0  0  0  0
    9.6188  -18.9452   27.0240 C   0  0  0  0  0  0  0  0  0  0  0  0
   10.2453  -19.9122   27.4611 O   0  0  0  0  0  0  0  0  0  0  0  0
    9.8746  -18.3525   25.7211 C   0  0  0  0  0  0  0  0  0  0  0  0
    9.1027  -17.1705   25.3068 C   0  0  0  0  0  0  0  0  0  0  0  0
    9.8196  -16.1177   24.5127 C   0  0  2  0  0  0  0  0  0  0  0  0
    9.0741  -15.9852   23.2641 N   0  0  0  0  0  0  0  0  0  0  0  0
   11.2517  -16.2250   24.3824 C   0  0  0  0  0  0  0  0  0  0  0  0
   12.0338  -15.9324   25.5181 O   0  0  0  0  0  0  0  0  0  0  0  0
   11.8783  -16.5536   23.3406 O   0  0  0  0  0  0  0  0  0  0  0  0
  2  1  1  0
  3  2  1  0
  4  3  2  0
  5  3  1  0
  6 12  1  0
  6  5  1  0
  6  7  1  1
  8  7  1  0
  9  8  1  0
 10  9  1  0
 11 10  1  0
 12 20  1  0
 13 12  2  0
 15 17  1  0
 15 14  1  0
 16 15  2  0
 18 17  1  0
 19 18  1  6
 20 19  1  0
 21 22  1  0
 21 19  1  0
 23 21  2  0
M  END
$$$$
