GKQ.pdb
     RDKit          3D

 23 22  0  0  1  0  0  0  0  0999 V2000
    4.5875  -19.9564   22.7334 N   0  0  0  0  0  0  0  0  0  0  0  0
    4.6098  -18.5550   23.0220 C   0  0  0  0  0  0  0  0  0  0  0  0
    5.9570  -17.9668   22.7112 C   0  0  0  0  0  0  0  0  0  0  0  0
    6.9376  -18.6806   22.4317 O   0  0  0  0  0  0  0  0  0  0  0  0
    6.1120  -16.5556   22.7382 N   0  0  0  0  0  0  0  0  0  0  0  0
    7.4178  -15.9103   22.4576 C   0  0  1  0  0  0  0  0  0  0  0  0
    7.1158  -14.8206   21.4828 C   0  0  0  0  0  0  0  0  0  0  0  0
    7.9643  -14.7927   20.2565 C   0  0  0  0  0  0  0  0  0  0  0  0
    7.6063  -13.5901   19.3817 C   0  0  0  0  0  0  0  0  0  0  0  0
    8.2902  -13.6316   18.0559 C   0  0  0  0  0  0  0  0  0  0  0  0
    7.7756  -12.5891   17.1804 N   0  0  0  0  0  0  0  0  0  0  0  0
    7.9676  -15.4917   23.7456 C   0  0  0  0  0  0  0  0  0  0  0  0
    7.2238  -15.4509   24.7935 O   0  0  0  0  0  0  0  0  0  0  0  0
   10.5543  -19.2344   26.8847 N   0  0  0  0  0  0  0  0  0  0  0  0
    9.8446  -18.1979   27.6151 C   0  0  0  0  0  0  0  0  0  0  0  0
    9.7102  -18.3971   28.8238 O   0  0  0  0  0  0  0  0  0  0  0  0
    9.3347  -17.0149   26.9407 C   0  0  0  0  0  0  0  0  0  0  0  0
    9.3855  -16.9489   25.4718 C   0  0  0  0  0  0  0  0  0  0  0  0
   10.2184  -15.8633   24.8549 C   0  0  2  0  0  0  0  0  0  0  0  0
    9.3101  -15.1011   24.0026 N   0  0  0  0  0  0  0  0  0  0  0  0
   11.4793  -16.2317   24.2600 C   0  0  0  0  0  0  0  0  0  0  0  0
   12.6554  -15.8723   24.9490 O   0  0  0  0  0  0  0  0  0  0  0  0
   11.6336  -16.8458   23.1714 O   0  0  0  0  0  0  0  0  0  0  0  0
  2  1  1  0
  3  2  1  0
  4  3  2  0
  5  3  1  0
  6 12  1  0
  6  5  1  0
  6  7  1  6
  8  7  1  0
  9  8  1  0
 10  9  1  0
 11 10  1  0
 12 20  1  0
 13 12  2  0
 15 17  1  0
 15 14  1  0
 16 15  2  0
 18 17  1  0
 19 18  1  6
 20 19  1  0
 21 22  1  0
 21 19  1  0
 23 21  2  0
M  END
$$$$
