GKQ.pdb
     RDKit          3D

 23 22  0  0  1  0  0  0  0  0999 V2000
    5.2824  -19.4864   16.3745 N   0  0  0  0  0  0  0  0  0  0  0  0
    4.5567  -20.4489   17.1458 C   0  0  0  0  0  0  0  0  0  0  0  0
    4.3427  -19.9572   18.5493 C   0  0  0  0  0  0  0  0  0  0  0  0
    5.1532  -19.1974   19.1107 O   0  0  0  0  0  0  0  0  0  0  0  0
    3.1812  -20.3735   19.2522 N   0  0  0  0  0  0  0  0  0  0  0  0
    3.0134  -20.1116   20.7025 C   0  0  1  0  0  0  0  0  0  0  0  0
    1.5654  -20.3479   20.9792 C   0  0  0  0  0  0  0  0  0  0  0  0
    1.1437  -20.2006   22.4023 C   0  0  0  0  0  0  0  0  0  0  0  0
   -0.3525  -20.4813   22.5518 C   0  0  0  0  0  0  0  0  0  0  0  0
   -0.8228  -20.3072   23.9574 C   0  0  0  0  0  0  0  0  0  0  0  0
   -2.2506  -20.5711   24.0570 N   0  0  0  0  0  0  0  0  0  0  0  0
    3.9558  -20.9836   21.4011 C   0  0  0  0  0  0  0  0  0  0  0  0
    4.1610  -22.1859   20.9946 O   0  0  0  0  0  0  0  0  0  0  0  0
   10.5043  -20.9444   22.5541 N   0  0  0  0  0  0  0  0  0  0  0  0
    9.4420  -21.8036   22.0591 C   0  0  0  0  0  0  0  0  0  0  0  0
    9.6628  -22.3516   20.9776 O   0  0  0  0  0  0  0  0  0  0  0  0
    8.2091  -21.9858   22.8081 C   0  0  0  0  0  0  0  0  0  0  0  0
    7.0136  -21.2219   22.4185 C   0  0  0  0  0  0  0  0  0  0  0  0
    5.7292  -21.5340   23.1294 C   0  0  2  0  0  0  0  0  0  0  0  0
    4.7266  -20.6463   22.5470 N   0  0  0  0  0  0  0  0  0  0  0  0
    5.7506  -21.6002   24.5698 C   0  0  0  0  0  0  0  0  0  0  0  0
    5.7867  -22.8781   25.1636 O   0  0  0  0  0  0  0  0  0  0  0  0
    5.7355  -20.6171   25.3569 O   0  0  0  0  0  0  0  0  0  0  0  0
  2  1  1  0
  3  2  1  0
  4  3  2  0
  5  3  1  0
  6 12  1  0
  6  5  1  0
  6  7  1  1
  8  7  1  0
  9  8  1  0
 10  9  1  0
 11 10  1  0
 12 20  1  0
 13 12  2  0
 15 17  1  0
 15 14  1  0
 16 15  2  0
 18 17  1  0
 19 18  1  1
 20 19  1  0
 21 22  1  0
 21 19  1  0
 23 21  2  0
M  END
$$$$
