YMD.pdb
     RDKit          3D

 29 29  0  0  1  0  0  0  0  0999 V2000
   20.4115  -13.1114  -24.2267 O   0  0  0  0  0  0  0  0  0  0  0  0
   20.5696  -12.5136  -22.9815 C   0  0  0  0  0  0  0  0  0  0  0  0
   21.2446  -11.3084  -22.8872 C   0  0  0  0  0  0  0  0  0  0  0  0
   21.4110  -10.7038  -21.6724 C   0  0  0  0  0  0  0  0  0  0  0  0
   20.9064  -11.2952  -20.5437 C   0  0  0  0  0  0  0  0  0  0  0  0
   21.1133  -10.5980  -19.2256 C   0  0  0  0  0  0  0  0  0  0  0  0
   21.8929  -11.5890  -18.3505 C   0  0  2  0  0  0  0  0  0  0  0  0
   20.9775  -12.5683  -17.8191 N   0  0  0  0  0  0  0  0  0  0  0  0
   22.4221  -10.7816  -17.1881 C   0  0  0  0  0  0  0  0  0  0  0  0
   21.7347  -10.8098  -16.1437 O   0  0  0  0  0  0  0  0  0  0  0  0
   20.2368  -12.4921  -20.6429 C   0  0  0  0  0  0  0  0  0  0  0  0
   20.0640  -13.1079  -21.8571 C   0  0  0  0  0  0  0  0  0  0  0  0
   28.0764  -12.8644  -14.9388 C   0  0  0  0  0  0  0  0  0  0  0  0
   27.7445  -11.1644  -15.5097 S   0  0  0  0  0  0  0  0  0  0  0  0
   25.9401  -10.9283  -15.6780 C   0  0  0  0  0  0  0  0  0  0  0  0
   25.6599   -9.4926  -16.0264 C   0  0  0  0  0  0  0  0  0  0  0  0
   24.2032   -9.2135  -16.3151 C   0  0  2  0  0  0  0  0  0  0  0  0
   23.6239  -10.0524  -17.3110 N   0  0  0  0  0  0  0  0  0  0  0  0
   23.8376   -7.8126  -16.3928 C   0  0  0  0  0  0  0  0  0  0  0  0
   24.1124   -7.0155  -17.3016 O   0  0  0  0  0  0  0  0  0  0  0  0
   23.0672   -7.2571  -15.3042 N   0  0  0  0  0  0  0  0  0  0  0  0
   22.6120   -5.9128  -15.2898 C   0  0  1  0  0  0  0  0  0  0  0  0
   21.4832   -5.5856  -16.1877 C   0  0  0  0  0  0  0  0  0  0  0  0
   20.2370   -6.2938  -15.8183 C   0  0  0  0  0  0  0  0  0  0  0  0
   20.2135   -7.4491  -15.3398 O   0  0  0  0  0  0  0  0  0  0  0  0
   22.2354   -5.5081  -13.8889 C   0  0  0  0  0  0  0  0  0  0  0  0
   22.0374   -4.1674  -13.5697 O   0  0  0  0  0  0  0  0  0  0  0  0
   19.0289   -5.6481  -16.0104 O   0  0  0  0  0  0  0  0  0  0  0  0
   22.1024   -6.3994  -13.0117 O   0  0  0  0  0  0  0  0  0  0  0  0
  2  1  1  0
  3  2  2  0
  4  3  1  0
  5 11  1  0
  5  4  2  0
  6  5  1  0
  7  9  1  0
  7  6  1  0
  7  8  1  1
  9 10  2  0
 11 12  2  0
 12  2  1  0
 14 15  1  0
 14 13  1  0
 17 16  1  6
 16 15  1  0
 18 17  1  0
 18  9  1  0
 19 17  1  0
 20 19  2  0
 21 19  1  0
 22 23  1  6
 22 21  1  0
 23 24  1  0
 24 25  2  0
 24 28  1  0
 26 27  1  0
 26 22  1  0
 29 26  2  0
M  END
$$$$
