YMD.pdb
     RDKit          3D

 29 29  0  0  1  0  0  0  0  0999 V2000
   18.3182  -14.5130  -21.3592 O   0  0  0  0  0  0  0  0  0  0  0  0
   18.7987  -13.3974  -20.6830 C   0  0  0  0  0  0  0  0  0  0  0  0
   18.3630  -13.1447  -19.3933 C   0  0  0  0  0  0  0  0  0  0  0  0
   18.8231  -12.0533  -18.7107 C   0  0  0  0  0  0  0  0  0  0  0  0
   19.7201  -11.2064  -19.3077 C   0  0  0  0  0  0  0  0  0  0  0  0
   20.2002  -10.0148  -18.5227 C   0  0  0  0  0  0  0  0  0  0  0  0
   21.5885  -10.3995  -17.9932 C   0  0  2  0  0  0  0  0  0  0  0  0
   21.4397  -11.4035  -16.9689 N   0  0  0  0  0  0  0  0  0  0  0  0
   22.1358   -9.1544  -17.3350 C   0  0  0  0  0  0  0  0  0  0  0  0
   21.8405   -8.9971  -16.1299 O   0  0  0  0  0  0  0  0  0  0  0  0
   20.1497  -11.4619  -20.5888 C   0  0  0  0  0  0  0  0  0  0  0  0
   19.6944  -12.5544  -21.2833 C   0  0  0  0  0  0  0  0  0  0  0  0
   26.0465   -3.8377  -20.2322 C   0  0  0  0  0  0  0  0  0  0  0  0
   26.7298   -4.7991  -18.8412 S   0  0  0  0  0  0  0  0  0  0  0  0
   25.3629   -5.3397  -17.7552 C   0  0  0  0  0  0  0  0  0  0  0  0
   24.7235   -6.5685  -18.3401 C   0  0  0  0  0  0  0  0  0  0  0  0
   23.5183   -7.0499  -17.5661 C   0  0  2  0  0  0  0  0  0  0  0  0
   22.9294   -8.2468  -18.0681 N   0  0  0  0  0  0  0  0  0  0  0  0
   22.5825   -6.0195  -17.1600 C   0  0  0  0  0  0  0  0  0  0  0  0
   21.8158   -5.3737  -17.8893 O   0  0  0  0  0  0  0  0  0  0  0  0
   22.5147   -5.6883  -15.7554 N   0  0  0  0  0  0  0  0  0  0  0  0
   21.6136   -4.7233  -15.2340 C   0  0  1  0  0  0  0  0  0  0  0  0
   20.1833   -4.9064  -15.5628 C   0  0  0  0  0  0  0  0  0  0  0  0
   19.3306   -3.8249  -15.0206 C   0  0  0  0  0  0  0  0  0  0  0  0
   19.7430   -2.6660  -14.7945 O   0  0  0  0  0  0  0  0  0  0  0  0
   21.7489   -4.6440  -13.7362 C   0  0  0  0  0  0  0  0  0  0  0  0
   22.6276   -5.4864  -13.0605 O   0  0  0  0  0  0  0  0  0  0  0  0
   18.0038   -4.1045  -14.7466 O   0  0  0  0  0  0  0  0  0  0  0  0
   21.0560   -3.8054  -13.1050 O   0  0  0  0  0  0  0  0  0  0  0  0
  2  1  1  0
  3  2  2  0
  4  3  1  0
  5 11  1  0
  5  4  2  0
  6  5  1  0
  7  9  1  0
  7  6  1  0
  7  8  1  1
  9 10  2  0
 11 12  2  0
 12  2  1  0
 14 15  1  0
 14 13  1  0
 17 16  1  6
 16 15  1  0
 18 17  1  0
 18  9  1  0
 19 17  1  0
 20 19  2  0
 21 19  1  0
 22 23  1  1
 22 21  1  0
 23 24  1  0
 24 25  2  0
 24 28  1  0
 26 27  1  0
 26 22  1  0
 29 26  2  0
M  END
$$$$
