YMD.pdb
     RDKit          3D

 29 29  0  0  1  0  0  0  0  0999 V2000
   21.4491  -12.1205  -25.0403 O   0  0  0  0  0  0  0  0  0  0  0  0
   21.3853  -11.5112  -23.7923 C   0  0  0  0  0  0  0  0  0  0  0  0
   22.5135  -11.4857  -22.9902 C   0  0  0  0  0  0  0  0  0  0  0  0
   22.4722  -10.8916  -21.7596 C   0  0  0  0  0  0  0  0  0  0  0  0
   21.3073  -10.3192  -21.3197 C   0  0  0  0  0  0  0  0  0  0  0  0
   21.3033   -9.6776  -19.9578 C   0  0  0  0  0  0  0  0  0  0  0  0
   21.4356  -10.8323  -18.9553 C   0  0  2  0  0  0  0  0  0  0  0  0
   20.1956  -11.5673  -18.9179 N   0  0  0  0  0  0  0  0  0  0  0  0
   21.6217  -10.1829  -17.6038 C   0  0  0  0  0  0  0  0  0  0  0  0
   20.5865   -9.7324  -17.0656 O   0  0  0  0  0  0  0  0  0  0  0  0
   20.1896  -10.3473  -22.1202 C   0  0  0  0  0  0  0  0  0  0  0  0
   20.2197  -10.9409  -23.3571 C   0  0  0  0  0  0  0  0  0  0  0  0
   28.3383  -11.4800  -16.0093 C   0  0  0  0  0  0  0  0  0  0  0  0
   26.8703  -11.2367  -14.9550 S   0  0  0  0  0  0  0  0  0  0  0  0
   25.5375  -10.4750  -15.9466 C   0  0  0  0  0  0  0  0  0  0  0  0
   24.3902  -10.1194  -15.0421 C   0  0  0  0  0  0  0  0  0  0  0  0
   23.2187   -9.4984  -15.7668 C   0  0  2  0  0  0  0  0  0  0  0  0
   22.9021  -10.1081  -17.0155 N   0  0  0  0  0  0  0  0  0  0  0  0
   23.1702   -8.0494  -15.7524 C   0  0  0  0  0  0  0  0  0  0  0  0
   24.0642   -7.2660  -16.1045 O   0  0  0  0  0  0  0  0  0  0  0  0
   21.9577   -7.4216  -15.2804 N   0  0  0  0  0  0  0  0  0  0  0  0
   21.6683   -6.0482  -15.4922 C   0  0  1  0  0  0  0  0  0  0  0  0
   21.7773   -5.5546  -16.8821 C   0  0  0  0  0  0  0  0  0  0  0  0
   21.3955   -4.1306  -17.0131 C   0  0  0  0  0  0  0  0  0  0  0  0
   21.0862   -3.4050  -16.0426 O   0  0  0  0  0  0  0  0  0  0  0  0
   20.2890   -5.7244  -14.9815 C   0  0  0  0  0  0  0  0  0  0  0  0
   19.9583   -4.4221  -14.6166 O   0  0  0  0  0  0  0  0  0  0  0  0
   21.3779   -3.5651  -18.2755 O   0  0  0  0  0  0  0  0  0  0  0  0
   19.4405   -6.6481  -14.8896 O   0  0  0  0  0  0  0  0  0  0  0  0
  2  1  1  0
  3  2  2  0
  4  3  1  0
  5 11  1  0
  5  4  2  0
  6  5  1  0
  7  9  1  0
  7  6  1  0
  7  8  1  1
  9 10  2  0
 11 12  2  0
 12  2  1  0
 14 15  1  0
 14 13  1  0
 17 16  1  6
 16 15  1  0
 18 17  1  0
 18  9  1  0
 19 17  1  0
 20 19  2  0
 21 19  1  0
 22 23  1  6
 22 21  1  0
 23 24  1  0
 24 25  2  0
 24 28  1  0
 26 27  1  0
 26 22  1  0
 29 26  2  0
M  END
$$$$
