YMD.pdb
     RDKit          3D

 29 29  0  0  1  0  0  0  0  0999 V2000
   28.2306   -8.5539  -21.9610 O   0  0  0  0  0  0  0  0  0  0  0  0
   27.2018   -8.0813  -21.1541 C   0  0  0  0  0  0  0  0  0  0  0  0
   27.3245   -8.1659  -19.7776 C   0  0  0  0  0  0  0  0  0  0  0  0
   26.3246   -7.7070  -18.9661 C   0  0  0  0  0  0  0  0  0  0  0  0
   25.1961   -7.1611  -19.5199 C   0  0  0  0  0  0  0  0  0  0  0  0
   24.1176   -6.6699  -18.5914 C   0  0  0  0  0  0  0  0  0  0  0  0
   23.9656   -7.7585  -17.5201 C   0  0  2  0  0  0  0  0  0  0  0  0
   23.7062   -9.0213  -18.1662 N   0  0  0  0  0  0  0  0  0  0  0  0
   22.7313   -7.3881  -16.7312 C   0  0  0  0  0  0  0  0  0  0  0  0
   21.6364   -7.5890  -17.3011 O   0  0  0  0  0  0  0  0  0  0  0  0
   25.0793   -7.0794  -20.8875 C   0  0  0  0  0  0  0  0  0  0  0  0
   26.0767   -7.5369  -21.7116 C   0  0  0  0  0  0  0  0  0  0  0  0
   22.3521  -11.0976  -11.7034 C   0  0  0  0  0  0  0  0  0  0  0  0
   21.7692   -9.3701  -11.6561 S   0  0  0  0  0  0  0  0  0  0  0  0
   21.8788   -8.6526  -13.3333 C   0  0  0  0  0  0  0  0  0  0  0  0
   21.7442   -7.1578  -13.2410 C   0  0  0  0  0  0  0  0  0  0  0  0
   21.7686   -6.4643  -14.5833 C   0  0  2  0  0  0  0  0  0  0  0  0
   22.8468   -6.8505  -15.4317 N   0  0  0  0  0  0  0  0  0  0  0  0
   21.4733   -5.0450  -14.5602 C   0  0  0  0  0  0  0  0  0  0  0  0
   22.1747   -4.1411  -14.0828 O   0  0  0  0  0  0  0  0  0  0  0  0
   20.2306   -4.6068  -15.1525 N   0  0  0  0  0  0  0  0  0  0  0  0
   19.8526   -3.2407  -15.2282 C   0  0  1  0  0  0  0  0  0  0  0  0
   19.7622   -2.6522  -16.5819 C   0  0  0  0  0  0  0  0  0  0  0  0
   21.0905   -2.4123  -17.1894 C   0  0  0  0  0  0  0  0  0  0  0  0
   21.2769   -2.2916  -18.4201 O   0  0  0  0  0  0  0  0  0  0  0  0
   18.5350   -3.0281  -14.5304 C   0  0  0  0  0  0  0  0  0  0  0  0
   18.0735   -1.7408  -14.2690 O   0  0  0  0  0  0  0  0  0  0  0  0
   22.1901   -2.3155  -16.3557 O   0  0  0  0  0  0  0  0  0  0  0  0
   17.8580   -4.0309  -14.1873 O   0  0  0  0  0  0  0  0  0  0  0  0
  2  1  1  0
  3  2  2  0
  4  3  1  0
  5 11  1  0
  5  4  2  0
  6  5  1  0
  7  9  1  0
  7  6  1  0
  7  8  1  6
  9 10  2  0
 11 12  2  0
 12  2  1  0
 14 15  1  0
 14 13  1  0
 17 16  1  1
 16 15  1  0
 18 17  1  0
 18  9  1  0
 19 17  1  0
 20 19  2  0
 21 19  1  0
 22 23  1  6
 22 21  1  0
 23 24  1  0
 24 25  2  0
 24 28  1  0
 26 27  1  0
 26 22  1  0
 29 26  2  0
M  END
$$$$
