YMD.pdb
     RDKit          3D

 29 29  0  0  1  0  0  0  0  0999 V2000
   19.0949  -19.5135  -19.6375 O   0  0  0  0  0  0  0  0  0  0  0  0
   19.7566  -18.4208  -19.0889 C   0  0  0  0  0  0  0  0  0  0  0  0
   21.0290  -18.5877  -18.5692 C   0  0  0  0  0  0  0  0  0  0  0  0
   21.6970  -17.5263  -18.0252 C   0  0  0  0  0  0  0  0  0  0  0  0
   21.1026  -16.2918  -17.9952 C   0  0  0  0  0  0  0  0  0  0  0  0
   21.8712  -15.1499  -17.3853 C   0  0  0  0  0  0  0  0  0  0  0  0
   22.4485  -14.3604  -18.5681 C   0  0  2  0  0  0  0  0  0  0  0  0
   23.4710  -15.1511  -19.2073 N   0  0  0  0  0  0  0  0  0  0  0  0
   23.1198  -13.1490  -17.9641 C   0  0  0  0  0  0  0  0  0  0  0  0
   24.2648  -13.3339  -17.4961 O   0  0  0  0  0  0  0  0  0  0  0  0
   19.8388  -16.1314  -18.5127 C   0  0  0  0  0  0  0  0  0  0  0  0
   19.1589  -17.1899  -19.0610 C   0  0  0  0  0  0  0  0  0  0  0  0
   26.8807   -7.8301  -16.0917 C   0  0  0  0  0  0  0  0  0  0  0  0
   26.1906   -9.4114  -16.6826 S   0  0  0  0  0  0  0  0  0  0  0  0
   25.0164   -9.0835  -18.0441 C   0  0  0  0  0  0  0  0  0  0  0  0
   24.3412  -10.3690  -18.4347 C   0  0  0  0  0  0  0  0  0  0  0  0
   23.0649  -10.6380  -17.6719 C   0  0  2  0  0  0  0  0  0  0  0  0
   22.4631  -11.9002  -17.9476 N   0  0  0  0  0  0  0  0  0  0  0  0
   22.1470   -9.5200  -17.5731 C   0  0  0  0  0  0  0  0  0  0  0  0
   21.4802   -9.0146  -18.4879 O   0  0  0  0  0  0  0  0  0  0  0  0
   21.9701   -8.9075  -16.2768 N   0  0  0  0  0  0  0  0  0  0  0  0
   21.0353   -7.8665  -16.0375 C   0  0  1  0  0  0  0  0  0  0  0  0
   20.6250   -7.6542  -14.6325 C   0  0  0  0  0  0  0  0  0  0  0  0
   19.7438   -8.7308  -14.1270 C   0  0  0  0  0  0  0  0  0  0  0  0
   19.1874   -9.5733  -14.8649 O   0  0  0  0  0  0  0  0  0  0  0  0
   21.5608   -6.5633  -16.5794 C   0  0  0  0  0  0  0  0  0  0  0  0
   20.7750   -5.7792  -17.4197 O   0  0  0  0  0  0  0  0  0  0  0  0
   19.5194   -8.8151  -12.7646 O   0  0  0  0  0  0  0  0  0  0  0  0
   22.7202   -6.1940  -16.2614 O   0  0  0  0  0  0  0  0  0  0  0  0
  2  1  1  0
  3  2  2  0
  4  3  1  0
  5 11  1  0
  5  4  2  0
  6  5  1  0
  7  9  1  0
  7  6  1  0
  7  8  1  1
  9 10  2  0
 11 12  2  0
 12  2  1  0
 14 15  1  0
 14 13  1  0
 17 16  1  6
 16 15  1  0
 18 17  1  0
 18  9  1  0
 19 17  1  0
 20 19  2  0
 21 19  1  0
 22 23  1  1
 22 21  1  0
 23 24  1  0
 24 25  2  0
 24 28  1  0
 26 27  1  0
 26 22  1  0
 29 26  2  0
M  END
$$$$
