YMD.pdb
     RDKit          3D

 29 29  0  0  1  0  0  0  0  0999 V2000
   16.1627  -17.2691  -20.2902 O   0  0  0  0  0  0  0  0  0  0  0  0
   16.5839  -16.1842  -19.5297 C   0  0  0  0  0  0  0  0  0  0  0  0
   16.5545  -16.2705  -18.1482 C   0  0  0  0  0  0  0  0  0  0  0  0
   16.9644  -15.2153  -17.3818 C   0  0  0  0  0  0  0  0  0  0  0  0
   17.4063  -14.0672  -17.9860 C   0  0  0  0  0  0  0  0  0  0  0  0
   17.8464  -12.9277  -17.1061 C   0  0  0  0  0  0  0  0  0  0  0  0
   19.3738  -13.0445  -17.0099 C   0  0  2  0  0  0  0  0  0  0  0  0
   19.7076  -14.1579  -16.1566 N   0  0  0  0  0  0  0  0  0  0  0  0
   19.8387  -11.7844  -16.3178 C   0  0  0  0  0  0  0  0  0  0  0  0
   19.5358  -11.6799  -15.1089 O   0  0  0  0  0  0  0  0  0  0  0  0
   17.4335  -13.9867  -19.3585 C   0  0  0  0  0  0  0  0  0  0  0  0
   17.0243  -15.0397  -20.1375 C   0  0  0  0  0  0  0  0  0  0  0  0
   24.8223   -5.6658  -16.1324 C   0  0  0  0  0  0  0  0  0  0  0  0
   24.3967   -7.3135  -16.7880 S   0  0  0  0  0  0  0  0  0  0  0  0
   22.6624   -7.7006  -16.3613 C   0  0  0  0  0  0  0  0  0  0  0  0
   22.3456   -9.1023  -16.8039 C   0  0  0  0  0  0  0  0  0  0  0  0
   20.9117   -9.5067  -16.5519 C   0  0  2  0  0  0  0  0  0  0  0  0
   20.5692  -10.8065  -17.0258 N   0  0  0  0  0  0  0  0  0  0  0  0
   19.9195   -8.4767  -16.7903 C   0  0  0  0  0  0  0  0  0  0  0  0
   19.5395   -8.0416  -17.8872 O   0  0  0  0  0  0  0  0  0  0  0  0
   19.2871   -7.8729  -15.6403 N   0  0  0  0  0  0  0  0  0  0  0  0
   18.3441   -6.8172  -15.7452 C   0  0  1  0  0  0  0  0  0  0  0  0
   17.1795   -6.8760  -14.8356 C   0  0  0  0  0  0  0  0  0  0  0  0
   16.2028   -5.7930  -15.0888 C   0  0  0  0  0  0  0  0  0  0  0  0
   16.2426   -5.0457  -16.0909 O   0  0  0  0  0  0  0  0  0  0  0  0
   19.0288   -5.4897  -15.5527 C   0  0  0  0  0  0  0  0  0  0  0  0
   20.3740   -5.4333  -15.1981 O   0  0  0  0  0  0  0  0  0  0  0  0
   15.1880   -5.5909  -14.1707 O   0  0  0  0  0  0  0  0  0  0  0  0
   18.3671   -4.4329  -15.7168 O   0  0  0  0  0  0  0  0  0  0  0  0
  2  1  1  0
  3  2  2  0
  4  3  1  0
  5 11  1  0
  5  4  2  0
  6  5  1  0
  7  9  1  0
  7  6  1  0
  7  8  1  1
  9 10  2  0
 11 12  2  0
 12  2  1  0
 14 15  1  0
 14 13  1  0
 17 16  1  6
 16 15  1  0
 18 17  1  0
 18  9  1  0
 19 17  1  0
 20 19  2  0
 21 19  1  0
 22 23  1  1
 22 21  1  0
 23 24  1  0
 24 25  2  0
 24 28  1  0
 26 27  1  0
 26 22  1  0
 29 26  2  0
M  END
$$$$
