YMD.pdb
     RDKit          3D

 29 29  0  0  1  0  0  0  0  0999 V2000
   20.9076  -16.0345  -22.5193 O   0  0  0  0  0  0  0  0  0  0  0  0
   21.1663  -15.1759  -21.4569 C   0  0  0  0  0  0  0  0  0  0  0  0
   20.2633  -15.0990  -20.4101 C   0  0  0  0  0  0  0  0  0  0  0  0
   20.4986  -14.2613  -19.3558 C   0  0  0  0  0  0  0  0  0  0  0  0
   21.6345  -13.4947  -19.3368 C   0  0  0  0  0  0  0  0  0  0  0  0
   21.8548  -12.5836  -18.1587 C   0  0  0  0  0  0  0  0  0  0  0  0
   22.8763  -13.3008  -17.2655 C   0  0  2  0  0  0  0  0  0  0  0  0
   22.2426  -14.4379  -16.6454 N   0  0  0  0  0  0  0  0  0  0  0  0
   23.2242  -12.3194  -16.1706 C   0  0  0  0  0  0  0  0  0  0  0  0
   22.4245  -12.2638  -15.2107 O   0  0  0  0  0  0  0  0  0  0  0  0
   22.5281  -13.5748  -20.3789 C   0  0  0  0  0  0  0  0  0  0  0  0
   22.3019  -14.4122  -21.4423 C   0  0  0  0  0  0  0  0  0  0  0  0
   28.9502  -13.6837  -16.1380 C   0  0  0  0  0  0  0  0  0  0  0  0
   28.1265  -12.0761  -16.3893 S   0  0  0  0  0  0  0  0  0  0  0  0
   27.0337  -11.7315  -14.9656 C   0  0  0  0  0  0  0  0  0  0  0  0
   26.3253  -10.4245  -15.1913 C   0  0  0  0  0  0  0  0  0  0  0  0
   24.8252  -10.5620  -15.3091 C   0  0  2  0  0  0  0  0  0  0  0  0
   24.3905  -11.5302  -16.2604 N   0  0  0  0  0  0  0  0  0  0  0  0
   24.0800   -9.3182  -15.3030 C   0  0  0  0  0  0  0  0  0  0  0  0
   24.3128   -8.3083  -14.6228 O   0  0  0  0  0  0  0  0  0  0  0  0
   22.9342   -9.2164  -16.1770 N   0  0  0  0  0  0  0  0  0  0  0  0
   22.1284   -8.0507  -16.2582 C   0  0  1  0  0  0  0  0  0  0  0  0
   22.7623   -6.8457  -16.8357 C   0  0  0  0  0  0  0  0  0  0  0  0
   21.8320   -5.6977  -16.9221 C   0  0  0  0  0  0  0  0  0  0  0  0
   20.6370   -5.7465  -16.5565 O   0  0  0  0  0  0  0  0  0  0  0  0
   20.8714   -8.3426  -17.0347 C   0  0  0  0  0  0  0  0  0  0  0  0
   20.7006   -9.5714  -17.6668 O   0  0  0  0  0  0  0  0  0  0  0  0
   22.3038   -4.5025  -17.4344 O   0  0  0  0  0  0  0  0  0  0  0  0
   19.9783   -7.4598  -17.1036 O   0  0  0  0  0  0  0  0  0  0  0  0
  2  1  1  0
  3  2  2  0
  4  3  1  0
  5 11  1  0
  5  4  2  0
  6  5  1  0
  7  9  1  0
  7  6  1  0
  7  8  1  1
  9 10  2  0
 11 12  2  0
 12  2  1  0
 14 15  1  0
 14 13  1  0
 17 16  1  6
 16 15  1  0
 18 17  1  0
 18  9  1  0
 19 17  1  0
 20 19  2  0
 21 19  1  0
 22 23  1  6
 22 21  1  0
 23 24  1  0
 24 25  2  0
 24 28  1  0
 26 27  1  0
 26 22  1  0
 29 26  2  0
M  END
$$$$
