VMN.pdb
     RDKit          3D

 24 23  0  0  1  0  0  0  0  0999 V2000
   19.3633  -23.5685   -7.7977 C   0  0  0  0  0  0  0  0  0  0  0  0
   18.6216  -24.3288   -8.8865 C   0  0  2  0  0  0  0  0  0  0  0  0
   17.6283  -23.3310   -9.4818 C   0  0  0  0  0  0  0  0  0  0  0  0
   17.8165  -25.4528   -8.3098 C   0  0  2  0  0  0  0  0  0  0  0  0
   16.4809  -25.3845   -8.8713 N   0  0  0  0  0  0  0  0  0  0  0  0
   17.7457  -25.4009   -6.8251 C   0  0  0  0  0  0  0  0  0  0  0  0
   18.7978  -25.5451   -6.1547 O   0  0  0  0  0  0  0  0  0  0  0  0
   13.2440  -22.0911   -4.0084 C   0  0  0  0  0  0  0  0  0  0  0  0
   13.6474  -23.0306   -2.4989 S   0  0  0  0  0  0  0  0  0  0  0  0
   15.1067  -24.0946   -2.7904 C   0  0  0  0  0  0  0  0  0  0  0  0
   15.1609  -24.3069   -4.3093 C   0  0  0  0  0  0  0  0  0  0  0  0
   16.4465  -25.0547   -4.6856 C   0  0  2  0  0  0  0  0  0  0  0  0
   16.5347  -25.1947   -6.1290 N   0  0  0  0  0  0  0  0  0  0  0  0
   16.3908  -26.3735   -4.0133 C   0  0  0  0  0  0  0  0  0  0  0  0
   15.5023  -27.1938   -4.3527 O   0  0  0  0  0  0  0  0  0  0  0  0
   20.6784  -27.3821   -1.1000 N   0  0  0  0  0  0  0  0  0  0  0  0
   19.2615  -27.3876   -1.0709 C   0  0  0  0  0  0  0  0  0  0  0  0
   18.6765  -26.4165   -0.5370 O   0  0  0  0  0  0  0  0  0  0  0  0
   18.4696  -28.4866   -1.6421 C   0  0  0  0  0  0  0  0  0  0  0  0
   17.2220  -28.0445   -2.3236 C   0  0  2  0  0  0  0  0  0  0  0  0
   17.2967  -26.7792   -2.9875 N   0  0  0  0  0  0  0  0  0  0  0  0
   16.1289  -27.9891   -1.2970 C   0  0  0  0  0  0  0  0  0  0  0  0
   15.6956  -26.8811   -0.8919 O   0  0  0  0  0  0  0  0  0  0  0  0
   15.5573  -29.1335   -0.7581 O   0  0  0  0  0  0  0  0  0  0  0  0
  2  1  1  1
  2  3  1  0
  4  2  1  0
  4  6  1  0
  4  5  1  6
  6 13  1  0
  6  7  2  0
  9  8  1  0
 10  9  1  0
 11 10  1  0
 12 11  1  6
 13 12  1  0
 14 12  1  0
 14 15  2  0
 16 17  1  0
 17 19  1  0
 18 17  2  0
 20 19  1  1
 20 21  1  0
 21 14  1  0
 22 20  1  0
 23 22  2  0
 24 22  1  0
M  END
$$$$
