VMN.pdb
     RDKit          3D

 24 23  0  0  1  0  0  0  0  0999 V2000
   25.4880  -19.7377  -17.1729 C   0  0  0  0  0  0  0  0  0  0  0  0
   26.9124  -19.3804  -16.7767 C   0  0  2  0  0  0  0  0  0  0  0  0
   27.7495  -19.5606  -18.0429 C   0  0  0  0  0  0  0  0  0  0  0  0
   27.4490  -20.3410  -15.7600 C   0  0  2  0  0  0  0  0  0  0  0  0
   28.1845  -21.3754  -16.4619 N   0  0  0  0  0  0  0  0  0  0  0  0
   26.3760  -20.9545  -14.9326 C   0  0  0  0  0  0  0  0  0  0  0  0
   25.8699  -22.0455  -15.2940 O   0  0  0  0  0  0  0  0  0  0  0  0
   24.8269  -20.8861   -8.3871 C   0  0  0  0  0  0  0  0  0  0  0  0
   26.4512  -21.0170   -9.2048 S   0  0  0  0  0  0  0  0  0  0  0  0
   26.2359  -21.4700  -10.9641 C   0  0  0  0  0  0  0  0  0  0  0  0
   25.0577  -20.6228  -11.4632 C   0  0  0  0  0  0  0  0  0  0  0  0
   24.8088  -20.9012  -12.9511 C   0  0  2  0  0  0  0  0  0  0  0  0
   25.8964  -20.3576  -13.7464 N   0  0  0  0  0  0  0  0  0  0  0  0
   23.5137  -20.2708  -13.2971 C   0  0  0  0  0  0  0  0  0  0  0  0
   23.5122  -19.1311  -13.8249 O   0  0  0  0  0  0  0  0  0  0  0  0
   20.2006  -19.9443  -17.1504 N   0  0  0  0  0  0  0  0  0  0  0  0
   20.3544  -21.0864  -16.3256 C   0  0  0  0  0  0  0  0  0  0  0  0
   19.4972  -21.9967  -16.4088 O   0  0  0  0  0  0  0  0  0  0  0  0
   21.4770  -21.2308  -15.3873 C   0  0  0  0  0  0  0  0  0  0  0  0
   21.1575  -20.8216  -13.9920 C   0  0  2  0  0  0  0  0  0  0  0  0
   22.2462  -20.8849  -13.0657 N   0  0  0  0  0  0  0  0  0  0  0  0
   20.0471  -21.7003  -13.4951 C   0  0  0  0  0  0  0  0  0  0  0  0
   18.8812  -21.2448  -13.3813 O   0  0  0  0  0  0  0  0  0  0  0  0
   20.2505  -23.0280  -13.1454 O   0  0  0  0  0  0  0  0  0  0  0  0
  2  1  1  6
  2  3  1  0
  4  2  1  0
  4  6  1  0
  4  5  1  6
  6 13  1  0
  6  7  2  0
  9  8  1  0
 10  9  1  0
 11 10  1  0
 12 11  1  1
 13 12  1  0
 14 12  1  0
 14 15  2  0
 16 17  1  0
 17 19  1  0
 18 17  2  0
 20 19  1  6
 20 21  1  0
 21 14  1  0
 22 20  1  0
 23 22  2  0
 24 22  1  0
M  END
$$$$
