VMN.pdb
     RDKit          3D

 24 23  0  0  1  0  0  0  0  0999 V2000
   27.5860  -16.4932  -15.3100 C   0  0  0  0  0  0  0  0  0  0  0  0
   27.1779  -17.6690  -16.1844 C   0  0  2  0  0  0  0  0  0  0  0  0
   25.6545  -17.7467  -16.0852 C   0  0  0  0  0  0  0  0  0  0  0  0
   27.7154  -18.9585  -15.6436 C   0  0  2  0  0  0  0  0  0  0  0  0
   28.2504  -19.7242  -16.7532 N   0  0  0  0  0  0  0  0  0  0  0  0
   26.6803  -19.7540  -14.9309 C   0  0  0  0  0  0  0  0  0  0  0  0
   26.0346  -20.6270  -15.5617 O   0  0  0  0  0  0  0  0  0  0  0  0
   26.7050  -20.8394   -8.5245 C   0  0  0  0  0  0  0  0  0  0  0  0
   24.9054  -20.7304   -8.7960 S   0  0  0  0  0  0  0  0  0  0  0  0
   24.5205  -20.9655  -10.5689 C   0  0  0  0  0  0  0  0  0  0  0  0
   25.6017  -20.1854  -11.3288 C   0  0  0  0  0  0  0  0  0  0  0  0
   25.3819  -20.3279  -12.8404 C   0  0  2  0  0  0  0  0  0  0  0  0
   26.3886  -19.5684  -13.5620 N   0  0  0  0  0  0  0  0  0  0  0  0
   24.0162  -19.8306  -13.1265 C   0  0  0  0  0  0  0  0  0  0  0  0
   23.8783  -18.7099  -13.6766 O   0  0  0  0  0  0  0  0  0  0  0  0
   19.4037  -20.2806  -15.3414 N   0  0  0  0  0  0  0  0  0  0  0  0
   20.6230  -20.7750  -15.8678 C   0  0  0  0  0  0  0  0  0  0  0  0
   20.6550  -21.1074  -17.0757 O   0  0  0  0  0  0  0  0  0  0  0  0
   21.8354  -20.9072  -15.0468 C   0  0  0  0  0  0  0  0  0  0  0  0
   21.6469  -20.5233  -13.6208 C   0  0  2  0  0  0  0  0  0  0  0  0
   22.8270  -20.5545  -12.8122 N   0  0  0  0  0  0  0  0  0  0  0  0
   20.6262  -21.4475  -13.0241 C   0  0  0  0  0  0  0  0  0  0  0  0
   20.8851  -22.6687  -12.8791 O   0  0  0  0  0  0  0  0  0  0  0  0
   19.3757  -21.0070  -12.6132 O   0  0  0  0  0  0  0  0  0  0  0  0
  2  1  1  1
  2  3  1  0
  4  2  1  0
  4  6  1  0
  4  5  1  6
  6 13  1  0
  6  7  2  0
  9  8  1  0
 10  9  1  0
 11 10  1  0
 12 11  1  1
 13 12  1  0
 14 12  1  0
 14 15  2  0
 16 17  1  0
 17 19  1  0
 18 17  2  0
 20 19  1  6
 20 21  1  0
 21 14  1  0
 22 20  1  0
 23 22  2  0
 24 22  1  0
M  END
$$$$
