VMN.pdb
     RDKit          3D

 24 23  0  0  1  0  0  0  0  0999 V2000
   15.2042   -9.4669  -16.1822 C   0  0  0  0  0  0  0  0  0  0  0  0
   16.1838  -10.2226  -17.0670 C   0  0  2  0  0  0  0  0  0  0  0  0
   15.3849  -11.3756  -17.6745 C   0  0  0  0  0  0  0  0  0  0  0  0
   17.2843  -10.8356  -16.2563 C   0  0  2  0  0  0  0  0  0  0  0  0
   16.6907  -11.7903  -15.3399 N   0  0  0  0  0  0  0  0  0  0  0  0
   18.0660   -9.8230  -15.4974 C   0  0  0  0  0  0  0  0  0  0  0  0
   17.8831   -9.7070  -14.2603 O   0  0  0  0  0  0  0  0  0  0  0  0
   23.2115  -11.3660  -14.4687 C   0  0  0  0  0  0  0  0  0  0  0  0
   23.3179   -9.5550  -14.2874 S   0  0  0  0  0  0  0  0  0  0  0  0
   21.6488   -8.8473  -14.0424 C   0  0  0  0  0  0  0  0  0  0  0  0
   21.2463   -8.2682  -15.4053 C   0  0  0  0  0  0  0  0  0  0  0  0
   19.7479   -7.9392  -15.4100 C   0  0  2  0  0  0  0  0  0  0  0  0
   19.0141   -8.9773  -16.1133 N   0  0  0  0  0  0  0  0  0  0  0  0
   19.5975   -6.6226  -16.0721 C   0  0  0  0  0  0  0  0  0  0  0  0
   19.6630   -6.5592  -17.3248 O   0  0  0  0  0  0  0  0  0  0  0  0
   16.6006   -4.5553  -16.9044 N   0  0  0  0  0  0  0  0  0  0  0  0
   16.8487   -3.5504  -15.9363 C   0  0  0  0  0  0  0  0  0  0  0  0
   15.8697   -2.9210  -15.4719 O   0  0  0  0  0  0  0  0  0  0  0  0
   18.2051   -3.2302  -15.4682 C   0  0  0  0  0  0  0  0  0  0  0  0
   19.2615   -4.1284  -16.0102 C   0  0  2  0  0  0  0  0  0  0  0  0
   19.3792   -5.4010  -15.3669 N   0  0  0  0  0  0  0  0  0  0  0  0
   20.5755   -3.4108  -15.9088 C   0  0  0  0  0  0  0  0  0  0  0  0
   21.3666   -3.6676  -14.9666 O   0  0  0  0  0  0  0  0  0  0  0  0
   20.9706   -2.4508  -16.8301 O   0  0  0  0  0  0  0  0  0  0  0  0
  2  1  1  1
  2  3  1  0
  4  2  1  0
  4  6  1  0
  4  5  1  1
  6 13  1  0
  6  7  2  0
  9  8  1  0
 10  9  1  0
 11 10  1  0
 12 11  1  6
 13 12  1  0
 14 12  1  0
 14 15  2  0
 16 17  1  0
 17 19  1  0
 18 17  2  0
 20 19  1  1
 20 21  1  0
 21 14  1  0
 22 20  1  0
 23 22  2  0
 24 22  1  0
M  END
$$$$
