VMN.pdb
     RDKit          3D

 24 23  0  0  1  0  0  0  0  0999 V2000
   29.2007  -17.9038  -15.2073 C   0  0  0  0  0  0  0  0  0  0  0  0
   28.4029  -19.1915  -15.3457 C   0  0  2  0  0  0  0  0  0  0  0  0
   28.7753  -19.7616  -16.7143 C   0  0  0  0  0  0  0  0  0  0  0  0
   26.9307  -18.9161  -15.3750 C   0  0  2  0  0  0  0  0  0  0  0  0
   26.7027  -17.6198  -14.7656 N   0  0  0  0  0  0  0  0  0  0  0  0
   26.1412  -19.9567  -14.6636 C   0  0  0  0  0  0  0  0  0  0  0  0
   26.1227  -21.1286  -15.1147 O   0  0  0  0  0  0  0  0  0  0  0  0
   24.8164  -20.8674   -8.2320 C   0  0  0  0  0  0  0  0  0  0  0  0
   26.4164  -20.6959   -9.0891 S   0  0  0  0  0  0  0  0  0  0  0  0
   26.2228  -21.0800  -10.8672 C   0  0  0  0  0  0  0  0  0  0  0  0
   24.8498  -20.5179  -11.2596 C   0  0  0  0  0  0  0  0  0  0  0  0
   24.6326  -20.6794  -12.7697 C   0  0  2  0  0  0  0  0  0  0  0  0
   25.4038  -19.6818  -13.4914 N   0  0  0  0  0  0  0  0  0  0  0  0
   23.1798  -20.5266  -13.0153 C   0  0  0  0  0  0  0  0  0  0  0  0
   22.6484  -19.4008  -12.8486 O   0  0  0  0  0  0  0  0  0  0  0  0
   18.5593  -21.4019  -16.2604 N   0  0  0  0  0  0  0  0  0  0  0  0
   19.0220  -22.1659  -15.1601 C   0  0  0  0  0  0  0  0  0  0  0  0
   18.1719  -22.7173  -14.4228 O   0  0  0  0  0  0  0  0  0  0  0  0
   20.4529  -22.3273  -14.8637 C   0  0  0  0  0  0  0  0  0  0  0  0
   20.9592  -21.4135  -13.8029 C   0  0  2  0  0  0  0  0  0  0  0  0
   22.3304  -21.5938  -13.4361 N   0  0  0  0  0  0  0  0  0  0  0  0
   20.1032  -21.6001  -12.5845 C   0  0  0  0  0  0  0  0  0  0  0  0
   20.3642  -22.5123  -11.7604 O   0  0  0  0  0  0  0  0  0  0  0  0
   19.0071  -20.7919  -12.3162 O   0  0  0  0  0  0  0  0  0  0  0  0
  2  1  1  6
  2  3  1  0
  4  2  1  0
  4  6  1  0
  4  5  1  1
  6 13  1  0
  6  7  2  0
  9  8  1  0
 10  9  1  0
 11 10  1  0
 12 11  1  1
 13 12  1  0
 14 12  1  0
 14 15  2  0
 16 17  1  0
 17 19  1  0
 18 17  2  0
 20 19  1  6
 20 21  1  0
 21 14  1  0
 22 20  1  0
 23 22  2  0
 24 22  1  0
M  END
$$$$
