VMN.pdb
     RDKit          3D

 24 23  0  0  1  0  0  0  0  0999 V2000
   22.0512  -12.8153  -21.1430 C   0  0  0  0  0  0  0  0  0  0  0  0
   21.3795  -11.5229  -20.7045 C   0  0  2  0  0  0  0  0  0  0  0  0
   21.6938  -10.5035  -21.7993 C   0  0  0  0  0  0  0  0  0  0  0  0
   21.9844  -11.0010  -19.4373 C   0  0  2  0  0  0  0  0  0  0  0  0
   22.3841  -12.1363  -18.6280 N   0  0  0  0  0  0  0  0  0  0  0  0
   21.0470  -10.1371  -18.6711 C   0  0  0  0  0  0  0  0  0  0  0  0
   20.6409   -9.0653  -19.1844 O   0  0  0  0  0  0  0  0  0  0  0  0
   17.5504  -12.7607  -14.2286 C   0  0  0  0  0  0  0  0  0  0  0  0
   16.6234  -12.3294  -15.7381 S   0  0  0  0  0  0  0  0  0  0  0  0
   17.6059  -11.1875  -16.7760 C   0  0  0  0  0  0  0  0  0  0  0  0
   18.6863  -10.6179  -15.8469 C   0  0  0  0  0  0  0  0  0  0  0  0
   19.6163   -9.6882  -16.6372 C   0  0  2  0  0  0  0  0  0  0  0  0
   20.5891  -10.4724  -17.3782 N   0  0  0  0  0  0  0  0  0  0  0  0
   20.2722   -8.7961  -15.6532 C   0  0  0  0  0  0  0  0  0  0  0  0
   21.3935   -9.1200  -15.1893 O   0  0  0  0  0  0  0  0  0  0  0  0
   21.8120   -4.5745  -13.0078 N   0  0  0  0  0  0  0  0  0  0  0  0
   22.3443   -5.0526  -14.2311 C   0  0  0  0  0  0  0  0  0  0  0  0
   23.4183   -4.5560  -14.6439 O   0  0  0  0  0  0  0  0  0  0  0  0
   21.6800   -6.1011  -15.0190 C   0  0  0  0  0  0  0  0  0  0  0  0
   20.4219   -6.6125  -14.4091 C   0  0  2  0  0  0  0  0  0  0  0  0
   19.7029   -7.5718  -15.1903 N   0  0  0  0  0  0  0  0  0  0  0  0
   19.5273   -5.4380  -14.1406 C   0  0  0  0  0  0  0  0  0  0  0  0
   19.9110   -4.5084  -13.3869 O   0  0  0  0  0  0  0  0  0  0  0  0
   18.2617   -5.3253  -14.6995 O   0  0  0  0  0  0  0  0  0  0  0  0
  2  1  1  6
  2  3  1  0
  4  2  1  0
  4  6  1  0
  4  5  1  1
  6 13  1  0
  6  7  2  0
  9  8  1  0
 10  9  1  0
 11 10  1  0
 12 11  1  1
 13 12  1  0
 14 12  1  0
 14 15  2  0
 16 17  1  0
 17 19  1  0
 18 17  2  0
 20 19  1  6
 20 21  1  0
 21 14  1  0
 22 20  1  0
 23 22  2  0
 24 22  1  0
M  END
$$$$
