VMN.pdb
     RDKit          3D

 24 23  0  0  1  0  0  0  0  0999 V2000
   22.5275  -21.4933  -15.0390 C   0  0  0  0  0  0  0  0  0  0  0  0
   21.3027  -20.6270  -14.7876 C   0  0  2  0  0  0  0  0  0  0  0  0
   20.1623  -21.2930  -15.5573 C   0  0  0  0  0  0  0  0  0  0  0  0
   21.4790  -19.2578  -15.3694 C   0  0  2  0  0  0  0  0  0  0  0  0
   21.6700  -19.3976  -16.8003 N   0  0  0  0  0  0  0  0  0  0  0  0
   22.6299  -18.5283  -14.7731 C   0  0  0  0  0  0  0  0  0  0  0  0
   22.6479  -18.3164  -13.5354 O   0  0  0  0  0  0  0  0  0  0  0  0
   28.2209  -19.8287  -15.5668 C   0  0  0  0  0  0  0  0  0  0  0  0
   27.8654  -19.4638  -13.8163 S   0  0  0  0  0  0  0  0  0  0  0  0
   26.2800  -18.5628  -13.6701 C   0  0  0  0  0  0  0  0  0  0  0  0
   26.0928  -17.8445  -15.0132 C   0  0  0  0  0  0  0  0  0  0  0  0
   24.7274  -17.1457  -15.0448 C   0  0  2  0  0  0  0  0  0  0  0  0
   23.7142  -18.0584  -15.5458 N   0  0  0  0  0  0  0  0  0  0  0  0
   24.8706  -15.9585  -15.9191 C   0  0  0  0  0  0  0  0  0  0  0  0
   25.0131  -16.1258  -17.1558 O   0  0  0  0  0  0  0  0  0  0  0  0
   25.0553  -11.1728  -17.9541 N   0  0  0  0  0  0  0  0  0  0  0  0
   24.7357  -11.0187  -16.5820 C   0  0  0  0  0  0  0  0  0  0  0  0
   24.5309   -9.8610  -16.1481 O   0  0  0  0  0  0  0  0  0  0  0  0
   24.6393  -12.1643  -15.6657 C   0  0  0  0  0  0  0  0  0  0  0  0
   24.9840  -13.4710  -16.2903 C   0  0  2  0  0  0  0  0  0  0  0  0
   24.8569  -14.6143  -15.4393 N   0  0  0  0  0  0  0  0  0  0  0  0
   26.3989  -13.3890  -16.7835 C   0  0  0  0  0  0  0  0  0  0  0  0
   27.3563  -13.4196  -15.9698 O   0  0  0  0  0  0  0  0  0  0  0  0
   26.7102  -13.2780  -18.1315 O   0  0  0  0  0  0  0  0  0  0  0  0
  2  1  1  6
  2  3  1  0
  4  2  1  0
  4  6  1  0
  4  5  1  6
  6 13  1  0
  6  7  2  0
  9  8  1  0
 10  9  1  0
 11 10  1  0
 12 11  1  6
 13 12  1  0
 14 12  1  0
 14 15  2  0
 16 17  1  0
 17 19  1  0
 18 17  2  0
 20 19  1  1
 20 21  1  0
 21 14  1  0
 22 20  1  0
 23 22  2  0
 24 22  1  0
M  END
$$$$
