IGA.pdb
     RDKit          3D

 18 17  0  0  1  0  0  0  0  0999 V2000
   24.6082  -13.5913  -19.0505 C   0  0  0  0  0  0  0  0  0  0  0  0
   24.2785  -13.9133  -17.6298 C   0  0  0  0  0  0  0  0  0  0  0  0
   23.2054  -13.0611  -17.0422 C   0  0  2  0  0  0  0  0  0  0  0  0
   21.9554  -13.0805  -17.8586 C   0  0  0  0  0  0  0  0  0  0  0  0
   23.7221  -11.6396  -16.8062 C   0  0  2  0  0  0  0  0  0  0  0  0
   24.9509  -11.7531  -16.0855 N   0  0  0  0  0  0  0  0  0  0  0  0
   22.7019  -10.8271  -16.0950 C   0  0  0  0  0  0  0  0  0  0  0  0
   22.2158  -11.2555  -15.0173 O   0  0  0  0  0  0  0  0  0  0  0  0
   22.2837   -9.5829  -16.6286 N   0  0  0  0  0  0  0  0  0  0  0  0
   21.1940   -8.8083  -16.0450 C   0  0  0  0  0  0  0  0  0  0  0  0
   21.7128   -7.4515  -15.7502 C   0  0  0  0  0  0  0  0  0  0  0  0
   22.9005   -7.1261  -16.0054 O   0  0  0  0  0  0  0  0  0  0  0  0
   20.0325   -4.2023  -14.9658 C   0  0  0  0  0  0  0  0  0  0  0  0
   21.2589   -5.0858  -15.0182 C   0  0  2  0  0  0  0  0  0  0  0  0
   20.8492   -6.4617  -15.1544 N   0  0  0  0  0  0  0  0  0  0  0  0
   22.0958   -4.9462  -13.8080 C   0  0  0  0  0  0  0  0  0  0  0  0
   23.0132   -3.9247  -13.6747 O   0  0  0  0  0  0  0  0  0  0  0  0
   21.9630   -5.7805  -12.8838 O   0  0  0  0  0  0  0  0  0  0  0  0
  1  2  1  0
  2  3  1  0
  3  5  1  0
  3  4  1  6
  5  7  1  0
  5  6  1  1
  7  8  2  0
  9 10  1  0
  9  7  1  0
 11 12  2  0
 11 10  1  0
 14 13  1  1
 14 16  1  0
 14 15  1  0
 15 11  1  0
 16 17  1  0
 18 16  2  0
M  END
$$$$
