IGA.pdb
     RDKit          3D

 18 17  0  0  1  0  0  0  0  0999 V2000
   23.5287  -13.4605  -19.2401 C   0  0  0  0  0  0  0  0  0  0  0  0
   24.0760  -12.6368  -18.1209 C   0  0  0  0  0  0  0  0  0  0  0  0
   23.0536  -11.8231  -17.4029 C   0  0  2  0  0  0  0  0  0  0  0  0
   22.2455  -10.9795  -18.3328 C   0  0  0  0  0  0  0  0  0  0  0  0
   23.7111  -10.9976  -16.2940 C   0  0  2  0  0  0  0  0  0  0  0  0
   24.5634  -11.8805  -15.5617 N   0  0  0  0  0  0  0  0  0  0  0  0
   22.6777  -10.3487  -15.4468 C   0  0  0  0  0  0  0  0  0  0  0  0
   21.9018  -11.0658  -14.7647 O   0  0  0  0  0  0  0  0  0  0  0  0
   22.5706   -8.9363  -15.4103 N   0  0  0  0  0  0  0  0  0  0  0  0
   21.5479   -8.2495  -14.6290 C   0  0  0  0  0  0  0  0  0  0  0  0
   20.7977   -7.3623  -15.5492 C   0  0  0  0  0  0  0  0  0  0  0  0
   21.1579   -7.1867  -16.7412 O   0  0  0  0  0  0  0  0  0  0  0  0
   17.5399   -5.4729  -15.3030 C   0  0  0  0  0  0  0  0  0  0  0  0
   18.8675   -5.7965  -15.9512 C   0  0  2  0  0  0  0  0  0  0  0  0
   19.6194   -6.6713  -15.0857 N   0  0  0  0  0  0  0  0  0  0  0  0
   19.6636   -4.5812  -16.2227 C   0  0  0  0  0  0  0  0  0  0  0  0
   20.7697   -4.2547  -15.4659 O   0  0  0  0  0  0  0  0  0  0  0  0
   19.3190   -3.8331  -17.1659 O   0  0  0  0  0  0  0  0  0  0  0  0
  1  2  1  0
  2  3  1  0
  3  5  1  0
  3  4  1  6
  5  7  1  0
  5  6  1  1
  7  8  2  0
  9 10  1  0
  9  7  1  0
 11 12  2  0
 11 10  1  0
 14 13  1  1
 14 16  1  0
 14 15  1  0
 15 11  1  0
 16 17  1  0
 18 16  2  0
M  END
$$$$
