IGA.pdb
     RDKit          3D

 18 17  0  0  1  0  0  0  0  0999 V2000
   11.8189  -24.4078   -4.1742 C   0  0  0  0  0  0  0  0  0  0  0  0
   13.1238  -23.7666   -3.8324 C   0  0  0  0  0  0  0  0  0  0  0  0
   13.4202  -23.7224   -2.3719 C   0  0  2  0  0  0  0  0  0  0  0  0
   12.3731  -22.9861   -1.6031 C   0  0  0  0  0  0  0  0  0  0  0  0
   14.8224  -23.1586   -2.1288 C   0  0  2  0  0  0  0  0  0  0  0  0
   15.7011  -23.8036   -3.0529 N   0  0  0  0  0  0  0  0  0  0  0  0
   15.2223  -23.3529   -0.7113 C   0  0  0  0  0  0  0  0  0  0  0  0
   15.7265  -24.4496   -0.3589 O   0  0  0  0  0  0  0  0  0  0  0  0
   15.0358  -22.3109    0.2306 N   0  0  0  0  0  0  0  0  0  0  0  0
   15.4714  -22.4239    1.6182 C   0  0  0  0  0  0  0  0  0  0  0  0
   15.1326  -21.1533    2.3020 C   0  0  0  0  0  0  0  0  0  0  0  0
   14.6691  -20.1664    1.6753 O   0  0  0  0  0  0  0  0  0  0  0  0
   15.0350  -20.0490    5.9088 C   0  0  0  0  0  0  0  0  0  0  0  0
   15.0427  -19.7924    4.4183 C   0  0  2  0  0  0  0  0  0  0  0  0
   15.3321  -21.0231    3.7246 N   0  0  0  0  0  0  0  0  0  0  0  0
   16.0422  -18.7731    4.0356 C   0  0  0  0  0  0  0  0  0  0  0  0
   15.8105  -17.4256    4.2187 O   0  0  0  0  0  0  0  0  0  0  0  0
   17.1253  -19.1499    3.5326 O   0  0  0  0  0  0  0  0  0  0  0  0
  1  2  1  0
  2  3  1  0
  3  5  1  0
  3  4  1  1
  5  7  1  0
  5  6  1  6
  7  8  2  0
  9 10  1  0
  9  7  1  0
 11 12  2  0
 11 10  1  0
 14 13  1  1
 14 16  1  0
 14 15  1  0
 15 11  1  0
 16 17  1  0
 18 16  2  0
M  END
$$$$
