IGA.pdb
     RDKit          3D

 18 17  0  0  1  0  0  0  0  0999 V2000
   16.3417  -14.2288  -17.5333 C   0  0  0  0  0  0  0  0  0  0  0  0
   17.3284  -13.6660  -16.5635 C   0  0  0  0  0  0  0  0  0  0  0  0
   17.7400  -12.2628  -16.8539 C   0  0  2  0  0  0  0  0  0  0  0  0
   18.3567  -12.1213  -18.2064 C   0  0  0  0  0  0  0  0  0  0  0  0
   18.6504  -11.7330  -15.7431 C   0  0  2  0  0  0  0  0  0  0  0  0
   17.9767  -11.9599  -14.5033 N   0  0  0  0  0  0  0  0  0  0  0  0
   18.9766  -10.3026  -15.9762 C   0  0  0  0  0  0  0  0  0  0  0  0
   18.1120   -9.4251  -15.7236 O   0  0  0  0  0  0  0  0  0  0  0  0
   20.2497   -9.9350  -16.4779 N   0  0  0  0  0  0  0  0  0  0  0  0
   20.5489   -8.5829  -16.9364 C   0  0  0  0  0  0  0  0  0  0  0  0
   21.2992   -7.8968  -15.8579 C   0  0  0  0  0  0  0  0  0  0  0  0
   21.4290   -8.4041  -14.7145 O   0  0  0  0  0  0  0  0  0  0  0  0
   23.4371   -4.7934  -15.7094 C   0  0  0  0  0  0  0  0  0  0  0  0
   22.6402   -5.9136  -15.0787 C   0  0  2  0  0  0  0  0  0  0  0  0
   21.9052   -6.6112  -16.1046 N   0  0  0  0  0  0  0  0  0  0  0  0
   21.6946   -5.4155  -14.0577 C   0  0  0  0  0  0  0  0  0  0  0  0
   22.1012   -5.1291  -12.7711 O   0  0  0  0  0  0  0  0  0  0  0  0
   20.4947   -5.2518  -14.3763 O   0  0  0  0  0  0  0  0  0  0  0  0
  1  2  1  0
  2  3  1  0
  3  5  1  0
  3  4  1  6
  5  7  1  0
  5  6  1  1
  7  8  2  0
  9 10  1  0
  9  7  1  0
 11 12  2  0
 11 10  1  0
 14 13  1  6
 14 16  1  0
 14 15  1  0
 15 11  1  0
 16 17  1  0
 18 16  2  0
M  END
$$$$
