IGA.pdb
     RDKit          3D

 18 17  0  0  1  0  0  0  0  0999 V2000
   27.9663  -19.9697   -4.2277 C   0  0  0  0  0  0  0  0  0  0  0  0
   26.8913  -20.1109   -5.2549 C   0  0  0  0  0  0  0  0  0  0  0  0
   27.3330  -19.8148   -6.6478 C   0  0  2  0  0  0  0  0  0  0  0  0
   27.9797  -18.4741   -6.7645 C   0  0  0  0  0  0  0  0  0  0  0  0
   26.1665  -19.9832   -7.6247 C   0  0  2  0  0  0  0  0  0  0  0  0
   25.6292  -21.2910   -7.4165 N   0  0  0  0  0  0  0  0  0  0  0  0
   26.6203  -19.7547   -9.0206 C   0  0  0  0  0  0  0  0  0  0  0  0
   27.5263  -20.4830   -9.5003 O   0  0  0  0  0  0  0  0  0  0  0  0
   26.0359  -18.7258   -9.8001 N   0  0  0  0  0  0  0  0  0  0  0  0
   26.6013  -18.2921  -11.0729 C   0  0  0  0  0  0  0  0  0  0  0  0
   25.9948  -19.1211  -12.1415 C   0  0  0  0  0  0  0  0  0  0  0  0
   24.7846  -19.4617  -12.1099 O   0  0  0  0  0  0  0  0  0  0  0  0
   27.0100  -19.9452  -15.6268 C   0  0  0  0  0  0  0  0  0  0  0  0
   26.2133  -20.2546  -14.3790 C   0  0  2  0  0  0  0  0  0  0  0  0
   26.7963  -19.5604  -13.2575 N   0  0  0  0  0  0  0  0  0  0  0  0
   26.1778  -21.7032  -14.0879 C   0  0  0  0  0  0  0  0  0  0  0  0
   26.9448  -22.2604  -13.0858 O   0  0  0  0  0  0  0  0  0  0  0  0
   25.4298  -22.4376  -14.7728 O   0  0  0  0  0  0  0  0  0  0  0  0
  1  2  1  0
  2  3  1  0
  3  5  1  0
  3  4  1  1
  5  7  1  0
  5  6  1  6
  7  8  2  0
  9 10  1  0
  9  7  1  0
 11 12  2  0
 11 10  1  0
 14 13  1  6
 14 16  1  0
 14 15  1  0
 15 11  1  0
 16 17  1  0
 18 16  2  0
M  END
$$$$
