IGA.pdb
     RDKit          3D

 18 17  0  0  1  0  0  0  0  0999 V2000
   28.6412  -20.2812   -4.1763 C   0  0  0  0  0  0  0  0  0  0  0  0
   27.3892  -20.2139   -4.9880 C   0  0  0  0  0  0  0  0  0  0  0  0
   27.6173  -20.0649   -6.4539 C   0  0  2  0  0  0  0  0  0  0  0  0
   28.4654  -18.8794   -6.7779 C   0  0  0  0  0  0  0  0  0  0  0  0
   26.2821  -20.0449   -7.2023 C   0  0  2  0  0  0  0  0  0  0  0  0
   25.5864  -21.2434   -6.8533 N   0  0  0  0  0  0  0  0  0  0  0  0
   26.5076  -19.9062   -8.6641 C   0  0  0  0  0  0  0  0  0  0  0  0
   26.7935  -18.7772   -9.1383 O   0  0  0  0  0  0  0  0  0  0  0  0
   26.4006  -21.0366   -9.5117 N   0  0  0  0  0  0  0  0  0  0  0  0
   26.5442  -20.9441  -10.9603 C   0  0  0  0  0  0  0  0  0  0  0  0
   25.2226  -20.5769  -11.5219 C   0  0  0  0  0  0  0  0  0  0  0  0
   24.7702  -19.4062  -11.4413 O   0  0  0  0  0  0  0  0  0  0  0  0
   22.8166  -22.2980  -13.8333 C   0  0  0  0  0  0  0  0  0  0  0  0
   23.1652  -21.2354  -12.8151 C   0  0  2  0  0  0  0  0  0  0  0  0
   24.4164  -21.5738  -12.1831 N   0  0  0  0  0  0  0  0  0  0  0  0
   22.1205  -21.0953  -11.7790 C   0  0  0  0  0  0  0  0  0  0  0  0
   20.9290  -20.4483  -12.0335 O   0  0  0  0  0  0  0  0  0  0  0  0
   22.3294  -21.5790  -10.6430 O   0  0  0  0  0  0  0  0  0  0  0  0
  1  2  1  0
  2  3  1  0
  3  5  1  0
  3  4  1  1
  5  7  1  0
  5  6  1  6
  7  8  2  0
  9 10  1  0
  9  7  1  0
 11 12  2  0
 11 10  1  0
 14 13  1  6
 14 16  1  0
 14 15  1  0
 15 11  1  0
 16 17  1  0
 18 16  2  0
M  END
$$$$
