IGA.pdb
     RDKit          3D

 18 17  0  0  1  0  0  0  0  0999 V2000
   24.6952  -14.9245  -15.0561 C   0  0  0  0  0  0  0  0  0  0  0  0
   23.3183  -14.3461  -15.0366 C   0  0  0  0  0  0  0  0  0  0  0  0
   23.2104  -13.0010  -15.6705 C   0  0  2  0  0  0  0  0  0  0  0  0
   24.1332  -12.0055  -15.0484 C   0  0  0  0  0  0  0  0  0  0  0  0
   21.7556  -12.5246  -15.6671 C   0  0  2  0  0  0  0  0  0  0  0  0
   20.9551  -13.6145  -16.1294 N   0  0  0  0  0  0  0  0  0  0  0  0
   21.6076  -11.3002  -16.4951 C   0  0  0  0  0  0  0  0  0  0  0  0
   21.3682  -11.4137  -17.7244 O   0  0  0  0  0  0  0  0  0  0  0  0
   21.7354  -10.0196  -15.9022 N   0  0  0  0  0  0  0  0  0  0  0  0
   21.5886   -8.7858  -16.6663 C   0  0  0  0  0  0  0  0  0  0  0  0
   21.7958   -7.6514  -15.7352 C   0  0  0  0  0  0  0  0  0  0  0  0
   21.8592   -7.8187  -14.4904 O   0  0  0  0  0  0  0  0  0  0  0  0
   22.4037   -3.9477  -16.2092 C   0  0  0  0  0  0  0  0  0  0  0  0
   22.1636   -5.1868  -15.3758 C   0  0  2  0  0  0  0  0  0  0  0  0
   21.9311   -6.3105  -16.2492 N   0  0  0  0  0  0  0  0  0  0  0  0
   21.0073   -5.0301  -14.4685 C   0  0  0  0  0  0  0  0  0  0  0  0
   19.7617   -5.5291  -14.7885 O   0  0  0  0  0  0  0  0  0  0  0  0
   21.1702   -4.4276  -13.3830 O   0  0  0  0  0  0  0  0  0  0  0  0
  1  2  1  0
  2  3  1  0
  3  5  1  0
  3  4  1  1
  5  7  1  0
  5  6  1  6
  7  8  2  0
  9 10  1  0
  9  7  1  0
 11 12  2  0
 11 10  1  0
 14 13  1  6
 14 16  1  0
 14 15  1  0
 15 11  1  0
 16 17  1  0
 18 16  2  0
M  END
$$$$
