DFA.pdb
     RDKit          3D

 25 25  0  0  1  0  0  0  0  0999 V2000
   10.6930  -16.4930   19.4859 N   0  0  0  0  0  0  0  0  0  0  0  0
    9.5008  -16.8528   20.2842 C   0  0  1  0  0  0  0  0  0  0  0  0
    9.5223  -18.3417   20.4937 C   0  0  0  0  0  0  0  0  0  0  0  0
    9.2340  -19.0874   19.2730 C   0  0  0  0  0  0  0  0  0  0  0  0
   10.1780  -19.6501   18.6663 O   0  0  0  0  0  0  0  0  0  0  0  0
    9.5050  -16.1439   21.5512 C   0  0  0  0  0  0  0  0  0  0  0  0
   10.6039  -15.9618   22.1642 O   0  0  0  0  0  0  0  0  0  0  0  0
    7.9370  -19.1836   18.7735 O   0  0  0  0  0  0  0  0  0  0  0  0
    8.3704  -15.6099   22.1931 N   0  0  0  0  0  0  0  0  0  0  0  0
    8.4800  -14.9310   23.4946 C   0  0  1  0  0  0  0  0  0  0  0  0
    7.1696  -14.2222   23.7244 C   0  0  0  0  0  0  0  0  0  0  0  0
    7.0572  -13.5494   25.0140 C   0  0  0  0  0  0  0  0  0  0  0  0
    7.8897  -12.4501   25.2373 C   0  0  0  0  0  0  0  0  0  0  0  0
    7.8608  -11.7449   26.4248 C   0  0  0  0  0  0  0  0  0  0  0  0
    6.9997  -12.1095   27.4361 C   0  0  0  0  0  0  0  0  0  0  0  0
    6.1773  -13.1907   27.2238 C   0  0  0  0  0  0  0  0  0  0  0  0
    6.2206  -13.8814   26.0327 C   0  0  0  0  0  0  0  0  0  0  0  0
    8.5772  -15.9780   24.5190 C   0  0  0  0  0  0  0  0  0  0  0  0
    7.7244  -16.8479   24.7712 O   0  0  0  0  0  0  0  0  0  0  0  0
   11.4481  -17.5440   25.9020 C   0  0  0  0  0  0  0  0  0  0  0  0
   10.0327  -17.0543   26.1955 C   0  0  2  0  0  0  0  0  0  0  0  0
    9.7933  -15.9689   25.2903 N   0  0  0  0  0  0  0  0  0  0  0  0
    9.9903  -16.6530   27.6051 C   0  0  0  0  0  0  0  0  0  0  0  0
    9.7643  -15.3489   28.0042 O   0  0  0  0  0  0  0  0  0  0  0  0
   10.1642  -17.5167   28.4951 O   0  0  0  0  0  0  0  0  0  0  0  0
  2  3  1  0
  2  1  1  6
  3  4  1  0
  4  8  1  0
  4  5  2  0
  6  2  1  0
  7  6  2  0
  9  6  1  0
 10  9  1  0
 10 11  1  1
 11 12  1  0
 12 13  2  0
 13 14  1  0
 15 14  2  0
 16 15  1  0
 17 12  1  0
 17 16  2  0
 18 22  1  0
 18 10  1  0
 19 18  2  0
 21 20  1  6
 21 23  1  0
 21 22  1  0
 23 24  1  0
 25 23  2  0
M  END
$$$$
