DFA.pdb
     RDKit          3D

 25 25  0  0  1  0  0  0  0  0999 V2000
  -10.4402  -26.6799   22.8511 N   0  0  0  0  0  0  0  0  0  0  0  0
  -10.6482  -26.5468   24.3096 C   0  0  1  0  0  0  0  0  0  0  0  0
  -10.8320  -27.9285   24.8739 C   0  0  0  0  0  0  0  0  0  0  0  0
  -12.1644  -28.4678   24.6228 C   0  0  0  0  0  0  0  0  0  0  0  0
  -13.0811  -27.6859   24.2708 O   0  0  0  0  0  0  0  0  0  0  0  0
   -9.5180  -25.8742   24.9246 C   0  0  0  0  0  0  0  0  0  0  0  0
   -8.3423  -26.1095   24.5018 O   0  0  0  0  0  0  0  0  0  0  0  0
  -12.4333  -29.8272   24.7670 O   0  0  0  0  0  0  0  0  0  0  0  0
   -9.5954  -24.9446   25.9803 N   0  0  0  0  0  0  0  0  0  0  0  0
   -8.3840  -24.3189   26.5351 C   0  0  1  0  0  0  0  0  0  0  0  0
   -8.6624  -22.8399   26.6226 C   0  0  0  0  0  0  0  0  0  0  0  0
   -7.5450  -22.0358   27.1053 C   0  0  0  0  0  0  0  0  0  0  0  0
   -7.5250  -21.7186   28.4657 C   0  0  0  0  0  0  0  0  0  0  0  0
   -6.5114  -20.9625   29.0216 C   0  0  0  0  0  0  0  0  0  0  0  0
   -5.4778  -20.4932   28.2414 C   0  0  0  0  0  0  0  0  0  0  0  0
   -5.4906  -20.8013   26.9014 C   0  0  0  0  0  0  0  0  0  0  0  0
   -6.5102  -21.5567   26.3653 C   0  0  0  0  0  0  0  0  0  0  0  0
   -8.2429  -24.8027   27.9138 C   0  0  0  0  0  0  0  0  0  0  0  0
   -9.0955  -24.7244   28.8164 O   0  0  0  0  0  0  0  0  0  0  0  0
   -5.3193  -26.4026   29.5888 C   0  0  0  0  0  0  0  0  0  0  0  0
   -6.7572  -25.8921   29.5549 C   0  0  2  0  0  0  0  0  0  0  0  0
   -6.9803  -25.4248   28.2183 N   0  0  0  0  0  0  0  0  0  0  0  0
   -6.8719  -24.8352   30.5647 C   0  0  0  0  0  0  0  0  0  0  0  0
   -7.5288  -25.0188   31.7672 O   0  0  0  0  0  0  0  0  0  0  0  0
   -6.3582  -23.7149   30.3424 O   0  0  0  0  0  0  0  0  0  0  0  0
  2  3  1  0
  2  1  1  6
  3  4  1  0
  4  8  1  0
  4  5  2  0
  6  2  1  0
  7  6  2  0
  9  6  1  0
 10  9  1  0
 10 11  1  1
 11 12  1  0
 12 13  2  0
 13 14  1  0
 15 14  2  0
 16 15  1  0
 17 12  1  0
 17 16  2  0
 18 22  1  0
 18 10  1  0
 19 18  2  0
 21 20  1  6
 21 23  1  0
 21 22  1  0
 23 24  1  0
 25 23  2  0
M  END
$$$$
