DFA.pdb
     RDKit          3D

 25 25  0  0  1  0  0  0  0  0999 V2000
   10.7545  -16.6709   19.7177 N   0  0  0  0  0  0  0  0  0  0  0  0
    9.5955  -17.0421   20.5585 C   0  0  1  0  0  0  0  0  0  0  0  0
    9.6604  -18.5251   20.7990 C   0  0  0  0  0  0  0  0  0  0  0  0
    9.5052  -19.3026   19.5740 C   0  0  0  0  0  0  0  0  0  0  0  0
    8.8751  -18.8015   18.6108 O   0  0  0  0  0  0  0  0  0  0  0  0
    9.6187  -16.3055   21.8094 C   0  0  0  0  0  0  0  0  0  0  0  0
   10.7254  -16.1185   22.4065 O   0  0  0  0  0  0  0  0  0  0  0  0
   10.0408  -20.5835   19.4575 O   0  0  0  0  0  0  0  0  0  0  0  0
    8.4952  -15.7487   22.4514 N   0  0  0  0  0  0  0  0  0  0  0  0
    8.6237  -15.0435   23.7371 C   0  0  1  0  0  0  0  0  0  0  0  0
    7.3904  -14.1897   23.8873 C   0  0  0  0  0  0  0  0  0  0  0  0
    7.3137  -13.4425   25.1379 C   0  0  0  0  0  0  0  0  0  0  0  0
    6.1633  -13.6079   25.9131 C   0  0  0  0  0  0  0  0  0  0  0  0
    5.9934  -12.9455   27.1133 C   0  0  0  0  0  0  0  0  0  0  0  0
    6.9651  -12.0918   27.5869 C   0  0  0  0  0  0  0  0  0  0  0  0
    8.1002  -11.9238   26.8294 C   0  0  0  0  0  0  0  0  0  0  0  0
    8.2516  -12.5933   25.6350 C   0  0  0  0  0  0  0  0  0  0  0  0
    8.5622  -16.0609   24.7936 C   0  0  0  0  0  0  0  0  0  0  0  0
    7.5938  -16.7957   25.0578 O   0  0  0  0  0  0  0  0  0  0  0  0
   10.9973  -18.0721   26.3183 C   0  0  0  0  0  0  0  0  0  0  0  0
    9.7846  -17.1934   26.6130 C   0  0  2  0  0  0  0  0  0  0  0  0
    9.7585  -16.1961   25.5838 N   0  0  0  0  0  0  0  0  0  0  0  0
    9.9635  -16.6345   27.9567 C   0  0  0  0  0  0  0  0  0  0  0  0
    9.9900  -17.4188   29.0947 O   0  0  0  0  0  0  0  0  0  0  0  0
   10.0992  -15.3972   28.0941 O   0  0  0  0  0  0  0  0  0  0  0  0
  2  3  1  0
  2  1  1  6
  3  4  1  0
  4  8  1  0
  4  5  2  0
  6  2  1  0
  7  6  2  0
  9  6  1  0
 10  9  1  0
 10 11  1  1
 11 12  1  0
 12 13  2  0
 13 14  1  0
 15 14  2  0
 16 15  1  0
 17 12  1  0
 17 16  2  0
 18 22  1  0
 18 10  1  0
 19 18  2  0
 21 20  1  6
 21 23  1  0
 21 22  1  0
 23 24  1  0
 25 23  2  0
M  END
$$$$
