DFA.pdb
     RDKit          3D

 25 25  0  0  1  0  0  0  0  0999 V2000
    8.6793  -18.0873   21.2797 N   0  0  0  0  0  0  0  0  0  0  0  0
    9.9844  -17.4357   21.5250 C   0  0  1  0  0  0  0  0  0  0  0  0
   10.5077  -16.9464   20.2028 C   0  0  0  0  0  0  0  0  0  0  0  0
   10.4721  -17.9736   19.1670 C   0  0  0  0  0  0  0  0  0  0  0  0
   10.6031  -19.1772   19.4986 O   0  0  0  0  0  0  0  0  0  0  0  0
    9.8369  -16.3423   22.4687 C   0  0  0  0  0  0  0  0  0  0  0  0
   10.8353  -15.5995   22.7289 O   0  0  0  0  0  0  0  0  0  0  0  0
   10.2967  -17.6418   17.8252 O   0  0  0  0  0  0  0  0  0  0  0  0
    8.6503  -16.0029   23.1479 N   0  0  0  0  0  0  0  0  0  0  0  0
    8.6381  -14.9597   24.1863 C   0  0  1  0  0  0  0  0  0  0  0  0
    7.3163  -14.2449   24.0660 C   0  0  0  0  0  0  0  0  0  0  0  0
    7.0876  -13.2113   25.0698 C   0  0  0  0  0  0  0  0  0  0  0  0
    5.9888  -13.3736   25.9170 C   0  0  0  0  0  0  0  0  0  0  0  0
    5.6856  -12.4515   26.8999 C   0  0  0  0  0  0  0  0  0  0  0  0
    6.4673  -11.3311   27.0757 C   0  0  0  0  0  0  0  0  0  0  0  0
    7.5505  -11.1644   26.2454 C   0  0  0  0  0  0  0  0  0  0  0  0
    7.8369  -12.0950   25.2709 C   0  0  0  0  0  0  0  0  0  0  0  0
    8.6292  -15.6451   25.4844 C   0  0  0  0  0  0  0  0  0  0  0  0
    8.6736  -15.1074   26.6053 O   0  0  0  0  0  0  0  0  0  0  0  0
    7.9511  -19.1817   26.3190 C   0  0  0  0  0  0  0  0  0  0  0  0
    8.5591  -17.8206   26.6462 C   0  0  2  0  0  0  0  0  0  0  0  0
    8.5614  -17.0820   25.4177 N   0  0  0  0  0  0  0  0  0  0  0  0
    9.9032  -18.0573   27.1822 C   0  0  0  0  0  0  0  0  0  0  0  0
   11.0495  -17.6230   26.5432 O   0  0  0  0  0  0  0  0  0  0  0  0
   10.0332  -18.6770   28.2626 O   0  0  0  0  0  0  0  0  0  0  0  0
  2  3  1  0
  2  1  1  6
  3  4  1  0
  4  8  1  0
  4  5  2  0
  6  2  1  0
  7  6  2  0
  9  6  1  0
 10  9  1  0
 10 11  1  6
 11 12  1  0
 12 13  2  0
 13 14  1  0
 15 14  2  0
 16 15  1  0
 17 12  1  0
 17 16  2  0
 18 22  1  0
 18 10  1  0
 19 18  2  0
 21 20  1  6
 21 23  1  0
 21 22  1  0
 23 24  1  0
 25 23  2  0
M  END
$$$$
