DFA.pdb
     RDKit          3D

 25 25  0  0  1  0  0  0  0  0999 V2000
    8.3738  -14.4570   19.5026 N   0  0  0  0  0  0  0  0  0  0  0  0
    8.1325  -15.6868   20.2885 C   0  0  1  0  0  0  0  0  0  0  0  0
    8.8889  -16.8071   19.6294 C   0  0  0  0  0  0  0  0  0  0  0  0
    8.3167  -17.1947   18.3442 C   0  0  0  0  0  0  0  0  0  0  0  0
    7.3378  -16.5502   17.8947 O   0  0  0  0  0  0  0  0  0  0  0  0
    8.5593  -15.5026   21.6639 C   0  0  0  0  0  0  0  0  0  0  0  0
    9.7209  -15.0452   21.9041 O   0  0  0  0  0  0  0  0  0  0  0  0
    8.8357  -18.2614   17.6137 O   0  0  0  0  0  0  0  0  0  0  0  0
    7.7833  -15.7842   22.8054 N   0  0  0  0  0  0  0  0  0  0  0  0
    8.2838  -15.4917   24.1584 C   0  0  1  0  0  0  0  0  0  0  0  0
    7.0783  -15.1778   25.0072 C   0  0  0  0  0  0  0  0  0  0  0  0
    7.0359  -13.8156   25.5277 C   0  0  0  0  0  0  0  0  0  0  0  0
    5.8057  -13.3468   25.9950 C   0  0  0  0  0  0  0  0  0  0  0  0
    5.6599  -12.0721   26.5070 C   0  0  0  0  0  0  0  0  0  0  0  0
    6.7364  -11.2153   26.5726 C   0  0  0  0  0  0  0  0  0  0  0  0
    7.9505  -11.6696   26.1144 C   0  0  0  0  0  0  0  0  0  0  0  0
    8.0762  -12.9443   25.6073 C   0  0  0  0  0  0  0  0  0  0  0  0
    8.8556  -16.7373   24.6841 C   0  0  0  0  0  0  0  0  0  0  0  0
    8.2659  -17.8249   24.8148 O   0  0  0  0  0  0  0  0  0  0  0  0
   12.3526  -17.7114   25.1973 C   0  0  0  0  0  0  0  0  0  0  0  0
   10.8769  -17.8463   25.5628 C   0  0  2  0  0  0  0  0  0  0  0  0
   10.2385  -16.6579   25.0781 N   0  0  0  0  0  0  0  0  0  0  0  0
   10.7969  -17.9938   27.0194 C   0  0  0  0  0  0  0  0  0  0  0  0
   10.1736  -17.0647   27.8313 O   0  0  0  0  0  0  0  0  0  0  0  0
   11.3098  -18.9980   27.5641 O   0  0  0  0  0  0  0  0  0  0  0  0
  2  3  1  0
  2  1  1  6
  3  4  1  0
  4  8  1  0
  4  5  2  0
  6  2  1  0
  7  6  2  0
  9  6  1  0
 10  9  1  0
 10 11  1  1
 11 12  1  0
 12 13  2  0
 13 14  1  0
 15 14  2  0
 16 15  1  0
 17 12  1  0
 17 16  2  0
 18 22  1  0
 18 10  1  0
 19 18  2  0
 21 20  1  1
 21 23  1  0
 21 22  1  0
 23 24  1  0
 25 23  2  0
M  END
$$$$
