DFA.pdb
     RDKit          3D

 25 25  0  0  1  0  0  0  0  0999 V2000
    9.9096  -17.1292   19.5583 N   0  0  0  0  0  0  0  0  0  0  0  0
    9.4371  -17.6095   20.8752 C   0  0  1  0  0  0  0  0  0  0  0  0
   10.3473  -18.7250   21.3092 C   0  0  0  0  0  0  0  0  0  0  0  0
   10.3658  -19.8377   20.3654 C   0  0  0  0  0  0  0  0  0  0  0  0
    9.6962  -19.7495   19.3073 O   0  0  0  0  0  0  0  0  0  0  0  0
    9.4369  -16.5256   21.8410 C   0  0  0  0  0  0  0  0  0  0  0  0
   10.4074  -15.7046   21.8624 O   0  0  0  0  0  0  0  0  0  0  0  0
   11.1093  -20.9885   20.6185 O   0  0  0  0  0  0  0  0  0  0  0  0
    8.4267  -16.2770   22.7908 N   0  0  0  0  0  0  0  0  0  0  0  0
    8.4542  -15.0713   23.6349 C   0  0  1  0  0  0  0  0  0  0  0  0
    7.0935  -14.9594   24.2739 C   0  0  0  0  0  0  0  0  0  0  0  0
    6.9153  -13.7921   25.1305 C   0  0  0  0  0  0  0  0  0  0  0  0
    6.9754  -13.9960   26.5112 C   0  0  0  0  0  0  0  0  0  0  0  0
    6.8190  -12.9566   27.4076 C   0  0  0  0  0  0  0  0  0  0  0  0
    6.5965  -11.6728   26.9608 C   0  0  0  0  0  0  0  0  0  0  0  0
    6.5359  -11.4642   25.6032 C   0  0  0  0  0  0  0  0  0  0  0  0
    6.6944  -12.5136   24.7248 C   0  0  0  0  0  0  0  0  0  0  0  0
    9.4088  -15.3279   24.7203 C   0  0  0  0  0  0  0  0  0  0  0  0
   10.2559  -14.5322   25.1641 O   0  0  0  0  0  0  0  0  0  0  0  0
    9.3753  -17.5570   27.4874 C   0  0  0  0  0  0  0  0  0  0  0  0
   10.2329  -16.9642   26.3727 C   0  0  2  0  0  0  0  0  0  0  0  0
    9.3298  -16.6403   25.3077 N   0  0  0  0  0  0  0  0  0  0  0  0
   11.2288  -17.9740   26.0007 C   0  0  0  0  0  0  0  0  0  0  0  0
   12.2267  -18.3917   26.8612 O   0  0  0  0  0  0  0  0  0  0  0  0
   11.1856  -18.4879   24.8595 O   0  0  0  0  0  0  0  0  0  0  0  0
  2  3  1  0
  2  1  1  6
  3  4  1  0
  4  8  1  0
  4  5  2  0
  6  2  1  0
  7  6  2  0
  9  6  1  0
 10  9  1  0
 10 11  1  1
 11 12  1  0
 12 13  2  0
 13 14  1  0
 15 14  2  0
 16 15  1  0
 17 12  1  0
 17 16  2  0
 18 22  1  0
 18 10  1  0
 19 18  2  0
 21 20  1  1
 21 23  1  0
 21 22  1  0
 23 24  1  0
 25 23  2  0
M  END
$$$$
