WLL.pdb
     RDKit          3D

 31 32  0  0  1  0  0  0  0  0999 V2000
    6.0624  -18.8014   24.3490 N   0  0  0  0  0  0  0  0  0  0  0  0
    6.5134  -17.4336   24.1729 C   0  0  1  0  0  0  0  0  0  0  0  0
    6.7611  -16.8734   25.5570 C   0  0  0  0  0  0  0  0  0  0  0  0
    6.0704  -15.5974   25.7956 C   0  0  0  0  0  0  0  0  0  0  0  0
    4.7088  -15.3810   25.8158 C   0  0  0  0  0  0  0  0  0  0  0  0
    4.5000  -14.0811   26.0665 N   0  0  0  0  0  0  0  0  0  0  0  0
    5.6561  -13.4145   26.2156 C   0  0  0  0  0  0  0  0  0  0  0  0
    5.9492  -12.0932   26.4787 C   0  0  0  0  0  0  0  0  0  0  0  0
    7.2514  -11.7007   26.5767 C   0  0  0  0  0  0  0  0  0  0  0  0
    8.2476  -12.6255   26.4122 C   0  0  0  0  0  0  0  0  0  0  0  0
    7.9554  -13.9280   26.1527 C   0  0  0  0  0  0  0  0  0  0  0  0
    6.6538  -14.3752   26.0440 C   0  0  0  0  0  0  0  0  0  0  0  0
    7.8086  -17.3861   23.4509 C   0  0  0  0  0  0  0  0  0  0  0  0
    8.6724  -18.2846   23.5459 O   0  0  0  0  0  0  0  0  0  0  0  0
    9.1102  -12.6634   20.2887 C   0  0  0  0  0  0  0  0  0  0  0  0
    8.4505  -13.7035   21.2324 C   0  0  1  0  0  0  0  0  0  0  0  0
    6.9950  -13.6578   20.9187 C   0  0  0  0  0  0  0  0  0  0  0  0
    9.1683  -14.9605   20.9448 C   0  0  0  0  0  0  0  0  0  0  0  0
    9.3181  -15.9918   21.9823 C   0  0  2  0  0  0  0  0  0  0  0  0
    8.0705  -16.2733   22.6209 N   0  0  0  0  0  0  0  0  0  0  0  0
   10.4418  -15.8091   22.9128 C   0  0  0  0  0  0  0  0  0  0  0  0
   11.6359  -15.6118   22.5417 O   0  0  0  0  0  0  0  0  0  0  0  0
   11.1870  -13.7218   28.6810 C   0  0  0  0  0  0  0  0  0  0  0  0
   11.6642  -14.6772   27.6447 C   0  0  1  0  0  0  0  0  0  0  0  0
   12.0838  -16.0019   28.3105 C   0  0  0  0  0  0  0  0  0  0  0  0
   10.8399  -14.9245   26.4573 C   0  0  0  0  0  0  0  0  0  0  0  0
   11.3663  -15.6087   25.2640 C   0  0  2  0  0  0  0  0  0  0  0  0
   10.2365  -15.8462   24.3102 N   0  0  0  0  0  0  0  0  0  0  0  0
   12.0157  -16.8974   25.4575 C   0  0  0  0  0  0  0  0  0  0  0  0
   13.2254  -17.1257   25.6793 O   0  0  0  0  0  0  0  0  0  0  0  0
   11.2322  -18.0845   25.3994 O   0  0  0  0  0  0  0  0  0  0  0  0
  2  1  1  1
  2 13  1  0
  2  3  1  0
  3  4  1  0
  4  5  2  0
  6  5  1  0
  7  6  1  0
  8  7  2  0
  9  8  1  0
 10  9  2  0
 10 11  1  0
 11 12  2  0
 12  7  1  0
 12  4  1  0
 13 14  2  0
 16 15  1  6
 17 16  1  0
 18 16  1  0
 19 18  1  1
 20 19  1  0
 20 13  1  0
 21 19  1  0
 22 21  2  0
 24 23  1  1
 24 26  1  0
 24 25  1  0
 27 26  1  1
 27 29  1  0
 27 28  1  0
 28 21  1  0
 29 31  1  0
 30 29  2  0
M  END
$$$$
