WLL.pdb
     RDKit          3D

 31 32  0  0  1  0  0  0  0  0999 V2000
    5.7455  -18.4626   23.9134 N   0  0  0  0  0  0  0  0  0  0  0  0
    6.3815  -17.1611   23.8317 C   0  0  1  0  0  0  0  0  0  0  0  0
    6.8420  -16.8109   25.2303 C   0  0  0  0  0  0  0  0  0  0  0  0
    6.1898  -15.6080   25.7688 C   0  0  0  0  0  0  0  0  0  0  0  0
    4.8831  -15.4910   26.1932 C   0  0  0  0  0  0  0  0  0  0  0  0
    4.6942  -14.2309   26.6088 N   0  0  0  0  0  0  0  0  0  0  0  0
    5.8114  -13.4965   26.4838 C   0  0  0  0  0  0  0  0  0  0  0  0
    6.1051  -12.1804   26.7710 C   0  0  0  0  0  0  0  0  0  0  0  0
    7.3602  -11.7044   26.5311 C   0  0  0  0  0  0  0  0  0  0  0  0
    8.3093  -12.5416   26.0085 C   0  0  0  0  0  0  0  0  0  0  0  0
    8.0166  -13.8393   25.7262 C   0  0  0  0  0  0  0  0  0  0  0  0
    6.7616  -14.3688   25.9508 C   0  0  0  0  0  0  0  0  0  0  0  0
    7.5943  -17.2108   22.9787 C   0  0  0  0  0  0  0  0  0  0  0  0
    8.2830  -18.2443   22.8372 O   0  0  0  0  0  0  0  0  0  0  0  0
    8.5559  -12.4503   20.1709 C   0  0  0  0  0  0  0  0  0  0  0  0
    8.0644  -13.8421   20.6494 C   0  0  1  0  0  0  0  0  0  0  0  0
    7.1813  -14.3473   19.5613 C   0  0  0  0  0  0  0  0  0  0  0  0
    9.3064  -14.5919   20.9197 C   0  0  0  0  0  0  0  0  0  0  0  0
    9.3021  -15.7438   21.8339 C   0  0  2  0  0  0  0  0  0  0  0  0
    7.9820  -16.0346   22.2991 N   0  0  0  0  0  0  0  0  0  0  0  0
   10.3225  -15.7283   22.8923 C   0  0  0  0  0  0  0  0  0  0  0  0
   11.5443  -15.4688   22.6861 O   0  0  0  0  0  0  0  0  0  0  0  0
   10.4014  -13.8871   28.6859 C   0  0  0  0  0  0  0  0  0  0  0  0
   11.0016  -14.8353   27.7086 C   0  0  1  0  0  0  0  0  0  0  0  0
   11.2840  -16.1845   28.3974 C   0  0  0  0  0  0  0  0  0  0  0  0
   10.3555  -15.0353   26.4075 C   0  0  0  0  0  0  0  0  0  0  0  0
   10.9724  -15.8402   25.3393 C   0  0  2  0  0  0  0  0  0  0  0  0
    9.9778  -16.0112   24.2330 N   0  0  0  0  0  0  0  0  0  0  0  0
   11.4343  -17.1772   25.6842 C   0  0  0  0  0  0  0  0  0  0  0  0
   10.7572  -18.2236   25.7895 O   0  0  0  0  0  0  0  0  0  0  0  0
   12.8178  -17.3869   25.9458 O   0  0  0  0  0  0  0  0  0  0  0  0
  2  1  1  1
  2 13  1  0
  2  3  1  0
  3  4  1  0
  4  5  2  0
  6  5  1  0
  7  6  1  0
  8  7  2  0
  9  8  1  0
 10  9  2  0
 10 11  1  0
 11 12  2  0
 12  7  1  0
 12  4  1  0
 13 14  2  0
 16 15  1  6
 17 16  1  0
 18 16  1  0
 19 18  1  1
 20 19  1  0
 20 13  1  0
 21 19  1  0
 22 21  2  0
 24 23  1  1
 24 26  1  0
 24 25  1  0
 27 26  1  1
 27 29  1  0
 27 28  1  0
 28 21  1  0
 29 31  1  0
 30 29  2  0
M  END
$$$$
