WLL.pdb
     RDKit          3D

 31 32  0  0  1  0  0  0  0  0999 V2000
    5.5774  -18.2349   23.7583 N   0  0  0  0  0  0  0  0  0  0  0  0
    6.3126  -16.9841   23.7679 C   0  0  1  0  0  0  0  0  0  0  0  0
    6.7698  -16.7566   25.1927 C   0  0  0  0  0  0  0  0  0  0  0  0
    6.1837  -15.5534   25.8021 C   0  0  0  0  0  0  0  0  0  0  0  0
    4.9182  -15.4240   26.3340 C   0  0  0  0  0  0  0  0  0  0  0  0
    4.7848  -14.1686   26.7839 N   0  0  0  0  0  0  0  0  0  0  0  0
    5.9000  -13.4491   26.5795 C   0  0  0  0  0  0  0  0  0  0  0  0
    6.2379  -12.1428   26.8628 C   0  0  0  0  0  0  0  0  0  0  0  0
    7.4770  -11.6819   26.5286 C   0  0  0  0  0  0  0  0  0  0  0  0
    8.3662  -12.5242   25.9166 C   0  0  0  0  0  0  0  0  0  0  0  0
    8.0300  -13.8122   25.6383 C   0  0  0  0  0  0  0  0  0  0  0  0
    6.7889  -14.3264   25.9565 C   0  0  0  0  0  0  0  0  0  0  0  0
    7.5353  -17.0758   22.9327 C   0  0  0  0  0  0  0  0  0  0  0  0
    8.2100  -18.1230   22.8291 O   0  0  0  0  0  0  0  0  0  0  0  0
    8.5917  -12.4779   19.8558 C   0  0  0  0  0  0  0  0  0  0  0  0
    8.0579  -13.7768   20.5158 C   0  0  1  0  0  0  0  0  0  0  0  0
    7.0245  -14.3021   19.5803 C   0  0  0  0  0  0  0  0  0  0  0  0
    9.2651  -14.5992   20.7259 C   0  0  0  0  0  0  0  0  0  0  0  0
    9.2584  -15.7058   21.6943 C   0  0  2  0  0  0  0  0  0  0  0  0
    7.9495  -15.9249   22.2258 N   0  0  0  0  0  0  0  0  0  0  0  0
   10.3222  -15.6786   22.7089 C   0  0  0  0  0  0  0  0  0  0  0  0
   11.5545  -15.5908   22.4322 O   0  0  0  0  0  0  0  0  0  0  0  0
   11.9335  -13.4251   27.6096 C   0  0  0  0  0  0  0  0  0  0  0  0
   11.1018  -14.6585   27.5724 C   0  0  1  0  0  0  0  0  0  0  0  0
   10.1743  -14.6992   28.8022 C   0  0  0  0  0  0  0  0  0  0  0  0
   10.3668  -14.9963   26.3492 C   0  0  0  0  0  0  0  0  0  0  0  0
   11.0455  -15.4629   25.1282 C   0  0  2  0  0  0  0  0  0  0  0  0
   10.0107  -15.7516   24.0851 N   0  0  0  0  0  0  0  0  0  0  0  0
   11.8684  -16.6597   25.2300 C   0  0  0  0  0  0  0  0  0  0  0  0
   13.1118  -16.7331   25.3451 O   0  0  0  0  0  0  0  0  0  0  0  0
   11.2410  -17.9372   25.2017 O   0  0  0  0  0  0  0  0  0  0  0  0
  2  1  1  1
  2 13  1  0
  2  3  1  0
  3  4  1  0
  4  5  2  0
  6  5  1  0
  7  6  1  0
  8  7  2  0
  9  8  1  0
 10  9  2  0
 10 11  1  0
 11 12  2  0
 12  7  1  0
 12  4  1  0
 13 14  2  0
 16 15  1  6
 17 16  1  0
 18 16  1  0
 19 18  1  1
 20 19  1  0
 20 13  1  0
 21 19  1  0
 22 21  2  0
 24 23  1  6
 24 26  1  0
 24 25  1  0
 27 26  1  1
 27 29  1  0
 27 28  1  0
 28 21  1  0
 29 31  1  0
 30 29  2  0
M  END
$$$$
