WLL.pdb
     RDKit          3D

 31 32  0  0  1  0  0  0  0  0999 V2000
    5.9427  -18.3700   24.6216 N   0  0  0  0  0  0  0  0  0  0  0  0
    6.5374  -17.0706   24.3707 C   0  0  1  0  0  0  0  0  0  0  0  0
    6.9385  -16.5061   25.7165 C   0  0  0  0  0  0  0  0  0  0  0  0
    6.2174  -15.2724   26.0634 C   0  0  0  0  0  0  0  0  0  0  0  0
    4.8742  -15.1477   26.3488 C   0  0  0  0  0  0  0  0  0  0  0  0
    4.6250  -13.8573   26.6116 N   0  0  0  0  0  0  0  0  0  0  0  0
    5.7365  -13.1098   26.5163 C   0  0  0  0  0  0  0  0  0  0  0  0
    5.9791  -11.7640   26.6915 C   0  0  0  0  0  0  0  0  0  0  0  0
    7.2433  -11.2817   26.5224 C   0  0  0  0  0  0  0  0  0  0  0  0
    8.2522  -12.1422   26.1810 C   0  0  0  0  0  0  0  0  0  0  0  0
    8.0099  -13.4692   26.0089 C   0  0  0  0  0  0  0  0  0  0  0  0
    6.7481  -14.0063   26.1684 C   0  0  0  0  0  0  0  0  0  0  0  0
    7.7793  -17.1964   23.5689 C   0  0  0  0  0  0  0  0  0  0  0  0
    8.5342  -18.1903   23.6376 O   0  0  0  0  0  0  0  0  0  0  0  0
    9.2413  -12.6323   21.1295 C   0  0  0  0  0  0  0  0  0  0  0  0
    8.3189  -13.8766   21.0374 C   0  0  1  0  0  0  0  0  0  0  0  0
    7.4048  -13.6096   19.8919 C   0  0  0  0  0  0  0  0  0  0  0  0
    9.2532  -15.0119   20.9105 C   0  0  0  0  0  0  0  0  0  0  0  0
    9.3467  -16.0271   21.9703 C   0  0  2  0  0  0  0  0  0  0  0  0
    8.1174  -16.1426   22.6909 N   0  0  0  0  0  0  0  0  0  0  0  0
   10.5403  -15.9553   22.8258 C   0  0  0  0  0  0  0  0  0  0  0  0
   11.5262  -15.1958   22.5936 O   0  0  0  0  0  0  0  0  0  0  0  0
   11.4079  -15.2843   28.1187 C   0  0  0  0  0  0  0  0  0  0  0  0
   10.4558  -14.6585   27.1615 C   0  0  1  0  0  0  0  0  0  0  0  0
   10.7605  -13.1537   27.0317 C   0  0  0  0  0  0  0  0  0  0  0  0
   10.2525  -15.2685   25.8436 C   0  0  0  0  0  0  0  0  0  0  0  0
   11.2232  -16.2060   25.2535 C   0  0  2  0  0  0  0  0  0  0  0  0
   10.6482  -16.7560   23.9850 N   0  0  0  0  0  0  0  0  0  0  0  0
   11.6223  -17.3552   26.0535 C   0  0  0  0  0  0  0  0  0  0  0  0
   10.9823  -18.4096   26.2615 O   0  0  0  0  0  0  0  0  0  0  0  0
   12.8871  -17.3400   26.7065 O   0  0  0  0  0  0  0  0  0  0  0  0
  2  1  1  1
  2 13  1  0
  2  3  1  0
  3  4  1  0
  4  5  2  0
  6  5  1  0
  7  6  1  0
  8  7  2  0
  9  8  1  0
 10  9  2  0
 10 11  1  0
 11 12  2  0
 12  7  1  0
 12  4  1  0
 13 14  2  0
 16 15  1  6
 17 16  1  0
 18 16  1  0
 19 18  1  1
 20 19  1  0
 20 13  1  0
 21 19  1  0
 22 21  2  0
 24 23  1  6
 24 26  1  0
 24 25  1  0
 27 26  1  1
 27 29  1  0
 27 28  1  0
 28 21  1  0
 29 31  1  0
 30 29  2  0
M  END
$$$$
