WLL.pdb
     RDKit          3D

 31 32  0  0  1  0  0  0  0  0999 V2000
    5.9645  -19.1884   24.3672 N   0  0  0  0  0  0  0  0  0  0  0  0
    6.2247  -17.7699   24.2084 C   0  0  1  0  0  0  0  0  0  0  0  0
    6.6586  -17.2507   25.5622 C   0  0  0  0  0  0  0  0  0  0  0  0
    6.0655  -15.9478   25.8983 C   0  0  0  0  0  0  0  0  0  0  0  0
    4.7266  -15.6622   26.0624 C   0  0  0  0  0  0  0  0  0  0  0  0
    4.6147  -14.3606   26.3616 N   0  0  0  0  0  0  0  0  0  0  0  0
    5.8143  -13.7588   26.4062 C   0  0  0  0  0  0  0  0  0  0  0  0
    6.2035  -12.4621   26.6669 C   0  0  0  0  0  0  0  0  0  0  0  0
    7.5283  -12.1400   26.6397 C   0  0  0  0  0  0  0  0  0  0  0  0
    8.4513  -13.1101   26.3538 C   0  0  0  0  0  0  0  0  0  0  0  0
    8.0644  -14.3882   26.0971 C   0  0  0  0  0  0  0  0  0  0  0  0
    6.7362  -14.7646   26.1124 C   0  0  0  0  0  0  0  0  0  0  0  0
    7.3534  -17.5342   23.2748 C   0  0  0  0  0  0  0  0  0  0  0  0
    8.3345  -18.3039   23.1875 O   0  0  0  0  0  0  0  0  0  0  0  0
    8.3944  -14.3334   18.8391 C   0  0  0  0  0  0  0  0  0  0  0  0
    8.9669  -13.8651   20.2031 C   0  0  1  0  0  0  0  0  0  0  0  0
    8.9802  -12.3769   20.1385 C   0  0  0  0  0  0  0  0  0  0  0  0
    8.0820  -14.4938   21.2029 C   0  0  0  0  0  0  0  0  0  0  0  0
    8.4388  -15.7831   21.8136 C   0  0  2  0  0  0  0  0  0  0  0  0
    7.3108  -16.3875   22.4508 N   0  0  0  0  0  0  0  0  0  0  0  0
    9.6643  -15.7925   22.6257 C   0  0  0  0  0  0  0  0  0  0  0  0
   10.8280  -15.6689   22.1427 O   0  0  0  0  0  0  0  0  0  0  0  0
   12.0302  -13.7726   27.2770 C   0  0  0  0  0  0  0  0  0  0  0  0
   11.1534  -14.9711   27.3730 C   0  0  1  0  0  0  0  0  0  0  0  0
   10.3878  -14.9511   28.7101 C   0  0  0  0  0  0  0  0  0  0  0  0
   10.2574  -15.3004   26.2599 C   0  0  0  0  0  0  0  0  0  0  0  0
   10.7582  -15.5680   24.9008 C   0  0  2  0  0  0  0  0  0  0  0  0
    9.6004  -15.9448   24.0290 N   0  0  0  0  0  0  0  0  0  0  0  0
   11.7490  -16.6231   24.7433 C   0  0  0  0  0  0  0  0  0  0  0  0
   12.9918  -16.5370   24.8563 O   0  0  0  0  0  0  0  0  0  0  0  0
   11.3146  -17.9398   24.4207 O   0  0  0  0  0  0  0  0  0  0  0  0
  2  1  1  1
  2 13  1  0
  2  3  1  0
  3  4  1  0
  4  5  2  0
  6  5  1  0
  7  6  1  0
  8  7  2  0
  9  8  1  0
 10  9  2  0
 10 11  1  0
 11 12  2  0
 12  7  1  0
 12  4  1  0
 13 14  2  0
 16 15  1  6
 17 16  1  0
 18 16  1  0
 19 18  1  1
 20 19  1  0
 20 13  1  0
 21 19  1  0
 22 21  2  0
 24 23  1  6
 24 26  1  0
 24 25  1  0
 27 26  1  1
 27 29  1  0
 27 28  1  0
 28 21  1  0
 29 31  1  0
 30 29  2  0
M  END
$$$$
