WLL.pdb
     RDKit          3D

 31 32  0  0  1  0  0  0  0  0999 V2000
    6.3786  -18.9994   22.7375 N   0  0  0  0  0  0  0  0  0  0  0  0
    6.7181  -17.6358   23.0991 C   0  0  1  0  0  0  0  0  0  0  0  0
    6.8826  -17.6106   24.6035 C   0  0  0  0  0  0  0  0  0  0  0  0
    6.0909  -16.5556   25.2534 C   0  0  0  0  0  0  0  0  0  0  0  0
    4.8295  -16.6789   25.7965 C   0  0  0  0  0  0  0  0  0  0  0  0
    4.4710  -15.4839   26.2860 N   0  0  0  0  0  0  0  0  0  0  0  0
    5.4312  -14.5643   26.0976 C   0  0  0  0  0  0  0  0  0  0  0  0
    5.5246  -13.2269   26.4194 C   0  0  0  0  0  0  0  0  0  0  0  0
    6.6529  -12.5345   26.0924 C   0  0  0  0  0  0  0  0  0  0  0  0
    7.6756  -13.1788   25.4492 C   0  0  0  0  0  0  0  0  0  0  0  0
    7.5807  -14.4980   25.1331 C   0  0  0  0  0  0  0  0  0  0  0  0
    6.4600  -15.2427   25.4424 C   0  0  0  0  0  0  0  0  0  0  0  0
    8.0227  -17.2366   22.5164 C   0  0  0  0  0  0  0  0  0  0  0  0
    8.9823  -18.0283   22.3937 O   0  0  0  0  0  0  0  0  0  0  0  0
    8.0934  -12.1064   20.1491 C   0  0  0  0  0  0  0  0  0  0  0  0
    8.0523  -13.6451   20.3449 C   0  0  1  0  0  0  0  0  0  0  0  0
    8.0484  -14.2205   18.9709 C   0  0  0  0  0  0  0  0  0  0  0  0
    9.2209  -13.9332   21.1987 C   0  0  0  0  0  0  0  0  0  0  0  0
    9.4252  -15.2769   21.7603 C   0  0  2  0  0  0  0  0  0  0  0  0
    8.1804  -15.9014   22.0829 N   0  0  0  0  0  0  0  0  0  0  0  0
   10.4430  -15.3845   22.8159 C   0  0  0  0  0  0  0  0  0  0  0  0
   11.6763  -15.1702   22.6269 O   0  0  0  0  0  0  0  0  0  0  0  0
   12.2107  -14.0234   27.8284 C   0  0  0  0  0  0  0  0  0  0  0  0
   11.0313  -14.9261   27.7360 C   0  0  1  0  0  0  0  0  0  0  0  0
   10.0165  -14.5728   28.8405 C   0  0  0  0  0  0  0  0  0  0  0  0
   10.3601  -15.1061   26.4447 C   0  0  0  0  0  0  0  0  0  0  0  0
   11.0617  -15.6317   25.2611 C   0  0  2  0  0  0  0  0  0  0  0  0
   10.0823  -15.7439   24.1339 N   0  0  0  0  0  0  0  0  0  0  0  0
   11.6998  -16.9351   25.3794 C   0  0  0  0  0  0  0  0  0  0  0  0
   12.8365  -17.1991   25.8297 O   0  0  0  0  0  0  0  0  0  0  0  0
   10.9953  -18.0940   24.9469 O   0  0  0  0  0  0  0  0  0  0  0  0
  2  1  1  6
  2 13  1  0
  2  3  1  0
  3  4  1  0
  4  5  2  0
  6  5  1  0
  7  6  1  0
  8  7  2  0
  9  8  1  0
 10  9  2  0
 10 11  1  0
 11 12  2  0
 12  7  1  0
 12  4  1  0
 13 14  2  0
 16 15  1  6
 17 16  1  0
 18 16  1  0
 19 18  1  1
 20 19  1  0
 20 13  1  0
 21 19  1  0
 22 21  2  0
 24 23  1  6
 24 26  1  0
 24 25  1  0
 27 26  1  1
 27 29  1  0
 27 28  1  0
 28 21  1  0
 29 31  1  0
 30 29  2  0
M  END
$$$$
