WLL.pdb
     RDKit          3D

 31 32  0  0  1  0  0  0  0  0999 V2000
    6.1816  -18.3199   24.9782 N   0  0  0  0  0  0  0  0  0  0  0  0
    6.5628  -16.9635   24.6313 C   0  0  1  0  0  0  0  0  0  0  0  0
    6.8294  -16.2380   25.9325 C   0  0  0  0  0  0  0  0  0  0  0  0
    5.9747  -15.0562   26.1204 C   0  0  0  0  0  0  0  0  0  0  0  0
    4.6114  -15.0414   26.3266 C   0  0  0  0  0  0  0  0  0  0  0  0
    4.2251  -13.7638   26.4481 N   0  0  0  0  0  0  0  0  0  0  0  0
    5.2637  -12.9203   26.3335 C   0  0  0  0  0  0  0  0  0  0  0  0
    5.3658  -11.5464   26.3863 C   0  0  0  0  0  0  0  0  0  0  0  0
    6.5857  -10.9571   26.2318 C   0  0  0  0  0  0  0  0  0  0  0  0
    7.6904  -11.7396   26.0266 C   0  0  0  0  0  0  0  0  0  0  0  0
    7.5865  -13.0945   25.9749 C   0  0  0  0  0  0  0  0  0  0  0  0
    6.3748  -13.7388   26.1254 C   0  0  0  0  0  0  0  0  0  0  0  0
    7.8300  -16.9445   23.8600 C   0  0  0  0  0  0  0  0  0  0  0  0
    8.5682  -17.9463   23.7421 O   0  0  0  0  0  0  0  0  0  0  0  0
    8.4323  -12.4077   20.5793 C   0  0  0  0  0  0  0  0  0  0  0  0
    8.1028  -13.8230   21.1232 C   0  0  1  0  0  0  0  0  0  0  0  0
    7.5752  -14.5842   19.9564 C   0  0  0  0  0  0  0  0  0  0  0  0
    9.3706  -14.2865   21.7196 C   0  0  0  0  0  0  0  0  0  0  0  0
    9.4209  -15.5339   22.4967 C   0  0  2  0  0  0  0  0  0  0  0  0
    8.2130  -15.7376   23.2338 N   0  0  0  0  0  0  0  0  0  0  0  0
   10.6464  -15.7554   23.2783 C   0  0  0  0  0  0  0  0  0  0  0  0
   11.8108  -15.5214   22.8400 O   0  0  0  0  0  0  0  0  0  0  0  0
   10.3290  -15.7702   28.9576 C   0  0  0  0  0  0  0  0  0  0  0  0
   10.7906  -15.5261   27.5642 C   0  0  1  0  0  0  0  0  0  0  0  0
   11.6258  -14.2323   27.5107 C   0  0  0  0  0  0  0  0  0  0  0  0
   11.4487  -16.6067   26.8226 C   0  0  0  0  0  0  0  0  0  0  0  0
   11.8246  -16.4712   25.4050 C   0  0  2  0  0  0  0  0  0  0  0  0
   10.5816  -16.2559   24.5980 N   0  0  0  0  0  0  0  0  0  0  0  0
   12.5270  -17.5854   24.7845 C   0  0  0  0  0  0  0  0  0  0  0  0
   13.6911  -17.9841   25.0090 O   0  0  0  0  0  0  0  0  0  0  0  0
   11.8615  -18.3579   23.7911 O   0  0  0  0  0  0  0  0  0  0  0  0
  2  1  1  1
  2 13  1  0
  2  3  1  0
  3  4  1  0
  4  5  2  0
  6  5  1  0
  7  6  1  0
  8  7  2  0
  9  8  1  0
 10  9  2  0
 10 11  1  0
 11 12  2  0
 12  7  1  0
 12  4  1  0
 13 14  2  0
 16 15  1  6
 17 16  1  0
 18 16  1  0
 19 18  1  1
 20 19  1  0
 20 13  1  0
 21 19  1  0
 22 21  2  0
 24 23  1  1
 24 26  1  0
 24 25  1  0
 27 26  1  1
 27 29  1  0
 27 28  1  0
 28 21  1  0
 29 31  1  0
 30 29  2  0
M  END
$$$$
