WLL.pdb
     RDKit          3D

 31 32  0  0  1  0  0  0  0  0999 V2000
    6.3294  -18.6156   24.6824 N   0  0  0  0  0  0  0  0  0  0  0  0
    6.6477  -17.2224   24.4318 C   0  0  1  0  0  0  0  0  0  0  0  0
    6.8190  -16.5632   25.7834 C   0  0  0  0  0  0  0  0  0  0  0  0
    5.9747  -15.3717   25.9560 C   0  0  0  0  0  0  0  0  0  0  0  0
    4.6305  -15.3434   26.2620 C   0  0  0  0  0  0  0  0  0  0  0  0
    4.2478  -14.0606   26.3272 N   0  0  0  0  0  0  0  0  0  0  0  0
    5.2706  -13.2264   26.0797 C   0  0  0  0  0  0  0  0  0  0  0  0
    5.3694  -11.8520   26.0337 C   0  0  0  0  0  0  0  0  0  0  0  0
    6.5714  -11.2741   25.7498 C   0  0  0  0  0  0  0  0  0  0  0  0
    7.6617  -12.0683   25.5149 C   0  0  0  0  0  0  0  0  0  0  0  0
    7.5612  -13.4237   25.5609 C   0  0  0  0  0  0  0  0  0  0  0  0
    6.3674  -14.0568   25.8438 C   0  0  0  0  0  0  0  0  0  0  0  0
    7.9427  -17.0891   23.7203 C   0  0  0  0  0  0  0  0  0  0  0  0
    8.7874  -18.0092   23.6693 O   0  0  0  0  0  0  0  0  0  0  0  0
    8.3145  -12.3169   20.7512 C   0  0  0  0  0  0  0  0  0  0  0  0
    8.0416  -13.7902   21.1541 C   0  0  1  0  0  0  0  0  0  0  0  0
    7.5102  -14.4460   19.9267 C   0  0  0  0  0  0  0  0  0  0  0  0
    9.3369  -14.2697   21.6740 C   0  0  0  0  0  0  0  0  0  0  0  0
    9.4331  -15.5623   22.3685 C   0  0  2  0  0  0  0  0  0  0  0  0
    8.2273  -15.8655   23.0741 N   0  0  0  0  0  0  0  0  0  0  0  0
   10.6585  -15.7822   23.1506 C   0  0  0  0  0  0  0  0  0  0  0  0
   11.8253  -15.6030   22.6932 O   0  0  0  0  0  0  0  0  0  0  0  0
   11.0204  -15.4923   28.9146 C   0  0  0  0  0  0  0  0  0  0  0  0
   11.3376  -15.3977   27.4638 C   0  0  1  0  0  0  0  0  0  0  0  0
   12.5177  -14.4302   27.2502 C   0  0  0  0  0  0  0  0  0  0  0  0
   11.5180  -16.6260   26.6834 C   0  0  0  0  0  0  0  0  0  0  0  0
   11.8279  -16.6037   25.2436 C   0  0  2  0  0  0  0  0  0  0  0  0
   10.5909  -16.2180   24.4930 N   0  0  0  0  0  0  0  0  0  0  0  0
   12.3054  -17.8386   24.6378 C   0  0  0  0  0  0  0  0  0  0  0  0
   11.6876  -18.6110   23.8720 O   0  0  0  0  0  0  0  0  0  0  0  0
   13.6319  -18.2772   24.9105 O   0  0  0  0  0  0  0  0  0  0  0  0
  2  1  1  1
  2 13  1  0
  2  3  1  0
  3  4  1  0
  4  5  2  0
  6  5  1  0
  7  6  1  0
  8  7  2  0
  9  8  1  0
 10  9  2  0
 10 11  1  0
 11 12  2  0
 12  7  1  0
 12  4  1  0
 13 14  2  0
 16 15  1  6
 17 16  1  0
 18 16  1  0
 19 18  1  1
 20 19  1  0
 20 13  1  0
 21 19  1  0
 22 21  2  0
 24 23  1  1
 24 26  1  0
 24 25  1  0
 27 26  1  1
 27 29  1  0
 27 28  1  0
 28 21  1  0
 29 31  1  0
 30 29  2  0
M  END
$$$$
