WLL.pdb
     RDKit          3D

 31 32  0  0  1  0  0  0  0  0999 V2000
    5.9577  -19.2866   24.1242 N   0  0  0  0  0  0  0  0  0  0  0  0
    6.1445  -17.8477   24.1169 C   0  0  1  0  0  0  0  0  0  0  0  0
    6.4309  -17.4368   25.5452 C   0  0  0  0  0  0  0  0  0  0  0  0
    6.0777  -16.0371   25.8253 C   0  0  0  0  0  0  0  0  0  0  0  0
    4.8192  -15.4750   25.7902 C   0  0  0  0  0  0  0  0  0  0  0  0
    4.9362  -14.1782   26.1078 N   0  0  0  0  0  0  0  0  0  0  0  0
    6.2129  -13.8429   26.3545 C   0  0  0  0  0  0  0  0  0  0  0  0
    6.8185  -12.6568   26.7110 C   0  0  0  0  0  0  0  0  0  0  0  0
    8.1688  -12.6215   26.8976 C   0  0  0  0  0  0  0  0  0  0  0  0
    8.9021  -13.7654   26.7278 C   0  0  0  0  0  0  0  0  0  0  0  0
    8.3019  -14.9338   26.3762 C   0  0  0  0  0  0  0  0  0  0  0  0
    6.9388  -15.0215   26.1756 C   0  0  0  0  0  0  0  0  0  0  0  0
    7.3315  -17.4663   23.3128 C   0  0  0  0  0  0  0  0  0  0  0  0
    8.3396  -18.1970   23.2015 O   0  0  0  0  0  0  0  0  0  0  0  0
    8.5316  -14.4565   18.9346 C   0  0  0  0  0  0  0  0  0  0  0  0
    8.9278  -13.7786   20.2729 C   0  0  1  0  0  0  0  0  0  0  0  0
    8.7839  -12.3152   20.0349 C   0  0  0  0  0  0  0  0  0  0  0  0
    8.0329  -14.3958   21.2709 C   0  0  0  0  0  0  0  0  0  0  0  0
    8.4256  -15.6299   21.9675 C   0  0  2  0  0  0  0  0  0  0  0  0
    7.3148  -16.2211   22.6460 N   0  0  0  0  0  0  0  0  0  0  0  0
    9.6505  -15.5493   22.7767 C   0  0  0  0  0  0  0  0  0  0  0  0
   10.7991  -15.3292   22.2922 O   0  0  0  0  0  0  0  0  0  0  0  0
   12.0745  -13.5400   27.3872 C   0  0  0  0  0  0  0  0  0  0  0  0
   11.1865  -14.7284   27.5035 C   0  0  1  0  0  0  0  0  0  0  0  0
   10.4289  -14.6838   28.8446 C   0  0  0  0  0  0  0  0  0  0  0  0
   10.2807  -15.0629   26.3998 C   0  0  0  0  0  0  0  0  0  0  0  0
   10.7709  -15.3525   25.0414 C   0  0  2  0  0  0  0  0  0  0  0  0
    9.6032  -15.7192   24.1786 N   0  0  0  0  0  0  0  0  0  0  0  0
   11.7437  -16.4252   24.8904 C   0  0  0  0  0  0  0  0  0  0  0  0
   12.9900  -16.3339   24.8357 O   0  0  0  0  0  0  0  0  0  0  0  0
   11.2842  -17.7686   24.7868 O   0  0  0  0  0  0  0  0  0  0  0  0
  2  1  1  1
  2 13  1  0
  2  3  1  0
  3  4  1  0
  4  5  2  0
  6  5  1  0
  7  6  1  0
  8  7  2  0
  9  8  1  0
 10  9  2  0
 10 11  1  0
 11 12  2  0
 12  7  1  0
 12  4  1  0
 13 14  2  0
 16 15  1  6
 17 16  1  0
 18 16  1  0
 19 18  1  1
 20 19  1  0
 20 13  1  0
 21 19  1  0
 22 21  2  0
 24 23  1  6
 24 26  1  0
 24 25  1  0
 27 26  1  1
 27 29  1  0
 27 28  1  0
 28 21  1  0
 29 31  1  0
 30 29  2  0
M  END
$$$$
