FND.pdb
     RDKit          3D

 28 28  0  0  1  0  0  0  0  0999 V2000
    6.0670  -16.0879   25.1427 N   0  0  0  0  0  0  0  0  0  0  0  0
    6.5920  -15.9292   23.8179 C   0  0  1  0  0  0  0  0  0  0  0  0
    6.7056  -14.4415   23.5349 C   0  0  0  0  0  0  0  0  0  0  0  0
    6.9622  -13.6747   24.7823 C   0  0  0  0  0  0  0  0  0  0  0  0
    5.8777  -13.2895   25.5219 C   0  0  0  0  0  0  0  0  0  0  0  0
    6.0920  -12.5782   26.6807 C   0  0  0  0  0  0  0  0  0  0  0  0
    7.3917  -12.2738   27.0637 C   0  0  0  0  0  0  0  0  0  0  0  0
    8.4633  -12.6691   26.3086 C   0  0  0  0  0  0  0  0  0  0  0  0
    8.2378  -13.3772   25.1562 C   0  0  0  0  0  0  0  0  0  0  0  0
    7.9808  -16.4771   23.6963 C   0  0  0  0  0  0  0  0  0  0  0  0
    8.3716  -17.3441   24.5176 O   0  0  0  0  0  0  0  0  0  0  0  0
    8.6895  -17.1898   20.0068 N   0  0  0  0  0  0  0  0  0  0  0  0
    9.7934  -16.2621   19.9018 C   0  0  0  0  0  0  0  0  0  0  0  0
    9.9635  -15.7818   18.7844 O   0  0  0  0  0  0  0  0  0  0  0  0
   10.5427  -16.0226   21.1044 C   0  0  0  0  0  0  0  0  0  0  0  0
   10.1499  -16.6866   22.3897 C   0  0  2  0  0  0  0  0  0  0  0  0
    8.8302  -16.0202   22.6716 N   0  0  0  0  0  0  0  0  0  0  0  0
   11.0052  -16.4323   23.5472 C   0  0  0  0  0  0  0  0  0  0  0  0
   10.6272  -15.5245   24.3797 O   0  0  0  0  0  0  0  0  0  0  0  0
   12.2125  -17.0806   23.8645 N   0  0  0  0  0  0  0  0  0  0  0  0
   12.3961  -17.6383   25.1985 C   0  0  1  0  0  0  0  0  0  0  0  0
   11.0932  -18.2298   25.7057 C   0  0  0  0  0  0  0  0  0  0  0  0
   11.2942  -18.6518   27.1056 C   0  0  0  0  0  0  0  0  0  0  0  0
   12.4222  -18.4964   27.6275 O   0  0  0  0  0  0  0  0  0  0  0  0
   13.4959  -18.6069   25.1696 C   0  0  0  0  0  0  0  0  0  0  0  0
   13.4409  -19.7325   24.6412 O   0  0  0  0  0  0  0  0  0  0  0  0
   10.2927  -19.2159   27.8794 O   0  0  0  0  0  0  0  0  0  0  0  0
   14.7113  -18.2542   25.7800 O   0  0  0  0  0  0  0  0  0  0  0  0
  2  1  1  1
  2  3  1  0
  3  4  1  0
  4  5  2  0
  5  6  1  0
  7  6  2  0
  8  7  1  0
  9  4  1  0
  9  8  2  0
 10 11  2  0
 10  2  1  0
 12 13  1  0
 13 14  2  0
 16 15  1  6
 15 13  1  0
 16 18  1  0
 16 17  1  0
 17 10  1  0
 18 20  1  0
 19 18  2  0
 20 21  1  0
 21 22  1  6
 22 23  1  0
 23 27  1  0
 24 23  2  0
 25 28  1  0
 25 21  1  0
 26 25  2  0
M  END
$$$$
