FND.pdb
     RDKit          3D

 28 28  0  0  1  0  0  0  0  0999 V2000
    7.0271  -17.3404   22.4941 N   0  0  0  0  0  0  0  0  0  0  0  0
    8.2575  -16.9549   21.8670 C   0  0  1  0  0  0  0  0  0  0  0  0
    8.7100  -15.6460   22.4900 C   0  0  0  0  0  0  0  0  0  0  0  0
    8.4464  -14.4987   21.5823 C   0  0  0  0  0  0  0  0  0  0  0  0
    9.3351  -14.2800   20.5655 C   0  0  0  0  0  0  0  0  0  0  0  0
    9.1106  -13.2228   19.7130 C   0  0  0  0  0  0  0  0  0  0  0  0
    7.9983  -12.4145   19.9069 C   0  0  0  0  0  0  0  0  0  0  0  0
    7.1211  -12.6510   20.9313 C   0  0  0  0  0  0  0  0  0  0  0  0
    7.3547  -13.7070   21.7742 C   0  0  0  0  0  0  0  0  0  0  0  0
    9.3553  -17.9382   22.1357 C   0  0  0  0  0  0  0  0  0  0  0  0
    9.2612  -18.7063   23.1257 O   0  0  0  0  0  0  0  0  0  0  0  0
   12.5866  -21.5618   19.3524 N   0  0  0  0  0  0  0  0  0  0  0  0
   13.0012  -20.2430   19.7756 C   0  0  0  0  0  0  0  0  0  0  0  0
   14.2162  -20.0759   19.8388 O   0  0  0  0  0  0  0  0  0  0  0  0
   11.9510  -19.3059   20.0652 C   0  0  0  0  0  0  0  0  0  0  0  0
   11.5632  -19.0131   21.4834 C   0  0  2  0  0  0  0  0  0  0  0  0
   10.4742  -17.9936   21.2841 N   0  0  0  0  0  0  0  0  0  0  0  0
   12.5795  -18.3840   22.3245 C   0  0  0  0  0  0  0  0  0  0  0  0
   13.4082  -19.1572   22.9372 O   0  0  0  0  0  0  0  0  0  0  0  0
   12.7628  -17.0064   22.5410 N   0  0  0  0  0  0  0  0  0  0  0  0
   13.8320  -16.5567   23.4235 C   0  0  1  0  0  0  0  0  0  0  0  0
   14.4419  -15.2696   22.8983 C   0  0  0  0  0  0  0  0  0  0  0  0
   15.2848  -15.6022   21.7334 C   0  0  0  0  0  0  0  0  0  0  0  0
   15.4232  -14.7509   20.8250 O   0  0  0  0  0  0  0  0  0  0  0  0
   13.3116  -16.4329   24.7882 C   0  0  0  0  0  0  0  0  0  0  0  0
   12.1245  -16.6108   25.1174 O   0  0  0  0  0  0  0  0  0  0  0  0
   15.9365  -16.8166   21.5903 O   0  0  0  0  0  0  0  0  0  0  0  0
   14.2069  -16.0879   25.8147 O   0  0  0  0  0  0  0  0  0  0  0  0
  2  1  1  1
  2  3  1  0
  3  4  1  0
  4  5  2  0
  5  6  1  0
  7  6  2  0
  8  7  1  0
  9  4  1  0
  9  8  2  0
 10 11  2  0
 10  2  1  0
 12 13  1  0
 13 14  2  0
 16 15  1  6
 15 13  1  0
 16 18  1  0
 16 17  1  0
 17 10  1  0
 18 20  1  0
 19 18  2  0
 20 21  1  0
 21 22  1  6
 22 23  1  0
 23 27  1  0
 24 23  2  0
 25 28  1  0
 25 21  1  0
 26 25  2  0
M  END
$$$$
