FND.pdb
     RDKit          3D

 28 28  0  0  1  0  0  0  0  0999 V2000
    7.5627  -15.8174   25.7231 N   0  0  0  0  0  0  0  0  0  0  0  0
    6.6212  -15.7501   24.6439 C   0  0  1  0  0  0  0  0  0  0  0  0
    6.2821  -14.2885   24.4095 C   0  0  0  0  0  0  0  0  0  0  0  0
    6.8182  -13.4305   25.4988 C   0  0  0  0  0  0  0  0  0  0  0  0
    8.1312  -13.0549   25.4194 C   0  0  0  0  0  0  0  0  0  0  0  0
    8.6486  -12.2606   26.4174 C   0  0  0  0  0  0  0  0  0  0  0  0
    7.8309  -11.8659   27.4681 C   0  0  0  0  0  0  0  0  0  0  0  0
    6.5190  -12.2533   27.5283 C   0  0  0  0  0  0  0  0  0  0  0  0
    6.0144  -13.0445   26.5285 C   0  0  0  0  0  0  0  0  0  0  0  0
    7.2069  -16.2466   23.3577 C   0  0  0  0  0  0  0  0  0  0  0  0
    6.5019  -16.2325   22.3175 O   0  0  0  0  0  0  0  0  0  0  0  0
    7.2902  -15.7665   19.6118 N   0  0  0  0  0  0  0  0  0  0  0  0
    8.6976  -15.6508   19.9217 C   0  0  0  0  0  0  0  0  0  0  0  0
    9.4364  -15.5387   18.9471 O   0  0  0  0  0  0  0  0  0  0  0  0
    9.0493  -15.6815   21.3147 C   0  0  0  0  0  0  0  0  0  0  0  0
    9.2371  -16.9894   22.0227 C   0  0  2  0  0  0  0  0  0  0  0  0
    8.5313  -16.7211   23.3245 N   0  0  0  0  0  0  0  0  0  0  0  0
   10.6100  -17.3624   22.3577 C   0  0  0  0  0  0  0  0  0  0  0  0
   11.0490  -18.4869   21.9071 O   0  0  0  0  0  0  0  0  0  0  0  0
   11.5246  -16.6185   23.1247 N   0  0  0  0  0  0  0  0  0  0  0  0
   12.7501  -17.2541   23.5922 C   0  0  1  0  0  0  0  0  0  0  0  0
   13.8834  -16.2451   23.6347 C   0  0  0  0  0  0  0  0  0  0  0  0
   14.0812  -15.7183   22.2703 C   0  0  0  0  0  0  0  0  0  0  0  0
   13.3280  -16.1186   21.3530 O   0  0  0  0  0  0  0  0  0  0  0  0
   12.4987  -17.8932   24.8873 C   0  0  0  0  0  0  0  0  0  0  0  0
   13.2422  -18.7355   25.4229 O   0  0  0  0  0  0  0  0  0  0  0  0
   15.0644  -14.7968   21.9477 O   0  0  0  0  0  0  0  0  0  0  0  0
   11.3349  -17.5396   25.5907 O   0  0  0  0  0  0  0  0  0  0  0  0
  2  1  1  1
  2  3  1  0
  3  4  1  0
  4  5  2  0
  5  6  1  0
  7  6  2  0
  8  7  1  0
  9  4  1  0
  9  8  2  0
 10 11  2  0
 10  2  1  0
 12 13  1  0
 13 14  2  0
 16 15  1  6
 15 13  1  0
 16 18  1  0
 16 17  1  0
 17 10  1  0
 18 20  1  0
 19 18  2  0
 20 21  1  0
 21 22  1  1
 22 23  1  0
 23 27  1  0
 24 23  2  0
 25 28  1  0
 25 21  1  0
 26 25  2  0
M  END
$$$$
