FND.pdb
     RDKit          3D

 28 28  0  0  1  0  0  0  0  0999 V2000
    6.1569  -16.7061   24.9457 N   0  0  0  0  0  0  0  0  0  0  0  0
    7.0833  -16.2521   23.9500 C   0  0  1  0  0  0  0  0  0  0  0  0
    6.6553  -14.8625   23.5117 C   0  0  0  0  0  0  0  0  0  0  0  0
    6.6472  -13.9156   24.6577 C   0  0  0  0  0  0  0  0  0  0  0  0
    7.6136  -12.9478   24.6848 C   0  0  0  0  0  0  0  0  0  0  0  0
    7.6251  -12.0603   25.7369 C   0  0  0  0  0  0  0  0  0  0  0  0
    6.6640  -12.1709   26.7331 C   0  0  0  0  0  0  0  0  0  0  0  0
    5.7053  -13.1474   26.6867 C   0  0  0  0  0  0  0  0  0  0  0  0
    5.7035  -14.0258   25.6338 C   0  0  0  0  0  0  0  0  0  0  0  0
    8.4680  -16.1000   24.5010 C   0  0  0  0  0  0  0  0  0  0  0  0
    9.3874  -15.6969   23.7452 O   0  0  0  0  0  0  0  0  0  0  0  0
   11.1134  -14.1854   29.2861 N   0  0  0  0  0  0  0  0  0  0  0  0
   11.1460  -14.4948   27.8743 C   0  0  0  0  0  0  0  0  0  0  0  0
   12.1789  -14.1695   27.2951 O   0  0  0  0  0  0  0  0  0  0  0  0
    9.9790  -15.1362   27.3341 C   0  0  0  0  0  0  0  0  0  0  0  0
   10.1147  -16.3192   26.4235 C   0  0  2  0  0  0  0  0  0  0  0  0
    8.7261  -16.4073   25.8498 N   0  0  0  0  0  0  0  0  0  0  0  0
   10.3900  -17.6068   27.0580 C   0  0  0  0  0  0  0  0  0  0  0  0
    9.5882  -17.9965   27.9882 O   0  0  0  0  0  0  0  0  0  0  0  0
   11.4459  -18.4870   26.7601 N   0  0  0  0  0  0  0  0  0  0  0  0
   11.5368  -19.7597   27.4646 C   0  0  1  0  0  0  0  0  0  0  0  0
   12.4554  -20.7102   26.7180 C   0  0  0  0  0  0  0  0  0  0  0  0
   13.7545  -20.0370   26.5248 C   0  0  0  0  0  0  0  0  0  0  0  0
   14.5415  -19.9523   27.4956 O   0  0  0  0  0  0  0  0  0  0  0  0
   11.9592  -19.5171   28.8471 C   0  0  0  0  0  0  0  0  0  0  0  0
   11.9070  -20.3550   29.7660 O   0  0  0  0  0  0  0  0  0  0  0  0
   14.1529  -19.4889   25.3161 O   0  0  0  0  0  0  0  0  0  0  0  0
   12.4639  -18.2480   29.1773 O   0  0  0  0  0  0  0  0  0  0  0  0
  2  1  1  1
  2  3  1  0
  3  4  1  0
  4  5  2  0
  5  6  1  0
  7  6  2  0
  8  7  1  0
  9  4  1  0
  9  8  2  0
 10 11  2  0
 10  2  1  0
 12 13  1  0
 13 14  2  0
 16 15  1  1
 15 13  1  0
 16 18  1  0
 16 17  1  0
 17 10  1  0
 18 20  1  0
 19 18  2  0
 20 21  1  0
 21 22  1  6
 22 23  1  0
 23 27  1  0
 24 23  2  0
 25 28  1  0
 25 21  1  0
 26 25  2  0
M  END
$$$$
