FND.pdb
     RDKit          3D

 28 28  0  0  1  0  0  0  0  0999 V2000
    5.5608  -17.3913   25.3019 N   0  0  0  0  0  0  0  0  0  0  0  0
    6.6875  -16.6569   24.8049 C   0  0  1  0  0  0  0  0  0  0  0  0
    7.4143  -16.0540   25.9942 C   0  0  0  0  0  0  0  0  0  0  0  0
    7.3223  -14.5703   25.9853 C   0  0  0  0  0  0  0  0  0  0  0  0
    6.2138  -14.0023   26.5509 C   0  0  0  0  0  0  0  0  0  0  0  0
    6.1077  -12.6300   26.5535 C   0  0  0  0  0  0  0  0  0  0  0  0
    7.1199  -11.8665   25.9868 C   0  0  0  0  0  0  0  0  0  0  0  0
    8.2213  -12.4554   25.4257 C   0  0  0  0  0  0  0  0  0  0  0  0
    8.3162  -13.8233   25.4289 C   0  0  0  0  0  0  0  0  0  0  0  0
    7.6815  -17.5480   24.1254 C   0  0  0  0  0  0  0  0  0  0  0  0
    7.7847  -18.7447   24.4948 O   0  0  0  0  0  0  0  0  0  0  0  0
   11.2262  -17.0067   19.3247 N   0  0  0  0  0  0  0  0  0  0  0  0
   10.1639  -17.8164   19.8781 C   0  0  0  0  0  0  0  0  0  0  0  0
   10.0062  -18.9070   19.3361 O   0  0  0  0  0  0  0  0  0  0  0  0
    9.4359  -17.2487   20.9794 C   0  0  0  0  0  0  0  0  0  0  0  0
    9.4211  -17.9318   22.3136 C   0  0  2  0  0  0  0  0  0  0  0  0
    8.4855  -17.0422   23.0871 N   0  0  0  0  0  0  0  0  0  0  0  0
   10.6827  -17.9577   23.0510 C   0  0  0  0  0  0  0  0  0  0  0  0
   11.4449  -18.9844   22.8924 O   0  0  0  0  0  0  0  0  0  0  0  0
   11.1709  -16.9700   23.9254 N   0  0  0  0  0  0  0  0  0  0  0  0
   12.4209  -17.2003   24.6387 C   0  0  1  0  0  0  0  0  0  0  0  0
   13.2829  -15.9510   24.6071 C   0  0  0  0  0  0  0  0  0  0  0  0
   14.1199  -16.0007   23.3926 C   0  0  0  0  0  0  0  0  0  0  0  0
   13.9131  -16.9069   22.5529 O   0  0  0  0  0  0  0  0  0  0  0  0
   12.1232  -17.6607   25.9981 C   0  0  0  0  0  0  0  0  0  0  0  0
   12.9482  -18.1812   26.7713 O   0  0  0  0  0  0  0  0  0  0  0  0
   15.1310  -15.0904   23.1300 O   0  0  0  0  0  0  0  0  0  0  0  0
   10.8122  -17.5107   26.4809 O   0  0  0  0  0  0  0  0  0  0  0  0
  2  1  1  1
  2  3  1  0
  3  4  1  0
  4  5  2  0
  5  6  1  0
  7  6  2  0
  8  7  1  0
  9  4  1  0
  9  8  2  0
 10 11  2  0
 10  2  1  0
 12 13  1  0
 13 14  2  0
 16 15  1  6
 15 13  1  0
 16 18  1  0
 16 17  1  0
 17 10  1  0
 18 20  1  0
 19 18  2  0
 20 21  1  0
 21 22  1  1
 22 23  1  0
 23 27  1  0
 24 23  2  0
 25 28  1  0
 25 21  1  0
 26 25  2  0
M  END
$$$$
