FND.pdb
     RDKit          3D

 28 28  0  0  1  0  0  0  0  0999 V2000
    8.4987  -17.0562   17.8067 N   0  0  0  0  0  0  0  0  0  0  0  0
    9.1620  -15.9965   18.5089 C   0  0  1  0  0  0  0  0  0  0  0  0
    8.4897  -15.8390   19.8614 C   0  0  0  0  0  0  0  0  0  0  0  0
    8.3500  -14.4054   20.2291 C   0  0  0  0  0  0  0  0  0  0  0  0
    8.3981  -13.4858   19.2174 C   0  0  0  0  0  0  0  0  0  0  0  0
    8.2712  -12.1526   19.5351 C   0  0  0  0  0  0  0  0  0  0  0  0
    8.0994  -11.7808   20.8620 C   0  0  0  0  0  0  0  0  0  0  0  0
    8.0541  -12.7178   21.8595 C   0  0  0  0  0  0  0  0  0  0  0  0
    8.1816  -14.0430   21.5313 C   0  0  0  0  0  0  0  0  0  0  0  0
   10.5940  -16.3270   18.7986 C   0  0  0  0  0  0  0  0  0  0  0  0
   10.8983  -17.5024   19.1224 O   0  0  0  0  0  0  0  0  0  0  0  0
   15.8145  -15.7058   17.7123 N   0  0  0  0  0  0  0  0  0  0  0  0
   15.1092  -14.4719   17.9773 C   0  0  0  0  0  0  0  0  0  0  0  0
   15.8235  -13.4793   18.0898 O   0  0  0  0  0  0  0  0  0  0  0  0
   13.6783  -14.5626   18.0744 C   0  0  0  0  0  0  0  0  0  0  0  0
   13.0389  -15.6420   18.8950 C   0  0  2  0  0  0  0  0  0  0  0  0
   11.5794  -15.3265   18.7067 N   0  0  0  0  0  0  0  0  0  0  0  0
   13.2940  -15.6099   20.3337 C   0  0  0  0  0  0  0  0  0  0  0  0
   12.8667  -14.5881   20.9922 O   0  0  0  0  0  0  0  0  0  0  0  0
   13.9597  -16.5868   21.0959 N   0  0  0  0  0  0  0  0  0  0  0  0
   14.2404  -16.3283   22.5026 C   0  0  1  0  0  0  0  0  0  0  0  0
   14.2873  -17.6323   23.2784 C   0  0  0  0  0  0  0  0  0  0  0  0
   12.9401  -18.2342   23.2476 C   0  0  0  0  0  0  0  0  0  0  0  0
   11.9550  -17.5269   23.5614 O   0  0  0  0  0  0  0  0  0  0  0  0
   15.4761  -15.5475   22.6127 C   0  0  0  0  0  0  0  0  0  0  0  0
   16.2227  -15.2564   21.6603 O   0  0  0  0  0  0  0  0  0  0  0  0
   12.7054  -19.5513   22.8871 O   0  0  0  0  0  0  0  0  0  0  0  0
   15.8618  -15.0849   23.8821 O   0  0  0  0  0  0  0  0  0  0  0  0
  2  1  1  1
  2  3  1  0
  3  4  1  0
  4  5  2  0
  5  6  1  0
  7  6  2  0
  8  7  1  0
  9  4  1  0
  9  8  2  0
 10 11  2  0
 10  2  1  0
 12 13  1  0
 13 14  2  0
 16 15  1  6
 15 13  1  0
 16 18  1  0
 16 17  1  0
 17 10  1  0
 18 20  1  0
 19 18  2  0
 20 21  1  0
 21 22  1  1
 22 23  1  0
 23 27  1  0
 24 23  2  0
 25 28  1  0
 25 21  1  0
 26 25  2  0
M  END
$$$$
