FND.pdb
     RDKit          3D

 28 28  0  0  1  0  0  0  0  0999 V2000
    6.1232  -17.7730   25.5097 N   0  0  0  0  0  0  0  0  0  0  0  0
    6.7909  -16.5996   25.0270 C   0  0  1  0  0  0  0  0  0  0  0  0
    7.6604  -16.0611   26.1496 C   0  0  0  0  0  0  0  0  0  0  0  0
    7.5787  -14.5790   26.2298 C   0  0  0  0  0  0  0  0  0  0  0  0
    6.5060  -14.0396   26.8854 C   0  0  0  0  0  0  0  0  0  0  0  0
    6.4100  -12.6692   26.9715 C   0  0  0  0  0  0  0  0  0  0  0  0
    7.3959  -11.8788   26.3956 C   0  0  0  0  0  0  0  0  0  0  0  0
    8.4617  -12.4393   25.7437 C   0  0  0  0  0  0  0  0  0  0  0  0
    8.5468  -13.8055   25.6642 C   0  0  0  0  0  0  0  0  0  0  0  0
    7.7250  -16.9109   23.8981 C   0  0  0  0  0  0  0  0  0  0  0  0
    8.2638  -18.0449   23.8435 O   0  0  0  0  0  0  0  0  0  0  0  0
    6.3302  -13.7155   20.9230 N   0  0  0  0  0  0  0  0  0  0  0  0
    6.8790  -14.9823   20.4940 C   0  0  0  0  0  0  0  0  0  0  0  0
    6.0744  -15.7443   19.9647 O   0  0  0  0  0  0  0  0  0  0  0  0
    8.2803  -15.1867   20.7386 C   0  0  0  0  0  0  0  0  0  0  0  0
    8.7402  -16.2794   21.6561 C   0  0  2  0  0  0  0  0  0  0  0  0
    7.9896  -15.9390   22.9154 N   0  0  0  0  0  0  0  0  0  0  0  0
   10.1601  -16.2903   22.0026 C   0  0  0  0  0  0  0  0  0  0  0  0
   11.0050  -16.4801   21.0486 O   0  0  0  0  0  0  0  0  0  0  0  0
   10.7195  -16.1087   23.2803 N   0  0  0  0  0  0  0  0  0  0  0  0
   12.1410  -16.3602   23.4814 C   0  0  1  0  0  0  0  0  0  0  0  0
   12.8413  -15.0913   23.9333 C   0  0  0  0  0  0  0  0  0  0  0  0
   14.2720  -15.3992   24.1244 C   0  0  0  0  0  0  0  0  0  0  0  0
   14.9769  -15.6448   23.1185 O   0  0  0  0  0  0  0  0  0  0  0  0
   12.3061  -17.4747   24.4190 C   0  0  0  0  0  0  0  0  0  0  0  0
   13.3215  -18.1895   24.5051 O   0  0  0  0  0  0  0  0  0  0  0  0
   14.8818  -15.4314   25.3683 O   0  0  0  0  0  0  0  0  0  0  0  0
   11.2479  -17.7723   25.2942 O   0  0  0  0  0  0  0  0  0  0  0  0
  2  1  1  1
  2  3  1  0
  3  4  1  0
  4  5  2  0
  5  6  1  0
  7  6  2  0
  8  7  1  0
  9  4  1  0
  9  8  2  0
 10 11  2  0
 10  2  1  0
 12 13  1  0
 13 14  2  0
 16 15  1  6
 15 13  1  0
 16 18  1  0
 16 17  1  0
 17 10  1  0
 18 20  1  0
 19 18  2  0
 20 21  1  0
 21 22  1  1
 22 23  1  0
 23 27  1  0
 24 23  2  0
 25 28  1  0
 25 21  1  0
 26 25  2  0
M  END
$$$$
