SQT.pdb
     RDKit          3D

 23 22  0  0  1  0  0  0  0  0999 V2000
   24.2831  -13.2413  -18.7842 O   0  0  0  0  0  0  0  0  0  0  0  0
   23.5755  -12.0418  -18.7835 C   0  0  0  0  0  0  0  0  0  0  0  0
   22.2246  -12.2901  -18.1509 C   0  0  2  0  0  0  0  0  0  0  0  0
   21.3486  -13.0474  -18.9913 N   0  0  0  0  0  0  0  0  0  0  0  0
   21.5789  -11.0021  -17.7999 C   0  0  0  0  0  0  0  0  0  0  0  0
   21.1287  -10.2716  -18.7092 O   0  0  0  0  0  0  0  0  0  0  0  0
   17.0030   -9.9743  -14.5221 N   0  0  0  0  0  0  0  0  0  0  0  0
   17.3444   -8.6190  -14.7187 C   0  0  0  0  0  0  0  0  0  0  0  0
   16.5351   -7.7190  -14.4396 O   0  0  0  0  0  0  0  0  0  0  0  0
   18.6709   -8.2809  -15.2585 C   0  0  0  0  0  0  0  0  0  0  0  0
   19.4132   -9.5394  -15.5254 C   0  0  0  0  0  0  0  0  0  0  0  0
   20.7692   -9.3384  -16.1512 C   0  0  2  0  0  0  0  0  0  0  0  0
   21.4492  -10.5570  -16.4450 N   0  0  0  0  0  0  0  0  0  0  0  0
   21.5777   -8.4228  -15.2917 C   0  0  0  0  0  0  0  0  0  0  0  0
   22.2584   -8.8104  -14.3195 O   0  0  0  0  0  0  0  0  0  0  0  0
   24.1523   -5.9877  -16.6645 C   0  0  0  0  0  0  0  0  0  0  0  0
   23.0693   -5.2189  -15.9716 C   0  0  1  0  0  0  0  0  0  0  0  0
   22.1045   -4.8026  -16.9098 O   0  0  0  0  0  0  0  0  0  0  0  0
   22.3948   -6.0727  -14.8949 C   0  0  2  0  0  0  0  0  0  0  0  0
   21.5733   -7.0341  -15.5954 N   0  0  0  0  0  0  0  0  0  0  0  0
   21.4886   -5.1785  -14.1303 C   0  0  0  0  0  0  0  0  0  0  0  0
   20.2387   -5.2370  -14.2551 O   0  0  0  0  0  0  0  0  0  0  0  0
   21.9686   -4.2215  -13.2291 O   0  0  0  0  0  0  0  0  0  0  0  0
  1  2  1  0
  2  3  1  0
  3  5  1  0
  3  4  1  6
  5  6  2  0
  7  8  1  0
  8  9  2  0
  8 10  1  0
 10 11  1  0
 12 11  1  1
 12 14  1  0
 13  5  1  0
 13 12  1  0
 14 20  1  0
 15 14  2  0
 17 18  1  0
 17 16  1  6
 19 17  1  0
 19 20  1  6
 21 23  1  0
 21 19  1  0
 22 21  2  0
M  END
$$$$
