SQT.pdb
     RDKit          3D

 23 22  0  0  1  0  0  0  0  0999 V2000
   16.7993   -9.7563  -17.6533 O   0  0  0  0  0  0  0  0  0  0  0  0
   17.3122   -8.6023  -17.0661 C   0  0  0  0  0  0  0  0  0  0  0  0
   18.7692   -8.8446  -16.7415 C   0  0  2  0  0  0  0  0  0  0  0  0
   18.9634   -9.9427  -15.8451 N   0  0  0  0  0  0  0  0  0  0  0  0
   19.3747   -7.6218  -16.1609 C   0  0  0  0  0  0  0  0  0  0  0  0
   18.8426   -7.0850  -15.1649 O   0  0  0  0  0  0  0  0  0  0  0  0
   21.8218   -4.5435  -13.5827 N   0  0  0  0  0  0  0  0  0  0  0  0
   22.3748   -5.8127  -13.3080 C   0  0  0  0  0  0  0  0  0  0  0  0
   22.5567   -6.1797  -12.1354 O   0  0  0  0  0  0  0  0  0  0  0  0
   22.7346   -6.6993  -14.4258 C   0  0  0  0  0  0  0  0  0  0  0  0
   22.5342   -5.9654  -15.7015 C   0  0  0  0  0  0  0  0  0  0  0  0
   21.0930   -5.8364  -16.1225 C   0  0  2  0  0  0  0  0  0  0  0  0
   20.5585   -7.0247  -16.7020 N   0  0  0  0  0  0  0  0  0  0  0  0
   20.9446   -4.6466  -17.0130 C   0  0  0  0  0  0  0  0  0  0  0  0
   21.1585   -4.6736  -18.2428 O   0  0  0  0  0  0  0  0  0  0  0  0
   18.2492   -3.1559  -18.2544 C   0  0  0  0  0  0  0  0  0  0  0  0
   18.7914   -2.0859  -17.3571 C   0  0  1  0  0  0  0  0  0  0  0  0
   18.1856   -2.1746  -16.0886 O   0  0  0  0  0  0  0  0  0  0  0  0
   20.3090   -2.2161  -17.2049 C   0  0  2  0  0  0  0  0  0  0  0  0
   20.5375   -3.4153  -16.4307 N   0  0  0  0  0  0  0  0  0  0  0  0
   20.7687   -1.0611  -16.3924 C   0  0  0  0  0  0  0  0  0  0  0  0
   21.1225   -1.1930  -15.1929 O   0  0  0  0  0  0  0  0  0  0  0  0
   20.8357    0.2374  -16.9100 O   0  0  0  0  0  0  0  0  0  0  0  0
  1  2  1  0
  2  3  1  0
  3  5  1  0
  3  4  1  1
  5  6  2  0
  7  8  1  0
  8  9  2  0
  8 10  1  0
 10 11  1  0
 12 11  1  6
 12 14  1  0
 13  5  1  0
 13 12  1  0
 14 20  1  0
 15 14  2  0
 17 18  1  0
 17 16  1  6
 19 17  1  0
 19 20  1  1
 21 23  1  0
 21 19  1  0
 22 21  2  0
M  END
$$$$
