SQT.pdb
     RDKit          3D

 23 22  0  0  1  0  0  0  0  0999 V2000
   17.9239  -12.0947  -14.3622 O   0  0  0  0  0  0  0  0  0  0  0  0
   18.5246  -10.8619  -14.6049 C   0  0  0  0  0  0  0  0  0  0  0  0
   17.9468  -10.2979  -15.8834 C   0  0  2  0  0  0  0  0  0  0  0  0
   18.4439  -10.9534  -17.0541 N   0  0  0  0  0  0  0  0  0  0  0  0
   18.2284   -8.8449  -15.9755 C   0  0  0  0  0  0  0  0  0  0  0  0
   19.1218   -8.4392  -16.7504 O   0  0  0  0  0  0  0  0  0  0  0  0
   14.0755   -5.2008  -14.6094 N   0  0  0  0  0  0  0  0  0  0  0  0
   14.2528   -5.6366  -15.9401 C   0  0  0  0  0  0  0  0  0  0  0  0
   13.2760   -5.7612  -16.6972 O   0  0  0  0  0  0  0  0  0  0  0  0
   15.6084   -5.9428  -16.4236 C   0  0  0  0  0  0  0  0  0  0  0  0
   16.5840   -5.6082  -15.3547 C   0  0  0  0  0  0  0  0  0  0  0  0
   17.8069   -6.4885  -15.3340 C   0  0  2  0  0  0  0  0  0  0  0  0
   17.5092   -7.8770  -15.2031 N   0  0  0  0  0  0  0  0  0  0  0  0
   18.7469   -6.0012  -14.2806 C   0  0  0  0  0  0  0  0  0  0  0  0
   18.5135   -6.0809  -13.0566 O   0  0  0  0  0  0  0  0  0  0  0  0
   22.0344   -7.2091  -13.5691 C   0  0  0  0  0  0  0  0  0  0  0  0
   22.2300   -5.7963  -14.0269 C   0  0  1  0  0  0  0  0  0  0  0  0
   22.5190   -5.7769  -15.4054 O   0  0  0  0  0  0  0  0  0  0  0  0
   20.9791   -4.9558  -13.7588 C   0  0  2  0  0  0  0  0  0  0  0  0
   19.9747   -5.4145  -14.6917 N   0  0  0  0  0  0  0  0  0  0  0  0
   21.3112   -3.5513  -14.1092 C   0  0  0  0  0  0  0  0  0  0  0  0
   20.8914   -3.0145  -15.1660 O   0  0  0  0  0  0  0  0  0  0  0  0
   22.1074   -2.7445  -13.2886 O   0  0  0  0  0  0  0  0  0  0  0  0
  1  2  1  0
  2  3  1  0
  3  5  1  0
  3  4  1  6
  5  6  2  0
  7  8  1  0
  8  9  2  0
  8 10  1  0
 10 11  1  0
 12 11  1  1
 12 14  1  0
 13  5  1  0
 13 12  1  0
 14 20  1  0
 15 14  2  0
 17 18  1  0
 17 16  1  6
 19 17  1  0
 19 20  1  6
 21 23  1  0
 21 19  1  0
 22 21  2  0
M  END
$$$$
