SQT.pdb
     RDKit          3D

 23 22  0  0  1  0  0  0  0  0999 V2000
   13.4518   -8.0097  -15.3991 O   0  0  0  0  0  0  0  0  0  0  0  0
   14.6760   -7.8928  -14.7456 C   0  0  0  0  0  0  0  0  0  0  0  0
   15.5211   -9.0939  -15.1060 C   0  0  2  0  0  0  0  0  0  0  0  0
   15.0339  -10.3090  -14.5285 N   0  0  0  0  0  0  0  0  0  0  0  0
   16.9260   -8.8768  -14.6843 C   0  0  0  0  0  0  0  0  0  0  0  0
   17.2032   -8.8343  -13.4658 O   0  0  0  0  0  0  0  0  0  0  0  0
   21.9728  -11.2542  -16.8337 N   0  0  0  0  0  0  0  0  0  0  0  0
   22.5595  -10.3222  -15.9509 C   0  0  0  0  0  0  0  0  0  0  0  0
   23.7787  -10.3582  -15.7166 O   0  0  0  0  0  0  0  0  0  0  0  0
   21.7116   -9.3052  -15.3090 C   0  0  0  0  0  0  0  0  0  0  0  0
   20.2997   -9.5403  -15.7057 C   0  0  0  0  0  0  0  0  0  0  0  0
   19.3283   -8.5174  -15.1757 C   0  0  2  0  0  0  0  0  0  0  0  0
   17.9901   -8.7120  -15.6284 N   0  0  0  0  0  0  0  0  0  0  0  0
   19.8425   -7.1478  -15.4763 C   0  0  0  0  0  0  0  0  0  0  0  0
   19.9279   -6.6804  -16.6309 O   0  0  0  0  0  0  0  0  0  0  0  0
   18.6823   -3.9222  -14.9118 C   0  0  0  0  0  0  0  0  0  0  0  0
   19.8968   -4.0018  -14.0386 C   0  0  1  0  0  0  0  0  0  0  0  0
   19.5191   -4.3460  -12.7259 O   0  0  0  0  0  0  0  0  0  0  0  0
   20.8866   -5.0412  -14.5708 C   0  0  2  0  0  0  0  0  0  0  0  0
   20.2576   -6.3300  -14.3901 N   0  0  0  0  0  0  0  0  0  0  0  0
   22.0833   -4.9970  -13.6924 C   0  0  0  0  0  0  0  0  0  0  0  0
   22.8306   -3.9870  -13.6401 O   0  0  0  0  0  0  0  0  0  0  0  0
   22.4496   -6.0713  -12.8738 O   0  0  0  0  0  0  0  0  0  0  0  0
  1  2  1  0
  2  3  1  0
  3  5  1  0
  3  4  1  1
  5  6  2  0
  7  8  1  0
  8  9  2  0
  8 10  1  0
 10 11  1  0
 12 11  1  6
 12 14  1  0
 13  5  1  0
 13 12  1  0
 14 20  1  0
 15 14  2  0
 17 18  1  0
 17 16  1  6
 19 17  1  0
 19 20  1  1
 21 23  1  0
 21 19  1  0
 22 21  2  0
M  END
$$$$
