SQT.pdb
     RDKit          3D

 23 22  0  0  1  0  0  0  0  0999 V2000
   20.8633  -13.7990  -16.2312 O   0  0  0  0  0  0  0  0  0  0  0  0
   19.8168  -12.9360  -16.5470 C   0  0  0  0  0  0  0  0  0  0  0  0
   18.5809  -13.4022  -15.8107 C   0  0  2  0  0  0  0  0  0  0  0  0
   17.9377  -14.5087  -16.4504 N   0  0  0  0  0  0  0  0  0  0  0  0
   17.6159  -12.2850  -15.6712 C   0  0  0  0  0  0  0  0  0  0  0  0
   17.0848  -11.7993  -16.6936 O   0  0  0  0  0  0  0  0  0  0  0  0
   13.3259  -11.3339  -11.5313 N   0  0  0  0  0  0  0  0  0  0  0  0
   13.1527  -10.1829  -12.3297 C   0  0  0  0  0  0  0  0  0  0  0  0
   12.1302   -9.4869  -12.2173 O   0  0  0  0  0  0  0  0  0  0  0  0
   14.1968   -9.8141  -13.2987 C   0  0  0  0  0  0  0  0  0  0  0  0
   15.2209  -10.8896  -13.3302 C   0  0  0  0  0  0  0  0  0  0  0  0
   16.3386  -10.6525  -14.3128 C   0  0  2  0  0  0  0  0  0  0  0  0
   17.2642  -11.7341  -14.3970 N   0  0  0  0  0  0  0  0  0  0  0  0
   17.0025   -9.3519  -13.9993 C   0  0  0  0  0  0  0  0  0  0  0  0
   17.8076   -9.1971  -13.0576 O   0  0  0  0  0  0  0  0  0  0  0  0
   19.0600   -7.0320  -16.2974 C   0  0  0  0  0  0  0  0  0  0  0  0
   17.7494   -6.4035  -15.9348 C   0  0  1  0  0  0  0  0  0  0  0  0
   16.7895   -6.6978  -16.9228 O   0  0  0  0  0  0  0  0  0  0  0  0
   17.2546   -6.9129  -14.5788 C   0  0  2  0  0  0  0  0  0  0  0  0
   16.7030   -8.2278  -14.8163 N   0  0  0  0  0  0  0  0  0  0  0  0
   16.1401   -6.0263  -14.1576 C   0  0  0  0  0  0  0  0  0  0  0  0
   14.9409   -6.4025  -14.2007 O   0  0  0  0  0  0  0  0  0  0  0  0
   16.3559   -4.7253  -13.6897 O   0  0  0  0  0  0  0  0  0  0  0  0
  1  2  1  0
  2  3  1  0
  3  5  1  0
  3  4  1  6
  5  6  2  0
  7  8  1  0
  8  9  2  0
  8 10  1  0
 10 11  1  0
 12 11  1  1
 12 14  1  0
 13  5  1  0
 13 12  1  0
 14 20  1  0
 15 14  2  0
 17 18  1  0
 17 16  1  6
 19 17  1  0
 19 20  1  6
 21 23  1  0
 21 19  1  0
 22 21  2  0
M  END
$$$$
