SQT.pdb
     RDKit          3D

 23 22  0  0  1  0  0  0  0  0999 V2000
   27.2211  -18.8111  -17.3504 O   0  0  0  0  0  0  0  0  0  0  0  0
   26.8657  -20.1507  -17.2133 C   0  0  0  0  0  0  0  0  0  0  0  0
   27.4857  -20.6763  -15.9381 C   0  0  2  0  0  0  0  0  0  0  0  0
   28.2988  -21.8340  -16.1520 N   0  0  0  0  0  0  0  0  0  0  0  0
   26.4288  -20.9928  -14.9474 C   0  0  0  0  0  0  0  0  0  0  0  0
   25.8072  -22.0742  -15.0350 O   0  0  0  0  0  0  0  0  0  0  0  0
   24.0829  -21.1340   -9.6669 N   0  0  0  0  0  0  0  0  0  0  0  0
   25.4919  -21.0810   -9.7293 C   0  0  0  0  0  0  0  0  0  0  0  0
   26.1824  -21.6981   -8.9015 O   0  0  0  0  0  0  0  0  0  0  0  0
   26.1371  -20.2861  -10.7862 C   0  0  0  0  0  0  0  0  0  0  0  0
   25.0850  -19.7260  -11.6726 C   0  0  0  0  0  0  0  0  0  0  0  0
   24.9903  -20.3931  -13.0204 C   0  0  2  0  0  0  0  0  0  0  0  0
   26.0880  -20.0987  -13.8820 N   0  0  0  0  0  0  0  0  0  0  0  0
   23.6710  -20.0673  -13.6399 C   0  0  0  0  0  0  0  0  0  0  0  0
   23.4522  -19.0237  -14.2895 O   0  0  0  0  0  0  0  0  0  0  0  0
   19.5449  -21.9953  -15.3457 C   0  0  0  0  0  0  0  0  0  0  0  0
   20.9679  -22.0177  -14.8780 C   0  0  1  0  0  0  0  0  0  0  0  0
   21.8343  -22.0640  -15.9876 O   0  0  0  0  0  0  0  0  0  0  0  0
   21.2870  -20.7796  -14.0362 C   0  0  2  0  0  0  0  0  0  0  0  0
   22.6049  -20.9944  -13.4826 N   0  0  0  0  0  0  0  0  0  0  0  0
   20.3225  -20.7566  -12.9072 C   0  0  0  0  0  0  0  0  0  0  0  0
   20.5375  -21.3834  -11.8385 O   0  0  0  0  0  0  0  0  0  0  0  0
   19.1220  -20.0396  -12.9642 O   0  0  0  0  0  0  0  0  0  0  0  0
  1  2  1  0
  2  3  1  0
  3  5  1  0
  3  4  1  6
  5  6  2  0
  7  8  1  0
  8  9  2  0
  8 10  1  0
 10 11  1  0
 12 11  1  1
 12 14  1  0
 13  5  1  0
 13 12  1  0
 14 20  1  0
 15 14  2  0
 17 18  1  0
 17 16  1  6
 19 17  1  0
 19 20  1  1
 21 23  1  0
 21 19  1  0
 22 21  2  0
M  END
$$$$
