SQT.pdb
     RDKit          3D

 23 22  0  0  1  0  0  0  0  0999 V2000
   14.9485  -11.1491  -16.2102 O   0  0  0  0  0  0  0  0  0  0  0  0
   15.2789  -10.7463  -14.9186 C   0  0  0  0  0  0  0  0  0  0  0  0
   16.7844  -10.6367  -14.8281 C   0  0  2  0  0  0  0  0  0  0  0  0
   17.4343  -11.9114  -14.8141 N   0  0  0  0  0  0  0  0  0  0  0  0
   17.1705   -9.8737  -13.6166 C   0  0  0  0  0  0  0  0  0  0  0  0
   17.2592  -10.4658  -12.5189 O   0  0  0  0  0  0  0  0  0  0  0  0
   21.3165   -5.4923  -12.9901 N   0  0  0  0  0  0  0  0  0  0  0  0
   21.4817   -6.8699  -13.2492 C   0  0  0  0  0  0  0  0  0  0  0  0
   22.5961   -7.3232  -13.5579 O   0  0  0  0  0  0  0  0  0  0  0  0
   20.3190   -7.7664  -13.1501 C   0  0  0  0  0  0  0  0  0  0  0  0
   19.1456   -6.9785  -12.6932 C   0  0  0  0  0  0  0  0  0  0  0  0
   17.8962   -7.7938  -12.4812 C   0  0  2  0  0  0  0  0  0  0  0  0
   17.4489   -8.4696  -13.6547 N   0  0  0  0  0  0  0  0  0  0  0  0
   16.8388   -6.9275  -11.8796 C   0  0  0  0  0  0  0  0  0  0  0  0
   16.1578   -6.1125  -12.5361 O   0  0  0  0  0  0  0  0  0  0  0  0
   13.7575   -7.7931   -9.8100 C   0  0  0  0  0  0  0  0  0  0  0  0
   14.7732   -7.1083   -8.9478 C   0  0  1  0  0  0  0  0  0  0  0  0
   15.5760   -8.0685   -8.3016 O   0  0  0  0  0  0  0  0  0  0  0  0
   15.6622   -6.1810   -9.7804 C   0  0  2  0  0  0  0  0  0  0  0  0
   16.5926   -7.0351  -10.4836 N   0  0  0  0  0  0  0  0  0  0  0  0
   16.4436   -5.3515   -8.8282 C   0  0  0  0  0  0  0  0  0  0  0  0
   17.6751   -5.5309   -8.6483 O   0  0  0  0  0  0  0  0  0  0  0  0
   15.8596   -4.3251   -8.0773 O   0  0  0  0  0  0  0  0  0  0  0  0
  1  2  1  0
  2  3  1  0
  3  5  1  0
  3  4  1  1
  5  6  2  0
  7  8  1  0
  8  9  2  0
  8 10  1  0
 10 11  1  0
 12 11  1  6
 12 14  1  0
 13  5  1  0
 13 12  1  0
 14 20  1  0
 15 14  2  0
 17 18  1  0
 17 16  1  6
 19 17  1  0
 19 20  1  1
 21 23  1  0
 21 19  1  0
 22 21  2  0
M  END
$$$$
