SQT.pdb
     RDKit          3D

 23 22  0  0  1  0  0  0  0  0999 V2000
   14.8149  -10.4544  -13.9289 O   0  0  0  0  0  0  0  0  0  0  0  0
   15.4241   -9.9161  -15.0596 C   0  0  0  0  0  0  0  0  0  0  0  0
   16.5165  -10.8627  -15.5040 C   0  0  2  0  0  0  0  0  0  0  0  0
   16.6297  -12.0143  -14.6625 N   0  0  0  0  0  0  0  0  0  0  0  0
   17.8193  -10.1560  -15.5496 C   0  0  0  0  0  0  0  0  0  0  0  0
   18.6356  -10.3094  -14.6150 O   0  0  0  0  0  0  0  0  0  0  0  0
   21.0772   -8.2704  -20.4298 N   0  0  0  0  0  0  0  0  0  0  0  0
   21.8678   -7.7356  -19.3900 C   0  0  0  0  0  0  0  0  0  0  0  0
   22.9503   -7.1818  -19.6433 O   0  0  0  0  0  0  0  0  0  0  0  0
   21.3970   -7.8405  -17.9999 C   0  0  0  0  0  0  0  0  0  0  0  0
   20.0543   -8.4757  -17.9966 C   0  0  0  0  0  0  0  0  0  0  0  0
   19.4423   -8.6246  -16.6276 C   0  0  2  0  0  0  0  0  0  0  0  0
   18.1837   -9.2950  -16.6343 N   0  0  0  0  0  0  0  0  0  0  0  0
   19.3759   -7.2855  -15.9694 C   0  0  0  0  0  0  0  0  0  0  0  0
   18.4335   -6.4827  -16.1312 O   0  0  0  0  0  0  0  0  0  0  0  0
   22.4193   -6.6562  -13.2180 C   0  0  0  0  0  0  0  0  0  0  0  0
   21.1184   -5.9343  -13.0426 C   0  0  1  0  0  0  0  0  0  0  0  0
   21.3342   -4.7210  -12.3605 O   0  0  0  0  0  0  0  0  0  0  0  0
   20.4652   -5.6461  -14.3966 C   0  0  2  0  0  0  0  0  0  0  0  0
   20.4426   -6.9023  -15.1115 N   0  0  0  0  0  0  0  0  0  0  0  0
   21.3691   -4.7255  -15.1322 C   0  0  0  0  0  0  0  0  0  0  0  0
   22.1292   -5.1332  -16.0473 O   0  0  0  0  0  0  0  0  0  0  0  0
   21.4293   -3.3556  -14.8529 O   0  0  0  0  0  0  0  0  0  0  0  0
  1  2  1  0
  2  3  1  0
  3  5  1  0
  3  4  1  1
  5  6  2  0
  7  8  1  0
  8  9  2  0
  8 10  1  0
 10 11  1  0
 12 11  1  6
 12 14  1  0
 13  5  1  0
 13 12  1  0
 14 20  1  0
 15 14  2  0
 17 18  1  0
 17 16  1  6
 19 17  1  0
 19 20  1  6
 21 23  1  0
 21 19  1  0
 22 21  2  0
M  END
$$$$
