SQT.pdb
     RDKit          3D

 23 22  0  0  1  0  0  0  0  0999 V2000
   20.6259  -12.4417  -15.9114 O   0  0  0  0  0  0  0  0  0  0  0  0
   20.3410  -11.0891  -16.0816 C   0  0  0  0  0  0  0  0  0  0  0  0
   19.1793  -10.7337  -15.1811 C   0  0  2  0  0  0  0  0  0  0  0  0
   17.9134  -11.1051  -15.7350 N   0  0  0  0  0  0  0  0  0  0  0  0
   19.1824   -9.2795  -14.8910 C   0  0  0  0  0  0  0  0  0  0  0  0
   18.7098   -8.4834  -15.7313 O   0  0  0  0  0  0  0  0  0  0  0  0
   18.1647   -6.5422   -9.6534 N   0  0  0  0  0  0  0  0  0  0  0  0
   17.1983   -6.9046  -10.6161 C   0  0  0  0  0  0  0  0  0  0  0  0
   16.0026   -7.0133  -10.2979 O   0  0  0  0  0  0  0  0  0  0  0  0
   17.6211   -7.1532  -12.0034 C   0  0  0  0  0  0  0  0  0  0  0  0
   19.0920   -6.9685  -12.0952 C   0  0  0  0  0  0  0  0  0  0  0  0
   19.6811   -7.3395  -13.4317 C   0  0  2  0  0  0  0  0  0  0  0  0
   19.7113   -8.7448  -13.6724 N   0  0  0  0  0  0  0  0  0  0  0  0
   21.0256   -6.7043  -13.5708 C   0  0  0  0  0  0  0  0  0  0  0  0
   22.0621   -7.1594  -13.0439 O   0  0  0  0  0  0  0  0  0  0  0  0
   22.9308   -6.0683  -16.6314 C   0  0  0  0  0  0  0  0  0  0  0  0
   22.5897   -4.7276  -16.0569 C   0  0  1  0  0  0  0  0  0  0  0  0
   21.4162   -4.2345  -16.6602 O   0  0  0  0  0  0  0  0  0  0  0  0
   22.3828   -4.8172  -14.5429 C   0  0  2  0  0  0  0  0  0  0  0  0
   21.1335   -5.5170  -14.3450 N   0  0  0  0  0  0  0  0  0  0  0  0
   22.2065   -3.4304  -14.0417 C   0  0  0  0  0  0  0  0  0  0  0  0
   23.1658   -2.6195  -13.9830 O   0  0  0  0  0  0  0  0  0  0  0  0
   20.9683   -2.9446  -13.6066 O   0  0  0  0  0  0  0  0  0  0  0  0
  1  2  1  0
  2  3  1  0
  3  5  1  0
  3  4  1  6
  5  6  2  0
  7  8  1  0
  8  9  2  0
  8 10  1  0
 10 11  1  0
 12 11  1  1
 12 14  1  0
 13  5  1  0
 13 12  1  0
 14 20  1  0
 15 14  2  0
 17 18  1  0
 17 16  1  6
 19 17  1  0
 19 20  1  6
 21 23  1  0
 21 19  1  0
 22 21  2  0
M  END
$$$$
