HIT.pdb
     RDKit          3D

 26 26  0  0  1  0  0  0  0  0999 V2000
   37.9436  -26.1391    3.6118 N   0  0  0  0  0  0  0  0  0  0  0  0
   36.6758  -26.2055    4.2740 C   0  0  1  0  0  0  0  0  0  0  0  0
   36.6665  -27.4295    5.1666 C   0  0  0  0  0  0  0  0  0  0  0  0
   36.4376  -28.6225    4.3107 C   0  0  0  0  0  0  0  0  0  0  0  0
   36.2761  -28.7054    2.9473 C   0  0  0  0  0  0  0  0  0  0  0  0
   36.0926  -29.9809    2.5804 N   0  0  0  0  0  0  0  0  0  0  0  0
   36.1339  -30.7284    3.6988 C   0  0  0  0  0  0  0  0  0  0  0  0
   36.3438  -29.9051    4.7551 N   0  0  0  0  0  0  0  0  0  0  0  0
   36.3736  -24.9698    5.0261 C   0  0  0  0  0  0  0  0  0  0  0  0
   37.3757  -24.3227    5.4788 O   0  0  0  0  0  0  0  0  0  0  0  0
   31.7487  -21.9915    3.8363 C   0  0  0  0  0  0  0  0  0  0  0  0
   33.1299  -22.3816    4.1611 C   0  0  0  0  0  0  0  0  0  0  0  0
   33.4408  -22.7415    5.5832 C   0  0  2  0  0  0  0  0  0  0  0  0
   33.2324  -21.4461    6.3547 C   0  0  0  0  0  0  0  0  0  0  0  0
   34.8524  -23.2048    5.8312 C   0  0  2  0  0  0  0  0  0  0  0  0
   35.0643  -24.5252    5.2357 N   0  0  0  0  0  0  0  0  0  0  0  0
   34.9890  -23.4575    7.3025 C   0  0  0  0  0  0  0  0  0  0  0  0
   34.2969  -24.4003    7.8425 O   0  0  0  0  0  0  0  0  0  0  0  0
   37.5162  -23.5802   11.4808 C   0  0  0  0  0  0  0  0  0  0  0  0
   37.4062  -23.3202    9.9981 C   0  0  1  0  0  0  0  0  0  0  0  0
   37.9713  -24.3805    9.3199 O   0  0  0  0  0  0  0  0  0  0  0  0
   36.0082  -23.0161    9.5741 C   0  0  2  0  0  0  0  0  0  0  0  0
   35.8388  -22.7341    8.1745 N   0  0  0  0  0  0  0  0  0  0  0  0
   35.3284  -22.0272   10.4710 C   0  0  0  0  0  0  0  0  0  0  0  0
   34.4592  -22.4354   11.4481 O   0  0  0  0  0  0  0  0  0  0  0  0
   35.5391  -20.7941   10.3534 O   0  0  0  0  0  0  0  0  0  0  0  0
  2  1  1  1
  3  2  1  0
  4  3  1  0
  5  4  2  0
  6  5  1  0
  7  6  1  0
  7  8  2  0
  8  4  1  0
  9  2  1  0
  9 16  1  0
 10  9  2  0
 12 11  1  0
 13 14  1  1
 13 12  1  0
 15 13  1  0
 15 16  1  6
 17 15  1  0
 18 17  2  0
 20 19  1  1
 20 21  1  0
 20 22  1  0
 22 23  1  6
 23 17  1  0
 24 22  1  0
 24 25  1  0
 26 24  2  0
M  END
$$$$
