HIT.pdb
     RDKit          3D

 26 26  0  0  1  0  0  0  0  0999 V2000
   18.3968  -13.1787  -16.1900 N   0  0  0  0  0  0  0  0  0  0  0  0
   18.6967  -11.8238  -16.5431 C   0  0  1  0  0  0  0  0  0  0  0  0
   17.3985  -11.0447  -16.5932 C   0  0  0  0  0  0  0  0  0  0  0  0
   16.5688  -11.6015  -17.6930 C   0  0  0  0  0  0  0  0  0  0  0  0
   15.3765  -12.2846  -17.6322 C   0  0  0  0  0  0  0  0  0  0  0  0
   14.9664  -12.6090  -18.8658 N   0  0  0  0  0  0  0  0  0  0  0  0
   15.8861  -12.1401  -19.7292 C   0  0  0  0  0  0  0  0  0  0  0  0
   16.8640  -11.5256  -19.0191 N   0  0  0  0  0  0  0  0  0  0  0  0
   19.6751  -11.2103  -15.6211 C   0  0  0  0  0  0  0  0  0  0  0  0
   19.4328  -11.3324  -14.3744 O   0  0  0  0  0  0  0  0  0  0  0  0
   24.6956  -12.4435  -15.5481 C   0  0  0  0  0  0  0  0  0  0  0  0
   23.3781  -11.9007  -15.1810 C   0  0  0  0  0  0  0  0  0  0  0  0
   23.1422  -10.4340  -15.3861 C   0  0  2  0  0  0  0  0  0  0  0  0
   24.0712   -9.7589  -14.3871 C   0  0  0  0  0  0  0  0  0  0  0  0
   21.7391   -9.9664  -15.1011 C   0  0  2  0  0  0  0  0  0  0  0  0
   20.8082  -10.5309  -16.0798 N   0  0  0  0  0  0  0  0  0  0  0  0
   21.6920   -8.4944  -15.3805 C   0  0  0  0  0  0  0  0  0  0  0  0
   21.9339   -8.0760  -16.5747 O   0  0  0  0  0  0  0  0  0  0  0  0
   19.9935   -4.0206  -15.0689 C   0  0  0  0  0  0  0  0  0  0  0  0
   19.9825   -5.4767  -14.6718 C   0  0  1  0  0  0  0  0  0  0  0  0
   19.0656   -6.1430  -15.4586 O   0  0  0  0  0  0  0  0  0  0  0  0
   21.3448   -6.0851  -14.6958 C   0  0  2  0  0  0  0  0  0  0  0  0
   21.3920   -7.4958  -14.4220 N   0  0  0  0  0  0  0  0  0  0  0  0
   22.3525   -5.2907  -13.9224 C   0  0  0  0  0  0  0  0  0  0  0  0
   23.2121   -4.4295  -14.5518 O   0  0  0  0  0  0  0  0  0  0  0  0
   22.4353   -5.3906  -12.6727 O   0  0  0  0  0  0  0  0  0  0  0  0
  2  1  1  1
  3  2  1  0
  4  3  1  0
  5  4  2  0
  6  5  1  0
  7  6  1  0
  7  8  2  0
  8  4  1  0
  9  2  1  0
  9 16  1  0
 10  9  2  0
 12 11  1  0
 13 14  1  1
 13 12  1  0
 15 13  1  0
 15 16  1  6
 17 15  1  0
 18 17  2  0
 20 19  1  6
 20 21  1  0
 20 22  1  0
 22 23  1  1
 23 17  1  0
 24 22  1  0
 24 25  1  0
 26 24  2  0
M  END
$$$$
