HIT.pdb
     RDKit          3D

 26 26  0  0  1  0  0  0  0  0999 V2000
   19.7270  -12.9913  -17.7893 N   0  0  0  0  0  0  0  0  0  0  0  0
   20.2035  -11.6650  -18.0425 C   0  0  1  0  0  0  0  0  0  0  0  0
   19.0494  -10.8339  -18.5640 C   0  0  0  0  0  0  0  0  0  0  0  0
   18.6495  -11.3790  -19.8873 C   0  0  0  0  0  0  0  0  0  0  0  0
   19.1073  -11.0555  -21.1434 C   0  0  0  0  0  0  0  0  0  0  0  0
   18.4757  -11.7903  -22.0687 N   0  0  0  0  0  0  0  0  0  0  0  0
   17.6090  -12.5904  -21.4208 C   0  0  0  0  0  0  0  0  0  0  0  0
   17.7116  -12.3432  -20.0918 N   0  0  0  0  0  0  0  0  0  0  0  0
   20.8270  -11.0585  -16.8479 C   0  0  0  0  0  0  0  0  0  0  0  0
   20.3625  -11.4262  -15.7179 O   0  0  0  0  0  0  0  0  0  0  0  0
   26.1413  -10.0472  -14.3782 C   0  0  0  0  0  0  0  0  0  0  0  0
   24.7330   -9.6341  -14.4836 C   0  0  0  0  0  0  0  0  0  0  0  0
   23.9651  -10.0643  -15.6977 C   0  0  2  0  0  0  0  0  0  0  0  0
   24.6547   -9.3518  -16.8526 C   0  0  0  0  0  0  0  0  0  0  0  0
   22.5128   -9.6652  -15.7100 C   0  0  2  0  0  0  0  0  0  0  0  0
   21.8697  -10.1310  -16.9399 N   0  0  0  0  0  0  0  0  0  0  0  0
   22.4594   -8.1720  -15.8300 C   0  0  0  0  0  0  0  0  0  0  0  0
   23.0506   -7.6024  -16.8228 O   0  0  0  0  0  0  0  0  0  0  0  0
   20.2825   -5.9017  -17.0836 C   0  0  0  0  0  0  0  0  0  0  0  0
   20.4955   -5.3472  -15.6961 C   0  0  1  0  0  0  0  0  0  0  0  0
   19.3522   -5.5607  -14.9539 O   0  0  0  0  0  0  0  0  0  0  0  0
   21.7333   -5.8778  -15.0533 C   0  0  2  0  0  0  0  0  0  0  0  0
   21.7939   -7.3086  -14.9258 N   0  0  0  0  0  0  0  0  0  0  0  0
   22.0965   -5.1484  -13.7960 C   0  0  0  0  0  0  0  0  0  0  0  0
   22.0518   -5.7705  -12.5762 O   0  0  0  0  0  0  0  0  0  0  0  0
   22.4553   -3.9447  -13.8259 O   0  0  0  0  0  0  0  0  0  0  0  0
  2  1  1  1
  3  2  1  0
  4  3  1  0
  5  4  2  0
  6  5  1  0
  7  6  1  0
  7  8  2  0
  8  4  1  0
  9  2  1  0
  9 16  1  0
 10  9  2  0
 12 11  1  0
 13 14  1  6
 13 12  1  0
 15 13  1  0
 15 16  1  6
 17 15  1  0
 18 17  2  0
 20 19  1  6
 20 21  1  0
 20 22  1  0
 22 23  1  1
 23 17  1  0
 24 22  1  0
 24 25  1  0
 26 24  2  0
M  END
$$$$
