HIT.pdb
     RDKit          3D

 26 26  0  0  1  0  0  0  0  0999 V2000
   20.4762  -16.6475  -15.1342 N   0  0  0  0  0  0  0  0  0  0  0  0
   20.4410  -15.4268  -15.8818 C   0  0  1  0  0  0  0  0  0  0  0  0
   18.9986  -15.1206  -16.2291 C   0  0  0  0  0  0  0  0  0  0  0  0
   18.5004  -16.1989  -17.1219 C   0  0  0  0  0  0  0  0  0  0  0  0
   17.7087  -17.2846  -16.8281 C   0  0  0  0  0  0  0  0  0  0  0  0
   17.4944  -18.0125  -17.9323 N   0  0  0  0  0  0  0  0  0  0  0  0
   18.1428  -17.4055  -18.9434 C   0  0  0  0  0  0  0  0  0  0  0  0
   18.7570  -16.3004  -18.4543 N   0  0  0  0  0  0  0  0  0  0  0  0
   21.0851  -14.3106  -15.1585 C   0  0  0  0  0  0  0  0  0  0  0  0
   20.8143  -14.2094  -13.9158 O   0  0  0  0  0  0  0  0  0  0  0  0
   26.2429  -13.8079  -15.1864 C   0  0  0  0  0  0  0  0  0  0  0  0
   24.8249  -13.6618  -14.8218 C   0  0  0  0  0  0  0  0  0  0  0  0
   24.1107  -12.4207  -15.2670 C   0  0  2  0  0  0  0  0  0  0  0  0
   24.7568  -11.3033  -14.4602 C   0  0  0  0  0  0  0  0  0  0  0  0
   22.6314  -12.3984  -14.9845 C   0  0  2  0  0  0  0  0  0  0  0  0
   21.9460  -13.4089  -15.7922 N   0  0  0  0  0  0  0  0  0  0  0  0
   22.0937  -11.1029  -15.5133 C   0  0  0  0  0  0  0  0  0  0  0  0
   22.2528  -10.8217  -16.7604 O   0  0  0  0  0  0  0  0  0  0  0  0
   18.6622   -9.8807  -15.8621 C   0  0  0  0  0  0  0  0  0  0  0  0
   19.3938   -8.7559  -15.1712 C   0  0  1  0  0  0  0  0  0  0  0  0
   18.9232   -8.6499  -13.8786 O   0  0  0  0  0  0  0  0  0  0  0  0
   20.8764   -8.9014  -15.2575 C   0  0  2  0  0  0  0  0  0  0  0  0
   21.4031  -10.1361  -14.7424 N   0  0  0  0  0  0  0  0  0  0  0  0
   21.6110   -7.6886  -14.7736 C   0  0  0  0  0  0  0  0  0  0  0  0
   21.4620   -6.4749  -15.3913 O   0  0  0  0  0  0  0  0  0  0  0  0
   22.3833   -7.7507  -13.7844 O   0  0  0  0  0  0  0  0  0  0  0  0
  2  1  1  1
  3  2  1  0
  4  3  1  0
  5  4  2  0
  6  5  1  0
  7  6  1  0
  7  8  2  0
  8  4  1  0
  9  2  1  0
  9 16  1  0
 10  9  2  0
 12 11  1  0
 13 14  1  1
 13 12  1  0
 15 13  1  0
 15 16  1  6
 17 15  1  0
 18 17  2  0
 20 19  1  1
 20 21  1  0
 20 22  1  0
 22 23  1  1
 23 17  1  0
 24 22  1  0
 24 25  1  0
 26 24  2  0
M  END
$$$$
