HIT.pdb
     RDKit          3D

 26 26  0  0  1  0  0  0  0  0999 V2000
   28.1662  -21.1057  -15.7042 N   0  0  0  0  0  0  0  0  0  0  0  0
   27.3245  -20.1379  -15.0677 C   0  0  1  0  0  0  0  0  0  0  0  0
   26.7241  -19.2494  -16.1377 C   0  0  0  0  0  0  0  0  0  0  0  0
   27.8198  -18.4432  -16.7358 C   0  0  0  0  0  0  0  0  0  0  0  0
   28.5592  -17.4229  -16.1843 C   0  0  0  0  0  0  0  0  0  0  0  0
   29.4517  -16.9663  -17.0731 N   0  0  0  0  0  0  0  0  0  0  0  0
   29.2966  -17.6847  -18.2005 C   0  0  0  0  0  0  0  0  0  0  0  0
   28.3036  -18.5855  -17.9996 N   0  0  0  0  0  0  0  0  0  0  0  0
   26.2868  -20.7686  -14.2256 C   0  0  0  0  0  0  0  0  0  0  0  0
   25.6924  -21.7821  -14.7228 O   0  0  0  0  0  0  0  0  0  0  0  0
   26.5586  -20.4239   -8.6529 C   0  0  0  0  0  0  0  0  0  0  0  0
   26.3107  -20.9994   -9.9843 C   0  0  0  0  0  0  0  0  0  0  0  0
   25.0646  -20.5831  -10.7071 C   0  0  2  0  0  0  0  0  0  0  0  0
   23.9397  -21.2727   -9.9483 C   0  0  0  0  0  0  0  0  0  0  0  0
   24.9852  -21.0185  -12.1468 C   0  0  2  0  0  0  0  0  0  0  0  0
   25.9662  -20.2884  -12.9518 N   0  0  0  0  0  0  0  0  0  0  0  0
   23.6683  -20.5465  -12.6856 C   0  0  0  0  0  0  0  0  0  0  0  0
   23.4121  -19.2840  -12.6948 O   0  0  0  0  0  0  0  0  0  0  0  0
   19.5523  -21.0857  -15.3821 C   0  0  0  0  0  0  0  0  0  0  0  0
   20.9015  -21.5966  -14.9388 C   0  0  1  0  0  0  0  0  0  0  0  0
   21.7836  -21.4901  -15.9942 O   0  0  0  0  0  0  0  0  0  0  0  0
   21.3805  -20.9344  -13.6903 C   0  0  2  0  0  0  0  0  0  0  0  0
   22.6549  -21.3891  -13.2042 N   0  0  0  0  0  0  0  0  0  0  0  0
   20.3264  -20.8593  -12.6282 C   0  0  0  0  0  0  0  0  0  0  0  0
   20.1819  -21.8562  -11.6997 O   0  0  0  0  0  0  0  0  0  0  0  0
   19.5462  -19.8769  -12.5581 O   0  0  0  0  0  0  0  0  0  0  0  0
  2  1  1  6
  3  2  1  0
  4  3  1  0
  5  4  2  0
  6  5  1  0
  7  6  1  0
  7  8  2  0
  8  4  1  0
  9  2  1  0
  9 16  1  0
 10  9  2  0
 12 11  1  0
 13 14  1  1
 13 12  1  0
 15 13  1  0
 15 16  1  6
 17 15  1  0
 18 17  2  0
 20 19  1  6
 20 21  1  0
 20 22  1  0
 22 23  1  1
 23 17  1  0
 24 22  1  0
 24 25  1  0
 26 24  2  0
M  END
$$$$
