HIT.pdb
     RDKit          3D

 26 26  0  0  1  0  0  0  0  0999 V2000
   19.8776  -20.7489  -12.0969 N   0  0  0  0  0  0  0  0  0  0  0  0
   20.7583  -21.4129  -13.0101 C   0  0  1  0  0  0  0  0  0  0  0  0
   20.0457  -21.5612  -14.3386 C   0  0  0  0  0  0  0  0  0  0  0  0
   18.9073  -22.4973  -14.1493 C   0  0  0  0  0  0  0  0  0  0  0  0
   17.5767  -22.2266  -13.9300 C   0  0  0  0  0  0  0  0  0  0  0  0
   16.8857  -23.3686  -13.8143 N   0  0  0  0  0  0  0  0  0  0  0  0
   17.7604  -24.3814  -13.9573 C   0  0  0  0  0  0  0  0  0  0  0  0
   18.9930  -23.8552  -14.1616 N   0  0  0  0  0  0  0  0  0  0  0  0
   22.0503  -20.7096  -13.1505 C   0  0  0  0  0  0  0  0  0  0  0  0
   22.0040  -19.4346  -13.1536 O   0  0  0  0  0  0  0  0  0  0  0  0
   25.9960  -21.1740   -9.8030 C   0  0  0  0  0  0  0  0  0  0  0  0
   25.0910  -20.7508  -10.8832 C   0  0  0  0  0  0  0  0  0  0  0  0
   25.4732  -21.0927  -12.2924 C   0  0  2  0  0  0  0  0  0  0  0  0
   26.7924  -20.3661  -12.5127 C   0  0  0  0  0  0  0  0  0  0  0  0
   24.5062  -20.6250  -13.3482 C   0  0  2  0  0  0  0  0  0  0  0  0
   23.2633  -21.3948  -13.2738 N   0  0  0  0  0  0  0  0  0  0  0  0
   25.0772  -21.0085  -14.6802 C   0  0  0  0  0  0  0  0  0  0  0  0
   24.8414  -22.1860  -15.1465 O   0  0  0  0  0  0  0  0  0  0  0  0
   23.6572  -19.0021  -17.1339 C   0  0  0  0  0  0  0  0  0  0  0  0
   24.4998  -20.1809  -17.5563 C   0  0  1  0  0  0  0  0  0  0  0  0
   24.5253  -20.2352  -18.9347 O   0  0  0  0  0  0  0  0  0  0  0  0
   25.8558  -20.1656  -16.9335 C   0  0  2  0  0  0  0  0  0  0  0  0
   25.8710  -20.1655  -15.4957 N   0  0  0  0  0  0  0  0  0  0  0  0
   26.7661  -19.1432  -17.5422 C   0  0  0  0  0  0  0  0  0  0  0  0
   27.1828  -18.0497  -16.8299 O   0  0  0  0  0  0  0  0  0  0  0  0
   27.1754  -19.2620  -18.7242 O   0  0  0  0  0  0  0  0  0  0  0  0
  2  1  1  1
  3  2  1  0
  4  3  1  0
  5  4  2  0
  6  5  1  0
  7  6  1  0
  7  8  2  0
  8  4  1  0
  9  2  1  0
  9 16  1  0
 10  9  2  0
 12 11  1  0
 13 14  1  6
 13 12  1  0
 15 13  1  0
 15 16  1  1
 17 15  1  0
 18 17  2  0
 20 19  1  6
 20 21  1  0
 20 22  1  0
 22 23  1  1
 23 17  1  0
 24 22  1  0
 24 25  1  0
 26 24  2  0
M  END
$$$$
