ESP.pdb
     RDKit          3D

 23 23  0  0  1  0  0  0  0  0999 V2000
   10.5854  -13.7319   18.5384 N   0  0  0  0  0  0  0  0  0  0  0  0
   10.4748  -14.5884   19.6933 C   0  0  1  0  0  0  0  0  0  0  0  0
   11.8389  -14.8870   20.2716 C   0  0  0  0  0  0  0  0  0  0  0  0
   12.8203  -13.9584   19.5876 C   0  0  0  0  0  0  0  0  0  0  0  0
   14.0535  -14.6697   19.1754 C   0  0  0  0  0  0  0  0  0  0  0  0
   14.2542  -14.7859   17.9363 O   0  0  0  0  0  0  0  0  0  0  0  0
    9.5354  -14.0297   20.6879 C   0  0  0  0  0  0  0  0  0  0  0  0
    9.3853  -12.8022   20.8884 O   0  0  0  0  0  0  0  0  0  0  0  0
   14.9744  -15.2008   20.0497 O   0  0  0  0  0  0  0  0  0  0  0  0
    7.0157  -16.7267   22.5690 O   0  0  0  0  0  0  0  0  0  0  0  0
    6.6695  -15.3907   22.5968 C   0  0  0  0  0  0  0  0  0  0  0  0
    7.8863  -14.4751   22.5421 C   0  0  2  0  0  0  0  0  0  0  0  0
    8.7609  -14.9107   21.4589 N   0  0  0  0  0  0  0  0  0  0  0  0
    8.6247  -14.6684   23.8128 C   0  0  0  0  0  0  0  0  0  0  0  0
    9.7975  -15.1608   23.7317 O   0  0  0  0  0  0  0  0  0  0  0  0
    8.1516  -14.3571   25.0997 N   0  0  0  0  0  0  0  0  0  0  0  0
    6.7523  -14.0067   25.3872 C   0  0  0  0  0  0  0  0  0  0  0  0
    6.8790  -12.9494   26.4764 C   0  0  0  0  0  0  0  0  0  0  0  0
    8.2983  -13.0098   26.9723 C   0  0  0  0  0  0  0  0  0  0  0  0
    8.7796  -14.3184   26.3986 C   0  0  1  0  0  0  0  0  0  0  0  0
    8.3101  -15.4089   27.2982 C   0  0  0  0  0  0  0  0  0  0  0  0
    9.0002  -15.6522   28.4600 O   0  0  0  0  0  0  0  0  0  0  0  0
    7.3092  -16.1024   27.0216 O   0  0  0  0  0  0  0  0  0  0  0  0
  2  1  1  6
  2  7  1  0
  3  2  1  0
  4  5  1  0
  4  3  1  0
  5  6  2  0
  7 13  1  0
  7  8  2  0
  9  5  1  0
 10 11  1  0
 12 11  1  1
 13 12  1  0
 14 16  1  0
 14 12  1  0
 15 14  2  0
 16 17  1  0
 17 18  1  0
 19 18  1  0
 20 21  1  1
 20 16  1  0
 20 19  1  0
 21 22  1  0
 23 21  2  0
M  END
$$$$
