ESP.pdb
     RDKit          3D

 23 23  0  0  1  0  0  0  0  0999 V2000
    8.8710  -13.3843   18.5716 N   0  0  0  0  0  0  0  0  0  0  0  0
    9.0274  -14.4832   19.4921 C   0  0  1  0  0  0  0  0  0  0  0  0
   10.4654  -14.9466   19.5340 C   0  0  0  0  0  0  0  0  0  0  0  0
   11.3060  -13.7418   19.9018 C   0  0  0  0  0  0  0  0  0  0  0  0
   12.7434  -14.0870   20.0087 C   0  0  0  0  0  0  0  0  0  0  0  0
   13.2704  -13.9754   21.1484 O   0  0  0  0  0  0  0  0  0  0  0  0
    8.4900  -14.1460   20.8268 C   0  0  0  0  0  0  0  0  0  0  0  0
    8.6057  -13.0170   21.3570 O   0  0  0  0  0  0  0  0  0  0  0  0
   13.5213  -14.5139   18.9565 O   0  0  0  0  0  0  0  0  0  0  0  0
    6.9070  -17.3032   23.0324 O   0  0  0  0  0  0  0  0  0  0  0  0
    6.3230  -16.0686   23.2325 C   0  0  0  0  0  0  0  0  0  0  0  0
    7.2631  -14.9197   22.8888 C   0  0  2  0  0  0  0  0  0  0  0  0
    7.8094  -15.1355   21.5536 N   0  0  0  0  0  0  0  0  0  0  0  0
    8.3925  -14.9899   23.8464 C   0  0  0  0  0  0  0  0  0  0  0  0
    9.5085  -15.4092   23.3956 O   0  0  0  0  0  0  0  0  0  0  0  0
    8.3470  -14.6350   25.2062 N   0  0  0  0  0  0  0  0  0  0  0  0
    7.1237  -14.1831   25.8865 C   0  0  0  0  0  0  0  0  0  0  0  0
    7.6394  -13.1286   26.8573 C   0  0  0  0  0  0  0  0  0  0  0  0
    9.1348  -13.2863   26.9102 C   0  0  0  0  0  0  0  0  0  0  0  0
    9.3355  -14.6306   26.2578 C   0  0  1  0  0  0  0  0  0  0  0  0
    9.0856  -15.6773   27.2877 C   0  0  0  0  0  0  0  0  0  0  0  0
    7.9137  -16.3909   27.2359 O   0  0  0  0  0  0  0  0  0  0  0  0
    9.9126  -15.9194   28.1913 O   0  0  0  0  0  0  0  0  0  0  0  0
  2  1  1  6
  2  7  1  0
  3  2  1  0
  4  5  1  0
  4  3  1  0
  5  6  2  0
  7 13  1  0
  7  8  2  0
  9  5  1  0
 10 11  1  0
 12 11  1  1
 13 12  1  0
 14 16  1  0
 14 12  1  0
 15 14  2  0
 16 17  1  0
 17 18  1  0
 19 18  1  0
 20 21  1  1
 20 16  1  0
 20 19  1  0
 21 22  1  0
 23 21  2  0
M  END
$$$$
