ESP.pdb
     RDKit          3D

 23 23  0  0  1  0  0  0  0  0999 V2000
    9.8127  -18.8045   21.5036 N   0  0  0  0  0  0  0  0  0  0  0  0
   10.4865  -17.5356   21.3807 C   0  0  1  0  0  0  0  0  0  0  0  0
   10.4556  -17.0489   19.9501 C   0  0  0  0  0  0  0  0  0  0  0  0
    8.9981  -16.9272   19.5575 C   0  0  0  0  0  0  0  0  0  0  0  0
    8.7557  -17.4278   18.1837 C   0  0  0  0  0  0  0  0  0  0  0  0
    8.7849  -18.6777   18.0219 O   0  0  0  0  0  0  0  0  0  0  0  0
    9.9488  -16.5473   22.3388 C   0  0  0  0  0  0  0  0  0  0  0  0
   10.3148  -15.3499   22.3802 O   0  0  0  0  0  0  0  0  0  0  0  0
    8.5057  -16.6233   17.0953 O   0  0  0  0  0  0  0  0  0  0  0  0
    7.4324  -17.9698   25.4674 O   0  0  0  0  0  0  0  0  0  0  0  0
    7.2078  -16.7260   24.9127 C   0  0  0  0  0  0  0  0  0  0  0  0
    8.4774  -16.1092   24.3385 C   0  0  2  0  0  0  0  0  0  0  0  0
    8.9729  -16.9578   23.2604 N   0  0  0  0  0  0  0  0  0  0  0  0
    9.4905  -16.1303   25.4204 C   0  0  0  0  0  0  0  0  0  0  0  0
   10.5504  -16.8057   25.2079 O   0  0  0  0  0  0  0  0  0  0  0  0
    9.3913  -15.4727   26.6592 N   0  0  0  0  0  0  0  0  0  0  0  0
    8.1397  -14.8969   27.1744 C   0  0  0  0  0  0  0  0  0  0  0  0
    8.6097  -13.6387   27.8929 C   0  0  0  0  0  0  0  0  0  0  0  0
   10.1034  -13.7547   28.0320 C   0  0  0  0  0  0  0  0  0  0  0  0
   10.3398  -15.2094   27.7147 C   0  0  1  0  0  0  0  0  0  0  0  0
   10.0606  -15.9949   28.9491 C   0  0  0  0  0  0  0  0  0  0  0  0
    8.9307  -16.7736   28.9972 O   0  0  0  0  0  0  0  0  0  0  0  0
   10.8261  -15.9619   29.9351 O   0  0  0  0  0  0  0  0  0  0  0  0
  2  1  1  6
  2  7  1  0
  3  2  1  0
  4  5  1  0
  4  3  1  0
  5  6  2  0
  7 13  1  0
  7  8  2  0
  9  5  1  0
 10 11  1  0
 12 11  1  1
 13 12  1  0
 14 16  1  0
 14 12  1  0
 15 14  2  0
 16 17  1  0
 17 18  1  0
 19 18  1  0
 20 21  1  1
 20 16  1  0
 20 19  1  0
 21 22  1  0
 23 21  2  0
M  END
$$$$
