ESP.pdb
     RDKit          3D

 23 23  0  0  1  0  0  0  0  0999 V2000
    8.4648  -12.7371   19.0712 N   0  0  0  0  0  0  0  0  0  0  0  0
    8.5101  -14.0426   19.6820 C   0  0  1  0  0  0  0  0  0  0  0  0
    9.8827  -14.6572   19.5318 C   0  0  0  0  0  0  0  0  0  0  0  0
   10.8881  -13.5831   19.8911 C   0  0  0  0  0  0  0  0  0  0  0  0
   12.2767  -14.1007   19.8677 C   0  0  0  0  0  0  0  0  0  0  0  0
   13.0073  -13.8098   20.8530 O   0  0  0  0  0  0  0  0  0  0  0  0
    8.0490  -13.9949   21.0851 C   0  0  0  0  0  0  0  0  0  0  0  0
    8.0343  -12.9501   21.7762 O   0  0  0  0  0  0  0  0  0  0  0  0
   12.8049  -14.8654   18.8525 O   0  0  0  0  0  0  0  0  0  0  0  0
    6.0361  -16.7847   24.5893 O   0  0  0  0  0  0  0  0  0  0  0  0
    6.5470  -16.6476   23.3144 C   0  0  0  0  0  0  0  0  0  0  0  0
    7.0057  -15.2239   23.0235 C   0  0  2  0  0  0  0  0  0  0  0  0
    7.5993  -15.1782   21.6917 N   0  0  0  0  0  0  0  0  0  0  0  0
    8.0786  -14.9126   23.9978 C   0  0  0  0  0  0  0  0  0  0  0  0
    9.2796  -15.1082   23.6186 O   0  0  0  0  0  0  0  0  0  0  0  0
    7.8941  -14.4195   25.3015 N   0  0  0  0  0  0  0  0  0  0  0  0
    6.5719  -14.2233   25.9155 C   0  0  0  0  0  0  0  0  0  0  0  0
    6.7621  -12.9611   26.7466 C   0  0  0  0  0  0  0  0  0  0  0  0
    8.2445  -12.7154   26.8235 C   0  0  0  0  0  0  0  0  0  0  0  0
    8.8093  -14.0295   26.3471 C   0  0  1  0  0  0  0  0  0  0  0  0
    8.8017  -14.9721   27.5005 C   0  0  0  0  0  0  0  0  0  0  0  0
    9.7724  -14.8483   28.4635 O   0  0  0  0  0  0  0  0  0  0  0  0
    7.9375  -15.8668   27.6110 O   0  0  0  0  0  0  0  0  0  0  0  0
  2  1  1  1
  2  7  1  0
  3  2  1  0
  4  5  1  0
  4  3  1  0
  5  6  2  0
  7 13  1  0
  7  8  2  0
  9  5  1  0
 10 11  1  0
 12 11  1  1
 13 12  1  0
 14 16  1  0
 14 12  1  0
 15 14  2  0
 16 17  1  0
 17 18  1  0
 19 18  1  0
 20 21  1  1
 20 16  1  0
 20 19  1  0
 21 22  1  0
 23 21  2  0
M  END
$$$$
