ESP.pdb
     RDKit          3D

 23 23  0  0  1  0  0  0  0  0999 V2000
    8.9320  -13.1685   18.3586 N   0  0  0  0  0  0  0  0  0  0  0  0
    8.9643  -14.2979   19.2547 C   0  0  1  0  0  0  0  0  0  0  0  0
   10.3445  -14.9128   19.2922 C   0  0  0  0  0  0  0  0  0  0  0  0
   11.2950  -13.8334   19.7663 C   0  0  0  0  0  0  0  0  0  0  0  0
   12.6710  -14.3539   19.9468 C   0  0  0  0  0  0  0  0  0  0  0  0
   12.9475  -15.4392   19.3680 O   0  0  0  0  0  0  0  0  0  0  0  0
    8.4571  -13.9348   20.5943 C   0  0  0  0  0  0  0  0  0  0  0  0
    8.7039  -12.8436   21.1580 O   0  0  0  0  0  0  0  0  0  0  0  0
   13.6455  -13.7336   20.6951 O   0  0  0  0  0  0  0  0  0  0  0  0
    6.6143  -16.9545   22.8161 O   0  0  0  0  0  0  0  0  0  0  0  0
    6.0851  -15.6862   22.9446 C   0  0  0  0  0  0  0  0  0  0  0  0
    7.0988  -14.5983   22.6119 C   0  0  2  0  0  0  0  0  0  0  0  0
    7.6525  -14.8533   21.2867 N   0  0  0  0  0  0  0  0  0  0  0  0
    8.2062  -14.7324   23.5882 C   0  0  0  0  0  0  0  0  0  0  0  0
    9.3281  -15.1376   23.1390 O   0  0  0  0  0  0  0  0  0  0  0  0
    8.1341  -14.4523   24.9642 N   0  0  0  0  0  0  0  0  0  0  0  0
    6.8878  -14.0838   25.6531 C   0  0  0  0  0  0  0  0  0  0  0  0
    7.3532  -13.0637   26.6841 C   0  0  0  0  0  0  0  0  0  0  0  0
    8.8529  -13.1671   26.7460 C   0  0  0  0  0  0  0  0  0  0  0  0
    9.1115  -14.4662   26.0259 C   0  0  1  0  0  0  0  0  0  0  0  0
    8.8922  -15.5749   26.9962 C   0  0  0  0  0  0  0  0  0  0  0  0
    7.7626  -16.3462   26.8764 O   0  0  0  0  0  0  0  0  0  0  0  0
    9.7075  -15.8178   27.9104 O   0  0  0  0  0  0  0  0  0  0  0  0
  2  1  1  6
  2  7  1  0
  3  2  1  0
  4  5  1  0
  4  3  1  0
  5  6  2  0
  7 13  1  0
  7  8  2  0
  9  5  1  0
 10 11  1  0
 12 11  1  1
 13 12  1  0
 14 16  1  0
 14 12  1  0
 15 14  2  0
 16 17  1  0
 17 18  1  0
 19 18  1  0
 20 21  1  1
 20 16  1  0
 20 19  1  0
 21 22  1  0
 23 21  2  0
M  END
$$$$
