ESP.pdb
     RDKit          3D

 23 23  0  0  1  0  0  0  0  0999 V2000
   10.1790  -14.0956   18.2495 N   0  0  0  0  0  0  0  0  0  0  0  0
   10.1213  -14.8082   19.5019 C   0  0  1  0  0  0  0  0  0  0  0  0
   11.5098  -15.0319   20.0556 C   0  0  0  0  0  0  0  0  0  0  0  0
   12.3977  -13.9557   19.4666 C   0  0  0  0  0  0  0  0  0  0  0  0
   13.8345  -14.2575   19.6692 C   0  0  0  0  0  0  0  0  0  0  0  0
   14.4442  -14.7899   18.7028 O   0  0  0  0  0  0  0  0  0  0  0  0
    9.2185  -14.1370   20.4602 C   0  0  0  0  0  0  0  0  0  0  0  0
    8.8196  -12.9568   20.3287 O   0  0  0  0  0  0  0  0  0  0  0  0
   14.5285  -13.9956   20.8286 O   0  0  0  0  0  0  0  0  0  0  0  0
    6.7865  -16.4179   22.6947 O   0  0  0  0  0  0  0  0  0  0  0  0
    6.5887  -15.0535   22.6249 C   0  0  0  0  0  0  0  0  0  0  0  0
    7.9000  -14.2777   22.6044 C   0  0  2  0  0  0  0  0  0  0  0  0
    8.7744  -14.8485   21.5858 N   0  0  0  0  0  0  0  0  0  0  0  0
    8.5482  -14.4983   23.9191 C   0  0  0  0  0  0  0  0  0  0  0  0
    9.6698  -15.1037   23.9173 O   0  0  0  0  0  0  0  0  0  0  0  0
    8.0410  -14.0997   25.1684 N   0  0  0  0  0  0  0  0  0  0  0  0
    6.6492  -13.6740   25.3809 C   0  0  0  0  0  0  0  0  0  0  0  0
    6.7824  -12.5676   26.4194 C   0  0  0  0  0  0  0  0  0  0  0  0
    8.1774  -12.6638   26.9748 C   0  0  0  0  0  0  0  0  0  0  0  0
    8.6201  -14.0203   26.4881 C   0  0  1  0  0  0  0  0  0  0  0  0
    8.0674  -15.0407   27.4219 C   0  0  0  0  0  0  0  0  0  0  0  0
    6.9991  -15.8013   27.0150 O   0  0  0  0  0  0  0  0  0  0  0  0
    8.5507  -15.2194   28.5594 O   0  0  0  0  0  0  0  0  0  0  0  0
  2  1  1  6
  2  7  1  0
  3  2  1  0
  4  5  1  0
  4  3  1  0
  5  6  2  0
  7 13  1  0
  7  8  2  0
  9  5  1  0
 10 11  1  0
 12 11  1  1
 13 12  1  0
 14 16  1  0
 14 12  1  0
 15 14  2  0
 16 17  1  0
 17 18  1  0
 19 18  1  0
 20 21  1  1
 20 16  1  0
 20 19  1  0
 21 22  1  0
 23 21  2  0
M  END
$$$$
