ESP.pdb
     RDKit          3D

 23 23  0  0  1  0  0  0  0  0999 V2000
    9.1847  -16.4891   19.5091 N   0  0  0  0  0  0  0  0  0  0  0  0
    9.5133  -16.9104   20.8485 C   0  0  1  0  0  0  0  0  0  0  0  0
   10.9892  -16.7303   21.1200 C   0  0  0  0  0  0  0  0  0  0  0  0
   11.7192  -17.7672   20.2922 C   0  0  0  0  0  0  0  0  0  0  0  0
   13.1789  -17.7461   20.5484 C   0  0  0  0  0  0  0  0  0  0  0  0
   13.8821  -18.5597   19.8906 O   0  0  0  0  0  0  0  0  0  0  0  0
    8.6560  -16.2393   21.8477 C   0  0  0  0  0  0  0  0  0  0  0  0
    8.3273  -15.0323   21.7820 O   0  0  0  0  0  0  0  0  0  0  0  0
   13.7993  -16.9064   21.4453 O   0  0  0  0  0  0  0  0  0  0  0  0
    6.0953  -17.0708   25.9514 O   0  0  0  0  0  0  0  0  0  0  0  0
    6.8193  -17.5396   24.8738 C   0  0  0  0  0  0  0  0  0  0  0  0
    7.3567  -16.4118   24.0013 C   0  0  2  0  0  0  0  0  0  0  0  0
    8.1753  -16.9824   22.9373 N   0  0  0  0  0  0  0  0  0  0  0  0
    8.2496  -15.5960   24.8584 C   0  0  0  0  0  0  0  0  0  0  0  0
    9.5046  -15.7562   24.7045 O   0  0  0  0  0  0  0  0  0  0  0  0
    7.8400  -14.6603   25.8246 N   0  0  0  0  0  0  0  0  0  0  0  0
    6.4395  -14.4779   26.2354 C   0  0  0  0  0  0  0  0  0  0  0  0
    6.3420  -12.9758   26.4685 C   0  0  0  0  0  0  0  0  0  0  0  0
    7.7524  -12.4533   26.5065 C   0  0  0  0  0  0  0  0  0  0  0  0
    8.5565  -13.7202   26.6529 C   0  0  1  0  0  0  0  0  0  0  0  0
    8.5488  -14.0993   28.0934 C   0  0  0  0  0  0  0  0  0  0  0  0
    7.8134  -15.1898   28.4874 O   0  0  0  0  0  0  0  0  0  0  0  0
    9.1923  -13.4521   28.9456 O   0  0  0  0  0  0  0  0  0  0  0  0
  2  1  1  6
  2  7  1  0
  3  2  1  0
  4  5  1  0
  4  3  1  0
  5  6  2  0
  7 13  1  0
  7  8  2  0
  9  5  1  0
 10 11  1  0
 12 11  1  1
 13 12  1  0
 14 16  1  0
 14 12  1  0
 15 14  2  0
 16 17  1  0
 17 18  1  0
 19 18  1  0
 20 21  1  1
 20 16  1  0
 20 19  1  0
 21 22  1  0
 23 21  2  0
M  END
$$$$
