ESP.pdb
     RDKit          3D

 23 23  0  0  1  0  0  0  0  0999 V2000
   10.7988  -17.0043   18.1752 N   0  0  0  0  0  0  0  0  0  0  0  0
    9.7722  -17.5339   19.0384 C   0  0  1  0  0  0  0  0  0  0  0  0
   10.2598  -18.7731   19.7532 C   0  0  0  0  0  0  0  0  0  0  0  0
   11.6751  -19.0275   19.2781 C   0  0  0  0  0  0  0  0  0  0  0  0
   12.2281  -20.2800   19.8457 C   0  0  0  0  0  0  0  0  0  0  0  0
   13.4074  -20.5800   19.5163 O   0  0  0  0  0  0  0  0  0  0  0  0
    9.2599  -16.4990   19.9606 C   0  0  0  0  0  0  0  0  0  0  0  0
    9.9490  -15.5412   20.3814 O   0  0  0  0  0  0  0  0  0  0  0  0
   11.5424  -21.1186   20.6949 O   0  0  0  0  0  0  0  0  0  0  0  0
    5.4632  -17.1531   21.4580 O   0  0  0  0  0  0  0  0  0  0  0  0
    5.8155  -15.8248   21.3276 C   0  0  0  0  0  0  0  0  0  0  0  0
    7.3258  -15.6234   21.3203 C   0  0  2  0  0  0  0  0  0  0  0  0
    7.9288  -16.5800   20.3987 N   0  0  0  0  0  0  0  0  0  0  0  0
    7.8083  -15.9554   22.6820 C   0  0  0  0  0  0  0  0  0  0  0  0
    8.6065  -16.9434   22.7885 O   0  0  0  0  0  0  0  0  0  0  0  0
    7.4683  -15.2800   23.8674 N   0  0  0  0  0  0  0  0  0  0  0  0
    6.4116  -14.2597   23.9456 C   0  0  0  0  0  0  0  0  0  0  0  0
    6.9739  -13.2577   24.9455 C   0  0  0  0  0  0  0  0  0  0  0  0
    8.1401  -13.9291   25.6187 C   0  0  0  0  0  0  0  0  0  0  0  0
    7.9456  -15.3717   25.2263 C   0  0  1  0  0  0  0  0  0  0  0  0
    6.9390  -15.9625   26.1518 C   0  0  0  0  0  0  0  0  0  0  0  0
    7.3529  -16.4109   27.3817 O   0  0  0  0  0  0  0  0  0  0  0  0
    5.7345  -16.0583   25.8366 O   0  0  0  0  0  0  0  0  0  0  0  0
  2  1  1  1
  2  7  1  0
  3  2  1  0
  4  5  1  0
  4  3  1  0
  5  6  2  0
  7 13  1  0
  7  8  2  0
  9  5  1  0
 10 11  1  0
 12 11  1  1
 13 12  1  0
 14 16  1  0
 14 12  1  0
 15 14  2  0
 16 17  1  0
 17 18  1  0
 19 18  1  0
 20 21  1  1
 20 16  1  0
 20 19  1  0
 21 22  1  0
 23 21  2  0
M  END
$$$$
