ESP.pdb
     RDKit          3D

 23 23  0  0  1  0  0  0  0  0999 V2000
   11.0506  -16.8108   19.5405 N   0  0  0  0  0  0  0  0  0  0  0  0
   10.3192  -17.3618   20.6545 C   0  0  1  0  0  0  0  0  0  0  0  0
   11.1508  -18.3909   21.3851 C   0  0  0  0  0  0  0  0  0  0  0  0
   12.5118  -17.7703   21.6217 C   0  0  0  0  0  0  0  0  0  0  0  0
   13.4161  -18.6911   22.3503 C   0  0  0  0  0  0  0  0  0  0  0  0
   14.6328  -18.3657   22.4055 O   0  0  0  0  0  0  0  0  0  0  0  0
    9.8092  -16.2957   21.5417 C   0  0  0  0  0  0  0  0  0  0  0  0
   10.4554  -15.2611   21.8267 O   0  0  0  0  0  0  0  0  0  0  0  0
   13.0129  -19.8582   22.9583 O   0  0  0  0  0  0  0  0  0  0  0  0
    6.3984  -17.1005   23.7998 O   0  0  0  0  0  0  0  0  0  0  0  0
    6.4730  -15.8377   23.2476 C   0  0  0  0  0  0  0  0  0  0  0  0
    7.9071  -15.4204   22.9459 C   0  0  2  0  0  0  0  0  0  0  0  0
    8.5307  -16.4356   22.1043 N   0  0  0  0  0  0  0  0  0  0  0  0
    8.6311  -15.4111   24.2394 C   0  0  0  0  0  0  0  0  0  0  0  0
    9.6563  -16.1625   24.3344 O   0  0  0  0  0  0  0  0  0  0  0  0
    8.2926  -14.6485   25.3711 N   0  0  0  0  0  0  0  0  0  0  0  0
    7.0295  -13.9061   25.5013 C   0  0  0  0  0  0  0  0  0  0  0  0
    7.4451  -12.6495   26.2553 C   0  0  0  0  0  0  0  0  0  0  0  0
    8.8250  -12.9083   26.7964 C   0  0  0  0  0  0  0  0  0  0  0  0
    8.9572  -14.4007   26.6280 C   0  0  1  0  0  0  0  0  0  0  0  0
    8.2718  -15.0503   27.7799 C   0  0  0  0  0  0  0  0  0  0  0  0
    7.0331  -15.6094   27.5841 O   0  0  0  0  0  0  0  0  0  0  0  0
    8.7950  -15.0982   28.9128 O   0  0  0  0  0  0  0  0  0  0  0  0
  2  1  1  6
  2  7  1  0
  3  2  1  0
  4  5  1  0
  4  3  1  0
  5  6  2  0
  7 13  1  0
  7  8  2  0
  9  5  1  0
 10 11  1  0
 12 11  1  1
 13 12  1  0
 14 16  1  0
 14 12  1  0
 15 14  2  0
 16 17  1  0
 17 18  1  0
 19 18  1  0
 20 21  1  1
 20 16  1  0
 20 19  1  0
 21 22  1  0
 23 21  2  0
M  END
$$$$
