NAF.pdb
     RDKit          3D

 25 25  0  0  1  0  0  0  0  0999 V2000
    8.5132  -18.8454   20.2062 N   0  0  0  0  0  0  0  0  0  0  0  0
    7.3823  -18.3635   20.9053 C   0  0  0  0  0  0  0  0  0  0  0  0
    6.6661  -17.4725   20.3849 O   0  0  0  0  0  0  0  0  0  0  0  0
    7.0969  -18.9507   22.2470 C   0  0  0  0  0  0  0  0  0  0  0  0
    7.4509  -17.8818   23.2635 C   0  0  2  0  0  0  0  0  0  0  0  0
    6.9483  -16.6196   22.7512 N   0  0  0  0  0  0  0  0  0  0  0  0
    8.9014  -17.8662   23.4762 C   0  0  0  0  0  0  0  0  0  0  0  0
    9.5831  -18.8711   23.8138 O   0  0  0  0  0  0  0  0  0  0  0  0
   11.6225  -15.5113   22.4923 C   0  0  0  0  0  0  0  0  0  0  0  0
   11.0334  -16.5306   23.4356 C   0  0  2  0  0  0  0  0  0  0  0  0
    9.5990  -16.6415   23.2927 N   0  0  0  0  0  0  0  0  0  0  0  0
   11.3691  -16.1497   24.8261 C   0  0  0  0  0  0  0  0  0  0  0  0
   12.5585  -16.0585   25.2297 O   0  0  0  0  0  0  0  0  0  0  0  0
   10.3538  -15.8662   25.7794 N   0  0  0  0  0  0  0  0  0  0  0  0
   10.6450  -15.3120   27.0870 C   0  0  1  0  0  0  0  0  0  0  0  0
   10.2035  -13.8669   27.1876 C   0  0  0  0  0  0  0  0  0  0  0  0
    8.8388  -13.6559   26.7032 C   0  0  0  0  0  0  0  0  0  0  0  0
    8.4858  -13.7041   25.3711 C   0  0  0  0  0  0  0  0  0  0  0  0
    7.1853  -13.5020   24.9507 C   0  0  0  0  0  0  0  0  0  0  0  0
    6.2020  -13.2459   25.8525 C   0  0  0  0  0  0  0  0  0  0  0  0
    6.5260  -13.1914   27.1958 C   0  0  0  0  0  0  0  0  0  0  0  0
    7.8372  -13.3958   27.6116 C   0  0  0  0  0  0  0  0  0  0  0  0
    9.9269  -16.0765   28.1363 C   0  0  0  0  0  0  0  0  0  0  0  0
   10.0730  -15.8589   29.4791 O   0  0  0  0  0  0  0  0  0  0  0  0
    9.1200  -16.9972   27.7823 O   0  0  0  0  0  0  0  0  0  0  0  0
  1  2  1  0
  2  3  2  0
  4  5  1  0
  4  2  1  0
  5  7  1  0
  5  6  1  6
  7  8  2  0
 10  9  1  6
 11 10  1  0
 11  7  1  0
 12 10  1  0
 13 12  2  0
 14 12  1  0
 15 14  1  0
 15 23  1  0
 15 16  1  6
 17 16  1  0
 18 17  2  0
 19 18  1  0
 20 21  1  0
 20 19  2  0
 21 22  2  0
 22 17  1  0
 23 24  1  0
 25 23  2  0
M  END
$$$$
