NAF.pdb
     RDKit          3D

 25 25  0  0  1  0  0  0  0  0999 V2000
    9.4046  -13.7914   18.2935 N   0  0  0  0  0  0  0  0  0  0  0  0
    8.4657  -12.9962   18.9906 C   0  0  0  0  0  0  0  0  0  0  0  0
    8.0407  -11.9370   18.4659 O   0  0  0  0  0  0  0  0  0  0  0  0
    8.0234  -13.4676   20.3354 C   0  0  0  0  0  0  0  0  0  0  0  0
    8.3498  -14.9477   20.3962 C   0  0  2  0  0  0  0  0  0  0  0  0
    7.4739  -15.6190   19.4527 N   0  0  0  0  0  0  0  0  0  0  0  0
    8.1779  -15.4335   21.7687 C   0  0  0  0  0  0  0  0  0  0  0  0
    7.2818  -15.0332   22.5595 O   0  0  0  0  0  0  0  0  0  0  0  0
    9.4650  -18.5018   23.4943 C   0  0  0  0  0  0  0  0  0  0  0  0
    8.8735  -17.1141   23.5073 C   0  0  2  0  0  0  0  0  0  0  0  0
    9.0757  -16.4230   22.2536 N   0  0  0  0  0  0  0  0  0  0  0  0
    9.4875  -16.3397   24.6095 C   0  0  0  0  0  0  0  0  0  0  0  0
   10.5057  -15.6188   24.4387 O   0  0  0  0  0  0  0  0  0  0  0  0
    8.9499  -16.3745   25.9247 N   0  0  0  0  0  0  0  0  0  0  0  0
    9.5632  -15.6744   27.0362 C   0  0  1  0  0  0  0  0  0  0  0  0
    8.5391  -14.8921   27.8318 C   0  0  0  0  0  0  0  0  0  0  0  0
    7.9187  -13.8177   27.0559 C   0  0  0  0  0  0  0  0  0  0  0  0
    8.5267  -12.6047   26.8098 C   0  0  0  0  0  0  0  0  0  0  0  0
    7.9106  -11.6137   26.0701 C   0  0  0  0  0  0  0  0  0  0  0  0
    6.6683  -11.8096   25.5561 C   0  0  0  0  0  0  0  0  0  0  0  0
    6.0334  -13.0164   25.7864 C   0  0  0  0  0  0  0  0  0  0  0  0
    6.6598  -14.0094   26.5319 C   0  0  0  0  0  0  0  0  0  0  0  0
   10.2049  -16.6438   27.9580 C   0  0  0  0  0  0  0  0  0  0  0  0
   10.1220  -18.0026   27.8210 O   0  0  0  0  0  0  0  0  0  0  0  0
   10.8790  -16.2004   28.9444 O   0  0  0  0  0  0  0  0  0  0  0  0
  1  2  1  0
  2  3  2  0
  4  5  1  0
  4  2  1  0
  5  7  1  0
  5  6  1  6
  7  8  2  0
 10  9  1  6
 11 10  1  0
 11  7  1  0
 12 10  1  0
 13 12  2  0
 14 12  1  0
 15 14  1  0
 15 23  1  0
 15 16  1  1
 17 16  1  0
 18 17  2  0
 19 18  1  0
 20 21  1  0
 20 19  2  0
 21 22  2  0
 22 17  1  0
 23 24  1  0
 25 23  2  0
M  END
$$$$
