NAF.pdb
     RDKit          3D

 25 25  0  0  1  0  0  0  0  0999 V2000
    9.2995  -13.0114   18.0243 N   0  0  0  0  0  0  0  0  0  0  0  0
    7.8959  -13.1509   18.1266 C   0  0  0  0  0  0  0  0  0  0  0  0
    7.1606  -12.6971   17.2149 O   0  0  0  0  0  0  0  0  0  0  0  0
    7.3558  -13.8419   19.3337 C   0  0  0  0  0  0  0  0  0  0  0  0
    8.5579  -14.2497   20.1643 C   0  0  2  0  0  0  0  0  0  0  0  0
    9.3981  -15.0825   19.3224 N   0  0  0  0  0  0  0  0  0  0  0  0
    8.1073  -14.9446   21.3740 C   0  0  0  0  0  0  0  0  0  0  0  0
    7.1580  -14.5569   22.1067 O   0  0  0  0  0  0  0  0  0  0  0  0
    8.7106  -18.3655   22.7804 C   0  0  0  0  0  0  0  0  0  0  0  0
    8.4118  -16.8948   22.9344 C   0  0  2  0  0  0  0  0  0  0  0  0
    8.7774  -16.1377   21.7582 N   0  0  0  0  0  0  0  0  0  0  0  0
    9.1449  -16.3755   24.1109 C   0  0  0  0  0  0  0  0  0  0  0  0
   10.2920  -15.8645   24.0164 O   0  0  0  0  0  0  0  0  0  0  0  0
    8.5818  -16.4301   25.4146 N   0  0  0  0  0  0  0  0  0  0  0  0
    9.2736  -15.9255   26.5844 C   0  0  1  0  0  0  0  0  0  0  0  0
    8.3279  -15.1982   27.5172 C   0  0  0  0  0  0  0  0  0  0  0  0
    7.7427  -14.0015   26.9114 C   0  0  0  0  0  0  0  0  0  0  0  0
    6.4442  -13.9357   26.4522 C   0  0  0  0  0  0  0  0  0  0  0  0
    5.9248  -12.7867   25.8875 C   0  0  0  0  0  0  0  0  0  0  0  0
    6.6912  -11.6714   25.7669 C   0  0  0  0  0  0  0  0  0  0  0  0
    7.9977  -11.7074   26.2187 C   0  0  0  0  0  0  0  0  0  0  0  0
    8.5137  -12.8676   26.7860 C   0  0  0  0  0  0  0  0  0  0  0  0
    9.8795  -17.0478   27.3423 C   0  0  0  0  0  0  0  0  0  0  0  0
   10.7846  -16.8886   28.3558 O   0  0  0  0  0  0  0  0  0  0  0  0
    9.5472  -18.2413   27.0436 O   0  0  0  0  0  0  0  0  0  0  0  0
  1  2  1  0
  2  3  2  0
  4  5  1  0
  4  2  1  0
  5  7  1  0
  5  6  1  6
  7  8  2  0
 10  9  1  6
 11 10  1  0
 11  7  1  0
 12 10  1  0
 13 12  2  0
 14 12  1  0
 15 14  1  0
 15 23  1  0
 15 16  1  1
 17 16  1  0
 18 17  2  0
 19 18  1  0
 20 21  1  0
 20 19  2  0
 21 22  2  0
 22 17  1  0
 23 24  1  0
 25 23  2  0
M  END
$$$$
