NAF.pdb
     RDKit          3D

 25 25  0  0  1  0  0  0  0  0999 V2000
    9.5885  -19.6342   19.1885 N   0  0  0  0  0  0  0  0  0  0  0  0
    8.8742  -19.0328   18.1264 C   0  0  0  0  0  0  0  0  0  0  0  0
    9.1031  -19.3918   16.9448 O   0  0  0  0  0  0  0  0  0  0  0  0
    7.8696  -17.9858   18.4743 C   0  0  0  0  0  0  0  0  0  0  0  0
    7.9510  -17.8004   19.9777 C   0  0  2  0  0  0  0  0  0  0  0  0
    6.5961  -17.8795   20.4934 N   0  0  0  0  0  0  0  0  0  0  0  0
    8.5959  -16.5193   20.2813 C   0  0  0  0  0  0  0  0  0  0  0  0
    9.8300  -16.2954   20.1572 O   0  0  0  0  0  0  0  0  0  0  0  0
    7.3284  -13.0519   20.9937 C   0  0  0  0  0  0  0  0  0  0  0  0
    8.3335  -14.1678   21.1372 C   0  0  2  0  0  0  0  0  0  0  0  0
    7.7864  -15.4482   20.7480 N   0  0  0  0  0  0  0  0  0  0  0  0
    8.7900  -14.2261   22.5441 C   0  0  0  0  0  0  0  0  0  0  0  0
    9.4719  -13.3064   23.0683 O   0  0  0  0  0  0  0  0  0  0  0  0
    8.4759  -15.3344   23.3766 N   0  0  0  0  0  0  0  0  0  0  0  0
    8.8894  -15.4089   24.7641 C   0  0  1  0  0  0  0  0  0  0  0  0
    7.7066  -15.2903   25.7024 C   0  0  0  0  0  0  0  0  0  0  0  0
    7.4227  -13.9065   26.0847 C   0  0  0  0  0  0  0  0  0  0  0  0
    8.4004  -12.9819   26.3856 C   0  0  0  0  0  0  0  0  0  0  0  0
    8.0944  -11.6822   26.7406 C   0  0  0  0  0  0  0  0  0  0  0  0
    6.8008  -11.2720   26.8041 C   0  0  0  0  0  0  0  0  0  0  0  0
    5.7983  -12.1773   26.5077 C   0  0  0  0  0  0  0  0  0  0  0  0
    6.1138  -13.4840   26.1511 C   0  0  0  0  0  0  0  0  0  0  0  0
    9.5472  -16.7117   25.0310 C   0  0  0  0  0  0  0  0  0  0  0  0
   10.1185  -17.0517   26.2268 O   0  0  0  0  0  0  0  0  0  0  0  0
    9.5920  -17.5799   24.0992 O   0  0  0  0  0  0  0  0  0  0  0  0
  1  2  1  0
  2  3  2  0
  4  5  1  0
  4  2  1  0
  5  7  1  0
  5  6  1  6
  7  8  2  0
 10  9  1  1
 11 10  1  0
 11  7  1  0
 12 10  1  0
 13 12  2  0
 14 12  1  0
 15 14  1  0
 15 23  1  0
 15 16  1  1
 17 16  1  0
 18 17  2  0
 19 18  1  0
 20 21  1  0
 20 19  2  0
 21 22  2  0
 22 17  1  0
 23 24  1  0
 25 23  2  0
M  END
$$$$
