NAF.pdb
     RDKit          3D

 25 25  0  0  1  0  0  0  0  0999 V2000
    8.0071  -12.0580   17.6051 N   0  0  0  0  0  0  0  0  0  0  0  0
    7.9954  -13.4670   17.7257 C   0  0  0  0  0  0  0  0  0  0  0  0
    8.4709  -14.1715   16.8008 O   0  0  0  0  0  0  0  0  0  0  0  0
    7.4084  -14.0499   18.9674 C   0  0  0  0  0  0  0  0  0  0  0  0
    8.5658  -14.2687   19.9234 C   0  0  2  0  0  0  0  0  0  0  0  0
    9.6106  -14.9522   19.1822 N   0  0  0  0  0  0  0  0  0  0  0  0
    8.1058  -15.0347   21.0857 C   0  0  0  0  0  0  0  0  0  0  0  0
    7.1878  -14.6641   21.8657 O   0  0  0  0  0  0  0  0  0  0  0  0
    8.8402  -18.5080   22.3853 C   0  0  0  0  0  0  0  0  0  0  0  0
    8.4123  -17.0691   22.5343 C   0  0  2  0  0  0  0  0  0  0  0  0
    8.7286  -16.2818   21.3636 N   0  0  0  0  0  0  0  0  0  0  0  0
    9.0794  -16.4893   23.7217 C   0  0  0  0  0  0  0  0  0  0  0  0
   10.2770  -16.1009   23.6973 O   0  0  0  0  0  0  0  0  0  0  0  0
    8.3915  -16.3426   24.9567 N   0  0  0  0  0  0  0  0  0  0  0  0
    9.0320  -15.8227   26.1488 C   0  0  1  0  0  0  0  0  0  0  0  0
    8.0342  -15.1421   27.0625 C   0  0  0  0  0  0  0  0  0  0  0  0
    7.5594  -13.8638   26.5316 C   0  0  0  0  0  0  0  0  0  0  0  0
    8.3978  -12.8631   26.0877 C   0  0  0  0  0  0  0  0  0  0  0  0
    7.9129  -11.6689   25.5900 C   0  0  0  0  0  0  0  0  0  0  0  0
    6.5748  -11.4434   25.5230 C   0  0  0  0  0  0  0  0  0  0  0  0
    5.7091  -12.4290   25.9610 C   0  0  0  0  0  0  0  0  0  0  0  0
    6.2045  -13.6285   26.4608 C   0  0  0  0  0  0  0  0  0  0  0  0
    9.6615  -16.9278   26.9128 C   0  0  0  0  0  0  0  0  0  0  0  0
   10.5641  -16.7440   27.9244 O   0  0  0  0  0  0  0  0  0  0  0  0
    9.3536  -18.1297   26.6215 O   0  0  0  0  0  0  0  0  0  0  0  0
  1  2  1  0
  2  3  2  0
  4  5  1  0
  4  2  1  0
  5  7  1  0
  5  6  1  6
  7  8  2  0
 10  9  1  6
 11 10  1  0
 11  7  1  0
 12 10  1  0
 13 12  2  0
 14 12  1  0
 15 14  1  0
 15 23  1  0
 15 16  1  1
 17 16  1  0
 18 17  2  0
 19 18  1  0
 20 21  1  0
 20 19  2  0
 21 22  2  0
 22 17  1  0
 23 24  1  0
 25 23  2  0
M  END
$$$$
