NAF.pdb
     RDKit          3D

 25 25  0  0  1  0  0  0  0  0999 V2000
    6.5195  -20.7712   18.1190 N   0  0  0  0  0  0  0  0  0  0  0  0
    7.3562  -19.6440   18.2900 C   0  0  0  0  0  0  0  0  0  0  0  0
    8.5636  -19.7120   17.9503 O   0  0  0  0  0  0  0  0  0  0  0  0
    6.7479  -18.4137   18.8751 C   0  0  0  0  0  0  0  0  0  0  0  0
    7.3618  -18.2489   20.2525 C   0  0  2  0  0  0  0  0  0  0  0  0
    6.2787  -18.3250   21.2165 N   0  0  0  0  0  0  0  0  0  0  0  0
    8.0871  -16.9766   20.3189 C   0  0  0  0  0  0  0  0  0  0  0  0
    9.1819  -16.7491   19.7373 O   0  0  0  0  0  0  0  0  0  0  0  0
    7.1835  -13.4917   21.1013 C   0  0  0  0  0  0  0  0  0  0  0  0
    8.1678  -14.6288   21.2201 C   0  0  2  0  0  0  0  0  0  0  0  0
    7.5294  -15.9192   21.0877 N   0  0  0  0  0  0  0  0  0  0  0  0
    8.8490  -14.5404   22.5315 C   0  0  0  0  0  0  0  0  0  0  0  0
    9.6078  -13.5814   22.8316 O   0  0  0  0  0  0  0  0  0  0  0  0
    8.6757  -15.5445   23.5223 N   0  0  0  0  0  0  0  0  0  0  0  0
    9.2513  -15.4384   24.8486 C   0  0  1  0  0  0  0  0  0  0  0  0
    8.1782  -15.3756   25.9154 C   0  0  0  0  0  0  0  0  0  0  0  0
    7.6454  -14.0259   26.1048 C   0  0  0  0  0  0  0  0  0  0  0  0
    8.4312  -12.9267   26.3800 C   0  0  0  0  0  0  0  0  0  0  0  0
    7.8926  -11.6659   26.5504 C   0  0  0  0  0  0  0  0  0  0  0  0
    6.5519  -11.4705   26.4500 C   0  0  0  0  0  0  0  0  0  0  0  0
    5.7382  -12.5543   26.1747 C   0  0  0  0  0  0  0  0  0  0  0  0
    6.2875  -13.8205   26.0045 C   0  0  0  0  0  0  0  0  0  0  0  0
   10.0999  -16.6217   25.1325 C   0  0  0  0  0  0  0  0  0  0  0  0
   10.8251  -16.7878   26.2807 O   0  0  0  0  0  0  0  0  0  0  0  0
   10.1694  -17.5510   24.2631 O   0  0  0  0  0  0  0  0  0  0  0  0
  1  2  1  0
  2  3  2  0
  4  5  1  0
  4  2  1  0
  5  7  1  0
  5  6  1  1
  7  8  2  0
 10  9  1  1
 11 10  1  0
 11  7  1  0
 12 10  1  0
 13 12  2  0
 14 12  1  0
 15 14  1  0
 15 23  1  0
 15 16  1  1
 17 16  1  0
 18 17  2  0
 19 18  1  0
 20 21  1  0
 20 19  2  0
 21 22  2  0
 22 17  1  0
 23 24  1  0
 25 23  2  0
M  END
$$$$
