NAF.pdb
     RDKit          3D

 25 25  0  0  1  0  0  0  0  0999 V2000
    4.9968  -20.8565   22.3262 N   0  0  0  0  0  0  0  0  0  0  0  0
    5.6238  -20.4446   23.5250 C   0  0  0  0  0  0  0  0  0  0  0  0
    5.3510  -21.0336   24.6004 O   0  0  0  0  0  0  0  0  0  0  0  0
    6.5925  -19.3125   23.4452 C   0  0  0  0  0  0  0  0  0  0  0  0
    6.5029  -18.7747   22.0296 C   0  0  2  0  0  0  0  0  0  0  0  0
    6.7658  -19.8850   21.1317 N   0  0  0  0  0  0  0  0  0  0  0  0
    7.4570  -17.6745   21.8600 C   0  0  0  0  0  0  0  0  0  0  0  0
    8.6931  -17.8265   21.6665 O   0  0  0  0  0  0  0  0  0  0  0  0
    7.0850  -13.9160   21.5707 C   0  0  0  0  0  0  0  0  0  0  0  0
    7.8393  -15.1876   21.8701 C   0  0  2  0  0  0  0  0  0  0  0  0
    6.9685  -16.3409   21.9150 N   0  0  0  0  0  0  0  0  0  0  0  0
    8.5384  -15.0385   23.1664 C   0  0  0  0  0  0  0  0  0  0  0  0
    9.4550  -14.1932   23.3425 O   0  0  0  0  0  0  0  0  0  0  0  0
    8.2034  -15.8509   24.2834 N   0  0  0  0  0  0  0  0  0  0  0  0
    8.8681  -15.7256   25.5657 C   0  0  1  0  0  0  0  0  0  0  0  0
    7.8850  -15.3987   26.6703 C   0  0  0  0  0  0  0  0  0  0  0  0
    7.4480  -14.0023   26.6454 C   0  0  0  0  0  0  0  0  0  0  0  0
    6.1326  -13.6168   26.4952 C   0  0  0  0  0  0  0  0  0  0  0  0
    5.7567  -12.2874   26.4788 C   0  0  0  0  0  0  0  0  0  0  0  0
    6.6875  -11.3069   26.6124 C   0  0  0  0  0  0  0  0  0  0  0  0
    8.0151  -11.6631   26.7648 C   0  0  0  0  0  0  0  0  0  0  0  0
    8.3860  -13.0033   26.7804 C   0  0  0  0  0  0  0  0  0  0  0  0
    9.5363  -17.0018   25.9205 C   0  0  0  0  0  0  0  0  0  0  0  0
    9.5174  -18.1218   25.1349 O   0  0  0  0  0  0  0  0  0  0  0  0
   10.1720  -17.0771   27.0225 O   0  0  0  0  0  0  0  0  0  0  0  0
  1  2  1  0
  2  3  2  0
  4  5  1  0
  4  2  1  0
  5  7  1  0
  5  6  1  6
  7  8  2  0
 10  9  1  1
 11 10  1  0
 11  7  1  0
 12 10  1  0
 13 12  2  0
 14 12  1  0
 15 14  1  0
 15 23  1  0
 15 16  1  1
 17 16  1  0
 18 17  2  0
 19 18  1  0
 20 21  1  0
 20 19  2  0
 21 22  2  0
 22 17  1  0
 23 24  1  0
 25 23  2  0
M  END
$$$$
