FWL.pdb
     RDKit          3D

 34 36  0  0  1  0  0  0  0  0999 V2000
    4.2893  -20.9976   23.4709 N   0  0  0  0  0  0  0  0  0  0  0  0
    5.6442  -20.5266   23.5090 C   0  0  1  0  0  0  0  0  0  0  0  0
    6.3043  -20.8817   22.1941 C   0  0  0  0  0  0  0  0  0  0  0  0
    6.9659  -22.1998   22.2542 C   0  0  0  0  0  0  0  0  0  0  0  0
    8.1816  -22.3547   22.8587 C   0  0  0  0  0  0  0  0  0  0  0  0
    8.7906  -23.5891   22.9093 C   0  0  0  0  0  0  0  0  0  0  0  0
    8.1910  -24.6967   22.3529 C   0  0  0  0  0  0  0  0  0  0  0  0
    6.9655  -24.5324   21.7453 C   0  0  0  0  0  0  0  0  0  0  0  0
    6.3521  -23.2966   21.6928 C   0  0  0  0  0  0  0  0  0  0  0  0
    5.7059  -19.0350   23.6017 C   0  0  0  0  0  0  0  0  0  0  0  0
    4.9525  -18.2899   22.9444 O   0  0  0  0  0  0  0  0  0  0  0  0
    6.6564  -18.4661   24.4693 N   0  0  0  0  0  0  0  0  0  0  0  0
    6.8556  -17.0047   24.5494 C   0  0  1  0  0  0  0  0  0  0  0  0
    7.1494  -16.7434   26.0104 C   0  0  0  0  0  0  0  0  0  0  0  0
    7.1906  -15.3356   26.3921 C   0  0  0  0  0  0  0  0  0  0  0  0
    6.1627  -14.4057   26.2182 C   0  0  0  0  0  0  0  0  0  0  0  0
    6.5739  -13.2157   26.6766 N   0  0  0  0  0  0  0  0  0  0  0  0
    7.8340  -13.3150   27.1487 C   0  0  0  0  0  0  0  0  0  0  0  0
    8.6490  -12.3573   27.7085 C   0  0  0  0  0  0  0  0  0  0  0  0
    9.9121  -12.7477   28.1094 C   0  0  0  0  0  0  0  0  0  0  0  0
   10.3039  -14.0611   27.9369 C   0  0  0  0  0  0  0  0  0  0  0  0
    9.4969  -15.0232   27.3792 C   0  0  0  0  0  0  0  0  0  0  0  0
    8.2253  -14.6298   26.9757 C   0  0  0  0  0  0  0  0  0  0  0  0
    8.0637  -16.6788   23.7294 C   0  0  0  0  0  0  0  0  0  0  0  0
    8.9124  -17.5878   23.5435 O   0  0  0  0  0  0  0  0  0  0  0  0
    6.9434  -14.6272   19.9618 C   0  0  0  0  0  0  0  0  0  0  0  0
    7.6597  -13.7313   20.9263 C   0  0  2  0  0  0  0  0  0  0  0  0
    7.7655  -12.3472   20.2330 C   0  0  0  0  0  0  0  0  0  0  0  0
    9.0328  -14.0784   21.3099 C   0  0  0  0  0  0  0  0  0  0  0  0
    9.2937  -15.2967   22.0909 C   0  0  2  0  0  0  0  0  0  0  0  0
    8.2849  -15.4139   23.1640 N   0  0  0  0  0  0  0  0  0  0  0  0
   10.5968  -15.5677   22.6608 C   0  0  0  0  0  0  0  0  0  0  0  0
   10.8464  -15.8356   23.9816 O   0  0  0  0  0  0  0  0  0  0  0  0
   11.6141  -15.5583   21.9104 O   0  0  0  0  0  0  0  0  0  0  0  0
  2  1  1  6
  3  2  1  0
  4  3  1  0
  4  5  2  0
  6  5  1  0
  7  6  2  0
  8  9  2  0
  8  7  1  0
  9  4  1  0
 10 11  2  0
 10  2  1  0
 12 10  1  0
 13 12  1  0
 13 14  1  1
 15 23  1  0
 15 14  1  0
 16 15  2  0
 17 16  1  0
 17 18  1  0
 18 23  2  0
 19 18  1  0
 19 20  2  0
 20 21  1  0
 21 22  2  0
 23 22  1  0
 24 25  2  0
 24 13  1  0
 27 26  1  6
 27 28  1  0
 27 29  1  0
 30 29  1  1
 30 31  1  0
 31 24  1  0
 32 30  1  0
 33 32  1  0
 34 32  2  0
M  END
$$$$
