FWL.pdb
     RDKit          3D

 34 36  0  0  1  0  0  0  0  0999 V2000
    5.4038  -16.4273   21.2489 N   0  0  0  0  0  0  0  0  0  0  0  0
    6.7851  -16.8118   21.1903 C   0  0  1  0  0  0  0  0  0  0  0  0
    7.2877  -16.5532   19.7863 C   0  0  0  0  0  0  0  0  0  0  0  0
    7.4542  -15.1103   19.5235 C   0  0  0  0  0  0  0  0  0  0  0  0
    7.8557  -14.6556   18.2991 C   0  0  0  0  0  0  0  0  0  0  0  0
    8.0084  -13.3070   18.0643 C   0  0  0  0  0  0  0  0  0  0  0  0
    7.7606  -12.3842   19.0556 C   0  0  0  0  0  0  0  0  0  0  0  0
    7.3562  -12.8505   20.2873 C   0  0  0  0  0  0  0  0  0  0  0  0
    7.2022  -14.2016   20.5262 C   0  0  0  0  0  0  0  0  0  0  0  0
    7.6311  -15.9623   22.0847 C   0  0  0  0  0  0  0  0  0  0  0  0
    7.5366  -14.7193   22.1161 O   0  0  0  0  0  0  0  0  0  0  0  0
    8.5650  -16.6062   22.9173 N   0  0  0  0  0  0  0  0  0  0  0  0
    9.4923  -15.8429   23.7769 C   0  0  1  0  0  0  0  0  0  0  0  0
    9.0387  -16.1499   25.1873 C   0  0  0  0  0  0  0  0  0  0  0  0
    7.9111  -15.3551   25.6626 C   0  0  0  0  0  0  0  0  0  0  0  0
    6.5966  -15.8019   25.8164 C   0  0  0  0  0  0  0  0  0  0  0  0
    5.8435  -14.7861   26.2596 N   0  0  0  0  0  0  0  0  0  0  0  0
    6.6030  -13.6806   26.4073 C   0  0  0  0  0  0  0  0  0  0  0  0
    6.2576  -12.4181   26.8330 C   0  0  0  0  0  0  0  0  0  0  0  0
    7.2571  -11.4659   26.8871 C   0  0  0  0  0  0  0  0  0  0  0  0
    8.5433  -11.8095   26.5186 C   0  0  0  0  0  0  0  0  0  0  0  0
    8.8967  -13.0671   26.0926 C   0  0  0  0  0  0  0  0  0  0  0  0
    7.8902  -14.0255   26.0382 C   0  0  0  0  0  0  0  0  0  0  0  0
   10.8612  -16.4052   23.5573 C   0  0  0  0  0  0  0  0  0  0  0  0
   11.0130  -17.6481   23.6728 O   0  0  0  0  0  0  0  0  0  0  0  0
   16.5236  -15.1650   21.7505 C   0  0  0  0  0  0  0  0  0  0  0  0
   15.2671  -15.8961   21.3861 C   0  0  2  0  0  0  0  0  0  0  0  0
   15.1107  -15.7466   19.8496 C   0  0  0  0  0  0  0  0  0  0  0  0
   13.9986  -15.4238   21.9524 C   0  0  0  0  0  0  0  0  0  0  0  0
   13.2287  -16.2895   22.8581 C   0  0  2  0  0  0  0  0  0  0  0  0
   11.9701  -15.6107   23.2296 N   0  0  0  0  0  0  0  0  0  0  0  0
   13.8170  -16.8447   24.0589 C   0  0  0  0  0  0  0  0  0  0  0  0
   14.6394  -17.9401   24.1077 O   0  0  0  0  0  0  0  0  0  0  0  0
   13.5689  -16.3059   25.1752 O   0  0  0  0  0  0  0  0  0  0  0  0
  2  1  1  6
  3  2  1  0
  4  3  1  0
  4  5  2  0
  6  5  1  0
  7  6  2  0
  8  9  2  0
  8  7  1  0
  9  4  1  0
 10 11  2  0
 10  2  1  0
 12 10  1  0
 13 12  1  0
 13 14  1  1
 15 23  1  0
 15 14  1  0
 16 15  2  0
 17 16  1  0
 17 18  1  0
 18 23  2  0
 19 18  1  0
 19 20  2  0
 20 21  1  0
 21 22  2  0
 23 22  1  0
 24 25  2  0
 24 13  1  0
 27 26  1  1
 27 28  1  0
 27 29  1  0
 30 29  1  1
 30 31  1  0
 31 24  1  0
 32 30  1  0
 33 32  1  0
 34 32  2  0
M  END
$$$$
