FWL.pdb
     RDKit          3D

 34 36  0  0  1  0  0  0  0  0999 V2000
   10.1044  -16.6989   18.0905 N   0  0  0  0  0  0  0  0  0  0  0  0
    9.4794  -17.3275   19.2188 C   0  0  1  0  0  0  0  0  0  0  0  0
   10.1943  -18.6343   19.4869 C   0  0  0  0  0  0  0  0  0  0  0  0
    9.8114  -19.6754   18.5132 C   0  0  0  0  0  0  0  0  0  0  0  0
    8.8253  -20.5788   18.7939 C   0  0  0  0  0  0  0  0  0  0  0  0
    8.4757  -21.5466   17.8784 C   0  0  0  0  0  0  0  0  0  0  0  0
    9.1098  -21.6285   16.6589 C   0  0  0  0  0  0  0  0  0  0  0  0
   10.1028  -20.7141   16.3834 C   0  0  0  0  0  0  0  0  0  0  0  0
   10.4559  -19.7427   17.2987 C   0  0  0  0  0  0  0  0  0  0  0  0
    9.6447  -16.5143   20.4633 C   0  0  0  0  0  0  0  0  0  0  0  0
   10.6240  -15.7654   20.6505 O   0  0  0  0  0  0  0  0  0  0  0  0
    8.6474  -16.6090   21.4514 N   0  0  0  0  0  0  0  0  0  0  0  0
    8.6877  -15.7821   22.6746 C   0  0  1  0  0  0  0  0  0  0  0  0
    7.2775  -15.8448   23.2192 C   0  0  0  0  0  0  0  0  0  0  0  0
    7.0991  -15.2643   24.5460 C   0  0  0  0  0  0  0  0  0  0  0  0
    6.6450  -15.9361   25.6835 C   0  0  0  0  0  0  0  0  0  0  0  0
    6.5992  -15.0722   26.7067 N   0  0  0  0  0  0  0  0  0  0  0  0
    7.0045  -13.8521   26.2970 C   0  0  0  0  0  0  0  0  0  0  0  0
    7.1179  -12.6736   26.9991 C   0  0  0  0  0  0  0  0  0  0  0  0
    7.5665  -11.5615   26.3133 C   0  0  0  0  0  0  0  0  0  0  0  0
    7.8793  -11.6709   24.9722 C   0  0  0  0  0  0  0  0  0  0  0  0
    7.7690  -12.8431   24.2639 C   0  0  0  0  0  0  0  0  0  0  0  0
    7.3173  -13.9626   24.9547 C   0  0  0  0  0  0  0  0  0  0  0  0
    9.6238  -16.4529   23.6296 C   0  0  0  0  0  0  0  0  0  0  0  0
    9.5995  -17.7084   23.6945 O   0  0  0  0  0  0  0  0  0  0  0  0
   15.3806  -15.9299   25.3157 C   0  0  0  0  0  0  0  0  0  0  0  0
   14.0500  -16.5844   25.5332 C   0  0  2  0  0  0  0  0  0  0  0  0
   14.1515  -17.9931   24.8905 C   0  0  0  0  0  0  0  0  0  0  0  0
   12.8641  -15.9673   24.9283 C   0  0  0  0  0  0  0  0  0  0  0  0
   11.5273  -16.5142   25.2045 C   0  0  2  0  0  0  0  0  0  0  0  0
   10.5191  -15.7454   24.4459 N   0  0  0  0  0  0  0  0  0  0  0  0
   11.0432  -16.6864   26.5582 C   0  0  0  0  0  0  0  0  0  0  0  0
   10.1195  -15.8869   27.1795 O   0  0  0  0  0  0  0  0  0  0  0  0
   11.4918  -17.6380   27.2590 O   0  0  0  0  0  0  0  0  0  0  0  0
  2  1  1  6
  3  2  1  0
  4  3  1  0
  4  5  2  0
  6  5  1  0
  7  6  2  0
  8  9  2  0
  8  7  1  0
  9  4  1  0
 10 11  2  0
 10  2  1  0
 12 10  1  0
 13 12  1  0
 13 14  1  1
 15 23  1  0
 15 14  1  0
 16 15  2  0
 17 16  1  0
 17 18  1  0
 18 23  2  0
 19 18  1  0
 19 20  2  0
 20 21  1  0
 21 22  2  0
 23 22  1  0
 24 25  2  0
 24 13  1  0
 27 26  1  6
 27 28  1  0
 27 29  1  0
 30 29  1  1
 30 31  1  0
 31 24  1  0
 32 30  1  0
 33 32  1  0
 34 32  2  0
M  END
$$$$
