FWL.pdb
     RDKit          3D

 34 36  0  0  1  0  0  0  0  0999 V2000
    5.0351  -21.0596   23.8493 N   0  0  0  0  0  0  0  0  0  0  0  0
    5.8565  -20.2809   24.7314 C   0  0  1  0  0  0  0  0  0  0  0  0
    7.1035  -21.0799   25.0432 C   0  0  0  0  0  0  0  0  0  0  0  0
    7.4237  -21.0512   26.4838 C   0  0  0  0  0  0  0  0  0  0  0  0
    7.7351  -19.8807   27.1164 C   0  0  0  0  0  0  0  0  0  0  0  0
    8.0327  -19.8648   28.4612 C   0  0  0  0  0  0  0  0  0  0  0  0
    8.0240  -21.0259   29.2012 C   0  0  0  0  0  0  0  0  0  0  0  0
    7.7091  -22.2018   28.5561 C   0  0  0  0  0  0  0  0  0  0  0  0
    7.4103  -22.2215   27.2084 C   0  0  0  0  0  0  0  0  0  0  0  0
    6.3353  -19.0260   24.0729 C   0  0  0  0  0  0  0  0  0  0  0  0
    6.6293  -18.9734   22.8622 O   0  0  0  0  0  0  0  0  0  0  0  0
    6.4528  -17.8685   24.8643 N   0  0  0  0  0  0  0  0  0  0  0  0
    6.9634  -16.5988   24.3087 C   0  0  1  0  0  0  0  0  0  0  0  0
    6.3994  -15.5330   25.2226 C   0  0  0  0  0  0  0  0  0  0  0  0
    6.8977  -14.1829   24.9817 C   0  0  0  0  0  0  0  0  0  0  0  0
    7.3238  -13.2773   25.9563 C   0  0  0  0  0  0  0  0  0  0  0  0
    7.6962  -12.1389   25.3556 N   0  0  0  0  0  0  0  0  0  0  0  0
    7.5355  -12.2494   24.0204 C   0  0  0  0  0  0  0  0  0  0  0  0
    7.7867  -11.3391   23.0189 C   0  0  0  0  0  0  0  0  0  0  0  0
    7.5246  -11.7293   21.7199 C   0  0  0  0  0  0  0  0  0  0  0  0
    7.0290  -12.9958   21.4779 C   0  0  0  0  0  0  0  0  0  0  0  0
    6.7754  -13.9104   22.4714 C   0  0  0  0  0  0  0  0  0  0  0  0
    7.0394  -13.5172   23.7792 C   0  0  0  0  0  0  0  0  0  0  0  0
    8.4538  -16.6298   24.4354 C   0  0  0  0  0  0  0  0  0  0  0  0
    8.9510  -17.2907   25.3826 O   0  0  0  0  0  0  0  0  0  0  0  0
   11.8360  -18.6057   20.4364 C   0  0  0  0  0  0  0  0  0  0  0  0
   11.6409  -18.1545   21.8521 C   0  0  2  0  0  0  0  0  0  0  0  0
   10.7090  -19.2033   22.5150 C   0  0  0  0  0  0  0  0  0  0  0  0
   10.9938  -16.8586   22.0862 C   0  0  0  0  0  0  0  0  0  0  0  0
   10.7137  -16.4125   23.4591 C   0  0  2  0  0  0  0  0  0  0  0  0
    9.3101  -15.9599   23.5486 N   0  0  0  0  0  0  0  0  0  0  0  0
   11.5495  -15.4350   24.1243 C   0  0  0  0  0  0  0  0  0  0  0  0
   11.1102  -14.2648   24.6866 O   0  0  0  0  0  0  0  0  0  0  0  0
   12.7943  -15.6396   24.2070 O   0  0  0  0  0  0  0  0  0  0  0  0
  2  1  1  6
  3  2  1  0
  4  3  1  0
  4  5  2  0
  6  5  1  0
  7  6  2  0
  8  9  2  0
  8  7  1  0
  9  4  1  0
 10 11  2  0
 10  2  1  0
 12 10  1  0
 13 12  1  0
 13 14  1  1
 15 23  1  0
 15 14  1  0
 16 15  2  0
 17 16  1  0
 17 18  1  0
 18 23  2  0
 19 18  1  0
 19 20  2  0
 20 21  1  0
 21 22  2  0
 23 22  1  0
 24 25  2  0
 24 13  1  0
 27 26  1  6
 27 28  1  0
 27 29  1  0
 30 29  1  6
 30 31  1  0
 31 24  1  0
 32 30  1  0
 33 32  1  0
 34 32  2  0
M  END
$$$$
