NAR.pdb
     RDKit          3D

 25 24  0  0  1  0  0  0  0  0999 V2000
    7.8646  -18.9115   16.4834 N   0  0  0  0  0  0  0  0  0  0  0  0
    7.4787  -19.2354   17.8102 C   0  0  0  0  0  0  0  0  0  0  0  0
    6.6375  -20.1173   18.0827 O   0  0  0  0  0  0  0  0  0  0  0  0
    8.1051  -18.4903   18.9216 C   0  0  0  0  0  0  0  0  0  0  0  0
    8.8801  -17.3129   18.3155 C   0  0  2  0  0  0  0  0  0  0  0  0
   10.0188  -17.8872   17.6520 N   0  0  0  0  0  0  0  0  0  0  0  0
    9.2688  -16.4567   19.4651 C   0  0  0  0  0  0  0  0  0  0  0  0
   10.3080  -16.7395   20.1163 O   0  0  0  0  0  0  0  0  0  0  0  0
    8.0749  -13.2916   21.1911 C   0  0  0  0  0  0  0  0  0  0  0  0
    8.9661  -14.5249   21.0036 C   0  0  2  0  0  0  0  0  0  0  0  0
    8.5385  -15.3178   19.8929 N   0  0  0  0  0  0  0  0  0  0  0  0
    8.7976  -15.3161   22.2535 C   0  0  0  0  0  0  0  0  0  0  0  0
    7.7771  -16.0395   22.3769 O   0  0  0  0  0  0  0  0  0  0  0  0
   15.2791  -18.6998   22.2025 N   0  0  0  0  0  0  0  0  0  0  0  0
   14.1470  -19.2020   21.5221 C   0  0  0  0  0  0  0  0  0  0  0  0
   14.2942  -19.9359   20.4543 N   0  0  0  0  0  0  0  0  0  0  0  0
   12.8276  -18.9155   21.9898 N   0  0  0  0  0  0  0  0  0  0  0  0
   12.5649  -18.1093   23.1629 C   0  0  0  0  0  0  0  0  0  0  0  0
   11.0882  -17.9336   23.4086 C   0  0  0  0  0  0  0  0  0  0  0  0
   10.7802  -17.0826   24.5864 C   0  0  0  0  0  0  0  0  0  0  0  0
    9.5704  -16.1871   24.4261 C   0  0  2  0  0  0  0  0  0  0  0  0
    9.7452  -15.2820   23.3069 N   0  0  0  0  0  0  0  0  0  0  0  0
    9.2754  -15.3712   25.6165 C   0  0  0  0  0  0  0  0  0  0  0  0
    9.2546  -14.0003   25.5299 O   0  0  0  0  0  0  0  0  0  0  0  0
    9.0438  -15.9225   26.7113 O   0  0  0  0  0  0  0  0  0  0  0  0
  1  2  1  0
  2  3  2  0
  4  5  1  0
  4  2  1  0
  5  6  1  1
  7  8  2  0
  7  5  1  0
 10  9  1  1
 10 11  1  0
 11  7  1  0
 12 22  1  0
 12 10  1  0
 13 12  2  0
 15 14  1  0
 16 15  2  0
 17 15  1  0
 18 17  1  0
 19 18  1  0
 20 19  1  0
 21 20  1  1
 21 22  1  0
 23 21  1  0
 24 23  1  0
 25 23  2  0
M  END
$$$$
