NAR.pdb
     RDKit          3D

 25 24  0  0  1  0  0  0  0  0999 V2000
    8.8303  -18.0858   12.9776 N   0  0  0  0  0  0  0  0  0  0  0  0
    8.0163  -17.2819   13.8176 C   0  0  0  0  0  0  0  0  0  0  0  0
    6.8217  -17.0193   13.5656 O   0  0  0  0  0  0  0  0  0  0  0  0
    8.6152  -16.7301   15.0504 C   0  0  0  0  0  0  0  0  0  0  0  0
    8.3958  -15.2116   15.0363 C   0  0  2  0  0  0  0  0  0  0  0  0
    9.2257  -14.7007   13.9795 N   0  0  0  0  0  0  0  0  0  0  0  0
    8.8273  -14.7334   16.3745 C   0  0  0  0  0  0  0  0  0  0  0  0
   10.0376  -14.8397   16.7025 O   0  0  0  0  0  0  0  0  0  0  0  0
    7.2921  -13.1357   19.4607 C   0  0  0  0  0  0  0  0  0  0  0  0
    8.4298  -13.7042   18.6046 C   0  0  2  0  0  0  0  0  0  0  0  0
    7.9559  -14.1524   17.3319 N   0  0  0  0  0  0  0  0  0  0  0  0
    8.9391  -14.8759   19.3690 C   0  0  0  0  0  0  0  0  0  0  0  0
    9.1040  -15.9656   18.7643 O   0  0  0  0  0  0  0  0  0  0  0  0
   16.8719  -14.2225   19.9782 N   0  0  0  0  0  0  0  0  0  0  0  0
   15.8208  -14.5218   19.0825 C   0  0  0  0  0  0  0  0  0  0  0  0
   15.8623  -14.0893   17.8530 N   0  0  0  0  0  0  0  0  0  0  0  0
   14.6996  -15.2995   19.5062 N   0  0  0  0  0  0  0  0  0  0  0  0
   14.1167  -15.1878   20.8265 C   0  0  0  0  0  0  0  0  0  0  0  0
   12.8394  -15.9786   20.9488 C   0  0  0  0  0  0  0  0  0  0  0  0
   11.6338  -15.2292   20.5116 C   0  0  0  0  0  0  0  0  0  0  0  0
   10.3623  -15.5790   21.2547 C   0  0  2  0  0  0  0  0  0  0  0  0
    9.2434  -14.8063   20.7515 N   0  0  0  0  0  0  0  0  0  0  0  0
   10.4434  -15.3506   22.7077 C   0  0  0  0  0  0  0  0  0  0  0  0
   11.0547  -16.2731   23.5217 O   0  0  0  0  0  0  0  0  0  0  0  0
    9.9552  -14.3168   23.2068 O   0  0  0  0  0  0  0  0  0  0  0  0
  1  2  1  0
  2  3  2  0
  4  5  1  0
  4  2  1  0
  5  6  1  6
  7  8  2  0
  7  5  1  0
 10  9  1  1
 10 11  1  0
 11  7  1  0
 12 22  1  0
 12 10  1  0
 13 12  2  0
 15 14  1  0
 16 15  2  0
 17 15  1  0
 18 17  1  0
 19 18  1  0
 20 19  1  0
 21 20  1  6
 21 22  1  0
 23 21  1  0
 24 23  1  0
 25 23  2  0
M  END
$$$$
