NAR.pdb
     RDKit          3D

 25 24  0  0  1  0  0  0  0  0999 V2000
   12.9679  -17.9402   16.4442 N   0  0  0  0  0  0  0  0  0  0  0  0
   12.6199  -16.7361   17.1101 C   0  0  0  0  0  0  0  0  0  0  0  0
   13.0812  -15.6200   16.7923 O   0  0  0  0  0  0  0  0  0  0  0  0
   11.6643  -16.8105   18.2344 C   0  0  0  0  0  0  0  0  0  0  0  0
   11.3240  -18.2895   18.4603 C   0  0  2  0  0  0  0  0  0  0  0  0
   10.3661  -18.6356   17.4458 N   0  0  0  0  0  0  0  0  0  0  0  0
   10.7496  -18.3627   19.8279 C   0  0  0  0  0  0  0  0  0  0  0  0
    9.6157  -17.8614   20.0441 O   0  0  0  0  0  0  0  0  0  0  0  0
   11.5471  -20.0129   23.1462 C   0  0  0  0  0  0  0  0  0  0  0  0
   10.7599  -19.0919   22.2067 C   0  0  2  0  0  0  0  0  0  0  0  0
   11.3997  -18.9698   20.9335 N   0  0  0  0  0  0  0  0  0  0  0  0
   10.7637  -17.7627   22.8772 C   0  0  0  0  0  0  0  0  0  0  0  0
   11.7902  -17.0431   22.7850 O   0  0  0  0  0  0  0  0  0  0  0  0
    8.4027  -11.5616   20.2839 N   0  0  0  0  0  0  0  0  0  0  0  0
    8.1365  -12.7210   19.5212 C   0  0  0  0  0  0  0  0  0  0  0  0
    8.3970  -12.7409   18.2436 N   0  0  0  0  0  0  0  0  0  0  0  0
    7.5798  -13.8858   20.1334 N   0  0  0  0  0  0  0  0  0  0  0  0
    7.4911  -14.0563   21.5681 C   0  0  0  0  0  0  0  0  0  0  0  0
    8.6897  -14.7800   22.1261 C   0  0  0  0  0  0  0  0  0  0  0  0
    8.5714  -15.0953   23.5728 C   0  0  0  0  0  0  0  0  0  0  0  0
    9.7013  -15.9297   24.1371 C   0  0  2  0  0  0  0  0  0  0  0  0
    9.6531  -17.2813   23.6146 N   0  0  0  0  0  0  0  0  0  0  0  0
    9.6936  -16.0203   25.6073 C   0  0  0  0  0  0  0  0  0  0  0  0
    9.5852  -17.2420   26.2263 O   0  0  0  0  0  0  0  0  0  0  0  0
    9.7845  -14.9858   26.2985 O   0  0  0  0  0  0  0  0  0  0  0  0
  1  2  1  0
  2  3  2  0
  4  5  1  0
  4  2  1  0
  5  6  1  6
  7  8  2  0
  7  5  1  0
 10  9  1  1
 10 11  1  0
 11  7  1  0
 12 22  1  0
 12 10  1  0
 13 12  2  0
 15 14  1  0
 16 15  2  0
 17 15  1  0
 18 17  1  0
 19 18  1  0
 20 19  1  0
 21 20  1  6
 21 22  1  0
 23 21  1  0
 24 23  1  0
 25 23  2  0
M  END
$$$$
