NAR.pdb
     RDKit          3D

 25 24  0  0  1  0  0  0  0  0999 V2000
    8.8834  -13.4114   15.1516 N   0  0  0  0  0  0  0  0  0  0  0  0
    7.9036  -13.8724   16.0692 C   0  0  0  0  0  0  0  0  0  0  0  0
    6.9021  -14.5348   15.7261 O   0  0  0  0  0  0  0  0  0  0  0  0
    8.0805  -13.5508   17.5004 C   0  0  0  0  0  0  0  0  0  0  0  0
    8.4199  -14.8555   18.2331 C   0  0  2  0  0  0  0  0  0  0  0  0
    7.2472  -15.6813   18.1365 N   0  0  0  0  0  0  0  0  0  0  0  0
    8.7189  -14.4608   19.6333 C   0  0  0  0  0  0  0  0  0  0  0  0
    9.8603  -14.0103   19.9127 O   0  0  0  0  0  0  0  0  0  0  0  0
    6.9653  -14.0476   22.9535 C   0  0  0  0  0  0  0  0  0  0  0  0
    8.1806  -14.3153   22.0580 C   0  0  2  0  0  0  0  0  0  0  0  0
    7.7917  -14.5565   20.7032 N   0  0  0  0  0  0  0  0  0  0  0  0
    8.8006  -15.5517   22.6088 C   0  0  0  0  0  0  0  0  0  0  0  0
    8.3397  -16.6667   22.2559 O   0  0  0  0  0  0  0  0  0  0  0  0
   15.8704  -20.0373   22.0166 N   0  0  0  0  0  0  0  0  0  0  0  0
   15.1831  -20.6273   23.1012 C   0  0  0  0  0  0  0  0  0  0  0  0
   15.5248  -21.8104   23.5300 N   0  0  0  0  0  0  0  0  0  0  0  0
   14.1068  -19.9413   23.7435 N   0  0  0  0  0  0  0  0  0  0  0  0
   13.6186  -18.6521   23.3020 C   0  0  0  0  0  0  0  0  0  0  0  0
   12.5648  -18.0999   24.2274 C   0  0  0  0  0  0  0  0  0  0  0  0
   11.9081  -16.8712   23.7123 C   0  0  0  0  0  0  0  0  0  0  0  0
   10.4261  -16.7712   24.0039 C   0  0  2  0  0  0  0  0  0  0  0  0
    9.8895  -15.5160   23.5153 N   0  0  0  0  0  0  0  0  0  0  0  0
   10.0964  -16.8688   25.4363 C   0  0  0  0  0  0  0  0  0  0  0  0
    9.4265  -15.8473   26.0649 O   0  0  0  0  0  0  0  0  0  0  0  0
   10.4257  -17.8811   26.0866 O   0  0  0  0  0  0  0  0  0  0  0  0
  1  2  1  0
  2  3  2  0
  4  5  1  0
  4  2  1  0
  5  6  1  1
  7  8  2  0
  7  5  1  0
 10  9  1  1
 10 11  1  0
 11  7  1  0
 12 22  1  0
 12 10  1  0
 13 12  2  0
 15 14  1  0
 16 15  2  0
 17 15  1  0
 18 17  1  0
 19 18  1  0
 20 19  1  0
 21 20  1  1
 21 22  1  0
 23 21  1  0
 24 23  1  0
 25 23  2  0
M  END
$$$$
