NAR.pdb
     RDKit          3D

 25 24  0  0  1  0  0  0  0  0999 V2000
    6.1194  -17.8973   17.9570 N   0  0  0  0  0  0  0  0  0  0  0  0
    7.4725  -18.2113   18.2483 C   0  0  0  0  0  0  0  0  0  0  0  0
    8.1448  -19.0265   17.5826 O   0  0  0  0  0  0  0  0  0  0  0  0
    8.1142  -17.5387   19.3966 C   0  0  0  0  0  0  0  0  0  0  0  0
    7.0359  -16.7224   20.1212 C   0  0  2  0  0  0  0  0  0  0  0  0
    6.5415  -15.7758   19.1588 N   0  0  0  0  0  0  0  0  0  0  0  0
    7.7299  -16.0631   21.2567 C   0  0  0  0  0  0  0  0  0  0  0  0
    8.8158  -16.5435   21.6737 O   0  0  0  0  0  0  0  0  0  0  0  0
    7.2579  -13.0559   23.5287 C   0  0  0  0  0  0  0  0  0  0  0  0
    7.9302  -14.3469   23.0469 C   0  0  2  0  0  0  0  0  0  0  0  0
    7.2480  -14.9054   21.9209 N   0  0  0  0  0  0  0  0  0  0  0  0
    7.8200  -15.2901   24.1935 C   0  0  0  0  0  0  0  0  0  0  0  0
    6.6798  -15.5477   24.6557 O   0  0  0  0  0  0  0  0  0  0  0  0
    5.5576  -22.0532   25.0478 N   0  0  0  0  0  0  0  0  0  0  0  0
    5.5259  -21.3370   23.8301 C   0  0  0  0  0  0  0  0  0  0  0  0
    4.5540  -21.5266   22.9815 N   0  0  0  0  0  0  0  0  0  0  0  0
    6.5532  -20.3974   23.5087 N   0  0  0  0  0  0  0  0  0  0  0  0
    7.6169  -20.0480   24.4261 C   0  0  0  0  0  0  0  0  0  0  0  0
    7.5939  -18.5848   24.7868 C   0  0  0  0  0  0  0  0  0  0  0  0
    8.7237  -18.1709   25.6579 C   0  0  0  0  0  0  0  0  0  0  0  0
    8.7680  -16.6936   25.9845 C   0  0  2  0  0  0  0  0  0  0  0  0
    8.9531  -15.9062   24.7811 N   0  0  0  0  0  0  0  0  0  0  0  0
    9.8401  -16.3268   26.9257 C   0  0  0  0  0  0  0  0  0  0  0  0
    9.8090  -16.7789   28.2226 O   0  0  0  0  0  0  0  0  0  0  0  0
   10.7825  -15.6016   26.5489 O   0  0  0  0  0  0  0  0  0  0  0  0
  1  2  1  0
  2  3  2  0
  4  5  1  0
  4  2  1  0
  5  6  1  6
  7  8  2  0
  7  5  1  0
 10  9  1  1
 10 11  1  0
 11  7  1  0
 12 22  1  0
 12 10  1  0
 13 12  2  0
 15 14  1  0
 16 15  2  0
 17 15  1  0
 18 17  1  0
 19 18  1  0
 20 19  1  0
 21 20  1  6
 21 22  1  0
 23 21  1  0
 24 23  1  0
 25 23  2  0
M  END
$$$$
