NAR.pdb
     RDKit          3D

 25 24  0  0  1  0  0  0  0  0999 V2000
   13.6097  -17.6995   17.4448 N   0  0  0  0  0  0  0  0  0  0  0  0
   12.2310  -17.5294   17.1540 C   0  0  0  0  0  0  0  0  0  0  0  0
   11.6343  -18.1725   16.2652 O   0  0  0  0  0  0  0  0  0  0  0  0
   11.4670  -16.5418   17.9439 C   0  0  0  0  0  0  0  0  0  0  0  0
   10.6216  -17.3145   18.9649 C   0  0  2  0  0  0  0  0  0  0  0  0
    9.5990  -17.9837   18.2079 N   0  0  0  0  0  0  0  0  0  0  0  0
   10.0648  -16.2871   19.8814 C   0  0  0  0  0  0  0  0  0  0  0  0
   10.8538  -15.5602   20.5393 O   0  0  0  0  0  0  0  0  0  0  0  0
    6.6687  -15.0256   21.0238 C   0  0  0  0  0  0  0  0  0  0  0  0
    8.1965  -15.1469   21.0646 C   0  0  2  0  0  0  0  0  0  0  0  0
    8.6775  -16.0596   20.0742 N   0  0  0  0  0  0  0  0  0  0  0  0
    8.5040  -15.6947   22.4144 C   0  0  0  0  0  0  0  0  0  0  0  0
    8.7270  -16.9264   22.5294 O   0  0  0  0  0  0  0  0  0  0  0  0
   10.9283  -16.2656   29.7325 N   0  0  0  0  0  0  0  0  0  0  0  0
   10.6219  -14.9767   30.2241 C   0  0  0  0  0  0  0  0  0  0  0  0
   10.8491  -14.6790   31.4732 N   0  0  0  0  0  0  0  0  0  0  0  0
   10.0603  -13.9823   29.3656 N   0  0  0  0  0  0  0  0  0  0  0  0
   10.4740  -13.8037   27.9900 C   0  0  0  0  0  0  0  0  0  0  0  0
    9.9430  -14.8935   27.0944 C   0  0  0  0  0  0  0  0  0  0  0  0
    9.3962  -14.3902   25.8083 C   0  0  0  0  0  0  0  0  0  0  0  0
    9.0102  -15.4661   24.8159 C   0  0  2  0  0  0  0  0  0  0  0  0
    8.5535  -14.8781   23.5717 N   0  0  0  0  0  0  0  0  0  0  0  0
    7.9482  -16.3649   25.2998 C   0  0  0  0  0  0  0  0  0  0  0  0
    6.6303  -16.0931   25.0233 O   0  0  0  0  0  0  0  0  0  0  0  0
    8.2414  -17.3785   25.9653 O   0  0  0  0  0  0  0  0  0  0  0  0
  1  2  1  0
  2  3  2  0
  4  5  1  0
  4  2  1  0
  5  6  1  6
  7  8  2  0
  7  5  1  0
 10  9  1  1
 10 11  1  0
 11  7  1  0
 12 22  1  0
 12 10  1  0
 13 12  2  0
 15 14  1  0
 16 15  2  0
 17 15  1  0
 18 17  1  0
 19 18  1  0
 20 19  1  0
 21 20  1  1
 21 22  1  0
 23 21  1  0
 24 23  1  0
 25 23  2  0
M  END
$$$$
