NAR.pdb
     RDKit          3D

 25 24  0  0  1  0  0  0  0  0999 V2000
    6.4569  -18.3638   17.4824 N   0  0  0  0  0  0  0  0  0  0  0  0
    6.3786  -18.7753   18.8385 C   0  0  0  0  0  0  0  0  0  0  0  0
    5.5333  -19.5931   19.2582 O   0  0  0  0  0  0  0  0  0  0  0  0
    7.3467  -18.2057   19.7985 C   0  0  0  0  0  0  0  0  0  0  0  0
    8.1172  -17.0914   19.0782 C   0  0  2  0  0  0  0  0  0  0  0  0
    9.3178  -17.7010   18.5745 N   0  0  0  0  0  0  0  0  0  0  0  0
    8.3969  -16.0652   20.1146 C   0  0  0  0  0  0  0  0  0  0  0  0
    9.2835  -16.2921   20.9785 O   0  0  0  0  0  0  0  0  0  0  0  0
    7.2016  -12.5903   21.0788 C   0  0  0  0  0  0  0  0  0  0  0  0
    8.0387  -13.8666   21.2230 C   0  0  2  0  0  0  0  0  0  0  0  0
    7.7230  -14.8196   20.2046 N   0  0  0  0  0  0  0  0  0  0  0  0
    7.6561  -14.4312   22.5464 C   0  0  0  0  0  0  0  0  0  0  0  0
    6.4354  -14.5413   22.8255 O   0  0  0  0  0  0  0  0  0  0  0  0
    6.6661  -20.2703   21.5377 N   0  0  0  0  0  0  0  0  0  0  0  0
    7.3001  -20.8575   22.6558 C   0  0  0  0  0  0  0  0  0  0  0  0
    7.8793  -22.0207   22.5467 N   0  0  0  0  0  0  0  0  0  0  0  0
    7.3171  -20.1905   23.9193 N   0  0  0  0  0  0  0  0  0  0  0  0
    6.7071  -18.8957   24.1353 C   0  0  0  0  0  0  0  0  0  0  0  0
    7.7360  -17.8146   24.3457 C   0  0  0  0  0  0  0  0  0  0  0  0
    7.1458  -16.4706   24.5732 C   0  0  0  0  0  0  0  0  0  0  0  0
    8.1529  -15.3588   24.7755 C   0  0  2  0  0  0  0  0  0  0  0  0
    8.6177  -14.8477   23.5007 N   0  0  0  0  0  0  0  0  0  0  0  0
    9.3376  -15.7663   25.5503 C   0  0  0  0  0  0  0  0  0  0  0  0
   10.5865  -15.7281   24.9793 O   0  0  0  0  0  0  0  0  0  0  0  0
    9.2117  -16.1500   26.7306 O   0  0  0  0  0  0  0  0  0  0  0  0
  1  2  1  0
  2  3  2  0
  4  5  1  0
  4  2  1  0
  5  6  1  1
  7  8  2  0
  7  5  1  0
 10  9  1  6
 10 11  1  0
 11  7  1  0
 12 22  1  0
 12 10  1  0
 13 12  2  0
 15 14  1  0
 16 15  2  0
 17 15  1  0
 18 17  1  0
 19 18  1  0
 20 19  1  0
 21 20  1  6
 21 22  1  0
 23 21  1  0
 24 23  1  0
 25 23  2  0
M  END
$$$$
