NAR.pdb
     RDKit          3D

 25 24  0  0  1  0  0  0  0  0999 V2000
   10.4557  -17.3430   16.1742 N   0  0  0  0  0  0  0  0  0  0  0  0
    9.9471  -16.1481   15.6014 C   0  0  0  0  0  0  0  0  0  0  0  0
    9.4951  -16.0844   14.4390 O   0  0  0  0  0  0  0  0  0  0  0  0
    9.9545  -14.9208   16.4239 C   0  0  0  0  0  0  0  0  0  0  0  0
    8.5105  -14.6449   16.8630 C   0  0  2  0  0  0  0  0  0  0  0  0
    8.2967  -13.2376   16.6620 N   0  0  0  0  0  0  0  0  0  0  0  0
    8.4495  -15.0261   18.2971 C   0  0  0  0  0  0  0  0  0  0  0  0
    9.0347  -14.3068   19.1480 O   0  0  0  0  0  0  0  0  0  0  0  0
    6.9516  -17.7713   20.4545 C   0  0  0  0  0  0  0  0  0  0  0  0
    7.7852  -16.5149   20.1767 C   0  0  2  0  0  0  0  0  0  0  0  0
    7.7648  -16.1672   18.7896 N   0  0  0  0  0  0  0  0  0  0  0  0
    9.1759  -16.8821   20.5609 C   0  0  0  0  0  0  0  0  0  0  0  0
   10.0192  -17.0868   19.6515 O   0  0  0  0  0  0  0  0  0  0  0  0
   15.6914  -14.5231   19.4489 N   0  0  0  0  0  0  0  0  0  0  0  0
   14.7322  -14.4062   18.4179 C   0  0  0  0  0  0  0  0  0  0  0  0
   15.1033  -14.4408   17.1683 N   0  0  0  0  0  0  0  0  0  0  0  0
   13.3457  -14.2486   18.7251 N   0  0  0  0  0  0  0  0  0  0  0  0
   12.8339  -14.2441   20.0791 C   0  0  0  0  0  0  0  0  0  0  0  0
   12.0793  -15.5081   20.4020 C   0  0  0  0  0  0  0  0  0  0  0  0
   11.5138  -15.5268   21.7754 C   0  0  0  0  0  0  0  0  0  0  0  0
   10.9896  -16.8720   22.2301 C   0  0  2  0  0  0  0  0  0  0  0  0
    9.5815  -17.0092   21.9130 N   0  0  0  0  0  0  0  0  0  0  0  0
   11.1458  -17.1110   23.6752 C   0  0  0  0  0  0  0  0  0  0  0  0
   10.0401  -17.2353   24.4811 O   0  0  0  0  0  0  0  0  0  0  0  0
   12.2852  -17.2005   24.1752 O   0  0  0  0  0  0  0  0  0  0  0  0
  1  2  1  0
  2  3  2  0
  4  5  1  0
  4  2  1  0
  5  6  1  1
  7  8  2  0
  7  5  1  0
 10  9  1  6
 10 11  1  0
 11  7  1  0
 12 22  1  0
 12 10  1  0
 13 12  2  0
 15 14  1  0
 16 15  2  0
 17 15  1  0
 18 17  1  0
 19 18  1  0
 20 19  1  0
 21 20  1  1
 21 22  1  0
 23 21  1  0
 24 23  1  0
 25 23  2  0
M  END
$$$$
