NAR.pdb
     RDKit          3D

 25 24  0  0  1  0  0  0  0  0999 V2000
   15.8469  -27.1243   23.7673 N   0  0  0  0  0  0  0  0  0  0  0  0
   16.4514  -25.8487   23.9142 C   0  0  0  0  0  0  0  0  0  0  0  0
   16.6380  -25.0654   22.9596 O   0  0  0  0  0  0  0  0  0  0  0  0
   16.8802  -25.4300   25.2647 C   0  0  0  0  0  0  0  0  0  0  0  0
   15.7893  -24.5161   25.8380 C   0  0  2  0  0  0  0  0  0  0  0  0
   15.9340  -23.2546   25.1641 N   0  0  0  0  0  0  0  0  0  0  0  0
   16.0758  -24.4159   27.2918 C   0  0  0  0  0  0  0  0  0  0  0  0
   15.9337  -25.4351   28.0163 O   0  0  0  0  0  0  0  0  0  0  0  0
   17.5676  -21.9800   29.7614 C   0  0  0  0  0  0  0  0  0  0  0  0
   16.6894  -23.1695   29.3559 C   0  0  2  0  0  0  0  0  0  0  0  0
   16.5076  -23.2290   27.9387 N   0  0  0  0  0  0  0  0  0  0  0  0
   15.3719  -22.9135   30.0003 C   0  0  0  0  0  0  0  0  0  0  0  0
   14.4854  -22.3117   29.3430 O   0  0  0  0  0  0  0  0  0  0  0  0
    8.3622  -26.0372   33.6170 N   0  0  0  0  0  0  0  0  0  0  0  0
    9.0742  -26.6354   32.5531 C   0  0  0  0  0  0  0  0  0  0  0  0
    8.4822  -27.4882   31.7640 N   0  0  0  0  0  0  0  0  0  0  0  0
   10.4485  -26.3181   32.3246 N   0  0  0  0  0  0  0  0  0  0  0  0
   11.1683  -25.3291   33.0985 C   0  0  0  0  0  0  0  0  0  0  0  0
   11.5089  -24.1099   32.2804 C   0  0  0  0  0  0  0  0  0  0  0  0
   12.8240  -24.2034   31.5962 C   0  0  0  0  0  0  0  0  0  0  0  0
   13.7650  -23.0485   31.8646 C   0  0  2  0  0  0  0  0  0  0  0  0
   15.0829  -23.3232   31.3259 N   0  0  0  0  0  0  0  0  0  0  0  0
   13.9252  -22.7351   33.2949 C   0  0  0  0  0  0  0  0  0  0  0  0
   14.9973  -23.2295   33.9974 O   0  0  0  0  0  0  0  0  0  0  0  0
   13.0857  -22.0187   33.8764 O   0  0  0  0  0  0  0  0  0  0  0  0
  1  2  1  0
  2  3  2  0
  4  5  1  0
  4  2  1  0
  5  6  1  6
  7  8  2  0
  7  5  1  0
 10  9  1  6
 10 11  1  0
 11  7  1  0
 12 22  1  0
 12 10  1  0
 13 12  2  0
 15 14  1  0
 16 15  2  0
 17 15  1  0
 18 17  1  0
 19 18  1  0
 20 19  1  0
 21 20  1  1
 21 22  1  0
 23 21  1  0
 24 23  1  0
 25 23  2  0
M  END
$$$$
