NAR.pdb
     RDKit          3D

 25 24  0  0  1  0  0  0  0  0999 V2000
    9.8706  -14.5107   13.7612 N   0  0  0  0  0  0  0  0  0  0  0  0
    8.7347  -14.7520   14.5771 C   0  0  0  0  0  0  0  0  0  0  0  0
    7.7621  -15.4437   14.2095 O   0  0  0  0  0  0  0  0  0  0  0  0
    8.7046  -14.1536   15.9276 C   0  0  0  0  0  0  0  0  0  0  0  0
    9.0915  -15.2476   16.9314 C   0  0  2  0  0  0  0  0  0  0  0  0
    8.1256  -16.2991   16.7640 N   0  0  0  0  0  0  0  0  0  0  0  0
    9.0058  -14.6099   18.2699 C   0  0  0  0  0  0  0  0  0  0  0  0
    9.9021  -13.7994   18.6213 O   0  0  0  0  0  0  0  0  0  0  0  0
    7.2169  -13.2870   20.9335 C   0  0  0  0  0  0  0  0  0  0  0  0
    8.0925  -14.4952   20.5814 C   0  0  2  0  0  0  0  0  0  0  0  0
    7.9644  -14.8526   19.2027 N   0  0  0  0  0  0  0  0  0  0  0  0
    7.5677  -15.6088   21.4187 C   0  0  0  0  0  0  0  0  0  0  0  0
    6.3264  -15.8030   21.4554 O   0  0  0  0  0  0  0  0  0  0  0  0
   11.5564  -15.6138   28.8808 N   0  0  0  0  0  0  0  0  0  0  0  0
   10.4033  -14.7990   28.9352 C   0  0  0  0  0  0  0  0  0  0  0  0
   10.2488  -13.9433   29.9070 N   0  0  0  0  0  0  0  0  0  0  0  0
    9.3912  -14.8981   27.9314 N   0  0  0  0  0  0  0  0  0  0  0  0
    9.6780  -14.8354   26.5140 C   0  0  0  0  0  0  0  0  0  0  0  0
    8.4390  -15.0285   25.6779 C   0  0  0  0  0  0  0  0  0  0  0  0
    8.7196  -15.1719   24.2263 C   0  0  0  0  0  0  0  0  0  0  0  0
    8.2656  -16.4806   23.6161 C   0  0  2  0  0  0  0  0  0  0  0  0
    8.4167  -16.4556   22.1743 N   0  0  0  0  0  0  0  0  0  0  0  0
    6.8620  -16.8163   23.9109 C   0  0  0  0  0  0  0  0  0  0  0  0
    6.5534  -17.9635   24.6008 O   0  0  0  0  0  0  0  0  0  0  0  0
    5.9450  -16.0593   23.5334 O   0  0  0  0  0  0  0  0  0  0  0  0
  1  2  1  0
  2  3  2  0
  4  5  1  0
  4  2  1  0
  5  6  1  1
  7  8  2  0
  7  5  1  0
 10  9  1  6
 10 11  1  0
 11  7  1  0
 12 22  1  0
 12 10  1  0
 13 12  2  0
 15 14  1  0
 16 15  2  0
 17 15  1  0
 18 17  1  0
 19 18  1  0
 20 19  1  0
 21 20  1  6
 21 22  1  0
 23 21  1  0
 24 23  1  0
 25 23  2  0
M  END
$$$$
