NAR.pdb
     RDKit          3D

 25 24  0  0  1  0  0  0  0  0999 V2000
    7.4110  -17.3725   16.8966 N   0  0  0  0  0  0  0  0  0  0  0  0
    8.5850  -17.7585   16.1988 C   0  0  0  0  0  0  0  0  0  0  0  0
    9.1108  -18.8854   16.3141 O   0  0  0  0  0  0  0  0  0  0  0  0
    9.2135  -16.7760   15.2918 C   0  0  0  0  0  0  0  0  0  0  0  0
    8.4294  -15.4626   15.4113 C   0  0  2  0  0  0  0  0  0  0  0  0
    8.7379  -14.7073   14.2277 N   0  0  0  0  0  0  0  0  0  0  0  0
    8.9326  -14.8082   16.6459 C   0  0  0  0  0  0  0  0  0  0  0  0
   10.1619  -14.5596   16.7506 O   0  0  0  0  0  0  0  0  0  0  0  0
    7.5256  -13.2097   19.7813 C   0  0  0  0  0  0  0  0  0  0  0  0
    8.6412  -13.7474   18.8776 C   0  0  2  0  0  0  0  0  0  0  0  0
    8.1110  -14.4341   17.7407 N   0  0  0  0  0  0  0  0  0  0  0  0
    9.3874  -14.7195   19.7229 C   0  0  0  0  0  0  0  0  0  0  0  0
    9.0138  -15.9197   19.7355 O   0  0  0  0  0  0  0  0  0  0  0  0
   17.6164  -14.1163   19.3559 N   0  0  0  0  0  0  0  0  0  0  0  0
   16.6031  -13.9147   18.3918 C   0  0  0  0  0  0  0  0  0  0  0  0
   16.8814  -13.3337   17.2580 N   0  0  0  0  0  0  0  0  0  0  0  0
   15.2625  -14.3414   18.6414 N   0  0  0  0  0  0  0  0  0  0  0  0
   14.7023  -14.4424   19.9722 C   0  0  0  0  0  0  0  0  0  0  0  0
   13.3354  -15.0773   19.9631 C   0  0  0  0  0  0  0  0  0  0  0  0
   12.6829  -15.0993   21.2973 C   0  0  0  0  0  0  0  0  0  0  0  0
   11.1926  -15.3631   21.2731 C   0  0  2  0  0  0  0  0  0  0  0  0
   10.5016  -14.3402   20.5125 N   0  0  0  0  0  0  0  0  0  0  0  0
   10.5782  -15.4143   22.6109 C   0  0  0  0  0  0  0  0  0  0  0  0
    9.5933  -14.5211   22.9564 O   0  0  0  0  0  0  0  0  0  0  0  0
   10.9512  -16.2700   23.4385 O   0  0  0  0  0  0  0  0  0  0  0  0
  1  2  1  0
  2  3  2  0
  4  5  1  0
  4  2  1  0
  5  6  1  6
  7  8  2  0
  7  5  1  0
 10  9  1  1
 10 11  1  0
 11  7  1  0
 12 22  1  0
 12 10  1  0
 13 12  2  0
 15 14  1  0
 16 15  2  0
 17 15  1  0
 18 17  1  0
 19 18  1  0
 20 19  1  0
 21 20  1  1
 21 22  1  0
 23 21  1  0
 24 23  1  0
 25 23  2  0
M  END
$$$$
