NAR.pdb
     RDKit          3D

 25 24  0  0  1  0  0  0  0  0999 V2000
    7.7169  -18.7920   14.0073 N   0  0  0  0  0  0  0  0  0  0  0  0
    8.7351  -18.2444   14.8306 C   0  0  0  0  0  0  0  0  0  0  0  0
    9.7831  -17.7380   14.3780 O   0  0  0  0  0  0  0  0  0  0  0  0
    8.5423  -18.2769   16.2951 C   0  0  0  0  0  0  0  0  0  0  0  0
    9.7311  -17.5507   16.9382 C   0  0  2  0  0  0  0  0  0  0  0  0
   10.9076  -18.0680   16.2940 N   0  0  0  0  0  0  0  0  0  0  0  0
    9.6782  -17.8985   18.3811 C   0  0  0  0  0  0  0  0  0  0  0  0
    8.6703  -17.5630   19.0560 O   0  0  0  0  0  0  0  0  0  0  0  0
   11.6929  -19.9120   20.8860 C   0  0  0  0  0  0  0  0  0  0  0  0
   10.5623  -18.9766   20.4418 C   0  0  2  0  0  0  0  0  0  0  0  0
   10.7033  -18.5968   19.0703 N   0  0  0  0  0  0  0  0  0  0  0  0
   10.7069  -17.7649   21.2946 C   0  0  0  0  0  0  0  0  0  0  0  0
   11.5496  -16.8922   20.9654 O   0  0  0  0  0  0  0  0  0  0  0  0
    8.6600  -13.4144   18.3850 N   0  0  0  0  0  0  0  0  0  0  0  0
    8.1707  -12.8500   19.5845 C   0  0  0  0  0  0  0  0  0  0  0  0
    8.6668  -11.7310   20.0341 N   0  0  0  0  0  0  0  0  0  0  0  0
    7.1293  -13.4925   20.3222 N   0  0  0  0  0  0  0  0  0  0  0  0
    7.3275  -14.0498   21.6433 C   0  0  0  0  0  0  0  0  0  0  0  0
    8.5653  -14.9068   21.7151 C   0  0  0  0  0  0  0  0  0  0  0  0
    8.8143  -15.4770   23.0638 C   0  0  0  0  0  0  0  0  0  0  0  0
   10.0728  -16.3100   23.1807 C   0  0  2  0  0  0  0  0  0  0  0  0
    9.9297  -17.5613   22.4622 N   0  0  0  0  0  0  0  0  0  0  0  0
   10.4421  -16.6338   24.5694 C   0  0  0  0  0  0  0  0  0  0  0  0
   10.9991  -15.6750   25.3804 O   0  0  0  0  0  0  0  0  0  0  0  0
   10.2515  -17.7829   25.0159 O   0  0  0  0  0  0  0  0  0  0  0  0
  1  2  1  0
  2  3  2  0
  4  5  1  0
  4  2  1  0
  5  6  1  6
  7  8  2  0
  7  5  1  0
 10  9  1  1
 10 11  1  0
 11  7  1  0
 12 22  1  0
 12 10  1  0
 13 12  2  0
 15 14  1  0
 16 15  2  0
 17 15  1  0
 18 17  1  0
 19 18  1  0
 20 19  1  0
 21 20  1  1
 21 22  1  0
 23 21  1  0
 24 23  1  0
 25 23  2  0
M  END
$$$$
