NAR.pdb
     RDKit          3D

 25 24  0  0  1  0  0  0  0  0999 V2000
    4.9713  -21.2739   18.2037 N   0  0  0  0  0  0  0  0  0  0  0  0
    6.3547  -21.4969   18.4290 C   0  0  0  0  0  0  0  0  0  0  0  0
    7.1061  -22.0391   17.5917 O   0  0  0  0  0  0  0  0  0  0  0  0
    6.9310  -21.0651   19.7191 C   0  0  0  0  0  0  0  0  0  0  0  0
    8.4084  -21.4790   19.7318 C   0  0  2  0  0  0  0  0  0  0  0  0
    8.4182  -22.9159   19.6909 N   0  0  0  0  0  0  0  0  0  0  0  0
    8.9612  -20.9464   21.0032 C   0  0  0  0  0  0  0  0  0  0  0  0
    8.4796  -19.8886   21.4857 O   0  0  0  0  0  0  0  0  0  0  0  0
   11.6607  -21.8280   23.5270 C   0  0  0  0  0  0  0  0  0  0  0  0
   10.5032  -21.0011   22.9551 C   0  0  2  0  0  0  0  0  0  0  0  0
   10.0162  -21.5562   21.7304 N   0  0  0  0  0  0  0  0  0  0  0  0
   11.0875  -19.6602   22.6776 C   0  0  0  0  0  0  0  0  0  0  0  0
   11.6103  -19.4505   21.5539 O   0  0  0  0  0  0  0  0  0  0  0  0
    6.8319  -13.3494   19.9049 N   0  0  0  0  0  0  0  0  0  0  0  0
    8.1692  -12.8930   19.8997 C   0  0  0  0  0  0  0  0  0  0  0  0
    8.5045  -11.8496   19.1930 N   0  0  0  0  0  0  0  0  0  0  0  0
    9.1726  -13.5637   20.6645 N   0  0  0  0  0  0  0  0  0  0  0  0
    8.9056  -14.7545   21.4430 C   0  0  0  0  0  0  0  0  0  0  0  0
   10.1407  -15.2603   22.1432 C   0  0  0  0  0  0  0  0  0  0  0  0
   10.0237  -16.6652   22.6111 C   0  0  0  0  0  0  0  0  0  0  0  0
   11.2969  -17.2557   23.1782 C   0  0  2  0  0  0  0  0  0  0  0  0
   11.0753  -18.6142   23.6339 N   0  0  0  0  0  0  0  0  0  0  0  0
   11.8519  -16.4919   24.3088 C   0  0  0  0  0  0  0  0  0  0  0  0
   12.5534  -15.3322   24.0845 O   0  0  0  0  0  0  0  0  0  0  0  0
   11.6881  -16.8961   25.4776 O   0  0  0  0  0  0  0  0  0  0  0  0
  1  2  1  0
  2  3  2  0
  4  5  1  0
  4  2  1  0
  5  6  1  1
  7  8  2  0
  7  5  1  0
 10  9  1  6
 10 11  1  0
 11  7  1  0
 12 22  1  0
 12 10  1  0
 13 12  2  0
 15 14  1  0
 16 15  2  0
 17 15  1  0
 18 17  1  0
 19 18  1  0
 20 19  1  0
 21 20  1  1
 21 22  1  0
 23 21  1  0
 24 23  1  0
 25 23  2  0
M  END
$$$$
