VNA.pdb
     RDKit          3D

 21 20  0  0  1  0  0  0  0  0999 V2000
    7.9289  -14.5331   18.0795 C   0  0  0  0  0  0  0  0  0  0  0  0
    7.9627  -13.3778   19.0259 C   0  0  2  0  0  0  0  0  0  0  0  0
    7.9227  -12.1031   18.2222 C   0  0  0  0  0  0  0  0  0  0  0  0
    9.1657  -13.3748   19.9349 C   0  0  2  0  0  0  0  0  0  0  0  0
   10.3775  -13.2899   19.1421 N   0  0  0  0  0  0  0  0  0  0  0  0
    9.2238  -14.5783   20.7970 C   0  0  0  0  0  0  0  0  0  0  0  0
    8.2702  -14.8462   21.5706 O   0  0  0  0  0  0  0  0  0  0  0  0
   10.6856  -20.0408   21.2623 N   0  0  0  0  0  0  0  0  0  0  0  0
   11.4080  -18.9213   21.7752 C   0  0  0  0  0  0  0  0  0  0  0  0
   12.0483  -19.0788   22.8427 O   0  0  0  0  0  0  0  0  0  0  0  0
   11.3736  -17.6468   21.0429 C   0  0  0  0  0  0  0  0  0  0  0  0
   10.3237  -16.7139   21.5933 C   0  0  2  0  0  0  0  0  0  0  0  0
   10.3191  -15.4832   20.8124 N   0  0  0  0  0  0  0  0  0  0  0  0
   10.6487  -16.4131   23.0294 C   0  0  0  0  0  0  0  0  0  0  0  0
   11.8209  -16.0597   23.2609 O   0  0  0  0  0  0  0  0  0  0  0  0
    8.7757  -15.8416   26.2111 C   0  0  0  0  0  0  0  0  0  0  0  0
    9.9648  -16.2972   25.4200 C   0  0  2  0  0  0  0  0  0  0  0  0
    9.6852  -16.5257   24.0434 N   0  0  0  0  0  0  0  0  0  0  0  0
   10.6321  -17.4285   26.1201 C   0  0  0  0  0  0  0  0  0  0  0  0
   10.7440  -18.5250   25.5477 O   0  0  0  0  0  0  0  0  0  0  0  0
   11.1290  -17.2730   27.4007 O   0  0  0  0  0  0  0  0  0  0  0  0
  2  1  1  6
  2  4  1  0
  3  2  1  0
  4  6  1  0
  4  5  1  6
  6  7  2  0
  8  9  1  0
  9 10  2  0
  9 11  1  0
 12 11  1  6
 12 14  1  0
 13 12  1  0
 13  6  1  0
 14 15  2  0
 14 18  1  0
 17 16  1  1
 17 19  1  0
 18 17  1  0
 19 20  2  0
 19 21  1  0
M  END
$$$$
