VNA.pdb
     RDKit          3D

 21 20  0  0  1  0  0  0  0  0999 V2000
    7.6907  -13.6568   20.8390 C   0  0  0  0  0  0  0  0  0  0  0  0
    8.6474  -13.0111   19.8906 C   0  0  2  0  0  0  0  0  0  0  0  0
    7.9247  -11.9049   19.1652 C   0  0  0  0  0  0  0  0  0  0  0  0
    9.2526  -13.9689   18.8955 C   0  0  2  0  0  0  0  0  0  0  0  0
    8.1997  -14.6080   18.1294 N   0  0  0  0  0  0  0  0  0  0  0  0
   10.0873  -15.0053   19.5465 C   0  0  0  0  0  0  0  0  0  0  0  0
    9.6000  -16.1337   19.8094 O   0  0  0  0  0  0  0  0  0  0  0  0
   14.5732  -14.7320   18.1806 N   0  0  0  0  0  0  0  0  0  0  0  0
   14.0096  -15.8004   18.9414 C   0  0  0  0  0  0  0  0  0  0  0  0
   13.8079  -16.8916   18.3556 O   0  0  0  0  0  0  0  0  0  0  0  0
   13.6924  -15.5831   20.3606 C   0  0  0  0  0  0  0  0  0  0  0  0
   12.2262  -15.7954   20.6446 C   0  0  2  0  0  0  0  0  0  0  0  0
   11.4472  -14.8082   19.9076 N   0  0  0  0  0  0  0  0  0  0  0  0
   11.9920  -15.6406   22.1209 C   0  0  0  0  0  0  0  0  0  0  0  0
   12.7194  -14.8146   22.7049 O   0  0  0  0  0  0  0  0  0  0  0  0
    9.3700  -16.4082   24.6111 C   0  0  0  0  0  0  0  0  0  0  0  0
   10.8097  -16.3238   24.2022 C   0  0  2  0  0  0  0  0  0  0  0  0
   11.0114  -16.3847   22.7947 N   0  0  0  0  0  0  0  0  0  0  0  0
   11.6156  -17.2933   24.9933 C   0  0  0  0  0  0  0  0  0  0  0  0
   11.6155  -17.2246   26.2335 O   0  0  0  0  0  0  0  0  0  0  0  0
   12.3646  -18.2698   24.3636 O   0  0  0  0  0  0  0  0  0  0  0  0
  2  1  1  1
  2  4  1  0
  3  2  1  0
  4  6  1  0
  4  5  1  1
  6  7  2  0
  8  9  1  0
  9 10  2  0
  9 11  1  0
 12 11  1  1
 12 14  1  0
 13 12  1  0
 13  6  1  0
 14 15  2  0
 14 18  1  0
 17 16  1  6
 17 19  1  0
 18 17  1  0
 19 20  2  0
 19 21  1  0
M  END
$$$$
