VNA.pdb
     RDKit          3D

 21 20  0  0  1  0  0  0  0  0999 V2000
    7.1085  -12.7077   20.6081 C   0  0  0  0  0  0  0  0  0  0  0  0
    8.3554  -13.2968   20.0337 C   0  0  2  0  0  0  0  0  0  0  0  0
    8.5131  -12.7928   18.6218 C   0  0  0  0  0  0  0  0  0  0  0  0
    8.3742  -14.8045   20.0464 C   0  0  2  0  0  0  0  0  0  0  0  0
    7.3642  -15.3139   19.1385 N   0  0  0  0  0  0  0  0  0  0  0  0
    8.1450  -15.3597   21.4007 C   0  0  0  0  0  0  0  0  0  0  0  0
    6.9824  -15.6637   21.7688 O   0  0  0  0  0  0  0  0  0  0  0  0
    8.9663  -19.3141   23.8029 N   0  0  0  0  0  0  0  0  0  0  0  0
    9.8801  -18.3251   23.3286 C   0  0  0  0  0  0  0  0  0  0  0  0
   10.5332  -18.5841   22.2890 O   0  0  0  0  0  0  0  0  0  0  0  0
   10.0177  -17.0607   24.0663 C   0  0  0  0  0  0  0  0  0  0  0  0
    8.9367  -16.0763   23.6952 C   0  0  2  0  0  0  0  0  0  0  0  0
    9.1820  -15.5809   22.3464 N   0  0  0  0  0  0  0  0  0  0  0  0
    8.9614  -14.9380   24.6759 C   0  0  0  0  0  0  0  0  0  0  0  0
   10.0796  -14.4367   24.9018 O   0  0  0  0  0  0  0  0  0  0  0  0
    6.4288  -12.8527   26.5259 C   0  0  0  0  0  0  0  0  0  0  0  0
    7.7825  -13.4504   26.2863 C   0  0  2  0  0  0  0  0  0  0  0  0
    7.7919  -14.4726   25.2963 N   0  0  0  0  0  0  0  0  0  0  0  0
    8.4024  -13.8302   27.5852 C   0  0  0  0  0  0  0  0  0  0  0  0
    8.5565  -12.9695   28.4673 O   0  0  0  0  0  0  0  0  0  0  0  0
    8.8087  -15.1302   27.8212 O   0  0  0  0  0  0  0  0  0  0  0  0
  2  1  1  6
  2  4  1  0
  3  2  1  0
  4  6  1  0
  4  5  1  6
  6  7  2  0
  8  9  1  0
  9 10  2  0
  9 11  1  0
 12 11  1  1
 12 14  1  0
 13 12  1  0
 13  6  1  0
 14 15  2  0
 14 18  1  0
 17 16  1  1
 17 19  1  0
 18 17  1  0
 19 20  2  0
 19 21  1  0
M  END
$$$$
