VNA.pdb
     RDKit          3D

 21 20  0  0  1  0  0  0  0  0999 V2000
    7.3871  -12.4853   20.6298 C   0  0  0  0  0  0  0  0  0  0  0  0
    8.4053  -13.5133   20.2580 C   0  0  2  0  0  0  0  0  0  0  0  0
    8.7765  -13.3136   18.8108 C   0  0  0  0  0  0  0  0  0  0  0  0
    7.9425  -14.9313   20.4791 C   0  0  2  0  0  0  0  0  0  0  0  0
    6.8416  -15.2316   19.5837 N   0  0  0  0  0  0  0  0  0  0  0  0
    7.5208  -15.1750   21.8782 C   0  0  0  0  0  0  0  0  0  0  0  0
    6.3596  -14.8688   22.2490 O   0  0  0  0  0  0  0  0  0  0  0  0
    6.7268  -19.0597   22.8980 N   0  0  0  0  0  0  0  0  0  0  0  0
    6.6659  -18.1215   23.9724 C   0  0  0  0  0  0  0  0  0  0  0  0
    5.5381  -17.8599   24.4561 O   0  0  0  0  0  0  0  0  0  0  0  0
    7.9091  -17.5080   24.4623 C   0  0  0  0  0  0  0  0  0  0  0  0
    7.9264  -16.0176   24.2299 C   0  0  2  0  0  0  0  0  0  0  0  0
    8.3649  -15.7503   22.8657 N   0  0  0  0  0  0  0  0  0  0  0  0
    8.8742  -15.3860   25.2102 C   0  0  0  0  0  0  0  0  0  0  0  0
   10.0849  -15.6125   25.0217 O   0  0  0  0  0  0  0  0  0  0  0  0
    8.7362  -12.8350   27.9481 C   0  0  0  0  0  0  0  0  0  0  0  0
    9.2682  -14.0704   27.2862 C   0  0  2  0  0  0  0  0  0  0  0  0
    8.4165  -14.5903   26.2715 N   0  0  0  0  0  0  0  0  0  0  0  0
    9.6848  -15.0562   28.3206 C   0  0  0  0  0  0  0  0  0  0  0  0
   10.4565  -14.7052   29.2284 O   0  0  0  0  0  0  0  0  0  0  0  0
    9.2228  -16.3586   28.2827 O   0  0  0  0  0  0  0  0  0  0  0  0
  2  1  1  6
  2  4  1  0
  3  2  1  0
  4  6  1  0
  4  5  1  6
  6  7  2  0
  8  9  1  0
  9 10  2  0
  9 11  1  0
 12 11  1  1
 12 14  1  0
 13 12  1  0
 13  6  1  0
 14 15  2  0
 14 18  1  0
 17 16  1  1
 17 19  1  0
 18 17  1  0
 19 20  2  0
 19 21  1  0
M  END
$$$$
