VNA.pdb
     RDKit          3D

 21 20  0  0  1  0  0  0  0  0999 V2000
    7.3041  -12.5507   20.8198 C   0  0  0  0  0  0  0  0  0  0  0  0
    8.4728  -13.3748   20.3880 C   0  0  2  0  0  0  0  0  0  0  0  0
    8.8067  -13.0166   18.9623 C   0  0  0  0  0  0  0  0  0  0  0  0
    8.2421  -14.8604   20.5042 C   0  0  2  0  0  0  0  0  0  0  0  0
    7.2412  -15.2767   19.5405 N   0  0  0  0  0  0  0  0  0  0  0  0
    7.8125  -15.2593   21.8648 C   0  0  0  0  0  0  0  0  0  0  0  0
    6.5966  -15.2158   22.1801 O   0  0  0  0  0  0  0  0  0  0  0  0
    6.5891  -18.4237   25.8315 N   0  0  0  0  0  0  0  0  0  0  0  0
    7.9702  -18.1497   25.5955 C   0  0  0  0  0  0  0  0  0  0  0  0
    8.7754  -18.3553   26.5356 O   0  0  0  0  0  0  0  0  0  0  0  0
    8.3883  -17.6450   24.2793 C   0  0  0  0  0  0  0  0  0  0  0  0
    8.2673  -16.1439   24.1919 C   0  0  2  0  0  0  0  0  0  0  0  0
    8.7083  -15.7034   22.8743 N   0  0  0  0  0  0  0  0  0  0  0  0
    9.1279  -15.5263   25.2578 C   0  0  0  0  0  0  0  0  0  0  0  0
   10.3585  -15.6008   25.0765 O   0  0  0  0  0  0  0  0  0  0  0  0
    8.6368  -13.1874   28.1305 C   0  0  0  0  0  0  0  0  0  0  0  0
    9.3516  -14.2876   27.4053 C   0  0  2  0  0  0  0  0  0  0  0  0
    8.5726  -14.9048   26.3867 N   0  0  0  0  0  0  0  0  0  0  0  0
    9.9571  -15.2278   28.3875 C   0  0  0  0  0  0  0  0  0  0  0  0
   10.7059  -14.7897   29.2763 O   0  0  0  0  0  0  0  0  0  0  0  0
    9.6956  -16.5837   28.3221 O   0  0  0  0  0  0  0  0  0  0  0  0
  2  1  1  6
  2  4  1  0
  3  2  1  0
  4  6  1  0
  4  5  1  6
  6  7  2  0
  8  9  1  0
  9 10  2  0
  9 11  1  0
 12 11  1  6
 12 14  1  0
 13 12  1  0
 13  6  1  0
 14 15  2  0
 14 18  1  0
 17 16  1  1
 17 19  1  0
 18 17  1  0
 19 20  2  0
 19 21  1  0
M  END
$$$$
