VNA.pdb
     RDKit          3D

 21 20  0  0  1  0  0  0  0  0999 V2000
    7.8194  -12.4355   21.1309 C   0  0  0  0  0  0  0  0  0  0  0  0
    8.4583  -13.5230   20.3304 C   0  0  2  0  0  0  0  0  0  0  0  0
    7.7136  -13.6540   19.0263 C   0  0  0  0  0  0  0  0  0  0  0  0
    8.4943  -14.8541   21.0378 C   0  0  2  0  0  0  0  0  0  0  0  0
    7.1511  -15.3930   21.1347 N   0  0  0  0  0  0  0  0  0  0  0  0
    9.0854  -14.7566   22.3928 C   0  0  0  0  0  0  0  0  0  0  0  0
   10.2706  -14.3640   22.5366 O   0  0  0  0  0  0  0  0  0  0  0  0
    6.5893  -12.7146   25.5618 N   0  0  0  0  0  0  0  0  0  0  0  0
    6.7111  -14.1248   25.3759 C   0  0  0  0  0  0  0  0  0  0  0  0
    5.8039  -14.7100   24.7363 O   0  0  0  0  0  0  0  0  0  0  0  0
    7.8775  -14.8254   25.9330 C   0  0  0  0  0  0  0  0  0  0  0  0
    8.9758  -14.9830   24.9110 C   0  0  2  0  0  0  0  0  0  0  0  0
    8.3836  -15.0868   23.5831 N   0  0  0  0  0  0  0  0  0  0  0  0
    9.7561  -16.2277   25.2273 C   0  0  0  0  0  0  0  0  0  0  0  0
   10.1483  -16.3412   26.4045 O   0  0  0  0  0  0  0  0  0  0  0  0
   10.8127  -19.3577   23.4064 C   0  0  0  0  0  0  0  0  0  0  0  0
   10.9172  -18.2885   24.4519 C   0  0  2  0  0  0  0  0  0  0  0  0
   10.0234  -17.1994   24.2508 N   0  0  0  0  0  0  0  0  0  0  0  0
   12.3428  -17.9031   24.6374 C   0  0  0  0  0  0  0  0  0  0  0  0
   12.6770  -16.7122   24.5246 O   0  0  0  0  0  0  0  0  0  0  0  0
   13.2998  -18.8557   24.9338 O   0  0  0  0  0  0  0  0  0  0  0  0
  2  1  1  1
  2  4  1  0
  3  2  1  0
  4  6  1  0
  4  5  1  1
  6  7  2  0
  8  9  1  0
  9 10  2  0
  9 11  1  0
 12 11  1  1
 12 14  1  0
 13 12  1  0
 13  6  1  0
 14 15  2  0
 14 18  1  0
 17 16  1  6
 17 19  1  0
 18 17  1  0
 19 20  2  0
 19 21  1  0
M  END
$$$$
