VNA.pdb
     RDKit          3D

 21 20  0  0  1  0  0  0  0  0999 V2000
    7.6613  -12.7146   19.1169 C   0  0  0  0  0  0  0  0  0  0  0  0
    7.6410  -13.3745   20.4570 C   0  0  2  0  0  0  0  0  0  0  0  0
    8.5395  -12.5965   21.3841 C   0  0  0  0  0  0  0  0  0  0  0  0
    8.0638  -14.8215   20.4257 C   0  0  2  0  0  0  0  0  0  0  0  0
    7.2294  -15.5548   19.4928 N   0  0  0  0  0  0  0  0  0  0  0  0
    7.9892  -15.4596   21.7607 C   0  0  0  0  0  0  0  0  0  0  0  0
    6.8719  -15.7363   22.2655 O   0  0  0  0  0  0  0  0  0  0  0  0
   10.9517  -18.8985   25.7605 N   0  0  0  0  0  0  0  0  0  0  0  0
    9.7750  -18.2612   25.2633 C   0  0  0  0  0  0  0  0  0  0  0  0
    8.7636  -18.2410   26.0058 O   0  0  0  0  0  0  0  0  0  0  0  0
    9.7944  -17.6625   23.9205 C   0  0  0  0  0  0  0  0  0  0  0  0
    9.0425  -16.3554   23.8803 C   0  0  2  0  0  0  0  0  0  0  0  0
    9.1304  -15.7929   22.5385 N   0  0  0  0  0  0  0  0  0  0  0  0
    9.6567  -15.4130   24.8767 C   0  0  0  0  0  0  0  0  0  0  0  0
   10.8604  -15.1425   24.7015 O   0  0  0  0  0  0  0  0  0  0  0  0
    8.5767  -12.9004   27.3473 C   0  0  0  0  0  0  0  0  0  0  0  0
    9.4732  -14.0301   26.9383 C   0  0  2  0  0  0  0  0  0  0  0  0
    8.9137  -14.8738   25.9380 N   0  0  0  0  0  0  0  0  0  0  0  0
    9.9740  -14.7388   28.1475 C   0  0  0  0  0  0  0  0  0  0  0  0
   10.5005  -14.0896   29.0662 O   0  0  0  0  0  0  0  0  0  0  0  0
    9.8600  -16.1119   28.2602 O   0  0  0  0  0  0  0  0  0  0  0  0
  2  1  1  6
  2  4  1  0
  3  2  1  0
  4  6  1  0
  4  5  1  6
  6  7  2  0
  8  9  1  0
  9 10  2  0
  9 11  1  0
 12 11  1  6
 12 14  1  0
 13 12  1  0
 13  6  1  0
 14 15  2  0
 14 18  1  0
 17 16  1  1
 17 19  1  0
 18 17  1  0
 19 20  2  0
 19 21  1  0
M  END
$$$$
