IAA.pdb
     RDKit          3D

 19 18  0  0  1  0  0  0  0  0999 V2000
    5.6819  -11.3027   26.5246 C   0  0  0  0  0  0  0  0  0  0  0  0
    5.5055  -12.6433   25.9030 C   0  0  0  0  0  0  0  0  0  0  0  0
    6.7189  -13.4859   25.7872 C   0  0  2  0  0  0  0  0  0  0  0  0
    7.7615  -12.6867   25.0011 C   0  0  0  0  0  0  0  0  0  0  0  0
    6.5994  -14.8108   25.1635 C   0  0  2  0  0  0  0  0  0  0  0  0
    5.5176  -15.5899   25.7182 N   0  0  0  0  0  0  0  0  0  0  0  0
    7.8538  -15.5869   25.0647 C   0  0  0  0  0  0  0  0  0  0  0  0
    8.1372  -16.5300   25.8594 O   0  0  0  0  0  0  0  0  0  0  0  0
   10.7172  -15.7189   22.6589 C   0  0  0  0  0  0  0  0  0  0  0  0
   10.0122  -16.1833   23.8995 C   0  0  2  0  0  0  0  0  0  0  0  0
    8.8311  -15.3245   24.0651 N   0  0  0  0  0  0  0  0  0  0  0  0
   10.8830  -16.0712   25.1141 C   0  0  0  0  0  0  0  0  0  0  0  0
   11.9618  -16.7064   25.2057 O   0  0  0  0  0  0  0  0  0  0  0  0
   11.0396  -13.8419   28.1413 C   0  0  0  0  0  0  0  0  0  0  0  0
   11.1831  -15.1910   27.4763 C   0  0  2  0  0  0  0  0  0  0  0  0
   10.5108  -15.2420   26.1966 N   0  0  0  0  0  0  0  0  0  0  0  0
   10.7392  -16.2986   28.3168 C   0  0  0  0  0  0  0  0  0  0  0  0
   11.2950  -16.5225   29.4144 O   0  0  0  0  0  0  0  0  0  0  0  0
    9.6994  -17.1256   27.9264 O   0  0  0  0  0  0  0  0  0  0  0  0
  1  2  1  0
  2  3  1  0
  3  4  1  6
  5  3  1  0
  5  7  1  0
  5  6  1  1
  7  8  2  0
 10  9  1  6
 11  7  1  0
 11 10  1  0
 12 10  1  0
 12 16  1  0
 13 12  2  0
 15 14  1  1
 16 15  1  0
 17 15  1  0
 18 17  2  0
 19 17  1  0
M  END
$$$$
