IAA.pdb
     RDKit          3D

 19 18  0  0  1  0  0  0  0  0999 V2000
    7.6956  -13.0411   18.1823 C   0  0  0  0  0  0  0  0  0  0  0  0
    9.0576  -12.9218   18.7700 C   0  0  0  0  0  0  0  0  0  0  0  0
    9.4363  -13.9386   19.7792 C   0  0  2  0  0  0  0  0  0  0  0  0
    8.4367  -13.8361   20.9342 C   0  0  0  0  0  0  0  0  0  0  0  0
   10.7905  -13.8966   20.3475 C   0  0  2  0  0  0  0  0  0  0  0  0
   11.8154  -13.8099   19.3338 N   0  0  0  0  0  0  0  0  0  0  0  0
   11.0919  -14.9309   21.3599 C   0  0  0  0  0  0  0  0  0  0  0  0
   11.8773  -15.8973   21.1355 O   0  0  0  0  0  0  0  0  0  0  0  0
   10.3834  -15.3662   24.9980 C   0  0  0  0  0  0  0  0  0  0  0  0
   10.9031  -15.8849   23.6894 C   0  0  2  0  0  0  0  0  0  0  0  0
   10.5165  -14.9092   22.6606 N   0  0  0  0  0  0  0  0  0  0  0  0
   10.3236  -17.2242   23.3476 C   0  0  0  0  0  0  0  0  0  0  0  0
   10.5389  -18.2317   24.0647 O   0  0  0  0  0  0  0  0  0  0  0  0
    7.7968  -18.4247   20.7855 C   0  0  0  0  0  0  0  0  0  0  0  0
    8.9174  -18.6378   21.7763 C   0  0  2  0  0  0  0  0  0  0  0  0
    9.5137  -17.3903   22.2012 N   0  0  0  0  0  0  0  0  0  0  0  0
    9.9525  -19.5448   21.2903 C   0  0  0  0  0  0  0  0  0  0  0  0
    9.7175  -20.7672   21.1705 O   0  0  0  0  0  0  0  0  0  0  0  0
   11.2127  -19.0818   20.9511 O   0  0  0  0  0  0  0  0  0  0  0  0
  1  2  1  0
  2  3  1  0
  3  4  1  1
  5  3  1  0
  5  7  1  0
  5  6  1  6
  7  8  2  0
 10  9  1  1
 11  7  1  0
 11 10  1  0
 12 10  1  0
 12 16  1  0
 13 12  2  0
 15 14  1  6
 16 15  1  0
 17 15  1  0
 18 17  2  0
 19 17  1  0
M  END
$$$$
