IAA.pdb
     RDKit          3D

 19 18  0  0  1  0  0  0  0  0999 V2000
    7.7376  -12.1577   27.1865 C   0  0  0  0  0  0  0  0  0  0  0  0
    6.8319  -13.2107   26.6522 C   0  0  0  0  0  0  0  0  0  0  0  0
    7.4209  -14.1625   25.6812 C   0  0  2  0  0  0  0  0  0  0  0  0
    7.9319  -13.3481   24.4898 C   0  0  0  0  0  0  0  0  0  0  0  0
    6.5793  -15.2481   25.1598 C   0  0  2  0  0  0  0  0  0  0  0  0
    5.9563  -16.0202   26.2091 N   0  0  0  0  0  0  0  0  0  0  0  0
    7.2055  -16.1057   24.1313 C   0  0  0  0  0  0  0  0  0  0  0  0
    7.7613  -17.2083   24.4081 O   0  0  0  0  0  0  0  0  0  0  0  0
    7.2368  -16.1336   20.4010 C   0  0  0  0  0  0  0  0  0  0  0  0
    7.6852  -16.6864   21.7220 C   0  0  2  0  0  0  0  0  0  0  0  0
    7.2257  -15.7473   22.7549 N   0  0  0  0  0  0  0  0  0  0  0  0
    9.1763  -16.8180   21.7972 C   0  0  0  0  0  0  0  0  0  0  0  0
    9.8033  -17.5930   21.0344 O   0  0  0  0  0  0  0  0  0  0  0  0
   12.0180  -14.8134   22.9667 C   0  0  0  0  0  0  0  0  0  0  0  0
   11.3510  -16.1687   22.9347 C   0  0  2  0  0  0  0  0  0  0  0  0
    9.9219  -16.0682   22.7353 N   0  0  0  0  0  0  0  0  0  0  0  0
   11.6336  -16.9788   24.1155 C   0  0  0  0  0  0  0  0  0  0  0  0
   12.8140  -17.2325   24.4413 O   0  0  0  0  0  0  0  0  0  0  0  0
   10.6120  -17.4849   24.9015 O   0  0  0  0  0  0  0  0  0  0  0  0
  1  2  1  0
  2  3  1  0
  3  4  1  6
  5  3  1  0
  5  7  1  0
  5  6  1  1
  7  8  2  0
 10  9  1  6
 11  7  1  0
 11 10  1  0
 12 10  1  0
 12 16  1  0
 13 12  2  0
 15 14  1  1
 16 15  1  0
 17 15  1  0
 18 17  2  0
 19 17  1  0
M  END
$$$$
