IAA.pdb
     RDKit          3D

 19 18  0  0  1  0  0  0  0  0999 V2000
    7.7475  -11.6349   19.4572 C   0  0  0  0  0  0  0  0  0  0  0  0
    8.2477  -12.9515   18.9766 C   0  0  0  0  0  0  0  0  0  0  0  0
    8.2634  -14.0561   19.9643 C   0  0  2  0  0  0  0  0  0  0  0  0
    9.1319  -13.6083   21.1427 C   0  0  0  0  0  0  0  0  0  0  0  0
    8.7329  -15.3798   19.5331 C   0  0  2  0  0  0  0  0  0  0  0  0
    7.9972  -15.8875   18.3990 N   0  0  0  0  0  0  0  0  0  0  0  0
    8.8747  -16.3887   20.6045 C   0  0  0  0  0  0  0  0  0  0  0  0
    7.8822  -16.8683   21.2259 O   0  0  0  0  0  0  0  0  0  0  0  0
   11.6294  -18.5235   21.9111 C   0  0  0  0  0  0  0  0  0  0  0  0
   10.2646  -17.9168   22.0553 C   0  0  2  0  0  0  0  0  0  0  0  0
   10.1422  -16.8902   21.0108 N   0  0  0  0  0  0  0  0  0  0  0  0
   10.0721  -17.2837   23.4001 C   0  0  0  0  0  0  0  0  0  0  0  0
   10.6791  -16.2327   23.7205 O   0  0  0  0  0  0  0  0  0  0  0  0
    7.4430  -17.0675   25.8752 C   0  0  0  0  0  0  0  0  0  0  0  0
    8.9184  -17.3123   25.6613 C   0  0  2  0  0  0  0  0  0  0  0  0
    9.1961  -17.8564   24.3501 N   0  0  0  0  0  0  0  0  0  0  0  0
    9.5179  -18.1580   26.6888 C   0  0  0  0  0  0  0  0  0  0  0  0
    9.9743  -19.2844   26.3945 O   0  0  0  0  0  0  0  0  0  0  0  0
    9.5975  -17.7409   28.0069 O   0  0  0  0  0  0  0  0  0  0  0  0
  1  2  1  0
  2  3  1  0
  3  4  1  1
  5  3  1  0
  5  7  1  0
  5  6  1  6
  7  8  2  0
 10  9  1  1
 11  7  1  0
 11 10  1  0
 12 10  1  0
 12 16  1  0
 13 12  2  0
 15 14  1  1
 16 15  1  0
 17 15  1  0
 18 17  2  0
 19 17  1  0
M  END
$$$$
