IAA.pdb
     RDKit          3D

 19 18  0  0  1  0  0  0  0  0999 V2000
    6.6895  -10.5314   27.3569 C   0  0  0  0  0  0  0  0  0  0  0  0
    7.4157  -11.8282   27.2816 C   0  0  0  0  0  0  0  0  0  0  0  0
    7.0271  -12.7436   26.1831 C   0  0  2  0  0  0  0  0  0  0  0  0
    5.5893  -13.1975   26.4483 C   0  0  0  0  0  0  0  0  0  0  0  0
    7.8430  -13.9416   25.9428 C   0  0  2  0  0  0  0  0  0  0  0  0
    9.2585  -13.6823   26.0623 N   0  0  0  0  0  0  0  0  0  0  0  0
    7.5157  -14.7038   24.7190 C   0  0  0  0  0  0  0  0  0  0  0  0
    6.5584  -15.5295   24.6648 O   0  0  0  0  0  0  0  0  0  0  0  0
    7.8475  -14.4693   21.1667 C   0  0  0  0  0  0  0  0  0  0  0  0
    7.9865  -15.3969   22.3379 C   0  0  2  0  0  0  0  0  0  0  0  0
    8.2586  -14.5596   23.5146 N   0  0  0  0  0  0  0  0  0  0  0  0
    9.1096  -16.3716   22.1504 C   0  0  0  0  0  0  0  0  0  0  0  0
    9.1482  -17.1415   21.1599 O   0  0  0  0  0  0  0  0  0  0  0  0
   12.5339  -16.8505   22.6017 C   0  0  0  0  0  0  0  0  0  0  0  0
   11.2225  -17.4348   23.0723 C   0  0  2  0  0  0  0  0  0  0  0  0
   10.1626  -16.4507   23.0901 N   0  0  0  0  0  0  0  0  0  0  0  0
   11.3165  -18.0895   24.3734 C   0  0  0  0  0  0  0  0  0  0  0  0
   10.5603  -17.7489   25.3094 O   0  0  0  0  0  0  0  0  0  0  0  0
   12.2372  -19.0972   24.6064 O   0  0  0  0  0  0  0  0  0  0  0  0
  1  2  1  0
  2  3  1  0
  3  4  1  1
  5  3  1  0
  5  7  1  0
  5  6  1  6
  7  8  2  0
 10  9  1  6
 11  7  1  0
 11 10  1  0
 12 10  1  0
 12 16  1  0
 13 12  2  0
 15 14  1  1
 16 15  1  0
 17 15  1  0
 18 17  2  0
 19 17  1  0
M  END
$$$$
