IAA.pdb
     RDKit          3D

 19 18  0  0  1  0  0  0  0  0999 V2000
    7.4229  -12.0338   20.6584 C   0  0  0  0  0  0  0  0  0  0  0  0
    7.7031  -13.4928   20.5725 C   0  0  0  0  0  0  0  0  0  0  0  0
    7.7988  -14.2269   21.8562 C   0  0  2  0  0  0  0  0  0  0  0  0
    8.9274  -13.5878   22.6695 C   0  0  0  0  0  0  0  0  0  0  0  0
    8.0303  -15.6773   21.8225 C   0  0  2  0  0  0  0  0  0  0  0  0
    7.0554  -16.3765   21.0187 N   0  0  0  0  0  0  0  0  0  0  0  0
    8.2380  -16.3228   23.1362 C   0  0  0  0  0  0  0  0  0  0  0  0
    7.2797  -16.6486   23.8957 O   0  0  0  0  0  0  0  0  0  0  0  0
   10.7354  -18.4656   24.5600 C   0  0  0  0  0  0  0  0  0  0  0  0
    9.7231  -17.4019   24.8689 C   0  0  2  0  0  0  0  0  0  0  0  0
    9.5351  -16.6222   23.6373 N   0  0  0  0  0  0  0  0  0  0  0  0
   10.1832  -16.4926   25.9679 C   0  0  0  0  0  0  0  0  0  0  0  0
   11.0292  -16.8683   26.8157 O   0  0  0  0  0  0  0  0  0  0  0  0
    9.0959  -13.0275   27.1094 C   0  0  0  0  0  0  0  0  0  0  0  0
    9.9651  -14.2623   27.1607 C   0  0  2  0  0  0  0  0  0  0  0  0
    9.6737  -15.1790   26.0804 N   0  0  0  0  0  0  0  0  0  0  0  0
    9.8982  -14.9621   28.4398 C   0  0  0  0  0  0  0  0  0  0  0  0
   10.1845  -14.3679   29.5021 O   0  0  0  0  0  0  0  0  0  0  0  0
    9.5193  -16.2921   28.5127 O   0  0  0  0  0  0  0  0  0  0  0  0
  1  2  1  0
  2  3  1  0
  3  4  1  1
  5  3  1  0
  5  7  1  0
  5  6  1  1
  7  8  2  0
 10  9  1  6
 11  7  1  0
 11 10  1  0
 12 10  1  0
 12 16  1  0
 13 12  2  0
 15 14  1  1
 16 15  1  0
 17 15  1  0
 18 17  2  0
 19 17  1  0
M  END
$$$$
