IAA.pdb
     RDKit          3D

 19 18  0  0  1  0  0  0  0  0999 V2000
    5.9806  -10.6931   26.6203 C   0  0  0  0  0  0  0  0  0  0  0  0
    5.6086  -11.9728   25.9579 C   0  0  0  0  0  0  0  0  0  0  0  0
    6.6793  -12.9891   25.8292 C   0  0  2  0  0  0  0  0  0  0  0  0
    7.8082  -12.3671   25.0031 C   0  0  0  0  0  0  0  0  0  0  0  0
    6.3471  -14.2907   25.2341 C   0  0  2  0  0  0  0  0  0  0  0  0
    5.1261  -14.8487   25.7661 N   0  0  0  0  0  0  0  0  0  0  0  0
    7.4461  -15.2790   25.2025 C   0  0  0  0  0  0  0  0  0  0  0  0
    7.8075  -15.9307   26.2252 O   0  0  0  0  0  0  0  0  0  0  0  0
    9.8280  -16.5526   22.6074 C   0  0  0  0  0  0  0  0  0  0  0  0
    9.3023  -16.5075   24.0120 C   0  0  2  0  0  0  0  0  0  0  0  0
    8.1747  -15.5650   24.0148 N   0  0  0  0  0  0  0  0  0  0  0  0
   10.3427  -16.0414   24.9851 C   0  0  0  0  0  0  0  0  0  0  0  0
   11.1759  -15.1549   24.6761 O   0  0  0  0  0  0  0  0  0  0  0  0
   10.8029  -14.6167   27.6900 C   0  0  0  0  0  0  0  0  0  0  0  0
   11.1872  -16.0444   27.3791 C   0  0  2  0  0  0  0  0  0  0  0  0
   10.4143  -16.5910   26.2854 N   0  0  0  0  0  0  0  0  0  0  0  0
   11.1062  -16.9290   28.5373 C   0  0  0  0  0  0  0  0  0  0  0  0
   10.2627  -17.8515   28.5714 O   0  0  0  0  0  0  0  0  0  0  0  0
   11.9535  -16.7733   29.6215 O   0  0  0  0  0  0  0  0  0  0  0  0
  1  2  1  0
  2  3  1  0
  3  4  1  6
  5  3  1  0
  5  7  1  0
  5  6  1  1
  7  8  2  0
 10  9  1  6
 11  7  1  0
 11 10  1  0
 12 10  1  0
 12 16  1  0
 13 12  2  0
 15 14  1  1
 16 15  1  0
 17 15  1  0
 18 17  2  0
 19 17  1  0
M  END
$$$$
