VDK.pdb
     RDKit          3D

 25 24  0  0  1  0  0  0  0  0999 V2000
   17.8893  -11.3352  -19.3836 C   0  0  0  0  0  0  0  0  0  0  0  0
   17.3667  -11.9373  -18.1205 C   0  0  2  0  0  0  0  0  0  0  0  0
   16.2366  -11.1079  -17.5274 C   0  0  0  0  0  0  0  0  0  0  0  0
   18.4345  -12.0671  -17.0515 C   0  0  2  0  0  0  0  0  0  0  0  0
   18.1254  -13.1856  -16.1800 N   0  0  0  0  0  0  0  0  0  0  0  0
   18.5782  -10.8413  -16.2538 C   0  0  0  0  0  0  0  0  0  0  0  0
   17.8266  -10.5332  -15.2974 O   0  0  0  0  0  0  0  0  0  0  0  0
   19.6260   -9.8875  -16.5312 N   0  0  0  0  0  0  0  0  0  0  0  0
   19.7990   -8.6880  -15.7766 C   0  0  1  0  0  0  0  0  0  0  0  0
   21.2413   -8.2791  -15.6184 C   0  0  0  0  0  0  0  0  0  0  0  0
   21.4113   -7.1202  -14.7207 C   0  0  0  0  0  0  0  0  0  0  0  0
   21.9951   -6.1108  -15.1862 O   0  0  0  0  0  0  0  0  0  0  0  0
   18.9868   -7.5589  -16.3010 C   0  0  0  0  0  0  0  0  0  0  0  0
   18.6593   -7.5254  -17.5156 O   0  0  0  0  0  0  0  0  0  0  0  0
   20.9802   -7.0615  -13.4158 O   0  0  0  0  0  0  0  0  0  0  0  0
   18.5750   -6.5199  -15.4578 N   0  0  0  0  0  0  0  0  0  0  0  0
   17.6747   -5.4397  -15.8777 C   0  0  1  0  0  0  0  0  0  0  0  0
   16.3638   -6.1128  -16.2132 C   0  0  0  0  0  0  0  0  0  0  0  0
   15.2385   -5.1658  -16.4767 C   0  0  0  0  0  0  0  0  0  0  0  0
   13.9857   -5.9519  -16.7755 C   0  0  0  0  0  0  0  0  0  0  0  0
   12.8290   -5.0035  -17.0475 C   0  0  0  0  0  0  0  0  0  0  0  0
   11.6028   -5.7642  -17.2221 N   0  0  0  0  0  0  0  0  0  0  0  0
   17.5372   -4.5052  -14.7382 C   0  0  0  0  0  0  0  0  0  0  0  0
   17.2420   -3.1471  -14.9339 O   0  0  0  0  0  0  0  0  0  0  0  0
   17.6861   -4.9264  -13.5681 O   0  0  0  0  0  0  0  0  0  0  0  0
  2  1  1  6
  3  2  1  0
  4  2  1  0
  4  6  1  0
  4  5  1  1
  6  7  2  0
  8  9  1  0
  8  6  1  0
 10 11  1  0
  9 10  1  6
 11 12  2  0
 13  9  1  0
 13 14  2  0
 15 11  1  0
 16 13  1  0
 17 16  1  0
 17 23  1  0
 17 18  1  1
 19 18  1  0
 20 19  1  0
 21 22  1  0
 21 20  1  0
 23 25  2  0
 23 24  1  0
M  END
$$$$
