VDK.pdb
     RDKit          3D

 25 24  0  0  1  0  0  0  0  0999 V2000
   15.5409  -12.5121  -17.6789 C   0  0  0  0  0  0  0  0  0  0  0  0
   16.4991  -13.4581  -17.0324 C   0  0  2  0  0  0  0  0  0  0  0  0
   15.8055  -14.7300  -16.5657 C   0  0  0  0  0  0  0  0  0  0  0  0
   17.1872  -12.8549  -15.8232 C   0  0  2  0  0  0  0  0  0  0  0  0
   16.2629  -12.8030  -14.7055 N   0  0  0  0  0  0  0  0  0  0  0  0
   17.7148  -11.5103  -16.0937 C   0  0  0  0  0  0  0  0  0  0  0  0
   18.5640  -11.2541  -16.9814 O   0  0  0  0  0  0  0  0  0  0  0  0
   17.2742  -10.3668  -15.3303 N   0  0  0  0  0  0  0  0  0  0  0  0
   17.7779   -9.0493  -15.5510 C   0  0  1  0  0  0  0  0  0  0  0  0
   16.8633   -7.9627  -15.0460 C   0  0  0  0  0  0  0  0  0  0  0  0
   15.5358   -7.9882  -15.6900 C   0  0  0  0  0  0  0  0  0  0  0  0
   15.5020   -7.9391  -16.9442 O   0  0  0  0  0  0  0  0  0  0  0  0
   19.1548   -8.8661  -15.0214 C   0  0  0  0  0  0  0  0  0  0  0  0
   19.4182   -9.1633  -13.8274 O   0  0  0  0  0  0  0  0  0  0  0  0
   14.3351   -8.0614  -15.0229 O   0  0  0  0  0  0  0  0  0  0  0  0
   20.1753   -8.3630  -15.8371 N   0  0  0  0  0  0  0  0  0  0  0  0
   21.5682   -8.2146  -15.3991 C   0  0  1  0  0  0  0  0  0  0  0  0
   22.3993   -8.9156  -16.4486 C   0  0  0  0  0  0  0  0  0  0  0  0
   23.8657   -8.9278  -16.1617 C   0  0  0  0  0  0  0  0  0  0  0  0
   24.5759   -9.7198  -17.2316 C   0  0  0  0  0  0  0  0  0  0  0  0
   26.0476   -9.8665  -16.8796 C   0  0  0  0  0  0  0  0  0  0  0  0
   26.6657  -10.8464  -17.7574 N   0  0  0  0  0  0  0  0  0  0  0  0
   21.8651   -6.7657  -15.3398 C   0  0  0  0  0  0  0  0  0  0  0  0
   22.7268   -6.2321  -14.3689 O   0  0  0  0  0  0  0  0  0  0  0  0
   21.3401   -5.9896  -16.1708 O   0  0  0  0  0  0  0  0  0  0  0  0
  2  1  1  1
  3  2  1  0
  4  2  1  0
  4  6  1  0
  4  5  1  1
  6  7  2  0
  8  9  1  0
  8  6  1  0
 10 11  1  0
  9 10  1  1
 11 12  2  0
 13  9  1  0
 13 14  2  0
 15 11  1  0
 16 13  1  0
 17 16  1  0
 17 23  1  0
 17 18  1  6
 19 18  1  0
 20 19  1  0
 21 22  1  0
 21 20  1  0
 23 25  2  0
 23 24  1  0
M  END
$$$$
