VDK.pdb
     RDKit          3D

 25 24  0  0  1  0  0  0  0  0999 V2000
   26.1181   -8.9053  -15.3456 C   0  0  0  0  0  0  0  0  0  0  0  0
   25.1519  -10.0403  -15.2498 C   0  0  2  0  0  0  0  0  0  0  0  0
   25.7577  -11.3396  -15.7611 C   0  0  0  0  0  0  0  0  0  0  0  0
   23.8841   -9.7950  -16.0447 C   0  0  2  0  0  0  0  0  0  0  0  0
   24.1857   -9.7921  -17.4643 N   0  0  0  0  0  0  0  0  0  0  0  0
   23.2277   -8.5335  -15.6742 C   0  0  0  0  0  0  0  0  0  0  0  0
   22.7377   -8.3023  -14.5423 O   0  0  0  0  0  0  0  0  0  0  0  0
   23.1030   -7.4498  -16.6200 N   0  0  0  0  0  0  0  0  0  0  0  0
   22.4345   -6.2269  -16.3107 C   0  0  1  0  0  0  0  0  0  0  0  0
   23.2938   -5.0043  -16.5086 C   0  0  0  0  0  0  0  0  0  0  0  0
   24.3286   -4.8586  -15.4665 C   0  0  0  0  0  0  0  0  0  0  0  0
   23.9386   -4.6477  -14.2918 O   0  0  0  0  0  0  0  0  0  0  0  0
   21.1415   -6.0828  -17.0299 C   0  0  0  0  0  0  0  0  0  0  0  0
   21.1068   -6.1383  -18.2865 O   0  0  0  0  0  0  0  0  0  0  0  0
   25.6847   -4.9359  -15.6833 O   0  0  0  0  0  0  0  0  0  0  0  0
   19.9480   -5.8842  -16.3257 N   0  0  0  0  0  0  0  0  0  0  0  0
   18.6351   -5.7577  -16.9692 C   0  0  1  0  0  0  0  0  0  0  0  0
   17.9803   -7.1118  -16.8226 C   0  0  0  0  0  0  0  0  0  0  0  0
   16.6953   -7.2554  -17.5715 C   0  0  0  0  0  0  0  0  0  0  0  0
   16.1058   -8.6161  -17.2927 C   0  0  0  0  0  0  0  0  0  0  0  0
   14.7645   -8.7556  -17.9945 C   0  0  0  0  0  0  0  0  0  0  0  0
   14.1808  -10.0497  -17.6823 N   0  0  0  0  0  0  0  0  0  0  0  0
   17.8855   -4.7035  -16.2499 C   0  0  0  0  0  0  0  0  0  0  0  0
   17.1412   -3.7325  -16.9378 O   0  0  0  0  0  0  0  0  0  0  0  0
   17.9095   -4.6684  -14.9982 O   0  0  0  0  0  0  0  0  0  0  0  0
  2  1  1  6
  3  2  1  0
  4  2  1  0
  4  6  1  0
  4  5  1  6
  6  7  2  0
  8  9  1  0
  8  6  1  0
 10 11  1  0
  9 10  1  6
 11 12  2  0
 13  9  1  0
 13 14  2  0
 15 11  1  0
 16 13  1  0
 17 16  1  0
 17 23  1  0
 17 18  1  1
 19 18  1  0
 20 19  1  0
 21 22  1  0
 21 20  1  0
 23 25  2  0
 23 24  1  0
M  END
$$$$
