VDK.pdb
     RDKit          3D

 25 24  0  0  1  0  0  0  0  0999 V2000
   20.8721  -19.3098  -12.9474 C   0  0  0  0  0  0  0  0  0  0  0  0
   21.2626  -20.0848  -14.1631 C   0  0  2  0  0  0  0  0  0  0  0  0
   21.1398  -19.2469  -15.4279 C   0  0  0  0  0  0  0  0  0  0  0  0
   20.4109  -21.3234  -14.3631 C   0  0  2  0  0  0  0  0  0  0  0  0
   19.0516  -20.9380  -14.6952 N   0  0  0  0  0  0  0  0  0  0  0  0
   20.4047  -22.1942  -13.1795 C   0  0  0  0  0  0  0  0  0  0  0  0
   21.4393  -22.6672  -12.6497 O   0  0  0  0  0  0  0  0  0  0  0  0
   19.1690  -22.5699  -12.5343 N   0  0  0  0  0  0  0  0  0  0  0  0
   19.1245  -23.3953  -11.3703 C   0  0  1  0  0  0  0  0  0  0  0  0
   18.1070  -22.9466  -10.3526 C   0  0  0  0  0  0  0  0  0  0  0  0
   16.7848  -22.6740  -10.9487 C   0  0  0  0  0  0  0  0  0  0  0  0
   16.7630  -22.1865  -12.1056 O   0  0  0  0  0  0  0  0  0  0  0  0
   18.9440  -24.8347  -11.6950 C   0  0  0  0  0  0  0  0  0  0  0  0
   18.2170  -25.1787  -12.6627 O   0  0  0  0  0  0  0  0  0  0  0  0
   15.5770  -22.9125  -10.3351 O   0  0  0  0  0  0  0  0  0  0  0  0
   19.5759  -25.8257  -10.9344 N   0  0  0  0  0  0  0  0  0  0  0  0
   19.4850  -27.2602  -11.2304 C   0  0  1  0  0  0  0  0  0  0  0  0
   20.5847  -27.9106  -10.4233 C   0  0  0  0  0  0  0  0  0  0  0  0
   20.6273  -29.4001  -10.5339 C   0  0  0  0  0  0  0  0  0  0  0  0
   21.7067  -29.9362   -9.6262 C   0  0  0  0  0  0  0  0  0  0  0  0
   21.7728  -31.4512   -9.7350 C   0  0  0  0  0  0  0  0  0  0  0  0
   22.8143  -31.9601   -8.8582 N   0  0  0  0  0  0  0  0  0  0  0  0
   18.1443  -27.7197  -10.8037 C   0  0  0  0  0  0  0  0  0  0  0  0
   17.4768  -27.1297   -9.7193 O   0  0  0  0  0  0  0  0  0  0  0  0
   17.5840  -28.6562  -11.4182 O   0  0  0  0  0  0  0  0  0  0  0  0
  2  1  1  1
  3  2  1  0
  4  2  1  0
  4  6  1  0
  4  5  1  1
  6  7  2  0
  8  9  1  0
  8  6  1  0
 10 11  1  0
  9 10  1  1
 11 12  2  0
 13  9  1  0
 13 14  2  0
 15 11  1  0
 16 13  1  0
 17 16  1  0
 17 23  1  0
 17 18  1  1
 19 18  1  0
 20 19  1  0
 21 22  1  0
 21 20  1  0
 23 25  2  0
 23 24  1  0
M  END
$$$$
