VDK.pdb
     RDKit          3D

 25 24  0  0  1  0  0  0  0  0999 V2000
   14.6014  -13.6492  -14.0472 C   0  0  0  0  0  0  0  0  0  0  0  0
   15.1451  -12.4298  -14.7169 C   0  0  2  0  0  0  0  0  0  0  0  0
   16.6645  -12.3775  -14.6429 C   0  0  0  0  0  0  0  0  0  0  0  0
   14.6233  -11.1456  -14.1021 C   0  0  2  0  0  0  0  0  0  0  0  0
   14.1120  -10.2734  -15.1433 N   0  0  0  0  0  0  0  0  0  0  0  0
   15.6517  -10.4404  -13.3245 C   0  0  0  0  0  0  0  0  0  0  0  0
   16.2294  -10.9246  -12.3213 O   0  0  0  0  0  0  0  0  0  0  0  0
   16.0727   -9.1056  -13.6792 N   0  0  0  0  0  0  0  0  0  0  0  0
   16.9994   -8.3536  -12.8958 C   0  0  1  0  0  0  0  0  0  0  0  0
   18.1665   -7.8231  -13.6887 C   0  0  0  0  0  0  0  0  0  0  0  0
   18.9670   -8.8942  -14.3130 C   0  0  0  0  0  0  0  0  0  0  0  0
   19.6010   -9.6614  -13.5476 O   0  0  0  0  0  0  0  0  0  0  0  0
   16.3463   -7.2617  -12.1270 C   0  0  0  0  0  0  0  0  0  0  0  0
   15.4725   -6.5388  -12.6724 O   0  0  0  0  0  0  0  0  0  0  0  0
   19.0715   -9.1158  -15.6666 O   0  0  0  0  0  0  0  0  0  0  0  0
   16.6900   -7.0207  -10.7914 N   0  0  0  0  0  0  0  0  0  0  0  0
   16.1352   -5.9203   -9.9944 C   0  0  1  0  0  0  0  0  0  0  0  0
   14.6488   -6.1829   -9.9213 C   0  0  0  0  0  0  0  0  0  0  0  0
   14.2734   -7.3448   -9.0600 C   0  0  0  0  0  0  0  0  0  0  0  0
   12.7762   -7.5287   -9.0966 C   0  0  0  0  0  0  0  0  0  0  0  0
   12.3803   -8.7388   -8.2659 C   0  0  0  0  0  0  0  0  0  0  0  0
   10.9343   -8.8858   -8.2730 N   0  0  0  0  0  0  0  0  0  0  0  0
   16.7695   -5.9734   -8.6582 C   0  0  0  0  0  0  0  0  0  0  0  0
   16.4990   -5.0059   -7.6781 O   0  0  0  0  0  0  0  0  0  0  0  0
   17.5678   -6.8993   -8.3859 O   0  0  0  0  0  0  0  0  0  0  0  0
  2  1  1  1
  3  2  1  0
  4  2  1  0
  4  6  1  0
  4  5  1  6
  6  7  2  0
  8  9  1  0
  8  6  1  0
 10 11  1  0
  9 10  1  6
 11 12  2  0
 13  9  1  0
 13 14  2  0
 15 11  1  0
 16 13  1  0
 17 16  1  0
 17 23  1  0
 17 18  1  1
 19 18  1  0
 20 19  1  0
 21 22  1  0
 21 20  1  0
 23 25  2  0
 23 24  1  0
M  END
$$$$
