VDK.pdb
     RDKit          3D

 25 24  0  0  1  0  0  0  0  0999 V2000
   23.6801  -12.7129  -15.2868 C   0  0  0  0  0  0  0  0  0  0  0  0
   22.3628  -13.2895  -14.8824 C   0  0  2  0  0  0  0  0  0  0  0  0
   22.4572  -14.7880  -14.6332 C   0  0  0  0  0  0  0  0  0  0  0  0
   21.2876  -13.0776  -15.9305 C   0  0  2  0  0  0  0  0  0  0  0  0
   21.6350  -13.7936  -17.1442 N   0  0  0  0  0  0  0  0  0  0  0  0
   21.0778  -11.6556  -16.2360 C   0  0  0  0  0  0  0  0  0  0  0  0
   21.6246  -11.0542  -17.1921 O   0  0  0  0  0  0  0  0  0  0  0  0
   20.2023  -10.8389  -15.4292 N   0  0  0  0  0  0  0  0  0  0  0  0
   19.9342   -9.4681  -15.7244 C   0  0  1  0  0  0  0  0  0  0  0  0
   18.5018   -9.0682  -15.4782 C   0  0  0  0  0  0  0  0  0  0  0  0
   17.5454   -9.8350  -16.2998 C   0  0  0  0  0  0  0  0  0  0  0  0
   17.8211   -9.9868  -17.5153 O   0  0  0  0  0  0  0  0  0  0  0  0
   20.8658   -8.5399  -15.0313 C   0  0  0  0  0  0  0  0  0  0  0  0
   21.0944   -8.6744  -13.8012 O   0  0  0  0  0  0  0  0  0  0  0  0
   16.3774  -10.3950  -15.8369 O   0  0  0  0  0  0  0  0  0  0  0  0
   21.5007   -7.5068  -15.7310 N   0  0  0  0  0  0  0  0  0  0  0  0
   22.4197   -6.5470  -15.1079 C   0  0  1  0  0  0  0  0  0  0  0  0
   23.1767   -5.9110  -16.2508 C   0  0  0  0  0  0  0  0  0  0  0  0
   24.0983   -6.8424  -16.9690 C   0  0  0  0  0  0  0  0  0  0  0  0
   24.6411   -6.1563  -18.1984 C   0  0  0  0  0  0  0  0  0  0  0  0
   25.6440   -7.0595  -18.8981 C   0  0  0  0  0  0  0  0  0  0  0  0
   26.0117   -6.4820  -20.1803 N   0  0  0  0  0  0  0  0  0  0  0  0
   21.6003   -5.5576  -14.3728 C   0  0  0  0  0  0  0  0  0  0  0  0
   22.1351   -4.7984  -13.3204 O   0  0  0  0  0  0  0  0  0  0  0  0
   20.4007   -5.3865  -14.6895 O   0  0  0  0  0  0  0  0  0  0  0  0
  2  1  1  6
  3  2  1  0
  4  2  1  0
  4  6  1  0
  4  5  1  6
  6  7  2  0
  8  9  1  0
  8  6  1  0
 10 11  1  0
  9 10  1  1
 11 12  2  0
 13  9  1  0
 13 14  2  0
 15 11  1  0
 16 13  1  0
 17 16  1  0
 17 23  1  0
 17 18  1  6
 19 18  1  0
 20 19  1  0
 21 22  1  0
 21 20  1  0
 23 25  2  0
 23 24  1  0
M  END
$$$$
