VDK.pdb
     RDKit          3D

 25 24  0  0  1  0  0  0  0  0999 V2000
   21.7190  -14.6248  -18.0464 C   0  0  0  0  0  0  0  0  0  0  0  0
   20.3854  -15.2013  -17.6999 C   0  0  2  0  0  0  0  0  0  0  0  0
   20.0252  -16.3701  -18.6060 C   0  0  0  0  0  0  0  0  0  0  0  0
   19.2645  -14.1863  -17.8129 C   0  0  2  0  0  0  0  0  0  0  0  0
   18.7688  -14.1497  -19.1765 N   0  0  0  0  0  0  0  0  0  0  0  0
   19.6866  -12.8400  -17.4021 C   0  0  0  0  0  0  0  0  0  0  0  0
   19.9184  -12.5081  -16.2143 O   0  0  0  0  0  0  0  0  0  0  0  0
   19.8659  -11.7846  -18.3709 N   0  0  0  0  0  0  0  0  0  0  0  0
   20.1918  -10.4443  -18.0026 C   0  0  1  0  0  0  0  0  0  0  0  0
   21.1622   -9.7800  -18.9455 C   0  0  0  0  0  0  0  0  0  0  0  0
   22.5178  -10.3583  -18.8713 C   0  0  0  0  0  0  0  0  0  0  0  0
   22.9276  -10.9982  -19.8708 O   0  0  0  0  0  0  0  0  0  0  0  0
   18.9876   -9.5958  -17.8033 C   0  0  0  0  0  0  0  0  0  0  0  0
   18.1691   -9.4280  -18.7442 O   0  0  0  0  0  0  0  0  0  0  0  0
   23.3650  -10.2503  -17.7930 O   0  0  0  0  0  0  0  0  0  0  0  0
   18.7452   -8.9730  -16.5732 N   0  0  0  0  0  0  0  0  0  0  0  0
   17.5693   -8.1380  -16.3018 C   0  0  1  0  0  0  0  0  0  0  0  0
   16.6209   -9.0167  -15.5193 C   0  0  0  0  0  0  0  0  0  0  0  0
   15.3555   -8.3376  -15.1067 C   0  0  0  0  0  0  0  0  0  0  0  0
   14.5303   -9.2862  -14.2725 C   0  0  0  0  0  0  0  0  0  0  0  0
   13.2076   -8.6356  -13.9003 C   0  0  0  0  0  0  0  0  0  0  0  0
   12.5278   -9.4445  -12.9022 N   0  0  0  0  0  0  0  0  0  0  0  0
   18.0223   -6.9740  -15.5077 C   0  0  0  0  0  0  0  0  0  0  0  0
   18.8943   -7.1232  -14.4181 O   0  0  0  0  0  0  0  0  0  0  0  0
   17.6240   -5.8250  -15.8070 O   0  0  0  0  0  0  0  0  0  0  0  0
  2  1  1  6
  3  2  1  0
  4  2  1  0
  4  6  1  0
  4  5  1  6
  6  7  2  0
  8  9  1  0
  8  6  1  0
 10 11  1  0
  9 10  1  6
 11 12  2  0
 13  9  1  0
 13 14  2  0
 15 11  1  0
 16 13  1  0
 17 16  1  0
 17 23  1  0
 17 18  1  1
 19 18  1  0
 20 19  1  0
 21 22  1  0
 21 20  1  0
 23 25  2  0
 23 24  1  0
M  END
$$$$
