VDK.pdb
     RDKit          3D

 25 24  0  0  1  0  0  0  0  0999 V2000
   29.4460  -27.5416  -16.1638 C   0  0  0  0  0  0  0  0  0  0  0  0
   28.7053  -27.3807  -17.4509 C   0  0  2  0  0  0  0  0  0  0  0  0
   29.0080  -26.0428  -18.1108 C   0  0  0  0  0  0  0  0  0  0  0  0
   27.2017  -27.4607  -17.2718 C   0  0  2  0  0  0  0  0  0  0  0  0
   26.5494  -27.4368  -18.5681 N   0  0  0  0  0  0  0  0  0  0  0  0
   26.6802  -26.3721  -16.4337 C   0  0  0  0  0  0  0  0  0  0  0  0
   26.9456  -26.2347  -15.2150 O   0  0  0  0  0  0  0  0  0  0  0  0
   25.8034  -25.3630  -16.9793 N   0  0  0  0  0  0  0  0  0  0  0  0
   25.3056  -24.2713  -16.2057 C   0  0  1  0  0  0  0  0  0  0  0  0
   25.8047  -22.9270  -16.6705 C   0  0  0  0  0  0  0  0  0  0  0  0
   25.2551  -21.8088  -15.8797 C   0  0  0  0  0  0  0  0  0  0  0  0
   24.5979  -20.9345  -16.4962 O   0  0  0  0  0  0  0  0  0  0  0  0
   23.8228  -24.2736  -16.0992 C   0  0  0  0  0  0  0  0  0  0  0  0
   23.1139  -24.3148  -17.1380 O   0  0  0  0  0  0  0  0  0  0  0  0
   25.4073  -21.6516  -14.5217 O   0  0  0  0  0  0  0  0  0  0  0  0
   23.1940  -24.2302  -14.8492 N   0  0  0  0  0  0  0  0  0  0  0  0
   21.7397  -24.3049  -14.6670 C   0  0  1  0  0  0  0  0  0  0  0  0
   21.5321  -24.6854  -13.2193 C   0  0  0  0  0  0  0  0  0  0  0  0
   20.1015  -24.8849  -12.8371 C   0  0  0  0  0  0  0  0  0  0  0  0
   20.0330  -25.4372  -11.4347 C   0  0  0  0  0  0  0  0  0  0  0  0
   18.6003  -25.8145  -11.0936 C   0  0  0  0  0  0  0  0  0  0  0  0
   18.5551  -26.4236   -9.7747 N   0  0  0  0  0  0  0  0  0  0  0  0
   21.1830  -22.9672  -14.9693 C   0  0  0  0  0  0  0  0  0  0  0  0
   21.9527  -21.8023  -14.8266 O   0  0  0  0  0  0  0  0  0  0  0  0
   19.9985  -22.8617  -15.3622 O   0  0  0  0  0  0  0  0  0  0  0  0
  2  1  1  1
  3  2  1  0
  4  2  1  0
  4  6  1  0
  4  5  1  6
  6  7  2  0
  8  9  1  0
  8  6  1  0
 10 11  1  0
  9 10  1  6
 11 12  2  0
 13  9  1  0
 13 14  2  0
 15 11  1  0
 16 13  1  0
 17 16  1  0
 17 23  1  0
 17 18  1  1
 19 18  1  0
 20 19  1  0
 21 22  1  0
 21 20  1  0
 23 25  2  0
 23 24  1  0
M  END
$$$$
