VDK.pdb
     RDKit          3D

 25 24  0  0  1  0  0  0  0  0999 V2000
   27.1690  -17.7246  -14.3894 C   0  0  0  0  0  0  0  0  0  0  0  0
   27.7188  -18.8012  -15.2667 C   0  0  2  0  0  0  0  0  0  0  0  0
   26.9178  -18.9425  -16.5533 C   0  0  0  0  0  0  0  0  0  0  0  0
   27.7222  -20.1587  -14.5909 C   0  0  2  0  0  0  0  0  0  0  0  0
   28.3682  -21.1345  -15.4493 N   0  0  0  0  0  0  0  0  0  0  0  0
   26.3680  -20.6165  -14.2504 C   0  0  0  0  0  0  0  0  0  0  0  0
   25.6156  -21.2351  -15.0417 O   0  0  0  0  0  0  0  0  0  0  0  0
   25.8036  -20.3747  -12.9437 N   0  0  0  0  0  0  0  0  0  0  0  0
   24.5047  -20.8312  -12.5661 C   0  0  1  0  0  0  0  0  0  0  0  0
   24.2638  -20.7977  -11.0784 C   0  0  0  0  0  0  0  0  0  0  0  0
   25.2688  -21.5668  -10.3194 C   0  0  0  0  0  0  0  0  0  0  0  0
   25.7209  -22.6096  -10.8530 O   0  0  0  0  0  0  0  0  0  0  0  0
   23.4159  -20.1252  -13.2912 C   0  0  0  0  0  0  0  0  0  0  0  0
   23.3157  -18.8730  -13.2187 O   0  0  0  0  0  0  0  0  0  0  0  0
   25.7473  -21.2294   -9.0747 O   0  0  0  0  0  0  0  0  0  0  0  0
   22.4892  -20.8371  -14.0621 N   0  0  0  0  0  0  0  0  0  0  0  0
   21.4552  -20.1994  -14.8855 C   0  0  1  0  0  0  0  0  0  0  0  0
   21.3724  -21.0294  -16.1457 C   0  0  0  0  0  0  0  0  0  0  0  0
   20.4696  -22.2152  -16.0403 C   0  0  0  0  0  0  0  0  0  0  0  0
   20.4811  -22.9677  -17.3481 C   0  0  0  0  0  0  0  0  0  0  0  0
   19.6282  -24.2211  -17.2346 C   0  0  0  0  0  0  0  0  0  0  0  0
   19.6905  -24.9701  -18.4787 N   0  0  0  0  0  0  0  0  0  0  0  0
   20.1895  -20.2355  -14.1191 C   0  0  0  0  0  0  0  0  0  0  0  0
   19.0918  -19.4372  -14.4765 O   0  0  0  0  0  0  0  0  0  0  0  0
   20.0856  -20.9925  -13.1268 O   0  0  0  0  0  0  0  0  0  0  0  0
  2  1  1  1
  3  2  1  0
  4  2  1  0
  4  6  1  0
  4  5  1  6
  6  7  2  0
  8  9  1  0
  8  6  1  0
 10 11  1  0
  9 10  1  1
 11 12  2  0
 13  9  1  0
 13 14  2  0
 15 11  1  0
 16 13  1  0
 17 16  1  0
 17 23  1  0
 17 18  1  6
 19 18  1  0
 20 19  1  0
 21 22  1  0
 21 20  1  0
 23 25  2  0
 23 24  1  0
M  END
$$$$
