VDK.pdb
     RDKit          3D

 25 24  0  0  1  0  0  0  0  0999 V2000
   25.8083  -19.7279  -15.3752 C   0  0  0  0  0  0  0  0  0  0  0  0
   24.3905  -20.0530  -15.7149 C   0  0  2  0  0  0  0  0  0  0  0  0
   24.2732  -21.4037  -16.4067 C   0  0  0  0  0  0  0  0  0  0  0  0
   23.7608  -19.0240  -16.6336 C   0  0  2  0  0  0  0  0  0  0  0  0
   24.3937  -19.0761  -17.9386 N   0  0  0  0  0  0  0  0  0  0  0  0
   23.8520  -17.6611  -16.0917 C   0  0  0  0  0  0  0  0  0  0  0  0
   23.3891  -17.3153  -14.9778 O   0  0  0  0  0  0  0  0  0  0  0  0
   24.5003  -16.6044  -16.8317 N   0  0  0  0  0  0  0  0  0  0  0  0
   24.5631  -15.2577  -16.3618 C   0  0  1  0  0  0  0  0  0  0  0  0
   25.9631  -14.7008  -16.3160 C   0  0  0  0  0  0  0  0  0  0  0  0
   26.0191  -13.3423  -15.7423 C   0  0  0  0  0  0  0  0  0  0  0  0
   25.8683  -12.3766  -16.5305 O   0  0  0  0  0  0  0  0  0  0  0  0
   23.6590  -14.3465  -17.1114 C   0  0  0  0  0  0  0  0  0  0  0  0
   23.5944  -14.4107  -18.3664 O   0  0  0  0  0  0  0  0  0  0  0  0
   26.2233  -13.0536  -14.4130 O   0  0  0  0  0  0  0  0  0  0  0  0
   22.8689  -13.4072  -16.4379 N   0  0  0  0  0  0  0  0  0  0  0  0
   21.9223  -12.5092  -17.1096 C   0  0  1  0  0  0  0  0  0  0  0  0
   20.6375  -12.6120  -16.3206 C   0  0  0  0  0  0  0  0  0  0  0  0
   19.5409  -11.7268  -16.8171 C   0  0  0  0  0  0  0  0  0  0  0  0
   18.3201  -11.9120  -15.9499 C   0  0  0  0  0  0  0  0  0  0  0  0
   17.2238  -10.9519  -16.3831 C   0  0  0  0  0  0  0  0  0  0  0  0
   16.1303  -10.9936  -15.4264 N   0  0  0  0  0  0  0  0  0  0  0  0
   22.4907  -11.1435  -17.0596 C   0  0  0  0  0  0  0  0  0  0  0  0
   21.9416  -10.0918  -17.8095 O   0  0  0  0  0  0  0  0  0  0  0  0
   23.4848  -10.9107  -16.3343 O   0  0  0  0  0  0  0  0  0  0  0  0
  2  1  1  6
  3  2  1  0
  4  2  1  0
  4  6  1  0
  4  5  1  6
  6  7  2  0
  8  9  1  0
  8  6  1  0
 10 11  1  0
  9 10  1  6
 11 12  2  0
 13  9  1  0
 13 14  2  0
 15 11  1  0
 16 13  1  0
 17 16  1  0
 17 23  1  0
 17 18  1  1
 19 18  1  0
 20 19  1  0
 21 22  1  0
 21 20  1  0
 23 25  2  0
 23 24  1  0
M  END
$$$$
