WSQ.pdb
     RDKit          3D

 30 31  0  0  1  0  0  0  0  0999 V2000
    6.6660  -17.8407   24.6529 N   0  0  0  0  0  0  0  0  0  0  0  0
    7.5417  -16.8537   24.1215 C   0  0  1  0  0  0  0  0  0  0  0  0
    8.2260  -15.9823   25.1298 C   0  0  0  0  0  0  0  0  0  0  0  0
    7.2740  -15.0086   25.7213 C   0  0  0  0  0  0  0  0  0  0  0  0
    6.0401  -15.3510   26.2738 C   0  0  0  0  0  0  0  0  0  0  0  0
    5.3922  -14.2634   26.7088 N   0  0  0  0  0  0  0  0  0  0  0  0
    6.1925  -13.2090   26.4461 C   0  0  0  0  0  0  0  0  0  0  0  0
    6.0286  -11.8543   26.6842 C   0  0  0  0  0  0  0  0  0  0  0  0
    7.0163  -10.9681   26.3177 C   0  0  0  0  0  0  0  0  0  0  0  0
    8.1686  -11.3809   25.7194 C   0  0  0  0  0  0  0  0  0  0  0  0
    8.3496  -12.7457   25.4718 C   0  0  0  0  0  0  0  0  0  0  0  0
    7.3619  -13.6337   25.8373 C   0  0  0  0  0  0  0  0  0  0  0  0
    8.5817  -17.4025   23.2253 C   0  0  0  0  0  0  0  0  0  0  0  0
    9.1391  -18.4770   23.5922 O   0  0  0  0  0  0  0  0  0  0  0  0
   10.4437  -15.3568   20.0617 O   0  0  0  0  0  0  0  0  0  0  0  0
   10.1814  -16.7150   19.8837 C   0  0  0  0  0  0  0  0  0  0  0  0
   10.0754  -17.3967   21.2438 C   0  0  2  0  0  0  0  0  0  0  0  0
    9.0045  -16.8429   22.0110 N   0  0  0  0  0  0  0  0  0  0  0  0
   11.3961  -17.2323   21.8887 C   0  0  0  0  0  0  0  0  0  0  0  0
   11.5979  -16.2038   22.5842 O   0  0  0  0  0  0  0  0  0  0  0  0
   14.3009  -21.9240   23.7869 N   0  0  0  0  0  0  0  0  0  0  0  0
   13.8207  -20.9505   24.6983 C   0  0  0  0  0  0  0  0  0  0  0  0
   13.8104  -21.2179   25.9187 O   0  0  0  0  0  0  0  0  0  0  0  0
   13.3504  -19.6533   24.1603 C   0  0  0  0  0  0  0  0  0  0  0  0
   14.2387  -19.2261   23.0113 C   0  0  0  0  0  0  0  0  0  0  0  0
   13.7416  -17.9142   22.4047 C   0  0  2  0  0  0  0  0  0  0  0  0
   12.4504  -18.1625   21.7726 N   0  0  0  0  0  0  0  0  0  0  0  0
   14.7326  -17.3932   21.4584 C   0  0  0  0  0  0  0  0  0  0  0  0
   15.9837  -17.0275   21.9334 O   0  0  0  0  0  0  0  0  0  0  0  0
   14.5102  -17.2571   20.2248 O   0  0  0  0  0  0  0  0  0  0  0  0
  2  1  1  1
  2  3  1  0
  2 13  1  0
  3  4  1  0
  4 12  1  0
  4  5  2  0
  5  6  1  0
  7  6  1  0
  7  8  2  0
  9  8  1  0
 10  9  2  0
 11 12  2  0
 11 10  1  0
 12  7  1  0
 13 14  2  0
 16 15  1  0
 17 16  1  6
 17 19  1  0
 18 13  1  0
 18 17  1  0
 19 27  1  0
 19 20  2  0
 21 22  1  0
 22 23  2  0
 24 22  1  0
 24 25  1  0
 26 25  1  6
 26 28  1  0
 27 26  1  0
 28 30  2  0
 28 29  1  0
M  END
$$$$
