WSQ.pdb
     RDKit          3D

 30 31  0  0  1  0  0  0  0  0999 V2000
    6.9292  -17.6772   24.3740 N   0  0  0  0  0  0  0  0  0  0  0  0
    7.7390  -16.5979   23.9236 C   0  0  1  0  0  0  0  0  0  0  0  0
    8.3675  -15.7652   24.9988 C   0  0  0  0  0  0  0  0  0  0  0  0
    7.3735  -14.8433   25.6039 C   0  0  0  0  0  0  0  0  0  0  0  0
    6.1771  -15.2525   26.1923 C   0  0  0  0  0  0  0  0  0  0  0  0
    5.4756  -14.2004   26.6318 N   0  0  0  0  0  0  0  0  0  0  0  0
    6.2034  -13.1031   26.3363 C   0  0  0  0  0  0  0  0  0  0  0  0
    5.9637  -11.7578   26.5631 C   0  0  0  0  0  0  0  0  0  0  0  0
    6.8860  -10.8184   26.1609 C   0  0  0  0  0  0  0  0  0  0  0  0
    8.0458  -11.1685   25.5374 C   0  0  0  0  0  0  0  0  0  0  0  0
    8.3029  -12.5229   25.3007 C   0  0  0  0  0  0  0  0  0  0  0  0
    7.3806  -13.4642   25.7020 C   0  0  0  0  0  0  0  0  0  0  0  0
    8.8107  -17.0077   22.9912 C   0  0  0  0  0  0  0  0  0  0  0  0
    9.4606  -18.0495   23.2948 O   0  0  0  0  0  0  0  0  0  0  0  0
    9.3956  -16.2619   19.0002 O   0  0  0  0  0  0  0  0  0  0  0  0
   10.4642  -15.8622   19.8025 C   0  0  0  0  0  0  0  0  0  0  0  0
   10.4065  -16.6019   21.1349 C   0  0  2  0  0  0  0  0  0  0  0  0
    9.1705  -16.3499   21.8063 N   0  0  0  0  0  0  0  0  0  0  0  0
   11.5866  -16.1525   21.9047 C   0  0  0  0  0  0  0  0  0  0  0  0
   11.5658  -15.0022   22.4135 O   0  0  0  0  0  0  0  0  0  0  0  0
   11.8269  -18.6746   26.6592 N   0  0  0  0  0  0  0  0  0  0  0  0
   12.7040  -18.6081   25.5477 C   0  0  0  0  0  0  0  0  0  0  0  0
   12.9906  -19.6614   24.9399 O   0  0  0  0  0  0  0  0  0  0  0  0
   13.2441  -17.2863   25.1548 C   0  0  0  0  0  0  0  0  0  0  0  0
   14.1859  -17.4494   23.9807 C   0  0  0  0  0  0  0  0  0  0  0  0
   13.8648  -16.4313   22.8868 C   0  0  2  0  0  0  0  0  0  0  0  0
   12.7413  -16.9376   22.1059 N   0  0  0  0  0  0  0  0  0  0  0  0
   15.0525  -16.1924   22.0614 C   0  0  0  0  0  0  0  0  0  0  0  0
   15.0016  -16.5028   20.7102 O   0  0  0  0  0  0  0  0  0  0  0  0
   16.1285  -15.7161   22.5141 O   0  0  0  0  0  0  0  0  0  0  0  0
  2  1  1  1
  2  3  1  0
  2 13  1  0
  3  4  1  0
  4 12  1  0
  4  5  2  0
  5  6  1  0
  7  6  1  0
  7  8  2  0
  9  8  1  0
 10  9  2  0
 11 12  2  0
 11 10  1  0
 12  7  1  0
 13 14  2  0
 16 15  1  0
 17 16  1  6
 17 19  1  0
 18 13  1  0
 18 17  1  0
 19 27  1  0
 19 20  2  0
 21 22  1  0
 22 23  2  0
 24 22  1  0
 24 25  1  0
 26 25  1  1
 26 28  1  0
 27 26  1  0
 28 30  2  0
 28 29  1  0
M  END
$$$$
