WSQ.pdb
     RDKit          3D

 30 31  0  0  1  0  0  0  0  0999 V2000
    7.0519  -17.3810   25.0625 N   0  0  0  0  0  0  0  0  0  0  0  0
    7.5758  -16.9498   23.8123 C   0  0  1  0  0  0  0  0  0  0  0  0
    7.4083  -15.4929   23.5060 C   0  0  0  0  0  0  0  0  0  0  0  0
    6.7467  -14.7874   24.6324 C   0  0  0  0  0  0  0  0  0  0  0  0
    5.5888  -15.2339   25.2687 C   0  0  0  0  0  0  0  0  0  0  0  0
    5.2138  -14.3831   26.2319 N   0  0  0  0  0  0  0  0  0  0  0  0
    6.1178  -13.3812   26.2326 C   0  0  0  0  0  0  0  0  0  0  0  0
    6.2222  -12.2436   27.0160 C   0  0  0  0  0  0  0  0  0  0  0  0
    7.2625  -11.3647   26.8155 C   0  0  0  0  0  0  0  0  0  0  0  0
    8.2095  -11.5756   25.8590 C   0  0  0  0  0  0  0  0  0  0  0  0
    8.1184  -12.7195   25.0592 C   0  0  0  0  0  0  0  0  0  0  0  0
    7.0775  -13.5998   25.2581 C   0  0  0  0  0  0  0  0  0  0  0  0
    9.0021  -17.2868   23.6175 C   0  0  0  0  0  0  0  0  0  0  0  0
    9.6469  -17.6459   24.6448 O   0  0  0  0  0  0  0  0  0  0  0  0
   11.3349  -16.1201   20.4278 O   0  0  0  0  0  0  0  0  0  0  0  0
   11.5888  -17.4168   20.8743 C   0  0  0  0  0  0  0  0  0  0  0  0
   11.0904  -17.5697   22.3074 C   0  0  2  0  0  0  0  0  0  0  0  0
    9.7021  -17.2451   22.4032 N   0  0  0  0  0  0  0  0  0  0  0  0
   11.9488  -16.6953   23.1355 C   0  0  0  0  0  0  0  0  0  0  0  0
   11.5261  -15.5474   23.4291 O   0  0  0  0  0  0  0  0  0  0  0  0
   11.3117  -15.9323   28.8659 N   0  0  0  0  0  0  0  0  0  0  0  0
   12.1957  -16.9275   28.3790 C   0  0  0  0  0  0  0  0  0  0  0  0
   12.1062  -18.0890   28.8306 O   0  0  0  0  0  0  0  0  0  0  0  0
   13.1909  -16.5439   27.3515 C   0  0  0  0  0  0  0  0  0  0  0  0
   12.7185  -17.0028   25.9883 C   0  0  0  0  0  0  0  0  0  0  0  0
   13.7073  -16.5763   24.9036 C   0  0  2  0  0  0  0  0  0  0  0  0
   13.2197  -17.0698   23.6202 N   0  0  0  0  0  0  0  0  0  0  0  0
   15.0465  -17.0812   25.2206 C   0  0  0  0  0  0  0  0  0  0  0  0
   16.0563  -16.1713   25.4979 O   0  0  0  0  0  0  0  0  0  0  0  0
   15.3358  -18.3079   25.2557 O   0  0  0  0  0  0  0  0  0  0  0  0
  2  1  1  1
  2  3  1  0
  2 13  1  0
  3  4  1  0
  4 12  1  0
  4  5  2  0
  5  6  1  0
  7  6  1  0
  7  8  2  0
  9  8  1  0
 10  9  2  0
 11 12  2  0
 11 10  1  0
 12  7  1  0
 13 14  2  0
 16 15  1  0
 17 16  1  6
 17 19  1  0
 18 13  1  0
 18 17  1  0
 19 27  1  0
 19 20  2  0
 21 22  1  0
 22 23  2  0
 24 22  1  0
 24 25  1  0
 26 25  1  1
 26 28  1  0
 27 26  1  0
 28 30  2  0
 28 29  1  0
M  END
$$$$
