WSQ.pdb
     RDKit          3D

 30 31  0  0  1  0  0  0  0  0999 V2000
    5.8212  -18.4045   24.1121 N   0  0  0  0  0  0  0  0  0  0  0  0
    6.6908  -17.2834   24.0106 C   0  0  1  0  0  0  0  0  0  0  0  0
    7.3380  -16.8459   25.2891 C   0  0  0  0  0  0  0  0  0  0  0  0
    6.8150  -15.5259   25.7229 C   0  0  0  0  0  0  0  0  0  0  0  0
    5.7264  -15.3533   26.5774 C   0  0  0  0  0  0  0  0  0  0  0  0
    5.4729  -14.0534   26.7727 N   0  0  0  0  0  0  0  0  0  0  0  0
    6.3878  -13.3713   26.0525 C   0  0  0  0  0  0  0  0  0  0  0  0
    6.5958  -12.0114   25.8902 C   0  0  0  0  0  0  0  0  0  0  0  0
    7.6221  -11.5644   25.0891 C   0  0  0  0  0  0  0  0  0  0  0  0
    8.4553  -12.4241   24.4389 C   0  0  0  0  0  0  0  0  0  0  0  0
    8.2587  -13.8005   24.5921 C   0  0  0  0  0  0  0  0  0  0  0  0
    7.2316  -14.2496   25.3928 C   0  0  0  0  0  0  0  0  0  0  0  0
    7.7592  -17.4492   23.0022 C   0  0  0  0  0  0  0  0  0  0  0  0
    8.4108  -18.5328   23.0373 O   0  0  0  0  0  0  0  0  0  0  0  0
    8.6879  -14.4369   20.5175 O   0  0  0  0  0  0  0  0  0  0  0  0
    9.3801  -15.5917   20.1535 C   0  0  0  0  0  0  0  0  0  0  0  0
    9.3547  -16.5872   21.3085 C   0  0  2  0  0  0  0  0  0  0  0  0
    8.1144  -16.5191   22.0148 N   0  0  0  0  0  0  0  0  0  0  0  0
   10.5229  -16.2625   22.1553 C   0  0  0  0  0  0  0  0  0  0  0  0
   10.8087  -15.0515   22.3405 O   0  0  0  0  0  0  0  0  0  0  0  0
   12.1535  -18.1622   27.4408 N   0  0  0  0  0  0  0  0  0  0  0  0
   11.1240  -18.5675   26.5549 C   0  0  0  0  0  0  0  0  0  0  0  0
   10.2067  -19.2972   26.9875 O   0  0  0  0  0  0  0  0  0  0  0  0
   11.1821  -18.1055   25.1490 C   0  0  0  0  0  0  0  0  0  0  0  0
   12.3895  -17.2128   24.9557 C   0  0  0  0  0  0  0  0  0  0  0  0
   12.5563  -16.8437   23.4819 C   0  0  2  0  0  0  0  0  0  0  0  0
   11.3417  -17.2312   22.7727 N   0  0  0  0  0  0  0  0  0  0  0  0
   13.7506  -17.4945   22.9351 C   0  0  0  0  0  0  0  0  0  0  0  0
   13.5964  -18.4471   21.9383 O   0  0  0  0  0  0  0  0  0  0  0  0
   14.9219  -17.2353   23.3231 O   0  0  0  0  0  0  0  0  0  0  0  0
  2  1  1  1
  2  3  1  0
  2 13  1  0
  3  4  1  0
  4 12  1  0
  4  5  2  0
  5  6  1  0
  7  6  1  0
  7  8  2  0
  9  8  1  0
 10  9  2  0
 11 12  2  0
 11 10  1  0
 12  7  1  0
 13 14  2  0
 16 15  1  0
 17 16  1  6
 17 19  1  0
 18 13  1  0
 18 17  1  0
 19 27  1  0
 19 20  2  0
 21 22  1  0
 22 23  2  0
 24 22  1  0
 24 25  1  0
 26 25  1  1
 26 28  1  0
 27 26  1  0
 28 30  2  0
 28 29  1  0
M  END
$$$$
