WSQ.pdb
     RDKit          3D

 30 31  0  0  1  0  0  0  0  0999 V2000
    6.7083  -17.7012   24.0984 N   0  0  0  0  0  0  0  0  0  0  0  0
    7.6673  -16.7006   23.7780 C   0  0  1  0  0  0  0  0  0  0  0  0
    8.3008  -16.0107   24.9472 C   0  0  0  0  0  0  0  0  0  0  0  0
    7.3179  -15.1473   25.6491 C   0  0  0  0  0  0  0  0  0  0  0  0
    6.1695  -15.6186   26.2847 C   0  0  0  0  0  0  0  0  0  0  0  0
    5.4653  -14.6090   26.8108 N   0  0  0  0  0  0  0  0  0  0  0  0
    6.1436  -13.4779   26.5253 C   0  0  0  0  0  0  0  0  0  0  0  0
    5.8796  -12.1519   26.8268 C   0  0  0  0  0  0  0  0  0  0  0  0
    6.7504  -11.1678   26.4165 C   0  0  0  0  0  0  0  0  0  0  0  0
    7.8816  -11.4542   25.7132 C   0  0  0  0  0  0  0  0  0  0  0  0
    8.1626  -12.7883   25.4005 C   0  0  0  0  0  0  0  0  0  0  0  0
    7.2919  -13.7743   25.8097 C   0  0  0  0  0  0  0  0  0  0  0  0
    8.7546  -17.1795   22.8981 C   0  0  0  0  0  0  0  0  0  0  0  0
    9.3813  -18.2103   23.2784 O   0  0  0  0  0  0  0  0  0  0  0  0
   10.2902  -14.6287   20.1144 O   0  0  0  0  0  0  0  0  0  0  0  0
   10.6424  -15.9561   19.8706 C   0  0  0  0  0  0  0  0  0  0  0  0
   10.4635  -16.7738   21.1454 C   0  0  2  0  0  0  0  0  0  0  0  0
    9.1525  -16.5979   21.6858 N   0  0  0  0  0  0  0  0  0  0  0  0
   11.5342  -16.3358   22.0669 C   0  0  0  0  0  0  0  0  0  0  0  0
   11.3158  -15.3429   22.8079 O   0  0  0  0  0  0  0  0  0  0  0  0
   12.7104  -17.8070   26.9428 N   0  0  0  0  0  0  0  0  0  0  0  0
   12.6425  -18.7819   25.9162 C   0  0  0  0  0  0  0  0  0  0  0  0
   12.2625  -19.9369   26.2035 O   0  0  0  0  0  0  0  0  0  0  0  0
   13.0268  -18.3855   24.5420 C   0  0  0  0  0  0  0  0  0  0  0  0
   13.3812  -16.9139   24.5165 C   0  0  0  0  0  0  0  0  0  0  0  0
   13.7974  -16.4841   23.1100 C   0  0  2  0  0  0  0  0  0  0  0  0
   12.7925  -16.9654   22.1683 N   0  0  0  0  0  0  0  0  0  0  0  0
   15.1360  -16.9982   22.8052 C   0  0  0  0  0  0  0  0  0  0  0  0
   15.2882  -17.8822   21.7469 O   0  0  0  0  0  0  0  0  0  0  0  0
   16.1673  -16.6795   23.4568 O   0  0  0  0  0  0  0  0  0  0  0  0
  2  1  1  1
  2  3  1  0
  2 13  1  0
  3  4  1  0
  4 12  1  0
  4  5  2  0
  5  6  1  0
  7  6  1  0
  7  8  2  0
  9  8  1  0
 10  9  2  0
 11 12  2  0
 11 10  1  0
 12  7  1  0
 13 14  2  0
 16 15  1  0
 17 16  1  6
 17 19  1  0
 18 13  1  0
 18 17  1  0
 19 27  1  0
 19 20  2  0
 21 22  1  0
 22 23  2  0
 24 22  1  0
 24 25  1  0
 26 25  1  1
 26 28  1  0
 27 26  1  0
 28 30  2  0
 28 29  1  0
M  END
$$$$
