WSQ.pdb
     RDKit          3D

 30 31  0  0  1  0  0  0  0  0999 V2000
    6.5981  -18.0716   24.9043 N   0  0  0  0  0  0  0  0  0  0  0  0
    7.1202  -16.8283   24.4515 C   0  0  1  0  0  0  0  0  0  0  0  0
    7.8604  -16.0234   25.4755 C   0  0  0  0  0  0  0  0  0  0  0  0
    7.0123  -14.9229   25.9986 C   0  0  0  0  0  0  0  0  0  0  0  0
    5.6912  -15.0790   26.4175 C   0  0  0  0  0  0  0  0  0  0  0  0
    5.1751  -13.9105   26.8181 N   0  0  0  0  0  0  0  0  0  0  0  0
    6.1485  -12.9883   26.6655 C   0  0  0  0  0  0  0  0  0  0  0  0
    6.1687  -11.6278   26.9251 C   0  0  0  0  0  0  0  0  0  0  0  0
    7.3113  -10.8993   26.6827 C   0  0  0  0  0  0  0  0  0  0  0  0
    8.4423  -11.4763   26.1886 C   0  0  0  0  0  0  0  0  0  0  0  0
    8.4383  -12.8492   25.9208 C   0  0  0  0  0  0  0  0  0  0  0  0
    7.2955  -13.5796   26.1622 C   0  0  0  0  0  0  0  0  0  0  0  0
    7.9896  -16.9467   23.2615 C   0  0  0  0  0  0  0  0  0  0  0  0
    8.8052  -17.9134   23.2473 O   0  0  0  0  0  0  0  0  0  0  0  0
    7.4980  -15.4308   19.4233 O   0  0  0  0  0  0  0  0  0  0  0  0
    8.7186  -15.1389   20.0317 C   0  0  0  0  0  0  0  0  0  0  0  0
    8.9943  -16.1544   21.1355 C   0  0  2  0  0  0  0  0  0  0  0  0
    7.9923  -16.0891   22.1521 N   0  0  0  0  0  0  0  0  0  0  0  0
   10.3520  -15.8538   21.6393 C   0  0  0  0  0  0  0  0  0  0  0  0
   10.5443  -14.7544   22.2197 O   0  0  0  0  0  0  0  0  0  0  0  0
   12.6373  -20.1605   25.3341 N   0  0  0  0  0  0  0  0  0  0  0  0
   13.2076  -18.8674   25.4433 C   0  0  0  0  0  0  0  0  0  0  0  0
   13.3227  -18.3511   26.5752 O   0  0  0  0  0  0  0  0  0  0  0  0
   13.6436  -18.1830   24.2045 C   0  0  0  0  0  0  0  0  0  0  0  0
   12.4753  -18.0660   23.2490 C   0  0  0  0  0  0  0  0  0  0  0  0
   12.5238  -16.7350   22.4989 C   0  0  2  0  0  0  0  0  0  0  0  0
   11.4517  -16.7279   21.5096 N   0  0  0  0  0  0  0  0  0  0  0  0
   13.8441  -16.5523   21.8888 C   0  0  0  0  0  0  0  0  0  0  0  0
   13.9373  -16.4716   20.5070 O   0  0  0  0  0  0  0  0  0  0  0  0
   14.9108  -16.4635   22.5552 O   0  0  0  0  0  0  0  0  0  0  0  0
  2  1  1  1
  2  3  1  0
  2 13  1  0
  3  4  1  0
  4 12  1  0
  4  5  2  0
  5  6  1  0
  7  6  1  0
  7  8  2  0
  9  8  1  0
 10  9  2  0
 11 12  2  0
 11 10  1  0
 12  7  1  0
 13 14  2  0
 16 15  1  0
 17 16  1  6
 17 19  1  0
 18 13  1  0
 18 17  1  0
 19 27  1  0
 19 20  2  0
 21 22  1  0
 22 23  2  0
 24 22  1  0
 24 25  1  0
 26 25  1  6
 26 28  1  0
 27 26  1  0
 28 30  2  0
 28 29  1  0
M  END
$$$$
