WSQ.pdb
     RDKit          3D

 30 31  0  0  1  0  0  0  0  0999 V2000
    8.8958  -15.8051   21.7282 N   0  0  0  0  0  0  0  0  0  0  0  0
    8.9192  -15.9420   23.1439 C   0  0  1  0  0  0  0  0  0  0  0  0
    7.5821  -15.9291   23.8195 C   0  0  0  0  0  0  0  0  0  0  0  0
    7.0083  -14.5599   23.8324 C   0  0  0  0  0  0  0  0  0  0  0  0
    6.3540  -13.9710   22.7507 C   0  0  0  0  0  0  0  0  0  0  0  0
    5.9639  -12.7254   23.0480 N   0  0  0  0  0  0  0  0  0  0  0  0
    6.3573  -12.4925   24.3176 C   0  0  0  0  0  0  0  0  0  0  0  0
    6.2145  -11.3798   25.1302 C   0  0  0  0  0  0  0  0  0  0  0  0
    6.7101  -11.3990   26.4144 C   0  0  0  0  0  0  0  0  0  0  0  0
    7.3466  -12.4902   26.9247 C   0  0  0  0  0  0  0  0  0  0  0  0
    7.4992  -13.6219   26.1169 C   0  0  0  0  0  0  0  0  0  0  0  0
    7.0044  -13.6042   24.8314 C   0  0  0  0  0  0  0  0  0  0  0  0
    9.6461  -17.1409   23.6131 C   0  0  0  0  0  0  0  0  0  0  0  0
    8.9433  -18.0943   24.0570 O   0  0  0  0  0  0  0  0  0  0  0  0
   13.7138  -17.1632   24.0284 O   0  0  0  0  0  0  0  0  0  0  0  0
   13.1617  -18.4434   23.9903 C   0  0  0  0  0  0  0  0  0  0  0  0
   11.6778  -18.3695   24.3342 C   0  0  2  0  0  0  0  0  0  0  0  0
   11.0372  -17.3167   23.6108 N   0  0  0  0  0  0  0  0  0  0  0  0
   11.6052  -18.1929   25.8008 C   0  0  0  0  0  0  0  0  0  0  0  0
   12.2278  -17.2301   26.3184 O   0  0  0  0  0  0  0  0  0  0  0  0
    7.5768  -20.4702   28.2869 N   0  0  0  0  0  0  0  0  0  0  0  0
    7.5073  -19.3596   27.4089 C   0  0  0  0  0  0  0  0  0  0  0  0
    6.5539  -19.2832   26.6051 O   0  0  0  0  0  0  0  0  0  0  0  0
    8.5735  -18.3345   27.4841 C   0  0  0  0  0  0  0  0  0  0  0  0
    9.5133  -18.6598   28.6256 C   0  0  0  0  0  0  0  0  0  0  0  0
   10.9363  -18.8700   28.1087 C   0  0  2  0  0  0  0  0  0  0  0  0
   10.8769  -19.0411   26.6611 N   0  0  0  0  0  0  0  0  0  0  0  0
   11.5476  -20.0212   28.7797 C   0  0  0  0  0  0  0  0  0  0  0  0
   12.0255  -21.0697   28.0072 O   0  0  0  0  0  0  0  0  0  0  0  0
   11.6647  -20.1136   30.0317 O   0  0  0  0  0  0  0  0  0  0  0  0
  2  1  1  6
  2  3  1  0
  2 13  1  0
  3  4  1  0
  4 12  1  0
  4  5  2  0
  5  6  1  0
  7  6  1  0
  7  8  2  0
  9  8  1  0
 10  9  2  0
 11 12  2  0
 11 10  1  0
 12  7  1  0
 13 14  2  0
 16 15  1  0
 17 16  1  6
 17 19  1  0
 18 13  1  0
 18 17  1  0
 19 27  1  0
 19 20  2  0
 21 22  1  0
 22 23  2  0
 24 22  1  0
 24 25  1  0
 26 25  1  1
 26 28  1  0
 27 26  1  0
 28 30  2  0
 28 29  1  0
M  END
$$$$
