WSQ.pdb
     RDKit          3D

 30 31  0  0  1  0  0  0  0  0999 V2000
    6.8403  -17.1506   23.6204 N   0  0  0  0  0  0  0  0  0  0  0  0
    8.1213  -16.7206   24.0650 C   0  0  1  0  0  0  0  0  0  0  0  0
    8.1926  -16.2564   25.4876 C   0  0  0  0  0  0  0  0  0  0  0  0
    7.1735  -15.2104   25.7552 C   0  0  0  0  0  0  0  0  0  0  0  0
    5.9388  -15.4508   26.3575 C   0  0  0  0  0  0  0  0  0  0  0  0
    5.2233  -14.3231   26.4488 N   0  0  0  0  0  0  0  0  0  0  0  0
    5.9799  -13.3437   25.9108 C   0  0  0  0  0  0  0  0  0  0  0  0
    5.7415  -11.9890   25.7465 C   0  0  0  0  0  0  0  0  0  0  0  0
    6.6971  -11.1895   25.1613 C   0  0  0  0  0  0  0  0  0  0  0  0
    7.8890  -11.6893   24.7302 C   0  0  0  0  0  0  0  0  0  0  0  0
    8.1453  -13.0553   24.8885 C   0  0  0  0  0  0  0  0  0  0  0  0
    7.1898  -13.8570   25.4734 C   0  0  0  0  0  0  0  0  0  0  0  0
    9.1870  -17.7262   23.8685 C   0  0  0  0  0  0  0  0  0  0  0  0
    9.4121  -18.5121   24.8338 O   0  0  0  0  0  0  0  0  0  0  0  0
   11.7248  -14.8972   21.6056 O   0  0  0  0  0  0  0  0  0  0  0  0
   10.6241  -15.6514   22.0118 C   0  0  0  0  0  0  0  0  0  0  0  0
   11.0846  -17.0464   22.4214 C   0  0  2  0  0  0  0  0  0  0  0  0
    9.9675  -17.8878   22.7148 N   0  0  0  0  0  0  0  0  0  0  0  0
   11.9874  -16.8570   23.5774 C   0  0  0  0  0  0  0  0  0  0  0  0
   13.0692  -16.2411   23.3964 O   0  0  0  0  0  0  0  0  0  0  0  0
   11.2488  -13.8305   27.8298 N   0  0  0  0  0  0  0  0  0  0  0  0
   10.8045  -15.0631   28.3706 C   0  0  0  0  0  0  0  0  0  0  0  0
    9.9096  -15.0532   29.2425 O   0  0  0  0  0  0  0  0  0  0  0  0
   11.4241  -16.3137   27.8753 C   0  0  0  0  0  0  0  0  0  0  0  0
   12.4112  -15.9916   26.7736 C   0  0  0  0  0  0  0  0  0  0  0  0
   12.7098  -17.2354   25.9370 C   0  0  2  0  0  0  0  0  0  0  0  0
   11.7098  -17.3261   24.8786 N   0  0  0  0  0  0  0  0  0  0  0  0
   12.7209  -18.4244   26.7943 C   0  0  0  0  0  0  0  0  0  0  0  0
   11.7425  -19.3908   26.6108 O   0  0  0  0  0  0  0  0  0  0  0  0
   13.5775  -18.6207   27.6985 O   0  0  0  0  0  0  0  0  0  0  0  0
  2  1  1  1
  2  3  1  0
  2 13  1  0
  3  4  1  0
  4 12  1  0
  4  5  2  0
  5  6  1  0
  7  6  1  0
  7  8  2  0
  9  8  1  0
 10  9  2  0
 11 12  2  0
 11 10  1  0
 12  7  1  0
 13 14  2  0
 16 15  1  0
 17 16  1  1
 17 19  1  0
 18 13  1  0
 18 17  1  0
 19 27  1  0
 19 20  2  0
 21 22  1  0
 22 23  2  0
 24 22  1  0
 24 25  1  0
 26 25  1  1
 26 28  1  0
 27 26  1  0
 28 30  2  0
 28 29  1  0
M  END
$$$$
