WSQ.pdb
     RDKit          3D

 30 31  0  0  1  0  0  0  0  0999 V2000
    6.4797  -17.7206   24.5455 N   0  0  0  0  0  0  0  0  0  0  0  0
    7.2409  -16.7085   23.8976 C   0  0  1  0  0  0  0  0  0  0  0  0
    8.0456  -15.8237   24.7998 C   0  0  0  0  0  0  0  0  0  0  0  0
    7.1681  -14.8790   25.5356 C   0  0  0  0  0  0  0  0  0  0  0  0
    5.9766  -15.2393   26.1646 C   0  0  0  0  0  0  0  0  0  0  0  0
    5.3917  -14.1748   26.7274 N   0  0  0  0  0  0  0  0  0  0  0  0
    6.1911  -13.1179   26.4724 C   0  0  0  0  0  0  0  0  0  0  0  0
    6.0781  -11.7810   26.8172 C   0  0  0  0  0  0  0  0  0  0  0  0
    7.0518  -10.8876   26.4317 C   0  0  0  0  0  0  0  0  0  0  0  0
    8.1412  -11.2758   25.7114 C   0  0  0  0  0  0  0  0  0  0  0  0
    8.2702  -12.6223   25.3549 C   0  0  0  0  0  0  0  0  0  0  0  0
    7.2963  -13.5175   25.7394 C   0  0  0  0  0  0  0  0  0  0  0  0
    8.1490  -17.2257   22.8518 C   0  0  0  0  0  0  0  0  0  0  0  0
    8.6952  -18.3444   23.0756 O   0  0  0  0  0  0  0  0  0  0  0  0
    9.3255  -14.7662   19.7644 O   0  0  0  0  0  0  0  0  0  0  0  0
    9.7051  -16.0991   19.6077 C   0  0  0  0  0  0  0  0  0  0  0  0
    9.7020  -16.7936   20.9653 C   0  0  2  0  0  0  0  0  0  0  0  0
    8.4585  -16.5920   21.6398 N   0  0  0  0  0  0  0  0  0  0  0  0
   10.8592  -16.2482   21.7074 C   0  0  0  0  0  0  0  0  0  0  0  0
   10.7025  -15.1854   22.3619 O   0  0  0  0  0  0  0  0  0  0  0  0
   10.6262  -18.3431   25.4452 N   0  0  0  0  0  0  0  0  0  0  0  0
   12.0012  -18.0019   25.4919 C   0  0  0  0  0  0  0  0  0  0  0  0
   12.5373  -17.8031   26.6028 O   0  0  0  0  0  0  0  0  0  0  0  0
   12.7443  -17.8958   24.2153 C   0  0  0  0  0  0  0  0  0  0  0  0
   13.0602  -16.4431   23.9290 C   0  0  0  0  0  0  0  0  0  0  0  0
   13.2489  -16.2182   22.4289 C   0  0  2  0  0  0  0  0  0  0  0  0
   12.1356  -16.8486   21.7280 N   0  0  0  0  0  0  0  0  0  0  0  0
   14.5467  -16.7502   22.0026 C   0  0  0  0  0  0  0  0  0  0  0  0
   14.5791  -17.7212   21.0123 O   0  0  0  0  0  0  0  0  0  0  0  0
   15.6463  -16.3717   22.4897 O   0  0  0  0  0  0  0  0  0  0  0  0
  2  1  1  1
  2  3  1  0
  2 13  1  0
  3  4  1  0
  4 12  1  0
  4  5  2  0
  5  6  1  0
  7  6  1  0
  7  8  2  0
  9  8  1  0
 10  9  2  0
 11 12  2  0
 11 10  1  0
 12  7  1  0
 13 14  2  0
 16 15  1  0
 17 16  1  6
 17 19  1  0
 18 13  1  0
 18 17  1  0
 19 27  1  0
 19 20  2  0
 21 22  1  0
 22 23  2  0
 24 22  1  0
 24 25  1  0
 26 25  1  1
 26 28  1  0
 27 26  1  0
 28 30  2  0
 28 29  1  0
M  END
$$$$
