WSQ.pdb
     RDKit          3D

 30 31  0  0  1  0  0  0  0  0999 V2000
    6.4248  -17.8033   24.3868 N   0  0  0  0  0  0  0  0  0  0  0  0
    7.1229  -16.7005   23.8211 C   0  0  1  0  0  0  0  0  0  0  0  0
    8.0070  -15.9403   24.7618 C   0  0  0  0  0  0  0  0  0  0  0  0
    7.2191  -14.9670   25.5593 C   0  0  0  0  0  0  0  0  0  0  0  0
    6.0499  -15.2809   26.2517 C   0  0  0  0  0  0  0  0  0  0  0  0
    5.5496  -14.1990   26.8610 N   0  0  0  0  0  0  0  0  0  0  0  0
    6.3826  -13.1768   26.5737 C   0  0  0  0  0  0  0  0  0  0  0  0
    6.3534  -11.8417   26.9416 C   0  0  0  0  0  0  0  0  0  0  0  0
    7.3449  -10.9890   26.5116 C   0  0  0  0  0  0  0  0  0  0  0  0
    8.3714  -11.4166   25.7244 C   0  0  0  0  0  0  0  0  0  0  0  0
    8.4154  -12.7619   25.3438 C   0  0  0  0  0  0  0  0  0  0  0  0
    7.4236  -13.6164   25.7727 C   0  0  0  0  0  0  0  0  0  0  0  0
    7.9311  -17.0541   22.6347 C   0  0  0  0  0  0  0  0  0  0  0  0
    8.6804  -18.0679   22.7388 O   0  0  0  0  0  0  0  0  0  0  0  0
    7.8712  -14.6938   19.4462 O   0  0  0  0  0  0  0  0  0  0  0  0
    8.6396  -15.8178   19.1440 C   0  0  0  0  0  0  0  0  0  0  0  0
    8.9593  -16.5774   20.4272 C   0  0  2  0  0  0  0  0  0  0  0  0
    7.9425  -16.3714   21.4099 N   0  0  0  0  0  0  0  0  0  0  0  0
   10.2911  -16.1041   20.8627 C   0  0  0  0  0  0  0  0  0  0  0  0
   10.4086  -14.9076   21.2330 O   0  0  0  0  0  0  0  0  0  0  0  0
   12.1251  -16.4936   25.7143 N   0  0  0  0  0  0  0  0  0  0  0  0
   11.9249  -17.7363   25.0626 C   0  0  0  0  0  0  0  0  0  0  0  0
   11.6074  -18.7330   25.7458 O   0  0  0  0  0  0  0  0  0  0  0  0
   12.1019  -17.7978   23.5935 C   0  0  0  0  0  0  0  0  0  0  0  0
   12.3994  -16.4134   23.0579 C   0  0  0  0  0  0  0  0  0  0  0  0
   12.6632  -16.4630   21.5531 C   0  0  2  0  0  0  0  0  0  0  0  0
   11.4451  -16.9150   20.8897 N   0  0  0  0  0  0  0  0  0  0  0  0
   13.8056  -17.3381   21.2739 C   0  0  0  0  0  0  0  0  0  0  0  0
   13.5885  -18.5222   20.5844 O   0  0  0  0  0  0  0  0  0  0  0  0
   14.9863  -17.0732   21.6284 O   0  0  0  0  0  0  0  0  0  0  0  0
  2  1  1  1
  2  3  1  0
  2 13  1  0
  3  4  1  0
  4 12  1  0
  4  5  2  0
  5  6  1  0
  7  6  1  0
  7  8  2  0
  9  8  1  0
 10  9  2  0
 11 12  2  0
 11 10  1  0
 12  7  1  0
 13 14  2  0
 16 15  1  0
 17 16  1  6
 17 19  1  0
 18 13  1  0
 18 17  1  0
 19 27  1  0
 19 20  2  0
 21 22  1  0
 22 23  2  0
 24 22  1  0
 24 25  1  0
 26 25  1  1
 26 28  1  0
 27 26  1  0
 28 30  2  0
 28 29  1  0
M  END
$$$$
