WSQ.pdb
     RDKit          3D

 30 31  0  0  1  0  0  0  0  0999 V2000
    6.8928  -17.6102   24.2251 N   0  0  0  0  0  0  0  0  0  0  0  0
    7.8556  -16.6273   23.8640 C   0  0  1  0  0  0  0  0  0  0  0  0
    8.3943  -15.8012   24.9917 C   0  0  0  0  0  0  0  0  0  0  0  0
    7.3313  -14.9451   25.5761 C   0  0  0  0  0  0  0  0  0  0  0  0
    6.0943  -15.4164   26.0149 C   0  0  0  0  0  0  0  0  0  0  0  0
    5.3352  -14.4133   26.4729 N   0  0  0  0  0  0  0  0  0  0  0  0
    6.0656  -13.2866   26.3380 C   0  0  0  0  0  0  0  0  0  0  0  0
    5.7800  -11.9680   26.6521 C   0  0  0  0  0  0  0  0  0  0  0  0
    6.7169  -10.9874   26.4164 C   0  0  0  0  0  0  0  0  0  0  0  0
    7.9355  -11.2702   25.8766 C   0  0  0  0  0  0  0  0  0  0  0  0
    8.2395  -12.5968   25.5535 C   0  0  0  0  0  0  0  0  0  0  0  0
    7.3027  -13.5792   25.7881 C   0  0  0  0  0  0  0  0  0  0  0  0
    9.0096  -17.1719   23.1173 C   0  0  0  0  0  0  0  0  0  0  0  0
    9.5478  -18.2165   23.5854 O   0  0  0  0  0  0  0  0  0  0  0  0
   11.0066  -15.0782   20.1771 O   0  0  0  0  0  0  0  0  0  0  0  0
   11.0559  -16.4644   20.0306 C   0  0  0  0  0  0  0  0  0  0  0  0
   10.7745  -17.1297   21.3736 C   0  0  2  0  0  0  0  0  0  0  0  0
    9.5593  -16.6385   21.9428 N   0  0  0  0  0  0  0  0  0  0  0  0
   11.9592  -16.8648   22.2184 C   0  0  0  0  0  0  0  0  0  0  0  0
   11.9419  -15.8590   22.9737 O   0  0  0  0  0  0  0  0  0  0  0  0
   12.9309  -19.9395   25.3858 N   0  0  0  0  0  0  0  0  0  0  0  0
   13.8912  -19.1654   26.0841 C   0  0  0  0  0  0  0  0  0  0  0  0
   13.8771  -19.1681   27.3335 O   0  0  0  0  0  0  0  0  0  0  0  0
   14.8732  -18.3842   25.2975 C   0  0  0  0  0  0  0  0  0  0  0  0
   14.6636  -18.6423   23.8206 C   0  0  0  0  0  0  0  0  0  0  0  0
   14.2400  -17.3602   23.1043 C   0  0  2  0  0  0  0  0  0  0  0  0
   13.1145  -17.6744   22.2310 N   0  0  0  0  0  0  0  0  0  0  0  0
   15.3764  -16.8003   22.3665 C   0  0  0  0  0  0  0  0  0  0  0  0
   16.4480  -16.2833   23.0800 O   0  0  0  0  0  0  0  0  0  0  0  0
   15.4358  -16.7614   21.1077 O   0  0  0  0  0  0  0  0  0  0  0  0
  2  1  1  1
  2  3  1  0
  2 13  1  0
  3  4  1  0
  4 12  1  0
  4  5  2  0
  5  6  1  0
  7  6  1  0
  7  8  2  0
  9  8  1  0
 10  9  2  0
 11 12  2  0
 11 10  1  0
 12  7  1  0
 13 14  2  0
 16 15  1  0
 17 16  1  6
 17 19  1  0
 18 13  1  0
 18 17  1  0
 19 27  1  0
 19 20  2  0
 21 22  1  0
 22 23  2  0
 24 22  1  0
 24 25  1  0
 26 25  1  6
 26 28  1  0
 27 26  1  0
 28 30  2  0
 28 29  1  0
M  END
$$$$
