KIQ.pdb
     RDKit          3D

 27 26  0  0  1  0  0  0  0  0999 V2000
    7.5623  -15.9741   21.1198 N   0  0  0  0  0  0  0  0  0  0  0  0
    8.7724  -16.4517   21.6831 C   0  0  1  0  0  0  0  0  0  0  0  0
    9.9684  -16.5454   20.8782 C   0  0  0  0  0  0  0  0  0  0  0  0
   10.3135  -17.4492   19.8235 C   0  0  0  0  0  0  0  0  0  0  0  0
   11.1949  -18.5788   19.8688 C   0  0  0  0  0  0  0  0  0  0  0  0
   11.5946  -19.3986   18.7192 C   0  0  0  0  0  0  0  0  0  0  0  0
   11.8689  -18.8795   17.4602 N   0  0  0  0  0  0  0  0  0  0  0  0
    9.0999  -15.6899   22.9513 C   0  0  0  0  0  0  0  0  0  0  0  0
   10.2739  -15.8243   23.3803 O   0  0  0  0  0  0  0  0  0  0  0  0
    6.8978  -11.2628   26.7066 C   0  0  0  0  0  0  0  0  0  0  0  0
    7.8966  -12.3893   26.4222 C   0  0  0  0  0  0  0  0  0  0  0  0
    7.5029  -13.1868   25.2375 C   0  0  2  0  0  0  0  0  0  0  0  0
    6.0835  -13.7166   25.3294 C   0  0  0  0  0  0  0  0  0  0  0  0
    8.4918  -14.2480   24.9135 C   0  0  2  0  0  0  0  0  0  0  0  0
    8.1759  -14.8761   23.6233 N   0  0  0  0  0  0  0  0  0  0  0  0
    8.5215  -15.2855   25.9444 C   0  0  0  0  0  0  0  0  0  0  0  0
    7.4805  -15.9351   26.1862 O   0  0  0  0  0  0  0  0  0  0  0  0
   12.8911  -18.7668   24.7902 N   0  0  0  0  0  0  0  0  0  0  0  0
   12.4486  -18.8390   26.1445 C   0  0  0  0  0  0  0  0  0  0  0  0
   12.5727  -19.9341   26.7259 O   0  0  0  0  0  0  0  0  0  0  0  0
   11.8743  -17.6831   26.8184 C   0  0  0  0  0  0  0  0  0  0  0  0
   10.4001  -17.8180   26.9779 C   0  0  0  0  0  0  0  0  0  0  0  0
    9.6990  -16.6665   27.6243 C   0  0  2  0  0  0  0  0  0  0  0  0
    9.6970  -15.5574   26.6592 N   0  0  0  0  0  0  0  0  0  0  0  0
   10.3265  -16.1642   28.8647 C   0  0  0  0  0  0  0  0  0  0  0  0
   10.8082  -14.8751   28.9188 O   0  0  0  0  0  0  0  0  0  0  0  0
   10.4455  -16.8613   29.8854 O   0  0  0  0  0  0  0  0  0  0  0  0
  2  1  1  6
  3  2  1  0
  4  3  1  0
  5  4  1  0
  6  5  1  0
  7  6  1  0
  8  9  2  0
  8  2  1  0
 10 11  1  0
 12 11  1  0
 12 14  1  0
 12 13  1  1
 14 15  1  6
 15  8  1  0
 16 24  1  0
 16 14  1  0
 17 16  2  0
 18 19  1  0
 19 21  1  0
 20 19  2  0
 21 22  1  0
 23 22  1  6
 23 24  1  0
 23 25  1  0
 25 26  1  0
 27 25  2  0
M  END
$$$$
