KIQ.pdb
     RDKit          3D

 27 26  0  0  1  0  0  0  0  0999 V2000
    8.0698  -15.0564   20.2845 N   0  0  0  0  0  0  0  0  0  0  0  0
    7.3593  -15.6162   21.3760 C   0  0  1  0  0  0  0  0  0  0  0  0
    6.9814  -17.0106   21.3663 C   0  0  0  0  0  0  0  0  0  0  0  0
    6.2943  -17.7831   20.3766 C   0  0  0  0  0  0  0  0  0  0  0  0
    6.3817  -17.6853   18.9491 C   0  0  0  0  0  0  0  0  0  0  0  0
    5.6133  -18.4853   17.9883 C   0  0  0  0  0  0  0  0  0  0  0  0
    4.5633  -19.3212   18.3464 N   0  0  0  0  0  0  0  0  0  0  0  0
    8.0731  -15.3164   22.6785 C   0  0  0  0  0  0  0  0  0  0  0  0
    9.3159  -15.5059   22.6754 O   0  0  0  0  0  0  0  0  0  0  0  0
    5.9354  -11.5462   25.9051 C   0  0  0  0  0  0  0  0  0  0  0  0
    6.9763  -12.3715   25.1416 C   0  0  0  0  0  0  0  0  0  0  0  0
    7.3845  -13.5775   25.8989 C   0  0  2  0  0  0  0  0  0  0  0  0
    8.0871  -13.2445   27.2024 C   0  0  0  0  0  0  0  0  0  0  0  0
    8.1496  -14.5400   25.0639 C   0  0  2  0  0  0  0  0  0  0  0  0
    7.4179  -14.8524   23.8287 N   0  0  0  0  0  0  0  0  0  0  0  0
    8.4068  -15.7873   25.7838 C   0  0  0  0  0  0  0  0  0  0  0  0
    7.5661  -16.7112   25.7233 O   0  0  0  0  0  0  0  0  0  0  0  0
   11.8033  -20.0887   24.4904 N   0  0  0  0  0  0  0  0  0  0  0  0
   12.4314  -18.8126   24.3802 C   0  0  0  0  0  0  0  0  0  0  0  0
   13.5433  -18.7724   23.8191 O   0  0  0  0  0  0  0  0  0  0  0  0
   11.8015  -17.6084   24.9030 C   0  0  0  0  0  0  0  0  0  0  0  0
   10.4276  -17.8829   25.4068 C   0  0  0  0  0  0  0  0  0  0  0  0
   10.0928  -17.3172   26.7497 C   0  0  2  0  0  0  0  0  0  0  0  0
    9.5785  -15.9566   26.5358 N   0  0  0  0  0  0  0  0  0  0  0  0
   11.2294  -17.2113   27.6886 C   0  0  0  0  0  0  0  0  0  0  0  0
   11.5962  -18.2985   28.4504 O   0  0  0  0  0  0  0  0  0  0  0  0
   11.8866  -16.1673   27.8302 O   0  0  0  0  0  0  0  0  0  0  0  0
  2  1  1  6
  3  2  1  0
  4  3  1  0
  5  4  1  0
  6  5  1  0
  7  6  1  0
  8  9  2  0
  8  2  1  0
 10 11  1  0
 12 11  1  0
 12 14  1  0
 12 13  1  1
 14 15  1  6
 15  8  1  0
 16 24  1  0
 16 14  1  0
 17 16  2  0
 18 19  1  0
 19 21  1  0
 20 19  2  0
 21 22  1  0
 23 22  1  6
 23 24  1  0
 23 25  1  0
 25 26  1  0
 27 25  2  0
M  END
$$$$
