KIQ.pdb
     RDKit          3D

 27 26  0  0  1  0  0  0  0  0999 V2000
    6.7518  -15.2522   21.1530 N   0  0  0  0  0  0  0  0  0  0  0  0
    8.0933  -14.7974   21.0966 C   0  0  1  0  0  0  0  0  0  0  0  0
    8.4538  -13.6822   20.2520 C   0  0  0  0  0  0  0  0  0  0  0  0
    8.0362  -13.3446   18.9253 C   0  0  0  0  0  0  0  0  0  0  0  0
    8.1616  -14.1196   17.7259 C   0  0  0  0  0  0  0  0  0  0  0  0
    7.6573  -13.7351   16.4025 C   0  0  0  0  0  0  0  0  0  0  0  0
    8.4763  -13.3714   15.3411 N   0  0  0  0  0  0  0  0  0  0  0  0
    8.6208  -14.5382   22.4932 C   0  0  0  0  0  0  0  0  0  0  0  0
    9.8085  -14.1316   22.5607 O   0  0  0  0  0  0  0  0  0  0  0  0
    6.0047  -11.7493   25.9556 C   0  0  0  0  0  0  0  0  0  0  0  0
    7.1151  -12.4652   25.1796 C   0  0  0  0  0  0  0  0  0  0  0  0
    7.5269  -13.7233   25.8446 C   0  0  2  0  0  0  0  0  0  0  0  0
    8.0801  -13.4981   27.2400 C   0  0  0  0  0  0  0  0  0  0  0  0
    8.4283  -14.5453   24.9956 C   0  0  2  0  0  0  0  0  0  0  0  0
    7.8565  -14.7263   23.6543 N   0  0  0  0  0  0  0  0  0  0  0  0
    8.6652  -15.8631   25.5851 C   0  0  0  0  0  0  0  0  0  0  0  0
    7.6919  -16.6173   25.8042 O   0  0  0  0  0  0  0  0  0  0  0  0
   12.8779  -19.4997   22.8563 N   0  0  0  0  0  0  0  0  0  0  0  0
   12.7435  -18.3426   23.6799 C   0  0  0  0  0  0  0  0  0  0  0  0
   13.7781  -17.6900   23.9173 O   0  0  0  0  0  0  0  0  0  0  0  0
   11.4529  -17.9422   24.2222 C   0  0  0  0  0  0  0  0  0  0  0  0
   11.3667  -18.2070   25.6849 C   0  0  0  0  0  0  0  0  0  0  0  0
   10.1624  -17.6622   26.3835 C   0  0  2  0  0  0  0  0  0  0  0  0
    9.9634  -16.2865   25.9048 N   0  0  0  0  0  0  0  0  0  0  0  0
   10.2640  -17.6010   27.8568 C   0  0  0  0  0  0  0  0  0  0  0  0
   10.3268  -16.3806   28.4919 O   0  0  0  0  0  0  0  0  0  0  0  0
   10.2970  -18.6175   28.5691 O   0  0  0  0  0  0  0  0  0  0  0  0
  2  1  1  1
  3  2  1  0
  4  3  1  0
  5  4  1  0
  6  5  1  0
  7  6  1  0
  8  9  2  0
  8  2  1  0
 10 11  1  0
 12 11  1  0
 12 14  1  0
 12 13  1  1
 14 15  1  6
 15  8  1  0
 16 24  1  0
 16 14  1  0
 17 16  2  0
 18 19  1  0
 19 21  1  0
 20 19  2  0
 21 22  1  0
 23 22  1  6
 23 24  1  0
 23 25  1  0
 25 26  1  0
 27 25  2  0
M  END
$$$$
