KIQ.pdb
     RDKit          3D

 27 26  0  0  1  0  0  0  0  0999 V2000
    5.1220  -18.5789   23.5599 N   0  0  0  0  0  0  0  0  0  0  0  0
    5.8291  -18.2413   24.7413 C   0  0  1  0  0  0  0  0  0  0  0  0
    6.6370  -19.2288   25.4190 C   0  0  0  0  0  0  0  0  0  0  0  0
    6.3166  -20.5525   25.8588 C   0  0  0  0  0  0  0  0  0  0  0  0
    5.9095  -21.6800   25.0728 C   0  0  0  0  0  0  0  0  0  0  0  0
    6.8042  -22.6966   24.5075 C   0  0  0  0  0  0  0  0  0  0  0  0
    7.3926  -23.7080   25.2562 N   0  0  0  0  0  0  0  0  0  0  0  0
    6.6682  -16.9999   24.5164 C   0  0  0  0  0  0  0  0  0  0  0  0
    7.3051  -16.9611   23.4331 O   0  0  0  0  0  0  0  0  0  0  0  0
    5.5236  -12.2515   27.0240 C   0  0  0  0  0  0  0  0  0  0  0  0
    5.9682  -13.2366   25.9379 C   0  0  0  0  0  0  0  0  0  0  0  0
    7.3577  -13.7027   26.1543 C   0  0  2  0  0  0  0  0  0  0  0  0
    8.3735  -12.5768   26.0881 C   0  0  0  0  0  0  0  0  0  0  0  0
    7.7143  -14.8498   25.2791 C   0  0  2  0  0  0  0  0  0  0  0  0
    6.7463  -15.9438   25.4363 N   0  0  0  0  0  0  0  0  0  0  0  0
    9.0511  -15.3603   25.5831 C   0  0  0  0  0  0  0  0  0  0  0  0
    9.2894  -15.8022   26.7285 O   0  0  0  0  0  0  0  0  0  0  0  0
   11.6441  -20.6723   24.1767 N   0  0  0  0  0  0  0  0  0  0  0  0
   11.7356  -19.8195   25.3167 C   0  0  0  0  0  0  0  0  0  0  0  0
   11.4343  -20.3118   26.4211 O   0  0  0  0  0  0  0  0  0  0  0  0
   12.1606  -18.4322   25.1952 C   0  0  0  0  0  0  0  0  0  0  0  0
   10.9987  -17.5146   25.0375 C   0  0  0  0  0  0  0  0  0  0  0  0
   11.3209  -16.0615   24.8958 C   0  0  2  0  0  0  0  0  0  0  0  0
   10.0611  -15.3595   24.6101 N   0  0  0  0  0  0  0  0  0  0  0  0
   12.2622  -15.7294   23.8058 C   0  0  0  0  0  0  0  0  0  0  0  0
   11.8041  -15.1028   22.6681 O   0  0  0  0  0  0  0  0  0  0  0  0
   13.4743  -15.9929   23.8635 O   0  0  0  0  0  0  0  0  0  0  0  0
  2  1  1  6
  3  2  1  0
  4  3  1  0
  5  4  1  0
  6  5  1  0
  7  6  1  0
  8  9  2  0
  8  2  1  0
 10 11  1  0
 12 11  1  0
 12 14  1  0
 12 13  1  6
 14 15  1  1
 15  8  1  0
 16 24  1  0
 16 14  1  0
 17 16  2  0
 18 19  1  0
 19 21  1  0
 20 19  2  0
 21 22  1  0
 23 22  1  6
 23 24  1  0
 23 25  1  0
 25 26  1  0
 27 25  2  0
M  END
$$$$
