CNI.pdb
     RDKit          3D

 23 22  0  0  1  0  0  0  0  0999 V2000
    7.6898  -14.7489   17.3694 N   0  0  0  0  0  0  0  0  0  0  0  0
    8.3708  -14.2155   18.5326 C   0  0  1  0  0  0  0  0  0  0  0  0
    7.8169  -12.7997   18.7365 C   0  0  0  0  0  0  0  0  0  0  0  0
    8.6535  -12.1526   20.2253 S   0  0  0  0  0  0  0  0  0  0  0  0
    8.1104  -15.0494   19.7312 C   0  0  0  0  0  0  0  0  0  0  0  0
    7.0147  -15.6305   19.9091 O   0  0  0  0  0  0  0  0  0  0  0  0
    8.4541  -18.7829   23.1368 N   0  0  0  0  0  0  0  0  0  0  0  0
    9.6611  -18.0968   22.9077 C   0  0  0  0  0  0  0  0  0  0  0  0
   10.5711  -18.2595   23.7759 O   0  0  0  0  0  0  0  0  0  0  0  0
    9.8087  -17.2548   21.7191 C   0  0  0  0  0  0  0  0  0  0  0  0
    8.9837  -16.0250   21.8580 C   0  0  2  0  0  0  0  0  0  0  0  0
    9.1222  -15.1985   20.7062 N   0  0  0  0  0  0  0  0  0  0  0  0
    9.2859  -15.2836   23.1272 C   0  0  0  0  0  0  0  0  0  0  0  0
   10.4336  -14.8059   23.2389 O   0  0  0  0  0  0  0  0  0  0  0  0
    6.5616  -11.5175   26.9744 C   0  0  0  0  0  0  0  0  0  0  0  0
    7.6531  -12.5695   26.9220 C   0  0  0  0  0  0  0  0  0  0  0  0
    7.4096  -13.4118   25.6853 C   0  0  2  0  0  0  0  0  0  0  0  0
    6.0828  -14.0946   25.9115 C   0  0  0  0  0  0  0  0  0  0  0  0
    8.4701  -14.4123   25.3953 C   0  0  2  0  0  0  0  0  0  0  0  0
    8.3549  -15.1182   24.1505 N   0  0  0  0  0  0  0  0  0  0  0  0
    8.7863  -15.2470   26.5300 C   0  0  0  0  0  0  0  0  0  0  0  0
    8.5323  -16.4621   26.5815 O   0  0  0  0  0  0  0  0  0  0  0  0
    9.4184  -14.6680   27.6502 O   0  0  0  0  0  0  0  0  0  0  0  0
  2  1  1  6
  2  5  1  0
  3  2  1  0
  4  3  1  0
  5 12  1  0
  6  5  2  0
  7  8  1  0
  8  9  2  0
 10  8  1  0
 11 13  1  0
 11 10  1  6
 12 11  1  0
 13 14  2  0
 16 15  1  0
 17 16  1  0
 17 18  1  1
 19 17  1  0
 20 13  1  0
 19 20  1  6
 21 19  1  0
 22 21  2  0
 23 21  1  0
M  END
$$$$
