CNI.pdb
     RDKit          3D

 23 22  0  0  1  0  0  0  0  0999 V2000
    8.5630  -13.7874   17.8544 N   0  0  0  0  0  0  0  0  0  0  0  0
    9.2547  -14.3614   18.9916 C   0  0  1  0  0  0  0  0  0  0  0  0
    9.9746  -13.1965   19.6827 C   0  0  0  0  0  0  0  0  0  0  0  0
   11.5395  -12.9721   18.7688 S   0  0  0  0  0  0  0  0  0  0  0  0
    8.2998  -15.0055   19.9261 C   0  0  0  0  0  0  0  0  0  0  0  0
    7.2237  -15.5109   19.5304 O   0  0  0  0  0  0  0  0  0  0  0  0
    7.4820  -18.6422   19.6978 N   0  0  0  0  0  0  0  0  0  0  0  0
    7.2932  -17.9637   20.9160 C   0  0  0  0  0  0  0  0  0  0  0  0
    6.0960  -17.8656   21.3226 O   0  0  0  0  0  0  0  0  0  0  0  0
    8.4464  -17.4197   21.6357 C   0  0  0  0  0  0  0  0  0  0  0  0
    8.1223  -16.0729   22.1772 C   0  0  2  0  0  0  0  0  0  0  0  0
    8.6045  -15.0552   21.3050 N   0  0  0  0  0  0  0  0  0  0  0  0
    8.6173  -15.8961   23.5827 C   0  0  0  0  0  0  0  0  0  0  0  0
    9.7953  -16.2402   23.8107 O   0  0  0  0  0  0  0  0  0  0  0  0
    5.8559  -11.9643   26.2807 C   0  0  0  0  0  0  0  0  0  0  0  0
    6.9859  -12.7348   25.6248 C   0  0  0  0  0  0  0  0  0  0  0  0
    7.3286  -13.8970   26.5358 C   0  0  2  0  0  0  0  0  0  0  0  0
    8.0010  -13.2862   27.7411 C   0  0  0  0  0  0  0  0  0  0  0  0
    8.1983  -14.9340   25.9210 C   0  0  2  0  0  0  0  0  0  0  0  0
    7.8278  -15.3768   24.6065 N   0  0  0  0  0  0  0  0  0  0  0  0
    8.5453  -15.9963   26.8351 C   0  0  0  0  0  0  0  0  0  0  0  0
    7.8590  -17.0201   26.9914 O   0  0  0  0  0  0  0  0  0  0  0  0
    9.7247  -15.8822   27.6004 O   0  0  0  0  0  0  0  0  0  0  0  0
  2  1  1  6
  2  5  1  0
  3  2  1  0
  4  3  1  0
  5 12  1  0
  6  5  2  0
  7  8  1  0
  8  9  2  0
 10  8  1  0
 11 13  1  0
 11 10  1  6
 12 11  1  0
 13 14  2  0
 16 15  1  0
 17 16  1  0
 17 18  1  1
 19 17  1  0
 20 13  1  0
 19 20  1  6
 21 19  1  0
 22 21  2  0
 23 21  1  0
M  END
$$$$
