CNI.pdb
     RDKit          3D

 23 22  0  0  1  0  0  0  0  0999 V2000
    7.9659  -14.9300   17.3900 N   0  0  0  0  0  0  0  0  0  0  0  0
    8.4540  -14.3866   18.6421 C   0  0  1  0  0  0  0  0  0  0  0  0
    7.9785  -12.9290   18.6863 C   0  0  0  0  0  0  0  0  0  0  0  0
    8.5369  -12.2767   20.2980 S   0  0  0  0  0  0  0  0  0  0  0  0
    7.9117  -15.1418   19.7978 C   0  0  0  0  0  0  0  0  0  0  0  0
    6.7100  -15.4920   19.8558 O   0  0  0  0  0  0  0  0  0  0  0  0
   10.6754  -16.7448   20.9844 N   0  0  0  0  0  0  0  0  0  0  0  0
    9.9070  -17.8090   21.4913 C   0  0  0  0  0  0  0  0  0  0  0  0
   10.4312  -18.9616   21.4203 O   0  0  0  0  0  0  0  0  0  0  0  0
    8.5825  -17.5487   22.0585 C   0  0  0  0  0  0  0  0  0  0  0  0
    8.3119  -16.0862   22.0750 C   0  0  2  0  0  0  0  0  0  0  0  0
    8.7683  -15.4806   20.8692 N   0  0  0  0  0  0  0  0  0  0  0  0
    8.8811  -15.4212   23.2939 C   0  0  0  0  0  0  0  0  0  0  0  0
   10.0659  -15.0354   23.2216 O   0  0  0  0  0  0  0  0  0  0  0  0
    6.0281  -11.8482   26.1356 C   0  0  0  0  0  0  0  0  0  0  0  0
    7.1692  -12.5648   25.4390 C   0  0  0  0  0  0  0  0  0  0  0  0
    7.6095  -13.6989   26.3435 C   0  0  2  0  0  0  0  0  0  0  0  0
    8.2379  -13.0403   27.5473 C   0  0  0  0  0  0  0  0  0  0  0  0
    8.5560  -14.6606   25.7197 C   0  0  2  0  0  0  0  0  0  0  0  0
    8.1509  -15.2280   24.4647 N   0  0  0  0  0  0  0  0  0  0  0  0
    9.0976  -15.6127   26.6603 C   0  0  0  0  0  0  0  0  0  0  0  0
    8.5727  -16.7118   26.9050 O   0  0  0  0  0  0  0  0  0  0  0  0
   10.2871  -15.2939   27.3480 O   0  0  0  0  0  0  0  0  0  0  0  0
  2  1  1  6
  2  5  1  0
  3  2  1  0
  4  3  1  0
  5 12  1  0
  6  5  2  0
  7  8  1  0
  8  9  2  0
 10  8  1  0
 11 13  1  0
 11 10  1  6
 12 11  1  0
 13 14  2  0
 16 15  1  0
 17 16  1  0
 17 18  1  1
 19 17  1  0
 20 13  1  0
 19 20  1  6
 21 19  1  0
 22 21  2  0
 23 21  1  0
M  END
$$$$
