CNI.pdb
     RDKit          3D

 23 22  0  0  1  0  0  0  0  0999 V2000
    7.6943  -14.9608   17.6272 N   0  0  0  0  0  0  0  0  0  0  0  0
    8.1901  -14.4668   18.8966 C   0  0  1  0  0  0  0  0  0  0  0  0
    7.5401  -13.0924   19.1001 C   0  0  0  0  0  0  0  0  0  0  0  0
    8.6580  -11.8940   18.2944 S   0  0  0  0  0  0  0  0  0  0  0  0
    7.8215  -15.3813   20.0046 C   0  0  0  0  0  0  0  0  0  0  0  0
    6.9248  -16.2473   19.8788 O   0  0  0  0  0  0  0  0  0  0  0  0
    7.8255  -19.1402   20.2437 N   0  0  0  0  0  0  0  0  0  0  0  0
    7.6999  -18.3814   21.4220 C   0  0  0  0  0  0  0  0  0  0  0  0
    6.5864  -18.4615   22.0235 O   0  0  0  0  0  0  0  0  0  0  0  0
    8.8207  -17.5615   21.8860 C   0  0  0  0  0  0  0  0  0  0  0  0
    8.3344  -16.2186   22.3011 C   0  0  2  0  0  0  0  0  0  0  0  0
    8.4963  -15.2800   21.2419 N   0  0  0  0  0  0  0  0  0  0  0  0
    8.9796  -15.7538   23.5737 C   0  0  0  0  0  0  0  0  0  0  0  0
   10.2249  -15.6698   23.5740 O   0  0  0  0  0  0  0  0  0  0  0  0
    6.2403  -11.9274   26.2680 C   0  0  0  0  0  0  0  0  0  0  0  0
    7.3440  -12.7096   25.5818 C   0  0  0  0  0  0  0  0  0  0  0  0
    7.7834  -13.8025   26.5360 C   0  0  2  0  0  0  0  0  0  0  0  0
    8.4574  -13.0939   27.6855 C   0  0  0  0  0  0  0  0  0  0  0  0
    8.6921  -14.8183   25.9425 C   0  0  2  0  0  0  0  0  0  0  0  0
    8.2543  -15.4242   24.7168 N   0  0  0  0  0  0  0  0  0  0  0  0
    9.2157  -15.7471   26.9160 C   0  0  0  0  0  0  0  0  0  0  0  0
    9.8597  -15.4001   27.9201 O   0  0  0  0  0  0  0  0  0  0  0  0
    8.9931  -17.1279   26.7327 O   0  0  0  0  0  0  0  0  0  0  0  0
  2  1  1  6
  2  5  1  0
  3  2  1  0
  4  3  1  0
  5 12  1  0
  6  5  2  0
  7  8  1  0
  8  9  2  0
 10  8  1  0
 11 13  1  0
 11 10  1  6
 12 11  1  0
 13 14  2  0
 16 15  1  0
 17 16  1  0
 17 18  1  1
 19 17  1  0
 20 13  1  0
 19 20  1  6
 21 19  1  0
 22 21  2  0
 23 21  1  0
M  END
$$$$
