CNI.pdb
     RDKit          3D

 23 22  0  0  1  0  0  0  0  0999 V2000
    6.6404  -14.6836   18.9139 N   0  0  0  0  0  0  0  0  0  0  0  0
    7.8305  -14.4361   19.7035 C   0  0  1  0  0  0  0  0  0  0  0  0
    7.8570  -12.9256   19.9692 C   0  0  0  0  0  0  0  0  0  0  0  0
    8.3031  -12.1524   18.3760 S   0  0  0  0  0  0  0  0  0  0  0  0
    7.7858  -15.1846   20.9832 C   0  0  0  0  0  0  0  0  0  0  0  0
    6.7112  -15.3896   21.5941 O   0  0  0  0  0  0  0  0  0  0  0  0
   10.7715  -19.5097   23.9546 N   0  0  0  0  0  0  0  0  0  0  0  0
    9.8071  -18.5067   23.7448 C   0  0  0  0  0  0  0  0  0  0  0  0
    8.8999  -18.4094   24.6256 O   0  0  0  0  0  0  0  0  0  0  0  0
    9.8900  -17.6495   22.5608 C   0  0  0  0  0  0  0  0  0  0  0  0
    9.0350  -16.4457   22.7402 C   0  0  2  0  0  0  0  0  0  0  0  0
    8.9857  -15.6850   21.5370 N   0  0  0  0  0  0  0  0  0  0  0  0
    9.4651  -15.6188   23.9163 C   0  0  0  0  0  0  0  0  0  0  0  0
   10.5846  -15.0721   23.8391 O   0  0  0  0  0  0  0  0  0  0  0  0
    5.8974  -12.3866   26.2109 C   0  0  0  0  0  0  0  0  0  0  0  0
    7.1721  -12.9678   25.6294 C   0  0  0  0  0  0  0  0  0  0  0  0
    7.8171  -13.8131   26.7099 C   0  0  2  0  0  0  0  0  0  0  0  0
    8.3079  -12.8379   27.7521 C   0  0  0  0  0  0  0  0  0  0  0  0
    8.9292  -14.6805   26.2403 C   0  0  2  0  0  0  0  0  0  0  0  0
    8.6786  -15.4488   25.0537 N   0  0  0  0  0  0  0  0  0  0  0  0
    9.5619  -15.4177   27.3084 C   0  0  0  0  0  0  0  0  0  0  0  0
   10.1862  -14.8804   28.2386 O   0  0  0  0  0  0  0  0  0  0  0  0
    9.4765  -16.8256   27.3119 O   0  0  0  0  0  0  0  0  0  0  0  0
  2  1  1  6
  2  5  1  0
  3  2  1  0
  4  3  1  0
  5 12  1  0
  6  5  2  0
  7  8  1  0
  8  9  2  0
 10  8  1  0
 11 13  1  0
 11 10  1  6
 12 11  1  0
 13 14  2  0
 16 15  1  0
 17 16  1  0
 17 18  1  1
 19 17  1  0
 20 13  1  0
 19 20  1  6
 21 19  1  0
 22 21  2  0
 23 21  1  0
M  END
$$$$
