CNI.pdb
     RDKit          3D

 23 22  0  0  1  0  0  0  0  0999 V2000
    8.0577  -15.8340   17.6014 N   0  0  0  0  0  0  0  0  0  0  0  0
    8.4457  -15.0626   18.7657 C   0  0  1  0  0  0  0  0  0  0  0  0
    8.2664  -13.5895   18.3777 C   0  0  0  0  0  0  0  0  0  0  0  0
    8.6563  -12.6321   19.8832 S   0  0  0  0  0  0  0  0  0  0  0  0
    7.5941  -15.3962   19.9335 C   0  0  0  0  0  0  0  0  0  0  0  0
    6.4025  -15.7606   19.8024 O   0  0  0  0  0  0  0  0  0  0  0  0
    5.9587  -19.0318   23.4287 N   0  0  0  0  0  0  0  0  0  0  0  0
    6.6388  -17.8012   23.4851 C   0  0  0  0  0  0  0  0  0  0  0  0
    6.6142  -17.1986   24.6007 O   0  0  0  0  0  0  0  0  0  0  0  0
    7.3212  -17.2883   22.2956 C   0  0  0  0  0  0  0  0  0  0  0  0
    7.4794  -15.8126   22.3934 C   0  0  2  0  0  0  0  0  0  0  0  0
    8.1346  -15.3032   21.2358 N   0  0  0  0  0  0  0  0  0  0  0  0
    8.1690  -15.4022   23.6615 C   0  0  0  0  0  0  0  0  0  0  0  0
    9.3343  -15.8178   23.8270 O   0  0  0  0  0  0  0  0  0  0  0  0
    5.5103  -11.7198   27.3769 C   0  0  0  0  0  0  0  0  0  0  0  0
    6.0175  -13.0369   26.8213 C   0  0  0  0  0  0  0  0  0  0  0  0
    7.4374  -12.8081   26.3420 C   0  0  2  0  0  0  0  0  0  0  0  0
    7.3407  -11.7497   25.2704 C   0  0  0  0  0  0  0  0  0  0  0  0
    8.1207  -14.0205   25.8196 C   0  0  2  0  0  0  0  0  0  0  0  0
    7.5675  -14.5981   24.6273 N   0  0  0  0  0  0  0  0  0  0  0  0
    8.4467  -14.9757   26.8521 C   0  0  0  0  0  0  0  0  0  0  0  0
    8.0990  -16.1680   26.8200 O   0  0  0  0  0  0  0  0  0  0  0  0
    9.2005  -14.5490   27.9653 O   0  0  0  0  0  0  0  0  0  0  0  0
  2  1  1  6
  2  5  1  0
  3  2  1  0
  4  3  1  0
  5 12  1  0
  6  5  2  0
  7  8  1  0
  8  9  2  0
 10  8  1  0
 11 13  1  0
 11 10  1  6
 12 11  1  0
 13 14  2  0
 16 15  1  0
 17 16  1  0
 17 18  1  6
 19 17  1  0
 20 13  1  0
 19 20  1  6
 21 19  1  0
 22 21  2  0
 23 21  1  0
M  END
$$$$
