CNI.pdb
     RDKit          3D

 23 22  0  0  1  0  0  0  0  0999 V2000
    8.2056  -17.1166   18.2005 N   0  0  0  0  0  0  0  0  0  0  0  0
    9.0261  -16.8727   19.3704 C   0  0  1  0  0  0  0  0  0  0  0  0
    9.8241  -15.5975   19.0706 C   0  0  0  0  0  0  0  0  0  0  0  0
   11.0068  -15.4200   20.4507 S   0  0  0  0  0  0  0  0  0  0  0  0
    8.1874  -16.6847   20.5793 C   0  0  0  0  0  0  0  0  0  0  0  0
    7.1820  -15.9371   20.5788 O   0  0  0  0  0  0  0  0  0  0  0  0
    6.8336  -19.2905   21.5865 N   0  0  0  0  0  0  0  0  0  0  0  0
    6.9273  -19.4101   22.9855 C   0  0  0  0  0  0  0  0  0  0  0  0
    6.2875  -20.3716   23.5093 O   0  0  0  0  0  0  0  0  0  0  0  0
    7.7308  -18.4531   23.7484 C   0  0  0  0  0  0  0  0  0  0  0  0
    7.8403  -17.1697   23.0046 C   0  0  2  0  0  0  0  0  0  0  0  0
    8.5250  -17.3649   21.7709 N   0  0  0  0  0  0  0  0  0  0  0  0
    8.4665  -16.0882   23.8353 C   0  0  0  0  0  0  0  0  0  0  0  0
    9.7113  -16.0999   23.9268 O   0  0  0  0  0  0  0  0  0  0  0  0
    6.6775  -10.8833   26.7723 C   0  0  0  0  0  0  0  0  0  0  0  0
    7.6997  -12.0034   26.7335 C   0  0  0  0  0  0  0  0  0  0  0  0
    7.1737  -13.0622   25.7846 C   0  0  2  0  0  0  0  0  0  0  0  0
    5.9147  -13.5944   26.4245 C   0  0  0  0  0  0  0  0  0  0  0  0
    8.1239  -14.1692   25.4993 C   0  0  2  0  0  0  0  0  0  0  0  0
    7.7248  -15.1043   24.4857 N   0  0  0  0  0  0  0  0  0  0  0  0
    8.6625  -14.7749   26.6941 C   0  0  0  0  0  0  0  0  0  0  0  0
    8.3400  -15.9050   27.0972 O   0  0  0  0  0  0  0  0  0  0  0  0
    9.6077  -14.0586   27.4578 O   0  0  0  0  0  0  0  0  0  0  0  0
  2  1  1  6
  2  5  1  0
  3  2  1  0
  4  3  1  0
  5 12  1  0
  6  5  2  0
  7  8  1  0
  8  9  2  0
 10  8  1  0
 11 13  1  0
 11 10  1  1
 12 11  1  0
 13 14  2  0
 16 15  1  0
 17 16  1  0
 17 18  1  1
 19 17  1  0
 20 13  1  0
 19 20  1  1
 21 19  1  0
 22 21  2  0
 23 21  1  0
M  END
$$$$
