CNI.pdb
     RDKit          3D

 23 22  0  0  1  0  0  0  0  0999 V2000
    8.3707  -15.3365   17.5066 N   0  0  0  0  0  0  0  0  0  0  0  0
    8.6110  -14.5909   18.7263 C   0  0  1  0  0  0  0  0  0  0  0  0
    7.9987  -13.2025   18.5026 C   0  0  0  0  0  0  0  0  0  0  0  0
    8.3305  -12.2646   20.0340 S   0  0  0  0  0  0  0  0  0  0  0  0
    7.9746  -15.2545   19.8902 C   0  0  0  0  0  0  0  0  0  0  0  0
    7.0288  -16.0652   19.7556 O   0  0  0  0  0  0  0  0  0  0  0  0
    8.5397  -19.5871   22.1273 N   0  0  0  0  0  0  0  0  0  0  0  0
    8.1146  -18.2752   21.8477 C   0  0  0  0  0  0  0  0  0  0  0  0
    6.8830  -18.1304   21.5821 O   0  0  0  0  0  0  0  0  0  0  0  0
    9.0784  -17.1734   21.8746 C   0  0  0  0  0  0  0  0  0  0  0  0
    8.3985  -15.9087   22.2630 C   0  0  2  0  0  0  0  0  0  0  0  0
    8.4423  -14.9697   21.1928 N   0  0  0  0  0  0  0  0  0  0  0  0
    8.9496  -15.3409   23.5380 C   0  0  0  0  0  0  0  0  0  0  0  0
   10.1737  -15.0977   23.5617 O   0  0  0  0  0  0  0  0  0  0  0  0
    5.5749  -12.0726   26.3325 C   0  0  0  0  0  0  0  0  0  0  0  0
    6.7567  -12.6633   25.5873 C   0  0  0  0  0  0  0  0  0  0  0  0
    7.4544  -13.6206   26.5332 C   0  0  2  0  0  0  0  0  0  0  0  0
    8.0429  -12.7596   27.6242 C   0  0  0  0  0  0  0  0  0  0  0  0
    8.5075  -14.4600   25.9039 C   0  0  2  0  0  0  0  0  0  0  0  0
    8.1622  -15.0857   24.6587 N   0  0  0  0  0  0  0  0  0  0  0  0
    9.1773  -15.3271   26.8442 C   0  0  0  0  0  0  0  0  0  0  0  0
    9.7809  -14.9156   27.8491 O   0  0  0  0  0  0  0  0  0  0  0  0
    9.1552  -16.7204   26.6255 O   0  0  0  0  0  0  0  0  0  0  0  0
  2  1  1  6
  2  5  1  0
  3  2  1  0
  4  3  1  0
  5 12  1  0
  6  5  2  0
  7  8  1  0
  8  9  2  0
 10  8  1  0
 11 13  1  0
 11 10  1  6
 12 11  1  0
 13 14  2  0
 16 15  1  0
 17 16  1  0
 17 18  1  1
 19 17  1  0
 20 13  1  0
 19 20  1  6
 21 19  1  0
 22 21  2  0
 23 21  1  0
M  END
$$$$
