RYS.pdb
     RDKit          3D

 30 30  0  0  1  0  0  0  0  0999 V2000
    9.4449  -15.1104   16.4201 N   0  0  0  0  0  0  0  0  0  0  0  0
    8.5081  -14.1541   15.9108 C   0  0  0  0  0  0  0  0  0  0  0  0
    8.1766  -14.2627   14.6726 N   0  0  0  0  0  0  0  0  0  0  0  0
    7.9734  -13.1283   16.7424 N   0  0  0  0  0  0  0  0  0  0  0  0
    8.3743  -13.0284   18.1026 C   0  0  0  0  0  0  0  0  0  0  0  0
    7.8718  -14.0783   18.9936 C   0  0  0  0  0  0  0  0  0  0  0  0
    7.3258  -13.8018   20.3203 C   0  0  0  0  0  0  0  0  0  0  0  0
    6.8356  -14.8896   21.1903 C   0  0  2  0  0  0  0  0  0  0  0  0
    5.4681  -15.1487   21.3093 N   0  0  0  0  0  0  0  0  0  0  0  0
    7.5156  -14.7390   22.5284 C   0  0  0  0  0  0  0  0  0  0  0  0
    7.6213  -13.5716   22.9831 O   0  0  0  0  0  0  0  0  0  0  0  0
    7.4796  -13.6570   14.1981 O   0  0  0  0  0  0  0  0  0  0  0  0
   10.9456  -14.7485   30.5437 C   0  0  0  0  0  0  0  0  0  0  0  0
   10.2422  -14.9535   29.3393 C   0  0  0  0  0  0  0  0  0  0  0  0
    9.9640  -16.2162   28.9086 C   0  0  0  0  0  0  0  0  0  0  0  0
    9.2812  -16.4380   27.7417 C   0  0  0  0  0  0  0  0  0  0  0  0
    8.8410  -15.3865   26.9458 C   0  0  0  0  0  0  0  0  0  0  0  0
    8.1063  -15.5439   25.6987 C   0  0  1  0  0  0  0  0  0  0  0  0
    8.8756  -15.5327   24.4408 N   0  0  0  0  0  0  0  0  0  0  0  0
    8.0322  -15.8001   23.2851 C   0  0  0  0  0  0  0  0  0  0  0  0
    9.9248  -16.6247   24.5518 O   0  0  0  0  0  0  0  0  0  0  0  0
    9.6379  -17.8048   24.8364 C   0  0  0  0  0  0  0  0  0  0  0  0
    9.1297  -14.1155   27.3949 C   0  0  0  0  0  0  0  0  0  0  0  0
    9.8302  -13.8804   28.5894 O   0  0  0  0  0  0  0  0  0  0  0  0
   13.2588  -16.0852   22.3123 C   0  0  0  0  0  0  0  0  0  0  0  0
   12.8865  -17.3170   22.8431 C   0  0  1  0  0  0  0  0  0  0  0  0
   12.3589  -17.1485   24.2832 N   0  0  0  0  0  0  0  0  0  0  0  0
   11.2632  -16.2338   24.3109 C   0  0  0  0  0  0  0  0  0  0  0  0
   13.5068  -16.7317   25.1555 O   0  0  0  0  0  0  0  0  0  0  0  0
   14.5225  -17.4300   25.3090 O   0  0  0  0  0  0  0  0  0  0  0  0
  2  1  1  0
  2  3  2  0
  4  2  1  0
  5  6  1  0
  5  4  1  0
  7  6  1  0
  8  7  1  0
  8  9  1  1
 10 11  2  0
 10  8  1  0
 12 13  1  0
 13 14  2  0
 14 15  1  0
 16 17  1  0
 16 15  2  0
 18 17  1  6
 18 19  1  0
 19 10  1  0
 20 18  1  0
 21 20  2  0
 22 16  1  0
 23 22  2  0
 23 13  1  0
 25 24  1  0
 26 25  1  6
 26 27  1  0
 27 20  1  0
 28 26  1  0
 28 30  1  0
 29 28  2  0
M  END
$$$$
