RYS.pdb
     RDKit          3D

 30 30  0  0  1  0  0  0  0  0999 V2000
    9.1536  -13.0998   12.7011 N   0  0  0  0  0  0  0  0  0  0  0  0
    8.8654  -13.8489   13.8874 C   0  0  0  0  0  0  0  0  0  0  0  0
    9.2371  -15.0802   13.9060 N   0  0  0  0  0  0  0  0  0  0  0  0
    8.1933  -13.2524   14.9930 N   0  0  0  0  0  0  0  0  0  0  0  0
    7.8123  -14.0441   16.1105 C   0  0  0  0  0  0  0  0  0  0  0  0
    8.9109  -14.6698   16.8523 C   0  0  0  0  0  0  0  0  0  0  0  0
    9.0545  -14.5624   18.3023 C   0  0  0  0  0  0  0  0  0  0  0  0
    8.9638  -15.7520   19.1724 C   0  0  2  0  0  0  0  0  0  0  0  0
    7.9683  -16.7110   18.9711 N   0  0  0  0  0  0  0  0  0  0  0  0
    9.0260  -15.2722   20.6013 C   0  0  0  0  0  0  0  0  0  0  0  0
   10.1212  -14.7947   20.9925 O   0  0  0  0  0  0  0  0  0  0  0  0
    9.1149  -15.7164   14.7174 O   0  0  0  0  0  0  0  0  0  0  0  0
    6.9344  -12.4319   28.7787 C   0  0  0  0  0  0  0  0  0  0  0  0
    6.9277  -12.8702   27.4389 C   0  0  0  0  0  0  0  0  0  0  0  0
    7.4198  -12.0730   26.4491 C   0  0  0  0  0  0  0  0  0  0  0  0
    7.4236  -12.4796   25.1408 C   0  0  0  0  0  0  0  0  0  0  0  0
    6.9272  -13.7224   24.7642 C   0  0  0  0  0  0  0  0  0  0  0  0
    6.9032  -14.2245   23.3978 C   0  0  1  0  0  0  0  0  0  0  0  0
    8.1317  -14.8479   22.8723 N   0  0  0  0  0  0  0  0  0  0  0  0
    7.9584  -15.3259   21.5085 C   0  0  0  0  0  0  0  0  0  0  0  0
    8.4523  -16.0271   23.7736 O   0  0  0  0  0  0  0  0  0  0  0  0
    7.6632  -16.9786   23.9403 C   0  0  0  0  0  0  0  0  0  0  0  0
    6.4333  -14.5174   25.7765 C   0  0  0  0  0  0  0  0  0  0  0  0
    6.4250  -14.1068   27.1197 O   0  0  0  0  0  0  0  0  0  0  0  0
   11.7277  -17.5781   23.4283 C   0  0  0  0  0  0  0  0  0  0  0  0
   11.6447  -17.4325   24.8102 C   0  0  2  0  0  0  0  0  0  0  0  0
   10.2070  -17.0623   25.2300 N   0  0  0  0  0  0  0  0  0  0  0  0
    9.7091  -15.9951   24.4231 C   0  0  0  0  0  0  0  0  0  0  0  0
   10.2151  -16.7476   26.6973 O   0  0  0  0  0  0  0  0  0  0  0  0
   10.6139  -17.5525   27.5552 O   0  0  0  0  0  0  0  0  0  0  0  0
  2  1  1  0
  2  3  2  0
  4  2  1  0
  5  6  1  0
  5  4  1  0
  7  6  1  0
  8  7  1  0
  8  9  1  1
 10 11  2  0
 10  8  1  0
 12 13  1  0
 13 14  2  0
 14 15  1  0
 16 17  1  0
 16 15  2  0
 18 17  1  6
 18 19  1  0
 19 10  1  0
 20 18  1  0
 21 20  2  0
 22 16  1  0
 23 22  2  0
 23 13  1  0
 25 24  1  0
 26 25  1  6
 26 27  1  0
 27 20  1  0
 28 26  1  0
 28 30  1  0
 29 28  2  0
M  END
$$$$
