RYS.pdb
     RDKit          3D

 30 30  0  0  1  0  0  0  0  0999 V2000
    6.2960  -18.1957   17.5507 N   0  0  0  0  0  0  0  0  0  0  0  0
    7.3712  -17.8212   16.6818 C   0  0  0  0  0  0  0  0  0  0  0  0
    7.9021  -18.7542   15.9730 N   0  0  0  0  0  0  0  0  0  0  0  0
    7.8304  -16.4743   16.6125 N   0  0  0  0  0  0  0  0  0  0  0  0
    7.3273  -15.4995   17.5166 C   0  0  0  0  0  0  0  0  0  0  0  0
    7.2711  -15.9050   18.9241 C   0  0  0  0  0  0  0  0  0  0  0  0
    8.1166  -15.3115   19.9574 C   0  0  0  0  0  0  0  0  0  0  0  0
    7.6100  -14.2450   20.8442 C   0  0  2  0  0  0  0  0  0  0  0  0
    7.6156  -12.9101   20.4326 N   0  0  0  0  0  0  0  0  0  0  0  0
    8.2531  -14.4376   22.1952 C   0  0  0  0  0  0  0  0  0  0  0  0
    9.3579  -13.8682   22.3842 O   0  0  0  0  0  0  0  0  0  0  0  0
    8.7299  -18.6244   15.3598 O   0  0  0  0  0  0  0  0  0  0  0  0
    6.1634  -10.0709   27.3322 C   0  0  0  0  0  0  0  0  0  0  0  0
    6.5106  -11.3740   26.9214 C   0  0  0  0  0  0  0  0  0  0  0  0
    5.6958  -12.4283   27.2078 C   0  0  0  0  0  0  0  0  0  0  0  0
    6.0137  -13.7025   26.8175 C   0  0  0  0  0  0  0  0  0  0  0  0
    7.1797  -13.9773   26.1119 C   0  0  0  0  0  0  0  0  0  0  0  0
    7.5806  -15.3019   25.6597 C   0  0  2  0  0  0  0  0  0  0  0  0
    8.4522  -15.3894   24.4737 N   0  0  0  0  0  0  0  0  0  0  0  0
    7.7082  -15.2014   23.2369 C   0  0  0  0  0  0  0  0  0  0  0  0
    9.0674  -16.7776   24.4757 O   0  0  0  0  0  0  0  0  0  0  0  0
    8.4188  -17.7997   24.1749 C   0  0  0  0  0  0  0  0  0  0  0  0
    7.9931  -12.9007   25.8296 C   0  0  0  0  0  0  0  0  0  0  0  0
    7.6744  -11.5919   26.2274 O   0  0  0  0  0  0  0  0  0  0  0  0
   12.5540  -17.5546   23.2188 C   0  0  0  0  0  0  0  0  0  0  0  0
   12.5533  -18.0273   24.5282 C   0  0  2  0  0  0  0  0  0  0  0  0
   11.1141  -18.0876   25.0810 N   0  0  0  0  0  0  0  0  0  0  0  0
   10.4328  -16.8567   24.8385 C   0  0  0  0  0  0  0  0  0  0  0  0
   11.1870  -18.4532   26.5347 O   0  0  0  0  0  0  0  0  0  0  0  0
   11.7163  -19.5019   26.9383 O   0  0  0  0  0  0  0  0  0  0  0  0
  2  1  1  0
  2  3  2  0
  4  2  1  0
  5  6  1  0
  5  4  1  0
  7  6  1  0
  8  7  1  0
  8  9  1  6
 10 11  2  0
 10  8  1  0
 12 13  1  0
 13 14  2  0
 14 15  1  0
 16 17  1  0
 16 15  2  0
 18 17  1  1
 18 19  1  0
 19 10  1  0
 20 18  1  0
 21 20  2  0
 22 16  1  0
 23 22  2  0
 23 13  1  0
 25 24  1  0
 26 25  1  6
 26 27  1  0
 27 20  1  0
 28 26  1  0
 28 30  1  0
 29 28  2  0
M  END
$$$$
