RYS.pdb
     RDKit          3D

 30 30  0  0  1  0  0  0  0  0999 V2000
    9.8898  -13.7348   17.9299 N   0  0  0  0  0  0  0  0  0  0  0  0
    8.6231  -13.0728   18.0231 C   0  0  0  0  0  0  0  0  0  0  0  0
    8.6348  -11.7865   18.0299 N   0  0  0  0  0  0  0  0  0  0  0  0
    7.4078  -13.8114   18.1080 N   0  0  0  0  0  0  0  0  0  0  0  0
    7.3799  -15.0698   18.7688 C   0  0  0  0  0  0  0  0  0  0  0  0
    7.1078  -15.0274   20.2085 C   0  0  0  0  0  0  0  0  0  0  0  0
    8.1580  -15.1239   21.2198 C   0  0  0  0  0  0  0  0  0  0  0  0
    8.4866  -16.4111   21.8643 C   0  0  2  0  0  0  0  0  0  0  0  0
    7.6176  -17.5007   21.7692 N   0  0  0  0  0  0  0  0  0  0  0  0
    8.8898  -16.1138   23.2872 C   0  0  0  0  0  0  0  0  0  0  0  0
    9.7995  -15.2620   23.4531 O   0  0  0  0  0  0  0  0  0  0  0  0
    7.7830  -11.1936   18.0592 O   0  0  0  0  0  0  0  0  0  0  0  0
    6.5146  -10.4372   26.0839 C   0  0  0  0  0  0  0  0  0  0  0  0
    6.8408  -11.8010   26.2285 C   0  0  0  0  0  0  0  0  0  0  0  0
    5.8895  -12.7610   26.0520 C   0  0  0  0  0  0  0  0  0  0  0  0
    6.1851  -14.0919   26.1870 C   0  0  0  0  0  0  0  0  0  0  0  0
    7.4670  -14.5230   26.5087 C   0  0  0  0  0  0  0  0  0  0  0  0
    7.8568  -15.9174   26.6630 C   0  0  2  0  0  0  0  0  0  0  0  0
    8.8752  -16.4531   25.7411 N   0  0  0  0  0  0  0  0  0  0  0  0
    8.3264  -16.7188   24.4195 C   0  0  0  0  0  0  0  0  0  0  0  0
    9.3762  -17.7552   26.3405 O   0  0  0  0  0  0  0  0  0  0  0  0
    8.6168  -18.5753   26.8942 C   0  0  0  0  0  0  0  0  0  0  0  0
    8.4181  -13.5405   26.6837 C   0  0  0  0  0  0  0  0  0  0  0  0
    8.1223  -12.1741   26.5482 O   0  0  0  0  0  0  0  0  0  0  0  0
   13.4905  -18.3809   25.8300 C   0  0  0  0  0  0  0  0  0  0  0  0
   12.6675  -19.4993   25.9289 C   0  0  1  0  0  0  0  0  0  0  0  0
   11.4023  -19.1695   26.7481 N   0  0  0  0  0  0  0  0  0  0  0  0
   10.7664  -17.9980   26.2369 C   0  0  0  0  0  0  0  0  0  0  0  0
   11.7974  -19.0528   28.1911 O   0  0  0  0  0  0  0  0  0  0  0  0
   11.6295  -18.0148   28.8523 O   0  0  0  0  0  0  0  0  0  0  0  0
  2  1  1  0
  2  3  2  0
  4  2  1  0
  5  6  1  0
  5  4  1  0
  7  6  1  0
  8  7  1  0
  8  9  1  1
 10 11  2  0
 10  8  1  0
 12 13  1  0
 13 14  2  0
 14 15  1  0
 16 17  1  0
 16 15  2  0
 18 17  1  6
 18 19  1  0
 19 10  1  0
 20 18  1  0
 21 20  2  0
 22 16  1  0
 23 22  2  0
 23 13  1  0
 25 24  1  0
 26 25  1  6
 26 27  1  0
 27 20  1  0
 28 26  1  0
 28 30  1  0
 29 28  2  0
M  END
$$$$
