RYS.pdb
     RDKit          3D

 30 30  0  0  1  0  0  0  0  0999 V2000
    7.3142  -12.7013   15.8642 N   0  0  0  0  0  0  0  0  0  0  0  0
    8.1009  -13.8420   15.5020 C   0  0  0  0  0  0  0  0  0  0  0  0
    7.9335  -14.3154   14.3177 N   0  0  0  0  0  0  0  0  0  0  0  0
    9.0236  -14.4244   16.4182 N   0  0  0  0  0  0  0  0  0  0  0  0
    8.5917  -14.8226   17.7126 C   0  0  0  0  0  0  0  0  0  0  0  0
    7.8758  -13.8042   18.4867 C   0  0  0  0  0  0  0  0  0  0  0  0
    7.8866  -13.7617   19.9471 C   0  0  0  0  0  0  0  0  0  0  0  0
    7.5421  -14.9508   20.7519 C   0  0  2  0  0  0  0  0  0  0  0  0
    6.2088  -15.2782   21.0093 N   0  0  0  0  0  0  0  0  0  0  0  0
    8.3804  -14.9061   22.0054 C   0  0  0  0  0  0  0  0  0  0  0  0
    9.6254  -14.8211   21.8528 O   0  0  0  0  0  0  0  0  0  0  0  0
    8.4773  -15.1059   13.9211 O   0  0  0  0  0  0  0  0  0  0  0  0
   11.0452  -15.0354   30.5227 C   0  0  0  0  0  0  0  0  0  0  0  0
   10.3208  -14.9006   29.3209 C   0  0  0  0  0  0  0  0  0  0  0  0
   10.3273  -13.7204   28.6394 C   0  0  0  0  0  0  0  0  0  0  0  0
    9.6310  -13.5680   27.4694 C   0  0  0  0  0  0  0  0  0  0  0  0
    8.8880  -14.6091   26.9246 C   0  0  0  0  0  0  0  0  0  0  0  0
    8.1289  -14.5238   25.6852 C   0  0  1  0  0  0  0  0  0  0  0  0
    8.7729  -15.0054   24.4493 N   0  0  0  0  0  0  0  0  0  0  0  0
    7.8689  -14.9552   23.3098 C   0  0  0  0  0  0  0  0  0  0  0  0
    9.1821  -16.4471   24.6942 O   0  0  0  0  0  0  0  0  0  0  0  0
    8.3580  -17.3401   24.9757 C   0  0  0  0  0  0  0  0  0  0  0  0
    8.8916  -15.7965   27.6251 C   0  0  0  0  0  0  0  0  0  0  0  0
    9.6020  -15.9598   28.8257 O   0  0  0  0  0  0  0  0  0  0  0  0
   12.6003  -17.6629   22.9287 C   0  0  0  0  0  0  0  0  0  0  0  0
   11.7215  -18.5847   23.4908 C   0  0  1  0  0  0  0  0  0  0  0  0
   11.1195  -18.0303   24.7988 N   0  0  0  0  0  0  0  0  0  0  0  0
   10.5634  -16.7333   24.5835 C   0  0  0  0  0  0  0  0  0  0  0  0
   12.1884  -18.0542   25.8520 O   0  0  0  0  0  0  0  0  0  0  0  0
   12.6321  -17.0226   26.3829 O   0  0  0  0  0  0  0  0  0  0  0  0
  2  1  1  0
  2  3  2  0
  4  2  1  0
  5  6  1  0
  5  4  1  0
  7  6  1  0
  8  7  1  0
  8  9  1  1
 10 11  2  0
 10  8  1  0
 12 13  1  0
 13 14  2  0
 14 15  1  0
 16 17  1  0
 16 15  2  0
 18 17  1  6
 18 19  1  0
 19 10  1  0
 20 18  1  0
 21 20  2  0
 22 16  1  0
 23 22  2  0
 23 13  1  0
 25 24  1  0
 26 25  1  6
 26 27  1  0
 27 20  1  0
 28 26  1  0
 28 30  1  0
 29 28  2  0
M  END
$$$$
