RYS.pdb
     RDKit          3D

 30 30  0  0  1  0  0  0  0  0999 V2000
    8.9751  -14.2862   16.1390 N   0  0  0  0  0  0  0  0  0  0  0  0
    8.1309  -13.5919   17.0647 C   0  0  0  0  0  0  0  0  0  0  0  0
    8.3373  -12.3308   17.2116 N   0  0  0  0  0  0  0  0  0  0  0  0
    7.1120  -14.2739   17.7903 N   0  0  0  0  0  0  0  0  0  0  0  0
    7.3050  -14.5989   19.1607 C   0  0  0  0  0  0  0  0  0  0  0  0
    8.6669  -14.4192   19.6724 C   0  0  0  0  0  0  0  0  0  0  0  0
    9.0601  -14.7818   21.0320 C   0  0  0  0  0  0  0  0  0  0  0  0
    8.7034  -16.0929   21.6100 C   0  0  2  0  0  0  0  0  0  0  0  0
    7.4277  -16.6317   21.4272 N   0  0  0  0  0  0  0  0  0  0  0  0
    9.1238  -16.0772   23.0588 C   0  0  0  0  0  0  0  0  0  0  0  0
   10.2303  -15.5421   23.3229 O   0  0  0  0  0  0  0  0  0  0  0  0
    7.7978  -11.7205   17.8553 O   0  0  0  0  0  0  0  0  0  0  0  0
    6.2205  -10.5985   25.9211 C   0  0  0  0  0  0  0  0  0  0  0  0
    6.6057  -11.9495   26.0381 C   0  0  0  0  0  0  0  0  0  0  0  0
    5.8200  -12.9384   25.5260 C   0  0  0  0  0  0  0  0  0  0  0  0
    6.1758  -14.2575   25.6280 C   0  0  0  0  0  0  0  0  0  0  0  0
    7.3532  -14.6464   26.2567 C   0  0  0  0  0  0  0  0  0  0  0  0
    7.7994  -16.0251   26.3981 C   0  0  2  0  0  0  0  0  0  0  0  0
    8.8518  -16.5049   25.4836 N   0  0  0  0  0  0  0  0  0  0  0  0
    8.3731  -16.6151   24.1136 C   0  0  0  0  0  0  0  0  0  0  0  0
    9.2734  -17.8791   25.9733 O   0  0  0  0  0  0  0  0  0  0  0  0
    8.4880  -18.8472   26.0138 C   0  0  0  0  0  0  0  0  0  0  0  0
    8.1374  -13.6349   26.7690 C   0  0  0  0  0  0  0  0  0  0  0  0
    7.7786  -12.2806   26.6694 O   0  0  0  0  0  0  0  0  0  0  0  0
   13.2294  -18.8012   25.7665 C   0  0  0  0  0  0  0  0  0  0  0  0
   12.2713  -19.7754   26.0322 C   0  0  1  0  0  0  0  0  0  0  0  0
   11.1613  -19.2090   26.9419 N   0  0  0  0  0  0  0  0  0  0  0  0
   10.6207  -18.0108   26.3850 C   0  0  0  0  0  0  0  0  0  0  0  0
   11.7337  -19.0230   28.3167 O   0  0  0  0  0  0  0  0  0  0  0  0
   11.7722  -17.9192   28.8851 O   0  0  0  0  0  0  0  0  0  0  0  0
  2  1  1  0
  2  3  2  0
  4  2  1  0
  5  6  1  0
  5  4  1  0
  7  6  1  0
  8  7  1  0
  8  9  1  1
 10 11  2  0
 10  8  1  0
 12 13  1  0
 13 14  2  0
 14 15  1  0
 16 17  1  0
 16 15  2  0
 18 17  1  6
 18 19  1  0
 19 10  1  0
 20 18  1  0
 21 20  2  0
 22 16  1  0
 23 22  2  0
 23 13  1  0
 25 24  1  0
 26 25  1  6
 26 27  1  0
 27 20  1  0
 28 26  1  0
 28 30  1  0
 29 28  2  0
M  END
$$$$
