RYS.pdb
     RDKit          3D

 30 30  0  0  1  0  0  0  0  0999 V2000
    8.2316  -12.8161   17.3871 N   0  0  0  0  0  0  0  0  0  0  0  0
    8.1181  -13.9375   16.5034 C   0  0  0  0  0  0  0  0  0  0  0  0
    8.1307  -13.6907   15.2410 N   0  0  0  0  0  0  0  0  0  0  0  0
    7.9935  -15.2648   17.0061 N   0  0  0  0  0  0  0  0  0  0  0  0
    7.7779  -15.4871   18.3936 C   0  0  0  0  0  0  0  0  0  0  0  0
    8.9341  -15.2527   19.2635 C   0  0  0  0  0  0  0  0  0  0  0  0
    9.7692  -16.3323   19.7848 C   0  0  0  0  0  0  0  0  0  0  0  0
    9.3901  -17.0756   21.0031 C   0  0  2  0  0  0  0  0  0  0  0  0
    8.2164  -17.8319   21.0431 N   0  0  0  0  0  0  0  0  0  0  0  0
    9.5061  -16.1234   22.1675 C   0  0  0  0  0  0  0  0  0  0  0  0
    9.7833  -14.9274   21.8970 O   0  0  0  0  0  0  0  0  0  0  0  0
    8.0252  -14.4127   14.5024 O   0  0  0  0  0  0  0  0  0  0  0  0
    5.8115  -10.9538   27.9108 C   0  0  0  0  0  0  0  0  0  0  0  0
    6.2948  -11.8969   26.9812 C   0  0  0  0  0  0  0  0  0  0  0  0
    7.2610  -11.5501   26.0847 C   0  0  0  0  0  0  0  0  0  0  0  0
    7.7453  -12.4511   25.1733 C   0  0  0  0  0  0  0  0  0  0  0  0
    7.2746  -13.7582   25.1224 C   0  0  0  0  0  0  0  0  0  0  0  0
    7.7442  -14.7710   24.1878 C   0  0  1  0  0  0  0  0  0  0  0  0
    9.0060  -15.4659   24.5029 N   0  0  0  0  0  0  0  0  0  0  0  0
    9.3301  -16.4810   23.5116 C   0  0  0  0  0  0  0  0  0  0  0  0
    8.8200  -16.1339   25.8538 O   0  0  0  0  0  0  0  0  0  0  0  0
    9.0001  -15.5315   26.9310 C   0  0  0  0  0  0  0  0  0  0  0  0
    6.2980  -14.0939   26.0357 C   0  0  0  0  0  0  0  0  0  0  0  0
    5.7957  -13.1754   26.9721 O   0  0  0  0  0  0  0  0  0  0  0  0
    8.2569  -20.3741   25.7690 C   0  0  0  0  0  0  0  0  0  0  0  0
    7.5504  -19.6048   26.6893 C   0  0  1  0  0  0  0  0  0  0  0  0
    8.3126  -18.3005   27.0027 N   0  0  0  0  0  0  0  0  0  0  0  0
    8.4242  -17.4923   25.8312 C   0  0  0  0  0  0  0  0  0  0  0  0
    9.6380  -18.6668   27.6038 O   0  0  0  0  0  0  0  0  0  0  0  0
   10.7213  -18.3819   27.0669 O   0  0  0  0  0  0  0  0  0  0  0  0
  2  1  1  0
  2  3  2  0
  4  2  1  0
  5  6  1  0
  5  4  1  0
  7  6  1  0
  8  7  1  0
  8  9  1  6
 10 11  2  0
 10  8  1  0
 12 13  1  0
 13 14  2  0
 14 15  1  0
 16 17  1  0
 16 15  2  0
 18 17  1  6
 18 19  1  0
 19 10  1  0
 20 18  1  0
 21 20  2  0
 22 16  1  0
 23 22  2  0
 23 13  1  0
 25 24  1  0
 26 25  1  1
 26 27  1  0
 27 20  1  0
 28 26  1  0
 28 30  1  0
 29 28  2  0
M  END
$$$$
