RYS.pdb
     RDKit          3D

 30 30  0  0  1  0  0  0  0  0999 V2000
    8.4826  -18.2447   20.3565 N   0  0  0  0  0  0  0  0  0  0  0  0
    9.4229  -18.3119   19.2782 C   0  0  0  0  0  0  0  0  0  0  0  0
   10.5347  -18.9162   19.5089 N   0  0  0  0  0  0  0  0  0  0  0  0
    9.1353  -17.7303   18.0098 N   0  0  0  0  0  0  0  0  0  0  0  0
    8.0842  -16.7822   17.8791 C   0  0  0  0  0  0  0  0  0  0  0  0
    8.2416  -15.5460   18.6511 C   0  0  0  0  0  0  0  0  0  0  0  0
    7.2537  -15.0841   19.6234 C   0  0  0  0  0  0  0  0  0  0  0  0
    7.4404  -13.8217   20.3663 C   0  0  2  0  0  0  0  0  0  0  0  0
    7.8791  -12.6667   19.7146 N   0  0  0  0  0  0  0  0  0  0  0  0
    8.2546  -14.1378   21.5964 C   0  0  0  0  0  0  0  0  0  0  0  0
    9.4067  -13.6383   21.6582 O   0  0  0  0  0  0  0  0  0  0  0  0
   11.2603  -19.1016   18.7897 O   0  0  0  0  0  0  0  0  0  0  0  0
    5.6315  -10.5037   27.1047 C   0  0  0  0  0  0  0  0  0  0  0  0
    6.2140  -11.6820   26.5951 C   0  0  0  0  0  0  0  0  0  0  0  0
    7.5610  -11.7588   26.4023 C   0  0  0  0  0  0  0  0  0  0  0  0
    8.1476  -12.8943   25.9089 C   0  0  0  0  0  0  0  0  0  0  0  0
    7.3968  -14.0184   25.5840 C   0  0  0  0  0  0  0  0  0  0  0  0
    7.9494  -15.2600   25.0616 C   0  0  2  0  0  0  0  0  0  0  0  0
    8.6944  -15.2004   23.7905 N   0  0  0  0  0  0  0  0  0  0  0  0
    7.8175  -14.9427   22.6578 C   0  0  0  0  0  0  0  0  0  0  0  0
    9.3620  -16.5513   23.6031 O   0  0  0  0  0  0  0  0  0  0  0  0
    8.8013  -17.5023   23.0226 C   0  0  0  0  0  0  0  0  0  0  0  0
    6.0361  -13.9254   25.7849 C   0  0  0  0  0  0  0  0  0  0  0  0
    5.4274  -12.7644   26.2892 O   0  0  0  0  0  0  0  0  0  0  0  0
   12.8179  -17.0695   22.4933 C   0  0  0  0  0  0  0  0  0  0  0  0
   12.8050  -17.7845   23.6876 C   0  0  2  0  0  0  0  0  0  0  0  0
   11.3631  -17.9254   24.2184 N   0  0  0  0  0  0  0  0  0  0  0  0
   10.6712  -16.6803   24.1242 C   0  0  0  0  0  0  0  0  0  0  0  0
   11.4308  -18.4665   25.6165 O   0  0  0  0  0  0  0  0  0  0  0  0
   10.9737  -17.8554   26.5966 O   0  0  0  0  0  0  0  0  0  0  0  0
  2  1  1  0
  2  3  2  0
  4  2  1  0
  5  6  1  0
  5  4  1  0
  7  6  1  0
  8  7  1  0
  8  9  1  6
 10 11  2  0
 10  8  1  0
 12 13  1  0
 13 14  2  0
 14 15  1  0
 16 17  1  0
 16 15  2  0
 18 17  1  1
 18 19  1  0
 19 10  1  0
 20 18  1  0
 21 20  2  0
 22 16  1  0
 23 22  2  0
 23 13  1  0
 25 24  1  0
 26 25  1  6
 26 27  1  0
 27 20  1  0
 28 26  1  0
 28 30  1  0
 29 28  2  0
M  END
$$$$
