RYS.pdb
     RDKit          3D

 30 30  0  0  1  0  0  0  0  0999 V2000
    8.9307  -22.6358   15.2210 N   0  0  0  0  0  0  0  0  0  0  0  0
    8.5322  -22.8534   16.5794 C   0  0  0  0  0  0  0  0  0  0  0  0
    7.6686  -23.7824   16.7936 N   0  0  0  0  0  0  0  0  0  0  0  0
    9.0691  -22.0702   17.6415 N   0  0  0  0  0  0  0  0  0  0  0  0
   10.0882  -21.1139   17.3808 C   0  0  0  0  0  0  0  0  0  0  0  0
   10.6489  -20.4436   18.5577 C   0  0  0  0  0  0  0  0  0  0  0  0
    9.9643  -19.3585   19.2566 C   0  0  0  0  0  0  0  0  0  0  0  0
   10.1671  -17.9481   18.8693 C   0  0  2  0  0  0  0  0  0  0  0  0
   11.1560  -17.5946   17.9483 N   0  0  0  0  0  0  0  0  0  0  0  0
   10.2413  -17.1372   20.1393 C   0  0  0  0  0  0  0  0  0  0  0  0
   11.3672  -16.6727   20.4511 O   0  0  0  0  0  0  0  0  0  0  0  0
    7.2813  -24.0173   17.7278 O   0  0  0  0  0  0  0  0  0  0  0  0
    7.7408  -11.4148   18.0377 C   0  0  0  0  0  0  0  0  0  0  0  0
    7.9007  -12.3118   19.1133 C   0  0  0  0  0  0  0  0  0  0  0  0
    8.7779  -12.0348   20.1189 C   0  0  0  0  0  0  0  0  0  0  0  0
    8.9483  -12.8923   21.1737 C   0  0  0  0  0  0  0  0  0  0  0  0
    8.2344  -14.0816   21.2666 C   0  0  0  0  0  0  0  0  0  0  0  0
    8.3575  -15.0376   22.3578 C   0  0  2  0  0  0  0  0  0  0  0  0
    9.3461  -16.1221   22.2141 N   0  0  0  0  0  0  0  0  0  0  0  0
    9.1531  -16.8744   20.9832 C   0  0  0  0  0  0  0  0  0  0  0  0
    9.1593  -17.0535   23.3987 O   0  0  0  0  0  0  0  0  0  0  0  0
    8.2341  -17.8881   23.4569 C   0  0  0  0  0  0  0  0  0  0  0  0
    7.3508  -14.3475   20.2423 C   0  0  0  0  0  0  0  0  0  0  0  0
    7.1717  -13.4739   19.1571 O   0  0  0  0  0  0  0  0  0  0  0  0
   11.7449  -20.1440   25.0321 C   0  0  0  0  0  0  0  0  0  0  0  0
   11.2656  -19.0692   24.2887 C   0  0  1  0  0  0  0  0  0  0  0  0
   10.5837  -18.0357   25.2092 N   0  0  0  0  0  0  0  0  0  0  0  0
   10.1007  -16.9289   24.4476 C   0  0  0  0  0  0  0  0  0  0  0  0
   11.5624  -17.6438   26.2772 O   0  0  0  0  0  0  0  0  0  0  0  0
   11.8847  -18.4038   27.2053 O   0  0  0  0  0  0  0  0  0  0  0  0
  2  1  1  0
  2  3  2  0
  4  2  1  0
  5  6  1  0
  5  4  1  0
  7  6  1  0
  8  7  1  0
  8  9  1  1
 10 11  2  0
 10  8  1  0
 12 13  1  0
 13 14  2  0
 14 15  1  0
 16 17  1  0
 16 15  2  0
 18 17  1  6
 18 19  1  0
 19 10  1  0
 20 18  1  0
 21 20  2  0
 22 16  1  0
 23 22  2  0
 23 13  1  0
 25 24  1  0
 26 25  1  6
 26 27  1  0
 27 20  1  0
 28 26  1  0
 28 30  1  0
 29 28  2  0
M  END
$$$$
