YMF.pdb
     RDKit          3D

 32 33  0  0  1  0  0  0  0  0999 V2000
    7.8558  -21.6182   15.9203 O   0  0  0  0  0  0  0  0  0  0  0  0
    8.3483  -20.9247   17.0232 C   0  0  0  0  0  0  0  0  0  0  0  0
    7.6642  -19.8304   17.5123 C   0  0  0  0  0  0  0  0  0  0  0  0
    8.1388  -19.1257   18.6113 C   0  0  0  0  0  0  0  0  0  0  0  0
    9.2921  -19.4852   19.2462 C   0  0  0  0  0  0  0  0  0  0  0  0
    9.8454  -18.7615   20.4296 C   0  0  0  0  0  0  0  0  0  0  0  0
    9.5561  -17.2878   20.2571 C   0  0  2  0  0  0  0  0  0  0  0  0
   10.3116  -16.8033   19.1293 N   0  0  0  0  0  0  0  0  0  0  0  0
    9.7689  -16.5054   21.4766 C   0  0  0  0  0  0  0  0  0  0  0  0
   10.8624  -15.8863   21.6077 O   0  0  0  0  0  0  0  0  0  0  0  0
    9.9810  -20.5923   18.7487 C   0  0  0  0  0  0  0  0  0  0  0  0
    9.5084  -21.2907   17.6575 C   0  0  0  0  0  0  0  0  0  0  0  0
    6.7627  -12.1710   26.2420 C   0  0  0  0  0  0  0  0  0  0  0  0
    6.2777  -12.8135   24.6109 S   0  0  0  0  0  0  0  0  0  0  0  0
    7.7479  -13.5280   23.7773 C   0  0  0  0  0  0  0  0  0  0  0  0
    7.8867  -14.9300   24.2818 C   0  0  0  0  0  0  0  0  0  0  0  0
    9.1033  -15.6473   23.7493 C   0  0  2  0  0  0  0  0  0  0  0  0
    8.8426  -16.3742   22.5486 N   0  0  0  0  0  0  0  0  0  0  0  0
    9.6165  -16.5270   24.8283 C   0  0  0  0  0  0  0  0  0  0  0  0
    8.9742  -17.4971   25.2875 O   0  0  0  0  0  0  0  0  0  0  0  0
   10.9022  -16.2751   25.3856 N   0  0  0  0  0  0  0  0  0  0  0  0
   11.3582  -17.0262   26.5475 C   0  0  1  0  0  0  0  0  0  0  0  0
   10.3494  -17.0551   27.6333 C   0  0  0  0  0  0  0  0  0  0  0  0
   10.0659  -15.6786   28.1078 C   0  0  0  0  0  0  0  0  0  0  0  0
   10.9834  -15.0237   28.9053 C   0  0  0  0  0  0  0  0  0  0  0  0
   10.7622  -13.7407   29.3373 C   0  0  0  0  0  0  0  0  0  0  0  0
    9.6213  -13.0524   28.9965 C   0  0  0  0  0  0  0  0  0  0  0  0
    8.7119  -13.7117   28.2014 C   0  0  0  0  0  0  0  0  0  0  0  0
    8.9180  -14.9967   27.7599 C   0  0  0  0  0  0  0  0  0  0  0  0
   11.6881  -18.3906   26.1038 C   0  0  0  0  0  0  0  0  0  0  0  0
   12.9993  -18.6775   25.6769 O   0  0  0  0  0  0  0  0  0  0  0  0
   10.8776  -19.3609   26.0688 O   0  0  0  0  0  0  0  0  0  0  0  0
  2  1  1  0
  3  2  2  0
  4  3  1  0
  5 11  1  0
  5  4  2  0
  6  5  1  0
  7  6  1  0
  7  8  1  6
  9  7  1  0
  9 10  2  0
 11 12  2  0
 12  2  1  0
 13 14  1  0
 14 15  1  0
 15 16  1  0
 17 16  1  1
 17 19  1  0
 17 18  1  0
 18  9  1  0
 19 20  2  0
 21 22  1  0
 21 19  1  0
 22 30  1  0
 22 23  1  1
 24 23  1  0
 25 24  2  0
 26 25  1  0
 27 26  2  0
 27 28  1  0
 28 29  2  0
 29 24  1  0
 30 31  1  0
 32 30  2  0
M  END
$$$$
