YMF.pdb
     RDKit          3D

 32 33  0  0  1  0  0  0  0  0999 V2000
    8.4805  -22.3163   16.0180 O   0  0  0  0  0  0  0  0  0  0  0  0
    8.9138  -21.5037   17.0628 C   0  0  0  0  0  0  0  0  0  0  0  0
   10.1347  -20.8654   16.9804 C   0  0  0  0  0  0  0  0  0  0  0  0
   10.5845  -20.0507   18.0116 C   0  0  0  0  0  0  0  0  0  0  0  0
    9.8420  -19.8506   19.1391 C   0  0  0  0  0  0  0  0  0  0  0  0
   10.2798  -18.9865   20.2757 C   0  0  0  0  0  0  0  0  0  0  0  0
    9.5503  -17.6666   20.1711 C   0  0  2  0  0  0  0  0  0  0  0  0
   10.0591  -16.9534   19.0265 N   0  0  0  0  0  0  0  0  0  0  0  0
    9.5865  -16.8812   21.4066 C   0  0  0  0  0  0  0  0  0  0  0  0
   10.6439  -16.2470   21.6823 O   0  0  0  0  0  0  0  0  0  0  0  0
    8.6080  -20.4978   19.2189 C   0  0  0  0  0  0  0  0  0  0  0  0
    8.1631  -21.3063   18.1941 C   0  0  0  0  0  0  0  0  0  0  0  0
    7.4837  -12.3062   26.6903 C   0  0  0  0  0  0  0  0  0  0  0  0
    7.3510  -13.2393   25.1346 S   0  0  0  0  0  0  0  0  0  0  0  0
    7.3510  -15.0370   25.5022 C   0  0  0  0  0  0  0  0  0  0  0  0
    7.2683  -15.7431   24.1852 C   0  0  0  0  0  0  0  0  0  0  0  0
    8.6152  -16.0465   23.5755 C   0  0  2  0  0  0  0  0  0  0  0  0
    8.5227  -16.7625   22.3439 N   0  0  0  0  0  0  0  0  0  0  0  0
    9.4119  -16.7847   24.5863 C   0  0  0  0  0  0  0  0  0  0  0  0
    9.2914  -18.0124   24.7930 O   0  0  0  0  0  0  0  0  0  0  0  0
   10.3686  -16.0828   25.3733 N   0  0  0  0  0  0  0  0  0  0  0  0
   11.3147  -16.8156   26.2040 C   0  0  1  0  0  0  0  0  0  0  0  0
   12.0999  -15.9223   27.0888 C   0  0  0  0  0  0  0  0  0  0  0  0
   11.2022  -15.2253   28.0421 C   0  0  0  0  0  0  0  0  0  0  0  0
   11.1247  -15.6541   29.3524 C   0  0  0  0  0  0  0  0  0  0  0  0
   10.3247  -15.0134   30.2641 C   0  0  0  0  0  0  0  0  0  0  0  0
    9.5674  -13.9197   29.9148 C   0  0  0  0  0  0  0  0  0  0  0  0
    9.6501  -13.4984   28.6073 C   0  0  0  0  0  0  0  0  0  0  0  0
   10.4465  -14.1287   27.6815 C   0  0  0  0  0  0  0  0  0  0  0  0
   10.5562  -17.7993   26.9942 C   0  0  0  0  0  0  0  0  0  0  0  0
   11.2545  -18.7373   27.7794 O   0  0  0  0  0  0  0  0  0  0  0  0
    9.2949  -17.8837   27.0351 O   0  0  0  0  0  0  0  0  0  0  0  0
  2  1  1  0
  3  2  2  0
  4  3  1  0
  5 11  1  0
  5  4  2  0
  6  5  1  0
  7  6  1  0
  7  8  1  6
  9  7  1  0
  9 10  2  0
 11 12  2  0
 12  2  1  0
 13 14  1  0
 14 15  1  0
 15 16  1  0
 17 16  1  1
 17 19  1  0
 17 18  1  0
 18  9  1  0
 19 20  2  0
 21 22  1  0
 21 19  1  0
 22 30  1  0
 22 23  1  1
 24 23  1  0
 25 24  2  0
 26 25  1  0
 27 26  2  0
 27 28  1  0
 28 29  2  0
 29 24  1  0
 30 31  1  0
 32 30  2  0
M  END
$$$$
