YMF.pdb
     RDKit          3D

 32 33  0  0  1  0  0  0  0  0999 V2000
    7.5842  -14.3226   14.0085 O   0  0  0  0  0  0  0  0  0  0  0  0
    8.0046  -14.2310   15.3331 C   0  0  0  0  0  0  0  0  0  0  0  0
    9.1257  -14.9192   15.7508 C   0  0  0  0  0  0  0  0  0  0  0  0
    9.5612  -14.8405   17.0675 C   0  0  0  0  0  0  0  0  0  0  0  0
    8.9023  -14.0849   17.9935 C   0  0  0  0  0  0  0  0  0  0  0  0
    9.3281  -13.9676   19.4201 C   0  0  0  0  0  0  0  0  0  0  0  0
    9.0194  -15.2756   20.1121 C   0  0  2  0  0  0  0  0  0  0  0  0
    7.7401  -15.7481   19.6454 N   0  0  0  0  0  0  0  0  0  0  0  0
    9.1116  -15.1987   21.5717 C   0  0  0  0  0  0  0  0  0  0  0  0
   10.2249  -14.8957   22.0862 O   0  0  0  0  0  0  0  0  0  0  0  0
    7.7692  -13.3906   17.5674 C   0  0  0  0  0  0  0  0  0  0  0  0
    7.3382  -13.4698   16.2598 C   0  0  0  0  0  0  0  0  0  0  0  0
    7.2477  -11.9682   26.7260 C   0  0  0  0  0  0  0  0  0  0  0  0
    6.0514  -13.2065   26.1394 S   0  0  0  0  0  0  0  0  0  0  0  0
    6.8761  -14.8416   26.0245 C   0  0  0  0  0  0  0  0  0  0  0  0
    6.8055  -15.2564   24.5883 C   0  0  0  0  0  0  0  0  0  0  0  0
    8.1472  -15.2758   23.8973 C   0  0  2  0  0  0  0  0  0  0  0  0
    8.0450  -15.4377   22.4826 N   0  0  0  0  0  0  0  0  0  0  0  0
    8.9597  -16.3500   24.5199 C   0  0  0  0  0  0  0  0  0  0  0  0
    8.7737  -17.5671   24.2998 O   0  0  0  0  0  0  0  0  0  0  0  0
   10.0101  -16.0036   25.4165 N   0  0  0  0  0  0  0  0  0  0  0  0
   10.8485  -17.0419   26.0004 C   0  0  1  0  0  0  0  0  0  0  0  0
   12.0007  -16.4841   26.7479 C   0  0  0  0  0  0  0  0  0  0  0  0
   11.5291  -15.5308   27.7820 C   0  0  0  0  0  0  0  0  0  0  0  0
   11.2377  -14.2269   27.4332 C   0  0  0  0  0  0  0  0  0  0  0  0
   10.7738  -13.3295   28.3612 C   0  0  0  0  0  0  0  0  0  0  0  0
   10.5792  -13.6872   29.6749 C   0  0  0  0  0  0  0  0  0  0  0  0
   10.8717  -14.9884   30.0145 C   0  0  0  0  0  0  0  0  0  0  0  0
   11.3369  -15.9000   29.0975 C   0  0  0  0  0  0  0  0  0  0  0  0
   10.0029  -17.8648   26.8809 C   0  0  0  0  0  0  0  0  0  0  0  0
   10.5593  -18.9959   27.5093 O   0  0  0  0  0  0  0  0  0  0  0  0
    8.7836  -17.6437   27.1341 O   0  0  0  0  0  0  0  0  0  0  0  0
  2  1  1  0
  3  2  2  0
  4  3  1  0
  5 11  1  0
  5  4  2  0
  6  5  1  0
  7  6  1  0
  7  8  1  1
  9  7  1  0
  9 10  2  0
 11 12  2  0
 12  2  1  0
 13 14  1  0
 14 15  1  0
 15 16  1  0
 17 16  1  1
 17 19  1  0
 17 18  1  0
 18  9  1  0
 19 20  2  0
 21 22  1  0
 21 19  1  0
 22 30  1  0
 22 23  1  1
 24 23  1  0
 25 24  2  0
 26 25  1  0
 27 26  2  0
 27 28  1  0
 28 29  2  0
 29 24  1  0
 30 31  1  0
 32 30  2  0
M  END
$$$$
