YMF.pdb
     RDKit          3D

 32 33  0  0  1  0  0  0  0  0999 V2000
    3.7726  -24.1520   25.1727 O   0  0  0  0  0  0  0  0  0  0  0  0
    4.6745  -23.1207   24.9221 C   0  0  0  0  0  0  0  0  0  0  0  0
    5.9493  -23.4106   24.4798 C   0  0  0  0  0  0  0  0  0  0  0  0
    6.8632  -22.3962   24.2241 C   0  0  0  0  0  0  0  0  0  0  0  0
    6.5388  -21.0821   24.3990 C   0  0  0  0  0  0  0  0  0  0  0  0
    7.4836  -19.9550   24.1397 C   0  0  0  0  0  0  0  0  0  0  0  0
    6.9264  -19.1258   23.0052 C   0  0  2  0  0  0  0  0  0  0  0  0
    6.7994  -19.9690   21.8431 N   0  0  0  0  0  0  0  0  0  0  0  0
    7.6862  -17.8998   22.7516 C   0  0  0  0  0  0  0  0  0  0  0  0
    8.6174  -17.9380   21.8986 O   0  0  0  0  0  0  0  0  0  0  0  0
    5.2489  -20.7930   24.8464 C   0  0  0  0  0  0  0  0  0  0  0  0
    4.3428  -21.8013   25.0998 C   0  0  0  0  0  0  0  0  0  0  0  0
    5.7947  -12.7086   27.0423 C   0  0  0  0  0  0  0  0  0  0  0  0
    6.9282  -12.7369   25.6201 S   0  0  0  0  0  0  0  0  0  0  0  0
    6.6484  -14.2692   24.6502 C   0  0  0  0  0  0  0  0  0  0  0  0
    7.5599  -14.1981   23.4654 C   0  0  0  0  0  0  0  0  0  0  0  0
    8.2846  -15.4910   23.1807 C   0  0  2  0  0  0  0  0  0  0  0  0
    7.4705  -16.6454   23.3874 N   0  0  0  0  0  0  0  0  0  0  0  0
    9.5065  -15.5178   24.0220 C   0  0  0  0  0  0  0  0  0  0  0  0
   10.1945  -14.5023   24.2667 O   0  0  0  0  0  0  0  0  0  0  0  0
    9.9385  -16.7494   24.5911 N   0  0  0  0  0  0  0  0  0  0  0  0
   11.1398  -16.7960   25.4138 C   0  0  1  0  0  0  0  0  0  0  0  0
   10.8334  -16.9950   26.8505 C   0  0  0  0  0  0  0  0  0  0  0  0
   10.3880  -15.7190   27.4621 C   0  0  0  0  0  0  0  0  0  0  0  0
    9.4721  -15.7348   28.4953 C   0  0  0  0  0  0  0  0  0  0  0  0
    9.0616  -14.5735   29.0993 C   0  0  0  0  0  0  0  0  0  0  0  0
    9.5421  -13.3470   28.7040 C   0  0  0  0  0  0  0  0  0  0  0  0
   10.4546  -13.3396   27.6738 C   0  0  0  0  0  0  0  0  0  0  0  0
   10.8766  -14.4935   27.0582 C   0  0  0  0  0  0  0  0  0  0  0  0
   11.9945  -17.8819   24.9062 C   0  0  0  0  0  0  0  0  0  0  0  0
   11.4984  -18.7365   23.9025 O   0  0  0  0  0  0  0  0  0  0  0  0
   13.1710  -18.1272   25.3001 O   0  0  0  0  0  0  0  0  0  0  0  0
  2  1  1  0
  3  2  2  0
  4  3  1  0
  5 11  1  0
  5  4  2  0
  6  5  1  0
  7  6  1  0
  7  8  1  6
  9  7  1  0
  9 10  2  0
 11 12  2  0
 12  2  1  0
 13 14  1  0
 14 15  1  0
 15 16  1  0
 17 16  1  1
 17 19  1  0
 17 18  1  0
 18  9  1  0
 19 20  2  0
 21 22  1  0
 21 19  1  0
 22 30  1  0
 22 23  1  1
 24 23  1  0
 25 24  2  0
 26 25  1  0
 27 26  2  0
 27 28  1  0
 28 29  2  0
 29 24  1  0
 30 31  1  0
 32 30  2  0
M  END
$$$$
