YMF.pdb
     RDKit          3D

 32 33  0  0  1  0  0  0  0  0999 V2000
    7.7966  -21.1921   15.4175 O   0  0  0  0  0  0  0  0  0  0  0  0
    8.3135  -20.5732   16.5531 C   0  0  0  0  0  0  0  0  0  0  0  0
    7.4799  -20.2560   17.6063 C   0  0  0  0  0  0  0  0  0  0  0  0
    7.9761  -19.6389   18.7475 C   0  0  0  0  0  0  0  0  0  0  0  0
    9.2983  -19.3241   18.8715 C   0  0  0  0  0  0  0  0  0  0  0  0
    9.8815  -18.6602   20.0754 C   0  0  0  0  0  0  0  0  0  0  0  0
    9.6108  -17.1766   19.9717 C   0  0  2  0  0  0  0  0  0  0  0  0
   10.4995  -16.6184   18.9838 N   0  0  0  0  0  0  0  0  0  0  0  0
    9.6670  -16.4826   21.2601 C   0  0  0  0  0  0  0  0  0  0  0  0
   10.7897  -16.0757   21.6727 O   0  0  0  0  0  0  0  0  0  0  0  0
   10.1380  -19.6463   17.8044 C   0  0  0  0  0  0  0  0  0  0  0  0
    9.6436  -20.2590   16.6721 C   0  0  0  0  0  0  0  0  0  0  0  0
    6.5045  -12.6795   26.4423 C   0  0  0  0  0  0  0  0  0  0  0  0
    7.6788  -12.9202   25.0743 S   0  0  0  0  0  0  0  0  0  0  0  0
    6.9006  -13.9643   23.7816 C   0  0  0  0  0  0  0  0  0  0  0  0
    7.3295  -15.3721   24.0531 C   0  0  0  0  0  0  0  0  0  0  0  0
    8.6639  -15.7266   23.4434 C   0  0  2  0  0  0  0  0  0  0  0  0
    8.5551  -16.2180   22.1075 N   0  0  0  0  0  0  0  0  0  0  0  0
    9.3241  -16.7061   24.3412 C   0  0  0  0  0  0  0  0  0  0  0  0
    9.2275  -17.9447   24.1962 O   0  0  0  0  0  0  0  0  0  0  0  0
   10.1130  -16.2377   25.4300 N   0  0  0  0  0  0  0  0  0  0  0  0
   11.0678  -17.1256   26.0796 C   0  0  1  0  0  0  0  0  0  0  0  0
   12.0834  -16.3855   26.8659 C   0  0  0  0  0  0  0  0  0  0  0  0
   11.4241  -15.5498   27.8990 C   0  0  0  0  0  0  0  0  0  0  0  0
   10.8293  -14.3562   27.5409 C   0  0  0  0  0  0  0  0  0  0  0  0
   10.1883  -13.5748   28.4685 C   0  0  0  0  0  0  0  0  0  0  0  0
   10.1100  -13.9442   29.7910 C   0  0  0  0  0  0  0  0  0  0  0  0
   10.7051  -15.1351   30.1399 C   0  0  0  0  0  0  0  0  0  0  0  0
   11.3509  -15.9297   29.2234 C   0  0  0  0  0  0  0  0  0  0  0  0
   10.3126  -18.0510   26.9402 C   0  0  0  0  0  0  0  0  0  0  0  0
   11.0013  -19.0703   27.6263 O   0  0  0  0  0  0  0  0  0  0  0  0
    9.0622  -18.0151   27.1272 O   0  0  0  0  0  0  0  0  0  0  0  0
  2  1  1  0
  3  2  2  0
  4  3  1  0
  5 11  1  0
  5  4  2  0
  6  5  1  0
  7  6  1  0
  7  8  1  6
  9  7  1  0
  9 10  2  0
 11 12  2  0
 12  2  1  0
 13 14  1  0
 14 15  1  0
 15 16  1  0
 17 16  1  1
 17 19  1  0
 17 18  1  0
 18  9  1  0
 19 20  2  0
 21 22  1  0
 21 19  1  0
 22 30  1  0
 22 23  1  1
 24 23  1  0
 25 24  2  0
 26 25  1  0
 27 26  2  0
 27 28  1  0
 28 29  2  0
 29 24  1  0
 30 31  1  0
 32 30  2  0
M  END
$$$$
