YMF.pdb
     RDKit          3D

 32 33  0  0  1  0  0  0  0  0999 V2000
    7.6076  -24.4868   21.4810 O   0  0  0  0  0  0  0  0  0  0  0  0
    8.0631  -23.1807   21.6427 C   0  0  0  0  0  0  0  0  0  0  0  0
    7.4397  -22.3383   22.5408 C   0  0  0  0  0  0  0  0  0  0  0  0
    7.8791  -21.0324   22.7166 C   0  0  0  0  0  0  0  0  0  0  0  0
    8.9374  -20.5343   22.0134 C   0  0  0  0  0  0  0  0  0  0  0  0
    9.4481  -19.1391   22.1642 C   0  0  0  0  0  0  0  0  0  0  0  0
    8.3679  -18.1899   21.6978 C   0  0  2  0  0  0  0  0  0  0  0  0
    8.0862  -18.4648   20.3113 N   0  0  0  0  0  0  0  0  0  0  0  0
    8.6766  -16.7823   21.9585 C   0  0  0  0  0  0  0  0  0  0  0  0
    9.4299  -16.1741   21.1468 O   0  0  0  0  0  0  0  0  0  0  0  0
    9.5652  -21.3891   21.1062 C   0  0  0  0  0  0  0  0  0  0  0  0
    9.1275  -22.6853   20.9328 C   0  0  0  0  0  0  0  0  0  0  0  0
    6.4914  -11.7715   26.6401 C   0  0  0  0  0  0  0  0  0  0  0  0
    5.7090  -13.0875   25.6581 S   0  0  0  0  0  0  0  0  0  0  0  0
    6.9718  -14.3382   25.2021 C   0  0  0  0  0  0  0  0  0  0  0  0
    7.6746  -13.8141   23.9892 C   0  0  0  0  0  0  0  0  0  0  0  0
    8.7264  -14.7509   23.4470 C   0  0  2  0  0  0  0  0  0  0  0  0
    8.1991  -16.0201   23.0610 N   0  0  0  0  0  0  0  0  0  0  0  0
    9.7872  -14.8822   24.4761 C   0  0  0  0  0  0  0  0  0  0  0  0
    9.7426  -14.3069   25.5859 O   0  0  0  0  0  0  0  0  0  0  0  0
   10.9231  -15.6988   24.2112 N   0  0  0  0  0  0  0  0  0  0  0  0
   11.8912  -15.9730   25.2647 C   0  0  1  0  0  0  0  0  0  0  0  0
   11.3198  -16.7963   26.3570 C   0  0  0  0  0  0  0  0  0  0  0  0
   10.4757  -15.9586   27.2438 C   0  0  0  0  0  0  0  0  0  0  0  0
    9.2089  -16.3847   27.5905 C   0  0  0  0  0  0  0  0  0  0  0  0
    8.4151  -15.6455   28.4304 C   0  0  0  0  0  0  0  0  0  0  0  0
    8.8444  -14.4520   28.9622 C   0  0  0  0  0  0  0  0  0  0  0  0
   10.1080  -14.0342   28.6121 C   0  0  0  0  0  0  0  0  0  0  0  0
   10.9160  -14.7625   27.7723 C   0  0  0  0  0  0  0  0  0  0  0  0
   13.0480  -16.6469   24.6524 C   0  0  0  0  0  0  0  0  0  0  0  0
   13.0171  -16.9557   23.2785 O   0  0  0  0  0  0  0  0  0  0  0  0
   14.1015  -16.9855   25.2648 O   0  0  0  0  0  0  0  0  0  0  0  0
  2  1  1  0
  3  2  2  0
  4  3  1  0
  5 11  1  0
  5  4  2  0
  6  5  1  0
  7  6  1  0
  7  8  1  6
  9  7  1  0
  9 10  2  0
 11 12  2  0
 12  2  1  0
 13 14  1  0
 14 15  1  0
 15 16  1  0
 17 16  1  1
 17 19  1  0
 17 18  1  0
 18  9  1  0
 19 20  2  0
 21 22  1  0
 21 19  1  0
 22 30  1  0
 22 23  1  1
 24 23  1  0
 25 24  2  0
 26 25  1  0
 27 26  2  0
 27 28  1  0
 28 29  2  0
 29 24  1  0
 30 31  1  0
 32 30  2  0
M  END
$$$$
