QIY.pdb
     RDKit          3D

 30 30  0  0  1  0  0  0  0  0999 V2000
   13.5893  -20.4960   18.0290 N   0  0  0  0  0  0  0  0  0  0  0  0
   12.4920  -20.6736   17.1123 C   0  0  0  0  0  0  0  0  0  0  0  0
   12.5414  -21.6130   16.2842 O   0  0  0  0  0  0  0  0  0  0  0  0
   11.3254  -19.7846   17.1315 C   0  0  0  0  0  0  0  0  0  0  0  0
   11.3586  -18.6598   18.0931 C   0  0  0  0  0  0  0  0  0  0  0  0
   10.0672  -18.2293   18.6902 C   0  0  2  0  0  0  0  0  0  0  0  0
    8.9750  -18.0373   17.7791 N   0  0  0  0  0  0  0  0  0  0  0  0
   10.2373  -16.9954   19.5412 C   0  0  0  0  0  0  0  0  0  0  0  0
   11.4029  -16.6076   19.7944 O   0  0  0  0  0  0  0  0  0  0  0  0
    6.5078  -12.9104   19.3438 C   0  0  0  0  0  0  0  0  0  0  0  0
    7.7872  -13.7170   19.4108 C   0  0  0  0  0  0  0  0  0  0  0  0
    8.0314  -14.2396   20.8086 C   0  0  2  0  0  0  0  0  0  0  0  0
    8.1118  -13.1031   21.8049 C   0  0  0  0  0  0  0  0  0  0  0  0
    9.1960  -15.1716   20.8853 C   0  0  2  0  0  0  0  0  0  0  0  0
    9.0894  -16.3122   20.0283 N   0  0  0  0  0  0  0  0  0  0  0  0
    9.4401  -15.5284   22.2969 C   0  0  0  0  0  0  0  0  0  0  0  0
    8.7213  -16.4158   22.8188 O   0  0  0  0  0  0  0  0  0  0  0  0
   10.0633  -14.9945   30.8780 O   0  0  0  0  0  0  0  0  0  0  0  0
    9.8853  -15.1095   29.5065 C   0  0  0  0  0  0  0  0  0  0  0  0
    9.8621  -16.3423   28.8926 C   0  0  0  0  0  0  0  0  0  0  0  0
    9.6814  -16.4372   27.5083 C   0  0  0  0  0  0  0  0  0  0  0  0
    9.5213  -15.3343   26.7071 C   0  0  0  0  0  0  0  0  0  0  0  0
    9.3229  -15.3848   25.2362 C   0  0  0  0  0  0  0  0  0  0  0  0
   10.6397  -15.2905   24.4951 C   0  0  2  0  0  0  0  0  0  0  0  0
   10.4403  -14.9291   23.1043 N   0  0  0  0  0  0  0  0  0  0  0  0
   11.2935  -16.6155   24.5442 C   0  0  0  0  0  0  0  0  0  0  0  0
   10.7710  -17.7304   23.8891 O   0  0  0  0  0  0  0  0  0  0  0  0
    9.5474  -14.0882   27.3473 C   0  0  0  0  0  0  0  0  0  0  0  0
    9.7254  -13.9973   28.7094 C   0  0  0  0  0  0  0  0  0  0  0  0
   12.3506  -16.7874   25.1828 O   0  0  0  0  0  0  0  0  0  0  0  0
  2  4  1  0
  2  1  1  0
  3  2  2  0
  5  6  1  0
  5  4  1  0
  6  7  1  6
  8  6  1  0
  8  9  2  0
 11 10  1  0
 12 11  1  0
 12 14  1  0
 12 13  1  1
 14 15  1  6
 15  8  1  0
 16 14  1  0
 17 16  2  0
 19 18  1  0
 19 29  2  0
 20 19  1  0
 21 20  2  0
 21 22  1  0
 22 28  2  0
 23 22  1  0
 24 25  1  0
 24 23  1  1
 25 16  1  0
 26 24  1  0
 27 26  1  0
 28 29  1  0
 30 26  2  0
M  END
$$$$
