QIY.pdb
     RDKit          3D

 30 30  0  0  1  0  0  0  0  0999 V2000
    8.7150  -13.1837   17.0208 N   0  0  0  0  0  0  0  0  0  0  0  0
    7.4905  -13.9327   16.8960 C   0  0  0  0  0  0  0  0  0  0  0  0
    7.1010  -14.2696   15.7534 O   0  0  0  0  0  0  0  0  0  0  0  0
    6.6986  -14.3087   18.0721 C   0  0  0  0  0  0  0  0  0  0  0  0
    7.2572  -13.9515   19.3955 C   0  0  0  0  0  0  0  0  0  0  0  0
    7.6811  -15.0650   20.2845 C   0  0  2  0  0  0  0  0  0  0  0  0
    6.6365  -15.9026   20.8009 N   0  0  0  0  0  0  0  0  0  0  0  0
    8.5374  -14.5669   21.4220 C   0  0  0  0  0  0  0  0  0  0  0  0
    9.6588  -14.0765   21.1475 O   0  0  0  0  0  0  0  0  0  0  0  0
    6.4539  -11.7689   25.4255 C   0  0  0  0  0  0  0  0  0  0  0  0
    7.3317  -12.3940   24.3621 C   0  0  0  0  0  0  0  0  0  0  0  0
    8.1564  -13.5268   24.9306 C   0  0  2  0  0  0  0  0  0  0  0  0
    9.0696  -13.0319   26.0316 C   0  0  0  0  0  0  0  0  0  0  0  0
    8.8740  -14.3078   23.8790 C   0  0  2  0  0  0  0  0  0  0  0  0
    8.0599  -14.6639   22.7578 N   0  0  0  0  0  0  0  0  0  0  0  0
    9.5381  -15.4684   24.5046 C   0  0  0  0  0  0  0  0  0  0  0  0
    8.8454  -16.4845   24.7581 O   0  0  0  0  0  0  0  0  0  0  0  0
   10.3144  -14.7478   31.5945 O   0  0  0  0  0  0  0  0  0  0  0  0
   10.3624  -15.3789   30.3594 C   0  0  0  0  0  0  0  0  0  0  0  0
   10.7237  -16.7036   30.2505 C   0  0  0  0  0  0  0  0  0  0  0  0
   10.7661  -17.3219   28.9960 C   0  0  0  0  0  0  0  0  0  0  0  0
   10.4573  -16.6584   27.8348 C   0  0  0  0  0  0  0  0  0  0  0  0
   10.4839  -17.2721   26.4827 C   0  0  0  0  0  0  0  0  0  0  0  0
   11.5051  -16.6011   25.5888 C   0  0  2  0  0  0  0  0  0  0  0  0
   10.9159  -15.5080   24.8387 N   0  0  0  0  0  0  0  0  0  0  0  0
   12.0112  -17.6060   24.6299 C   0  0  0  0  0  0  0  0  0  0  0  0
   13.0171  -18.5135   24.9611 O   0  0  0  0  0  0  0  0  0  0  0  0
   10.0919  -15.3118   27.9632 C   0  0  0  0  0  0  0  0  0  0  0  0
   10.0510  -14.7055   29.1985 C   0  0  0  0  0  0  0  0  0  0  0  0
   11.5513  -17.6796   23.4732 O   0  0  0  0  0  0  0  0  0  0  0  0
  2  4  1  0
  2  1  1  0
  3  2  2  0
  5  6  1  0
  5  4  1  0
  6  7  1  1
  8  6  1  0
  8  9  2  0
 11 10  1  0
 12 11  1  0
 12 14  1  0
 12 13  1  1
 14 15  1  6
 15  8  1  0
 16 14  1  0
 17 16  2  0
 19 18  1  0
 19 29  2  0
 20 19  1  0
 21 20  2  0
 21 22  1  0
 22 28  2  0
 23 22  1  0
 24 25  1  0
 24 23  1  1
 25 16  1  0
 26 24  1  0
 27 26  1  0
 28 29  1  0
 30 26  2  0
M  END
$$$$
