QIY.pdb
     RDKit          3D

 30 30  0  0  1  0  0  0  0  0999 V2000
    6.3275  -19.2760   18.5214 N   0  0  0  0  0  0  0  0  0  0  0  0
    7.1679  -20.4134   18.2458 C   0  0  0  0  0  0  0  0  0  0  0  0
    6.7211  -21.3349   17.5233 O   0  0  0  0  0  0  0  0  0  0  0  0
    8.5274  -20.5114   18.7878 C   0  0  0  0  0  0  0  0  0  0  0  0
    8.9938  -19.3862   19.6287 C   0  0  0  0  0  0  0  0  0  0  0  0
    9.4245  -18.1439   18.9352 C   0  0  2  0  0  0  0  0  0  0  0  0
   10.5350  -18.2676   18.0346 N   0  0  0  0  0  0  0  0  0  0  0  0
    9.6918  -17.0293   19.9159 C   0  0  0  0  0  0  0  0  0  0  0  0
   10.8570  -16.9010   20.3623 O   0  0  0  0  0  0  0  0  0  0  0  0
    6.7567  -12.3559   19.6445 C   0  0  0  0  0  0  0  0  0  0  0  0
    7.9217  -13.3051   19.8289 C   0  0  0  0  0  0  0  0  0  0  0  0
    7.8505  -14.0039   21.1681 C   0  0  2  0  0  0  0  0  0  0  0  0
    7.9608  -13.0097   22.3039 C   0  0  0  0  0  0  0  0  0  0  0  0
    8.8161  -15.1375   21.2839 C   0  0  2  0  0  0  0  0  0  0  0  0
    8.6325  -16.1642   20.3046 N   0  0  0  0  0  0  0  0  0  0  0  0
    8.8011  -15.6485   22.6688 C   0  0  0  0  0  0  0  0  0  0  0  0
    7.9573  -16.5288   22.9686 O   0  0  0  0  0  0  0  0  0  0  0  0
    5.9005  -10.8425   26.9266 O   0  0  0  0  0  0  0  0  0  0  0  0
    6.4319  -12.0749   26.5734 C   0  0  0  0  0  0  0  0  0  0  0  0
    5.6166  -13.1233   26.2081 C   0  0  0  0  0  0  0  0  0  0  0  0
    6.1719  -14.3583   25.8554 C   0  0  0  0  0  0  0  0  0  0  0  0
    7.5254  -14.5862   25.8543 C   0  0  0  0  0  0  0  0  0  0  0  0
    8.1609  -15.8766   25.4844 C   0  0  0  0  0  0  0  0  0  0  0  0
    9.5994  -15.6833   25.0539 C   0  0  2  0  0  0  0  0  0  0  0  0
    9.6839  -15.2057   23.6867 N   0  0  0  0  0  0  0  0  0  0  0  0
   10.2857  -16.9902   25.1353 C   0  0  0  0  0  0  0  0  0  0  0  0
   11.2970  -17.2459   26.0610 O   0  0  0  0  0  0  0  0  0  0  0  0
    8.3404  -13.5095   26.2284 C   0  0  0  0  0  0  0  0  0  0  0  0
    7.7919  -12.2954   26.5751 C   0  0  0  0  0  0  0  0  0  0  0  0
    9.9817  -17.9248   24.3677 O   0  0  0  0  0  0  0  0  0  0  0  0
  2  4  1  0
  2  1  1  0
  3  2  2  0
  5  6  1  0
  5  4  1  0
  6  7  1  1
  8  6  1  0
  8  9  2  0
 11 10  1  0
 12 11  1  0
 12 14  1  0
 12 13  1  1
 14 15  1  6
 15  8  1  0
 16 14  1  0
 17 16  2  0
 19 18  1  0
 19 29  2  0
 20 19  1  0
 21 20  2  0
 21 22  1  0
 22 28  2  0
 23 22  1  0
 24 25  1  0
 24 23  1  6
 25 16  1  0
 26 24  1  0
 27 26  1  0
 28 29  1  0
 30 26  2  0
M  END
$$$$
