QIY.pdb
     RDKit          3D

 30 30  0  0  1  0  0  0  0  0999 V2000
   11.8976  -16.2654   19.3462 N   0  0  0  0  0  0  0  0  0  0  0  0
   10.7343  -16.7963   18.6821 C   0  0  0  0  0  0  0  0  0  0  0  0
   10.8918  -17.5096   17.6637 O   0  0  0  0  0  0  0  0  0  0  0  0
    9.3795  -16.5227   19.1733 C   0  0  0  0  0  0  0  0  0  0  0  0
    9.2651  -15.6663   20.3751 C   0  0  0  0  0  0  0  0  0  0  0  0
    8.5122  -16.2099   21.5359 C   0  0  2  0  0  0  0  0  0  0  0  0
    7.0806  -16.1635   21.4467 N   0  0  0  0  0  0  0  0  0  0  0  0
    8.9582  -15.5741   22.8291 C   0  0  0  0  0  0  0  0  0  0  0  0
   10.1893  -15.4427   23.0299 O   0  0  0  0  0  0  0  0  0  0  0  0
    6.0241  -11.5594   24.9594 C   0  0  0  0  0  0  0  0  0  0  0  0
    7.1110  -12.5007   24.4855 C   0  0  0  0  0  0  0  0  0  0  0  0
    7.4393  -13.5322   25.5414 C   0  0  2  0  0  0  0  0  0  0  0  0
    7.9288  -12.8699   26.8113 C   0  0  0  0  0  0  0  0  0  0  0  0
    8.3574  -14.6004   25.0445 C   0  0  2  0  0  0  0  0  0  0  0  0
    7.9867  -15.1457   23.7748 N   0  0  0  0  0  0  0  0  0  0  0  0
    8.5181  -15.6283   26.0919 C   0  0  0  0  0  0  0  0  0  0  0  0
    7.9942  -16.7540   25.9056 O   0  0  0  0  0  0  0  0  0  0  0  0
   13.6886  -21.4939   29.4858 O   0  0  0  0  0  0  0  0  0  0  0  0
   13.0206  -20.4340   28.8888 C   0  0  0  0  0  0  0  0  0  0  0  0
   11.7310  -20.5756   28.4259 C   0  0  0  0  0  0  0  0  0  0  0  0
   11.0745  -19.4949   27.8268 C   0  0  0  0  0  0  0  0  0  0  0  0
   11.6653  -18.2657   27.6719 C   0  0  0  0  0  0  0  0  0  0  0  0
   11.0084  -17.0894   27.0470 C   0  0  0  0  0  0  0  0  0  0  0  0
    9.9652  -16.4849   27.9626 C   0  0  2  0  0  0  0  0  0  0  0  0
    9.2306  -15.4233   27.3010 N   0  0  0  0  0  0  0  0  0  0  0  0
   10.6570  -15.9124   29.1370 C   0  0  0  0  0  0  0  0  0  0  0  0
   11.1735  -14.6170   29.1409 O   0  0  0  0  0  0  0  0  0  0  0  0
   12.9770  -18.1387   28.1480 C   0  0  0  0  0  0  0  0  0  0  0  0
   13.6209  -19.2034   28.7370 C   0  0  0  0  0  0  0  0  0  0  0  0
   10.8069  -16.5767   30.1816 O   0  0  0  0  0  0  0  0  0  0  0  0
  2  4  1  0
  2  1  1  0
  3  2  2  0
  5  6  1  0
  5  4  1  0
  6  7  1  6
  8  6  1  0
  8  9  2  0
 11 10  1  0
 12 11  1  0
 12 14  1  0
 12 13  1  1
 14 15  1  6
 15  8  1  0
 16 14  1  0
 17 16  2  0
 19 18  1  0
 19 29  2  0
 20 19  1  0
 21 20  2  0
 21 22  1  0
 22 28  2  0
 23 22  1  0
 24 25  1  0
 24 23  1  6
 25 16  1  0
 26 24  1  0
 27 26  1  0
 28 29  1  0
 30 26  2  0
M  END
$$$$
