QIY.pdb
     RDKit          3D

 30 30  0  0  1  0  0  0  0  0999 V2000
    8.8641  -18.8818   15.2885 N   0  0  0  0  0  0  0  0  0  0  0  0
    8.2555  -19.9512   16.0383 C   0  0  0  0  0  0  0  0  0  0  0  0
    7.9530  -21.0117   15.4430 O   0  0  0  0  0  0  0  0  0  0  0  0
    7.9882  -19.8246   17.4750 C   0  0  0  0  0  0  0  0  0  0  0  0
    8.2338  -18.4989   18.0858 C   0  0  0  0  0  0  0  0  0  0  0  0
    8.8744  -18.4694   19.4269 C   0  0  2  0  0  0  0  0  0  0  0  0
    8.0731  -18.9240   20.5274 N   0  0  0  0  0  0  0  0  0  0  0  0
    9.4346  -17.1044   19.7405 C   0  0  0  0  0  0  0  0  0  0  0  0
   10.4826  -16.7456   19.1520 O   0  0  0  0  0  0  0  0  0  0  0  0
    6.1298  -12.8712   20.1084 C   0  0  0  0  0  0  0  0  0  0  0  0
    7.3353  -13.7537   19.8632 C   0  0  0  0  0  0  0  0  0  0  0  0
    8.1426  -13.9401   21.1282 C   0  0  2  0  0  0  0  0  0  0  0  0
    8.6312  -12.6097   21.6594 C   0  0  0  0  0  0  0  0  0  0  0  0
    9.2335  -14.9491   20.9780 C   0  0  2  0  0  0  0  0  0  0  0  0
    8.7711  -16.2701   20.6814 N   0  0  0  0  0  0  0  0  0  0  0  0
   10.1114  -14.8951   22.1636 C   0  0  0  0  0  0  0  0  0  0  0  0
   10.5752  -13.7809   22.5099 O   0  0  0  0  0  0  0  0  0  0  0  0
   10.3299  -15.3552   30.7393 O   0  0  0  0  0  0  0  0  0  0  0  0
   10.1115  -15.3885   29.3691 C   0  0  0  0  0  0  0  0  0  0  0  0
   10.1277  -14.2343   28.6175 C   0  0  0  0  0  0  0  0  0  0  0  0
    9.9052  -14.2889   27.2372 C   0  0  0  0  0  0  0  0  0  0  0  0
    9.6648  -15.4663   26.5738 C   0  0  0  0  0  0  0  0  0  0  0  0
    9.4273  -15.5747   25.1118 C   0  0  0  0  0  0  0  0  0  0  0  0
   10.6921  -15.9530   24.3707 C   0  0  2  0  0  0  0  0  0  0  0  0
   10.4655  -16.0281   22.9398 N   0  0  0  0  0  0  0  0  0  0  0  0
   11.1254  -17.2842   24.8455 C   0  0  0  0  0  0  0  0  0  0  0  0
   12.0747  -17.4442   25.8546 O   0  0  0  0  0  0  0  0  0  0  0  0
    9.6516  -16.6307   27.3530 C   0  0  0  0  0  0  0  0  0  0  0  0
    9.8707  -16.5746   28.7110 C   0  0  0  0  0  0  0  0  0  0  0  0
   10.6518  -18.3276   24.3536 O   0  0  0  0  0  0  0  0  0  0  0  0
  2  4  1  0
  2  1  1  0
  3  2  2  0
  5  6  1  0
  5  4  1  0
  6  7  1  1
  8  6  1  0
  8  9  2  0
 11 10  1  0
 12 11  1  0
 12 14  1  0
 12 13  1  6
 14 15  1  1
 15  8  1  0
 16 14  1  0
 17 16  2  0
 19 18  1  0
 19 29  2  0
 20 19  1  0
 21 20  2  0
 21 22  1  0
 22 28  2  0
 23 22  1  0
 24 25  1  0
 24 23  1  1
 25 16  1  0
 26 24  1  0
 27 26  1  0
 28 29  1  0
 30 26  2  0
M  END
$$$$
