QIY.pdb
     RDKit          3D

 30 30  0  0  1  0  0  0  0  0999 V2000
   10.6981  -20.2342   15.7216 N   0  0  0  0  0  0  0  0  0  0  0  0
   11.0633  -19.5449   14.5102 C   0  0  0  0  0  0  0  0  0  0  0  0
   11.5756  -20.1998   13.5724 O   0  0  0  0  0  0  0  0  0  0  0  0
   10.8457  -18.1028   14.3533 C   0  0  0  0  0  0  0  0  0  0  0  0
   10.3035  -17.3779   15.5244 C   0  0  0  0  0  0  0  0  0  0  0  0
    9.9922  -15.9344   15.3539 C   0  0  2  0  0  0  0  0  0  0  0  0
   10.5501  -15.2932   14.1975 N   0  0  0  0  0  0  0  0  0  0  0  0
   10.3465  -15.1443   16.5891 C   0  0  0  0  0  0  0  0  0  0  0  0
   11.4820  -14.6146   16.6470 O   0  0  0  0  0  0  0  0  0  0  0  0
    6.4742  -12.5577   19.5947 C   0  0  0  0  0  0  0  0  0  0  0  0
    7.7502  -12.9219   18.8659 C   0  0  0  0  0  0  0  0  0  0  0  0
    8.5755  -13.9041   19.6664 C   0  0  2  0  0  0  0  0  0  0  0  0
    8.9596  -13.3203   21.0090 C   0  0  0  0  0  0  0  0  0  0  0  0
    9.7423  -14.4401   18.9035 C   0  0  2  0  0  0  0  0  0  0  0  0
    9.3988  -15.0210   17.6419 N   0  0  0  0  0  0  0  0  0  0  0  0
   10.5119  -15.3532   19.7714 C   0  0  0  0  0  0  0  0  0  0  0  0
   10.2195  -16.5743   19.7574 O   0  0  0  0  0  0  0  0  0  0  0  0
   16.7256  -13.9749   17.0647 O   0  0  0  0  0  0  0  0  0  0  0  0
   15.9836  -14.2781   18.1976 C   0  0  0  0  0  0  0  0  0  0  0  0
   14.9199  -13.4926   18.5831 C   0  0  0  0  0  0  0  0  0  0  0  0
   14.1841  -13.8152   19.7288 C   0  0  0  0  0  0  0  0  0  0  0  0
   14.4752  -14.9049   20.5109 C   0  0  0  0  0  0  0  0  0  0  0  0
   13.7219  -15.2895   21.7317 C   0  0  0  0  0  0  0  0  0  0  0  0
   12.3680  -15.8731   21.3875 C   0  0  2  0  0  0  0  0  0  0  0  0
   11.5657  -14.9361   20.6239 N   0  0  0  0  0  0  0  0  0  0  0  0
   11.6599  -16.1737   22.6498 C   0  0  0  0  0  0  0  0  0  0  0  0
   12.1091  -17.1446   23.5447 O   0  0  0  0  0  0  0  0  0  0  0  0
   15.5601  -15.6932   20.1048 C   0  0  0  0  0  0  0  0  0  0  0  0
   16.2826  -15.3739   18.9774 C   0  0  0  0  0  0  0  0  0  0  0  0
   10.6199  -15.5621   22.9649 O   0  0  0  0  0  0  0  0  0  0  0  0
  2  4  1  0
  2  1  1  0
  3  2  2  0
  5  6  1  0
  5  4  1  0
  6  7  1  6
  8  6  1  0
  8  9  2  0
 11 10  1  0
 12 11  1  0
 12 14  1  0
 12 13  1  1
 14 15  1  6
 15  8  1  0
 16 14  1  0
 17 16  2  0
 19 18  1  0
 19 29  2  0
 20 19  1  0
 21 20  2  0
 21 22  1  0
 22 28  2  0
 23 22  1  0
 24 25  1  0
 24 23  1  1
 25 16  1  0
 26 24  1  0
 27 26  1  0
 28 29  1  0
 30 26  2  0
M  END
$$$$
