QIY.pdb
     RDKit          3D

 30 30  0  0  1  0  0  0  0  0999 V2000
    8.8843  -13.1858   17.7327 N   0  0  0  0  0  0  0  0  0  0  0  0
    8.2054  -14.4548   17.6627 C   0  0  0  0  0  0  0  0  0  0  0  0
    7.7139  -14.8185   16.5686 O   0  0  0  0  0  0  0  0  0  0  0  0
    8.0822  -15.3242   18.8377 C   0  0  0  0  0  0  0  0  0  0  0  0
    8.6631  -14.8228   20.1034 C   0  0  0  0  0  0  0  0  0  0  0  0
    8.4707  -15.6515   21.3224 C   0  0  2  0  0  0  0  0  0  0  0  0
    7.1531  -16.1798   21.5338 N   0  0  0  0  0  0  0  0  0  0  0  0
    8.9273  -14.9233   22.5620 C   0  0  0  0  0  0  0  0  0  0  0  0
   10.1338  -14.5896   22.6413 O   0  0  0  0  0  0  0  0  0  0  0  0
    7.1436  -11.0716   26.8923 C   0  0  0  0  0  0  0  0  0  0  0  0
    8.0576  -12.2112   26.4948 C   0  0  0  0  0  0  0  0  0  0  0  0
    7.4639  -13.0183   25.3621 C   0  0  2  0  0  0  0  0  0  0  0  0
    6.1072  -13.5700   25.7438 C   0  0  0  0  0  0  0  0  0  0  0  0
    8.3969  -14.0616   24.8409 C   0  0  2  0  0  0  0  0  0  0  0  0
    7.9930  -14.6371   23.5949 N   0  0  0  0  0  0  0  0  0  0  0  0
    8.6361  -15.0686   25.8936 C   0  0  0  0  0  0  0  0  0  0  0  0
    7.8408  -16.0361   25.9827 O   0  0  0  0  0  0  0  0  0  0  0  0
   12.5124  -18.8510   22.3706 O   0  0  0  0  0  0  0  0  0  0  0  0
   12.2715  -18.2979   23.6205 C   0  0  0  0  0  0  0  0  0  0  0  0
   11.9521  -19.0911   24.7003 C   0  0  0  0  0  0  0  0  0  0  0  0
   11.7128  -18.5143   25.9524 C   0  0  0  0  0  0  0  0  0  0  0  0
   11.7817  -17.1604   26.1671 C   0  0  0  0  0  0  0  0  0  0  0  0
   11.5403  -16.5030   27.4768 C   0  0  0  0  0  0  0  0  0  0  0  0
   10.0819  -16.1366   27.6532 C   0  0  2  0  0  0  0  0  0  0  0  0
    9.7129  -15.0117   26.8148 N   0  0  0  0  0  0  0  0  0  0  0  0
    9.8686  -15.7561   29.0657 C   0  0  0  0  0  0  0  0  0  0  0  0
    9.8232  -16.6976   30.0937 O   0  0  0  0  0  0  0  0  0  0  0  0
   12.1077  -16.3680   25.0585 C   0  0  0  0  0  0  0  0  0  0  0  0
   12.3427  -16.9377   23.8275 C   0  0  0  0  0  0  0  0  0  0  0  0
    9.7186  -14.5626   29.3943 O   0  0  0  0  0  0  0  0  0  0  0  0
  2  4  1  0
  2  1  1  0
  3  2  2  0
  5  6  1  0
  5  4  1  0
  6  7  1  1
  8  6  1  0
  8  9  2  0
 11 10  1  0
 12 11  1  0
 12 14  1  0
 12 13  1  1
 14 15  1  6
 15  8  1  0
 16 14  1  0
 17 16  2  0
 19 18  1  0
 19 29  2  0
 20 19  1  0
 21 20  2  0
 21 22  1  0
 22 28  2  0
 23 22  1  0
 24 25  1  0
 24 23  1  1
 25 16  1  0
 26 24  1  0
 27 26  1  0
 28 29  1  0
 30 26  2  0
M  END
$$$$
