QIY.pdb
     RDKit          3D

 30 30  0  0  1  0  0  0  0  0999 V2000
    6.0685  -19.8132   20.4523 N   0  0  0  0  0  0  0  0  0  0  0  0
    7.2359  -19.1029   19.9955 C   0  0  0  0  0  0  0  0  0  0  0  0
    8.1922  -19.7556   19.5157 O   0  0  0  0  0  0  0  0  0  0  0  0
    7.3247  -17.6410   20.0777 C   0  0  0  0  0  0  0  0  0  0  0  0
    7.9666  -17.0777   21.2866 C   0  0  0  0  0  0  0  0  0  0  0  0
    7.7930  -15.6235   21.5413 C   0  0  2  0  0  0  0  0  0  0  0  0
    8.1684  -14.7393   20.4750 N   0  0  0  0  0  0  0  0  0  0  0  0
    8.4830  -15.2004   22.8142 C   0  0  0  0  0  0  0  0  0  0  0  0
    9.7372  -15.1927   22.8328 O   0  0  0  0  0  0  0  0  0  0  0  0
    6.1503  -11.5556   26.2057 C   0  0  0  0  0  0  0  0  0  0  0  0
    7.1236  -12.3658   25.3761 C   0  0  0  0  0  0  0  0  0  0  0  0
    7.5170  -13.6416   26.0862 C   0  0  2  0  0  0  0  0  0  0  0  0
    8.1957  -13.3397   27.4050 C   0  0  0  0  0  0  0  0  0  0  0  0
    8.3034  -14.5700   25.2200 C   0  0  2  0  0  0  0  0  0  0  0  0
    7.7067  -14.8262   23.9451 N   0  0  0  0  0  0  0  0  0  0  0  0
    8.6051  -15.8013   25.9763 C   0  0  0  0  0  0  0  0  0  0  0  0
    7.6615  -16.5900   26.2294 O   0  0  0  0  0  0  0  0  0  0  0  0
   10.3057  -19.7736   21.2158 O   0  0  0  0  0  0  0  0  0  0  0  0
   10.5691  -19.3558   22.5128 C   0  0  0  0  0  0  0  0  0  0  0  0
   11.2298  -18.1726   22.7590 C   0  0  0  0  0  0  0  0  0  0  0  0
   11.4859  -17.7687   24.0740 C   0  0  0  0  0  0  0  0  0  0  0  0
   11.1019  -18.5113   25.1627 C   0  0  0  0  0  0  0  0  0  0  0  0
   11.3474  -18.1227   26.5749 C   0  0  0  0  0  0  0  0  0  0  0  0
   10.1644  -17.3809   27.1600 C   0  0  2  0  0  0  0  0  0  0  0  0
    9.9000  -16.1511   26.4373 N   0  0  0  0  0  0  0  0  0  0  0  0
   10.4811  -17.0392   28.5630 C   0  0  0  0  0  0  0  0  0  0  0  0
   10.7068  -18.0129   29.5356 O   0  0  0  0  0  0  0  0  0  0  0  0
   10.4312  -19.7119   24.8946 C   0  0  0  0  0  0  0  0  0  0  0  0
   10.1804  -20.1073   23.6000 C   0  0  0  0  0  0  0  0  0  0  0  0
   10.5582  -15.8511   28.9335 O   0  0  0  0  0  0  0  0  0  0  0  0
  2  4  1  0
  2  1  1  0
  3  2  2  0
  5  6  1  0
  5  4  1  0
  6  7  1  6
  8  6  1  0
  8  9  2  0
 11 10  1  0
 12 11  1  0
 12 14  1  0
 12 13  1  1
 14 15  1  6
 15  8  1  0
 16 14  1  0
 17 16  2  0
 19 18  1  0
 19 29  2  0
 20 19  1  0
 21 20  2  0
 21 22  1  0
 22 28  2  0
 23 22  1  0
 24 25  1  0
 24 23  1  6
 25 16  1  0
 26 24  1  0
 27 26  1  0
 28 29  1  0
 30 26  2  0
M  END
$$$$
