SSM.pdb
     RDKit          3D

 21 20  0  0  1  0  0  0  0  0999 V2000
   26.9059  -27.5783  -18.5369 O   0  0  0  0  0  0  0  0  0  0  0  0
   27.6404  -26.4146  -18.5283 C   0  0  0  0  0  0  0  0  0  0  0  0
   28.2852  -26.2508  -17.1659 C   0  0  2  0  0  0  0  0  0  0  0  0
   28.5410  -27.5745  -16.5841 N   0  0  0  0  0  0  0  0  0  0  0  0
   27.3557  -25.5342  -16.2890 C   0  0  0  0  0  0  0  0  0  0  0  0
   26.9872  -26.0561  -15.1914 O   0  0  0  0  0  0  0  0  0  0  0  0
   26.4942  -21.7892  -17.2965 O   0  0  0  0  0  0  0  0  0  0  0  0
   26.0589  -22.1025  -16.0282 C   0  0  0  0  0  0  0  0  0  0  0  0
   25.9425  -23.5795  -15.7861 C   0  0  2  0  0  0  0  0  0  0  0  0
   26.8579  -24.2568  -16.6491 N   0  0  0  0  0  0  0  0  0  0  0  0
   24.5855  -24.0996  -15.9723 C   0  0  0  0  0  0  0  0  0  0  0  0
   24.4718  -25.2350  -16.5461 O   0  0  0  0  0  0  0  0  0  0  0  0
   20.5919  -28.7461  -13.2339 C   0  0  0  0  0  0  0  0  0  0  0  0
   21.9570  -27.7340  -13.7571 S   0  0  0  0  0  0  0  0  0  0  0  0
   21.8231  -25.9995  -13.3179 C   0  0  0  0  0  0  0  0  0  0  0  0
   22.8564  -25.1234  -13.8871 C   0  0  0  0  0  0  0  0  0  0  0  0
   22.3284  -24.2249  -14.9755 C   0  0  2  0  0  0  0  0  0  0  0  0
   23.4090  -23.4447  -15.5685 N   0  0  0  0  0  0  0  0  0  0  0  0
   21.2208  -23.3381  -14.5593 C   0  0  0  0  0  0  0  0  0  0  0  0
   21.3449  -22.2726  -13.9176 O   0  0  0  0  0  0  0  0  0  0  0  0
   19.8822  -23.6645  -14.8825 O   0  0  0  0  0  0  0  0  0  0  0  0
  2  1  1  0
  2  3  1  0
  3  5  1  0
  3  4  1  1
  5  6  2  0
  7  8  1  0
  9  8  1  6
 10  9  1  0
 10  5  1  0
 11 18  1  0
 11  9  1  0
 12 11  2  0
 13 14  1  0
 15 14  1  0
 16 15  1  0
 17 18  1  0
 17 16  1  1
 19 17  1  0
 20 19  2  0
 21 19  1  0
M  END
$$$$
