SSM.pdb
     RDKit          3D

 21 20  0  0  1  0  0  0  0  0999 V2000
   28.2878  -17.8281  -15.0096 O   0  0  0  0  0  0  0  0  0  0  0  0
   27.2432  -18.6994  -14.8012 C   0  0  0  0  0  0  0  0  0  0  0  0
   27.8034  -20.0572  -14.4254 C   0  0  2  0  0  0  0  0  0  0  0  0
   28.2358  -20.7603  -15.6398 N   0  0  0  0  0  0  0  0  0  0  0  0
   26.7429  -20.8439  -13.7907 C   0  0  0  0  0  0  0  0  0  0  0  0
   26.0686  -21.6724  -14.4776 O   0  0  0  0  0  0  0  0  0  0  0  0
   25.3897  -19.9948   -9.8650 O   0  0  0  0  0  0  0  0  0  0  0  0
   25.4370  -21.2855  -10.3427 C   0  0  0  0  0  0  0  0  0  0  0  0
   25.3359  -21.3715  -11.8380 C   0  0  2  0  0  0  0  0  0  0  0  0
   26.4560  -20.6941  -12.4107 N   0  0  0  0  0  0  0  0  0  0  0  0
   24.0841  -20.8308  -12.3737 C   0  0  0  0  0  0  0  0  0  0  0  0
   24.0594  -19.5835  -12.6471 O   0  0  0  0  0  0  0  0  0  0  0  0
   21.4435  -21.2722  -17.9576 C   0  0  0  0  0  0  0  0  0  0  0  0
   20.0127  -21.2022  -16.9041 S   0  0  0  0  0  0  0  0  0  0  0  0
   20.3465  -20.7213  -15.2081 C   0  0  0  0  0  0  0  0  0  0  0  0
   21.5501  -21.3151  -14.6096 C   0  0  0  0  0  0  0  0  0  0  0  0
   21.7468  -20.9156  -13.1700 C   0  0  2  0  0  0  0  0  0  0  0  0
   22.9174  -21.5795  -12.6069 N   0  0  0  0  0  0  0  0  0  0  0  0
   20.5671  -21.1292  -12.3045 C   0  0  0  0  0  0  0  0  0  0  0  0
   20.4510  -22.0270  -11.4426 O   0  0  0  0  0  0  0  0  0  0  0  0
   19.4392  -20.2808  -12.4094 O   0  0  0  0  0  0  0  0  0  0  0  0
  2  1  1  0
  2  3  1  0
  3  5  1  0
  3  4  1  6
  5  6  2  0
  7  8  1  0
  9  8  1  1
 10  9  1  0
 10  5  1  0
 11 18  1  0
 11  9  1  0
 12 11  2  0
 13 14  1  0
 15 14  1  0
 16 15  1  0
 17 18  1  0
 17 16  1  6
 19 17  1  0
 20 19  2  0
 21 19  1  0
M  END
$$$$
