SSM.pdb
     RDKit          3D

 21 20  0  0  1  0  0  0  0  0999 V2000
   13.0112   -5.5112   -9.1738 O   0  0  0  0  0  0  0  0  0  0  0  0
   14.1964   -5.9892   -9.6842 C   0  0  0  0  0  0  0  0  0  0  0  0
   14.5746   -7.2568   -8.9434 C   0  0  2  0  0  0  0  0  0  0  0  0
   15.0941   -6.9096   -7.6146 N   0  0  0  0  0  0  0  0  0  0  0  0
   15.6358   -7.9381   -9.6892 C   0  0  0  0  0  0  0  0  0  0  0  0
   16.8475   -7.5930   -9.5285 O   0  0  0  0  0  0  0  0  0  0  0  0
   15.4515  -11.8815  -10.9193 O   0  0  0  0  0  0  0  0  0  0  0  0
   15.8189  -10.9422  -11.8568 C   0  0  0  0  0  0  0  0  0  0  0  0
   16.3829   -9.6881  -11.2544 C   0  0  2  0  0  0  0  0  0  0  0  0
   15.3289   -8.9853  -10.5938 N   0  0  0  0  0  0  0  0  0  0  0  0
   17.0460   -8.8165  -12.2275 C   0  0  0  0  0  0  0  0  0  0  0  0
   16.3571   -7.8564  -12.7122 O   0  0  0  0  0  0  0  0  0  0  0  0
   22.7880   -4.2957  -14.6967 C   0  0  0  0  0  0  0  0  0  0  0  0
   22.1214   -5.4547  -13.5245 S   0  0  0  0  0  0  0  0  0  0  0  0
   20.6617   -6.3370  -14.0813 C   0  0  0  0  0  0  0  0  0  0  0  0
   20.0917   -7.2861  -13.1151 C   0  0  0  0  0  0  0  0  0  0  0  0
   18.9006   -8.0318  -13.6589 C   0  0  2  0  0  0  0  0  0  0  0  0
   18.3750   -8.9590  -12.6629 N   0  0  0  0  0  0  0  0  0  0  0  0
   19.1438   -8.7328  -14.9380 C   0  0  0  0  0  0  0  0  0  0  0  0
   19.4739   -8.1884  -16.0137 O   0  0  0  0  0  0  0  0  0  0  0  0
   19.0089  -10.1392  -15.0205 O   0  0  0  0  0  0  0  0  0  0  0  0
  2  1  1  0
  2  3  1  0
  3  5  1  0
  3  4  1  1
  5  6  2  0
  7  8  1  0
  9  8  1  6
 10  9  1  0
 10  5  1  0
 11 18  1  0
 11  9  1  0
 12 11  2  0
 13 14  1  0
 15 14  1  0
 16 15  1  0
 17 18  1  0
 17 16  1  1
 19 17  1  0
 20 19  2  0
 21 19  1  0
M  END
$$$$
