SSM.pdb
     RDKit          3D

 21 20  0  0  1  0  0  0  0  0999 V2000
   16.4261  -12.7740  -14.3346 O   0  0  0  0  0  0  0  0  0  0  0  0
   17.2796  -11.7299  -14.6088 C   0  0  0  0  0  0  0  0  0  0  0  0
   17.2894  -11.4832  -16.1047 C   0  0  2  0  0  0  0  0  0  0  0  0
   17.8272  -12.6646  -16.7911 N   0  0  0  0  0  0  0  0  0  0  0  0
   18.1688  -10.3461  -16.3878 C   0  0  0  0  0  0  0  0  0  0  0  0
   19.2897  -10.5353  -16.9542 O   0  0  0  0  0  0  0  0  0  0  0  0
   17.3065   -6.4735  -15.0010 O   0  0  0  0  0  0  0  0  0  0  0  0
   17.8049   -6.6591  -16.2712 C   0  0  0  0  0  0  0  0  0  0  0  0
   18.6041   -7.9212  -16.4192 C   0  0  2  0  0  0  0  0  0  0  0  0
   17.7846   -9.0275  -16.0373 N   0  0  0  0  0  0  0  0  0  0  0  0
   19.8509   -7.9201  -15.6498 C   0  0  0  0  0  0  0  0  0  0  0  0
   19.8284   -8.4871  -14.5056 O   0  0  0  0  0  0  0  0  0  0  0  0
   27.1140   -9.9332  -14.6871 C   0  0  0  0  0  0  0  0  0  0  0  0
   25.7209   -9.6316  -15.7503 S   0  0  0  0  0  0  0  0  0  0  0  0
   24.4906   -8.5091  -15.0828 C   0  0  0  0  0  0  0  0  0  0  0  0
   23.2416   -8.4136  -15.8509 C   0  0  0  0  0  0  0  0  0  0  0  0
   22.2438   -7.4690  -15.2321 C   0  0  2  0  0  0  0  0  0  0  0  0
   21.0605   -7.3447  -16.0762 N   0  0  0  0  0  0  0  0  0  0  0  0
   22.7835   -6.1327  -14.9012 C   0  0  0  0  0  0  0  0  0  0  0  0
   22.7761   -5.1381  -15.6583 O   0  0  0  0  0  0  0  0  0  0  0  0
   23.3720   -5.8912  -13.6370 O   0  0  0  0  0  0  0  0  0  0  0  0
  2  1  1  0
  2  3  1  0
  3  5  1  0
  3  4  1  6
  5  6  2  0
  7  8  1  0
  9  8  1  1
 10  9  1  0
 10  5  1  0
 11 18  1  0
 11  9  1  0
 12 11  2  0
 13 14  1  0
 15 14  1  0
 16 15  1  0
 17 18  1  0
 17 16  1  6
 19 17  1  0
 20 19  2  0
 21 19  1  0
M  END
$$$$
