SSM.pdb
     RDKit          3D

 21 20  0  0  1  0  0  0  0  0999 V2000
   16.1677  -12.8699  -13.8207 O   0  0  0  0  0  0  0  0  0  0  0  0
   17.1013  -12.0185  -14.3659 C   0  0  0  0  0  0  0  0  0  0  0  0
   16.4536  -11.2339  -15.4900 C   0  0  2  0  0  0  0  0  0  0  0  0
   16.2090  -12.1259  -16.6305 N   0  0  0  0  0  0  0  0  0  0  0  0
   17.3758  -10.1796  -15.9194 C   0  0  0  0  0  0  0  0  0  0  0  0
   18.3180  -10.4498  -16.7271 O   0  0  0  0  0  0  0  0  0  0  0  0
   17.0864   -6.2061  -14.4610 O   0  0  0  0  0  0  0  0  0  0  0  0
   17.4076   -6.5005  -15.7672 C   0  0  0  0  0  0  0  0  0  0  0  0
   18.0979   -7.8239  -15.9274 C   0  0  2  0  0  0  0  0  0  0  0  0
   17.2311   -8.8520  -15.4444 N   0  0  0  0  0  0  0  0  0  0  0  0
   19.3971   -7.8935  -15.2537 C   0  0  0  0  0  0  0  0  0  0  0  0
   19.4074   -8.3342  -14.0549 O   0  0  0  0  0  0  0  0  0  0  0  0
   26.6771  -10.1395  -14.5229 C   0  0  0  0  0  0  0  0  0  0  0  0
   25.2562   -9.8620  -15.5554 S   0  0  0  0  0  0  0  0  0  0  0  0
   24.0838   -8.6617  -14.9199 C   0  0  0  0  0  0  0  0  0  0  0  0
   22.8260   -8.5500  -15.6715 C   0  0  0  0  0  0  0  0  0  0  0  0
   21.8408   -7.6083  -15.0285 C   0  0  2  0  0  0  0  0  0  0  0  0
   20.6232   -7.5135  -15.8264 N   0  0  0  0  0  0  0  0  0  0  0  0
   22.3749   -6.2597  -14.7410 C   0  0  0  0  0  0  0  0  0  0  0  0
   22.3297   -5.2799  -15.5158 O   0  0  0  0  0  0  0  0  0  0  0  0
   23.0028   -5.9874  -13.5022 O   0  0  0  0  0  0  0  0  0  0  0  0
  2  1  1  0
  2  3  1  0
  3  5  1  0
  3  4  1  6
  5  6  2  0
  7  8  1  0
  9  8  1  1
 10  9  1  0
 10  5  1  0
 11 18  1  0
 11  9  1  0
 12 11  2  0
 13 14  1  0
 15 14  1  0
 16 15  1  0
 17 18  1  0
 17 16  1  6
 19 17  1  0
 20 19  2  0
 21 19  1  0
M  END
$$$$
