SSM.pdb
     RDKit          3D

 21 20  0  0  1  0  0  0  0  0999 V2000
   19.3805  -14.5146  -14.6494 O   0  0  0  0  0  0  0  0  0  0  0  0
   20.1781  -13.5744  -15.2607 C   0  0  0  0  0  0  0  0  0  0  0  0
   19.5966  -13.2473  -16.6222 C   0  0  2  0  0  0  0  0  0  0  0  0
   19.8690  -14.3537  -17.5483 N   0  0  0  0  0  0  0  0  0  0  0  0
   20.2538  -12.0434  -17.1370 C   0  0  0  0  0  0  0  0  0  0  0  0
   21.3653  -12.1367  -17.7445 O   0  0  0  0  0  0  0  0  0  0  0  0
   18.3969   -8.2329  -16.9861 O   0  0  0  0  0  0  0  0  0  0  0  0
   19.2407   -8.6579  -17.9879 C   0  0  0  0  0  0  0  0  0  0  0  0
   20.3003   -9.6085  -17.5112 C   0  0  2  0  0  0  0  0  0  0  0  0
   19.6634  -10.7660  -16.9671 N   0  0  0  0  0  0  0  0  0  0  0  0
   21.2168   -9.0218  -16.5303 C   0  0  0  0  0  0  0  0  0  0  0  0
   20.9540   -9.2221  -15.2966 O   0  0  0  0  0  0  0  0  0  0  0  0
   26.2569  -11.2362  -14.9414 C   0  0  0  0  0  0  0  0  0  0  0  0
   25.3848  -10.0828  -15.9762 S   0  0  0  0  0  0  0  0  0  0  0  0
   25.4195   -8.3816  -15.4070 C   0  0  0  0  0  0  0  0  0  0  0  0
   24.5464   -7.4538  -16.1391 C   0  0  0  0  0  0  0  0  0  0  0  0
   23.0926   -7.6040  -15.7719 C   0  0  2  0  0  0  0  0  0  0  0  0
   22.3555   -8.2604  -16.8461 N   0  0  0  0  0  0  0  0  0  0  0  0
   22.4224   -6.3451  -15.3813 C   0  0  0  0  0  0  0  0  0  0  0  0
   21.7640   -5.6055  -16.1440 O   0  0  0  0  0  0  0  0  0  0  0  0
   22.4929   -5.8809  -14.0462 O   0  0  0  0  0  0  0  0  0  0  0  0
  2  1  1  0
  2  3  1  0
  3  5  1  0
  3  4  1  6
  5  6  2  0
  7  8  1  0
  9  8  1  1
 10  9  1  0
 10  5  1  0
 11 18  1  0
 11  9  1  0
 12 11  2  0
 13 14  1  0
 15 14  1  0
 16 15  1  0
 17 18  1  0
 17 16  1  6
 19 17  1  0
 20 19  2  0
 21 19  1  0
M  END
$$$$
