SSM.pdb
     RDKit          3D

 21 20  0  0  1  0  0  0  0  0999 V2000
   15.5445  -11.6578  -10.1960 O   0  0  0  0  0  0  0  0  0  0  0  0
   15.7582  -10.4624  -10.8435 C   0  0  0  0  0  0  0  0  0  0  0  0
   15.0562   -9.3572  -10.0790 C   0  0  2  0  0  0  0  0  0  0  0  0
   13.6113   -9.4313  -10.3298 N   0  0  0  0  0  0  0  0  0  0  0  0
   15.5428   -8.0649  -10.5684 C   0  0  0  0  0  0  0  0  0  0  0  0
   15.1680   -7.6328  -11.7024 O   0  0  0  0  0  0  0  0  0  0  0  0
   17.4575   -5.3500   -8.0718 O   0  0  0  0  0  0  0  0  0  0  0  0
   16.8493   -5.0007   -9.2569 C   0  0  0  0  0  0  0  0  0  0  0  0
   16.9533   -6.0605  -10.3150 C   0  0  2  0  0  0  0  0  0  0  0  0
   16.4319   -7.2826   -9.7894 N   0  0  0  0  0  0  0  0  0  0  0  0
   18.3162   -6.2599  -10.8141 C   0  0  0  0  0  0  0  0  0  0  0  0
   19.0315   -7.1342  -10.2179 O   0  0  0  0  0  0  0  0  0  0  0  0
   23.1303  -10.2707  -13.6028 C   0  0  0  0  0  0  0  0  0  0  0  0
   21.6729   -9.3727  -14.0841 S   0  0  0  0  0  0  0  0  0  0  0  0
   21.5642   -7.7045  -13.4325 C   0  0  0  0  0  0  0  0  0  0  0  0
   20.2561   -7.3277  -12.8792 C   0  0  0  0  0  0  0  0  0  0  0  0
   20.2320   -5.9219  -12.3371 C   0  0  2  0  0  0  0  0  0  0  0  0
   18.8892   -5.5644  -11.8929 N   0  0  0  0  0  0  0  0  0  0  0  0
   20.7592   -4.8957  -13.2620 C   0  0  0  0  0  0  0  0  0  0  0  0
   21.9623   -4.5819  -13.3898 O   0  0  0  0  0  0  0  0  0  0  0  0
   19.8812   -4.1701  -14.1020 O   0  0  0  0  0  0  0  0  0  0  0  0
  2  1  1  0
  2  3  1  0
  3  5  1  0
  3  4  1  6
  5  6  2  0
  7  8  1  0
  9  8  1  1
 10  9  1  0
 10  5  1  0
 11 18  1  0
 11  9  1  0
 12 11  2  0
 13 14  1  0
 15 14  1  0
 16 15  1  0
 17 18  1  0
 17 16  1  6
 19 17  1  0
 20 19  2  0
 21 19  1  0
M  END
$$$$
