SSM.pdb
     RDKit          3D

 21 20  0  0  1  0  0  0  0  0999 V2000
   26.0774  -20.5312   -9.1353 O   0  0  0  0  0  0  0  0  0  0  0  0
   25.6641  -20.3146  -10.4299 C   0  0  0  0  0  0  0  0  0  0  0  0
   26.3545  -21.3121  -11.3394 C   0  0  2  0  0  0  0  0  0  0  0  0
   27.7780  -20.9691  -11.4493 N   0  0  0  0  0  0  0  0  0  0  0  0
   25.7554  -21.2246  -12.6735 C   0  0  0  0  0  0  0  0  0  0  0  0
   26.2096  -20.3947  -13.5208 O   0  0  0  0  0  0  0  0  0  0  0  0
   22.1649  -23.2491  -13.6581 O   0  0  0  0  0  0  0  0  0  0  0  0
   23.1841  -23.1077  -14.5731 C   0  0  0  0  0  0  0  0  0  0  0  0
   24.0529  -21.9105  -14.3172 C   0  0  2  0  0  0  0  0  0  0  0  0
   24.6687  -22.0591  -13.0365 N   0  0  0  0  0  0  0  0  0  0  0  0
   23.3335  -20.6364  -14.3928 C   0  0  0  0  0  0  0  0  0  0  0  0
   23.2949  -19.9268  -13.3316 O   0  0  0  0  0  0  0  0  0  0  0  0
   26.3518  -16.0492  -14.3679 C   0  0  0  0  0  0  0  0  0  0  0  0
   25.4118  -15.7208  -15.8412 S   0  0  0  0  0  0  0  0  0  0  0  0
   23.8476  -16.5931  -15.9492 C   0  0  0  0  0  0  0  0  0  0  0  0
   23.9138  -18.0396  -15.6989 C   0  0  0  0  0  0  0  0  0  0  0  0
   22.5596  -18.7002  -15.7179 C   0  0  2  0  0  0  0  0  0  0  0  0
   22.6878  -20.1424  -15.5395 N   0  0  0  0  0  0  0  0  0  0  0  0
   21.7440  -18.3994  -16.9141 C   0  0  0  0  0  0  0  0  0  0  0  0
   21.7093  -19.0822  -17.9605 O   0  0  0  0  0  0  0  0  0  0  0  0
   20.9095  -17.2567  -16.9428 O   0  0  0  0  0  0  0  0  0  0  0  0
  2  1  1  0
  2  3  1  0
  3  5  1  0
  3  4  1  6
  5  6  2  0
  7  8  1  0
  9  8  1  1
 10  9  1  0
 10  5  1  0
 11 18  1  0
 11  9  1  0
 12 11  2  0
 13 14  1  0
 15 14  1  0
 16 15  1  0
 17 18  1  0
 17 16  1  6
 19 17  1  0
 20 19  2  0
 21 19  1  0
M  END
$$$$
