SSM.pdb
     RDKit          3D

 21 20  0  0  1  0  0  0  0  0999 V2000
   24.7125  -25.1792  -16.4014 O   0  0  0  0  0  0  0  0  0  0  0  0
   25.6161  -24.5360  -15.5868 C   0  0  0  0  0  0  0  0  0  0  0  0
   26.0156  -23.2250  -16.2352 C   0  0  2  0  0  0  0  0  0  0  0  0
   27.2162  -23.4314  -17.0549 N   0  0  0  0  0  0  0  0  0  0  0  0
   26.3375  -22.2588  -15.1820 C   0  0  0  0  0  0  0  0  0  0  0  0
   27.5456  -21.9295  -14.9694 O   0  0  0  0  0  0  0  0  0  0  0  0
   25.2721  -18.8152  -15.0712 O   0  0  0  0  0  0  0  0  0  0  0  0
   24.8220  -19.4020  -13.9096 C   0  0  0  0  0  0  0  0  0  0  0  0
   25.6213  -20.6054  -13.5015 C   0  0  2  0  0  0  0  0  0  0  0  0
   25.3134  -21.6805  -14.3908 N   0  0  0  0  0  0  0  0  0  0  0  0
   25.3999  -21.0132  -12.1118 C   0  0  0  0  0  0  0  0  0  0  0  0
   24.5518  -21.9462  -11.9079 O   0  0  0  0  0  0  0  0  0  0  0  0
   28.0599  -18.4517   -6.3823 C   0  0  0  0  0  0  0  0  0  0  0  0
   27.1020  -19.8814   -5.9350 S   0  0  0  0  0  0  0  0  0  0  0  0
   26.0522  -20.5256   -7.2397 C   0  0  0  0  0  0  0  0  0  0  0  0
   26.4645  -20.1826   -8.6077 C   0  0  0  0  0  0  0  0  0  0  0  0
   25.5606  -20.7747   -9.6580 C   0  0  2  0  0  0  0  0  0  0  0  0
   26.0481  -20.4566  -10.9956 N   0  0  0  0  0  0  0  0  0  0  0  0
   24.1358  -20.4014   -9.5265 C   0  0  0  0  0  0  0  0  0  0  0  0
   23.5564  -19.5052  -10.1772 O   0  0  0  0  0  0  0  0  0  0  0  0
   23.3011  -21.0763   -8.6041 O   0  0  0  0  0  0  0  0  0  0  0  0
  2  1  1  0
  2  3  1  0
  3  5  1  0
  3  4  1  6
  5  6  2  0
  7  8  1  0
  9  8  1  6
 10  9  1  0
 10  5  1  0
 11 18  1  0
 11  9  1  0
 12 11  2  0
 13 14  1  0
 15 14  1  0
 16 15  1  0
 17 18  1  0
 17 16  1  1
 19 17  1  0
 20 19  2  0
 21 19  1  0
M  END
$$$$
