SSM.pdb
     RDKit          3D

 21 20  0  0  1  0  0  0  0  0999 V2000
   16.2226  -11.7059  -15.4510 O   0  0  0  0  0  0  0  0  0  0  0  0
   17.3851  -11.7357  -14.7152 C   0  0  0  0  0  0  0  0  0  0  0  0
   18.2659  -10.5774  -15.1410 C   0  0  2  0  0  0  0  0  0  0  0  0
   19.5485  -11.0947  -15.6343 N   0  0  0  0  0  0  0  0  0  0  0  0
   18.5285   -9.7327  -13.9731 C   0  0  0  0  0  0  0  0  0  0  0  0
   19.3001  -10.1440  -13.0520 O   0  0  0  0  0  0  0  0  0  0  0  0
   19.1443   -5.4552  -12.2258 O   0  0  0  0  0  0  0  0  0  0  0  0
   18.8996   -6.3727  -13.2231 C   0  0  0  0  0  0  0  0  0  0  0  0
   18.2352   -7.6255  -12.7304 C   0  0  2  0  0  0  0  0  0  0  0  0
   17.9308   -8.4529  -13.8548 N   0  0  0  0  0  0  0  0  0  0  0  0
   17.0282   -7.3770  -11.9380 C   0  0  0  0  0  0  0  0  0  0  0  0
   15.9573   -7.1067  -12.5793 O   0  0  0  0  0  0  0  0  0  0  0  0
   11.4519   -8.9980   -7.0104 C   0  0  0  0  0  0  0  0  0  0  0  0
   13.0695   -9.3325   -7.6687 S   0  0  0  0  0  0  0  0  0  0  0  0
   13.8365   -7.9544   -8.5243 C   0  0  0  0  0  0  0  0  0  0  0  0
   15.1248   -8.2493   -9.1666 C   0  0  0  0  0  0  0  0  0  0  0  0
   15.7161   -7.0548   -9.8695 C   0  0  2  0  0  0  0  0  0  0  0  0
   16.9639   -7.4142  -10.5343 N   0  0  0  0  0  0  0  0  0  0  0  0
   15.9138   -5.8688   -9.0088 C   0  0  0  0  0  0  0  0  0  0  0  0
   15.0065   -5.2258   -8.4379 O   0  0  0  0  0  0  0  0  0  0  0  0
   17.2152   -5.3666   -8.7696 O   0  0  0  0  0  0  0  0  0  0  0  0
  2  1  1  0
  2  3  1  0
  3  5  1  0
  3  4  1  1
  5  6  2  0
  7  8  1  0
  9  8  1  6
 10  9  1  0
 10  5  1  0
 11 18  1  0
 11  9  1  0
 12 11  2  0
 13 14  1  0
 15 14  1  0
 16 15  1  0
 17 18  1  0
 17 16  1  1
 19 17  1  0
 20 19  2  0
 21 19  1  0
M  END
$$$$
