WFR.pdb
     RDKit          3D

 37 39  0  0  1  0  0  0  0  0999 V2000
   27.7267  -21.8565  -15.5965 N   0  0  0  0  0  0  0  0  0  0  0  0
   26.5063  -21.0671  -15.3119 C   0  0  1  0  0  0  0  0  0  0  0  0
   25.5783  -21.3079  -16.4365 C   0  0  0  0  0  0  0  0  0  0  0  0
   25.8376  -20.6092  -17.6907 C   0  0  0  0  0  0  0  0  0  0  0  0
   26.6834  -21.0603  -18.6993 C   0  0  0  0  0  0  0  0  0  0  0  0
   26.6685  -20.2074  -19.7111 N   0  0  0  0  0  0  0  0  0  0  0  0
   25.8202  -19.1878  -19.3895 C   0  0  0  0  0  0  0  0  0  0  0  0
   25.4396  -18.0492  -20.0531 C   0  0  0  0  0  0  0  0  0  0  0  0
   24.5522  -17.1552  -19.4822 C   0  0  0  0  0  0  0  0  0  0  0  0
   24.0149  -17.3586  -18.2393 C   0  0  0  0  0  0  0  0  0  0  0  0
   24.4030  -18.5145  -17.5692 C   0  0  0  0  0  0  0  0  0  0  0  0
   25.2880  -19.4244  -18.1194 C   0  0  0  0  0  0  0  0  0  0  0  0
   26.0701  -21.3986  -13.9626 C   0  0  0  0  0  0  0  0  0  0  0  0
   26.0687  -22.5813  -13.4901 O   0  0  0  0  0  0  0  0  0  0  0  0
   25.6029  -20.3979  -13.0594 N   0  0  0  0  0  0  0  0  0  0  0  0
   25.0579  -20.7601  -11.7209 C   0  0  1  0  0  0  0  0  0  0  0  0
   25.8185  -19.9298  -10.7659 C   0  0  0  0  0  0  0  0  0  0  0  0
   27.0080  -20.4875  -10.1403 C   0  0  0  0  0  0  0  0  0  0  0  0
   27.1100  -20.6365   -8.7740 C   0  0  0  0  0  0  0  0  0  0  0  0
   28.2298  -21.1972   -8.1731 C   0  0  0  0  0  0  0  0  0  0  0  0
   29.2678  -21.6172   -8.9505 C   0  0  0  0  0  0  0  0  0  0  0  0
   29.1977  -21.4832  -10.3129 C   0  0  0  0  0  0  0  0  0  0  0  0
   28.0663  -20.9185  -10.8972 C   0  0  0  0  0  0  0  0  0  0  0  0
   23.6271  -20.4157  -11.7453 C   0  0  0  0  0  0  0  0  0  0  0  0
   23.2242  -19.7101  -12.7412 O   0  0  0  0  0  0  0  0  0  0  0  0
   17.4156  -21.9996  -16.4382 N   0  0  0  0  0  0  0  0  0  0  0  0
   17.2476  -21.7215  -15.0397 C   0  0  0  0  0  0  0  0  0  0  0  0
   16.3095  -20.9190  -14.6672 N   0  0  0  0  0  0  0  0  0  0  0  0
   18.0828  -22.3048  -14.0640 N   0  0  0  0  0  0  0  0  0  0  0  0
   19.3877  -21.7383  -13.7637 C   0  0  0  0  0  0  0  0  0  0  0  0
   20.0370  -22.6484  -12.7735 C   0  0  0  0  0  0  0  0  0  0  0  0
   21.3528  -22.1855  -12.3101 C   0  0  0  0  0  0  0  0  0  0  0  0
   21.3089  -21.1293  -11.2422 C   0  0  2  0  0  0  0  0  0  0  0  0
   22.6415  -20.7692  -10.8171 N   0  0  0  0  0  0  0  0  0  0  0  0
   20.3875  -21.3748  -10.1361 C   0  0  0  0  0  0  0  0  0  0  0  0
   20.7214  -22.1882   -9.2109 O   0  0  0  0  0  0  0  0  0  0  0  0
   19.1521  -20.7915   -9.9993 O   0  0  0  0  0  0  0  0  0  0  0  0
  2  1  1  6
  2  3  1  0
  3  4  1  0
  4 12  1  0
  4  5  2  0
  5  6  1  0
  7  6  1  0
  7  8  2  0
  9  8  1  0
 10  9  2  0
 11 10  1  0
 11 12  2  0
 12  7  1  0
 13  2  1  0
 14 13  2  0
 15 13  1  0
 16 17  1  1
 16 15  1  0
 17 18  1  0
 18 19  2  0
 19 20  1  0
 21 20  2  0
 22 21  1  0
 23 22  2  0
 23 18  1  0
 24 34  1  0
 24 16  1  0
 25 24  2  0
 27 28  2  0
 27 26  1  0
 29 27  1  0
 30 29  1  0
 31 30  1  0
 33 32  1  1
 32 31  1  0
 33 34  1  0
 35 33  1  0
 35 37  1  0
 36 35  2  0
M  END
$$$$
