WFR.pdb
     RDKit          3D

 37 39  0  0  1  0  0  0  0  0999 V2000
   37.5692   -5.8607  -12.4724 N   0  0  0  0  0  0  0  0  0  0  0  0
   38.3994   -6.6133  -11.5040 C   0  0  1  0  0  0  0  0  0  0  0  0
   39.6319   -7.0027  -12.2205 C   0  0  0  0  0  0  0  0  0  0  0  0
   39.6150   -8.2568  -12.9657 C   0  0  0  0  0  0  0  0  0  0  0  0
   39.7232   -8.3689  -14.3485 C   0  0  0  0  0  0  0  0  0  0  0  0
   39.7043   -9.6454  -14.6971 N   0  0  0  0  0  0  0  0  0  0  0  0
   39.5837  -10.3904  -13.5600 C   0  0  0  0  0  0  0  0  0  0  0  0
   39.5061  -11.7416  -13.3364 C   0  0  0  0  0  0  0  0  0  0  0  0
   39.3728  -12.2448  -12.0551 C   0  0  0  0  0  0  0  0  0  0  0  0
   39.3116  -11.4290  -10.9570 C   0  0  0  0  0  0  0  0  0  0  0  0
   39.3908  -10.0592  -11.1876 C   0  0  0  0  0  0  0  0  0  0  0  0
   39.5256   -9.5316  -12.4593 C   0  0  0  0  0  0  0  0  0  0  0  0
   38.5177   -5.8029  -10.2997 C   0  0  0  0  0  0  0  0  0  0  0  0
   38.7534   -4.5513  -10.3094 O   0  0  0  0  0  0  0  0  0  0  0  0
   38.3756   -6.3702   -8.9983 N   0  0  0  0  0  0  0  0  0  0  0  0
   38.6266   -5.5616   -7.7724 C   0  0  1  0  0  0  0  0  0  0  0  0
   37.3115   -5.4637   -7.1085 C   0  0  0  0  0  0  0  0  0  0  0  0
   36.3718   -4.4461   -7.5545 C   0  0  0  0  0  0  0  0  0  0  0  0
   36.7407   -3.1256   -7.6935 C   0  0  0  0  0  0  0  0  0  0  0  0
   35.8572   -2.1553   -8.1490 C   0  0  0  0  0  0  0  0  0  0  0  0
   34.5812   -2.5097   -8.4720 C   0  0  0  0  0  0  0  0  0  0  0  0
   34.1826   -3.8151   -8.3450 C   0  0  0  0  0  0  0  0  0  0  0  0
   35.0831   -4.7740   -7.8865 C   0  0  0  0  0  0  0  0  0  0  0  0
   39.6041   -6.3136   -6.9689 C   0  0  0  0  0  0  0  0  0  0  0  0
   39.4425   -7.5874   -6.9142 O   0  0  0  0  0  0  0  0  0  0  0  0
   44.9771  -11.7903   -8.6206 N   0  0  0  0  0  0  0  0  0  0  0  0
   45.1182  -11.6362   -7.2001 C   0  0  0  0  0  0  0  0  0  0  0  0
   45.8611  -12.4652   -6.5493 N   0  0  0  0  0  0  0  0  0  0  0  0
   44.4647  -10.6007   -6.5000 N   0  0  0  0  0  0  0  0  0  0  0  0
   43.6497   -9.6232   -7.2030 C   0  0  0  0  0  0  0  0  0  0  0  0
   43.1802   -8.6379   -6.1838 C   0  0  0  0  0  0  0  0  0  0  0  0
   42.1296   -7.7315   -6.6688 C   0  0  0  0  0  0  0  0  0  0  0  0
   41.6813   -6.6977   -5.6749 C   0  0  2  0  0  0  0  0  0  0  0  0
   40.7001   -5.8124   -6.2579 N   0  0  0  0  0  0  0  0  0  0  0  0
   42.7422   -6.0015   -4.9521 C   0  0  0  0  0  0  0  0  0  0  0  0
   43.8922   -5.8787   -5.4920 O   0  0  0  0  0  0  0  0  0  0  0  0
   42.6095   -5.4514   -3.7011 O   0  0  0  0  0  0  0  0  0  0  0  0
  2  1  1  6
  2  3  1  0
  3  4  1  0
  4 12  1  0
  4  5  2  0
  5  6  1  0
  7  6  1  0
  7  8  2  0
  9  8  1  0
 10  9  2  0
 11 10  1  0
 11 12  2  0
 12  7  1  0
 13  2  1  0
 14 13  2  0
 15 13  1  0
 16 17  1  1
 16 15  1  0
 17 18  1  0
 18 19  2  0
 19 20  1  0
 21 20  2  0
 22 21  1  0
 23 22  2  0
 23 18  1  0
 24 34  1  0
 24 16  1  0
 25 24  2  0
 27 28  2  0
 27 26  1  0
 29 27  1  0
 30 29  1  0
 31 30  1  0
 33 32  1  6
 32 31  1  0
 33 34  1  0
 35 33  1  0
 35 37  1  0
 36 35  2  0
M  END
$$$$
