WFR.pdb
     RDKit          3D

 37 39  0  0  1  0  0  0  0  0999 V2000
   25.3654  -20.4337   -9.2693 N   0  0  0  0  0  0  0  0  0  0  0  0
   26.6478  -20.8903   -9.8530 C   0  0  1  0  0  0  0  0  0  0  0  0
   27.5181  -21.2608   -8.7175 C   0  0  0  0  0  0  0  0  0  0  0  0
   27.7335  -20.2630   -7.6751 C   0  0  0  0  0  0  0  0  0  0  0  0
   27.2464  -18.9598   -7.7001 C   0  0  0  0  0  0  0  0  0  0  0  0
   27.5947  -18.3302   -6.5895 N   0  0  0  0  0  0  0  0  0  0  0  0
   28.3117  -19.1998   -5.8199 C   0  0  0  0  0  0  0  0  0  0  0  0
   28.9156  -19.0780   -4.5943 C   0  0  0  0  0  0  0  0  0  0  0  0
   29.6054  -20.1366   -4.0320 C   0  0  0  0  0  0  0  0  0  0  0  0
   29.7198  -21.3463   -4.6634 C   0  0  0  0  0  0  0  0  0  0  0  0
   29.1059  -21.4662   -5.9061 C   0  0  0  0  0  0  0  0  0  0  0  0
   28.4095  -20.4227   -6.4888 C   0  0  0  0  0  0  0  0  0  0  0  0
   26.3418  -21.8997  -10.8572 C   0  0  0  0  0  0  0  0  0  0  0  0
   25.9720  -23.0860  -10.5781 O   0  0  0  0  0  0  0  0  0  0  0  0
   26.4393  -21.6211  -12.2531 N   0  0  0  0  0  0  0  0  0  0  0  0
   25.2242  -21.3604  -13.0747 C   0  0  1  0  0  0  0  0  0  0  0  0
   24.5710  -20.2052  -12.4275 C   0  0  0  0  0  0  0  0  0  0  0  0
   23.3613  -19.6566  -13.0218 C   0  0  0  0  0  0  0  0  0  0  0  0
   23.2807  -18.3415  -13.4259 C   0  0  0  0  0  0  0  0  0  0  0  0
   22.1398  -17.8202  -14.0226 C   0  0  0  0  0  0  0  0  0  0  0  0
   21.0587  -18.6267  -14.2198 C   0  0  0  0  0  0  0  0  0  0  0  0
   21.1067  -19.9398  -13.8292 C   0  0  0  0  0  0  0  0  0  0  0  0
   22.2598  -20.4445  -13.2325 C   0  0  0  0  0  0  0  0  0  0  0  0
   25.6976  -21.0466  -14.4326 C   0  0  0  0  0  0  0  0  0  0  0  0
   24.8001  -20.7119  -15.2896 O   0  0  0  0  0  0  0  0  0  0  0  0
   30.7915  -25.2290  -18.1210 N   0  0  0  0  0  0  0  0  0  0  0  0
   30.7332  -25.6017  -16.7357 C   0  0  0  0  0  0  0  0  0  0  0  0
   31.8173  -25.9577  -16.1351 N   0  0  0  0  0  0  0  0  0  0  0  0
   29.5200  -25.5876  -16.0163 N   0  0  0  0  0  0  0  0  0  0  0  0
   28.2456  -25.4627  -16.7050 C   0  0  0  0  0  0  0  0  0  0  0  0
   28.0512  -24.0107  -16.9954 C   0  0  0  0  0  0  0  0  0  0  0  0
   27.6147  -23.2225  -15.8340 C   0  0  0  0  0  0  0  0  0  0  0  0
   27.3636  -21.7685  -16.1179 C   0  0  2  0  0  0  0  0  0  0  0  0
   27.0132  -21.0596  -14.9091 N   0  0  0  0  0  0  0  0  0  0  0  0
   26.4798  -21.4790  -17.2438 C   0  0  0  0  0  0  0  0  0  0  0  0
   25.2498  -21.8134  -17.1773 O   0  0  0  0  0  0  0  0  0  0  0  0
   26.8672  -20.8612  -18.4072 O   0  0  0  0  0  0  0  0  0  0  0  0
  2  1  1  1
  2  3  1  0
  3  4  1  0
  4 12  1  0
  4  5  2  0
  5  6  1  0
  7  6  1  0
  7  8  2  0
  9  8  1  0
 10  9  2  0
 11 10  1  0
 11 12  2  0
 12  7  1  0
 13  2  1  0
 14 13  2  0
 15 13  1  0
 16 17  1  1
 16 15  1  0
 17 18  1  0
 18 19  2  0
 19 20  1  0
 21 20  2  0
 22 21  1  0
 23 22  2  0
 23 18  1  0
 24 34  1  0
 24 16  1  0
 25 24  2  0
 27 28  2  0
 27 26  1  0
 29 27  1  0
 30 29  1  0
 31 30  1  0
 33 32  1  1
 32 31  1  0
 33 34  1  0
 35 33  1  0
 35 37  1  0
 36 35  2  0
M  END
$$$$
