WFR.pdb
     RDKit          3D

 37 39  0  0  1  0  0  0  0  0999 V2000
   28.0635  -21.9723  -16.5029 N   0  0  0  0  0  0  0  0  0  0  0  0
   27.8226  -20.8000  -15.6306 C   0  0  1  0  0  0  0  0  0  0  0  0
   26.9463  -19.8839  -16.3901 C   0  0  0  0  0  0  0  0  0  0  0  0
   27.5295  -19.1705  -17.5211 C   0  0  0  0  0  0  0  0  0  0  0  0
   26.9502  -19.0554  -18.7811 C   0  0  0  0  0  0  0  0  0  0  0  0
   27.7228  -18.3192  -19.5636 N   0  0  0  0  0  0  0  0  0  0  0  0
   28.8156  -17.9399  -18.8395 C   0  0  0  0  0  0  0  0  0  0  0  0
   29.9223  -17.1902  -19.1480 C   0  0  0  0  0  0  0  0  0  0  0  0
   30.9116  -16.9614  -18.2091 C   0  0  0  0  0  0  0  0  0  0  0  0
   30.8379  -17.4663  -16.9385 C   0  0  0  0  0  0  0  0  0  0  0  0
   29.7142  -18.2259  -16.6291 C   0  0  0  0  0  0  0  0  0  0  0  0
   28.7107  -18.4679  -17.5501 C   0  0  0  0  0  0  0  0  0  0  0  0
   27.3643  -21.2959  -14.3402 C   0  0  0  0  0  0  0  0  0  0  0  0
   26.8261  -22.4379  -14.1718 O   0  0  0  0  0  0  0  0  0  0  0  0
   27.4889  -20.5171  -13.1513 N   0  0  0  0  0  0  0  0  0  0  0  0
   26.8953  -20.9742  -11.8636 C   0  0  1  0  0  0  0  0  0  0  0  0
   27.7543  -20.3807  -10.8197 C   0  0  0  0  0  0  0  0  0  0  0  0
   29.0241  -21.0186  -10.5064 C   0  0  0  0  0  0  0  0  0  0  0  0
   29.1443  -22.3873  -10.3997 C   0  0  0  0  0  0  0  0  0  0  0  0
   30.3598  -23.0040  -10.1322 C   0  0  0  0  0  0  0  0  0  0  0  0
   31.4769  -22.2401   -9.9679 C   0  0  0  0  0  0  0  0  0  0  0  0
   31.3911  -20.8757  -10.0679 C   0  0  0  0  0  0  0  0  0  0  0  0
   30.1632  -20.2755  -10.3368 C   0  0  0  0  0  0  0  0  0  0  0  0
   25.5223  -20.4451  -11.8254 C   0  0  0  0  0  0  0  0  0  0  0  0
   25.2160  -19.5802  -12.7253 O   0  0  0  0  0  0  0  0  0  0  0  0
   19.9767  -17.3330  -15.2042 N   0  0  0  0  0  0  0  0  0  0  0  0
   19.2223  -18.4363  -14.6797 C   0  0  0  0  0  0  0  0  0  0  0  0
   17.9369  -18.3491  -14.6259 N   0  0  0  0  0  0  0  0  0  0  0  0
   19.8526  -19.6126  -14.2228 N   0  0  0  0  0  0  0  0  0  0  0  0
   20.9565  -19.5491  -13.2787 C   0  0  0  0  0  0  0  0  0  0  0  0
   21.3495  -20.9580  -12.9771 C   0  0  0  0  0  0  0  0  0  0  0  0
   22.7583  -21.1149  -12.5886 C   0  0  0  0  0  0  0  0  0  0  0  0
   23.1132  -20.5238  -11.2535 C   0  0  2  0  0  0  0  0  0  0  0  0
   24.4986  -20.7741  -10.9300 N   0  0  0  0  0  0  0  0  0  0  0  0
   22.1935  -20.8179  -10.1580 C   0  0  0  0  0  0  0  0  0  0  0  0
   22.4942  -21.7271   -9.3140 O   0  0  0  0  0  0  0  0  0  0  0  0
   20.9933  -20.1847   -9.9492 O   0  0  0  0  0  0  0  0  0  0  0  0
  2  1  1  6
  2  3  1  0
  3  4  1  0
  4 12  1  0
  4  5  2  0
  5  6  1  0
  7  6  1  0
  7  8  2  0
  9  8  1  0
 10  9  2  0
 11 10  1  0
 11 12  2  0
 12  7  1  0
 13  2  1  0
 14 13  2  0
 15 13  1  0
 16 17  1  1
 16 15  1  0
 17 18  1  0
 18 19  2  0
 19 20  1  0
 21 20  2  0
 22 21  1  0
 23 22  2  0
 23 18  1  0
 24 34  1  0
 24 16  1  0
 25 24  2  0
 27 28  2  0
 27 26  1  0
 29 27  1  0
 30 29  1  0
 31 30  1  0
 33 32  1  6
 32 31  1  0
 33 34  1  0
 35 33  1  0
 35 37  1  0
 36 35  2  0
M  END
$$$$
