WFR.pdb
     RDKit          3D

 37 39  0  0  1  0  0  0  0  0999 V2000
   27.6111  -21.3122  -13.9788 N   0  0  0  0  0  0  0  0  0  0  0  0
   27.1499  -20.2149  -13.0975 C   0  0  1  0  0  0  0  0  0  0  0  0
   25.9503  -19.6371  -13.7385 C   0  0  0  0  0  0  0  0  0  0  0  0
   26.1320  -18.9243  -14.9984 C   0  0  0  0  0  0  0  0  0  0  0  0
   25.8442  -19.4387  -16.2590 C   0  0  0  0  0  0  0  0  0  0  0  0
   26.0926  -18.5246  -17.1830 N   0  0  0  0  0  0  0  0  0  0  0  0
   26.5450  -17.4016  -16.5532 C   0  0  0  0  0  0  0  0  0  0  0  0
   26.9526  -16.1758  -17.0146 C   0  0  0  0  0  0  0  0  0  0  0  0
   27.3855  -15.1943  -16.1418 C   0  0  0  0  0  0  0  0  0  0  0  0
   27.4292  -15.3941  -14.7878 C   0  0  0  0  0  0  0  0  0  0  0  0
   27.0149  -16.6384  -14.3234 C   0  0  0  0  0  0  0  0  0  0  0  0
   26.5767  -17.6358  -15.1760 C   0  0  0  0  0  0  0  0  0  0  0  0
   27.0317  -20.7513  -11.7487 C   0  0  0  0  0  0  0  0  0  0  0  0
   26.5243  -21.8885  -11.4815 O   0  0  0  0  0  0  0  0  0  0  0  0
   27.4854  -20.0213  -10.6099 N   0  0  0  0  0  0  0  0  0  0  0  0
   27.2456  -20.5212   -9.2271 C   0  0  1  0  0  0  0  0  0  0  0  0
   28.1901  -19.7635   -8.3823 C   0  0  0  0  0  0  0  0  0  0  0  0
   28.1667  -19.9688   -6.9419 C   0  0  0  0  0  0  0  0  0  0  0  0
   27.4158  -19.1718   -6.1051 C   0  0  0  0  0  0  0  0  0  0  0  0
   27.3645  -19.3824   -4.7331 C   0  0  0  0  0  0  0  0  0  0  0  0
   28.0762  -20.4080   -4.1856 C   0  0  0  0  0  0  0  0  0  0  0  0
   28.8332  -21.2193   -4.9905 C   0  0  0  0  0  0  0  0  0  0  0  0
   28.8720  -20.9924   -6.3643 C   0  0  0  0  0  0  0  0  0  0  0  0
   25.8415  -20.2145   -8.9096 C   0  0  0  0  0  0  0  0  0  0  0  0
   25.3771  -19.1095   -9.3733 O   0  0  0  0  0  0  0  0  0  0  0  0
   23.5068  -23.2417  -13.2804 N   0  0  0  0  0  0  0  0  0  0  0  0
   22.1360  -23.1681  -12.8598 C   0  0  0  0  0  0  0  0  0  0  0  0
   21.3448  -24.1518  -13.1223 N   0  0  0  0  0  0  0  0  0  0  0  0
   21.6343  -22.0468  -12.1665 N   0  0  0  0  0  0  0  0  0  0  0  0
   22.5319  -21.0280  -11.6466 C   0  0  0  0  0  0  0  0  0  0  0  0
   22.8465  -21.4070  -10.2368 C   0  0  0  0  0  0  0  0  0  0  0  0
   22.9246  -20.2652   -9.3145 C   0  0  0  0  0  0  0  0  0  0  0  0
   23.5682  -20.5675   -7.9908 C   0  0  2  0  0  0  0  0  0  0  0  0
   24.9398  -20.9848   -8.1670 N   0  0  0  0  0  0  0  0  0  0  0  0
   22.8057  -21.4268   -7.0893 C   0  0  0  0  0  0  0  0  0  0  0  0
   21.5727  -21.1745   -6.8763 O   0  0  0  0  0  0  0  0  0  0  0  0
   23.3140  -22.5163   -6.4262 O   0  0  0  0  0  0  0  0  0  0  0  0
  2  1  1  6
  2  3  1  0
  3  4  1  0
  4 12  1  0
  4  5  2  0
  5  6  1  0
  7  6  1  0
  7  8  2  0
  9  8  1  0
 10  9  2  0
 11 10  1  0
 11 12  2  0
 12  7  1  0
 13  2  1  0
 14 13  2  0
 15 13  1  0
 16 17  1  1
 16 15  1  0
 17 18  1  0
 18 19  2  0
 19 20  1  0
 21 20  2  0
 22 21  1  0
 23 22  2  0
 23 18  1  0
 24 34  1  0
 24 16  1  0
 25 24  2  0
 27 28  2  0
 27 26  1  0
 29 27  1  0
 30 29  1  0
 31 30  1  0
 33 32  1  6
 32 31  1  0
 33 34  1  0
 35 33  1  0
 35 37  1  0
 36 35  2  0
M  END
$$$$
