WFR.pdb
     RDKit          3D

 37 39  0  0  1  0  0  0  0  0999 V2000
   28.7979  -22.2588  -16.0520 N   0  0  0  0  0  0  0  0  0  0  0  0
   28.0656  -21.1112  -15.4685 C   0  0  1  0  0  0  0  0  0  0  0  0
   27.0778  -20.6842  -16.4813 C   0  0  0  0  0  0  0  0  0  0  0  0
   27.2831  -19.3911  -17.1250 C   0  0  0  0  0  0  0  0  0  0  0  0
   27.7249  -19.2075  -18.4317 C   0  0  0  0  0  0  0  0  0  0  0  0
   27.7723  -17.9148  -18.7109 N   0  0  0  0  0  0  0  0  0  0  0  0
   27.3664  -17.2298  -17.6025 C   0  0  0  0  0  0  0  0  0  0  0  0
   27.2332  -15.8915  -17.3323 C   0  0  0  0  0  0  0  0  0  0  0  0
   26.8022  -15.4547  -16.0929 C   0  0  0  0  0  0  0  0  0  0  0  0
   26.4906  -16.3261  -15.0836 C   0  0  0  0  0  0  0  0  0  0  0  0
   26.6267  -17.6826  -15.3613 C   0  0  0  0  0  0  0  0  0  0  0  0
   27.0546  -18.1443  -16.5931 C   0  0  0  0  0  0  0  0  0  0  0  0
   27.5880  -21.5144  -14.1531 C   0  0  0  0  0  0  0  0  0  0  0  0
   27.2244  -22.7006  -13.8654 O   0  0  0  0  0  0  0  0  0  0  0  0
   27.4919  -20.5858  -13.0742 N   0  0  0  0  0  0  0  0  0  0  0  0
   27.0131  -21.0122  -11.7293 C   0  0  1  0  0  0  0  0  0  0  0  0
   27.7059  -20.1180  -10.7805 C   0  0  0  0  0  0  0  0  0  0  0  0
   27.4041  -20.2279   -9.3612 C   0  0  0  0  0  0  0  0  0  0  0  0
   28.3758  -20.5296   -8.4317 C   0  0  0  0  0  0  0  0  0  0  0  0
   28.1004  -20.6048   -7.0723 C   0  0  0  0  0  0  0  0  0  0  0  0
   26.8310  -20.3745   -6.6321 C   0  0  0  0  0  0  0  0  0  0  0  0
   25.8414  -20.0720   -7.5311 C   0  0  0  0  0  0  0  0  0  0  0  0
   26.1370  -20.0010   -8.8905 C   0  0  0  0  0  0  0  0  0  0  0  0
   25.5548  -20.8128  -11.7225 C   0  0  0  0  0  0  0  0  0  0  0  0
   24.9382  -21.1271  -10.6396 O   0  0  0  0  0  0  0  0  0  0  0  0
   22.8302  -25.3022  -14.6436 N   0  0  0  0  0  0  0  0  0  0  0  0
   21.3982  -25.2871  -14.5421 C   0  0  0  0  0  0  0  0  0  0  0  0
   20.7831  -26.3600  -14.1773 N   0  0  0  0  0  0  0  0  0  0  0  0
   20.6484  -24.1278  -14.8312 N   0  0  0  0  0  0  0  0  0  0  0  0
   21.2932  -22.8289  -14.9358 C   0  0  0  0  0  0  0  0  0  0  0  0
   21.7935  -22.4830  -13.5719 C   0  0  0  0  0  0  0  0  0  0  0  0
   23.1732  -21.9766  -13.5524 C   0  0  0  0  0  0  0  0  0  0  0  0
   23.3521  -20.6625  -12.8461 C   0  0  2  0  0  0  0  0  0  0  0  0
   24.7505  -20.3128  -12.7526 N   0  0  0  0  0  0  0  0  0  0  0  0
   22.6240  -20.5062  -11.5899 C   0  0  0  0  0  0  0  0  0  0  0  0
   22.7888  -21.3638  -10.6589 O   0  0  0  0  0  0  0  0  0  0  0  0
   21.7470  -19.4869  -11.3124 O   0  0  0  0  0  0  0  0  0  0  0  0
  2  1  1  6
  2  3  1  0
  3  4  1  0
  4 12  1  0
  4  5  2  0
  5  6  1  0
  7  6  1  0
  7  8  2  0
  9  8  1  0
 10  9  2  0
 11 10  1  0
 11 12  2  0
 12  7  1  0
 13  2  1  0
 14 13  2  0
 15 13  1  0
 16 17  1  1
 16 15  1  0
 17 18  1  0
 18 19  2  0
 19 20  1  0
 21 20  2  0
 22 21  1  0
 23 22  2  0
 23 18  1  0
 24 34  1  0
 24 16  1  0
 25 24  2  0
 27 28  2  0
 27 26  1  0
 29 27  1  0
 30 29  1  0
 31 30  1  0
 33 32  1  1
 32 31  1  0
 33 34  1  0
 35 33  1  0
 35 37  1  0
 36 35  2  0
M  END
$$$$
