WFR.pdb
     RDKit          3D

 37 39  0  0  1  0  0  0  0  0999 V2000
   14.0136  -15.1881    9.6644 N   0  0  0  0  0  0  0  0  0  0  0  0
   15.4173  -15.2395    9.1947 C   0  0  1  0  0  0  0  0  0  0  0  0
   16.1403  -16.1288   10.1277 C   0  0  0  0  0  0  0  0  0  0  0  0
   16.6391  -15.5470   11.3692 C   0  0  0  0  0  0  0  0  0  0  0  0
   16.2690  -14.3059   11.8781 C   0  0  0  0  0  0  0  0  0  0  0  0
   16.8796  -14.0954   13.0331 N   0  0  0  0  0  0  0  0  0  0  0  0
   17.6564  -15.1845   13.3031 C   0  0  0  0  0  0  0  0  0  0  0  0
   18.4960  -15.4943   14.3427 C   0  0  0  0  0  0  0  0  0  0  0  0
   19.1897  -16.6905   14.3656 C   0  0  0  0  0  0  0  0  0  0  0  0
   19.0755  -17.6157   13.3626 C   0  0  0  0  0  0  0  0  0  0  0  0
   18.2230  -17.2982   12.3100 C   0  0  0  0  0  0  0  0  0  0  0  0
   17.5175  -16.1091   12.2647 C   0  0  0  0  0  0  0  0  0  0  0  0
   15.3975  -15.5798    7.7788 C   0  0  0  0  0  0  0  0  0  0  0  0
   14.4561  -16.2314    7.2209 O   0  0  0  0  0  0  0  0  0  0  0  0
   16.4564  -15.1985    6.9021 N   0  0  0  0  0  0  0  0  0  0  0  0
   16.4760  -15.6381    5.4787 C   0  0  1  0  0  0  0  0  0  0  0  0
   17.2901  -14.6233    4.7808 C   0  0  0  0  0  0  0  0  0  0  0  0
   17.6342  -14.8364    3.3831 C   0  0  0  0  0  0  0  0  0  0  0  0
   16.7435  -15.3934    2.4910 C   0  0  0  0  0  0  0  0  0  0  0  0
   17.0547  -15.5703    1.1489 C   0  0  0  0  0  0  0  0  0  0  0  0
   18.2781  -15.1840    0.6881 C   0  0  0  0  0  0  0  0  0  0  0  0
   19.1868  -14.6266    1.5498 C   0  0  0  0  0  0  0  0  0  0  0  0
   18.8565  -14.4571    2.8924 C   0  0  0  0  0  0  0  0  0  0  0  0
   17.1053  -16.9686    5.4611 C   0  0  0  0  0  0  0  0  0  0  0  0
   18.0691  -17.1579    6.2900 O   0  0  0  0  0  0  0  0  0  0  0  0
   17.5844  -23.5034   10.0723 N   0  0  0  0  0  0  0  0  0  0  0  0
   18.3043  -23.9021    8.8958 C   0  0  0  0  0  0  0  0  0  0  0  0
   18.9273  -25.0310    8.8931 N   0  0  0  0  0  0  0  0  0  0  0  0
   18.3461  -23.0896    7.7435 N   0  0  0  0  0  0  0  0  0  0  0  0
   17.6029  -21.8414    7.6832 C   0  0  0  0  0  0  0  0  0  0  0  0
   17.8997  -21.2247    6.3559 C   0  0  0  0  0  0  0  0  0  0  0  0
   17.2388  -19.9301    6.1376 C   0  0  0  0  0  0  0  0  0  0  0  0
   17.4749  -19.3226    4.7837 C   0  0  2  0  0  0  0  0  0  0  0  0
   16.7783  -18.0639    4.6541 N   0  0  0  0  0  0  0  0  0  0  0  0
   17.2923  -20.2136    3.6412 C   0  0  0  0  0  0  0  0  0  0  0  0
   16.5414  -19.8489    2.6756 O   0  0  0  0  0  0  0  0  0  0  0  0
   17.8733  -21.4506    3.5097 O   0  0  0  0  0  0  0  0  0  0  0  0
  2  1  1  1
  2  3  1  0
  3  4  1  0
  4 12  1  0
  4  5  2  0
  5  6  1  0
  7  6  1  0
  7  8  2  0
  9  8  1  0
 10  9  2  0
 11 10  1  0
 11 12  2  0
 12  7  1  0
 13  2  1  0
 14 13  2  0
 15 13  1  0
 16 17  1  6
 16 15  1  0
 17 18  1  0
 18 19  2  0
 19 20  1  0
 21 20  2  0
 22 21  1  0
 23 22  2  0
 23 18  1  0
 24 34  1  0
 24 16  1  0
 25 24  2  0
 27 28  2  0
 27 26  1  0
 29 27  1  0
 30 29  1  0
 31 30  1  0
 33 32  1  1
 32 31  1  0
 33 34  1  0
 35 33  1  0
 35 37  1  0
 36 35  2  0
M  END
$$$$
