WFR.pdb
     RDKit          3D

 37 39  0  0  1  0  0  0  0  0999 V2000
   26.1143  -21.5310  -13.4137 N   0  0  0  0  0  0  0  0  0  0  0  0
   25.9451  -20.3709  -12.5087 C   0  0  1  0  0  0  0  0  0  0  0  0
   24.7377  -19.6527  -12.9675 C   0  0  0  0  0  0  0  0  0  0  0  0
   24.7831  -19.0219  -14.2822 C   0  0  0  0  0  0  0  0  0  0  0  0
   23.7529  -19.0434  -15.2174 C   0  0  0  0  0  0  0  0  0  0  0  0
   24.1061  -18.3511  -16.2886 N   0  0  0  0  0  0  0  0  0  0  0  0
   25.3644  -17.8659  -16.0800 C   0  0  0  0  0  0  0  0  0  0  0  0
   26.2077  -17.1045  -16.8488 C   0  0  0  0  0  0  0  0  0  0  0  0
   27.4652  -16.7536  -16.3925 C   0  0  0  0  0  0  0  0  0  0  0  0
   27.9274  -17.1444  -15.1642 C   0  0  0  0  0  0  0  0  0  0  0  0
   27.0694  -17.9164  -14.3873 C   0  0  0  0  0  0  0  0  0  0  0  0
   25.8069  -18.2793  -14.8207 C   0  0  0  0  0  0  0  0  0  0  0  0
   25.9847  -20.8682  -11.1405 C   0  0  0  0  0  0  0  0  0  0  0  0
   25.7206  -22.0714  -10.8171 O   0  0  0  0  0  0  0  0  0  0  0  0
   26.3285  -20.0209  -10.0453 N   0  0  0  0  0  0  0  0  0  0  0  0
   26.4602  -20.5613   -8.6632 C   0  0  1  0  0  0  0  0  0  0  0  0
   27.2323  -19.5388   -7.9296 C   0  0  0  0  0  0  0  0  0  0  0  0
   27.4725  -19.7248   -6.5065 C   0  0  0  0  0  0  0  0  0  0  0  0
   26.9956  -18.8377   -5.5659 C   0  0  0  0  0  0  0  0  0  0  0  0
   27.1944  -19.0265   -4.2041 C   0  0  0  0  0  0  0  0  0  0  0  0
   27.8824  -20.1215   -3.7729 C   0  0  0  0  0  0  0  0  0  0  0  0
   28.3699  -21.0230   -4.6831 C   0  0  0  0  0  0  0  0  0  0  0  0
   28.1604  -20.8167   -6.0447 C   0  0  0  0  0  0  0  0  0  0  0  0
   25.0922  -20.7105   -8.1409 C   0  0  0  0  0  0  0  0  0  0  0  0
   24.3496  -19.6619   -8.1709 O   0  0  0  0  0  0  0  0  0  0  0  0
   19.2555  -25.2680   -5.3038 N   0  0  0  0  0  0  0  0  0  0  0  0
   18.4357  -24.4757   -6.1765 C   0  0  0  0  0  0  0  0  0  0  0  0
   17.2270  -24.8544   -6.4180 N   0  0  0  0  0  0  0  0  0  0  0  0
   18.9200  -23.2940   -6.7753 N   0  0  0  0  0  0  0  0  0  0  0  0
   20.2210  -23.2649   -7.4236 C   0  0  0  0  0  0  0  0  0  0  0  0
   21.2458  -23.2594   -6.3373 C   0  0  0  0  0  0  0  0  0  0  0  0
   22.6317  -23.2045   -6.8239 C   0  0  0  0  0  0  0  0  0  0  0  0
   23.1689  -21.8180   -7.0404 C   0  0  2  0  0  0  0  0  0  0  0  0
   24.4918  -21.8615   -7.6187 N   0  0  0  0  0  0  0  0  0  0  0  0
   23.0543  -20.9027   -5.9083 C   0  0  0  0  0  0  0  0  0  0  0  0
   23.8849  -20.9922   -4.9433 O   0  0  0  0  0  0  0  0  0  0  0  0
   22.0998  -19.9237   -5.7839 O   0  0  0  0  0  0  0  0  0  0  0  0
  2  1  1  6
  2  3  1  0
  3  4  1  0
  4 12  1  0
  4  5  2  0
  5  6  1  0
  7  6  1  0
  7  8  2  0
  9  8  1  0
 10  9  2  0
 11 10  1  0
 11 12  2  0
 12  7  1  0
 13  2  1  0
 14 13  2  0
 15 13  1  0
 16 17  1  1
 16 15  1  0
 17 18  1  0
 18 19  2  0
 19 20  1  0
 21 20  2  0
 22 21  1  0
 23 22  2  0
 23 18  1  0
 24 34  1  0
 24 16  1  0
 25 24  2  0
 27 28  2  0
 27 26  1  0
 29 27  1  0
 30 29  1  0
 31 30  1  0
 33 32  1  1
 32 31  1  0
 33 34  1  0
 35 33  1  0
 35 37  1  0
 36 35  2  0
M  END
$$$$
