CSP.pdb
     RDKit          3D

 20 20  0  0  1  0  0  0  0  0999 V2000
    8.1904  -16.0072   18.7624 N   0  0  0  0  0  0  0  0  0  0  0  0
    8.4517  -14.8905   19.6502 C   0  0  1  0  0  0  0  0  0  0  0  0
    8.1992  -13.6270   18.8536 C   0  0  0  0  0  0  0  0  0  0  0  0
    8.5750  -12.2272   19.9605 S   0  0  0  0  0  0  0  0  0  0  0  0
    7.5601  -14.9543   20.8373 C   0  0  0  0  0  0  0  0  0  0  0  0
    6.3692  -15.2992   20.6717 O   0  0  0  0  0  0  0  0  0  0  0  0
    7.7766  -16.7693   24.1350 O   0  0  0  0  0  0  0  0  0  0  0  0
    6.7269  -16.2000   23.3841 C   0  0  0  0  0  0  0  0  0  0  0  0
    7.0908  -14.7005   23.3214 C   0  0  2  0  0  0  0  0  0  0  0  0
    7.9779  -14.6485   22.1419 N   0  0  0  0  0  0  0  0  0  0  0  0
    7.8125  -14.3419   24.5395 C   0  0  0  0  0  0  0  0  0  0  0  0
    8.9396  -14.9157   24.7204 O   0  0  0  0  0  0  0  0  0  0  0  0
    7.3646  -13.4247   25.5098 N   0  0  0  0  0  0  0  0  0  0  0  0
    6.1498  -12.6403   25.5215 C   0  0  0  0  0  0  0  0  0  0  0  0
    5.8354  -12.6551   27.0210 C   0  0  0  0  0  0  0  0  0  0  0  0
    7.2079  -12.2436   27.5604 C   0  0  0  0  0  0  0  0  0  0  0  0
    8.1243  -13.1195   26.7400 C   0  0  1  0  0  0  0  0  0  0  0  0
    8.3517  -14.3970   27.4798 C   0  0  0  0  0  0  0  0  0  0  0  0
    9.3423  -14.4922   28.4379 O   0  0  0  0  0  0  0  0  0  0  0  0
    7.6502  -15.4121   27.2495 O   0  0  0  0  0  0  0  0  0  0  0  0
  2  5  1  0
  2  1  1  6
  3  2  1  0
  4  3  1  0
  5  6  2  0
  7  8  1  0
  9  8  1  1
 10  9  1  0
 10  5  1  0
 11 12  2  0
 11  9  1  0
 13 11  1  0
 14 13  1  0
 15 14  1  0
 16 15  1  0
 16 17  1  0
 17 18  1  1
 17 13  1  0
 18 19  1  0
 20 18  2  0
M  END
$$$$
