CSP.pdb
     RDKit          3D

 20 20  0  0  1  0  0  0  0  0999 V2000
    9.0140  -16.4909   20.1344 N   0  0  0  0  0  0  0  0  0  0  0  0
    8.8844  -15.0487   20.2160 C   0  0  1  0  0  0  0  0  0  0  0  0
    8.0223  -14.6179   19.0472 C   0  0  0  0  0  0  0  0  0  0  0  0
    8.0768  -12.7956   19.0011 S   0  0  0  0  0  0  0  0  0  0  0  0
    8.2596  -14.6580   21.5064 C   0  0  0  0  0  0  0  0  0  0  0  0
    8.1893  -13.4422   21.7919 O   0  0  0  0  0  0  0  0  0  0  0  0
    7.5310  -17.3585   24.2659 O   0  0  0  0  0  0  0  0  0  0  0  0
    6.3902  -16.5479   24.0891 C   0  0  0  0  0  0  0  0  0  0  0  0
    6.9698  -15.1924   23.6293 C   0  0  2  0  0  0  0  0  0  0  0  0
    7.7403  -15.5785   22.4300 N   0  0  0  0  0  0  0  0  0  0  0  0
    7.8483  -14.6785   24.6768 C   0  0  0  0  0  0  0  0  0  0  0  0
    8.9873  -15.2460   24.7905 O   0  0  0  0  0  0  0  0  0  0  0  0
    7.5367  -13.6208   25.5529 N   0  0  0  0  0  0  0  0  0  0  0  0
    6.3654  -12.7729   25.5678 C   0  0  0  0  0  0  0  0  0  0  0  0
    6.1945  -12.5781   27.0780 C   0  0  0  0  0  0  0  0  0  0  0  0
    7.6293  -12.1807   27.4349 C   0  0  0  0  0  0  0  0  0  0  0  0
    8.4229  -13.2053   26.6600 C   0  0  1  0  0  0  0  0  0  0  0  0
    8.6613  -14.3889   27.5394 C   0  0  0  0  0  0  0  0  0  0  0  0
    9.6952  -14.3920   28.4554 O   0  0  0  0  0  0  0  0  0  0  0  0
    7.9298  -15.4064   27.4676 O   0  0  0  0  0  0  0  0  0  0  0  0
  2  5  1  0
  2  1  1  1
  3  2  1  0
  4  3  1  0
  5  6  2  0
  7  8  1  0
  9  8  1  1
 10  9  1  0
 10  5  1  0
 11 12  2  0
 11  9  1  0
 13 11  1  0
 14 13  1  0
 15 14  1  0
 16 15  1  0
 16 17  1  0
 17 18  1  1
 17 13  1  0
 18 19  1  0
 20 18  2  0
M  END
$$$$
