CSP.pdb
     RDKit          3D

 20 20  0  0  1  0  0  0  0  0999 V2000
   10.8802  -15.8194   20.5443 N   0  0  0  0  0  0  0  0  0  0  0  0
   10.6467  -16.8499   21.5377 C   0  0  1  0  0  0  0  0  0  0  0  0
   11.9833  -17.5086   21.8106 C   0  0  0  0  0  0  0  0  0  0  0  0
   13.1372  -16.1758   22.2779 S   0  0  0  0  0  0  0  0  0  0  0  0
   10.0874  -16.2541   22.7788 C   0  0  0  0  0  0  0  0  0  0  0  0
   10.2585  -15.0321   22.9842 O   0  0  0  0  0  0  0  0  0  0  0  0
    7.0845  -16.8785   26.4708 O   0  0  0  0  0  0  0  0  0  0  0  0
    7.6630  -17.4008   25.2950 C   0  0  0  0  0  0  0  0  0  0  0  0
    8.7761  -16.3872   24.9510 C   0  0  2  0  0  0  0  0  0  0  0  0
    9.3739  -16.9861   23.7407 N   0  0  0  0  0  0  0  0  0  0  0  0
    9.7361  -16.3537   26.0513 C   0  0  0  0  0  0  0  0  0  0  0  0
   10.4895  -17.3778   26.1776 O   0  0  0  0  0  0  0  0  0  0  0  0
    9.8893  -15.2927   26.9646 N   0  0  0  0  0  0  0  0  0  0  0  0
    9.2588  -13.9914   26.9546 C   0  0  0  0  0  0  0  0  0  0  0  0
    9.0774  -13.7697   28.4598 C   0  0  0  0  0  0  0  0  0  0  0  0
   10.4958  -14.1073   28.9271 C   0  0  0  0  0  0  0  0  0  0  0  0
   10.7732  -15.3696   28.1464 C   0  0  1  0  0  0  0  0  0  0  0  0
   10.3533  -16.5424   28.9707 C   0  0  0  0  0  0  0  0  0  0  0  0
    9.1631  -17.1955   28.7160 O   0  0  0  0  0  0  0  0  0  0  0  0
   11.0699  -16.9616   29.9121 O   0  0  0  0  0  0  0  0  0  0  0  0
  2  5  1  0
  2  1  1  6
  3  2  1  0
  4  3  1  0
  5  6  2  0
  7  8  1  0
  9  8  1  1
 10  9  1  0
 10  5  1  0
 11 12  2  0
 11  9  1  0
 13 11  1  0
 14 13  1  0
 15 14  1  0
 16 15  1  0
 16 17  1  0
 17 18  1  1
 17 13  1  0
 18 19  1  0
 20 18  2  0
M  END
$$$$
