CSP.pdb
     RDKit          3D

 20 20  0  0  1  0  0  0  0  0999 V2000
    7.2100  -16.2891   19.0642 N   0  0  0  0  0  0  0  0  0  0  0  0
    8.0930  -15.7979   20.1046 C   0  0  1  0  0  0  0  0  0  0  0  0
    8.8129  -14.5919   19.5371 C   0  0  0  0  0  0  0  0  0  0  0  0
    9.9463  -13.9998   20.8376 S   0  0  0  0  0  0  0  0  0  0  0  0
    7.3118  -15.4272   21.3131 C   0  0  0  0  0  0  0  0  0  0  0  0
    6.2913  -14.7180   21.1702 O   0  0  0  0  0  0  0  0  0  0  0  0
    7.6156  -17.4996   24.6049 O   0  0  0  0  0  0  0  0  0  0  0  0
    6.4192  -16.7921   24.3643 C   0  0  0  0  0  0  0  0  0  0  0  0
    6.9008  -15.4293   23.8205 C   0  0  2  0  0  0  0  0  0  0  0  0
    7.6533  -15.8285   22.6141 N   0  0  0  0  0  0  0  0  0  0  0  0
    7.7807  -14.8139   24.8104 C   0  0  0  0  0  0  0  0  0  0  0  0
    8.9405  -15.3341   24.9394 O   0  0  0  0  0  0  0  0  0  0  0  0
    7.4494  -13.7077   25.6167 N   0  0  0  0  0  0  0  0  0  0  0  0
    6.2518  -12.8977   25.5946 C   0  0  0  0  0  0  0  0  0  0  0  0
    6.0994  -12.6032   27.0905 C   0  0  0  0  0  0  0  0  0  0  0  0
    7.5263  -12.1373   27.3923 C   0  0  0  0  0  0  0  0  0  0  0  0
    8.3398  -13.1884   26.6757 C   0  0  1  0  0  0  0  0  0  0  0  0
    8.6307  -14.2997   27.6305 C   0  0  0  0  0  0  0  0  0  0  0  0
    9.6689  -14.1998   28.5361 O   0  0  0  0  0  0  0  0  0  0  0  0
    7.9406  -15.3482   27.6330 O   0  0  0  0  0  0  0  0  0  0  0  0
  2  5  1  0
  2  1  1  6
  3  2  1  0
  4  3  1  0
  5  6  2  0
  7  8  1  0
  9  8  1  1
 10  9  1  0
 10  5  1  0
 11 12  2  0
 11  9  1  0
 13 11  1  0
 14 13  1  0
 15 14  1  0
 16 15  1  0
 16 17  1  0
 17 18  1  1
 17 13  1  0
 18 19  1  0
 20 18  2  0
M  END
$$$$
