CSP.pdb
     RDKit          3D

 20 20  0  0  1  0  0  0  0  0999 V2000
    7.6498  -16.9455   19.2132 N   0  0  0  0  0  0  0  0  0  0  0  0
    8.0984  -15.7807   19.9517 C   0  0  1  0  0  0  0  0  0  0  0  0
    7.9737  -14.5938   19.0187 C   0  0  0  0  0  0  0  0  0  0  0  0
    8.5629  -13.1370   19.9443 S   0  0  0  0  0  0  0  0  0  0  0  0
    7.2662  -15.5874   21.1675 C   0  0  0  0  0  0  0  0  0  0  0  0
    6.0343  -15.7883   21.0860 O   0  0  0  0  0  0  0  0  0  0  0  0
    7.5727  -17.0613   24.4734 O   0  0  0  0  0  0  0  0  0  0  0  0
    6.4531  -16.4184   23.9050 C   0  0  0  0  0  0  0  0  0  0  0  0
    6.9576  -14.9875   23.6171 C   0  0  2  0  0  0  0  0  0  0  0  0
    7.7841  -15.1900   22.4101 N   0  0  0  0  0  0  0  0  0  0  0  0
    7.7721  -14.5419   24.7445 C   0  0  0  0  0  0  0  0  0  0  0  0
    8.8881  -15.1415   24.9097 O   0  0  0  0  0  0  0  0  0  0  0  0
    7.4231  -13.5165   25.6446 N   0  0  0  0  0  0  0  0  0  0  0  0
    6.2489  -12.6726   25.6444 C   0  0  0  0  0  0  0  0  0  0  0  0
    6.0195  -12.5317   27.1528 C   0  0  0  0  0  0  0  0  0  0  0  0
    7.4381  -12.1435   27.5784 C   0  0  0  0  0  0  0  0  0  0  0  0
    8.2647  -13.1381   26.7989 C   0  0  1  0  0  0  0  0  0  0  0  0
    8.4738  -14.3515   27.6447 C   0  0  0  0  0  0  0  0  0  0  0  0
    9.5022  -14.4025   28.5654 O   0  0  0  0  0  0  0  0  0  0  0  0
    7.7221  -15.3512   27.5394 O   0  0  0  0  0  0  0  0  0  0  0  0
  2  5  1  0
  2  1  1  6
  3  2  1  0
  4  3  1  0
  5  6  2  0
  7  8  1  0
  9  8  1  1
 10  9  1  0
 10  5  1  0
 11 12  2  0
 11  9  1  0
 13 11  1  0
 14 13  1  0
 15 14  1  0
 16 15  1  0
 16 17  1  0
 17 18  1  1
 17 13  1  0
 18 19  1  0
 20 18  2  0
M  END
$$$$
