CSP.pdb
     RDKit          3D

 20 20  0  0  1  0  0  0  0  0999 V2000
    8.1731  -16.2912   18.9478 N   0  0  0  0  0  0  0  0  0  0  0  0
    8.4390  -15.1279   19.7722 C   0  0  1  0  0  0  0  0  0  0  0  0
    8.2379  -13.9108   18.8932 C   0  0  0  0  0  0  0  0  0  0  0  0
    8.6241  -12.4542   19.9205 S   0  0  0  0  0  0  0  0  0  0  0  0
    7.5163  -15.0977   20.9366 C   0  0  0  0  0  0  0  0  0  0  0  0
    6.2993  -15.3090   20.7397 O   0  0  0  0  0  0  0  0  0  0  0  0
    7.6778  -16.9032   24.0414 O   0  0  0  0  0  0  0  0  0  0  0  0
    6.5425  -16.2326   23.5403 C   0  0  0  0  0  0  0  0  0  0  0  0
    7.0109  -14.7673   23.4046 C   0  0  2  0  0  0  0  0  0  0  0  0
    7.9322  -14.8445   22.2530 N   0  0  0  0  0  0  0  0  0  0  0  0
    7.7212  -14.3875   24.6229 C   0  0  0  0  0  0  0  0  0  0  0  0
    8.8541  -14.9457   24.8161 O   0  0  0  0  0  0  0  0  0  0  0  0
    7.2567  -13.4658   25.5811 N   0  0  0  0  0  0  0  0  0  0  0  0
    5.9646  -12.8224   25.6663 C   0  0  0  0  0  0  0  0  0  0  0  0
    5.7875  -12.7764   27.1876 C   0  0  0  0  0  0  0  0  0  0  0  0
    7.1449  -12.1812   27.5716 C   0  0  0  0  0  0  0  0  0  0  0  0
    8.0812  -13.0003   26.7157 C   0  0  1  0  0  0  0  0  0  0  0  0
    8.5204  -14.1948   27.4976 C   0  0  0  0  0  0  0  0  0  0  0  0
    7.8816  -15.4105   27.3494 O   0  0  0  0  0  0  0  0  0  0  0  0
    9.4780  -14.1229   28.3059 O   0  0  0  0  0  0  0  0  0  0  0  0
  2  5  1  0
  2  1  1  6
  3  2  1  0
  4  3  1  0
  5  6  2  0
  7  8  1  0
  9  8  1  1
 10  9  1  0
 10  5  1  0
 11 12  2  0
 11  9  1  0
 13 11  1  0
 14 13  1  0
 15 14  1  0
 16 15  1  0
 16 17  1  0
 17 18  1  1
 17 13  1  0
 18 19  1  0
 20 18  2  0
M  END
$$$$
