CSP.pdb
     RDKit          3D

 20 20  0  0  1  0  0  0  0  0999 V2000
    7.6344  -16.5066   19.1452 N   0  0  0  0  0  0  0  0  0  0  0  0
    8.0805  -15.3947   19.9625 C   0  0  1  0  0  0  0  0  0  0  0  0
    7.8814  -14.1376   19.1410 C   0  0  0  0  0  0  0  0  0  0  0  0
    8.4245  -12.7417   20.1815 S   0  0  0  0  0  0  0  0  0  0  0  0
    7.2964  -15.3325   21.2231 C   0  0  0  0  0  0  0  0  0  0  0  0
    6.0771  -15.6090   21.1822 O   0  0  0  0  0  0  0  0  0  0  0  0
    7.9639  -17.0303   24.0491 O   0  0  0  0  0  0  0  0  0  0  0  0
    6.7092  -16.3924   23.9572 C   0  0  0  0  0  0  0  0  0  0  0  0
    7.0672  -14.9093   23.7180 C   0  0  2  0  0  0  0  0  0  0  0  0
    7.8463  -14.9795   22.4653 N   0  0  0  0  0  0  0  0  0  0  0  0
    7.8944  -14.4419   24.8272 C   0  0  0  0  0  0  0  0  0  0  0  0
    9.0522  -14.9714   24.9334 O   0  0  0  0  0  0  0  0  0  0  0  0
    7.5152  -13.4661   25.7693 N   0  0  0  0  0  0  0  0  0  0  0  0
    6.2862  -12.7079   25.8426 C   0  0  0  0  0  0  0  0  0  0  0  0
    6.1150  -12.6205   27.3627 C   0  0  0  0  0  0  0  0  0  0  0  0
    7.5207  -12.1432   27.7377 C   0  0  0  0  0  0  0  0  0  0  0  0
    8.3790  -13.0574   26.8965 C   0  0  1  0  0  0  0  0  0  0  0  0
    8.7098  -14.2732   27.6988 C   0  0  0  0  0  0  0  0  0  0  0  0
    7.9693  -15.4315   27.5648 O   0  0  0  0  0  0  0  0  0  0  0  0
    9.6660  -14.2716   28.5120 O   0  0  0  0  0  0  0  0  0  0  0  0
  2  5  1  0
  2  1  1  6
  3  2  1  0
  4  3  1  0
  5  6  2  0
  7  8  1  0
  9  8  1  1
 10  9  1  0
 10  5  1  0
 11 12  2  0
 11  9  1  0
 13 11  1  0
 14 13  1  0
 15 14  1  0
 16 15  1  0
 16 17  1  0
 17 18  1  1
 17 13  1  0
 18 19  1  0
 20 18  2  0
M  END
$$$$
