CSP.pdb
     RDKit          3D

 20 20  0  0  1  0  0  0  0  0999 V2000
    7.7941  -17.4388   19.5139 N   0  0  0  0  0  0  0  0  0  0  0  0
    8.6483  -17.0778   20.6291 C   0  0  1  0  0  0  0  0  0  0  0  0
    9.7651  -16.2217   20.0683 C   0  0  0  0  0  0  0  0  0  0  0  0
   10.8991  -15.8692   21.4525 S   0  0  0  0  0  0  0  0  0  0  0  0
    7.8730  -16.3312   21.6536 C   0  0  0  0  0  0  0  0  0  0  0  0
    7.0777  -15.4445   21.2716 O   0  0  0  0  0  0  0  0  0  0  0  0
    7.6026  -17.8095   25.2187 O   0  0  0  0  0  0  0  0  0  0  0  0
    6.5212  -16.9953   24.8219 C   0  0  0  0  0  0  0  0  0  0  0  0
    7.1949  -15.8384   24.0521 C   0  0  2  0  0  0  0  0  0  0  0  0
    7.9809  -16.5635   23.0336 N   0  0  0  0  0  0  0  0  0  0  0  0
    8.0667  -15.1097   24.9698 C   0  0  0  0  0  0  0  0  0  0  0  0
    9.2291  -15.6043   25.1605 O   0  0  0  0  0  0  0  0  0  0  0  0
    7.7251  -13.9221   25.6453 N   0  0  0  0  0  0  0  0  0  0  0  0
    6.5019  -13.1550   25.5655 C   0  0  0  0  0  0  0  0  0  0  0  0
    6.3864  -12.6823   27.0184 C   0  0  0  0  0  0  0  0  0  0  0  0
    7.8063  -12.1427   27.2111 C   0  0  0  0  0  0  0  0  0  0  0  0
    8.6306  -13.2510   26.6010 C   0  0  1  0  0  0  0  0  0  0  0  0
    8.9865  -14.2271   27.6743 C   0  0  0  0  0  0  0  0  0  0  0  0
   10.0358  -13.9772   28.5372 O   0  0  0  0  0  0  0  0  0  0  0  0
    8.3426  -15.2949   27.8175 O   0  0  0  0  0  0  0  0  0  0  0  0
  2  5  1  0
  2  1  1  6
  3  2  1  0
  4  3  1  0
  5  6  2  0
  7  8  1  0
  9  8  1  1
 10  9  1  0
 10  5  1  0
 11 12  2  0
 11  9  1  0
 13 11  1  0
 14 13  1  0
 15 14  1  0
 16 15  1  0
 16 17  1  0
 17 18  1  1
 17 13  1  0
 18 19  1  0
 20 18  2  0
M  END
$$$$
