WGW.pdb
     RDKit          3D

 33 36  0  0  1  0  0  0  0  0999 V2000
   25.4291  -18.0635  -17.2481 N   0  0  0  0  0  0  0  0  0  0  0  0
   26.0548  -19.2303  -17.7753 C   0  0  1  0  0  0  0  0  0  0  0  0
   26.9927  -19.0205  -18.9136 C   0  0  0  0  0  0  0  0  0  0  0  0
   26.4022  -18.4576  -20.1354 C   0  0  0  0  0  0  0  0  0  0  0  0
   26.5170  -17.1610  -20.6157 C   0  0  0  0  0  0  0  0  0  0  0  0
   25.8236  -17.0189  -21.7502 N   0  0  0  0  0  0  0  0  0  0  0  0
   25.2572  -18.2228  -22.0093 C   0  0  0  0  0  0  0  0  0  0  0  0
   24.4371  -18.6059  -23.0798 C   0  0  0  0  0  0  0  0  0  0  0  0
   23.9699  -19.9002  -23.1496 C   0  0  0  0  0  0  0  0  0  0  0  0
   24.3170  -20.8152  -22.1570 C   0  0  0  0  0  0  0  0  0  0  0  0
   25.1234  -20.4357  -21.1061 C   0  0  0  0  0  0  0  0  0  0  0  0
   25.5981  -19.1267  -21.0300 C   0  0  0  0  0  0  0  0  0  0  0  0
   26.6309  -20.0241  -16.6610 C   0  0  0  0  0  0  0  0  0  0  0  0
   27.6534  -19.6249  -16.0936 O   0  0  0  0  0  0  0  0  0  0  0  0
   26.0091  -21.2328  -16.2518 N   0  0  0  0  0  0  0  0  0  0  0  0
   26.8790  -22.3584  -15.9205 C   0  0  0  0  0  0  0  0  0  0  0  0
   26.3191  -23.0267  -14.7435 C   0  0  0  0  0  0  0  0  0  0  0  0
   26.7773  -24.1368  -14.3002 O   0  0  0  0  0  0  0  0  0  0  0  0
   25.2280  -22.4861  -14.0146 N   0  0  0  0  0  0  0  0  0  0  0  0
   24.6362  -23.1716  -12.8621 C   0  0  1  0  0  0  0  0  0  0  0  0
   25.4770  -23.0186  -11.6561 C   0  0  0  0  0  0  0  0  0  0  0  0
   25.9353  -21.6364  -11.4513 C   0  0  0  0  0  0  0  0  0  0  0  0
   25.1568  -20.5676  -10.9652 C   0  0  0  0  0  0  0  0  0  0  0  0
   25.8897  -19.4516  -10.9581 N   0  0  0  0  0  0  0  0  0  0  0  0
   27.1495  -19.7025  -11.4194 C   0  0  0  0  0  0  0  0  0  0  0  0
   28.2574  -18.9004  -11.5803 C   0  0  0  0  0  0  0  0  0  0  0  0
   29.4286  -19.4265  -12.0485 C   0  0  0  0  0  0  0  0  0  0  0  0
   29.4855  -20.7637  -12.3560 C   0  0  0  0  0  0  0  0  0  0  0  0
   28.3699  -21.5492  -12.1904 C   0  0  0  0  0  0  0  0  0  0  0  0
   27.1555  -21.0488  -11.7158 C   0  0  0  0  0  0  0  0  0  0  0  0
   23.2715  -22.6958  -12.6968 C   0  0  0  0  0  0  0  0  0  0  0  0
   22.3995  -23.1438  -11.9141 O   0  0  0  0  0  0  0  0  0  0  0  0
   22.8358  -21.6103  -13.4845 O   0  0  0  0  0  0  0  0  0  0  0  0
  2  1  1  1
  2 13  1  0
  3  4  1  0
  3  2  1  0
  4  5  2  0
  6  5  1  0
  7  6  1  0
  8  7  2  0
  9  8  1  0
 10  9  2  0
 10 11  1  0
 11 12  2  0
 12  7  1  0
 12  4  1  0
 13 15  1  0
 14 13  2  0
 15 16  1  0
 17 18  2  0
 17 16  1  0
 19 17  1  0
 20 21  1  1
 20 19  1  0
 22 21  1  0
 23 22  2  0
 24 23  1  0
 25 24  1  0
 25 30  2  0
 26 25  1  0
 27 26  2  0
 27 28  1  0
 28 29  2  0
 29 30  1  0
 30 22  1  0
 31 20  1  0
 31 33  1  0
 32 31  2  0
M  END
$$$$
