WGW.pdb
     RDKit          3D

 33 36  0  0  1  0  0  0  0  0999 V2000
   26.6770  -19.5438  -10.8270 N   0  0  0  0  0  0  0  0  0  0  0  0
   27.2525  -20.7497  -10.3315 C   0  0  1  0  0  0  0  0  0  0  0  0
   26.7734  -21.2123   -8.9989 C   0  0  0  0  0  0  0  0  0  0  0  0
   26.9900  -20.2831   -7.8818 C   0  0  0  0  0  0  0  0  0  0  0  0
   26.3365  -19.0845   -7.6341 C   0  0  0  0  0  0  0  0  0  0  0  0
   26.8195  -18.5077   -6.5285 N   0  0  0  0  0  0  0  0  0  0  0  0
   27.7874  -19.3305   -6.0558 C   0  0  0  0  0  0  0  0  0  0  0  0
   28.5973  -19.1876   -4.9205 C   0  0  0  0  0  0  0  0  0  0  0  0
   29.5258  -20.1603   -4.6204 C   0  0  0  0  0  0  0  0  0  0  0  0
   29.6504  -21.2759   -5.4468 C   0  0  0  0  0  0  0  0  0  0  0  0
   28.8528  -21.4136   -6.5618 C   0  0  0  0  0  0  0  0  0  0  0  0
   27.9122  -20.4316   -6.8708 C   0  0  0  0  0  0  0  0  0  0  0  0
   27.1917  -21.7921  -11.3866 C   0  0  0  0  0  0  0  0  0  0  0  0
   26.3522  -22.6950  -11.3034 O   0  0  0  0  0  0  0  0  0  0  0  0
   28.0924  -21.7493  -12.4830 N   0  0  0  0  0  0  0  0  0  0  0  0
   27.6675  -21.0197  -13.6748 C   0  0  0  0  0  0  0  0  0  0  0  0
   26.4740  -21.6829  -14.2050 C   0  0  0  0  0  0  0  0  0  0  0  0
   26.5067  -22.4293  -15.2445 O   0  0  0  0  0  0  0  0  0  0  0  0
   25.1983  -21.5412  -13.5995 N   0  0  0  0  0  0  0  0  0  0  0  0
   24.0029  -22.2114  -14.1194 C   0  0  1  0  0  0  0  0  0  0  0  0
   22.9501  -22.3093  -13.0866 C   0  0  0  0  0  0  0  0  0  0  0  0
   22.5341  -20.9973  -12.5690 C   0  0  0  0  0  0  0  0  0  0  0  0
   23.0694  -19.7495  -12.9448 C   0  0  0  0  0  0  0  0  0  0  0  0
   22.4833  -18.7828  -12.2343 N   0  0  0  0  0  0  0  0  0  0  0  0
   21.5593  -19.3095  -11.3789 C   0  0  0  0  0  0  0  0  0  0  0  0
   20.6977  -18.7336  -10.4720 C   0  0  0  0  0  0  0  0  0  0  0  0
   19.8386  -19.5104   -9.7464 C   0  0  0  0  0  0  0  0  0  0  0  0
   19.8466  -20.8708   -9.9337 C   0  0  0  0  0  0  0  0  0  0  0  0
   20.7139  -21.4287  -10.8421 C   0  0  0  0  0  0  0  0  0  0  0  0
   21.6068  -20.6692  -11.6012 C   0  0  0  0  0  0  0  0  0  0  0  0
   23.5823  -21.5241  -15.3305 C   0  0  0  0  0  0  0  0  0  0  0  0
   22.7264  -21.9071  -16.1639 O   0  0  0  0  0  0  0  0  0  0  0  0
   24.1766  -20.2843  -15.6433 O   0  0  0  0  0  0  0  0  0  0  0  0
  2  1  1  6
  2 13  1  0
  3  4  1  0
  3  2  1  0
  4  5  2  0
  6  5  1  0
  7  6  1  0
  8  7  2  0
  9  8  1  0
 10  9  2  0
 10 11  1  0
 11 12  2  0
 12  7  1  0
 12  4  1  0
 13 15  1  0
 14 13  2  0
 15 16  1  0
 17 18  2  0
 17 16  1  0
 19 17  1  0
 20 21  1  1
 20 19  1  0
 22 21  1  0
 23 22  2  0
 24 23  1  0
 25 24  1  0
 25 30  2  0
 26 25  1  0
 27 26  2  0
 27 28  1  0
 28 29  2  0
 29 30  1  0
 30 22  1  0
 31 20  1  0
 31 33  1  0
 32 31  2  0
M  END
$$$$
