WGW.pdb
     RDKit          3D

 33 36  0  0  1  0  0  0  0  0999 V2000
   25.7932  -22.0668  -11.5061 N   0  0  0  0  0  0  0  0  0  0  0  0
   25.4414  -20.8670  -10.8223 C   0  0  1  0  0  0  0  0  0  0  0  0
   26.5219  -19.8534  -10.6664 C   0  0  0  0  0  0  0  0  0  0  0  0
   27.6911  -20.2779   -9.8846 C   0  0  0  0  0  0  0  0  0  0  0  0
   28.8820  -20.8104  -10.3571 C   0  0  0  0  0  0  0  0  0  0  0  0
   29.7046  -21.0920   -9.3412 N   0  0  0  0  0  0  0  0  0  0  0  0
   29.0499  -20.7428   -8.2068 C   0  0  0  0  0  0  0  0  0  0  0  0
   29.4746  -20.8319   -6.8737 C   0  0  0  0  0  0  0  0  0  0  0  0
   28.6383  -20.4091   -5.8636 C   0  0  0  0  0  0  0  0  0  0  0  0
   27.3800  -19.8973   -6.1763 C   0  0  0  0  0  0  0  0  0  0  0  0
   26.9655  -19.8110   -7.4875 C   0  0  0  0  0  0  0  0  0  0  0  0
   27.8075  -20.2383   -8.5136 C   0  0  0  0  0  0  0  0  0  0  0  0
   24.1866  -20.3232  -11.3997 C   0  0  0  0  0  0  0  0  0  0  0  0
   23.7829  -19.2115  -11.0417 O   0  0  0  0  0  0  0  0  0  0  0  0
   23.4577  -21.0766  -12.3568 N   0  0  0  0  0  0  0  0  0  0  0  0
   22.2295  -20.4872  -12.8834 C   0  0  0  0  0  0  0  0  0  0  0  0
   22.4056  -20.2967  -14.3249 C   0  0  0  0  0  0  0  0  0  0  0  0
   21.5597  -19.6575  -15.0425 O   0  0  0  0  0  0  0  0  0  0  0  0
   23.5292  -20.8097  -15.0238 N   0  0  0  0  0  0  0  0  0  0  0  0
   23.7172  -20.6103  -16.4637 C   0  0  1  0  0  0  0  0  0  0  0  0
   25.1197  -20.2668  -16.7798 C   0  0  0  0  0  0  0  0  0  0  0  0
   25.6481  -19.1876  -15.9322 C   0  0  0  0  0  0  0  0  0  0  0  0
   26.2404  -19.3434  -14.6636 C   0  0  0  0  0  0  0  0  0  0  0  0
   26.5564  -18.1435  -14.1706 N   0  0  0  0  0  0  0  0  0  0  0  0
   26.2079  -17.1578  -15.0480 C   0  0  0  0  0  0  0  0  0  0  0  0
   26.3429  -15.7878  -15.0083 C   0  0  0  0  0  0  0  0  0  0  0  0
   25.9225  -15.0220  -16.0593 C   0  0  0  0  0  0  0  0  0  0  0  0
   25.3646  -15.6363  -17.1535 C   0  0  0  0  0  0  0  0  0  0  0  0
   25.2367  -17.0045  -17.1756 C   0  0  0  0  0  0  0  0  0  0  0  0
   25.6529  -17.8207  -16.1217 C   0  0  0  0  0  0  0  0  0  0  0  0
   23.2256  -21.7904  -17.1579 C   0  0  0  0  0  0  0  0  0  0  0  0
   23.1692  -21.9750  -18.3975 O   0  0  0  0  0  0  0  0  0  0  0  0
   22.7490  -22.8738  -16.3916 O   0  0  0  0  0  0  0  0  0  0  0  0
  2  1  1  6
  2 13  1  0
  3  4  1  0
  3  2  1  0
  4  5  2  0
  6  5  1  0
  7  6  1  0
  8  7  2  0
  9  8  1  0
 10  9  2  0
 10 11  1  0
 11 12  2  0
 12  7  1  0
 12  4  1  0
 13 15  1  0
 14 13  2  0
 15 16  1  0
 17 18  2  0
 17 16  1  0
 19 17  1  0
 20 21  1  1
 20 19  1  0
 22 21  1  0
 23 22  2  0
 24 23  1  0
 25 24  1  0
 25 30  2  0
 26 25  1  0
 27 26  2  0
 27 28  1  0
 28 29  2  0
 29 30  1  0
 30 22  1  0
 31 20  1  0
 31 33  1  0
 32 31  2  0
M  END
$$$$
