WGW.pdb
     RDKit          3D

 33 36  0  0  1  0  0  0  0  0999 V2000
   28.2137  -22.3523  -16.9749 N   0  0  0  0  0  0  0  0  0  0  0  0
   27.2695  -22.5046  -18.0314 C   0  0  1  0  0  0  0  0  0  0  0  0
   27.7172  -22.0745  -19.3856 C   0  0  0  0  0  0  0  0  0  0  0  0
   28.1792  -20.6843  -19.4964 C   0  0  0  0  0  0  0  0  0  0  0  0
   29.4543  -20.2345  -19.8078 C   0  0  0  0  0  0  0  0  0  0  0  0
   29.4949  -18.8979  -19.7968 N   0  0  0  0  0  0  0  0  0  0  0  0
   28.2464  -18.4768  -19.4786 C   0  0  0  0  0  0  0  0  0  0  0  0
   27.7589  -17.1697  -19.3404 C   0  0  0  0  0  0  0  0  0  0  0  0
   26.4361  -16.9682  -19.0118 C   0  0  0  0  0  0  0  0  0  0  0  0
   25.5963  -18.0642  -18.8206 C   0  0  0  0  0  0  0  0  0  0  0  0
   26.0784  -19.3477  -18.9573 C   0  0  0  0  0  0  0  0  0  0  0  0
   27.4166  -19.5574  -19.2887 C   0  0  0  0  0  0  0  0  0  0  0  0
   26.7075  -23.8781  -17.9929 C   0  0  0  0  0  0  0  0  0  0  0  0
   26.2806  -24.3911  -19.0329 O   0  0  0  0  0  0  0  0  0  0  0  0
   26.6624  -24.5952  -16.7686 N   0  0  0  0  0  0  0  0  0  0  0  0
   25.3482  -24.8397  -16.1801 C   0  0  0  0  0  0  0  0  0  0  0  0
   25.2267  -23.9973  -14.9881 C   0  0  0  0  0  0  0  0  0  0  0  0
   26.0448  -23.0465  -14.7318 O   0  0  0  0  0  0  0  0  0  0  0  0
   24.1909  -24.1800  -14.0353 N   0  0  0  0  0  0  0  0  0  0  0  0
   23.9691  -23.2467  -12.9270 C   0  0  1  0  0  0  0  0  0  0  0  0
   25.2483  -22.7367  -12.3901 C   0  0  0  0  0  0  0  0  0  0  0  0
   25.4934  -21.3294  -12.7390 C   0  0  0  0  0  0  0  0  0  0  0  0
   24.7236  -20.2253  -12.3232 C   0  0  0  0  0  0  0  0  0  0  0  0
   25.2126  -19.1109  -12.8725 N   0  0  0  0  0  0  0  0  0  0  0  0
   26.2945  -19.3964  -13.6540 C   0  0  0  0  0  0  0  0  0  0  0  0
   27.1387  -18.6029  -14.3985 C   0  0  0  0  0  0  0  0  0  0  0  0
   28.1847  -19.1578  -15.0810 C   0  0  0  0  0  0  0  0  0  0  0  0
   28.3820  -20.5152  -15.0143 C   0  0  0  0  0  0  0  0  0  0  0  0
   27.5291  -21.2920  -14.2674 C   0  0  0  0  0  0  0  0  0  0  0  0
   26.4492  -20.7629  -13.5573 C   0  0  0  0  0  0  0  0  0  0  0  0
   23.0597  -22.2055  -13.3796 C   0  0  0  0  0  0  0  0  0  0  0  0
   23.0858  -21.5970  -14.4763 O   0  0  0  0  0  0  0  0  0  0  0  0
   22.0155  -21.8026  -12.5218 O   0  0  0  0  0  0  0  0  0  0  0  0
  2  1  1  1
  2 13  1  0
  3  4  1  0
  3  2  1  0
  4  5  2  0
  6  5  1  0
  7  6  1  0
  8  7  2  0
  9  8  1  0
 10  9  2  0
 10 11  1  0
 11 12  2  0
 12  7  1  0
 12  4  1  0
 13 15  1  0
 14 13  2  0
 15 16  1  0
 17 18  2  0
 17 16  1  0
 19 17  1  0
 20 21  1  6
 20 19  1  0
 22 21  1  0
 23 22  2  0
 24 23  1  0
 25 24  1  0
 25 30  2  0
 26 25  1  0
 27 26  2  0
 27 28  1  0
 28 29  2  0
 29 30  1  0
 30 22  1  0
 31 20  1  0
 31 33  1  0
 32 31  2  0
M  END
$$$$
