WGW.pdb
     RDKit          3D

 33 36  0  0  1  0  0  0  0  0999 V2000
   25.2743  -18.2293  -14.4560 N   0  0  0  0  0  0  0  0  0  0  0  0
   26.4999  -17.7661  -15.0165 C   0  0  1  0  0  0  0  0  0  0  0  0
   26.7336  -16.2955  -14.9717 C   0  0  0  0  0  0  0  0  0  0  0  0
   25.5951  -15.4534  -15.3626 C   0  0  0  0  0  0  0  0  0  0  0  0
   24.8309  -14.6268  -14.5515 C   0  0  0  0  0  0  0  0  0  0  0  0
   23.8684  -14.0317  -15.2639 N   0  0  0  0  0  0  0  0  0  0  0  0
   24.0054  -14.4702  -16.5391 C   0  0  0  0  0  0  0  0  0  0  0  0
   23.2503  -14.1464  -17.6750 C   0  0  0  0  0  0  0  0  0  0  0  0
   23.5715  -14.7123  -18.8895 C   0  0  0  0  0  0  0  0  0  0  0  0
   24.6429  -15.5996  -18.9773 C   0  0  0  0  0  0  0  0  0  0  0  0
   25.3833  -15.9158  -17.8590 C   0  0  0  0  0  0  0  0  0  0  0  0
   25.0619  -15.3468  -16.6272 C   0  0  0  0  0  0  0  0  0  0  0  0
   27.6231  -18.5695  -14.4718 C   0  0  0  0  0  0  0  0  0  0  0  0
   28.7829  -18.2953  -14.7983 O   0  0  0  0  0  0  0  0  0  0  0  0
   27.3639  -19.6444  -13.5816 N   0  0  0  0  0  0  0  0  0  0  0  0
   28.4082  -19.9885  -12.6201 C   0  0  0  0  0  0  0  0  0  0  0  0
   27.8940  -21.0598  -11.7637 C   0  0  0  0  0  0  0  0  0  0  0  0
   27.9278  -22.2921  -12.1089 O   0  0  0  0  0  0  0  0  0  0  0  0
   27.3225  -20.8016  -10.4907 N   0  0  0  0  0  0  0  0  0  0  0  0
   26.0699  -21.4232  -10.0509 C   0  0  1  0  0  0  0  0  0  0  0  0
   25.9071  -21.3247   -8.5851 C   0  0  0  0  0  0  0  0  0  0  0  0
   26.7986  -20.3255   -7.9775 C   0  0  0  0  0  0  0  0  0  0  0  0
   26.9178  -18.9760   -8.3637 C   0  0  0  0  0  0  0  0  0  0  0  0
   27.8575  -18.3834   -7.6230 N   0  0  0  0  0  0  0  0  0  0  0  0
   28.3965  -19.2684   -6.7347 C   0  0  0  0  0  0  0  0  0  0  0  0
   29.3628  -19.1371   -5.7623 C   0  0  0  0  0  0  0  0  0  0  0  0
   29.7015  -20.2033   -4.9771 C   0  0  0  0  0  0  0  0  0  0  0  0
   29.0660  -21.4052   -5.1709 C   0  0  0  0  0  0  0  0  0  0  0  0
   28.1048  -21.5185   -6.1466 C   0  0  0  0  0  0  0  0  0  0  0  0
   27.7320  -20.4533   -6.9693 C   0  0  0  0  0  0  0  0  0  0  0  0
   24.9760  -20.8362  -10.8090 C   0  0  0  0  0  0  0  0  0  0  0  0
   25.0212  -19.8253  -11.5505 O   0  0  0  0  0  0  0  0  0  0  0  0
   23.7031  -21.4379  -10.7321 O   0  0  0  0  0  0  0  0  0  0  0  0
  2  1  1  1
  2 13  1  0
  3  4  1  0
  3  2  1  0
  4  5  2  0
  6  5  1  0
  7  6  1  0
  8  7  2  0
  9  8  1  0
 10  9  2  0
 10 11  1  0
 11 12  2  0
 12  7  1  0
 12  4  1  0
 13 15  1  0
 14 13  2  0
 15 16  1  0
 17 18  2  0
 17 16  1  0
 19 17  1  0
 20 21  1  1
 20 19  1  0
 22 21  1  0
 23 22  2  0
 24 23  1  0
 25 24  1  0
 25 30  2  0
 26 25  1  0
 27 26  2  0
 27 28  1  0
 28 29  2  0
 29 30  1  0
 30 22  1  0
 31 20  1  0
 31 33  1  0
 32 31  2  0
M  END
$$$$
