WGW.pdb
     RDKit          3D

 33 36  0  0  1  0  0  0  0  0999 V2000
   25.3633  -21.0082  -17.0305 N   0  0  0  0  0  0  0  0  0  0  0  0
   26.6991  -21.1547  -16.5559 C   0  0  1  0  0  0  0  0  0  0  0  0
   27.4861  -19.8997  -16.3980 C   0  0  0  0  0  0  0  0  0  0  0  0
   27.2128  -18.8436  -17.3819 C   0  0  0  0  0  0  0  0  0  0  0  0
   26.8916  -18.9938  -18.7233 C   0  0  0  0  0  0  0  0  0  0  0  0
   26.7308  -17.7995  -19.3029 N   0  0  0  0  0  0  0  0  0  0  0  0
   26.9469  -16.8711  -18.3392 C   0  0  0  0  0  0  0  0  0  0  0  0
   26.8971  -15.4728  -18.4267 C   0  0  0  0  0  0  0  0  0  0  0  0
   27.1493  -14.7116  -17.3062 C   0  0  0  0  0  0  0  0  0  0  0  0
   27.4506  -15.3381  -16.0981 C   0  0  0  0  0  0  0  0  0  0  0  0
   27.4987  -16.7127  -16.0152 C   0  0  0  0  0  0  0  0  0  0  0  0
   27.2453  -17.4878  -17.1463 C   0  0  0  0  0  0  0  0  0  0  0  0
   26.6989  -22.0193  -15.3492 C   0  0  0  0  0  0  0  0  0  0  0  0
   27.7565  -22.2176  -14.7416 O   0  0  0  0  0  0  0  0  0  0  0  0
   25.4908  -22.6125  -14.8981 N   0  0  0  0  0  0  0  0  0  0  0  0
   25.5923  -23.6571  -13.8823 C   0  0  0  0  0  0  0  0  0  0  0  0
   25.3096  -23.0466  -12.5813 C   0  0  0  0  0  0  0  0  0  0  0  0
   25.2296  -23.7320  -11.5029 O   0  0  0  0  0  0  0  0  0  0  0  0
   25.1050  -21.6505  -12.4296 N   0  0  0  0  0  0  0  0  0  0  0  0
   24.6273  -21.0578  -11.1769 C   0  0  1  0  0  0  0  0  0  0  0  0
   25.5246  -19.9767  -10.7178 C   0  0  0  0  0  0  0  0  0  0  0  0
   26.8056  -20.4793  -10.1995 C   0  0  0  0  0  0  0  0  0  0  0  0
   27.7455  -21.2479  -10.9140 C   0  0  0  0  0  0  0  0  0  0  0  0
   28.7638  -21.5638  -10.1102 N   0  0  0  0  0  0  0  0  0  0  0  0
   28.5696  -21.0436   -8.8634 C   0  0  0  0  0  0  0  0  0  0  0  0
   29.3288  -21.0745   -7.7148 C   0  0  0  0  0  0  0  0  0  0  0  0
   28.9007  -20.4326   -6.5867 C   0  0  0  0  0  0  0  0  0  0  0  0
   27.7052  -19.7574   -6.6143 C   0  0  0  0  0  0  0  0  0  0  0  0
   26.9599  -19.7378   -7.7689 C   0  0  0  0  0  0  0  0  0  0  0  0
   27.3627  -20.3820   -8.9408 C   0  0  0  0  0  0  0  0  0  0  0  0
   23.2461  -20.6417  -11.3642 C   0  0  0  0  0  0  0  0  0  0  0  0
   22.5774  -20.6802  -12.4249 O   0  0  0  0  0  0  0  0  0  0  0  0
   22.5395  -20.1311  -10.2558 O   0  0  0  0  0  0  0  0  0  0  0  0
  2  1  1  1
  2 13  1  0
  3  4  1  0
  3  2  1  0
  4  5  2  0
  6  5  1  0
  7  6  1  0
  8  7  2  0
  9  8  1  0
 10  9  2  0
 10 11  1  0
 11 12  2  0
 12  7  1  0
 12  4  1  0
 13 15  1  0
 14 13  2  0
 15 16  1  0
 17 18  2  0
 17 16  1  0
 19 17  1  0
 20 21  1  6
 20 19  1  0
 22 21  1  0
 23 22  2  0
 24 23  1  0
 25 24  1  0
 25 30  2  0
 26 25  1  0
 27 26  2  0
 27 28  1  0
 28 29  2  0
 29 30  1  0
 30 22  1  0
 31 20  1  0
 31 33  1  0
 32 31  2  0
M  END
$$$$
