WGW.pdb
     RDKit          3D

 33 36  0  0  1  0  0  0  0  0999 V2000
   24.7879  -20.0651  -11.1038 N   0  0  0  0  0  0  0  0  0  0  0  0
   26.2114  -20.1247  -11.1366 C   0  0  1  0  0  0  0  0  0  0  0  0
   26.8628  -20.9578  -10.0873 C   0  0  0  0  0  0  0  0  0  0  0  0
   26.5175  -20.6249   -8.6987 C   0  0  0  0  0  0  0  0  0  0  0  0
   25.2520  -20.4862   -8.1471 C   0  0  0  0  0  0  0  0  0  0  0  0
   25.3384  -20.1598   -6.8532 N   0  0  0  0  0  0  0  0  0  0  0  0
   26.6600  -20.0861   -6.5616 C   0  0  0  0  0  0  0  0  0  0  0  0
   27.2846  -19.7829   -5.3437 C   0  0  0  0  0  0  0  0  0  0  0  0
   28.6604  -19.7687   -5.2697 C   0  0  0  0  0  0  0  0  0  0  0  0
   29.4170  -20.0561   -6.4046 C   0  0  0  0  0  0  0  0  0  0  0  0
   28.8002  -20.3539   -7.6001 C   0  0  0  0  0  0  0  0  0  0  0  0
   27.4082  -20.3685   -7.6809 C   0  0  0  0  0  0  0  0  0  0  0  0
   26.6576  -20.4404  -12.5168 C   0  0  0  0  0  0  0  0  0  0  0  0
   25.8169  -20.5837  -13.4110 O   0  0  0  0  0  0  0  0  0  0  0  0
   28.0410  -20.5756  -12.8048 N   0  0  0  0  0  0  0  0  0  0  0  0
   28.5753  -19.7981  -13.9198 C   0  0  0  0  0  0  0  0  0  0  0  0
   28.3563  -20.5660  -15.1477 C   0  0  0  0  0  0  0  0  0  0  0  0
   28.8609  -20.2223  -16.2729 O   0  0  0  0  0  0  0  0  0  0  0  0
   27.5674  -21.7455  -15.1714 N   0  0  0  0  0  0  0  0  0  0  0  0
   27.1883  -22.4124  -16.4204 C   0  0  1  0  0  0  0  0  0  0  0  0
   26.6592  -21.4463  -17.4060 C   0  0  0  0  0  0  0  0  0  0  0  0
   25.5691  -20.6196  -16.8667 C   0  0  0  0  0  0  0  0  0  0  0  0
   25.6753  -19.2804  -16.4427 C   0  0  0  0  0  0  0  0  0  0  0  0
   24.4967  -18.8701  -15.9681 N   0  0  0  0  0  0  0  0  0  0  0  0
   23.5732  -19.8721  -16.0465 C   0  0  0  0  0  0  0  0  0  0  0  0
   22.2391  -19.9349  -15.7106 C   0  0  0  0  0  0  0  0  0  0  0  0
   21.5268  -21.0818  -15.9235 C   0  0  0  0  0  0  0  0  0  0  0  0
   22.1587  -22.1688  -16.4759 C   0  0  0  0  0  0  0  0  0  0  0  0
   23.4909  -22.0887  -16.8040 C   0  0  0  0  0  0  0  0  0  0  0  0
   24.2525  -20.9359  -16.6011 C   0  0  0  0  0  0  0  0  0  0  0  0
   28.3300  -23.1783  -16.8959 C   0  0  0  0  0  0  0  0  0  0  0  0
   28.5514  -23.5643  -18.0688 O   0  0  0  0  0  0  0  0  0  0  0  0
   29.3251  -23.5511  -15.9690 O   0  0  0  0  0  0  0  0  0  0  0  0
  2  1  1  6
  2 13  1  0
  3  4  1  0
  3  2  1  0
  4  5  2  0
  6  5  1  0
  7  6  1  0
  8  7  2  0
  9  8  1  0
 10  9  2  0
 10 11  1  0
 11 12  2  0
 12  7  1  0
 12  4  1  0
 13 15  1  0
 14 13  2  0
 15 16  1  0
 17 18  2  0
 17 16  1  0
 19 17  1  0
 20 21  1  6
 20 19  1  0
 22 21  1  0
 23 22  2  0
 24 23  1  0
 25 24  1  0
 25 30  2  0
 26 25  1  0
 27 26  2  0
 27 28  1  0
 28 29  2  0
 29 30  1  0
 30 22  1  0
 31 20  1  0
 31 33  1  0
 32 31  2  0
M  END
$$$$
