GVK.pdb
     RDKit          3D

 21 20  0  0  1  0  0  0  0  0999 V2000
    5.6512  -18.7412   18.6567 N   0  0  0  0  0  0  0  0  0  0  0  0
    5.5102  -17.7269   19.6681 C   0  0  0  0  0  0  0  0  0  0  0  0
    6.7715  -16.9598   19.8622 C   0  0  0  0  0  0  0  0  0  0  0  0
    7.8797  -17.3523   19.4421 O   0  0  0  0  0  0  0  0  0  0  0  0
    6.9268  -13.2521   19.4686 C   0  0  0  0  0  0  0  0  0  0  0  0
    7.4401  -13.5380   20.8936 C   0  0  2  0  0  0  0  0  0  0  0  0
    8.4659  -12.4817   21.1688 C   0  0  0  0  0  0  0  0  0  0  0  0
    7.9026  -14.9427   20.9056 C   0  0  2  0  0  0  0  0  0  0  0  0
    6.7056  -15.7418   20.5488 N   0  0  0  0  0  0  0  0  0  0  0  0
    8.5171  -15.4533   22.1222 C   0  0  0  0  0  0  0  0  0  0  0  0
    7.8519  -15.6035   23.2051 O   0  0  0  0  0  0  0  0  0  0  0  0
    9.8785  -15.8191   22.1953 N   0  0  0  0  0  0  0  0  0  0  0  0
   10.4507  -16.3275   23.5072 C   0  0  1  0  0  0  0  0  0  0  0  0
   10.3379  -17.7984   23.3784 C   0  0  0  0  0  0  0  0  0  0  0  0
   10.8246  -18.7548   24.3499 C   0  0  0  0  0  0  0  0  0  0  0  0
   10.6250  -20.2050   24.1359 C   0  0  0  0  0  0  0  0  0  0  0  0
   11.3191  -20.9741   25.2965 C   0  0  0  0  0  0  0  0  0  0  0  0
   10.9669  -22.3800   25.2437 N   0  0  0  0  0  0  0  0  0  0  0  0
   11.8190  -15.7770   23.4841 C   0  0  0  0  0  0  0  0  0  0  0  0
   12.4257  -15.4263   22.4487 O   0  0  0  0  0  0  0  0  0  0  0  0
   12.5516  -15.6052   24.6697 O   0  0  0  0  0  0  0  0  0  0  0  0
  1  2  1  0
  3  4  2  0
  3  2  1  0
  6  5  1  6
  6  8  1  0
  7  6  1  0
  8  9  1  1
  8 10  1  0
  9  3  1  0
 10 11  2  0
 12 10  1  0
 12 13  1  0
 13 14  1  6
 14 15  1  0
 15 16  1  0
 16 17  1  0
 17 18  1  0
 19 21  1  0
 19 13  1  0
 20 19  2  0
M  END
$$$$
