GVK.pdb
     RDKit          3D

 21 20  0  0  1  0  0  0  0  0999 V2000
    8.0683  -18.0864   17.0972 N   0  0  0  0  0  0  0  0  0  0  0  0
    7.2451  -17.4426   18.0868 C   0  0  0  0  0  0  0  0  0  0  0  0
    8.0581  -16.6649   19.0621 C   0  0  0  0  0  0  0  0  0  0  0  0
    9.2746  -16.8705   19.2529 O   0  0  0  0  0  0  0  0  0  0  0  0
    7.3150  -12.9626   19.5632 C   0  0  0  0  0  0  0  0  0  0  0  0
    7.3117  -13.6185   20.9580 C   0  0  2  0  0  0  0  0  0  0  0  0
    7.8220  -12.5677   21.8956 C   0  0  0  0  0  0  0  0  0  0  0  0
    8.1056  -14.8613   20.8458 C   0  0  2  0  0  0  0  0  0  0  0  0
    7.4232  -15.6569   19.7970 N   0  0  0  0  0  0  0  0  0  0  0  0
    8.3064  -15.6590   22.0465 C   0  0  0  0  0  0  0  0  0  0  0  0
    7.3397  -16.2648   22.6263 O   0  0  0  0  0  0  0  0  0  0  0  0
    9.5707  -15.8233   22.6523 N   0  0  0  0  0  0  0  0  0  0  0  0
    9.6988  -16.6703   23.9066 C   0  0  1  0  0  0  0  0  0  0  0  0
   10.7122  -17.6823   23.5297 C   0  0  0  0  0  0  0  0  0  0  0  0
   11.1350  -18.7835   24.3686 C   0  0  0  0  0  0  0  0  0  0  0  0
   12.0864  -19.7928   23.8538 C   0  0  0  0  0  0  0  0  0  0  0  0
   12.4372  -20.7733   25.0096 C   0  0  0  0  0  0  0  0  0  0  0  0
   13.2616  -21.8573   24.5108 N   0  0  0  0  0  0  0  0  0  0  0  0
   10.1174  -15.6759   24.9123 C   0  0  0  0  0  0  0  0  0  0  0  0
   10.0402  -15.8414   26.1493 O   0  0  0  0  0  0  0  0  0  0  0  0
   10.6501  -14.4351   24.5273 O   0  0  0  0  0  0  0  0  0  0  0  0
  1  2  1  0
  3  4  2  0
  3  2  1  0
  6  5  1  6
  6  8  1  0
  7  6  1  0
  8  9  1  6
  8 10  1  0
  9  3  1  0
 10 11  2  0
 12 10  1  0
 12 13  1  0
 13 14  1  6
 14 15  1  0
 15 16  1  0
 16 17  1  0
 17 18  1  0
 19 21  1  0
 19 13  1  0
 20 19  2  0
M  END
$$$$
