GVK.pdb
     RDKit          3D

 21 20  0  0  1  0  0  0  0  0999 V2000
    7.3815  -18.0228   16.8589 N   0  0  0  0  0  0  0  0  0  0  0  0
    6.7904  -17.3672   17.9957 C   0  0  0  0  0  0  0  0  0  0  0  0
    7.7852  -16.5471   18.7407 C   0  0  0  0  0  0  0  0  0  0  0  0
    9.0189  -16.6862   18.6092 O   0  0  0  0  0  0  0  0  0  0  0  0
    7.2569  -12.8544   19.4789 C   0  0  0  0  0  0  0  0  0  0  0  0
    7.4530  -13.5645   20.8328 C   0  0  2  0  0  0  0  0  0  0  0  0
    8.1307  -12.5623   21.7159 C   0  0  0  0  0  0  0  0  0  0  0  0
    8.1862  -14.8182   20.5537 C   0  0  2  0  0  0  0  0  0  0  0  0
    7.3089  -15.5759   19.6290 N   0  0  0  0  0  0  0  0  0  0  0  0
    8.5821  -15.6483   21.6818 C   0  0  0  0  0  0  0  0  0  0  0  0
    7.7225  -16.2526   22.4123 O   0  0  0  0  0  0  0  0  0  0  0  0
    9.9307  -15.8477   22.0478 N   0  0  0  0  0  0  0  0  0  0  0  0
   10.2643  -16.7377   23.2325 C   0  0  1  0  0  0  0  0  0  0  0  0
   10.6938  -18.0034   22.5948 C   0  0  0  0  0  0  0  0  0  0  0  0
   10.3482  -19.3275   23.0664 C   0  0  0  0  0  0  0  0  0  0  0  0
   10.8185  -20.5266   22.3385 C   0  0  0  0  0  0  0  0  0  0  0  0
   10.1999  -21.7853   23.0116 C   0  0  0  0  0  0  0  0  0  0  0  0
   10.6489  -22.9854   22.3321 N   0  0  0  0  0  0  0  0  0  0  0  0
   11.3186  -15.9647   23.9156 C   0  0  0  0  0  0  0  0  0  0  0  0
   12.0237  -15.0888   23.3688 O   0  0  0  0  0  0  0  0  0  0  0  0
   11.6048  -16.1722   25.2745 O   0  0  0  0  0  0  0  0  0  0  0  0
  1  2  1  0
  3  4  2  0
  3  2  1  0
  6  5  1  6
  6  8  1  0
  7  6  1  0
  8  9  1  6
  8 10  1  0
  9  3  1  0
 10 11  2  0
 12 10  1  0
 12 13  1  0
 13 14  1  6
 14 15  1  0
 15 16  1  0
 16 17  1  0
 17 18  1  0
 19 21  1  0
 19 13  1  0
 20 19  2  0
M  END
$$$$
