GVK.pdb
     RDKit          3D

 21 20  0  0  1  0  0  0  0  0999 V2000
   10.9821  -17.8018   18.0053 N   0  0  0  0  0  0  0  0  0  0  0  0
    9.6620  -17.5163   18.5027 C   0  0  0  0  0  0  0  0  0  0  0  0
    9.6909  -16.5200   19.6088 C   0  0  0  0  0  0  0  0  0  0  0  0
   10.7122  -16.2834   20.2868 O   0  0  0  0  0  0  0  0  0  0  0  0
    7.8620  -13.2157   19.3142 C   0  0  0  0  0  0  0  0  0  0  0  0
    7.3459  -13.9038   20.5933 C   0  0  2  0  0  0  0  0  0  0  0  0
    7.0121  -12.7915   21.5393 C   0  0  0  0  0  0  0  0  0  0  0  0
    8.3960  -14.8546   21.0183 C   0  0  2  0  0  0  0  0  0  0  0  0
    8.5146  -15.8185   19.8977 N   0  0  0  0  0  0  0  0  0  0  0  0
    8.2180  -15.5551   22.2817 C   0  0  0  0  0  0  0  0  0  0  0  0
    7.5895  -16.6674   22.3563 O   0  0  0  0  0  0  0  0  0  0  0  0
    8.7230  -15.0647   23.5052 N   0  0  0  0  0  0  0  0  0  0  0  0
    8.4753  -15.8423   24.7862 C   0  0  1  0  0  0  0  0  0  0  0  0
    9.2990  -15.1220   25.7841 C   0  0  0  0  0  0  0  0  0  0  0  0
    9.4307  -15.4976   27.1757 C   0  0  0  0  0  0  0  0  0  0  0  0
   10.1762  -14.6322   28.1162 C   0  0  0  0  0  0  0  0  0  0  0  0
   10.0814  -15.2548   29.5387 C   0  0  0  0  0  0  0  0  0  0  0  0
   10.8156  -14.4412   30.4888 N   0  0  0  0  0  0  0  0  0  0  0  0
    7.0135  -15.7241   24.9444 C   0  0  0  0  0  0  0  0  0  0  0  0
    6.2829  -16.5957   25.4638 O   0  0  0  0  0  0  0  0  0  0  0  0
    6.3268  -14.5807   24.5056 O   0  0  0  0  0  0  0  0  0  0  0  0
  1  2  1  0
  3  4  2  0
  3  2  1  0
  6  5  1  6
  6  8  1  0
  7  6  1  0
  8  9  1  6
  8 10  1  0
  9  3  1  0
 10 11  2  0
 12 10  1  0
 12 13  1  0
 13 14  1  1
 14 15  1  0
 15 16  1  0
 16 17  1  0
 17 18  1  0
 19 21  1  0
 19 13  1  0
 20 19  2  0
M  END
$$$$
