GVK.pdb
     RDKit          3D

 21 20  0  0  1  0  0  0  0  0999 V2000
   11.4572  -17.2798   17.8341 N   0  0  0  0  0  0  0  0  0  0  0  0
   10.1887  -17.3519   18.5102 C   0  0  0  0  0  0  0  0  0  0  0  0
   10.0575  -16.2985   19.5545 C   0  0  0  0  0  0  0  0  0  0  0  0
   11.0229  -15.8819   20.2276 O   0  0  0  0  0  0  0  0  0  0  0  0
    7.8699  -13.2097   19.1823 C   0  0  0  0  0  0  0  0  0  0  0  0
    7.3649  -13.9930   20.4100 C   0  0  2  0  0  0  0  0  0  0  0  0
    6.8214  -12.9596   21.3483 C   0  0  0  0  0  0  0  0  0  0  0  0
    8.5015  -14.8069   20.8927 C   0  0  2  0  0  0  0  0  0  0  0  0
    8.7897  -15.7533   19.7880 N   0  0  0  0  0  0  0  0  0  0  0  0
    8.3503  -15.5192   22.1529 C   0  0  0  0  0  0  0  0  0  0  0  0
    7.8906  -16.7124   22.2052 O   0  0  0  0  0  0  0  0  0  0  0  0
    8.6986  -14.9523   23.3978 N   0  0  0  0  0  0  0  0  0  0  0  0
    8.5688  -15.7812   24.6639 C   0  0  1  0  0  0  0  0  0  0  0  0
    9.2631  -14.9578   25.6802 C   0  0  0  0  0  0  0  0  0  0  0  0
    9.4666  -15.3433   27.0605 C   0  0  0  0  0  0  0  0  0  0  0  0
   10.1938  -14.4482   27.9872 C   0  0  0  0  0  0  0  0  0  0  0  0
   10.2742  -15.1399   29.3784 C   0  0  0  0  0  0  0  0  0  0  0  0
   11.0035  -14.3016   30.3105 N   0  0  0  0  0  0  0  0  0  0  0  0
    7.1058  -15.8972   24.8115 C   0  0  0  0  0  0  0  0  0  0  0  0
    6.2847  -15.0253   24.4525 O   0  0  0  0  0  0  0  0  0  0  0  0
    6.5231  -17.0386   25.3853 O   0  0  0  0  0  0  0  0  0  0  0  0
  1  2  1  0
  3  4  2  0
  3  2  1  0
  6  5  1  6
  6  8  1  0
  7  6  1  0
  8  9  1  6
  8 10  1  0
  9  3  1  0
 10 11  2  0
 12 10  1  0
 12 13  1  0
 13 14  1  1
 14 15  1  0
 15 16  1  0
 16 17  1  0
 17 18  1  0
 19 21  1  0
 19 13  1  0
 20 19  2  0
M  END
$$$$
