GVK.pdb
     RDKit          3D

 21 20  0  0  1  0  0  0  0  0999 V2000
    6.6813  -18.1269   17.3856 N   0  0  0  0  0  0  0  0  0  0  0  0
    6.1977  -17.3926   18.5251 C   0  0  0  0  0  0  0  0  0  0  0  0
    7.2998  -16.6918   19.2402 C   0  0  0  0  0  0  0  0  0  0  0  0
    8.5008  -17.0117   19.1225 O   0  0  0  0  0  0  0  0  0  0  0  0
    7.2119  -12.9051   19.7489 C   0  0  0  0  0  0  0  0  0  0  0  0
    7.3679  -13.5630   21.1340 C   0  0  2  0  0  0  0  0  0  0  0  0
    8.1650  -12.5926   21.9505 C   0  0  0  0  0  0  0  0  0  0  0  0
    7.9634  -14.8976   20.9067 C   0  0  2  0  0  0  0  0  0  0  0  0
    6.9677  -15.6246   20.0829 N   0  0  0  0  0  0  0  0  0  0  0  0
    8.3434  -15.6873   22.0688 C   0  0  0  0  0  0  0  0  0  0  0  0
    7.4732  -16.1686   22.8742 O   0  0  0  0  0  0  0  0  0  0  0  0
    9.6870  -15.9794   22.3880 N   0  0  0  0  0  0  0  0  0  0  0  0
   10.0017  -16.8398   23.5995 C   0  0  1  0  0  0  0  0  0  0  0  0
   10.5675  -18.0712   23.0024 C   0  0  0  0  0  0  0  0  0  0  0  0
   11.1649  -19.1561   23.7515 C   0  0  0  0  0  0  0  0  0  0  0  0
   11.8473  -20.2639   23.0472 C   0  0  0  0  0  0  0  0  0  0  0  0
   12.4009  -21.2560   24.1100 C   0  0  0  0  0  0  0  0  0  0  0  0
   13.1303  -22.3276   23.4593 N   0  0  0  0  0  0  0  0  0  0  0  0
   10.9453  -15.9891   24.3489 C   0  0  0  0  0  0  0  0  0  0  0  0
   11.6025  -15.0489   23.8515 O   0  0  0  0  0  0  0  0  0  0  0  0
   11.1708  -16.1900   25.7202 O   0  0  0  0  0  0  0  0  0  0  0  0
  1  2  1  0
  3  4  2  0
  3  2  1  0
  6  5  1  6
  6  8  1  0
  7  6  1  0
  8  9  1  1
  8 10  1  0
  9  3  1  0
 10 11  2  0
 12 10  1  0
 12 13  1  0
 13 14  1  6
 14 15  1  0
 15 16  1  0
 16 17  1  0
 17 18  1  0
 19 21  1  0
 19 13  1  0
 20 19  2  0
M  END
$$$$
