GVK.pdb
     RDKit          3D

 21 20  0  0  1  0  0  0  0  0999 V2000
    6.8322  -14.5006   20.4674 N   0  0  0  0  0  0  0  0  0  0  0  0
    6.2166  -14.5710   21.7665 C   0  0  0  0  0  0  0  0  0  0  0  0
    7.2018  -14.3401   22.8589 C   0  0  0  0  0  0  0  0  0  0  0  0
    8.4329  -14.2716   22.6635 O   0  0  0  0  0  0  0  0  0  0  0  0
    6.6108  -11.7823   25.4273 C   0  0  0  0  0  0  0  0  0  0  0  0
    6.8493  -13.0781   26.2271 C   0  0  2  0  0  0  0  0  0  0  0  0
    7.5270  -12.6487   27.4920 C   0  0  0  0  0  0  0  0  0  0  0  0
    7.5998  -13.9936   25.3405 C   0  0  2  0  0  0  0  0  0  0  0  0
    6.7190  -14.1936   24.1645 N   0  0  0  0  0  0  0  0  0  0  0  0
    8.0321  -15.2735   25.8820 C   0  0  0  0  0  0  0  0  0  0  0  0
    7.1966  -16.1773   26.2324 O   0  0  0  0  0  0  0  0  0  0  0  0
    9.3920  -15.6095   26.0563 N   0  0  0  0  0  0  0  0  0  0  0  0
    9.7674  -17.0046   26.5251 C   0  0  1  0  0  0  0  0  0  0  0  0
   10.7946  -17.4259   25.5451 C   0  0  0  0  0  0  0  0  0  0  0  0
   10.5365  -18.2261   24.3668 C   0  0  0  0  0  0  0  0  0  0  0  0
   11.6429  -18.5940   23.4561 C   0  0  0  0  0  0  0  0  0  0  0  0
   11.0405  -19.3136   22.2152 C   0  0  0  0  0  0  0  0  0  0  0  0
   12.1019  -19.7529   21.3298 N   0  0  0  0  0  0  0  0  0  0  0  0
   10.2445  -16.7538   27.8981 C   0  0  0  0  0  0  0  0  0  0  0  0
   10.5532  -15.6288   28.3480 O   0  0  0  0  0  0  0  0  0  0  0  0
   10.3852  -17.8036   28.8199 O   0  0  0  0  0  0  0  0  0  0  0  0
  1  2  1  0
  3  4  2  0
  3  2  1  0
  6  5  1  6
  6  8  1  0
  7  6  1  0
  8  9  1  6
  8 10  1  0
  9  3  1  0
 10 11  2  0
 12 10  1  0
 12 13  1  0
 13 14  1  6
 14 15  1  0
 15 16  1  0
 16 17  1  0
 17 18  1  0
 19 21  1  0
 19 13  1  0
 20 19  2  0
M  END
$$$$
