GVK.pdb
     RDKit          3D

 21 20  0  0  1  0  0  0  0  0999 V2000
    7.0587  -18.0952   17.8257 N   0  0  0  0  0  0  0  0  0  0  0  0
    6.3709  -17.4091   18.8877 C   0  0  0  0  0  0  0  0  0  0  0  0
    7.3190  -16.7249   19.8096 C   0  0  0  0  0  0  0  0  0  0  0  0
    8.4733  -17.1439   20.0348 O   0  0  0  0  0  0  0  0  0  0  0  0
    7.5813  -13.0414   19.7852 C   0  0  0  0  0  0  0  0  0  0  0  0
    7.3317  -13.3982   21.2638 C   0  0  2  0  0  0  0  0  0  0  0  0
    8.0992  -12.3843   22.0553 C   0  0  0  0  0  0  0  0  0  0  0  0
    7.7203  -14.8153   21.4312 C   0  0  2  0  0  0  0  0  0  0  0  0
    6.8905  -15.5572   20.4515 N   0  0  0  0  0  0  0  0  0  0  0  0
    7.6042  -15.4077   22.7556 C   0  0  0  0  0  0  0  0  0  0  0  0
    6.4966  -15.4209   23.3965 O   0  0  0  0  0  0  0  0  0  0  0  0
    8.6939  -16.0077   23.4227 N   0  0  0  0  0  0  0  0  0  0  0  0
    8.4891  -16.6186   24.7981 C   0  0  1  0  0  0  0  0  0  0  0  0
    8.2830  -18.0551   24.5032 C   0  0  0  0  0  0  0  0  0  0  0  0
    7.0487  -18.6315   24.0140 C   0  0  0  0  0  0  0  0  0  0  0  0
    6.9807  -20.0680   23.6665 C   0  0  0  0  0  0  0  0  0  0  0  0
    5.5658  -20.3697   23.0944 C   0  0  0  0  0  0  0  0  0  0  0  0
    5.4979  -21.7422   22.6306 N   0  0  0  0  0  0  0  0  0  0  0  0
    9.7479  -16.2709   25.4838 C   0  0  0  0  0  0  0  0  0  0  0  0
   10.7725  -15.8399   24.9112 O   0  0  0  0  0  0  0  0  0  0  0  0
    9.8771  -16.4066   26.8754 O   0  0  0  0  0  0  0  0  0  0  0  0
  1  2  1  0
  3  4  2  0
  3  2  1  0
  6  5  1  6
  6  8  1  0
  7  6  1  0
  8  9  1  6
  8 10  1  0
  9  3  1  0
 10 11  2  0
 12 10  1  0
 12 13  1  0
 13 14  1  6
 14 15  1  0
 15 16  1  0
 16 17  1  0
 17 18  1  0
 19 21  1  0
 19 13  1  0
 20 19  2  0
M  END
$$$$
