GVK.pdb
     RDKit          3D

 21 20  0  0  1  0  0  0  0  0999 V2000
    4.8028  -18.3809   24.0086 N   0  0  0  0  0  0  0  0  0  0  0  0
    4.9821  -17.4140   25.0595 C   0  0  0  0  0  0  0  0  0  0  0  0
    6.0427  -16.4237   24.7253 C   0  0  0  0  0  0  0  0  0  0  0  0
    6.7699  -16.5183   23.7150 O   0  0  0  0  0  0  0  0  0  0  0  0
    5.6671  -12.6696   25.4838 C   0  0  0  0  0  0  0  0  0  0  0  0
    6.9316  -13.1820   26.2008 C   0  0  2  0  0  0  0  0  0  0  0  0
    7.8794  -12.0222   26.2183 C   0  0  0  0  0  0  0  0  0  0  0  0
    7.3687  -14.3958   25.4777 C   0  0  2  0  0  0  0  0  0  0  0  0
    6.2287  -15.3375   25.5884 N   0  0  0  0  0  0  0  0  0  0  0  0
    8.6067  -15.0365   25.8963 C   0  0  0  0  0  0  0  0  0  0  0  0
    8.7843  -15.4480   27.0950 O   0  0  0  0  0  0  0  0  0  0  0  0
    9.6910  -15.2511   25.0184 N   0  0  0  0  0  0  0  0  0  0  0  0
   10.8775  -16.0805   25.4781 C   0  0  1  0  0  0  0  0  0  0  0  0
   10.3712  -17.4698   25.3970 C   0  0  0  0  0  0  0  0  0  0  0  0
   10.4903  -18.4576   26.4483 C   0  0  0  0  0  0  0  0  0  0  0  0
   10.0732  -19.8569   26.2099 C   0  0  0  0  0  0  0  0  0  0  0  0
   10.3772  -20.6862   27.4906 C   0  0  0  0  0  0  0  0  0  0  0  0
    9.8833  -22.0411   27.3360 N   0  0  0  0  0  0  0  0  0  0  0  0
   11.9152  -15.7096   24.4977 C   0  0  0  0  0  0  0  0  0  0  0  0
   11.6831  -15.2683   23.3511 O   0  0  0  0  0  0  0  0  0  0  0  0
   13.2798  -15.8330   24.8045 O   0  0  0  0  0  0  0  0  0  0  0  0
  1  2  1  0
  3  4  2  0
  3  2  1  0
  6  5  1  6
  6  8  1  0
  7  6  1  0
  8  9  1  1
  8 10  1  0
  9  3  1  0
 10 11  2  0
 12 10  1  0
 12 13  1  0
 13 14  1  6
 14 15  1  0
 15 16  1  0
 16 17  1  0
 17 18  1  0
 19 21  1  0
 19 13  1  0
 20 19  2  0
M  END
$$$$
