GVK.pdb
     RDKit          3D

 21 20  0  0  1  0  0  0  0  0999 V2000
    6.7407  -14.5486   20.6009 N   0  0  0  0  0  0  0  0  0  0  0  0
    6.1735  -14.5168   21.9234 C   0  0  0  0  0  0  0  0  0  0  0  0
    7.2099  -14.2719   22.9642 C   0  0  0  0  0  0  0  0  0  0  0  0
    8.4340  -14.3877   22.7480 O   0  0  0  0  0  0  0  0  0  0  0  0
    6.7621  -11.4977   25.5021 C   0  0  0  0  0  0  0  0  0  0  0  0
    7.0179  -12.7896   26.3029 C   0  0  2  0  0  0  0  0  0  0  0  0
    7.7625  -12.3594   27.5294 C   0  0  0  0  0  0  0  0  0  0  0  0
    7.7099  -13.7258   25.3909 C   0  0  2  0  0  0  0  0  0  0  0  0
    6.7857  -13.8944   24.2436 N   0  0  0  0  0  0  0  0  0  0  0  0
    8.1187  -15.0203   25.9157 C   0  0  0  0  0  0  0  0  0  0  0  0
    7.2776  -15.9617   26.1262 O   0  0  0  0  0  0  0  0  0  0  0  0
    9.4604  -15.3302   26.2257 N   0  0  0  0  0  0  0  0  0  0  0  0
    9.8292  -16.7449   26.6378 C   0  0  1  0  0  0  0  0  0  0  0  0
   10.8590  -17.1290   25.6454 C   0  0  0  0  0  0  0  0  0  0  0  0
   11.3910  -18.4647   25.4784 C   0  0  0  0  0  0  0  0  0  0  0  0
   12.4303  -18.7335   24.4603 C   0  0  0  0  0  0  0  0  0  0  0  0
   12.8719  -20.2198   24.5880 C   0  0  0  0  0  0  0  0  0  0  0  0
   13.6963  -20.5940   23.4550 N   0  0  0  0  0  0  0  0  0  0  0  0
   10.3013  -16.5528   28.0220 C   0  0  0  0  0  0  0  0  0  0  0  0
   10.5112  -15.4403   28.5525 O   0  0  0  0  0  0  0  0  0  0  0  0
   10.5524  -17.6502   28.8613 O   0  0  0  0  0  0  0  0  0  0  0  0
  1  2  1  0
  3  4  2  0
  3  2  1  0
  6  5  1  6
  6  8  1  0
  7  6  1  0
  8  9  1  6
  8 10  1  0
  9  3  1  0
 10 11  2  0
 12 10  1  0
 12 13  1  0
 13 14  1  6
 14 15  1  0
 15 16  1  0
 16 17  1  0
 17 18  1  0
 19 21  1  0
 19 13  1  0
 20 19  2  0
M  END
$$$$
