GVK.pdb
     RDKit          3D

 21 20  0  0  1  0  0  0  0  0999 V2000
    4.7644  -18.3261   19.4397 N   0  0  0  0  0  0  0  0  0  0  0  0
    4.8191  -17.0674   20.1355 C   0  0  0  0  0  0  0  0  0  0  0  0
    6.2146  -16.6960   20.4985 C   0  0  0  0  0  0  0  0  0  0  0  0
    7.1767  -17.4859   20.4046 O   0  0  0  0  0  0  0  0  0  0  0  0
    6.9346  -12.6875   21.7870 C   0  0  0  0  0  0  0  0  0  0  0  0
    7.8812  -13.5350   20.9142 C   0  0  2  0  0  0  0  0  0  0  0  0
    7.4526  -13.2859   19.5008 C   0  0  0  0  0  0  0  0  0  0  0  0
    7.7865  -14.9252   21.4097 C   0  0  2  0  0  0  0  0  0  0  0  0
    6.4529  -15.3986   20.9665 N   0  0  0  0  0  0  0  0  0  0  0  0
    7.9676  -15.1606   22.8346 C   0  0  0  0  0  0  0  0  0  0  0  0
    7.0451  -14.9086   23.6850 O   0  0  0  0  0  0  0  0  0  0  0  0
    9.1619  -15.6815   23.3774 N   0  0  0  0  0  0  0  0  0  0  0  0
    9.2175  -16.0588   24.8476 C   0  0  1  0  0  0  0  0  0  0  0  0
    8.6687  -17.4341   24.8652 C   0  0  0  0  0  0  0  0  0  0  0  0
    8.5392  -18.2592   26.0474 C   0  0  0  0  0  0  0  0  0  0  0  0
    7.9699  -19.6213   25.9495 C   0  0  0  0  0  0  0  0  0  0  0  0
    7.9628  -20.2552   27.3702 C   0  0  0  0  0  0  0  0  0  0  0  0
    7.4307  -21.6031   27.3120 N   0  0  0  0  0  0  0  0  0  0  0  0
   10.6559  -15.9300   25.1479 C   0  0  0  0  0  0  0  0  0  0  0  0
   11.1496  -15.9890   26.2951 O   0  0  0  0  0  0  0  0  0  0  0  0
   11.5950  -15.7268   24.1240 O   0  0  0  0  0  0  0  0  0  0  0  0
  1  2  1  0
  3  4  2  0
  3  2  1  0
  6  5  1  1
  6  8  1  0
  7  6  1  0
  8  9  1  1
  8 10  1  0
  9  3  1  0
 10 11  2  0
 12 10  1  0
 12 13  1  0
 13 14  1  6
 14 15  1  0
 15 16  1  0
 16 17  1  0
 17 18  1  0
 19 21  1  0
 19 13  1  0
 20 19  2  0
M  END
$$$$
