GVK.pdb
     RDKit          3D

 21 20  0  0  1  0  0  0  0  0999 V2000
    4.6486  -18.4088   21.5848 N   0  0  0  0  0  0  0  0  0  0  0  0
    5.0544  -17.1040   22.0367 C   0  0  0  0  0  0  0  0  0  0  0  0
    6.3372  -16.6765   21.4132 C   0  0  0  0  0  0  0  0  0  0  0  0
    7.0289  -17.4266   20.6938 O   0  0  0  0  0  0  0  0  0  0  0  0
    6.8252  -13.4753   19.6858 C   0  0  0  0  0  0  0  0  0  0  0  0
    7.8689  -13.4599   20.8199 C   0  0  2  0  0  0  0  0  0  0  0  0
    9.0379  -12.6964   20.2775 C   0  0  0  0  0  0  0  0  0  0  0  0
    8.1053  -14.8695   21.1999 C   0  0  2  0  0  0  0  0  0  0  0  0
    6.7838  -15.3709   21.6482 N   0  0  0  0  0  0  0  0  0  0  0  0
    9.1266  -15.1499   22.1983 C   0  0  0  0  0  0  0  0  0  0  0  0
    9.0126  -14.7592   23.4116 O   0  0  0  0  0  0  0  0  0  0  0  0
   10.3054  -15.8686   21.9047 N   0  0  0  0  0  0  0  0  0  0  0  0
   11.3220  -16.1263   23.0035 C   0  0  1  0  0  0  0  0  0  0  0  0
   10.9890  -17.4957   23.4584 C   0  0  0  0  0  0  0  0  0  0  0  0
   11.5932  -18.1617   24.5926 C   0  0  0  0  0  0  0  0  0  0  0  0
   11.1959  -19.5419   24.9478 C   0  0  0  0  0  0  0  0  0  0  0  0
   11.8851  -19.9228   26.2895 C   0  0  0  0  0  0  0  0  0  0  0  0
   11.4736  -21.2510   26.7018 N   0  0  0  0  0  0  0  0  0  0  0  0
   12.6015  -15.9740   22.2858 C   0  0  0  0  0  0  0  0  0  0  0  0
   12.7421  -16.1030   21.0501 O   0  0  0  0  0  0  0  0  0  0  0  0
   13.7856  -15.6613   22.9728 O   0  0  0  0  0  0  0  0  0  0  0  0
  1  2  1  0
  3  4  2  0
  3  2  1  0
  6  5  1  6
  6  8  1  0
  7  6  1  0
  8  9  1  1
  8 10  1  0
  9  3  1  0
 10 11  2  0
 12 10  1  0
 12 13  1  0
 13 14  1  6
 14 15  1  0
 15 16  1  0
 16 17  1  0
 17 18  1  0
 19 21  1  0
 19 13  1  0
 20 19  2  0
M  END
$$$$
