RES.pdb
     RDKit          3D

 27 26  0  0  1  0  0  0  0  0999 V2000
   30.5430  -21.1460   -8.5623 N   0  0  0  0  0  0  0  0  0  0  0  0
   31.0472  -21.6147   -9.7998 C   0  0  0  0  0  0  0  0  0  0  0  0
   32.2375  -22.0965   -9.9349 N   0  0  0  0  0  0  0  0  0  0  0  0
   30.2400  -21.5743  -10.9860 N   0  0  0  0  0  0  0  0  0  0  0  0
   28.8594  -21.9859  -10.9010 C   0  0  0  0  0  0  0  0  0  0  0  0
   28.0416  -21.0347  -10.0567 C   0  0  0  0  0  0  0  0  0  0  0  0
   27.0444  -20.2375  -10.8595 C   0  0  0  0  0  0  0  0  0  0  0  0
   25.8179  -21.0978  -11.1254 C   0  0  2  0  0  0  0  0  0  0  0  0
   26.3076  -22.1845  -11.9790 N   0  0  0  0  0  0  0  0  0  0  0  0
   24.8058  -20.3567  -11.9291 C   0  0  0  0  0  0  0  0  0  0  0  0
   24.2768  -19.2865  -11.5238 O   0  0  0  0  0  0  0  0  0  0  0  0
   32.5064  -22.4712  -10.8885 N   0  0  0  0  0  0  0  0  0  0  0  0
   24.3644  -20.7940  -13.1987 C   0  0  1  0  0  0  0  0  0  0  0  0
   23.5295  -20.0743  -14.1046 C   0  0  0  0  0  0  0  0  0  0  0  0
   23.9271  -19.9947  -15.4960 C   0  0  0  0  0  0  0  0  0  0  0  0
   23.0764  -20.7517  -16.4720 C   0  0  0  0  0  0  0  0  0  0  0  0
   23.5667  -20.6421  -17.8510 O   0  0  0  0  0  0  0  0  0  0  0  0
   23.4543  -19.6219  -18.5664 C   0  0  0  0  0  0  0  0  0  0  0  0
   22.1215  -20.4183  -13.8735 O   0  0  0  0  0  0  0  0  0  0  0  0
   21.7800  -21.6368  -13.6419 O   0  0  0  0  0  0  0  0  0  0  0  0
   24.2137  -21.7394  -18.4516 O   0  0  0  0  0  0  0  0  0  0  0  0
   19.2369  -18.5013  -11.7986 C   0  0  0  0  0  0  0  0  0  0  0  0
   18.9291  -18.7082  -13.1235 C   0  0  2  0  0  0  0  0  0  0  0  0
   19.6840  -19.9377  -13.6773 N   0  0  0  0  0  0  0  0  0  0  0  0
   21.0465  -19.4882  -13.8773 C   0  0  0  0  0  0  0  0  0  0  0  0
   18.9895  -20.2762  -14.9345 O   0  0  0  0  0  0  0  0  0  0  0  0
   19.6059  -20.1494  -16.0135 O   0  0  0  0  0  0  0  0  0  0  0  0
  2  1  1  0
  2  3  2  0
  4  5  1  0
  4  2  1  0
  6  5  1  0
  7  6  1  0
  8  9  1  6
  8 10  1  0
  8  7  1  0
 10 12  1  0
 10 11  2  0
 12 13  1  0
 13 14  1  1
 14 15  1  0
 15 16  1  0
 16 17  2  0
 16 20  1  0
 18 13  1  0
 19 18  2  0
 21 22  1  0
 23 22  1  1
 23 25  1  0
 23 24  1  0
 24 18  1  0
 25 27  1  0
 26 25  2  0
M  END
$$$$
