RES.pdb
     RDKit          3D

 27 26  0  0  1  0  0  0  0  0999 V2000
   24.7781  -20.5616  -11.8578 N   0  0  0  0  0  0  0  0  0  0  0  0
   25.9845  -21.2662  -12.0890 C   0  0  0  0  0  0  0  0  0  0  0  0
   26.0427  -22.5545  -12.1543 N   0  0  0  0  0  0  0  0  0  0  0  0
   27.2243  -20.5648  -12.2647 N   0  0  0  0  0  0  0  0  0  0  0  0
   27.1870  -19.1682  -12.6267 C   0  0  0  0  0  0  0  0  0  0  0  0
   27.8077  -18.9238  -13.9837 C   0  0  0  0  0  0  0  0  0  0  0  0
   26.8177  -18.4281  -15.0075 C   0  0  0  0  0  0  0  0  0  0  0  0
   25.8791  -19.5651  -15.3837 C   0  0  2  0  0  0  0  0  0  0  0  0
   26.6946  -20.4574  -16.2133 N   0  0  0  0  0  0  0  0  0  0  0  0
   24.7702  -19.0812  -16.2530 C   0  0  0  0  0  0  0  0  0  0  0  0
   24.8647  -19.0499  -17.5097 O   0  0  0  0  0  0  0  0  0  0  0  0
   27.0004  -22.9945  -12.2593 N   0  0  0  0  0  0  0  0  0  0  0  0
   23.5360  -18.6231  -15.7383 C   0  0  1  0  0  0  0  0  0  0  0  0
   22.4266  -18.1369  -16.4924 C   0  0  0  0  0  0  0  0  0  0  0  0
   21.0893  -18.3821  -15.9904 C   0  0  0  0  0  0  0  0  0  0  0  0
   20.7797  -19.7950  -15.5939 C   0  0  0  0  0  0  0  0  0  0  0  0
   19.3788  -19.9747  -15.1948 O   0  0  0  0  0  0  0  0  0  0  0  0
   18.5145  -20.5650  -15.8801 C   0  0  0  0  0  0  0  0  0  0  0  0
   22.6858  -16.7638  -16.9414 O   0  0  0  0  0  0  0  0  0  0  0  0
   23.2403  -15.9150  -16.1494 O   0  0  0  0  0  0  0  0  0  0  0  0
   18.9324  -19.4605  -13.9620 O   0  0  0  0  0  0  0  0  0  0  0  0
   24.9946  -13.9968  -19.2482 C   0  0  0  0  0  0  0  0  0  0  0  0
   24.4020  -15.1493  -18.7863 C   0  0  1  0  0  0  0  0  0  0  0  0
   22.8727  -14.9674  -18.6586 N   0  0  0  0  0  0  0  0  0  0  0  0
   22.3711  -16.2577  -18.2319 C   0  0  0  0  0  0  0  0  0  0  0  0
   22.4212  -14.5824  -20.0097 O   0  0  0  0  0  0  0  0  0  0  0  0
   22.0288  -15.4764  -20.7888 O   0  0  0  0  0  0  0  0  0  0  0  0
  2  1  1  0
  2  3  2  0
  4  5  1  0
  4  2  1  0
  6  5  1  0
  7  6  1  0
  8  9  1  6
  8 10  1  0
  8  7  1  0
 10 12  1  0
 10 11  2  0
 12 13  1  0
 13 14  1  6
 14 15  1  0
 15 16  1  0
 16 17  2  0
 16 20  1  0
 18 13  1  0
 19 18  2  0
 21 22  1  0
 23 22  1  1
 23 25  1  0
 23 24  1  0
 24 18  1  0
 25 27  1  0
 26 25  2  0
M  END
$$$$
