RES.pdb
     RDKit          3D

 27 26  0  0  1  0  0  0  0  0999 V2000
   30.1682  -24.1107  -18.2783 N   0  0  0  0  0  0  0  0  0  0  0  0
   30.4095  -24.2692  -16.8920 C   0  0  0  0  0  0  0  0  0  0  0  0
   31.3619  -25.0058  -16.4256 N   0  0  0  0  0  0  0  0  0  0  0  0
   29.5880  -23.6036  -15.9212 N   0  0  0  0  0  0  0  0  0  0  0  0
   28.4627  -22.8254  -16.3801 C   0  0  0  0  0  0  0  0  0  0  0  0
   28.8619  -21.4062  -16.7161 C   0  0  0  0  0  0  0  0  0  0  0  0
   28.0339  -20.3715  -15.9965 C   0  0  0  0  0  0  0  0  0  0  0  0
   26.7467  -21.0175  -15.5056 C   0  0  2  0  0  0  0  0  0  0  0  0
   26.3399  -21.9061  -16.5984 N   0  0  0  0  0  0  0  0  0  0  0  0
   25.6607  -20.0081  -15.3595 C   0  0  0  0  0  0  0  0  0  0  0  0
   25.7499  -19.0337  -14.5646 O   0  0  0  0  0  0  0  0  0  0  0  0
   31.4032  -25.1425  -15.3761 N   0  0  0  0  0  0  0  0  0  0  0  0
   24.4556  -20.0656  -16.0961 C   0  0  1  0  0  0  0  0  0  0  0  0
   23.3647  -19.1495  -16.0172 C   0  0  0  0  0  0  0  0  0  0  0  0
   23.0156  -18.3873  -17.1995 C   0  0  0  0  0  0  0  0  0  0  0  0
   21.8528  -17.4500  -17.0634 C   0  0  0  0  0  0  0  0  0  0  0  0
   21.5546  -16.7365  -18.3109 O   0  0  0  0  0  0  0  0  0  0  0  0
   20.4023  -16.5144  -18.7447 C   0  0  0  0  0  0  0  0  0  0  0  0
   22.2350  -19.7707  -15.3155 O   0  0  0  0  0  0  0  0  0  0  0  0
   21.8838  -20.9774  -15.5903 O   0  0  0  0  0  0  0  0  0  0  0  0
   22.6098  -16.2521  -19.1078 O   0  0  0  0  0  0  0  0  0  0  0  0
   19.8250  -17.6715  -12.7618 C   0  0  0  0  0  0  0  0  0  0  0  0
   19.9827  -19.0013  -12.4462 C   0  0  1  0  0  0  0  0  0  0  0  0
   20.3345  -19.8266  -13.7045 N   0  0  0  0  0  0  0  0  0  0  0  0
   21.4559  -19.1374  -14.3093 C   0  0  0  0  0  0  0  0  0  0  0  0
   19.1137  -19.7961  -14.5330 O   0  0  0  0  0  0  0  0  0  0  0  0
   19.1033  -19.0855  -15.5603 O   0  0  0  0  0  0  0  0  0  0  0  0
  2  1  1  0
  2  3  2  0
  4  5  1  0
  4  2  1  0
  6  5  1  0
  7  6  1  0
  8  9  1  6
  8 10  1  0
  8  7  1  0
 10 12  1  0
 10 11  2  0
 12 13  1  0
 13 14  1  1
 14 15  1  0
 15 16  1  0
 16 17  2  0
 16 20  1  0
 18 13  1  0
 19 18  2  0
 21 22  1  0
 23 22  1  1
 23 25  1  0
 23 24  1  0
 24 18  1  0
 25 27  1  0
 26 25  2  0
M  END
$$$$
