RES.pdb
     RDKit          3D

 27 26  0  0  1  0  0  0  0  0999 V2000
   18.1576  -15.5089  -16.0330 N   0  0  0  0  0  0  0  0  0  0  0  0
   18.4676  -16.0415  -17.3080 C   0  0  0  0  0  0  0  0  0  0  0  0
   18.5782  -17.3086  -17.5307 N   0  0  0  0  0  0  0  0  0  0  0  0
   18.6776  -15.1779  -18.4350 N   0  0  0  0  0  0  0  0  0  0  0  0
   18.4589  -13.7605  -18.2743 C   0  0  0  0  0  0  0  0  0  0  0  0
   19.6526  -13.0765  -17.6469 C   0  0  0  0  0  0  0  0  0  0  0  0
   19.5105  -11.5765  -17.5838 C   0  0  0  0  0  0  0  0  0  0  0  0
   20.7609  -10.9842  -16.9507 C   0  0  2  0  0  0  0  0  0  0  0  0
   21.3173  -12.0742  -16.1435 N   0  0  0  0  0  0  0  0  0  0  0  0
   20.4151   -9.8916  -15.9988 C   0  0  0  0  0  0  0  0  0  0  0  0
   20.0699  -10.1205  -14.8080 O   0  0  0  0  0  0  0  0  0  0  0  0
   18.7554  -17.6144  -18.5292 N   0  0  0  0  0  0  0  0  0  0  0  0
   20.4473   -8.5243  -16.3557 C   0  0  1  0  0  0  0  0  0  0  0  0
   20.1521   -7.4155  -15.5077 C   0  0  0  0  0  0  0  0  0  0  0  0
   21.2529   -6.6186  -15.0039 C   0  0  0  0  0  0  0  0  0  0  0  0
   20.8924   -5.5218  -14.0467 C   0  0  0  0  0  0  0  0  0  0  0  0
   22.0485   -4.7003  -13.6690 O   0  0  0  0  0  0  0  0  0  0  0  0
   21.9957   -3.7014  -12.9175 C   0  0  0  0  0  0  0  0  0  0  0  0
   19.0227   -6.6520  -16.0517 O   0  0  0  0  0  0  0  0  0  0  0  0
   19.0616   -6.2045  -17.2572 O   0  0  0  0  0  0  0  0  0  0  0  0
   23.3263   -5.0221  -14.1662 O   0  0  0  0  0  0  0  0  0  0  0  0
   15.2382   -7.3899  -15.5244 C   0  0  0  0  0  0  0  0  0  0  0  0
   15.4696   -6.0556  -15.2811 C   0  0  2  0  0  0  0  0  0  0  0  0
   16.7702   -5.5887  -15.9729 N   0  0  0  0  0  0  0  0  0  0  0  0
   17.8300   -6.3476  -15.3409 C   0  0  0  0  0  0  0  0  0  0  0  0
   16.8466   -4.1402  -15.7015 O   0  0  0  0  0  0  0  0  0  0  0  0
   17.8318   -3.6984  -15.0735 O   0  0  0  0  0  0  0  0  0  0  0  0
  2  1  1  0
  2  3  2  0
  4  5  1  0
  4  2  1  0
  6  5  1  0
  7  6  1  0
  8  9  1  1
  8 10  1  0
  8  7  1  0
 10 12  1  0
 10 11  2  0
 12 13  1  0
 13 14  1  1
 14 15  1  0
 15 16  1  0
 16 17  2  0
 16 20  1  0
 18 13  1  0
 19 18  2  0
 21 22  1  0
 23 22  1  6
 23 25  1  0
 23 24  1  0
 24 18  1  0
 25 27  1  0
 26 25  2  0
M  END
$$$$
