RES.pdb
     RDKit          3D

 27 26  0  0  1  0  0  0  0  0999 V2000
   31.3662  -25.6867  -15.6173 N   0  0  0  0  0  0  0  0  0  0  0  0
   31.6782  -24.9631  -16.7938 C   0  0  0  0  0  0  0  0  0  0  0  0
   32.4686  -25.4178  -17.7080 N   0  0  0  0  0  0  0  0  0  0  0  0
   31.1177  -23.6627  -17.0283 N   0  0  0  0  0  0  0  0  0  0  0  0
   29.9095  -23.2912  -16.3320 C   0  0  0  0  0  0  0  0  0  0  0  0
   28.7015  -24.0192  -16.8771 C   0  0  0  0  0  0  0  0  0  0  0  0
   27.4163  -23.6321  -16.1897 C   0  0  0  0  0  0  0  0  0  0  0  0
   26.8728  -22.3626  -16.8287 C   0  0  2  0  0  0  0  0  0  0  0  0
   27.7956  -21.3083  -16.3974 N   0  0  0  0  0  0  0  0  0  0  0  0
   25.5388  -22.0077  -16.2682 C   0  0  0  0  0  0  0  0  0  0  0  0
   24.5502  -22.7868  -16.3386 O   0  0  0  0  0  0  0  0  0  0  0  0
   32.6083  -24.8217  -18.5723 N   0  0  0  0  0  0  0  0  0  0  0  0
   25.2817  -20.7785  -15.6193 C   0  0  1  0  0  0  0  0  0  0  0  0
   24.0296  -20.3367  -15.0971 C   0  0  0  0  0  0  0  0  0  0  0  0
   23.8939  -20.1863  -13.6620 C   0  0  0  0  0  0  0  0  0  0  0  0
   23.5715  -21.4330  -12.8932 C   0  0  0  0  0  0  0  0  0  0  0  0
   22.1756  -21.8540  -13.0611 O   0  0  0  0  0  0  0  0  0  0  0  0
   21.2192  -21.4362  -12.3712 C   0  0  0  0  0  0  0  0  0  0  0  0
   23.5175  -19.2171  -15.8961 O   0  0  0  0  0  0  0  0  0  0  0  0
   24.1647  -18.1065  -15.9481 O   0  0  0  0  0  0  0  0  0  0  0  0
   21.8445  -22.7945  -14.0558 O   0  0  0  0  0  0  0  0  0  0  0  0
   22.6346  -19.2257  -19.4234 C   0  0  0  0  0  0  0  0  0  0  0  0
   21.5420  -18.6415  -18.8252 C   0  0  2  0  0  0  0  0  0  0  0  0
   21.9101  -18.0882  -17.4300 N   0  0  0  0  0  0  0  0  0  0  0  0
   22.3181  -19.2445  -16.6586 C   0  0  0  0  0  0  0  0  0  0  0  0
   20.6717  -17.4599  -16.9309 O   0  0  0  0  0  0  0  0  0  0  0  0
   20.1400  -17.9188  -15.8981 O   0  0  0  0  0  0  0  0  0  0  0  0
  2  1  1  0
  2  3  2  0
  4  5  1  0
  4  2  1  0
  6  5  1  0
  7  6  1  0
  8  9  1  1
  8 10  1  0
  8  7  1  0
 10 12  1  0
 10 11  2  0
 12 13  1  0
 13 14  1  6
 14 15  1  0
 15 16  1  0
 16 17  2  0
 16 20  1  0
 18 13  1  0
 19 18  2  0
 21 22  1  0
 23 22  1  6
 23 25  1  0
 23 24  1  0
 24 18  1  0
 25 27  1  0
 26 25  2  0
M  END
$$$$
