GVL.pdb
     RDKit          3D

 20 19  0  0  1  0  0  0  0  0999 V2000
    5.4410  -19.4793   22.4753 N   0  0  0  0  0  0  0  0  0  0  0  0
    5.4209  -18.0806   22.7956 C   0  0  0  0  0  0  0  0  0  0  0  0
    6.7364  -17.4299   22.5776 C   0  0  0  0  0  0  0  0  0  0  0  0
    7.7965  -18.1123   22.6347 O   0  0  0  0  0  0  0  0  0  0  0  0
    7.2534  -14.5161   19.8993 C   0  0  0  0  0  0  0  0  0  0  0  0
    7.9701  -14.1533   21.1853 C   0  0  1  0  0  0  0  0  0  0  0  0
    7.2544  -13.0524   21.9309 C   0  0  0  0  0  0  0  0  0  0  0  0
    8.1249  -15.4012   22.0260 C   0  0  2  0  0  0  0  0  0  0  0  0
    6.8799  -16.0471   22.3008 N   0  0  0  0  0  0  0  0  0  0  0  0
    8.7764  -15.0529   23.3133 C   0  0  0  0  0  0  0  0  0  0  0  0
    9.9691  -14.7130   23.3427 O   0  0  0  0  0  0  0  0  0  0  0  0
    6.0228  -12.1762   26.8597 C   0  0  0  0  0  0  0  0  0  0  0  0
    7.1626  -12.7854   26.0675 C   0  0  1  0  0  0  0  0  0  0  0  0
    8.3602  -11.8227   26.0486 C   0  0  0  0  0  0  0  0  0  0  0  0
    7.6027  -14.1034   26.6528 C   0  0  0  0  0  0  0  0  0  0  0  0
    8.6875  -14.7595   25.8295 C   0  0  2  0  0  0  0  0  0  0  0  0
    8.0761  -15.0920   24.5508 N   0  0  0  0  0  0  0  0  0  0  0  0
    9.1306  -16.0359   26.4371 C   0  0  0  0  0  0  0  0  0  0  0  0
    8.6623  -17.1631   26.0587 O   0  0  0  0  0  0  0  0  0  0  0  0
   10.0786  -16.1322   27.4549 O   0  0  0  0  0  0  0  0  0  0  0  0
  2  1  1  0
  3  2  1  0
  4  3  2  0
  6  5  1  6
  6  8  1  0
  7  6  1  0
  8 10  1  0
  8  9  1  1
  9  3  1  0
 10 17  1  0
 11 10  2  0
 13 12  1  1
 13 14  1  0
 15 13  1  0
 16 15  1  1
 17 16  1  0
 18 20  1  0
 18 16  1  0
 19 18  2  0
M  END
$$$$
