GVL.pdb
     RDKit          3D

 20 19  0  0  1  0  0  0  0  0999 V2000
    7.4319  -12.7319   18.1927 N   0  0  0  0  0  0  0  0  0  0  0  0
    8.4850  -13.3731   18.9271 C   0  0  0  0  0  0  0  0  0  0  0  0
    7.9735  -14.1909   20.0545 C   0  0  0  0  0  0  0  0  0  0  0  0
    6.7346  -14.2387   20.2900 O   0  0  0  0  0  0  0  0  0  0  0  0
   10.3600  -17.2304   21.7432 C   0  0  0  0  0  0  0  0  0  0  0  0
    8.8441  -17.2393   21.7774 C   0  0  1  0  0  0  0  0  0  0  0  0
    8.3162  -18.1500   22.8600 C   0  0  0  0  0  0  0  0  0  0  0  0
    8.3517  -15.8184   21.9403 C   0  0  2  0  0  0  0  0  0  0  0  0
    8.8167  -14.9448   20.9091 N   0  0  0  0  0  0  0  0  0  0  0  0
    8.7978  -15.2876   23.2527 C   0  0  0  0  0  0  0  0  0  0  0  0
   10.0012  -15.0786   23.4703 O   0  0  0  0  0  0  0  0  0  0  0  0
    7.6499  -11.7693   25.2415 C   0  0  0  0  0  0  0  0  0  0  0  0
    7.2285  -12.4881   26.5079 C   0  0  1  0  0  0  0  0  0  0  0  0
    5.8944  -11.9177   27.0142 C   0  0  0  0  0  0  0  0  0  0  0  0
    7.0722  -13.9701   26.2788 C   0  0  0  0  0  0  0  0  0  0  0  0
    8.2961  -14.5800   25.6345 C   0  0  2  0  0  0  0  0  0  0  0  0
    7.8829  -14.9990   24.3029 N   0  0  0  0  0  0  0  0  0  0  0  0
    8.7333  -15.8008   26.3510 C   0  0  0  0  0  0  0  0  0  0  0  0
    9.6480  -15.7700   27.2429 O   0  0  0  0  0  0  0  0  0  0  0  0
    8.2036  -17.0714   26.1302 O   0  0  0  0  0  0  0  0  0  0  0  0
  2  1  1  0
  3  2  1  0
  4  3  2  0
  6  5  1  1
  6  8  1  0
  7  6  1  0
  8 10  1  0
  8  9  1  6
  9  3  1  0
 10 17  1  0
 11 10  2  0
 13 12  1  6
 13 14  1  0
 15 13  1  0
 16 15  1  1
 17 16  1  0
 18 20  1  0
 18 16  1  0
 19 18  2  0
M  END
$$$$
