GVL.pdb
     RDKit          3D

 20 19  0  0  1  0  0  0  0  0999 V2000
    5.8357  -19.9269   23.2312 N   0  0  0  0  0  0  0  0  0  0  0  0
    5.6679  -18.5022   23.1964 C   0  0  0  0  0  0  0  0  0  0  0  0
    6.9226  -17.7918   22.8466 C   0  0  0  0  0  0  0  0  0  0  0  0
    8.0070  -18.4310   22.7558 O   0  0  0  0  0  0  0  0  0  0  0  0
    7.3385  -14.9551   20.1198 C   0  0  0  0  0  0  0  0  0  0  0  0
    7.9523  -14.4776   21.4215 C   0  0  1  0  0  0  0  0  0  0  0  0
    7.1003  -13.4225   22.0856 C   0  0  0  0  0  0  0  0  0  0  0  0
    8.1799  -15.6726   22.3205 C   0  0  2  0  0  0  0  0  0  0  0  0
    6.9800  -16.3968   22.6008 N   0  0  0  0  0  0  0  0  0  0  0  0
    8.7753  -15.2210   23.6028 C   0  0  0  0  0  0  0  0  0  0  0  0
    9.7934  -14.5120   23.6081 O   0  0  0  0  0  0  0  0  0  0  0  0
    5.8495  -12.4562   26.5996 C   0  0  0  0  0  0  0  0  0  0  0  0
    7.1456  -13.0412   26.0747 C   0  0  1  0  0  0  0  0  0  0  0  0
    8.2978  -12.0505   26.3038 C   0  0  0  0  0  0  0  0  0  0  0  0
    7.4798  -14.3462   26.7521 C   0  0  0  0  0  0  0  0  0  0  0  0
    8.6791  -15.0223   26.1280 C   0  0  2  0  0  0  0  0  0  0  0  0
    8.2166  -15.5735   24.8624 N   0  0  0  0  0  0  0  0  0  0  0  0
    9.1439  -16.1649   26.9483 C   0  0  0  0  0  0  0  0  0  0  0  0
    8.7512  -17.3606   26.7262 O   0  0  0  0  0  0  0  0  0  0  0  0
   10.0335  -16.0529   28.0160 O   0  0  0  0  0  0  0  0  0  0  0  0
  2  1  1  0
  3  2  1  0
  4  3  2  0
  6  5  1  6
  6  8  1  0
  7  6  1  0
  8 10  1  0
  8  9  1  1
  9  3  1  0
 10 17  1  0
 11 10  2  0
 13 12  1  1
 13 14  1  0
 15 13  1  0
 16 15  1  1
 17 16  1  0
 18 20  1  0
 18 16  1  0
 19 18  2  0
M  END
$$$$
