GVL.pdb
     RDKit          3D

 20 19  0  0  1  0  0  0  0  0999 V2000
    5.3477  -18.8144   21.0780 N   0  0  0  0  0  0  0  0  0  0  0  0
    5.3084  -17.4717   21.5829 C   0  0  0  0  0  0  0  0  0  0  0  0
    6.6237  -16.7916   21.4884 C   0  0  0  0  0  0  0  0  0  0  0  0
    7.6619  -17.4571   21.2201 O   0  0  0  0  0  0  0  0  0  0  0  0
    7.3285  -13.4722   19.5896 C   0  0  0  0  0  0  0  0  0  0  0  0
    7.9149  -13.3346   20.9811 C   0  0  1  0  0  0  0  0  0  0  0  0
    7.0959  -12.4024   21.8416 C   0  0  0  0  0  0  0  0  0  0  0  0
    8.0409  -14.7111   21.5954 C   0  0  2  0  0  0  0  0  0  0  0  0
    6.7909  -15.3980   21.6871 N   0  0  0  0  0  0  0  0  0  0  0  0
    8.6224  -14.5945   22.9559 C   0  0  0  0  0  0  0  0  0  0  0  0
    9.5298  -13.7798   23.1842 O   0  0  0  0  0  0  0  0  0  0  0  0
    6.3860  -12.1186   26.4461 C   0  0  0  0  0  0  0  0  0  0  0  0
    7.5435  -12.8833   25.8353 C   0  0  1  0  0  0  0  0  0  0  0  0
    8.8656  -12.4304   26.4744 C   0  0  0  0  0  0  0  0  0  0  0  0
    7.3898  -14.3707   26.0295 C   0  0  0  0  0  0  0  0  0  0  0  0
    8.5397  -15.1463   25.4286 C   0  0  2  0  0  0  0  0  0  0  0  0
    8.1746  -15.3968   24.0417 N   0  0  0  0  0  0  0  0  0  0  0  0
    8.6965  -16.4697   26.0757 C   0  0  0  0  0  0  0  0  0  0  0  0
    9.1476  -16.5912   27.2652 O   0  0  0  0  0  0  0  0  0  0  0  0
    8.3752  -17.6826   25.4679 O   0  0  0  0  0  0  0  0  0  0  0  0
  2  1  1  0
  3  2  1  0
  4  3  2  0
  6  5  1  6
  6  8  1  0
  7  6  1  0
  8 10  1  0
  8  9  1  1
  9  3  1  0
 10 17  1  0
 11 10  2  0
 13 12  1  1
 13 14  1  0
 15 13  1  0
 16 15  1  1
 17 16  1  0
 18 20  1  0
 18 16  1  0
 19 18  2  0
M  END
$$$$
