GVL.pdb
     RDKit          3D

 20 19  0  0  1  0  0  0  0  0999 V2000
   10.2583  -18.8228   19.5172 N   0  0  0  0  0  0  0  0  0  0  0  0
    9.1373  -18.3217   20.2599 C   0  0  0  0  0  0  0  0  0  0  0  0
    9.3634  -16.9465   20.7691 C   0  0  0  0  0  0  0  0  0  0  0  0
   10.5066  -16.6044   21.1802 O   0  0  0  0  0  0  0  0  0  0  0  0
    7.9291  -12.2935   21.4965 C   0  0  0  0  0  0  0  0  0  0  0  0
    7.5947  -13.6275   20.8579 C   0  0  1  0  0  0  0  0  0  0  0  0
    7.7272  -13.5747   19.3546 C   0  0  0  0  0  0  0  0  0  0  0  0
    8.4753  -14.6949   21.4686 C   0  0  2  0  0  0  0  0  0  0  0  0
    8.3434  -15.9636   20.8239 N   0  0  0  0  0  0  0  0  0  0  0  0
    8.1380  -14.8523   22.9054 C   0  0  0  0  0  0  0  0  0  0  0  0
    7.1706  -15.5475   23.2517 O   0  0  0  0  0  0  0  0  0  0  0  0
    7.9328  -11.5867   25.8579 C   0  0  0  0  0  0  0  0  0  0  0  0
    6.9918  -12.6789   26.3266 C   0  0  1  0  0  0  0  0  0  0  0  0
    5.5375  -12.1898   26.2395 C   0  0  0  0  0  0  0  0  0  0  0  0
    7.1381  -13.9303   25.4985 C   0  0  0  0  0  0  0  0  0  0  0  0
    8.5825  -14.3506   25.3500 C   0  0  2  0  0  0  0  0  0  0  0  0
    8.8944  -14.2247   23.9336 N   0  0  0  0  0  0  0  0  0  0  0  0
    8.7703  -15.7767   25.7046 C   0  0  0  0  0  0  0  0  0  0  0  0
    8.9784  -16.1522   26.9083 O   0  0  0  0  0  0  0  0  0  0  0  0
    8.7386  -16.8239   24.7848 O   0  0  0  0  0  0  0  0  0  0  0  0
  2  1  1  0
  3  2  1  0
  4  3  2  0
  6  5  1  1
  6  8  1  0
  7  6  1  0
  8 10  1  0
  8  9  1  6
  9  3  1  0
 10 17  1  0
 11 10  2  0
 13 12  1  6
 13 14  1  0
 15 13  1  0
 16 15  1  6
 17 16  1  0
 18 20  1  0
 18 16  1  0
 19 18  2  0
M  END
$$$$
