GVL.pdb
     RDKit          3D

 20 19  0  0  1  0  0  0  0  0999 V2000
    8.7554  -16.8066   18.1331 N   0  0  0  0  0  0  0  0  0  0  0  0
    9.4482  -16.8068   19.3898 C   0  0  0  0  0  0  0  0  0  0  0  0
    8.5310  -16.6331   20.5431 C   0  0  0  0  0  0  0  0  0  0  0  0
    7.3743  -16.1605   20.3655 O   0  0  0  0  0  0  0  0  0  0  0  0
    6.6746  -18.8836   22.4292 C   0  0  0  0  0  0  0  0  0  0  0  0
    7.5440  -18.2400   23.4919 C   0  0  1  0  0  0  0  0  0  0  0  0
    8.7047  -19.1268   23.8748 C   0  0  0  0  0  0  0  0  0  0  0  0
    8.0026  -16.8876   22.9934 C   0  0  2  0  0  0  0  0  0  0  0  0
    8.8848  -16.9757   21.8723 N   0  0  0  0  0  0  0  0  0  0  0  0
    8.6945  -16.1648   24.0896 C   0  0  0  0  0  0  0  0  0  0  0  0
    9.9320  -16.1879   24.1752 O   0  0  0  0  0  0  0  0  0  0  0  0
    5.9838  -11.9957   26.3257 C   0  0  0  0  0  0  0  0  0  0  0  0
    7.0928  -12.8660   25.7684 C   0  0  1  0  0  0  0  0  0  0  0  0
    8.2602  -11.9863   25.2940 C   0  0  0  0  0  0  0  0  0  0  0  0
    7.6023  -13.8424   26.7982 C   0  0  0  0  0  0  0  0  0  0  0  0
    8.6229  -14.7976   26.2229 C   0  0  2  0  0  0  0  0  0  0  0  0
    7.9839  -15.4253   25.0752 N   0  0  0  0  0  0  0  0  0  0  0  0
    8.9477  -15.8822   27.1783 C   0  0  0  0  0  0  0  0  0  0  0  0
    9.7685  -15.7103   28.1426 O   0  0  0  0  0  0  0  0  0  0  0  0
    8.4038  -17.1648   27.1227 O   0  0  0  0  0  0  0  0  0  0  0  0
  2  1  1  0
  3  2  1  0
  4  3  2  0
  6  5  1  6
  6  8  1  0
  7  6  1  0
  8 10  1  0
  8  9  1  6
  9  3  1  0
 10 17  1  0
 11 10  2  0
 13 12  1  1
 13 14  1  0
 15 13  1  0
 16 15  1  1
 17 16  1  0
 18 20  1  0
 18 16  1  0
 19 18  2  0
M  END
$$$$
