GVL.pdb
     RDKit          3D

 20 19  0  0  1  0  0  0  0  0999 V2000
    5.0323  -18.8608   21.5867 N   0  0  0  0  0  0  0  0  0  0  0  0
    5.2340  -17.7136   22.4249 C   0  0  0  0  0  0  0  0  0  0  0  0
    6.6155  -17.1803   22.3336 C   0  0  0  0  0  0  0  0  0  0  0  0
    7.6008  -17.9334   22.5678 O   0  0  0  0  0  0  0  0  0  0  0  0
    7.5233  -14.2184   19.7401 C   0  0  0  0  0  0  0  0  0  0  0  0
    8.2529  -14.0119   21.0532 C   0  0  1  0  0  0  0  0  0  0  0  0
    7.6716  -12.8607   21.8388 C   0  0  0  0  0  0  0  0  0  0  0  0
    8.2239  -15.3058   21.8359 C   0  0  2  0  0  0  0  0  0  0  0  0
    6.9055  -15.8362   21.9890 N   0  0  0  0  0  0  0  0  0  0  0  0
    8.8080  -15.0831   23.1820 C   0  0  0  0  0  0  0  0  0  0  0  0
    9.9820  -14.7006   23.3026 O   0  0  0  0  0  0  0  0  0  0  0  0
    5.6445  -12.5615   26.5024 C   0  0  0  0  0  0  0  0  0  0  0  0
    6.9818  -13.0051   25.9431 C   0  0  1  0  0  0  0  0  0  0  0  0
    8.0748  -12.0009   26.3414 C   0  0  0  0  0  0  0  0  0  0  0  0
    7.3670  -14.3734   26.4459 C   0  0  0  0  0  0  0  0  0  0  0  0
    8.5523  -14.9424   25.7000 C   0  0  2  0  0  0  0  0  0  0  0  0
    8.0624  -15.2939   24.3749 N   0  0  0  0  0  0  0  0  0  0  0  0
    9.0337  -16.1963   26.3251 C   0  0  0  0  0  0  0  0  0  0  0  0
    8.7226  -17.3457   25.8611 O   0  0  0  0  0  0  0  0  0  0  0  0
    9.8534  -16.2461   27.4517 O   0  0  0  0  0  0  0  0  0  0  0  0
  2  1  1  0
  3  2  1  0
  4  3  2  0
  6  5  1  6
  6  8  1  0
  7  6  1  0
  8 10  1  0
  8  9  1  1
  9  3  1  0
 10 17  1  0
 11 10  2  0
 13 12  1  1
 13 14  1  0
 15 13  1  0
 16 15  1  1
 17 16  1  0
 18 20  1  0
 18 16  1  0
 19 18  2  0
M  END
$$$$
