DSW.pdb
     RDKit          3D

 29 30  0  0  1  0  0  0  0  0999 V2000
   24.7493  -15.0978  -21.0326 N   0  0  0  0  0  0  0  0  0  0  0  0
   24.0671  -16.3487  -20.9508 C   0  0  1  0  0  0  0  0  0  0  0  0
   25.0995  -17.4568  -21.1793 C   0  0  0  0  0  0  0  0  0  0  0  0
   25.4716  -17.5349  -22.6117 C   0  0  0  0  0  0  0  0  0  0  0  0
   24.5384  -17.4826  -23.4539 O   0  0  0  0  0  0  0  0  0  0  0  0
   23.5171  -16.6019  -19.5759 C   0  0  0  0  0  0  0  0  0  0  0  0
   24.1278  -16.1472  -18.5763 O   0  0  0  0  0  0  0  0  0  0  0  0
   26.7671  -17.6610  -23.0767 O   0  0  0  0  0  0  0  0  0  0  0  0
   20.0730  -19.1788  -18.7922 O   0  0  0  0  0  0  0  0  0  0  0  0
   20.2702  -17.9831  -18.1493 C   0  0  0  0  0  0  0  0  0  0  0  0
   21.6944  -17.5497  -18.0891 C   0  0  2  0  0  0  0  0  0  0  0  0
   22.3302  -17.3361  -19.3440 N   0  0  0  0  0  0  0  0  0  0  0  0
   22.4483  -18.4472  -17.1878 C   0  0  0  0  0  0  0  0  0  0  0  0
   23.1423  -19.3534  -17.7071 O   0  0  0  0  0  0  0  0  0  0  0  0
   22.4365  -18.3495  -15.7726 N   0  0  0  0  0  0  0  0  0  0  0  0
   23.1648  -19.2695  -14.8985 C   0  0  1  0  0  0  0  0  0  0  0  0
   23.8751  -18.5339  -13.7985 C   0  0  0  0  0  0  0  0  0  0  0  0
   24.5636  -19.5093  -12.9352 C   0  0  0  0  0  0  0  0  0  0  0  0
   25.8145  -20.0491  -13.1087 C   0  0  0  0  0  0  0  0  0  0  0  0
   26.0659  -20.8973  -12.0947 N   0  0  0  0  0  0  0  0  0  0  0  0
   24.9997  -20.9287  -11.2497 C   0  0  0  0  0  0  0  0  0  0  0  0
   24.7693  -21.6263  -10.0916 C   0  0  0  0  0  0  0  0  0  0  0  0
   23.5682  -21.4612   -9.4286 C   0  0  0  0  0  0  0  0  0  0  0  0
   22.6206  -20.6066   -9.9295 C   0  0  0  0  0  0  0  0  0  0  0  0
   22.8737  -19.9165  -11.0934 C   0  0  0  0  0  0  0  0  0  0  0  0
   24.0548  -20.0538  -11.7812 C   0  0  0  0  0  0  0  0  0  0  0  0
   22.2260  -20.2733  -14.3979 C   0  0  0  0  0  0  0  0  0  0  0  0
   21.0929  -19.9258  -13.9929 O   0  0  0  0  0  0  0  0  0  0  0  0
   22.5675  -21.6046  -14.3629 O   0  0  0  0  0  0  0  0  0  0  0  0
  2  1  1  1
  3  2  1  0
  4  3  1  0
  5  4  2  0
  6  2  1  0
  6  7  2  0
  8  4  1  0
  9 10  1  0
 11 10  1  6
 11 12  1  0
 11 13  1  0
 12  6  1  0
 13 14  2  0
 13 15  1  0
 15 16  1  0
 16 27  1  0
 16 17  1  1
 18 17  1  0
 19 18  2  0
 20 19  1  0
 21 20  1  0
 21 26  2  0
 22 21  1  0
 23 22  2  0
 23 24  1  0
 24 25  2  0
 25 26  1  0
 26 18  1  0
 27 28  2  0
 27 29  1  0
M  END
$$$$
