DSW.pdb
     RDKit          3D

 29 30  0  0  1  0  0  0  0  0999 V2000
   21.5435  -17.0269  -19.0262 N   0  0  0  0  0  0  0  0  0  0  0  0
   20.6118  -15.9540  -19.1601 C   0  0  1  0  0  0  0  0  0  0  0  0
   19.5383  -16.1337  -18.0825 C   0  0  0  0  0  0  0  0  0  0  0  0
   18.7964  -17.3995  -18.2921 C   0  0  0  0  0  0  0  0  0  0  0  0
   18.3348  -17.6138  -19.4427 O   0  0  0  0  0  0  0  0  0  0  0  0
   21.2411  -14.6213  -18.8690 C   0  0  0  0  0  0  0  0  0  0  0  0
   22.0482  -14.5188  -17.9114 O   0  0  0  0  0  0  0  0  0  0  0  0
   18.5809  -18.3503  -17.3124 O   0  0  0  0  0  0  0  0  0  0  0  0
   19.9209  -10.8697  -20.6324 O   0  0  0  0  0  0  0  0  0  0  0  0
   21.2535  -11.1755  -20.5199 C   0  0  0  0  0  0  0  0  0  0  0  0
   21.5630  -12.1764  -19.4605 C   0  0  2  0  0  0  0  0  0  0  0  0
   20.9689  -13.4585  -19.6274 N   0  0  0  0  0  0  0  0  0  0  0  0
   21.3219  -11.5802  -18.1291 C   0  0  0  0  0  0  0  0  0  0  0  0
   20.2859  -11.9228  -17.5110 O   0  0  0  0  0  0  0  0  0  0  0  0
   22.1870  -10.6445  -17.5059 N   0  0  0  0  0  0  0  0  0  0  0  0
   21.8615   -9.9607  -16.2540 C   0  0  1  0  0  0  0  0  0  0  0  0
   23.1019   -9.5087  -15.5377 C   0  0  0  0  0  0  0  0  0  0  0  0
   22.7132   -8.7167  -14.3577 C   0  0  0  0  0  0  0  0  0  0  0  0
   22.4260   -9.1751  -13.0954 C   0  0  0  0  0  0  0  0  0  0  0  0
   22.1182   -8.1254  -12.3117 N   0  0  0  0  0  0  0  0  0  0  0  0
   22.1970   -6.9757  -13.0355 C   0  0  0  0  0  0  0  0  0  0  0  0
   21.9789   -5.6645  -12.6980 C   0  0  0  0  0  0  0  0  0  0  0  0
   22.1336   -4.6828  -13.6582 C   0  0  0  0  0  0  0  0  0  0  0  0
   22.5017   -5.0238  -14.9339 C   0  0  0  0  0  0  0  0  0  0  0  0
   22.7156   -6.3465  -15.2499 C   0  0  0  0  0  0  0  0  0  0  0  0
   22.5718   -7.3506  -14.3238 C   0  0  0  0  0  0  0  0  0  0  0  0
   20.9441   -8.8612  -16.5520 C   0  0  0  0  0  0  0  0  0  0  0  0
   19.9753   -8.6291  -15.7929 O   0  0  0  0  0  0  0  0  0  0  0  0
   21.1266   -8.0697  -17.6614 O   0  0  0  0  0  0  0  0  0  0  0  0
  2  1  1  1
  3  2  1  0
  4  3  1  0
  5  4  2  0
  6  2  1  0
  6  7  2  0
  8  4  1  0
  9 10  1  0
 11 10  1  6
 11 12  1  0
 11 13  1  0
 12  6  1  0
 13 14  2  0
 13 15  1  0
 15 16  1  0
 16 27  1  0
 16 17  1  6
 18 17  1  0
 19 18  2  0
 20 19  1  0
 21 20  1  0
 21 26  2  0
 22 21  1  0
 23 22  2  0
 23 24  1  0
 24 25  2  0
 25 26  1  0
 26 18  1  0
 27 28  2  0
 27 29  1  0
M  END
$$$$
