DSW.pdb
     RDKit          3D

 29 30  0  0  1  0  0  0  0  0999 V2000
   16.5119   -8.1833  -21.8539 N   0  0  0  0  0  0  0  0  0  0  0  0
   16.3389   -7.8947  -20.4669 C   0  0  1  0  0  0  0  0  0  0  0  0
   16.0330   -9.2144  -19.7523 C   0  0  0  0  0  0  0  0  0  0  0  0
   14.6754   -9.6943  -20.1031 C   0  0  0  0  0  0  0  0  0  0  0  0
   14.5663  -10.8882  -20.4850 O   0  0  0  0  0  0  0  0  0  0  0  0
   17.6044   -7.3898  -19.8341 C   0  0  0  0  0  0  0  0  0  0  0  0
   18.6853   -7.9904  -20.0573 O   0  0  0  0  0  0  0  0  0  0  0  0
   13.5321   -8.9204  -20.0385 O   0  0  0  0  0  0  0  0  0  0  0  0
   17.6219   -4.4043  -16.7046 O   0  0  0  0  0  0  0  0  0  0  0  0
   18.5984   -4.4029  -17.6681 C   0  0  0  0  0  0  0  0  0  0  0  0
   18.7919   -5.7168  -18.3435 C   0  0  2  0  0  0  0  0  0  0  0  0
   17.6439   -6.2569  -18.9876 N   0  0  0  0  0  0  0  0  0  0  0  0
   19.4488   -6.6604  -17.4137 C   0  0  0  0  0  0  0  0  0  0  0  0
   18.7185   -7.4260  -16.7407 O   0  0  0  0  0  0  0  0  0  0  0  0
   20.8527   -6.7548  -17.2333 N   0  0  0  0  0  0  0  0  0  0  0  0
   21.4832   -7.7230  -16.3357 C   0  0  1  0  0  0  0  0  0  0  0  0
   22.3079   -8.7207  -17.0976 C   0  0  0  0  0  0  0  0  0  0  0  0
   22.9627   -9.6316  -16.1425 C   0  0  0  0  0  0  0  0  0  0  0  0
   22.3693  -10.5714  -15.3359 C   0  0  0  0  0  0  0  0  0  0  0  0
   23.3231  -11.1912  -14.6170 N   0  0  0  0  0  0  0  0  0  0  0  0
   24.5422  -10.6765  -14.9346 C   0  0  0  0  0  0  0  0  0  0  0  0
   25.8043  -10.9658  -14.4826 C   0  0  0  0  0  0  0  0  0  0  0  0
   26.8827  -10.2670  -14.9907 C   0  0  0  0  0  0  0  0  0  0  0  0
   26.6854   -9.2952  -15.9372 C   0  0  0  0  0  0  0  0  0  0  0  0
   25.4096   -9.0220  -16.3763 C   0  0  0  0  0  0  0  0  0  0  0  0
   24.3126   -9.6944  -15.8956 C   0  0  0  0  0  0  0  0  0  0  0  0
   22.2582   -6.9901  -15.3349 C   0  0  0  0  0  0  0  0  0  0  0  0
   22.9127   -5.9754  -15.6679 O   0  0  0  0  0  0  0  0  0  0  0  0
   22.2825   -7.3983  -14.0222 O   0  0  0  0  0  0  0  0  0  0  0  0
  2  1  1  6
  3  2  1  0
  4  3  1  0
  5  4  2  0
  6  2  1  0
  6  7  2  0
  8  4  1  0
  9 10  1  0
 11 10  1  1
 11 12  1  0
 11 13  1  0
 12  6  1  0
 13 14  2  0
 13 15  1  0
 15 16  1  0
 16 27  1  0
 16 17  1  6
 18 17  1  0
 19 18  2  0
 20 19  1  0
 21 20  1  0
 21 26  2  0
 22 21  1  0
 23 22  2  0
 23 24  1  0
 24 25  2  0
 25 26  1  0
 26 18  1  0
 27 28  2  0
 27 29  1  0
M  END
$$$$
