DSW.pdb
     RDKit          3D

 29 30  0  0  1  0  0  0  0  0999 V2000
   23.5353  -16.5436  -16.3072 N   0  0  0  0  0  0  0  0  0  0  0  0
   24.7883  -16.5816  -15.6250 C   0  0  1  0  0  0  0  0  0  0  0  0
   24.8402  -15.3764  -14.6812 C   0  0  0  0  0  0  0  0  0  0  0  0
   24.4397  -14.1397  -15.3929 C   0  0  0  0  0  0  0  0  0  0  0  0
   23.3531  -14.1650  -16.0268 O   0  0  0  0  0  0  0  0  0  0  0  0
   24.9082  -17.7844  -14.7330 C   0  0  0  0  0  0  0  0  0  0  0  0
   23.9409  -18.1024  -13.9968 O   0  0  0  0  0  0  0  0  0  0  0  0
   25.1777  -12.9711  -15.4048 O   0  0  0  0  0  0  0  0  0  0  0  0
   28.5394  -20.2392  -14.4567 O   0  0  0  0  0  0  0  0  0  0  0  0
   27.2618  -20.7390  -14.4544 C   0  0  0  0  0  0  0  0  0  0  0  0
   26.2364  -19.7916  -13.9341 C   0  0  2  0  0  0  0  0  0  0  0  0
   26.0701  -18.5897  -14.6773 N   0  0  0  0  0  0  0  0  0  0  0  0
   26.4545  -19.5693  -12.4886 C   0  0  0  0  0  0  0  0  0  0  0  0
   26.8632  -18.4416  -12.1229 O   0  0  0  0  0  0  0  0  0  0  0  0
   26.2318  -20.5504  -11.4885 N   0  0  0  0  0  0  0  0  0  0  0  0
   26.9113  -20.5441  -10.1927 C   0  0  1  0  0  0  0  0  0  0  0  0
   26.3068  -19.5325   -9.2616 C   0  0  0  0  0  0  0  0  0  0  0  0
   26.3624  -20.0538   -7.8847 C   0  0  0  0  0  0  0  0  0  0  0  0
   25.5610  -21.0135   -7.3166 C   0  0  0  0  0  0  0  0  0  0  0  0
   25.9444  -21.1996   -6.0402 N   0  0  0  0  0  0  0  0  0  0  0  0
   26.9894  -20.3769   -5.7520 C   0  0  0  0  0  0  0  0  0  0  0  0
   27.7203  -20.1919   -4.6065 C   0  0  0  0  0  0  0  0  0  0  0  0
   28.7461  -19.2661   -4.5992 C   0  0  0  0  0  0  0  0  0  0  0  0
   29.0249  -18.5431   -5.7301 C   0  0  0  0  0  0  0  0  0  0  0  0
   28.2782  -18.7457   -6.8687 C   0  0  0  0  0  0  0  0  0  0  0  0
   27.2509  -19.6562   -6.9152 C   0  0  0  0  0  0  0  0  0  0  0  0
   26.8869  -21.9024   -9.6507 C   0  0  0  0  0  0  0  0  0  0  0  0
   25.9440  -22.6753   -9.9371 O   0  0  0  0  0  0  0  0  0  0  0  0
   27.8896  -22.3512   -8.8239 O   0  0  0  0  0  0  0  0  0  0  0  0
  2  1  1  1
  3  2  1  0
  4  3  1  0
  5  4  2  0
  6  2  1  0
  6  7  2  0
  8  4  1  0
  9 10  1  0
 11 10  1  6
 11 12  1  0
 11 13  1  0
 12  6  1  0
 13 14  2  0
 13 15  1  0
 15 16  1  0
 16 27  1  0
 16 17  1  1
 18 17  1  0
 19 18  2  0
 20 19  1  0
 21 20  1  0
 21 26  2  0
 22 21  1  0
 23 22  2  0
 23 24  1  0
 24 25  2  0
 25 26  1  0
 26 18  1  0
 27 28  2  0
 27 29  1  0
M  END
$$$$
