DSW.pdb
     RDKit          3D

 29 30  0  0  1  0  0  0  0  0999 V2000
   26.4978  -18.3304  -20.2689 N   0  0  0  0  0  0  0  0  0  0  0  0
   26.6239  -19.0645  -19.0515 C   0  0  1  0  0  0  0  0  0  0  0  0
   27.1744  -18.1097  -17.9880 C   0  0  0  0  0  0  0  0  0  0  0  0
   28.6156  -17.8505  -18.2164 C   0  0  0  0  0  0  0  0  0  0  0  0
   29.1952  -17.0706  -17.4172 O   0  0  0  0  0  0  0  0  0  0  0  0
   25.2911  -19.5139  -18.5237 C   0  0  0  0  0  0  0  0  0  0  0  0
   24.3564  -18.6799  -18.4244 O   0  0  0  0  0  0  0  0  0  0  0  0
   29.3563  -18.4056  -19.2428 O   0  0  0  0  0  0  0  0  0  0  0  0
   23.9014  -23.4789  -18.8171 O   0  0  0  0  0  0  0  0  0  0  0  0
   23.6894  -22.8544  -17.6141 C   0  0  0  0  0  0  0  0  0  0  0  0
   23.7860  -21.3687  -17.6719 C   0  0  2  0  0  0  0  0  0  0  0  0
   25.0289  -20.8462  -18.1266 N   0  0  0  0  0  0  0  0  0  0  0  0
   23.3349  -20.7920  -16.3873 C   0  0  0  0  0  0  0  0  0  0  0  0
   24.1938  -20.2455  -15.6550 O   0  0  0  0  0  0  0  0  0  0  0  0
   21.9926  -20.8178  -15.9293 N   0  0  0  0  0  0  0  0  0  0  0  0
   21.5482  -20.1456  -14.7080 C   0  0  1  0  0  0  0  0  0  0  0  0
   21.8819  -18.6815  -14.7358 C   0  0  0  0  0  0  0  0  0  0  0  0
   21.0950  -18.0297  -15.7972 C   0  0  0  0  0  0  0  0  0  0  0  0
   19.7306  -17.8893  -15.8657 C   0  0  0  0  0  0  0  0  0  0  0  0
   19.4180  -17.2317  -16.9974 N   0  0  0  0  0  0  0  0  0  0  0  0
   20.5556  -16.9330  -17.6820 C   0  0  0  0  0  0  0  0  0  0  0  0
   20.7645  -16.2842  -18.8719 C   0  0  0  0  0  0  0  0  0  0  0  0
   22.0554  -16.1223  -19.3379 C   0  0  0  0  0  0  0  0  0  0  0  0
   23.1121  -16.6082  -18.6123 C   0  0  0  0  0  0  0  0  0  0  0  0
   22.8785  -17.2560  -17.4202 C   0  0  0  0  0  0  0  0  0  0  0  0
   21.6105  -17.4367  -16.9241 C   0  0  0  0  0  0  0  0  0  0  0  0
   20.1184  -20.4001  -14.5336 C   0  0  0  0  0  0  0  0  0  0  0  0
   19.4618  -20.9455  -15.4502 O   0  0  0  0  0  0  0  0  0  0  0  0
   19.4749  -20.0481  -13.3707 O   0  0  0  0  0  0  0  0  0  0  0  0
  2  1  1  6
  3  2  1  0
  4  3  1  0
  5  4  2  0
  6  2  1  0
  6  7  2  0
  8  4  1  0
  9 10  1  0
 11 10  1  1
 11 12  1  0
 11 13  1  0
 12  6  1  0
 13 14  2  0
 13 15  1  0
 15 16  1  0
 16 27  1  0
 16 17  1  6
 18 17  1  0
 19 18  2  0
 20 19  1  0
 21 20  1  0
 21 26  2  0
 22 21  1  0
 23 22  2  0
 23 24  1  0
 24 25  2  0
 25 26  1  0
 26 18  1  0
 27 28  2  0
 27 29  1  0
M  END
$$$$
