RRM.pdb
     RDKit          3D

 31 30  0  0  1  0  0  0  0  0999 V2000
   27.8577  -20.7713  -16.1051 N   0  0  0  0  0  0  0  0  0  0  0  0
   27.6898  -20.1980  -14.8179 C   0  0  0  0  0  0  0  0  0  0  0  0
   27.3273  -20.8996  -13.7888 N   0  0  0  0  0  0  0  0  0  0  0  0
   27.9145  -18.7940  -14.5788 N   0  0  0  0  0  0  0  0  0  0  0  0
   27.6704  -17.8172  -15.6287 C   0  0  0  0  0  0  0  0  0  0  0  0
   26.7919  -16.7289  -15.0706 C   0  0  0  0  0  0  0  0  0  0  0  0
   25.3285  -16.9698  -15.2482 C   0  0  0  0  0  0  0  0  0  0  0  0
   24.9558  -17.6671  -16.5259 C   0  0  2  0  0  0  0  0  0  0  0  0
   24.6405  -16.7543  -17.5851 N   0  0  0  0  0  0  0  0  0  0  0  0
   23.8689  -18.6517  -16.3441 C   0  0  0  0  0  0  0  0  0  0  0  0
   22.6714  -18.4070  -16.6781 O   0  0  0  0  0  0  0  0  0  0  0  0
   27.1710  -20.4272  -12.8606 N   0  0  0  0  0  0  0  0  0  0  0  0
   21.9365  -25.9917  -16.3989 C   0  0  0  0  0  0  0  0  0  0  0  0
   21.4570  -26.1621  -15.0748 N   0  0  0  0  0  0  0  0  0  0  0  0
   20.5196  -27.0007  -14.8203 N   0  0  0  0  0  0  0  0  0  0  0  0
   22.0047  -25.4087  -13.9964 C   0  0  0  0  0  0  0  0  0  0  0  0
   23.0805  -24.4695  -14.1566 C   0  0  0  0  0  0  0  0  0  0  0  0
   22.4867  -23.1819  -14.7127 C   0  0  0  0  0  0  0  0  0  0  0  0
   23.5353  -22.1463  -14.9394 C   0  0  2  0  0  0  0  0  0  0  0  0
   23.0055  -20.8536  -15.5152 N   0  0  0  0  0  0  0  0  0  0  0  0
   24.1106  -19.9341  -15.7818 C   0  0  0  0  0  0  0  0  0  0  0  0
   22.0994  -20.2337  -14.5227 O   0  0  0  0  0  0  0  0  0  0  0  0
   22.5570  -19.7234  -13.4686 C   0  0  0  0  0  0  0  0  0  0  0  0
   20.1600  -27.1963  -13.8827 S   0  0  0  0  0  0  0  0  0  0  0  0
   19.2525  -14.7945  -13.8976 C   0  0  0  0  0  0  0  0  0  0  0  0
   17.8562  -15.9483  -13.8686 C   0  0  0  0  0  0  0  0  0  0  0  0
   18.4535  -17.5598  -13.1748 C   0  0  2  0  0  0  0  0  0  0  0  0
   19.4054  -18.1838  -14.1460 N   0  0  0  0  0  0  0  0  0  0  0  0
   19.8870  -19.5083  -13.6907 C   0  0  0  0  0  0  0  0  0  0  0  0
   20.6940  -20.1780  -14.6963 O   0  0  0  0  0  0  0  0  0  0  0  0
   18.7813  -20.4065  -13.3690 O   0  0  0  0  0  0  0  0  0  0  0  0
  2  3  2  0
  2  1  1  0
  4  2  1  0
  5  4  1  0
  6  5  1  0
  7  6  1  0
  8 10  1  0
  8  9  1  6
  8  7  1  0
 10 11  2  0
 13 12  1  0
 14 13  2  0
 15 16  1  0
 15 13  1  0
 17 18  1  0
 17 16  1  0
 19 18  1  6
 19 21  1  0
 20 19  1  0
 20 10  1  0
 21 22  2  0
 21 28  1  0
 23 24  1  0
 24 25  1  0
 25 26  1  0
 27 26  1  6
 27 29  1  0
 28 27  1  0
 29 31  2  0
 29 30  1  0
M  END
$$$$
