RRM.pdb
     RDKit          3D

 31 30  0  0  1  0  0  0  0  0999 V2000
   17.0965  -19.6905  -14.3237 N   0  0  0  0  0  0  0  0  0  0  0  0
   17.1014  -18.3081  -14.6444 C   0  0  0  0  0  0  0  0  0  0  0  0
   16.0457  -17.6947  -15.0825 N   0  0  0  0  0  0  0  0  0  0  0  0
   18.2876  -17.5012  -14.5001 N   0  0  0  0  0  0  0  0  0  0  0  0
   19.5848  -18.1252  -14.2904 C   0  0  0  0  0  0  0  0  0  0  0  0
   20.0529  -17.7924  -12.8984 C   0  0  0  0  0  0  0  0  0  0  0  0
   20.4724  -18.9777  -12.0921 C   0  0  0  0  0  0  0  0  0  0  0  0
   20.6852  -20.2356  -12.8858 C   0  0  2  0  0  0  0  0  0  0  0  0
   19.5941  -21.1578  -12.7680 N   0  0  0  0  0  0  0  0  0  0  0  0
   21.9670  -20.9003  -12.5714 C   0  0  0  0  0  0  0  0  0  0  0  0
   22.1257  -21.6069  -11.5316 O   0  0  0  0  0  0  0  0  0  0  0  0
   16.0710  -16.6535  -15.2385 N   0  0  0  0  0  0  0  0  0  0  0  0
   25.5971  -24.9870  -16.0037 C   0  0  0  0  0  0  0  0  0  0  0  0
   26.9771  -25.0739  -15.6871 N   0  0  0  0  0  0  0  0  0  0  0  0
   27.5576  -26.2147  -15.5948 N   0  0  0  0  0  0  0  0  0  0  0  0
   27.7517  -23.8986  -15.4658 C   0  0  0  0  0  0  0  0  0  0  0  0
   27.1973  -22.5729  -15.4867 C   0  0  0  0  0  0  0  0  0  0  0  0
   26.4517  -22.3664  -14.1747 C   0  0  0  0  0  0  0  0  0  0  0  0
   25.1167  -21.7394  -14.3942 C   0  0  1  0  0  0  0  0  0  0  0  0
   24.3391  -21.4926  -13.1223 N   0  0  0  0  0  0  0  0  0  0  0  0
   23.0974  -20.7822  -13.4244 C   0  0  0  0  0  0  0  0  0  0  0  0
   25.1620  -20.6518  -12.2243 O   0  0  0  0  0  0  0  0  0  0  0  0
   25.2266  -19.4075  -12.3929 C   0  0  0  0  0  0  0  0  0  0  0  0
   28.5457  -26.3414  -15.3621 S   0  0  0  0  0  0  0  0  0  0  0  0
   26.6236  -21.4007   -6.1982 C   0  0  0  0  0  0  0  0  0  0  0  0
   27.7926  -20.0449   -6.4757 C   0  0  0  0  0  0  0  0  0  0  0  0
   27.9561  -19.7891   -8.3041 C   0  0  1  0  0  0  0  0  0  0  0  0
   26.9365  -20.6301   -9.0054 N   0  0  0  0  0  0  0  0  0  0  0  0
   26.8565  -20.3280  -10.4531 C   0  0  0  0  0  0  0  0  0  0  0  0
   25.9090  -21.1854  -11.1446 O   0  0  0  0  0  0  0  0  0  0  0  0
   28.1462  -20.5024  -11.1158 O   0  0  0  0  0  0  0  0  0  0  0  0
  2  3  2  0
  2  1  1  0
  4  2  1  0
  5  4  1  0
  6  5  1  0
  7  6  1  0
  8 10  1  0
  8  9  1  1
  8  7  1  0
 10 11  2  0
 13 12  1  0
 14 13  2  0
 15 16  1  0
 15 13  1  0
 17 18  1  0
 17 16  1  0
 19 18  1  6
 19 21  1  0
 20 19  1  0
 20 10  1  0
 21 22  2  0
 21 28  1  0
 23 24  1  0
 24 25  1  0
 25 26  1  0
 27 26  1  6
 27 29  1  0
 28 27  1  0
 29 31  2  0
 29 30  1  0
M  END
$$$$
