RRM.pdb
     RDKit          3D

 31 30  0  0  1  0  0  0  0  0999 V2000
   22.2091  -21.9058  -16.1924 N   0  0  0  0  0  0  0  0  0  0  0  0
   23.1323  -21.2254  -15.3566 C   0  0  0  0  0  0  0  0  0  0  0  0
   24.0214  -20.4071  -15.8285 N   0  0  0  0  0  0  0  0  0  0  0  0
   23.1344  -21.4056  -13.9261 N   0  0  0  0  0  0  0  0  0  0  0  0
   22.5329  -20.4081  -13.0547 C   0  0  0  0  0  0  0  0  0  0  0  0
   22.6644  -20.8796  -11.6306 C   0  0  0  0  0  0  0  0  0  0  0  0
   22.0636  -19.9575  -10.6208 C   0  0  0  0  0  0  0  0  0  0  0  0
   22.3060  -20.3468   -9.1900 C   0  0  2  0  0  0  0  0  0  0  0  0
   23.6994  -20.4032   -8.8583 N   0  0  0  0  0  0  0  0  0  0  0  0
   21.6290  -21.6064   -8.8175 C   0  0  0  0  0  0  0  0  0  0  0  0
   22.2032  -22.7330   -8.8990 O   0  0  0  0  0  0  0  0  0  0  0  0
   24.7986  -20.0620  -15.2072 N   0  0  0  0  0  0  0  0  0  0  0  0
   16.0204  -24.7078   -3.9352 C   0  0  0  0  0  0  0  0  0  0  0  0
   16.3876  -25.8054   -4.7552 N   0  0  0  0  0  0  0  0  0  0  0  0
   15.5605  -26.7605   -4.9806 N   0  0  0  0  0  0  0  0  0  0  0  0
   17.6810  -25.8737   -5.3493 C   0  0  0  0  0  0  0  0  0  0  0  0
   18.5014  -24.7182   -5.5876 C   0  0  0  0  0  0  0  0  0  0  0  0
   17.7703  -23.8348   -6.5900 C   0  0  0  0  0  0  0  0  0  0  0  0
   18.5689  -22.6258   -6.9420 C   0  0  1  0  0  0  0  0  0  0  0  0
   19.6403  -22.8791   -7.9770 N   0  0  0  0  0  0  0  0  0  0  0  0
   20.2892  -21.6214   -8.3442 C   0  0  0  0  0  0  0  0  0  0  0  0
   19.0025  -23.4552   -9.1820 O   0  0  0  0  0  0  0  0  0  0  0  0
   18.1767  -22.7846   -9.8522 C   0  0  0  0  0  0  0  0  0  0  0  0
   15.7613  -27.5686   -5.5749 S   0  0  0  0  0  0  0  0  0  0  0  0
   17.8732  -29.7058  -13.8686 C   0  0  0  0  0  0  0  0  0  0  0  0
   19.0508  -28.7955  -12.8360 C   0  0  0  0  0  0  0  0  0  0  0  0
   18.1668  -27.3455  -12.0937 C   0  0  1  0  0  0  0  0  0  0  0  0
   19.1541  -26.5047  -11.3473 N   0  0  0  0  0  0  0  0  0  0  0  0
   18.5395  -25.2806  -10.7841 C   0  0  0  0  0  0  0  0  0  0  0  0
   19.2781  -24.7666   -9.6433 O   0  0  0  0  0  0  0  0  0  0  0  0
   17.1723  -25.5196  -10.3297 O   0  0  0  0  0  0  0  0  0  0  0  0
  2  3  2  0
  2  1  1  0
  4  2  1  0
  5  4  1  0
  6  5  1  0
  7  6  1  0
  8 10  1  0
  8  9  1  6
  8  7  1  0
 10 11  2  0
 13 12  1  0
 14 13  2  0
 15 16  1  0
 15 13  1  0
 17 18  1  0
 17 16  1  0
 19 18  1  1
 19 21  1  0
 20 19  1  0
 20 10  1  0
 21 22  2  0
 21 28  1  0
 23 24  1  0
 24 25  1  0
 25 26  1  0
 27 26  1  1
 27 29  1  0
 28 27  1  0
 29 31  2  0
 29 30  1  0
M  END
$$$$
