RRM.pdb
     RDKit          3D

 31 30  0  0  1  0  0  0  0  0999 V2000
   29.1180  -19.8847  -20.0052 N   0  0  0  0  0  0  0  0  0  0  0  0
   29.2055  -18.6048  -19.3984 C   0  0  0  0  0  0  0  0  0  0  0  0
   28.9730  -17.5099  -20.0539 N   0  0  0  0  0  0  0  0  0  0  0  0
   29.5594  -18.4476  -18.0095 N   0  0  0  0  0  0  0  0  0  0  0  0
   29.0937  -17.2950  -17.2542 C   0  0  0  0  0  0  0  0  0  0  0  0
   28.2856  -17.7888  -16.0834 C   0  0  0  0  0  0  0  0  0  0  0  0
   28.6839  -19.1409  -15.5892 C   0  0  0  0  0  0  0  0  0  0  0  0
   27.5571  -20.1292  -15.4824 C   0  0  2  0  0  0  0  0  0  0  0  0
   26.8295  -20.2764  -16.7085 N   0  0  0  0  0  0  0  0  0  0  0  0
   26.6395  -19.8314  -14.3630 C   0  0  0  0  0  0  0  0  0  0  0  0
   26.3845  -18.6463  -13.9940 O   0  0  0  0  0  0  0  0  0  0  0  0
   29.0362  -16.5807  -19.5622 N   0  0  0  0  0  0  0  0  0  0  0  0
   20.3503  -21.0873   -9.6133 C   0  0  0  0  0  0  0  0  0  0  0  0
   19.7726  -20.4430  -10.7373 N   0  0  0  0  0  0  0  0  0  0  0  0
   18.8277  -19.5875  -10.5881 N   0  0  0  0  0  0  0  0  0  0  0  0
   20.2275  -20.7281  -12.0572 C   0  0  0  0  0  0  0  0  0  0  0  0
   21.2991  -21.6424  -12.3419 C   0  0  0  0  0  0  0  0  0  0  0  0
   22.6021  -20.9596  -11.9473 C   0  0  0  0  0  0  0  0  0  0  0  0
   23.6897  -21.2435  -12.9271 C   0  0  2  0  0  0  0  0  0  0  0  0
   24.9937  -20.5474  -12.6137 N   0  0  0  0  0  0  0  0  0  0  0  0
   25.9894  -20.8650  -13.6363 C   0  0  0  0  0  0  0  0  0  0  0  0
   25.4837  -21.0346  -11.3048 O   0  0  0  0  0  0  0  0  0  0  0  0
   25.4211  -22.2557  -11.0117 C   0  0  0  0  0  0  0  0  0  0  0  0
   18.3745  -19.0891  -11.3581 S   0  0  0  0  0  0  0  0  0  0  0  0
   29.7781  -19.1114   -6.2622 C   0  0  0  0  0  0  0  0  0  0  0  0
   28.0536  -18.9771   -5.7240 C   0  0  0  0  0  0  0  0  0  0  0  0
   27.0498  -20.1968   -6.6934 C   0  0  1  0  0  0  0  0  0  0  0  0
   26.8950  -19.6943   -8.0942 N   0  0  0  0  0  0  0  0  0  0  0  0
   26.1813  -20.6585   -8.9628 C   0  0  0  0  0  0  0  0  0  0  0  0
   26.0409  -20.1748  -10.3257 O   0  0  0  0  0  0  0  0  0  0  0  0
   24.8342  -20.9369   -8.4721 O   0  0  0  0  0  0  0  0  0  0  0  0
  2  3  2  0
  2  1  1  0
  4  2  1  0
  5  4  1  0
  6  5  1  0
  7  6  1  0
  8 10  1  0
  8  9  1  6
  8  7  1  0
 10 11  2  0
 13 12  1  0
 14 13  2  0
 15 16  1  0
 15 13  1  0
 17 18  1  0
 17 16  1  0
 19 18  1  6
 19 21  1  0
 20 19  1  0
 20 10  1  0
 21 22  2  0
 21 28  1  0
 23 24  1  0
 24 25  1  0
 25 26  1  0
 27 26  1  1
 27 29  1  0
 28 27  1  0
 29 31  2  0
 29 30  1  0
M  END
$$$$
