RRM.pdb
     RDKit          3D

 31 30  0  0  1  0  0  0  0  0999 V2000
   15.0402  -21.8960   -7.9358 N   0  0  0  0  0  0  0  0  0  0  0  0
   13.7692  -22.4144   -7.5760 C   0  0  0  0  0  0  0  0  0  0  0  0
   12.6840  -22.0889   -8.2077 N   0  0  0  0  0  0  0  0  0  0  0  0
   13.6105  -23.3388   -6.4809 N   0  0  0  0  0  0  0  0  0  0  0  0
   14.7743  -23.8823   -5.7981 C   0  0  0  0  0  0  0  0  0  0  0  0
   15.7015  -24.4667   -6.8308 C   0  0  0  0  0  0  0  0  0  0  0  0
   16.9342  -25.0922   -6.2651 C   0  0  0  0  0  0  0  0  0  0  0  0
   16.8198  -26.5629   -5.9797 C   0  0  2  0  0  0  0  0  0  0  0  0
   16.0535  -27.2625   -6.9687 N   0  0  0  0  0  0  0  0  0  0  0  0
   16.3035  -26.8439   -4.6239 C   0  0  0  0  0  0  0  0  0  0  0  0
   15.0710  -26.7673   -4.3398 O   0  0  0  0  0  0  0  0  0  0  0  0
   11.7538  -22.4530   -7.8743 N   0  0  0  0  0  0  0  0  0  0  0  0
   17.7897  -28.5783    2.7669 C   0  0  0  0  0  0  0  0  0  0  0  0
   17.1948  -29.8649    2.7133 N   0  0  0  0  0  0  0  0  0  0  0  0
   16.5944  -30.3523    3.7374 N   0  0  0  0  0  0  0  0  0  0  0  0
   17.2477  -30.6457    1.5226 C   0  0  0  0  0  0  0  0  0  0  0  0
   17.8663  -30.1908    0.3078 C   0  0  0  0  0  0  0  0  0  0  0  0
   16.9734  -29.1086   -0.2847 C   0  0  0  0  0  0  0  0  0  0  0  0
   17.4486  -28.6807   -1.6317 C   0  0  1  0  0  0  0  0  0  0  0  0
   16.6272  -27.5721   -2.2477 N   0  0  0  0  0  0  0  0  0  0  0  0
   17.1674  -27.2182   -3.5595 C   0  0  0  0  0  0  0  0  0  0  0  0
   16.7029  -26.3857   -1.3660 O   0  0  0  0  0  0  0  0  0  0  0  0
   17.7602  -25.7093   -1.2918 C   0  0  0  0  0  0  0  0  0  0  0  0
   16.1203  -31.2588    3.7504 S   0  0  0  0  0  0  0  0  0  0  0  0
   13.3052  -20.0970    1.6387 C   0  0  0  0  0  0  0  0  0  0  0  0
   13.0266  -21.7553    0.9647 C   0  0  0  0  0  0  0  0  0  0  0  0
   14.6305  -22.6817    1.0298 C   0  0  1  0  0  0  0  0  0  0  0  0
   14.4788  -23.9687    0.2819 N   0  0  0  0  0  0  0  0  0  0  0  0
   15.7499  -24.7242    0.1974 C   0  0  0  0  0  0  0  0  0  0  0  0
   15.6137  -25.9498   -0.5710 O   0  0  0  0  0  0  0  0  0  0  0  0
   16.2430  -25.1059    1.5180 O   0  0  0  0  0  0  0  0  0  0  0  0
  2  3  2  0
  2  1  1  0
  4  2  1  0
  5  4  1  0
  6  5  1  0
  7  6  1  0
  8 10  1  0
  8  9  1  6
  8  7  1  0
 10 11  2  0
 13 12  1  0
 14 13  2  0
 15 16  1  0
 15 13  1  0
 17 18  1  0
 17 16  1  0
 19 18  1  6
 19 21  1  0
 20 19  1  0
 20 10  1  0
 21 22  2  0
 21 28  1  0
 23 24  1  0
 24 25  1  0
 25 26  1  0
 27 26  1  1
 27 29  1  0
 28 27  1  0
 29 31  2  0
 29 30  1  0
M  END
$$$$
