RRM.pdb
     RDKit          3D

 31 30  0  0  1  0  0  0  0  0999 V2000
   20.6845  -20.6990  -12.5147 N   0  0  0  0  0  0  0  0  0  0  0  0
   21.3190  -21.7232  -11.7650 C   0  0  0  0  0  0  0  0  0  0  0  0
   20.8752  -22.1126  -10.6099 N   0  0  0  0  0  0  0  0  0  0  0  0
   22.5005  -22.3940  -12.2476 N   0  0  0  0  0  0  0  0  0  0  0  0
   22.9069  -22.2659  -13.6384 C   0  0  0  0  0  0  0  0  0  0  0  0
   23.6177  -20.9490  -13.8065 C   0  0  0  0  0  0  0  0  0  0  0  0
   25.0596  -21.0726  -14.1765 C   0  0  0  0  0  0  0  0  0  0  0  0
   26.0218  -20.8339  -13.0474 C   0  0  2  0  0  0  0  0  0  0  0  0
   25.6966  -19.6694  -12.2775 N   0  0  0  0  0  0  0  0  0  0  0  0
   27.4292  -20.7873  -13.4957 C   0  0  0  0  0  0  0  0  0  0  0  0
   27.8367  -19.9561  -14.3608 O   0  0  0  0  0  0  0  0  0  0  0  0
   21.4262  -22.8092  -10.0440 N   0  0  0  0  0  0  0  0  0  0  0  0
   33.8741  -25.6569  -13.7904 C   0  0  0  0  0  0  0  0  0  0  0  0
   34.7269  -24.5598  -13.5051 N   0  0  0  0  0  0  0  0  0  0  0  0
   35.9300  -24.5319  -13.9509 N   0  0  0  0  0  0  0  0  0  0  0  0
   34.2690  -23.4630  -12.7192 C   0  0  0  0  0  0  0  0  0  0  0  0
   32.9504  -23.3953  -12.1518 C   0  0  0  0  0  0  0  0  0  0  0  0
   32.0679  -22.6324  -13.1309 C   0  0  0  0  0  0  0  0  0  0  0  0
   30.6589  -22.5485  -12.6502 C   0  0  1  0  0  0  0  0  0  0  0  0
   29.7635  -21.6992  -13.5220 N   0  0  0  0  0  0  0  0  0  0  0  0
   28.4072  -21.6779  -12.9764 C   0  0  0  0  0  0  0  0  0  0  0  0
   29.7225  -22.2961  -14.8758 O   0  0  0  0  0  0  0  0  0  0  0  0
   29.1569  -23.4019  -15.0713 C   0  0  0  0  0  0  0  0  0  0  0  0
   36.5788  -23.7534  -13.8106 S   0  0  0  0  0  0  0  0  0  0  0  0
   25.6652  -21.4294  -17.8831 C   0  0  0  0  0  0  0  0  0  0  0  0
   26.3586  -22.3839  -19.2579 C   0  0  0  0  0  0  0  0  0  0  0  0
   28.1928  -22.4948  -19.0162 C   0  0  2  0  0  0  0  0  0  0  0  0
   28.5189  -22.1362  -17.6007 N   0  0  0  0  0  0  0  0  0  0  0  0
   29.9750  -22.1703  -17.3321 C   0  0  0  0  0  0  0  0  0  0  0  0
   30.3039  -21.6720  -16.0075 O   0  0  0  0  0  0  0  0  0  0  0  0
   30.7222  -21.3568  -18.2875 O   0  0  0  0  0  0  0  0  0  0  0  0
  2  3  2  0
  2  1  1  0
  4  2  1  0
  5  4  1  0
  6  5  1  0
  7  6  1  0
  8 10  1  0
  8  9  1  6
  8  7  1  0
 10 11  2  0
 13 12  1  0
 14 13  2  0
 15 16  1  0
 15 13  1  0
 17 18  1  0
 17 16  1  0
 19 18  1  1
 19 21  1  0
 20 19  1  0
 20 10  1  0
 21 22  2  0
 21 28  1  0
 23 24  1  0
 24 25  1  0
 25 26  1  0
 27 26  1  6
 27 29  1  0
 28 27  1  0
 29 31  2  0
 29 30  1  0
M  END
$$$$
