RRM.pdb
     RDKit          3D

 31 30  0  0  1  0  0  0  0  0999 V2000
   27.2972  -24.3152  -16.2520 N   0  0  0  0  0  0  0  0  0  0  0  0
   28.6119  -24.3416  -16.7855 C   0  0  0  0  0  0  0  0  0  0  0  0
   29.2254  -25.4507  -17.0615 N   0  0  0  0  0  0  0  0  0  0  0  0
   29.3453  -23.1294  -17.0532 N   0  0  0  0  0  0  0  0  0  0  0  0
   28.7604  -21.8311  -16.7564 C   0  0  0  0  0  0  0  0  0  0  0  0
   29.1210  -21.4593  -15.3424 C   0  0  0  0  0  0  0  0  0  0  0  0
   28.6140  -20.1223  -14.9109 C   0  0  0  0  0  0  0  0  0  0  0  0
   27.2197  -19.7999  -15.3689 C   0  0  2  0  0  0  0  0  0  0  0  0
   27.1831  -18.7396  -16.3327 N   0  0  0  0  0  0  0  0  0  0  0  0
   26.3001  -19.5181  -14.2470 C   0  0  0  0  0  0  0  0  0  0  0  0
   26.0703  -18.3403  -13.8400 O   0  0  0  0  0  0  0  0  0  0  0  0
   30.2064  -25.4263  -17.4438 N   0  0  0  0  0  0  0  0  0  0  0  0
   18.8138  -19.6888  -11.1035 C   0  0  0  0  0  0  0  0  0  0  0  0
   19.2116  -19.7909  -12.4612 N   0  0  0  0  0  0  0  0  0  0  0  0
   18.5860  -19.1460  -13.3775 N   0  0  0  0  0  0  0  0  0  0  0  0
   20.3147  -20.6093  -12.8402 C   0  0  0  0  0  0  0  0  0  0  0  0
   21.0589  -21.4111  -11.9083 C   0  0  0  0  0  0  0  0  0  0  0  0
   22.3691  -20.6883  -11.6248 C   0  0  0  0  0  0  0  0  0  0  0  0
   23.3509  -20.8762  -12.7312 C   0  0  1  0  0  0  0  0  0  0  0  0
   24.7028  -20.2569  -12.4627 N   0  0  0  0  0  0  0  0  0  0  0  0
   25.6194  -20.5597  -13.5608 C   0  0  0  0  0  0  0  0  0  0  0  0
   25.2464  -20.8385  -11.2149 O   0  0  0  0  0  0  0  0  0  0  0  0
   25.2821  -22.0846  -11.0515 C   0  0  0  0  0  0  0  0  0  0  0  0
   18.8250  -19.1796  -14.3717 S   0  0  0  0  0  0  0  0  0  0  0  0
   29.4170  -18.8111   -6.6483 C   0  0  0  0  0  0  0  0  0  0  0  0
   28.0508  -19.3423   -5.5838 C   0  0  0  0  0  0  0  0  0  0  0  0
   26.9171  -20.4095   -6.5893 C   0  0  1  0  0  0  0  0  0  0  0  0
   26.7924  -19.8275   -7.9620 N   0  0  0  0  0  0  0  0  0  0  0  0
   25.9446  -20.6557   -8.8501 C   0  0  0  0  0  0  0  0  0  0  0  0
   25.7488  -20.0447  -10.1537 O   0  0  0  0  0  0  0  0  0  0  0  0
   24.6171  -20.8757   -8.2825 O   0  0  0  0  0  0  0  0  0  0  0  0
  2  3  2  0
  2  1  1  0
  4  2  1  0
  5  4  1  0
  6  5  1  0
  7  6  1  0
  8 10  1  0
  8  9  1  6
  8  7  1  0
 10 11  2  0
 13 12  1  0
 14 13  2  0
 15 16  1  0
 15 13  1  0
 17 18  1  0
 17 16  1  0
 19 18  1  6
 19 21  1  0
 20 19  1  0
 20 10  1  0
 21 22  2  0
 21 28  1  0
 23 24  1  0
 24 25  1  0
 25 26  1  0
 27 26  1  1
 27 29  1  0
 28 27  1  0
 29 31  2  0
 29 30  1  0
M  END
$$$$
