DVN.pdb
     RDKit          3D

 24 23  0  0  1  0  0  0  0  0999 V2000
    8.6892  -17.6312   17.2873 N   0  0  0  0  0  0  0  0  0  0  0  0
   10.0216  -17.4701   17.7959 C   0  0  1  0  0  0  0  0  0  0  0  0
   10.9553  -17.1150   16.6884 C   0  0  0  0  0  0  0  0  0  0  0  0
   10.9400  -18.1703   15.6555 C   0  0  0  0  0  0  0  0  0  0  0  0
   10.6227  -17.8675   14.4836 O   0  0  0  0  0  0  0  0  0  0  0  0
   10.0501  -16.4897   18.9125 C   0  0  0  0  0  0  0  0  0  0  0  0
   11.1509  -16.2426   19.4678 O   0  0  0  0  0  0  0  0  0  0  0  0
   11.2612  -19.4916   15.9166 O   0  0  0  0  0  0  0  0  0  0  0  0
    7.7764  -13.0946   19.3519 C   0  0  0  0  0  0  0  0  0  0  0  0
    7.7707  -14.0065   20.5516 C   0  0  2  0  0  0  0  0  0  0  0  0
    7.6912  -13.1896   21.7992 C   0  0  0  0  0  0  0  0  0  0  0  0
    8.9167  -14.9842   20.5536 C   0  0  2  0  0  0  0  0  0  0  0  0
    8.9055  -15.8263   19.3765 N   0  0  0  0  0  0  0  0  0  0  0  0
    8.9341  -15.8045   21.8037 C   0  0  0  0  0  0  0  0  0  0  0  0
    7.9882  -16.5811   22.0877 O   0  0  0  0  0  0  0  0  0  0  0  0
   12.7998  -17.8881   22.2274 N   0  0  0  0  0  0  0  0  0  0  0  0
   12.2180  -17.6829   23.5286 C   0  0  0  0  0  0  0  0  0  0  0  0
   13.0246  -17.3778   24.4267 O   0  0  0  0  0  0  0  0  0  0  0  0
   10.7736  -17.8329   23.7364 C   0  0  0  0  0  0  0  0  0  0  0  0
    9.9915  -16.5924   23.9183 C   0  0  2  0  0  0  0  0  0  0  0  0
   10.0177  -15.7415   22.7216 N   0  0  0  0  0  0  0  0  0  0  0  0
   10.3972  -15.8395   25.1133 C   0  0  0  0  0  0  0  0  0  0  0  0
   10.9424  -14.7272   25.0242 O   0  0  0  0  0  0  0  0  0  0  0  0
   10.1807  -16.3575   26.4033 O   0  0  0  0  0  0  0  0  0  0  0  0
  2  1  1  6
  3  2  1  0
  4  3  1  0
  4  5  2  0
  6  2  1  0
  6  7  2  0
  8  4  1  0
 10  9  1  6
 10 12  1  0
 11 10  1  0
 12 13  1  6
 13  6  1  0
 14 12  1  0
 15 14  2  0
 16 17  1  0
 17 19  1  0
 17 18  2  0
 20 19  1  6
 20 22  1  0
 20 21  1  0
 21 14  1  0
 22 24  1  0
 23 22  2  0
M  END
$$$$
