DVN.pdb
     RDKit          3D

 24 23  0  0  1  0  0  0  0  0999 V2000
    9.7247  -17.2925   16.1034 N   0  0  0  0  0  0  0  0  0  0  0  0
    8.8211  -17.5498   17.1884 C   0  0  1  0  0  0  0  0  0  0  0  0
    8.7987  -19.0072   17.5042 C   0  0  0  0  0  0  0  0  0  0  0  0
    8.4167  -19.7793   16.3047 C   0  0  0  0  0  0  0  0  0  0  0  0
    9.0956  -20.7811   15.9865 O   0  0  0  0  0  0  0  0  0  0  0  0
    9.1523  -16.7080   18.3676 C   0  0  0  0  0  0  0  0  0  0  0  0
   10.3299  -16.7269   18.8082 O   0  0  0  0  0  0  0  0  0  0  0  0
    7.3360  -19.4507   15.5038 O   0  0  0  0  0  0  0  0  0  0  0  0
    7.5234  -13.0573   19.2204 C   0  0  0  0  0  0  0  0  0  0  0  0
    7.5757  -13.9861   20.4060 C   0  0  2  0  0  0  0  0  0  0  0  0
    7.8544  -13.1994   21.6444 C   0  0  0  0  0  0  0  0  0  0  0  0
    8.5242  -15.1397   20.2089 C   0  0  2  0  0  0  0  0  0  0  0  0
    8.2119  -15.8926   19.0129 N   0  0  0  0  0  0  0  0  0  0  0  0
    8.5629  -16.0280   21.4111 C   0  0  0  0  0  0  0  0  0  0  0  0
    8.0270  -17.1643   21.4000 O   0  0  0  0  0  0  0  0  0  0  0  0
   13.4652  -17.6688   23.2455 N   0  0  0  0  0  0  0  0  0  0  0  0
   12.0886  -18.0492   23.0607 C   0  0  0  0  0  0  0  0  0  0  0  0
   11.7982  -19.1936   23.4562 O   0  0  0  0  0  0  0  0  0  0  0  0
   11.1306  -17.1235   22.4461 C   0  0  0  0  0  0  0  0  0  0  0  0
   10.0664  -16.5854   23.3187 C   0  0  2  0  0  0  0  0  0  0  0  0
    9.2053  -15.6269   22.6140 N   0  0  0  0  0  0  0  0  0  0  0  0
   10.5943  -16.0089   24.5629 C   0  0  0  0  0  0  0  0  0  0  0  0
   10.5543  -16.6346   25.6350 O   0  0  0  0  0  0  0  0  0  0  0  0
   11.1643  -14.7227   24.5801 O   0  0  0  0  0  0  0  0  0  0  0  0
  2  1  1  6
  3  2  1  0
  4  3  1  0
  4  5  2  0
  6  2  1  0
  6  7  2  0
  8  4  1  0
 10  9  1  6
 10 12  1  0
 11 10  1  0
 12 13  1  6
 13  6  1  0
 14 12  1  0
 15 14  2  0
 16 17  1  0
 17 19  1  0
 17 18  2  0
 20 19  1  6
 20 22  1  0
 20 21  1  0
 21 14  1  0
 22 24  1  0
 23 22  2  0
M  END
$$$$
