DVN.pdb
     RDKit          3D

 24 23  0  0  1  0  0  0  0  0999 V2000
    9.4658  -17.7376   16.7129 N   0  0  0  0  0  0  0  0  0  0  0  0
    8.4943  -17.6451   17.7653 C   0  0  1  0  0  0  0  0  0  0  0  0
    8.1145  -19.0085   18.2358 C   0  0  0  0  0  0  0  0  0  0  0  0
    7.2784  -19.6797   17.2203 C   0  0  0  0  0  0  0  0  0  0  0  0
    6.5761  -18.9818   16.4551 O   0  0  0  0  0  0  0  0  0  0  0  0
    8.9810  -16.7696   18.8632 C   0  0  0  0  0  0  0  0  0  0  0  0
   10.2183  -16.7063   19.0782 O   0  0  0  0  0  0  0  0  0  0  0  0
    7.2289  -21.0550   17.0674 O   0  0  0  0  0  0  0  0  0  0  0  0
    7.3002  -13.1234   19.8606 C   0  0  0  0  0  0  0  0  0  0  0  0
    7.5982  -14.0385   21.0201 C   0  0  2  0  0  0  0  0  0  0  0  0
    7.9692  -13.2246   22.2159 C   0  0  0  0  0  0  0  0  0  0  0  0
    8.6130  -15.1007   20.6863 C   0  0  2  0  0  0  0  0  0  0  0  0
    8.1240  -16.0099   19.6719 N   0  0  0  0  0  0  0  0  0  0  0  0
    9.0520  -15.8417   21.9086 C   0  0  0  0  0  0  0  0  0  0  0  0
    8.2849  -16.6458   22.4946 O   0  0  0  0  0  0  0  0  0  0  0  0
   11.9457  -18.4830   25.3984 N   0  0  0  0  0  0  0  0  0  0  0  0
   12.7470  -17.4464   24.8008 C   0  0  0  0  0  0  0  0  0  0  0  0
   13.8809  -17.3032   25.2946 O   0  0  0  0  0  0  0  0  0  0  0  0
   12.2251  -16.6407   23.6914 C   0  0  0  0  0  0  0  0  0  0  0  0
   10.7575  -16.4916   23.6053 C   0  0  2  0  0  0  0  0  0  0  0  0
   10.3514  -15.6691   22.4585 N   0  0  0  0  0  0  0  0  0  0  0  0
   10.1671  -15.9893   24.8537 C   0  0  0  0  0  0  0  0  0  0  0  0
   10.0280  -14.7727   25.0611 O   0  0  0  0  0  0  0  0  0  0  0  0
    9.7391  -16.8749   25.8597 O   0  0  0  0  0  0  0  0  0  0  0  0
  2  1  1  6
  3  2  1  0
  4  3  1  0
  4  5  2  0
  6  2  1  0
  6  7  2  0
  8  4  1  0
 10  9  1  6
 10 12  1  0
 11 10  1  0
 12 13  1  6
 13  6  1  0
 14 12  1  0
 15 14  2  0
 16 17  1  0
 17 19  1  0
 17 18  2  0
 20 19  1  1
 20 22  1  0
 20 21  1  0
 21 14  1  0
 22 24  1  0
 23 22  2  0
M  END
$$$$
