DVN.pdb
     RDKit          3D

 24 23  0  0  1  0  0  0  0  0999 V2000
    8.0756  -14.9772   20.7815 N   0  0  0  0  0  0  0  0  0  0  0  0
    7.6901  -15.6786   21.9729 C   0  0  1  0  0  0  0  0  0  0  0  0
    8.0776  -17.1153   21.8718 C   0  0  0  0  0  0  0  0  0  0  0  0
    7.4070  -17.7402   20.7139 C   0  0  0  0  0  0  0  0  0  0  0  0
    8.1067  -18.2271   19.7978 O   0  0  0  0  0  0  0  0  0  0  0  0
    8.2415  -15.0152   23.1830 C   0  0  0  0  0  0  0  0  0  0  0  0
    9.4479  -14.6607   23.1773 O   0  0  0  0  0  0  0  0  0  0  0  0
    6.0305  -17.8172   20.5856 O   0  0  0  0  0  0  0  0  0  0  0  0
    6.2144  -12.2946   25.2171 C   0  0  0  0  0  0  0  0  0  0  0  0
    6.9330  -13.2295   26.1554 C   0  0  2  0  0  0  0  0  0  0  0  0
    7.4390  -12.4632   27.3331 C   0  0  0  0  0  0  0  0  0  0  0  0
    8.0012  -14.0431   25.4725 C   0  0  2  0  0  0  0  0  0  0  0  0
    7.4786  -14.7655   24.3325 N   0  0  0  0  0  0  0  0  0  0  0  0
    8.6822  -14.9670   26.4309 C   0  0  0  0  0  0  0  0  0  0  0  0
    8.0507  -15.8839   27.0134 O   0  0  0  0  0  0  0  0  0  0  0  0
   13.2183  -15.2224   25.1666 N   0  0  0  0  0  0  0  0  0  0  0  0
   12.3779  -16.2029   25.8037 C   0  0  0  0  0  0  0  0  0  0  0  0
   11.9363  -17.0907   25.0507 O   0  0  0  0  0  0  0  0  0  0  0  0
   12.0887  -16.1236   27.2398 C   0  0  0  0  0  0  0  0  0  0  0  0
   10.6943  -15.8234   27.6259 C   0  0  2  0  0  0  0  0  0  0  0  0
   10.0682  -14.8486   26.7234 N   0  0  0  0  0  0  0  0  0  0  0  0
   10.5756  -15.4004   29.0281 C   0  0  0  0  0  0  0  0  0  0  0  0
   10.2355  -14.2446   29.3296 O   0  0  0  0  0  0  0  0  0  0  0  0
   10.8455  -16.2954   30.0795 O   0  0  0  0  0  0  0  0  0  0  0  0
  2  1  1  6
  3  2  1  0
  4  3  1  0
  4  5  2  0
  6  2  1  0
  6  7  2  0
  8  4  1  0
 10  9  1  6
 10 12  1  0
 11 10  1  0
 12 13  1  6
 13  6  1  0
 14 12  1  0
 15 14  2  0
 16 17  1  0
 17 19  1  0
 17 18  2  0
 20 19  1  6
 20 22  1  0
 20 21  1  0
 21 14  1  0
 22 24  1  0
 23 22  2  0
M  END
$$$$
