DVN.pdb
     RDKit          3D

 24 23  0  0  1  0  0  0  0  0999 V2000
    8.6778  -15.1915   20.7899 N   0  0  0  0  0  0  0  0  0  0  0  0
    8.2664  -15.8847   21.9773 C   0  0  1  0  0  0  0  0  0  0  0  0
    8.7552  -17.2934   21.9457 C   0  0  0  0  0  0  0  0  0  0  0  0
    8.1898  -17.9993   20.7783 C   0  0  0  0  0  0  0  0  0  0  0  0
    7.1930  -17.5125   20.1994 O   0  0  0  0  0  0  0  0  0  0  0  0
    8.6950  -15.1516   23.1970 C   0  0  0  0  0  0  0  0  0  0  0  0
    9.9128  -14.8690   23.3318 O   0  0  0  0  0  0  0  0  0  0  0  0
    8.7088  -19.1841   20.2841 O   0  0  0  0  0  0  0  0  0  0  0  0
    6.6939  -12.1902   25.0494 C   0  0  0  0  0  0  0  0  0  0  0  0
    7.1793  -13.2391   26.0164 C   0  0  2  0  0  0  0  0  0  0  0  0
    7.5928  -12.5866   27.2945 C   0  0  0  0  0  0  0  0  0  0  0  0
    8.2441  -14.1304   25.4327 C   0  0  2  0  0  0  0  0  0  0  0  0
    7.8039  -14.7595   24.2058 N   0  0  0  0  0  0  0  0  0  0  0  0
    8.7098  -15.1484   26.4241 C   0  0  0  0  0  0  0  0  0  0  0  0
    7.9253  -16.0128   26.8889 O   0  0  0  0  0  0  0  0  0  0  0  0
   10.4301  -18.8487   26.6524 N   0  0  0  0  0  0  0  0  0  0  0  0
   11.6912  -18.1795   26.8412 C   0  0  0  0  0  0  0  0  0  0  0  0
   12.6897  -18.8120   26.4499 O   0  0  0  0  0  0  0  0  0  0  0  0
   11.7494  -16.8482   27.4549 C   0  0  0  0  0  0  0  0  0  0  0  0
   10.4618  -16.2276   27.8298 C   0  0  2  0  0  0  0  0  0  0  0  0
   10.0551  -15.1821   26.8820 N   0  0  0  0  0  0  0  0  0  0  0  0
   10.4593  -15.7225   29.2097 C   0  0  0  0  0  0  0  0  0  0  0  0
   10.5151  -14.5062   29.4546 O   0  0  0  0  0  0  0  0  0  0  0  0
   10.3942  -16.6050   30.3035 O   0  0  0  0  0  0  0  0  0  0  0  0
  2  1  1  6
  3  2  1  0
  4  3  1  0
  4  5  2  0
  6  2  1  0
  6  7  2  0
  8  4  1  0
 10  9  1  6
 10 12  1  0
 11 10  1  0
 12 13  1  6
 13  6  1  0
 14 12  1  0
 15 14  2  0
 16 17  1  0
 17 19  1  0
 17 18  2  0
 20 19  1  6
 20 22  1  0
 20 21  1  0
 21 14  1  0
 22 24  1  0
 23 22  2  0
M  END
$$$$
