DVN.pdb
     RDKit          3D

 24 23  0  0  1  0  0  0  0  0999 V2000
    6.8158  -15.4682   20.9163 N   0  0  0  0  0  0  0  0  0  0  0  0
    8.1201  -15.9642   21.2518 C   0  0  1  0  0  0  0  0  0  0  0  0
    9.0365  -15.8334   20.0823 C   0  0  0  0  0  0  0  0  0  0  0  0
    8.4548  -16.5098   18.9055 C   0  0  0  0  0  0  0  0  0  0  0  0
    7.6322  -17.4359   19.0831 O   0  0  0  0  0  0  0  0  0  0  0  0
    8.6440  -15.2996   22.4735 C   0  0  0  0  0  0  0  0  0  0  0  0
    9.8594  -14.9788   22.5093 O   0  0  0  0  0  0  0  0  0  0  0  0
    8.7741  -16.1711   17.6014 O   0  0  0  0  0  0  0  0  0  0  0  0
    6.1288  -13.8680   25.7438 C   0  0  0  0  0  0  0  0  0  0  0  0
    7.5040  -13.3756   25.3736 C   0  0  2  0  0  0  0  0  0  0  0  0
    7.3842  -12.1897   24.4739 C   0  0  0  0  0  0  0  0  0  0  0  0
    8.3867  -14.4599   24.8130 C   0  0  2  0  0  0  0  0  0  0  0  0
    7.8457  -15.0131   23.5898 N   0  0  0  0  0  0  0  0  0  0  0  0
    8.6445  -15.5325   25.8225 C   0  0  0  0  0  0  0  0  0  0  0  0
    7.7877  -16.4187   26.0659 O   0  0  0  0  0  0  0  0  0  0  0  0
   11.1443  -19.2812   28.4404 N   0  0  0  0  0  0  0  0  0  0  0  0
   11.8141  -18.7672   27.2738 C   0  0  0  0  0  0  0  0  0  0  0  0
   12.7716  -19.4523   26.8687 O   0  0  0  0  0  0  0  0  0  0  0  0
   11.3672  -17.5221   26.6398 C   0  0  0  0  0  0  0  0  0  0  0  0
   10.2132  -16.8346   27.2556 C   0  0  2  0  0  0  0  0  0  0  0  0
    9.8653  -15.5957   26.5479 N   0  0  0  0  0  0  0  0  0  0  0  0
   10.4031  -16.5893   28.6919 C   0  0  0  0  0  0  0  0  0  0  0  0
   10.4326  -15.4369   29.1541 O   0  0  0  0  0  0  0  0  0  0  0  0
   10.5594  -17.6574   29.5942 O   0  0  0  0  0  0  0  0  0  0  0  0
  2  1  1  6
  3  2  1  0
  4  3  1  0
  4  5  2  0
  6  2  1  0
  6  7  2  0
  8  4  1  0
 10  9  1  6
 10 12  1  0
 11 10  1  0
 12 13  1  6
 13  6  1  0
 14 12  1  0
 15 14  2  0
 16 17  1  0
 17 19  1  0
 17 18  2  0
 20 19  1  6
 20 22  1  0
 20 21  1  0
 21 14  1  0
 22 24  1  0
 23 22  2  0
M  END
$$$$
