DVN.pdb
     RDKit          3D

 24 23  0  0  1  0  0  0  0  0999 V2000
    9.0506  -15.7861   20.1525 N   0  0  0  0  0  0  0  0  0  0  0  0
    9.1958  -16.6578   21.2834 C   0  0  1  0  0  0  0  0  0  0  0  0
   10.2861  -17.6448   21.0351 C   0  0  0  0  0  0  0  0  0  0  0  0
   10.0055  -18.4097   19.8035 C   0  0  0  0  0  0  0  0  0  0  0  0
   10.7806  -18.2942   18.8279 O   0  0  0  0  0  0  0  0  0  0  0  0
    9.3950  -15.8791   22.5334 C   0  0  0  0  0  0  0  0  0  0  0  0
   10.5546  -15.4844   22.8177 O   0  0  0  0  0  0  0  0  0  0  0  0
    8.9189  -19.2572   19.6681 O   0  0  0  0  0  0  0  0  0  0  0  0
    7.2694  -12.7930   23.6992 C   0  0  0  0  0  0  0  0  0  0  0  0
    7.4104  -13.7947   24.8161 C   0  0  2  0  0  0  0  0  0  0  0  0
    7.4880  -13.0770   26.1234 C   0  0  0  0  0  0  0  0  0  0  0  0
    8.5457  -14.7611   24.6007 C   0  0  2  0  0  0  0  0  0  0  0  0
    8.3491  -15.5633   23.4121 N   0  0  0  0  0  0  0  0  0  0  0  0
    8.7667  -15.6228   25.8026 C   0  0  0  0  0  0  0  0  0  0  0  0
    7.9412  -16.5122   26.1283 O   0  0  0  0  0  0  0  0  0  0  0  0
   10.6947  -18.5091   29.6289 N   0  0  0  0  0  0  0  0  0  0  0  0
   11.4484  -18.4527   28.4031 C   0  0  0  0  0  0  0  0  0  0  0  0
   12.3638  -19.2911   28.3057 O   0  0  0  0  0  0  0  0  0  0  0  0
   11.1268  -17.4623   27.3697 C   0  0  0  0  0  0  0  0  0  0  0  0
   10.1373  -16.4234   27.7237 C   0  0  2  0  0  0  0  0  0  0  0  0
    9.9159  -15.4735   26.6258 N   0  0  0  0  0  0  0  0  0  0  0  0
   10.4755  -15.7233   28.9706 C   0  0  0  0  0  0  0  0  0  0  0  0
   10.6908  -14.5003   28.9891 O   0  0  0  0  0  0  0  0  0  0  0  0
   10.5676  -16.4196   30.1897 O   0  0  0  0  0  0  0  0  0  0  0  0
  2  1  1  6
  3  2  1  0
  4  3  1  0
  4  5  2  0
  6  2  1  0
  6  7  2  0
  8  4  1  0
 10  9  1  6
 10 12  1  0
 11 10  1  0
 12 13  1  6
 13  6  1  0
 14 12  1  0
 15 14  2  0
 16 17  1  0
 17 19  1  0
 17 18  2  0
 20 19  1  6
 20 22  1  0
 20 21  1  0
 21 14  1  0
 22 24  1  0
 23 22  2  0
M  END
$$$$
