LVQ.pdb
     RDKit          3D

 25 24  0  0  1  0  0  0  0  0999 V2000
   26.8572  -20.0002   -5.1852 C   0  0  0  0  0  0  0  0  0  0  0  0
   27.8753  -19.9638   -6.2981 C   0  0  2  0  0  0  0  0  0  0  0  0
   29.1594  -19.3038   -5.8460 C   0  0  0  0  0  0  0  0  0  0  0  0
   27.3087  -19.3069   -7.5338 C   0  0  0  0  0  0  0  0  0  0  0  0
   26.3558  -20.2497   -8.1957 C   0  0  2  0  0  0  0  0  0  0  0  0
   26.7887  -21.6066   -8.0106 N   0  0  0  0  0  0  0  0  0  0  0  0
   26.2478  -19.9417   -9.6609 C   0  0  0  0  0  0  0  0  0  0  0  0
   26.0098  -18.7912  -10.0844 O   0  0  0  0  0  0  0  0  0  0  0  0
   28.8138  -20.6671  -12.2823 C   0  0  0  0  0  0  0  0  0  0  0  0
   27.5129  -21.2203  -12.8285 C   0  0  2  0  0  0  0  0  0  0  0  0
   27.4813  -20.7964  -14.2816 C   0  0  0  0  0  0  0  0  0  0  0  0
   26.3492  -20.7000  -12.0376 C   0  0  2  0  0  0  0  0  0  0  0  0
   26.4098  -20.9382  -10.6387 N   0  0  0  0  0  0  0  0  0  0  0  0
   25.0477  -21.1858  -12.6263 C   0  0  0  0  0  0  0  0  0  0  0  0
   24.6404  -22.3549  -12.4201 O   0  0  0  0  0  0  0  0  0  0  0  0
   20.4429  -21.4887   -9.9893 N   0  0  0  0  0  0  0  0  0  0  0  0
   19.8819  -21.3747  -11.3025 C   0  0  0  0  0  0  0  0  0  0  0  0
   18.6456  -21.5540  -11.3652 O   0  0  0  0  0  0  0  0  0  0  0  0
   20.6698  -21.0780  -12.4779 C   0  0  0  0  0  0  0  0  0  0  0  0
   22.1183  -20.8645  -12.3840 C   0  0  0  0  0  0  0  0  0  0  0  0
   22.8557  -20.6020  -13.6517 C   0  0  2  0  0  0  0  0  0  0  0  0
   24.2531  -20.3297  -13.4283 N   0  0  0  0  0  0  0  0  0  0  0  0
   22.2750  -19.6315  -14.5840 C   0  0  0  0  0  0  0  0  0  0  0  0
   22.8031  -18.5042  -14.7317 O   0  0  0  0  0  0  0  0  0  0  0  0
   21.1332  -19.8971  -15.3489 O   0  0  0  0  0  0  0  0  0  0  0  0
  2  1  1  1
  2  3  1  0
  4  2  1  0
  5  4  1  0
  5  6  1  6
  7 13  1  0
  7  5  1  0
  8  7  2  0
 10  9  1  1
 10 12  1  0
 11 10  1  0
 12 14  1  0
 12 13  1  1
 14 15  2  0
 17 16  1  0
 17 19  1  0
 18 17  2  0
 20 19  1  0
 21 20  1  1
 22 21  1  0
 22 14  1  0
 23 21  1  0
 23 25  1  0
 24 23  2  0
M  END
$$$$
