LVQ.pdb
     RDKit          3D

 25 24  0  0  1  0  0  0  0  0999 V2000
   30.4282  -30.6780  -21.5987 C   0  0  0  0  0  0  0  0  0  0  0  0
   31.3484  -29.9287  -20.6668 C   0  0  2  0  0  0  0  0  0  0  0  0
   32.7099  -30.5846  -20.5950 C   0  0  0  0  0  0  0  0  0  0  0  0
   30.7273  -29.7683  -19.3001 C   0  0  0  0  0  0  0  0  0  0  0  0
   31.8065  -29.5019  -18.3004 C   0  0  2  0  0  0  0  0  0  0  0  0
   32.1325  -30.7052  -17.5873 N   0  0  0  0  0  0  0  0  0  0  0  0
   31.3750  -28.4357  -17.3360 C   0  0  0  0  0  0  0  0  0  0  0  0
   30.7219  -28.6954  -16.3037 O   0  0  0  0  0  0  0  0  0  0  0  0
   33.3278  -24.6799  -17.1841 C   0  0  0  0  0  0  0  0  0  0  0  0
   32.4647  -25.2553  -16.0793 C   0  0  2  0  0  0  0  0  0  0  0  0
   33.4010  -26.1062  -15.2477 C   0  0  0  0  0  0  0  0  0  0  0  0
   31.3205  -26.0330  -16.6593 C   0  0  2  0  0  0  0  0  0  0  0  0
   31.6853  -27.0811  -17.5458 N   0  0  0  0  0  0  0  0  0  0  0  0
   30.3106  -25.1036  -17.2861 C   0  0  0  0  0  0  0  0  0  0  0  0
   30.2048  -25.0088  -18.5331 O   0  0  0  0  0  0  0  0  0  0  0  0
   23.9011  -21.5447  -16.7980 N   0  0  0  0  0  0  0  0  0  0  0  0
   24.9522  -22.3791  -16.2967 C   0  0  0  0  0  0  0  0  0  0  0  0
   24.5739  -23.3245  -15.5703 O   0  0  0  0  0  0  0  0  0  0  0  0
   26.3496  -22.1589  -16.5954 C   0  0  0  0  0  0  0  0  0  0  0  0
   27.3804  -23.0893  -16.1220 C   0  0  0  0  0  0  0  0  0  0  0  0
   28.4826  -23.4282  -17.0653 C   0  0  2  0  0  0  0  0  0  0  0  0
   29.4558  -24.3141  -16.4778 N   0  0  0  0  0  0  0  0  0  0  0  0
   29.1379  -22.3206  -17.7667 C   0  0  0  0  0  0  0  0  0  0  0  0
   30.2875  -21.9518  -17.4291 O   0  0  0  0  0  0  0  0  0  0  0  0
   28.5417  -21.6307  -18.8288 O   0  0  0  0  0  0  0  0  0  0  0  0
  2  1  1  6
  2  3  1  0
  4  2  1  0
  5  4  1  0
  5  6  1  1
  7 13  1  0
  7  5  1  0
  8  7  2  0
 10  9  1  6
 10 12  1  0
 11 10  1  0
 12 14  1  0
 12 13  1  6
 14 15  2  0
 17 16  1  0
 17 19  1  0
 18 17  2  0
 20 19  1  0
 21 20  1  1
 22 21  1  0
 22 14  1  0
 23 21  1  0
 23 25  1  0
 24 23  2  0
M  END
$$$$
