LVQ.pdb
     RDKit          3D

 25 24  0  0  1  0  0  0  0  0999 V2000
   19.4627  -23.1612   -8.9944 C   0  0  0  0  0  0  0  0  0  0  0  0
   18.2293  -23.8038   -9.5798 C   0  0  2  0  0  0  0  0  0  0  0  0
   17.3831  -22.7927  -10.3216 C   0  0  0  0  0  0  0  0  0  0  0  0
   17.4383  -24.5312   -8.5193 C   0  0  0  0  0  0  0  0  0  0  0  0
   18.3317  -25.5108   -7.8284 C   0  0  2  0  0  0  0  0  0  0  0  0
   18.6955  -26.5715   -8.7258 N   0  0  0  0  0  0  0  0  0  0  0  0
   17.6501  -26.0762   -6.6164 C   0  0  0  0  0  0  0  0  0  0  0  0
   16.8492  -27.0318   -6.6871 O   0  0  0  0  0  0  0  0  0  0  0  0
   18.8092  -27.7417   -3.3835 C   0  0  0  0  0  0  0  0  0  0  0  0
   18.1185  -26.4378   -3.0380 C   0  0  2  0  0  0  0  0  0  0  0  0
   17.3741  -26.7134   -1.7487 C   0  0  0  0  0  0  0  0  0  0  0  0
   17.2177  -26.0090   -4.1583 C   0  0  2  0  0  0  0  0  0  0  0  0
   17.8791  -25.5563   -5.3309 N   0  0  0  0  0  0  0  0  0  0  0  0
   16.2053  -25.0025   -3.6698 C   0  0  0  0  0  0  0  0  0  0  0  0
   16.5509  -23.8384   -3.3531 O   0  0  0  0  0  0  0  0  0  0  0  0
   11.6974  -26.2447   -6.1990 N   0  0  0  0  0  0  0  0  0  0  0  0
   11.2349  -26.3599   -4.8481 C   0  0  0  0  0  0  0  0  0  0  0  0
   10.4230  -27.2898   -4.6462 O   0  0  0  0  0  0  0  0  0  0  0  0
   11.6612  -25.4760   -3.7863 C   0  0  0  0  0  0  0  0  0  0  0  0
   12.6400  -24.4117   -4.0349 C   0  0  0  0  0  0  0  0  0  0  0  0
   13.8493  -24.3765   -3.1654 C   0  0  2  0  0  0  0  0  0  0  0  0
   14.8365  -25.3505   -3.5574 N   0  0  0  0  0  0  0  0  0  0  0  0
   13.6408  -24.3960   -1.7148 C   0  0  0  0  0  0  0  0  0  0  0  0
   13.9981  -25.3897   -1.0390 O   0  0  0  0  0  0  0  0  0  0  0  0
   13.0536  -23.3361   -1.0140 O   0  0  0  0  0  0  0  0  0  0  0  0
  2  1  1  1
  2  3  1  0
  4  2  1  0
  5  4  1  0
  5  6  1  6
  7 13  1  0
  7  5  1  0
  8  7  2  0
 10  9  1  6
 10 12  1  0
 11 10  1  0
 12 14  1  0
 12 13  1  6
 14 15  2  0
 17 16  1  0
 17 19  1  0
 18 17  2  0
 20 19  1  0
 21 20  1  6
 22 21  1  0
 22 14  1  0
 23 21  1  0
 23 25  1  0
 24 23  2  0
M  END
$$$$
