LVQ.pdb
     RDKit          3D

 25 24  0  0  1  0  0  0  0  0999 V2000
   17.5272  -13.5964  -19.9825 C   0  0  0  0  0  0  0  0  0  0  0  0
   16.6296  -13.3707  -18.7908 C   0  0  2  0  0  0  0  0  0  0  0  0
   15.3649  -12.6409  -19.1867 C   0  0  0  0  0  0  0  0  0  0  0  0
   17.3661  -12.6606  -17.6805 C   0  0  0  0  0  0  0  0  0  0  0  0
   18.6058  -13.4269  -17.3476 C   0  0  2  0  0  0  0  0  0  0  0  0
   18.2658  -14.6938  -16.7627 N   0  0  0  0  0  0  0  0  0  0  0  0
   19.4686  -12.6415  -16.4030 C   0  0  0  0  0  0  0  0  0  0  0  0
   19.1674  -12.4816  -15.2016 O   0  0  0  0  0  0  0  0  0  0  0  0
   23.2652  -12.8428  -15.5212 C   0  0  0  0  0  0  0  0  0  0  0  0
   22.9468  -11.4668  -16.0709 C   0  0  2  0  0  0  0  0  0  0  0  0
   23.7597  -10.5062  -15.2291 C   0  0  0  0  0  0  0  0  0  0  0  0
   21.4712  -11.2046  -16.0047 C   0  0  2  0  0  0  0  0  0  0  0  0
   20.6678  -12.0416  -16.8241 N   0  0  0  0  0  0  0  0  0  0  0  0
   21.1800   -9.7447  -16.2502 C   0  0  0  0  0  0  0  0  0  0  0  0
   21.4191   -9.2152  -17.3626 O   0  0  0  0  0  0  0  0  0  0  0  0
   15.5425   -7.8402  -15.4378 N   0  0  0  0  0  0  0  0  0  0  0  0
   16.6130   -6.8919  -15.3542 C   0  0  0  0  0  0  0  0  0  0  0  0
   16.3010   -5.7171  -15.6494 O   0  0  0  0  0  0  0  0  0  0  0  0
   17.9585   -7.2480  -14.9628 C   0  0  0  0  0  0  0  0  0  0  0  0
   19.0635   -7.2049  -15.9269 C   0  0  0  0  0  0  0  0  0  0  0  0
   20.4280   -7.5217  -15.4195 C   0  0  2  0  0  0  0  0  0  0  0  0
   20.6279   -8.9358  -15.2263 N   0  0  0  0  0  0  0  0  0  0  0  0
   20.9144   -6.7610  -14.2650 C   0  0  0  0  0  0  0  0  0  0  0  0
   21.2713   -7.3569  -13.2213 O   0  0  0  0  0  0  0  0  0  0  0  0
   21.0139   -5.3648  -14.2582 O   0  0  0  0  0  0  0  0  0  0  0  0
  2  1  1  6
  2  3  1  0
  4  2  1  0
  5  4  1  0
  5  6  1  1
  7 13  1  0
  7  5  1  0
  8  7  2  0
 10  9  1  1
 10 12  1  0
 11 10  1  0
 12 14  1  0
 12 13  1  6
 14 15  2  0
 17 16  1  0
 17 19  1  0
 18 17  2  0
 20 19  1  0
 21 20  1  1
 22 21  1  0
 22 14  1  0
 23 21  1  0
 23 25  1  0
 24 23  2  0
M  END
$$$$
