LVQ.pdb
     RDKit          3D

 25 24  0  0  1  0  0  0  0  0999 V2000
   25.3457  -14.5343  -14.5731 C   0  0  0  0  0  0  0  0  0  0  0  0
   25.5364  -14.3778  -16.0616 C   0  0  2  0  0  0  0  0  0  0  0  0
   27.0043  -14.3349  -16.4255 C   0  0  0  0  0  0  0  0  0  0  0  0
   24.7911  -13.1727  -16.5828 C   0  0  0  0  0  0  0  0  0  0  0  0
   23.3479  -13.2918  -16.2112 C   0  0  2  0  0  0  0  0  0  0  0  0
   22.7702  -14.4547  -16.8251 N   0  0  0  0  0  0  0  0  0  0  0  0
   22.5958  -12.0629  -16.6328 C   0  0  0  0  0  0  0  0  0  0  0  0
   22.4202  -11.7682  -17.8336 O   0  0  0  0  0  0  0  0  0  0  0  0
   19.4618  -10.4318  -14.4327 C   0  0  0  0  0  0  0  0  0  0  0  0
   19.8188  -10.1284  -15.8740 C   0  0  2  0  0  0  0  0  0  0  0  0
   19.2233  -11.2651  -16.6772 C   0  0  0  0  0  0  0  0  0  0  0  0
   21.3060  -10.0113  -16.0320 C   0  0  2  0  0  0  0  0  0  0  0  0
   22.0469  -11.1745  -15.6923 N   0  0  0  0  0  0  0  0  0  0  0  0
   21.8227   -8.7938  -15.3060 C   0  0  0  0  0  0  0  0  0  0  0  0
   22.4068   -8.8990  -14.2002 O   0  0  0  0  0  0  0  0  0  0  0  0
   22.8080   -2.7558  -17.8293 N   0  0  0  0  0  0  0  0  0  0  0  0
   23.1340   -2.7865  -16.4347 C   0  0  0  0  0  0  0  0  0  0  0  0
   23.5571   -1.7058  -15.9682 O   0  0  0  0  0  0  0  0  0  0  0  0
   22.9936   -3.9684  -15.6138 C   0  0  0  0  0  0  0  0  0  0  0  0
   22.4028   -5.1983  -16.1528 C   0  0  0  0  0  0  0  0  0  0  0  0
   22.2128   -6.3370  -15.2110 C   0  0  2  0  0  0  0  0  0  0  0  0
   21.6594   -7.4994  -15.8586 N   0  0  0  0  0  0  0  0  0  0  0  0
   21.5225   -6.0623  -13.9475 C   0  0  0  0  0  0  0  0  0  0  0  0
   20.2897   -6.2653  -13.8447 O   0  0  0  0  0  0  0  0  0  0  0  0
   22.1779   -5.5773  -12.8097 O   0  0  0  0  0  0  0  0  0  0  0  0
  2  1  1  1
  2  3  1  0
  4  2  1  0
  5  4  1  0
  5  6  1  6
  7 13  1  0
  7  5  1  0
  8  7  2  0
 10  9  1  1
 10 12  1  0
 11 10  1  0
 12 14  1  0
 12 13  1  1
 14 15  2  0
 17 16  1  0
 17 19  1  0
 18 17  2  0
 20 19  1  0
 21 20  1  6
 22 21  1  0
 22 14  1  0
 23 21  1  0
 23 25  1  0
 24 23  2  0
M  END
$$$$
