LVQ.pdb
     RDKit          3D

 25 24  0  0  1  0  0  0  0  0999 V2000
   24.9910  -21.3794   -8.5406 C   0  0  0  0  0  0  0  0  0  0  0  0
   26.2882  -20.7433   -8.9757 C   0  0  2  0  0  0  0  0  0  0  0  0
   26.9376  -19.9873   -7.8375 C   0  0  0  0  0  0  0  0  0  0  0  0
   26.0862  -19.8694  -10.1902 C   0  0  0  0  0  0  0  0  0  0  0  0
   25.5965  -20.7125  -11.3235 C   0  0  2  0  0  0  0  0  0  0  0  0
   26.5624  -21.7261  -11.6434 N   0  0  0  0  0  0  0  0  0  0  0  0
   25.3278  -19.8617  -12.5306 C   0  0  0  0  0  0  0  0  0  0  0  0
   24.4753  -18.9490  -12.5263 O   0  0  0  0  0  0  0  0  0  0  0  0
   27.6939  -20.2456  -16.2081 C   0  0  0  0  0  0  0  0  0  0  0  0
   27.0989  -18.9587  -15.6729 C   0  0  2  0  0  0  0  0  0  0  0  0
   28.1942  -18.3346  -14.8344 C   0  0  0  0  0  0  0  0  0  0  0  0
   25.8497  -19.2436  -14.8927 C   0  0  2  0  0  0  0  0  0  0  0  0
   26.0258  -20.0489  -13.7360 N   0  0  0  0  0  0  0  0  0  0  0  0
   24.7750  -19.7979  -15.7951 C   0  0  0  0  0  0  0  0  0  0  0  0
   24.8397  -20.9723  -16.2330 O   0  0  0  0  0  0  0  0  0  0  0  0
   20.0777  -19.9950  -12.7876 N   0  0  0  0  0  0  0  0  0  0  0  0
   19.7646  -20.8184  -13.9173 C   0  0  0  0  0  0  0  0  0  0  0  0
   18.6468  -21.3774  -13.8687 O   0  0  0  0  0  0  0  0  0  0  0  0
   20.6614  -21.0029  -15.0363 C   0  0  0  0  0  0  0  0  0  0  0  0
   21.9854  -20.3715  -15.0571 C   0  0  0  0  0  0  0  0  0  0  0  0
   22.3402  -19.5632  -16.2573 C   0  0  2  0  0  0  0  0  0  0  0  0
   23.6646  -19.0017  -16.1700 N   0  0  0  0  0  0  0  0  0  0  0  0
   21.3730  -18.5576  -16.7062 C   0  0  0  0  0  0  0  0  0  0  0  0
   21.6253  -17.3366  -16.5754 O   0  0  0  0  0  0  0  0  0  0  0  0
   20.1477  -18.8877  -17.2969 O   0  0  0  0  0  0  0  0  0  0  0  0
  2  1  1  1
  2  3  1  0
  4  2  1  0
  5  4  1  0
  5  6  1  6
  7 13  1  0
  7  5  1  0
  8  7  2  0
 10  9  1  1
 10 12  1  0
 11 10  1  0
 12 14  1  0
 12 13  1  1
 14 15  2  0
 17 16  1  0
 17 19  1  0
 18 17  2  0
 20 19  1  0
 21 20  1  1
 22 21  1  0
 22 14  1  0
 23 21  1  0
 23 25  1  0
 24 23  2  0
M  END
$$$$
