LVQ.pdb
     RDKit          3D

 25 24  0  0  1  0  0  0  0  0999 V2000
   26.2280  -32.3859   -8.4567 C   0  0  0  0  0  0  0  0  0  0  0  0
   25.0943  -33.1369   -9.1104 C   0  0  2  0  0  0  0  0  0  0  0  0
   25.4722  -34.5771   -9.3784 C   0  0  0  0  0  0  0  0  0  0  0  0
   24.6257  -32.4348  -10.3622 C   0  0  0  0  0  0  0  0  0  0  0  0
   23.1790  -32.0874  -10.2158 C   0  0  2  0  0  0  0  0  0  0  0  0
   22.3749  -33.2767  -10.2562 N   0  0  0  0  0  0  0  0  0  0  0  0
   22.7545  -31.1447  -11.3041 C   0  0  0  0  0  0  0  0  0  0  0  0
   23.3361  -30.0587  -11.5096 O   0  0  0  0  0  0  0  0  0  0  0  0
   21.9602  -32.2475  -15.0254 C   0  0  0  0  0  0  0  0  0  0  0  0
   20.8341  -31.3960  -14.4743 C   0  0  2  0  0  0  0  0  0  0  0  0
   20.4214  -30.4958  -15.6194 C   0  0  0  0  0  0  0  0  0  0  0  0
   21.2944  -30.6373  -13.2648 C   0  0  2  0  0  0  0  0  0  0  0  0
   21.6738  -31.4367  -12.1538 N   0  0  0  0  0  0  0  0  0  0  0  0
   20.2775  -29.5932  -12.8744 C   0  0  0  0  0  0  0  0  0  0  0  0
   19.1893  -29.9175  -12.3401 O   0  0  0  0  0  0  0  0  0  0  0  0
   19.5057  -25.6388   -9.1382 N   0  0  0  0  0  0  0  0  0  0  0  0
   19.0762  -24.7576  -10.1829 C   0  0  0  0  0  0  0  0  0  0  0  0
   18.3511  -23.8097   -9.8083 O   0  0  0  0  0  0  0  0  0  0  0  0
   19.4411  -24.9363  -11.5704 C   0  0  0  0  0  0  0  0  0  0  0  0
   20.2787  -26.0640  -11.9935 C   0  0  0  0  0  0  0  0  0  0  0  0
   19.6001  -27.2068  -12.6666 C   0  0  2  0  0  0  0  0  0  0  0  0
   20.5295  -28.2179  -13.1034 N   0  0  0  0  0  0  0  0  0  0  0  0
   18.6326  -26.8931  -13.7219 C   0  0  0  0  0  0  0  0  0  0  0  0
   18.9810  -26.9196  -14.9259 O   0  0  0  0  0  0  0  0  0  0  0  0
   17.2983  -26.5609  -13.4596 O   0  0  0  0  0  0  0  0  0  0  0  0
  2  1  1  6
  2  3  1  0
  4  2  1  0
  5  4  1  0
  5  6  1  6
  7 13  1  0
  7  5  1  0
  8  7  2  0
 10  9  1  6
 10 12  1  0
 11 10  1  0
 12 14  1  0
 12 13  1  1
 14 15  2  0
 17 16  1  0
 17 19  1  0
 18 17  2  0
 20 19  1  0
 21 20  1  6
 22 21  1  0
 22 14  1  0
 23 21  1  0
 23 25  1  0
 24 23  2  0
M  END
$$$$
