LVQ.pdb
     RDKit          3D

 25 24  0  0  1  0  0  0  0  0999 V2000
   29.1012  -20.0322   -5.2174 C   0  0  0  0  0  0  0  0  0  0  0  0
   27.6243  -19.8323   -4.9823 C   0  0  2  0  0  0  0  0  0  0  0  0
   27.1458  -20.6290   -3.7886 C   0  0  0  0  0  0  0  0  0  0  0  0
   26.8272  -20.1459   -6.2255 C   0  0  0  0  0  0  0  0  0  0  0  0
   27.3712  -19.3511   -7.3689 C   0  0  2  0  0  0  0  0  0  0  0  0
   27.3477  -17.9495   -7.0565 N   0  0  0  0  0  0  0  0  0  0  0  0
   26.5741  -19.6120   -8.6138 C   0  0  0  0  0  0  0  0  0  0  0  0
   25.5328  -18.9776   -8.8837 O   0  0  0  0  0  0  0  0  0  0  0  0
   28.8376  -20.6436  -11.8326 C   0  0  0  0  0  0  0  0  0  0  0  0
   27.4723  -21.3011  -11.8537 C   0  0  2  0  0  0  0  0  0  0  0  0
   27.0171  -21.2225  -13.2955 C   0  0  0  0  0  0  0  0  0  0  0  0
   26.5417  -20.6071  -10.9035 C   0  0  2  0  0  0  0  0  0  0  0  0
   26.9604  -20.5900   -9.5463 N   0  0  0  0  0  0  0  0  0  0  0  0
   25.1399  -21.1472  -11.0439 C   0  0  0  0  0  0  0  0  0  0  0  0
   24.7999  -22.2183  -10.4853 O   0  0  0  0  0  0  0  0  0  0  0  0
   20.4707  -21.4087   -8.7058 N   0  0  0  0  0  0  0  0  0  0  0  0
   19.8047  -21.1488   -9.9472 C   0  0  0  0  0  0  0  0  0  0  0  0
   18.5989  -21.4802   -9.9781 O   0  0  0  0  0  0  0  0  0  0  0  0
   20.4609  -20.5520  -11.0889 C   0  0  0  0  0  0  0  0  0  0  0  0
   21.8791  -20.1801  -11.0376 C   0  0  0  0  0  0  0  0  0  0  0  0
   22.8174  -20.9350  -11.9147 C   0  0  2  0  0  0  0  0  0  0  0  0
   24.1722  -20.4543  -11.8126 N   0  0  0  0  0  0  0  0  0  0  0  0
   22.4317  -21.1219  -13.3163 C   0  0  0  0  0  0  0  0  0  0  0  0
   22.8685  -20.3472  -14.1999 O   0  0  0  0  0  0  0  0  0  0  0  0
   21.5827  -22.1495  -13.7436 O   0  0  0  0  0  0  0  0  0  0  0  0
  2  1  1  6
  2  3  1  0
  4  2  1  0
  5  4  1  0
  5  6  1  1
  7 13  1  0
  7  5  1  0
  8  7  2  0
 10  9  1  6
 10 12  1  0
 11 10  1  0
 12 14  1  0
 12 13  1  1
 14 15  2  0
 17 16  1  0
 17 19  1  0
 18 17  2  0
 20 19  1  0
 21 20  1  6
 22 21  1  0
 22 14  1  0
 23 21  1  0
 23 25  1  0
 24 23  2  0
M  END
$$$$
