HDD.pdb
     RDKit          3D

 27 27  0  0  1  0  0  0  0  0999 V2000
   14.1821  -13.6867   16.9669 N   0  0  0  0  0  0  0  0  0  0  0  0
   15.3709  -14.4124   17.3582 C   0  0  1  0  0  0  0  0  0  0  0  0
   16.1530  -13.5641   18.3631 C   0  0  0  0  0  0  0  0  0  0  0  0
   17.0636  -12.6716   17.6017 C   0  0  0  0  0  0  0  0  0  0  0  0
   17.1971  -12.6257   16.2299 C   0  0  0  0  0  0  0  0  0  0  0  0
   18.1074  -11.7058   15.8864 N   0  0  0  0  0  0  0  0  0  0  0  0
   18.5565  -11.1636   17.0311 C   0  0  0  0  0  0  0  0  0  0  0  0
   17.9186  -11.7543   18.0718 N   0  0  0  0  0  0  0  0  0  0  0  0
   14.9820  -15.6677   18.0289 C   0  0  0  0  0  0  0  0  0  0  0  0
   13.8788  -15.7469   18.6073 O   0  0  0  0  0  0  0  0  0  0  0  0
   15.8972  -16.7462   17.9843 N   0  0  0  0  0  0  0  0  0  0  0  0
   15.6031  -18.0110   18.5839 C   0  0  1  0  0  0  0  0  0  0  0  0
   16.0299  -19.1713   17.7495 C   0  0  0  0  0  0  0  0  0  0  0  0
   15.0968  -19.3213   16.5845 C   0  0  0  0  0  0  0  0  0  0  0  0
   15.2620  -18.5859   15.5894 O   0  0  0  0  0  0  0  0  0  0  0  0
   16.1532  -18.1585   19.9706 C   0  0  0  0  0  0  0  0  0  0  0  0
   16.9843  -17.3233   20.4532 O   0  0  0  0  0  0  0  0  0  0  0  0
   14.0735  -20.2649   16.6270 O   0  0  0  0  0  0  0  0  0  0  0  0
   15.7158  -19.2655   20.7355 N   0  0  0  0  0  0  0  0  0  0  0  0
   16.2280  -19.4510   22.0702 C   0  0  1  0  0  0  0  0  0  0  0  0
   15.3309  -20.4209   22.7973 C   0  0  0  0  0  0  0  0  0  0  0  0
   14.0277  -19.8785   23.1934 C   0  0  0  0  0  0  0  0  0  0  0  0
   13.7730  -18.6665   23.0872 O   0  0  0  0  0  0  0  0  0  0  0  0
   17.6331  -19.8951   22.0544 C   0  0  0  0  0  0  0  0  0  0  0  0
   18.3934  -19.8503   23.2010 O   0  0  0  0  0  0  0  0  0  0  0  0
   13.0572  -20.7211   23.6954 O   0  0  0  0  0  0  0  0  0  0  0  0
   18.1470  -20.3164   20.9992 O   0  0  0  0  0  0  0  0  0  0  0  0
  2  1  1  1
  2  3  1  0
  3  4  1  0
  4  8  1  0
  4  5  2  0
  5  6  1  0
  7  6  1  0
  8  7  2  0
  9  2  1  0
  9 11  1  0
 10  9  2  0
 12 11  1  0
 12 16  1  0
 12 13  1  6
 14 13  1  0
 15 14  2  0
 16 19  1  0
 17 16  2  0
 18 14  1  0
 19 20  1  0
 20 21  1  6
 20 24  1  0
 22 26  1  0
 22 21  1  0
 23 22  2  0
 24 25  1  0
 27 24  2  0
M  END
$$$$
