HDD.pdb
     RDKit          3D

 27 27  0  0  1  0  0  0  0  0999 V2000
    8.7898  -16.4589   18.6767 N   0  0  0  0  0  0  0  0  0  0  0  0
    9.4074  -16.1843   19.9558 C   0  0  1  0  0  0  0  0  0  0  0  0
    8.4903  -15.2535   20.7517 C   0  0  0  0  0  0  0  0  0  0  0  0
    8.6920  -13.8700   20.2510 C   0  0  0  0  0  0  0  0  0  0  0  0
    9.5399  -13.4901   19.2320 C   0  0  0  0  0  0  0  0  0  0  0  0
    9.4708  -12.1661   19.0449 N   0  0  0  0  0  0  0  0  0  0  0  0
    8.5834  -11.6977   19.9389 C   0  0  0  0  0  0  0  0  0  0  0  0
    8.1124  -12.7379   20.6703 N   0  0  0  0  0  0  0  0  0  0  0  0
    9.5470  -17.4421   20.7144 C   0  0  0  0  0  0  0  0  0  0  0  0
    8.7541  -18.3836   20.5073 O   0  0  0  0  0  0  0  0  0  0  0  0
   10.5954  -17.5243   21.6614 N   0  0  0  0  0  0  0  0  0  0  0  0
   10.8909  -18.7386   22.3569 C   0  0  1  0  0  0  0  0  0  0  0  0
   11.2924  -19.8531   21.4507 C   0  0  0  0  0  0  0  0  0  0  0  0
   11.4524  -21.1142   22.2472 C   0  0  0  0  0  0  0  0  0  0  0  0
   10.6166  -21.3662   23.1395 O   0  0  0  0  0  0  0  0  0  0  0  0
   11.9160  -18.5748   23.4385 C   0  0  0  0  0  0  0  0  0  0  0  0
   12.9127  -17.7941   23.3031 O   0  0  0  0  0  0  0  0  0  0  0  0
   12.5154  -21.9750   21.9852 O   0  0  0  0  0  0  0  0  0  0  0  0
   11.7402  -19.3213   24.6274 N   0  0  0  0  0  0  0  0  0  0  0  0
   12.6181  -19.0880   25.7467 C   0  0  1  0  0  0  0  0  0  0  0  0
   12.0804  -19.8348   26.9414 C   0  0  0  0  0  0  0  0  0  0  0  0
   10.7268  -19.4497   27.3523 C   0  0  0  0  0  0  0  0  0  0  0  0
   10.1398  -18.4898   26.8241 O   0  0  0  0  0  0  0  0  0  0  0  0
   14.0079  -19.4641   25.4329 C   0  0  0  0  0  0  0  0  0  0  0  0
   15.0572  -18.6814   25.8585 O   0  0  0  0  0  0  0  0  0  0  0  0
   10.0822  -20.1599   28.3442 O   0  0  0  0  0  0  0  0  0  0  0  0
   14.2462  -20.4976   24.7770 O   0  0  0  0  0  0  0  0  0  0  0  0
  2  1  1  6
  2  3  1  0
  3  4  1  0
  4  8  1  0
  4  5  2  0
  5  6  1  0
  7  6  1  0
  8  7  2  0
  9  2  1  0
  9 11  1  0
 10  9  2  0
 12 11  1  0
 12 16  1  0
 12 13  1  6
 14 13  1  0
 15 14  2  0
 16 19  1  0
 17 16  2  0
 18 14  1  0
 19 20  1  0
 20 21  1  1
 20 24  1  0
 22 26  1  0
 22 21  1  0
 23 22  2  0
 24 25  1  0
 27 24  2  0
M  END
$$$$
