HDD.pdb
     RDKit          3D

 27 27  0  0  1  0  0  0  0  0999 V2000
   13.2783  -14.3039   17.7500 N   0  0  0  0  0  0  0  0  0  0  0  0
   14.3711  -14.6272   18.6413 C   0  0  1  0  0  0  0  0  0  0  0  0
   15.2926  -13.4104   18.7464 C   0  0  0  0  0  0  0  0  0  0  0  0
   16.2516  -13.4601   17.6135 C   0  0  0  0  0  0  0  0  0  0  0  0
   16.0474  -14.0882   16.4029 C   0  0  0  0  0  0  0  0  0  0  0  0
   17.1200  -13.9325   15.6167 N   0  0  0  0  0  0  0  0  0  0  0  0
   18.0086  -13.2084   16.3182 C   0  0  0  0  0  0  0  0  0  0  0  0
   17.4758  -12.9234   17.5322 N   0  0  0  0  0  0  0  0  0  0  0  0
   13.8393  -14.9120   19.9878 C   0  0  0  0  0  0  0  0  0  0  0  0
   13.6150  -13.9725   20.7784 O   0  0  0  0  0  0  0  0  0  0  0  0
   13.6035  -16.2654   20.3274 N   0  0  0  0  0  0  0  0  0  0  0  0
   13.1350  -16.6478   21.6236 C   0  0  1  0  0  0  0  0  0  0  0  0
   11.7770  -17.2640   21.6004 C   0  0  0  0  0  0  0  0  0  0  0  0
   11.6862  -18.2346   20.4601 C   0  0  0  0  0  0  0  0  0  0  0  0
   10.5956  -18.3553   19.8649 O   0  0  0  0  0  0  0  0  0  0  0  0
   14.0825  -17.5448   22.3619 C   0  0  0  0  0  0  0  0  0  0  0  0
   14.6172  -18.5571   21.8047 O   0  0  0  0  0  0  0  0  0  0  0  0
   12.8029  -18.9776   20.0856 O   0  0  0  0  0  0  0  0  0  0  0  0
   14.3683  -17.2287   23.7111 N   0  0  0  0  0  0  0  0  0  0  0  0
   15.2376  -18.0911   24.4719 C   0  0  1  0  0  0  0  0  0  0  0  0
   16.2768  -17.2400   25.1574 C   0  0  0  0  0  0  0  0  0  0  0  0
   17.1839  -16.5259   24.2539 C   0  0  0  0  0  0  0  0  0  0  0  0
   17.7243  -15.4586   24.5915 O   0  0  0  0  0  0  0  0  0  0  0  0
   14.4789  -18.9208   25.4246 C   0  0  0  0  0  0  0  0  0  0  0  0
   15.1163  -19.8809   26.1775 O   0  0  0  0  0  0  0  0  0  0  0  0
   17.4504  -17.0397   23.0013 O   0  0  0  0  0  0  0  0  0  0  0  0
   13.2495  -18.7600   25.5574 O   0  0  0  0  0  0  0  0  0  0  0  0
  2  1  1  6
  2  3  1  0
  3  4  1  0
  4  8  1  0
  4  5  2  0
  5  6  1  0
  7  6  1  0
  8  7  2  0
  9  2  1  0
  9 11  1  0
 10  9  2  0
 12 11  1  0
 12 16  1  0
 12 13  1  6
 14 13  1  0
 15 14  2  0
 16 19  1  0
 17 16  2  0
 18 14  1  0
 19 20  1  0
 20 21  1  1
 20 24  1  0
 22 26  1  0
 22 21  1  0
 23 22  2  0
 24 25  1  0
 27 24  2  0
M  END
$$$$
