HDD.pdb
     RDKit          3D

 27 27  0  0  1  0  0  0  0  0999 V2000
    6.5123  -20.7810   17.8851 N   0  0  0  0  0  0  0  0  0  0  0  0
    6.3224  -20.2151   19.2029 C   0  0  1  0  0  0  0  0  0  0  0  0
    5.1762  -20.9572   19.8932 C   0  0  0  0  0  0  0  0  0  0  0  0
    3.9396  -20.7317   19.1024 C   0  0  0  0  0  0  0  0  0  0  0  0
    3.8345  -19.9698   17.9578 C   0  0  0  0  0  0  0  0  0  0  0  0
    2.5733  -19.9855   17.5084 N   0  0  0  0  0  0  0  0  0  0  0  0
    1.8718  -20.7534   18.3594 C   0  0  0  0  0  0  0  0  0  0  0  0
    2.7072  -21.2050   19.3274 N   0  0  0  0  0  0  0  0  0  0  0  0
    7.5436  -20.4180   20.0057 C   0  0  0  0  0  0  0  0  0  0  0  0
    7.9467  -21.5755   20.2415 O   0  0  0  0  0  0  0  0  0  0  0  0
    8.2152  -19.2666   20.4811 N   0  0  0  0  0  0  0  0  0  0  0  0
    9.4343  -19.3565   21.2236 C   0  0  1  0  0  0  0  0  0  0  0  0
   10.3529  -18.2051   20.9886 C   0  0  0  0  0  0  0  0  0  0  0  0
   10.8144  -18.2152   19.5612 C   0  0  0  0  0  0  0  0  0  0  0  0
   11.1349  -19.3059   19.0456 O   0  0  0  0  0  0  0  0  0  0  0  0
    9.2258  -19.5418   22.6966 C   0  0  0  0  0  0  0  0  0  0  0  0
    8.4012  -18.8256   23.3510 O   0  0  0  0  0  0  0  0  0  0  0  0
   10.8785  -17.0254   18.8402 O   0  0  0  0  0  0  0  0  0  0  0  0
    9.9807  -20.5479   23.3445 N   0  0  0  0  0  0  0  0  0  0  0  0
    9.8148  -20.7562   24.7613 C   0  0  1  0  0  0  0  0  0  0  0  0
   10.0432  -22.2164   25.0610 C   0  0  0  0  0  0  0  0  0  0  0  0
    9.9923  -22.5701   26.4829 C   0  0  0  0  0  0  0  0  0  0  0  0
    9.0835  -22.1520   27.2206 O   0  0  0  0  0  0  0  0  0  0  0  0
   10.7032  -19.8801   25.5454 C   0  0  0  0  0  0  0  0  0  0  0  0
   11.6159  -19.0652   24.9147 O   0  0  0  0  0  0  0  0  0  0  0  0
   10.9677  -23.3827   27.0235 O   0  0  0  0  0  0  0  0  0  0  0  0
   10.6357  -19.8693   26.7905 O   0  0  0  0  0  0  0  0  0  0  0  0
  2  1  1  6
  2  3  1  0
  3  4  1  0
  4  8  1  0
  4  5  2  0
  5  6  1  0
  7  6  1  0
  8  7  2  0
  9  2  1  0
  9 11  1  0
 10  9  2  0
 12 11  1  0
 12 16  1  0
 12 13  1  1
 14 13  1  0
 15 14  2  0
 16 19  1  0
 17 16  2  0
 18 14  1  0
 19 20  1  0
 20 21  1  6
 20 24  1  0
 22 26  1  0
 22 21  1  0
 23 22  2  0
 24 25  1  0
 27 24  2  0
M  END
$$$$
