HDD.pdb
     RDKit          3D

 27 27  0  0  1  0  0  0  0  0999 V2000
    7.0904  -13.5861   19.2702 N   0  0  0  0  0  0  0  0  0  0  0  0
    8.4007  -14.1873   19.1497 C   0  0  1  0  0  0  0  0  0  0  0  0
    9.2513  -13.3231   18.2167 C   0  0  0  0  0  0  0  0  0  0  0  0
    8.7987  -13.5670   16.8234 C   0  0  0  0  0  0  0  0  0  0  0  0
    9.1691  -14.6267   16.0224 C   0  0  0  0  0  0  0  0  0  0  0  0
    8.5725  -14.5313   14.8275 N   0  0  0  0  0  0  0  0  0  0  0  0
    7.8228  -13.4164   14.8604 C   0  0  0  0  0  0  0  0  0  0  0  0
    7.9637  -12.8333   16.0766 N   0  0  0  0  0  0  0  0  0  0  0  0
    9.0554  -14.2084   20.4718 C   0  0  0  0  0  0  0  0  0  0  0  0
    9.0098  -13.1983   21.2036 O   0  0  0  0  0  0  0  0  0  0  0  0
    9.7185  -15.3979   20.8568 N   0  0  0  0  0  0  0  0  0  0  0  0
   10.4945  -15.4753   22.0557 C   0  0  1  0  0  0  0  0  0  0  0  0
    9.8852  -16.3543   23.0954 C   0  0  0  0  0  0  0  0  0  0  0  0
    9.7113  -17.7381   22.5429 C   0  0  0  0  0  0  0  0  0  0  0  0
   10.1108  -17.9721   21.3836 O   0  0  0  0  0  0  0  0  0  0  0  0
   11.9179  -15.8837   21.8222 C   0  0  0  0  0  0  0  0  0  0  0  0
   12.3708  -16.0918   20.6506 O   0  0  0  0  0  0  0  0  0  0  0  0
    9.1155  -18.7294   23.3187 O   0  0  0  0  0  0  0  0  0  0  0  0
   12.7522  -16.0319   22.9553 N   0  0  0  0  0  0  0  0  0  0  0  0
   14.1662  -16.2429   22.7712 C   0  0  1  0  0  0  0  0  0  0  0  0
   14.7362  -15.0560   22.0358 C   0  0  0  0  0  0  0  0  0  0  0  0
   16.1782  -15.1224   21.7801 C   0  0  0  0  0  0  0  0  0  0  0  0
   17.0018  -14.7041   22.6119 O   0  0  0  0  0  0  0  0  0  0  0  0
   14.8495  -16.4849   24.0542 C   0  0  0  0  0  0  0  0  0  0  0  0
   14.1681  -16.3599   25.2437 O   0  0  0  0  0  0  0  0  0  0  0  0
   16.6416  -15.6579   20.5959 O   0  0  0  0  0  0  0  0  0  0  0  0
   16.0544  -16.8058   24.0736 O   0  0  0  0  0  0  0  0  0  0  0  0
  2  1  1  1
  2  3  1  0
  3  4  1  0
  4  8  1  0
  4  5  2  0
  5  6  1  0
  7  6  1  0
  8  7  2  0
  9  2  1  0
  9 11  1  0
 10  9  2  0
 12 11  1  0
 12 16  1  0
 12 13  1  1
 14 13  1  0
 15 14  2  0
 16 19  1  0
 17 16  2  0
 18 14  1  0
 19 20  1  0
 20 21  1  1
 20 24  1  0
 22 26  1  0
 22 21  1  0
 23 22  2  0
 24 25  1  0
 27 24  2  0
M  END
$$$$
