HDD.pdb
     RDKit          3D

 27 27  0  0  1  0  0  0  0  0999 V2000
    9.5188  -15.3795   20.7879 N   0  0  0  0  0  0  0  0  0  0  0  0
    8.2464  -16.0413   20.9780 C   0  0  1  0  0  0  0  0  0  0  0  0
    7.6213  -16.3023   19.6062 C   0  0  0  0  0  0  0  0  0  0  0  0
    7.5399  -15.0074   18.8836 C   0  0  0  0  0  0  0  0  0  0  0  0
    7.3407  -13.7686   19.4557 C   0  0  0  0  0  0  0  0  0  0  0  0
    7.3210  -12.8219   18.5090 N   0  0  0  0  0  0  0  0  0  0  0  0
    7.5064  -13.4489   17.3349 C   0  0  0  0  0  0  0  0  0  0  0  0
    7.6390  -14.7782   17.5679 N   0  0  0  0  0  0  0  0  0  0  0  0
    8.4636  -17.3451   21.6338 C   0  0  0  0  0  0  0  0  0  0  0  0
    7.5484  -18.1937   21.6470 O   0  0  0  0  0  0  0  0  0  0  0  0
    9.7259  -17.5777   22.2297 N   0  0  0  0  0  0  0  0  0  0  0  0
   10.3372  -18.8707   22.2226 C   0  0  1  0  0  0  0  0  0  0  0  0
   10.3699  -19.4988   20.8702 C   0  0  0  0  0  0  0  0  0  0  0  0
    9.2746  -20.5184   20.7644 C   0  0  0  0  0  0  0  0  0  0  0  0
    8.3394  -20.4772   21.5902 O   0  0  0  0  0  0  0  0  0  0  0  0
   11.7130  -18.8856   22.8181 C   0  0  0  0  0  0  0  0  0  0  0  0
   12.3457  -19.9730   23.0136 O   0  0  0  0  0  0  0  0  0  0  0  0
    9.3143  -21.4837   19.7613 O   0  0  0  0  0  0  0  0  0  0  0  0
   12.2936  -17.6413   23.1594 N   0  0  0  0  0  0  0  0  0  0  0  0
   13.5509  -17.6158   23.8640 C   0  0  1  0  0  0  0  0  0  0  0  0
   14.2980  -16.3677   23.4663 C   0  0  0  0  0  0  0  0  0  0  0  0
   14.5227  -16.2153   22.0256 C   0  0  0  0  0  0  0  0  0  0  0  0
   14.5826  -17.2027   21.2730 O   0  0  0  0  0  0  0  0  0  0  0  0
   13.3570  -17.7092   25.3219 C   0  0  0  0  0  0  0  0  0  0  0  0
   12.0897  -17.7211   25.8593 O   0  0  0  0  0  0  0  0  0  0  0  0
   14.6720  -14.9553   21.4835 O   0  0  0  0  0  0  0  0  0  0  0  0
   14.3419  -17.7784   26.0835 O   0  0  0  0  0  0  0  0  0  0  0  0
  2  1  1  6
  2  3  1  0
  3  4  1  0
  4  8  1  0
  4  5  2  0
  5  6  1  0
  7  6  1  0
  8  7  2  0
  9  2  1  0
  9 11  1  0
 10  9  2  0
 12 11  1  0
 12 16  1  0
 12 13  1  6
 14 13  1  0
 15 14  2  0
 16 19  1  0
 17 16  2  0
 18 14  1  0
 19 20  1  0
 20 21  1  1
 20 24  1  0
 22 26  1  0
 22 21  1  0
 23 22  2  0
 24 25  1  0
 27 24  2  0
M  END
$$$$
