HDD.pdb
     RDKit          3D

 27 27  0  0  1  0  0  0  0  0999 V2000
   10.1525  -18.2363   15.7444 N   0  0  0  0  0  0  0  0  0  0  0  0
   11.0360  -18.4209   16.8750 C   0  0  1  0  0  0  0  0  0  0  0  0
   12.0214  -17.2514   16.9215 C   0  0  0  0  0  0  0  0  0  0  0  0
   13.0500  -17.4742   15.8737 C   0  0  0  0  0  0  0  0  0  0  0  0
   13.1815  -18.6018   15.0908 C   0  0  0  0  0  0  0  0  0  0  0  0
   14.2160  -18.4620   14.2523 N   0  0  0  0  0  0  0  0  0  0  0  0
   14.7464  -17.2514   14.4950 C   0  0  0  0  0  0  0  0  0  0  0  0
   14.0338  -16.6542   15.4821 N   0  0  0  0  0  0  0  0  0  0  0  0
   10.2485  -18.4011   18.1226 C   0  0  0  0  0  0  0  0  0  0  0  0
    9.1463  -17.8160   18.1521 O   0  0  0  0  0  0  0  0  0  0  0  0
   10.7907  -19.0603   19.2513 N   0  0  0  0  0  0  0  0  0  0  0  0
   10.1142  -19.0798   20.5114 C   0  0  1  0  0  0  0  0  0  0  0  0
    9.6363  -20.4376   20.9019 C   0  0  0  0  0  0  0  0  0  0  0  0
    8.9529  -20.3644   22.2353 C   0  0  0  0  0  0  0  0  0  0  0  0
    9.5997  -20.6804   23.2552 O   0  0  0  0  0  0  0  0  0  0  0  0
   10.9163  -18.4870   21.6307 C   0  0  0  0  0  0  0  0  0  0  0  0
   10.5071  -18.5169   22.8360 O   0  0  0  0  0  0  0  0  0  0  0  0
    7.6256  -19.9510   22.3174 O   0  0  0  0  0  0  0  0  0  0  0  0
   12.1555  -17.8875   21.3038 N   0  0  0  0  0  0  0  0  0  0  0  0
   12.9416  -17.2732   22.3443 C   0  0  1  0  0  0  0  0  0  0  0  0
   13.0598  -18.2439   23.4923 C   0  0  0  0  0  0  0  0  0  0  0  0
   13.9241  -17.7997   24.5900 C   0  0  0  0  0  0  0  0  0  0  0  0
   13.6493  -16.7900   25.2607 O   0  0  0  0  0  0  0  0  0  0  0  0
   14.2576  -16.8381   21.8438 C   0  0  0  0  0  0  0  0  0  0  0  0
   15.1466  -16.1990   22.6781 O   0  0  0  0  0  0  0  0  0  0  0  0
   15.0680  -18.5092   24.8933 O   0  0  0  0  0  0  0  0  0  0  0  0
   14.5783  -17.0457   20.6567 O   0  0  0  0  0  0  0  0  0  0  0  0
  2  1  1  6
  2  3  1  0
  3  4  1  0
  4  8  1  0
  4  5  2  0
  5  6  1  0
  7  6  1  0
  8  7  2  0
  9  2  1  0
  9 11  1  0
 10  9  2  0
 12 11  1  0
 12 16  1  0
 12 13  1  1
 14 13  1  0
 15 14  2  0
 16 19  1  0
 17 16  2  0
 18 14  1  0
 19 20  1  0
 20 21  1  1
 20 24  1  0
 22 26  1  0
 22 21  1  0
 23 22  2  0
 24 25  1  0
 27 24  2  0
M  END
$$$$
