SKE.pdb
     RDKit          3D

 25 24  0  0  1  0  0  0  0  0999 V2000
    9.0258  -21.3959   19.7920 O   0  0  0  0  0  0  0  0  0  0  0  0
    7.8920  -20.7180   19.3444 C   0  0  0  0  0  0  0  0  0  0  0  0
    8.2432  -19.6608   18.3218 C   0  0  2  0  0  0  0  0  0  0  0  0
    8.7640  -20.2143   17.0880 N   0  0  0  0  0  0  0  0  0  0  0  0
    9.2486  -18.7493   18.9256 C   0  0  0  0  0  0  0  0  0  0  0  0
   10.4754  -18.9686   18.6407 O   0  0  0  0  0  0  0  0  0  0  0  0
    8.9015  -17.6798   19.7785 N   0  0  0  0  0  0  0  0  0  0  0  0
    9.8952  -16.7444   20.1967 C   0  0  1  0  0  0  0  0  0  0  0  0
    9.2957  -15.4444   20.7023 C   0  0  0  0  0  0  0  0  0  0  0  0
    8.6436  -14.6752   19.5736 C   0  0  0  0  0  0  0  0  0  0  0  0
    7.9419  -13.4789   20.1793 C   0  0  0  0  0  0  0  0  0  0  0  0
    7.2290  -12.7560   19.0366 C   0  0  0  0  0  0  0  0  0  0  0  0
    6.4793  -11.6535   19.5635 N   0  0  0  0  0  0  0  0  0  0  0  0
   10.7510  -17.3370   21.2613 C   0  0  0  0  0  0  0  0  0  0  0  0
   10.2092  -17.9965   22.1662 O   0  0  0  0  0  0  0  0  0  0  0  0
   12.1361  -17.1602   21.2513 N   0  0  0  0  0  0  0  0  0  0  0  0
   12.9491  -17.9047   22.2469 C   0  0  1  0  0  0  0  0  0  0  0  0
   13.8790  -18.7510   21.4486 C   0  0  0  0  0  0  0  0  0  0  0  0
   14.8383  -18.0980   20.5463 C   0  0  0  0  0  0  0  0  0  0  0  0
   15.7555  -18.9168   19.7845 C   0  0  0  0  0  0  0  0  0  0  0  0
   16.2926  -19.9656   20.2883 O   0  0  0  0  0  0  0  0  0  0  0  0
   13.6071  -16.8444   23.0323 C   0  0  0  0  0  0  0  0  0  0  0  0
   14.3109  -17.0597   24.0390 O   0  0  0  0  0  0  0  0  0  0  0  0
   16.1292  -18.6517   18.4658 O   0  0  0  0  0  0  0  0  0  0  0  0
   13.4759  -15.4931   22.6821 O   0  0  0  0  0  0  0  0  0  0  0  0
  1  2  1  0
  3  5  1  0
  3  2  1  0
  3  4  1  6
  5  6  2  0
  7  5  1  0
  8  7  1  0
  8  9  1  1
 10  9  1  0
 11 10  1  0
 12 11  1  0
 13 12  1  0
 14  8  1  0
 15 14  2  0
 16 14  1  0
 17 16  1  0
 17 22  1  0
 17 18  1  6
 19 18  1  0
 20 19  1  0
 20 24  1  0
 21 20  2  0
 22 25  1  0
 23 22  2  0
M  END
$$$$
