SKE.pdb
     RDKit          3D

 25 24  0  0  1  0  0  0  0  0999 V2000
    8.5952  -19.0988   18.9819 O   0  0  0  0  0  0  0  0  0  0  0  0
    7.5512  -18.3317   19.4989 C   0  0  0  0  0  0  0  0  0  0  0  0
    7.7105  -16.8687   19.1513 C   0  0  2  0  0  0  0  0  0  0  0  0
    8.5896  -16.6456   18.0211 N   0  0  0  0  0  0  0  0  0  0  0  0
    8.2424  -16.1647   20.3462 C   0  0  0  0  0  0  0  0  0  0  0  0
    9.4965  -15.9172   20.3631 O   0  0  0  0  0  0  0  0  0  0  0  0
    7.4298  -15.7718   21.4311 N   0  0  0  0  0  0  0  0  0  0  0  0
    8.0052  -15.1018   22.5523 C   0  0  1  0  0  0  0  0  0  0  0  0
    6.9572  -14.5395   23.4959 C   0  0  0  0  0  0  0  0  0  0  0  0
    7.6059  -13.7818   24.6344 C   0  0  0  0  0  0  0  0  0  0  0  0
    6.4999  -13.2413   25.5146 C   0  0  0  0  0  0  0  0  0  0  0  0
    7.1692  -12.4132   26.6115 C   0  0  0  0  0  0  0  0  0  0  0  0
    6.1654  -11.8703   27.4791 N   0  0  0  0  0  0  0  0  0  0  0  0
    8.8996  -16.0236   23.3054 C   0  0  0  0  0  0  0  0  0  0  0  0
    8.5445  -17.2053   23.4631 O   0  0  0  0  0  0  0  0  0  0  0  0
   10.1155  -15.5778   23.8279 N   0  0  0  0  0  0  0  0  0  0  0  0
   11.0861  -16.5902   24.3170 C   0  0  1  0  0  0  0  0  0  0  0  0
   12.4233  -16.1059   23.8750 C   0  0  0  0  0  0  0  0  0  0  0  0
   13.6276  -16.7759   24.3866 C   0  0  0  0  0  0  0  0  0  0  0  0
   14.9280  -16.2846   23.9871 C   0  0  0  0  0  0  0  0  0  0  0  0
   15.1759  -15.9587   22.7728 O   0  0  0  0  0  0  0  0  0  0  0  0
   10.8885  -16.5946   25.7782 C   0  0  0  0  0  0  0  0  0  0  0  0
   11.2252  -17.5367   26.5228 O   0  0  0  0  0  0  0  0  0  0  0  0
   16.0039  -16.1208   24.8615 O   0  0  0  0  0  0  0  0  0  0  0  0
   10.2932  -15.5078   26.4343 O   0  0  0  0  0  0  0  0  0  0  0  0
  1  2  1  0
  3  5  1  0
  3  2  1  0
  3  4  1  6
  5  6  2  0
  7  5  1  0
  8  7  1  0
  8  9  1  1
 10  9  1  0
 11 10  1  0
 12 11  1  0
 13 12  1  0
 14  8  1  0
 15 14  2  0
 16 14  1  0
 17 16  1  0
 17 22  1  0
 17 18  1  1
 19 18  1  0
 20 19  1  0
 20 24  1  0
 21 20  2  0
 22 25  1  0
 23 22  2  0
M  END
$$$$
