SKE.pdb
     RDKit          3D

 25 24  0  0  1  0  0  0  0  0999 V2000
   10.3181  -20.1852   19.3202 O   0  0  0  0  0  0  0  0  0  0  0  0
   11.1107  -19.8429   18.2247 C   0  0  0  0  0  0  0  0  0  0  0  0
   10.8317  -18.4329   17.7549 C   0  0  2  0  0  0  0  0  0  0  0  0
   11.6703  -18.0273   16.6448 N   0  0  0  0  0  0  0  0  0  0  0  0
   11.0404  -17.5132   18.9024 C   0  0  0  0  0  0  0  0  0  0  0  0
   12.2444  -17.1660   19.1559 O   0  0  0  0  0  0  0  0  0  0  0  0
    9.9817  -17.0249   19.6978 N   0  0  0  0  0  0  0  0  0  0  0  0
   10.2412  -16.0804   20.7359 C   0  0  1  0  0  0  0  0  0  0  0  0
    9.0262  -15.2337   21.0703 C   0  0  0  0  0  0  0  0  0  0  0  0
    8.7412  -14.2379   19.9667 C   0  0  0  0  0  0  0  0  0  0  0  0
    7.2483  -13.9907   19.9462 C   0  0  0  0  0  0  0  0  0  0  0  0
    6.9768  -13.0018   18.8126 C   0  0  0  0  0  0  0  0  0  0  0  0
    5.5673  -12.7569   18.7205 N   0  0  0  0  0  0  0  0  0  0  0  0
   10.7083  -16.7763   21.9665 C   0  0  0  0  0  0  0  0  0  0  0  0
   10.2841  -17.9214   22.2035 O   0  0  0  0  0  0  0  0  0  0  0  0
   11.6052  -16.1621   22.8430 N   0  0  0  0  0  0  0  0  0  0  0  0
   12.4216  -17.0245   23.7351 C   0  0  1  0  0  0  0  0  0  0  0  0
   13.8273  -16.5666   23.5543 C   0  0  0  0  0  0  0  0  0  0  0  0
   14.8706  -17.1060   24.4383 C   0  0  0  0  0  0  0  0  0  0  0  0
   16.2396  -16.6781   24.2517 C   0  0  0  0  0  0  0  0  0  0  0  0
   17.1695  -17.0415   25.0551 O   0  0  0  0  0  0  0  0  0  0  0  0
   11.8641  -16.7755   25.0772 C   0  0  0  0  0  0  0  0  0  0  0  0
   11.0924  -15.8335   25.3460 O   0  0  0  0  0  0  0  0  0  0  0  0
   16.6657  -15.8554   23.2074 O   0  0  0  0  0  0  0  0  0  0  0  0
   12.1786  -17.6081   26.1607 O   0  0  0  0  0  0  0  0  0  0  0  0
  1  2  1  0
  3  5  1  0
  3  2  1  0
  3  4  1  6
  5  6  2  0
  7  5  1  0
  8  7  1  0
  8  9  1  1
 10  9  1  0
 11 10  1  0
 12 11  1  0
 13 12  1  0
 14  8  1  0
 15 14  2  0
 16 14  1  0
 17 16  1  0
 17 22  1  0
 17 18  1  1
 19 18  1  0
 20 19  1  0
 20 24  1  0
 21 20  2  0
 22 25  1  0
 23 22  2  0
M  END
$$$$
