SKE.pdb
     RDKit          3D

 25 24  0  0  1  0  0  0  0  0999 V2000
    6.8830  -21.1127   21.6039 O   0  0  0  0  0  0  0  0  0  0  0  0
    5.8540  -20.3168   21.1008 C   0  0  0  0  0  0  0  0  0  0  0  0
    6.1432  -19.8605   19.6884 C   0  0  2  0  0  0  0  0  0  0  0  0
    6.2491  -20.9574   18.7473 N   0  0  0  0  0  0  0  0  0  0  0  0
    7.4120  -19.0884   19.7025 C   0  0  0  0  0  0  0  0  0  0  0  0
    8.4981  -19.7586   19.7770 O   0  0  0  0  0  0  0  0  0  0  0  0
    7.4543  -17.6792   19.6376 N   0  0  0  0  0  0  0  0  0  0  0  0
    8.7055  -17.0044   19.5099 C   0  0  1  0  0  0  0  0  0  0  0  0
    8.5677  -15.6396   18.8593 C   0  0  0  0  0  0  0  0  0  0  0  0
    8.4702  -15.7659   17.3541 C   0  0  0  0  0  0  0  0  0  0  0  0
    8.1952  -14.3868   16.7950 C   0  0  0  0  0  0  0  0  0  0  0  0
    8.1158  -14.5308   15.2752 C   0  0  0  0  0  0  0  0  0  0  0  0
    7.7881  -13.2628   14.6923 N   0  0  0  0  0  0  0  0  0  0  0  0
    9.3507  -16.8498   20.8428 C   0  0  0  0  0  0  0  0  0  0  0  0
    8.6628  -16.4453   21.7970 O   0  0  0  0  0  0  0  0  0  0  0  0
   10.7019  -17.1509   21.0264 N   0  0  0  0  0  0  0  0  0  0  0  0
   11.2771  -17.0083   22.3884 C   0  0  1  0  0  0  0  0  0  0  0  0
   11.2298  -18.3720   22.9854 C   0  0  0  0  0  0  0  0  0  0  0  0
   11.8475  -19.4894   22.2569 C   0  0  0  0  0  0  0  0  0  0  0  0
   11.8424  -20.8063   22.8552 C   0  0  0  0  0  0  0  0  0  0  0  0
   12.3202  -21.8230   22.2385 O   0  0  0  0  0  0  0  0  0  0  0  0
   12.6371  -16.4921   22.1472 C   0  0  0  0  0  0  0  0  0  0  0  0
   13.1426  -16.3668   21.0141 O   0  0  0  0  0  0  0  0  0  0  0  0
   11.3340  -21.0858   24.1249 O   0  0  0  0  0  0  0  0  0  0  0  0
   13.4647  -16.1007   23.2092 O   0  0  0  0  0  0  0  0  0  0  0  0
  1  2  1  0
  3  5  1  0
  3  2  1  0
  3  4  1  6
  5  6  2  0
  7  5  1  0
  8  7  1  0
  8  9  1  1
 10  9  1  0
 11 10  1  0
 12 11  1  0
 13 12  1  0
 14  8  1  0
 15 14  2  0
 16 14  1  0
 17 16  1  0
 17 22  1  0
 17 18  1  6
 19 18  1  0
 20 19  1  0
 20 24  1  0
 21 20  2  0
 22 25  1  0
 23 22  2  0
M  END
$$$$
