SKE.pdb
     RDKit          3D

 25 24  0  0  1  0  0  0  0  0999 V2000
   13.4580  -20.4595   18.3589 O   0  0  0  0  0  0  0  0  0  0  0  0
   13.6414  -19.4457   17.4187 C   0  0  0  0  0  0  0  0  0  0  0  0
   12.3686  -18.6618   17.1901 C   0  0  2  0  0  0  0  0  0  0  0  0
   12.5302  -17.5807   16.2387 N   0  0  0  0  0  0  0  0  0  0  0  0
   11.9205  -18.1161   18.4969 C   0  0  0  0  0  0  0  0  0  0  0  0
   12.4480  -17.0155   18.8775 O   0  0  0  0  0  0  0  0  0  0  0  0
   10.9585  -18.7561   19.3073 N   0  0  0  0  0  0  0  0  0  0  0  0
   10.4723  -18.1145   20.4859 C   0  0  1  0  0  0  0  0  0  0  0  0
    9.0966  -18.6103   20.8940 C   0  0  0  0  0  0  0  0  0  0  0  0
    8.1502  -18.6109   19.7128 C   0  0  0  0  0  0  0  0  0  0  0  0
    6.8163  -19.1393   20.1942 C   0  0  0  0  0  0  0  0  0  0  0  0
    5.8370  -19.0027   19.0284 C   0  0  0  0  0  0  0  0  0  0  0  0
    4.5909  -19.6197   19.3772 N   0  0  0  0  0  0  0  0  0  0  0  0
   11.4213  -18.3150   21.6155 C   0  0  0  0  0  0  0  0  0  0  0  0
   11.9873  -19.4165   21.7328 O   0  0  0  0  0  0  0  0  0  0  0  0
   11.6764  -17.2911   22.5302 N   0  0  0  0  0  0  0  0  0  0  0  0
   12.6678  -17.5395   23.6080 C   0  0  1  0  0  0  0  0  0  0  0  0
   13.7957  -16.6061   23.3344 C   0  0  0  0  0  0  0  0  0  0  0  0
   15.1105  -17.1623   22.9840 C   0  0  0  0  0  0  0  0  0  0  0  0
   16.2127  -16.2585   22.7384 C   0  0  0  0  0  0  0  0  0  0  0  0
   17.3735  -16.6923   22.4117 O   0  0  0  0  0  0  0  0  0  0  0  0
   11.9232  -17.2535   24.8482 C   0  0  0  0  0  0  0  0  0  0  0  0
   10.8474  -16.6236   24.8839 O   0  0  0  0  0  0  0  0  0  0  0  0
   16.1184  -14.8685   22.8283 O   0  0  0  0  0  0  0  0  0  0  0  0
   12.3954  -17.6861   26.0955 O   0  0  0  0  0  0  0  0  0  0  0  0
  1  2  1  0
  3  5  1  0
  3  2  1  0
  3  4  1  6
  5  6  2  0
  7  5  1  0
  8  7  1  0
  8  9  1  1
 10  9  1  0
 11 10  1  0
 12 11  1  0
 13 12  1  0
 14  8  1  0
 15 14  2  0
 16 14  1  0
 17 16  1  0
 17 22  1  0
 17 18  1  6
 19 18  1  0
 20 19  1  0
 20 24  1  0
 21 20  2  0
 22 25  1  0
 23 22  2  0
M  END
$$$$
