SKE.pdb
     RDKit          3D

 25 24  0  0  1  0  0  0  0  0999 V2000
   15.5285  -16.6824   17.7310 O   0  0  0  0  0  0  0  0  0  0  0  0
   14.8722  -16.1985   16.5994 C   0  0  0  0  0  0  0  0  0  0  0  0
   14.5812  -14.7191   16.7148 C   0  0  2  0  0  0  0  0  0  0  0  0
   15.7791  -13.9111   16.8249 N   0  0  0  0  0  0  0  0  0  0  0  0
   13.7234  -14.5084   17.9090 C   0  0  0  0  0  0  0  0  0  0  0  0
   14.3077  -14.1425   18.9856 O   0  0  0  0  0  0  0  0  0  0  0  0
   12.3244  -14.6937   17.8922 N   0  0  0  0  0  0  0  0  0  0  0  0
   11.5570  -14.4698   19.0747 C   0  0  1  0  0  0  0  0  0  0  0  0
   10.0636  -14.4403   18.8032 C   0  0  0  0  0  0  0  0  0  0  0  0
    9.2892  -14.1572   20.0724 C   0  0  0  0  0  0  0  0  0  0  0  0
    7.8163  -14.1771   19.7252 C   0  0  0  0  0  0  0  0  0  0  0  0
    7.0528  -13.8437   21.0068 C   0  0  0  0  0  0  0  0  0  0  0  0
    5.6434  -13.8933   20.7491 N   0  0  0  0  0  0  0  0  0  0  0  0
   11.8506  -15.5180   20.0906 C   0  0  0  0  0  0  0  0  0  0  0  0
   12.0032  -16.6927   19.7110 O   0  0  0  0  0  0  0  0  0  0  0  0
   11.9542  -15.1965   21.4456 N   0  0  0  0  0  0  0  0  0  0  0  0
   12.3486  -16.2676   22.3961 C   0  0  1  0  0  0  0  0  0  0  0  0
   13.6524  -15.8314   22.9688 C   0  0  0  0  0  0  0  0  0  0  0  0
   14.8722  -16.5645   22.6006 C   0  0  0  0  0  0  0  0  0  0  0  0
   16.1453  -16.1157   23.1202 C   0  0  0  0  0  0  0  0  0  0  0  0
   16.8549  -16.8591   23.8858 O   0  0  0  0  0  0  0  0  0  0  0  0
   11.2376  -16.3097   23.3646 C   0  0  0  0  0  0  0  0  0  0  0  0
   10.3829  -15.4092   23.4821 O   0  0  0  0  0  0  0  0  0  0  0  0
   16.7065  -14.8680   22.8427 O   0  0  0  0  0  0  0  0  0  0  0  0
   11.0729  -17.3967   24.2348 O   0  0  0  0  0  0  0  0  0  0  0  0
  1  2  1  0
  3  5  1  0
  3  2  1  0
  3  4  1  1
  5  6  2  0
  7  5  1  0
  8  7  1  0
  8  9  1  6
 10  9  1  0
 11 10  1  0
 12 11  1  0
 13 12  1  0
 14  8  1  0
 15 14  2  0
 16 14  1  0
 17 16  1  0
 17 22  1  0
 17 18  1  1
 19 18  1  0
 20 19  1  0
 20 24  1  0
 21 20  2  0
 22 25  1  0
 23 22  2  0
M  END
$$$$
