FPM.pdb
     RDKit          3D

 27 28  0  0  1  0  0  0  0  0999 V2000
   29.2887  -27.1055  -16.7821 N   0  0  0  0  0  0  0  0  0  0  0  0
   28.8240  -25.9316  -17.5327 C   0  0  1  0  0  0  0  0  0  0  0  0
   27.6276  -26.3079  -18.3815 C   0  0  0  0  0  0  0  0  0  0  0  0
   27.9237  -26.3634  -19.8234 C   0  0  0  0  0  0  0  0  0  0  0  0
   29.1498  -25.9416  -20.2976 C   0  0  0  0  0  0  0  0  0  0  0  0
   29.4629  -25.9841  -21.6501 C   0  0  0  0  0  0  0  0  0  0  0  0
   28.5416  -26.4529  -22.5394 C   0  0  0  0  0  0  0  0  0  0  0  0
   27.3187  -26.8764  -22.0893 C   0  0  0  0  0  0  0  0  0  0  0  0
   27.0192  -26.8313  -20.7595 C   0  0  0  0  0  0  0  0  0  0  0  0
   28.6068  -24.7969  -16.6407 C   0  0  0  0  0  0  0  0  0  0  0  0
   28.1888  -25.0485  -15.4562 O   0  0  0  0  0  0  0  0  0  0  0  0
   28.8160  -23.4175  -16.9528 N   0  0  0  0  0  0  0  0  0  0  0  0
   29.3668  -22.9911  -18.2309 C   0  0  0  0  0  0  0  0  0  0  0  0
   29.8770  -21.5773  -17.9672 C   0  0  0  0  0  0  0  0  0  0  0  0
   28.7382  -21.0924  -17.0563 C   0  0  0  0  0  0  0  0  0  0  0  0
   28.5656  -22.2698  -16.1439 C   0  0  1  0  0  0  0  0  0  0  0  0
   27.1788  -22.2206  -15.6117 C   0  0  0  0  0  0  0  0  0  0  0  0
   26.1946  -22.6902  -16.2154 O   0  0  0  0  0  0  0  0  0  0  0  0
   23.7093  -20.3637   -8.6720 C   0  0  0  0  0  0  0  0  0  0  0  0
   25.1710  -20.5406   -9.7251 S   0  0  0  0  0  0  0  0  0  0  0  0
   24.6811  -21.0188  -11.4255 C   0  0  0  0  0  0  0  0  0  0  0  0
   25.8976  -21.1808  -12.2683 C   0  0  0  0  0  0  0  0  0  0  0  0
   25.6706  -21.5874  -13.6826 C   0  0  2  0  0  0  0  0  0  0  0  0
   26.9889  -21.6057  -14.3546 N   0  0  0  0  0  0  0  0  0  0  0  0
   24.8250  -20.6359  -14.4142 C   0  0  0  0  0  0  0  0  0  0  0  0
   25.3323  -19.6423  -14.9740 O   0  0  0  0  0  0  0  0  0  0  0  0
   23.4646  -20.8247  -14.4943 O   0  0  0  0  0  0  0  0  0  0  0  0
  2  1  1  1
  3  4  1  0
  3  2  1  0
  4  9  2  0
  5  6  2  0
  5  4  1  0
  6  7  1  0
  7  8  2  0
  9  8  1  0
 10  2  1  0
 10 11  2  0
 12 10  1  0
 13 12  1  0
 14 15  1  0
 14 13  1  0
 15 16  1  0
 16 12  1  0
 16 17  1  6
 18 17  2  0
 20 19  1  0
 21 20  1  0
 22 21  1  0
 23 22  1  1
 23 24  1  0
 24 17  1  0
 25 23  1  0
 26 25  2  0
 27 25  1  0
M  END
$$$$
