FPM.pdb
     RDKit          3D

 27 28  0  0  1  0  0  0  0  0999 V2000
   22.5226  -22.7965  -18.0878 N   0  0  0  0  0  0  0  0  0  0  0  0
   21.5193  -21.9737  -17.3995 C   0  0  1  0  0  0  0  0  0  0  0  0
   20.2453  -21.9300  -18.2172 C   0  0  0  0  0  0  0  0  0  0  0  0
   20.3996  -21.2404  -19.5098 C   0  0  0  0  0  0  0  0  0  0  0  0
   20.7983  -19.9193  -19.5491 C   0  0  0  0  0  0  0  0  0  0  0  0
   20.9571  -19.2407  -20.7506 C   0  0  0  0  0  0  0  0  0  0  0  0
   20.7154  -19.8882  -21.9260 C   0  0  0  0  0  0  0  0  0  0  0  0
   20.3188  -21.1996  -21.9088 C   0  0  0  0  0  0  0  0  0  0  0  0
   20.1650  -21.8588  -20.7247 C   0  0  0  0  0  0  0  0  0  0  0  0
   21.3437  -22.4144  -16.0192 C   0  0  0  0  0  0  0  0  0  0  0  0
   21.2219  -23.6727  -15.8121 O   0  0  0  0  0  0  0  0  0  0  0  0
   21.2947  -21.5797  -14.8595 N   0  0  0  0  0  0  0  0  0  0  0  0
   21.5546  -20.1491  -14.9278 C   0  0  0  0  0  0  0  0  0  0  0  0
   21.8911  -19.7595  -13.4913 C   0  0  0  0  0  0  0  0  0  0  0  0
   20.8640  -20.6463  -12.7700 C   0  0  0  0  0  0  0  0  0  0  0  0
   21.0203  -21.9423  -13.5077 C   0  0  1  0  0  0  0  0  0  0  0  0
   19.7508  -22.6992  -13.3515 C   0  0  0  0  0  0  0  0  0  0  0  0
   18.8513  -22.7170  -14.2143 O   0  0  0  0  0  0  0  0  0  0  0  0
   19.8813  -28.0126   -9.9011 C   0  0  0  0  0  0  0  0  0  0  0  0
   18.2466  -27.4603   -9.3538 S   0  0  0  0  0  0  0  0  0  0  0  0
   17.5928  -26.1752  -10.4855 C   0  0  0  0  0  0  0  0  0  0  0  0
   18.6954  -25.2618  -10.8933 C   0  0  0  0  0  0  0  0  0  0  0  0
   18.3465  -24.2093  -11.8872 C   0  0  2  0  0  0  0  0  0  0  0  0
   19.5751  -23.4295  -12.1556 N   0  0  0  0  0  0  0  0  0  0  0  0
   17.3384  -23.2688  -11.3823 C   0  0  0  0  0  0  0  0  0  0  0  0
   17.6886  -22.2153  -10.8117 O   0  0  0  0  0  0  0  0  0  0  0  0
   15.9964  -23.5330  -11.5305 O   0  0  0  0  0  0  0  0  0  0  0  0
  2  1  1  6
  3  4  1  0
  3  2  1  0
  4  9  2  0
  5  6  2  0
  5  4  1  0
  6  7  1  0
  7  8  2  0
  9  8  1  0
 10  2  1  0
 10 11  2  0
 12 10  1  0
 13 12  1  0
 14 15  1  0
 14 13  1  0
 15 16  1  0
 16 12  1  0
 16 17  1  6
 18 17  2  0
 20 19  1  0
 21 20  1  0
 22 21  1  0
 23 22  1  1
 23 24  1  0
 24 17  1  0
 25 23  1  0
 26 25  2  0
 27 25  1  0
M  END
$$$$
