FPM.pdb
     RDKit          3D

 27 28  0  0  1  0  0  0  0  0999 V2000
   27.2904  -21.1301  -16.4989 N   0  0  0  0  0  0  0  0  0  0  0  0
   27.0959  -20.3266  -15.2849 C   0  0  1  0  0  0  0  0  0  0  0  0
   26.7248  -18.9082  -15.6643 C   0  0  0  0  0  0  0  0  0  0  0  0
   27.7463  -18.2319  -16.4824 C   0  0  0  0  0  0  0  0  0  0  0  0
   27.4182  -17.7248  -17.7238 C   0  0  0  0  0  0  0  0  0  0  0  0
   28.3559  -17.0783  -18.5189 C   0  0  0  0  0  0  0  0  0  0  0  0
   29.6354  -16.9364  -18.0695 C   0  0  0  0  0  0  0  0  0  0  0  0
   29.9816  -17.4326  -16.8402 C   0  0  0  0  0  0  0  0  0  0  0  0
   29.0549  -18.0662  -16.0657 C   0  0  0  0  0  0  0  0  0  0  0  0
   26.1608  -20.9792  -14.3738 C   0  0  0  0  0  0  0  0  0  0  0  0
   25.1834  -21.6242  -14.8931 O   0  0  0  0  0  0  0  0  0  0  0  0
   26.2227  -20.9760  -12.9455 N   0  0  0  0  0  0  0  0  0  0  0  0
   27.4613  -20.7122  -12.2280 C   0  0  0  0  0  0  0  0  0  0  0  0
   27.2165  -21.2818  -10.8337 C   0  0  0  0  0  0  0  0  0  0  0  0
   25.7500  -20.8528  -10.6686 C   0  0  0  0  0  0  0  0  0  0  0  0
   25.1797  -21.2238  -12.0048 C   0  0  1  0  0  0  0  0  0  0  0  0
   23.9787  -20.3767  -12.2265 C   0  0  0  0  0  0  0  0  0  0  0  0
   24.0250  -19.2389  -12.7334 O   0  0  0  0  0  0  0  0  0  0  0  0
   20.3317  -22.6472  -16.9090 C   0  0  0  0  0  0  0  0  0  0  0  0
   20.5625  -21.0875  -16.0197 S   0  0  0  0  0  0  0  0  0  0  0  0
   20.8897  -21.4052  -14.2443 C   0  0  0  0  0  0  0  0  0  0  0  0
   21.2792  -20.1344  -13.5736 C   0  0  0  0  0  0  0  0  0  0  0  0
   21.4593  -20.1964  -12.0968 C   0  0  2  0  0  0  0  0  0  0  0  0
   22.7301  -20.9083  -11.8357 N   0  0  0  0  0  0  0  0  0  0  0  0
   20.3934  -20.9547  -11.4300 C   0  0  0  0  0  0  0  0  0  0  0  0
   20.5651  -22.1544  -11.1312 O   0  0  0  0  0  0  0  0  0  0  0  0
   19.1929  -20.3562  -11.1246 O   0  0  0  0  0  0  0  0  0  0  0  0
  2  1  1  6
  3  4  1  0
  3  2  1  0
  4  9  2  0
  5  6  2  0
  5  4  1  0
  6  7  1  0
  7  8  2  0
  9  8  1  0
 10  2  1  0
 10 11  2  0
 12 10  1  0
 13 12  1  0
 14 15  1  0
 14 13  1  0
 15 16  1  0
 16 12  1  0
 16 17  1  6
 18 17  2  0
 20 19  1  0
 21 20  1  0
 22 21  1  0
 23 22  1  6
 23 24  1  0
 24 17  1  0
 25 23  1  0
 26 25  2  0
 27 25  1  0
M  END
$$$$
