FPM.pdb
     RDKit          3D

 27 28  0  0  1  0  0  0  0  0999 V2000
   17.9820   -9.9258  -14.3247 N   0  0  0  0  0  0  0  0  0  0  0  0
   18.5728   -8.6099  -14.6013 C   0  0  1  0  0  0  0  0  0  0  0  0
   17.6851   -7.8413  -15.5578 C   0  0  0  0  0  0  0  0  0  0  0  0
   17.6479   -8.4141  -16.9145 C   0  0  0  0  0  0  0  0  0  0  0  0
   16.4607   -8.8875  -17.4364 C   0  0  0  0  0  0  0  0  0  0  0  0
   16.3898   -9.4299  -18.7131 C   0  0  0  0  0  0  0  0  0  0  0  0
   17.5168   -9.5005  -19.4774 C   0  0  0  0  0  0  0  0  0  0  0  0
   18.7053   -9.0361  -18.9781 C   0  0  0  0  0  0  0  0  0  0  0  0
   18.7663   -8.5050  -17.7234 C   0  0  0  0  0  0  0  0  0  0  0  0
   18.8836   -7.9083  -13.3598 C   0  0  0  0  0  0  0  0  0  0  0  0
   18.0338   -7.9931  -12.4049 O   0  0  0  0  0  0  0  0  0  0  0  0
   20.0518   -7.1284  -13.0929 N   0  0  0  0  0  0  0  0  0  0  0  0
   21.2228   -7.1738  -13.9563 C   0  0  0  0  0  0  0  0  0  0  0  0
   22.3529   -6.6324  -13.0853 C   0  0  0  0  0  0  0  0  0  0  0  0
   21.5720   -5.5205  -12.3673 C   0  0  0  0  0  0  0  0  0  0  0  0
   20.3008   -6.2320  -12.0119 C   0  0  1  0  0  0  0  0  0  0  0  0
   19.2431   -5.2002  -11.8522 C   0  0  0  0  0  0  0  0  0  0  0  0
   18.3974   -4.9420  -12.7308 O   0  0  0  0  0  0  0  0  0  0  0  0
   12.7557   -3.3158   -9.4446 C   0  0  0  0  0  0  0  0  0  0  0  0
   14.1665   -4.2705  -10.0571 S   0  0  0  0  0  0  0  0  0  0  0  0
   15.7152   -3.3048   -9.8873 C   0  0  0  0  0  0  0  0  0  0  0  0
   16.8626   -4.1097  -10.3894 C   0  0  0  0  0  0  0  0  0  0  0  0
   18.1959   -3.4473  -10.3597 C   0  0  2  0  0  0  0  0  0  0  0  0
   19.2125   -4.4871  -10.6336 N   0  0  0  0  0  0  0  0  0  0  0  0
   18.5098   -2.8702   -9.0467 C   0  0  0  0  0  0  0  0  0  0  0  0
   18.0930   -1.7340   -8.7413 O   0  0  0  0  0  0  0  0  0  0  0  0
   19.2651   -3.5711   -8.1352 O   0  0  0  0  0  0  0  0  0  0  0  0
  2  1  1  1
  3  4  1  0
  3  2  1  0
  4  9  2  0
  5  6  2  0
  5  4  1  0
  6  7  1  0
  7  8  2  0
  9  8  1  0
 10  2  1  0
 10 11  2  0
 12 10  1  0
 13 12  1  0
 14 15  1  0
 14 13  1  0
 15 16  1  0
 16 12  1  0
 16 17  1  6
 18 17  2  0
 20 19  1  0
 21 20  1  0
 22 21  1  0
 23 22  1  1
 23 24  1  0
 24 17  1  0
 25 23  1  0
 26 25  2  0
 27 25  1  0
M  END
$$$$
