FPM.pdb
     RDKit          3D

 27 28  0  0  1  0  0  0  0  0999 V2000
   27.2460  -21.5346  -16.3407 N   0  0  0  0  0  0  0  0  0  0  0  0
   26.0623  -22.0330  -15.6280 C   0  0  1  0  0  0  0  0  0  0  0  0
   26.1801  -23.5291  -15.4245 C   0  0  0  0  0  0  0  0  0  0  0  0
   26.0402  -24.3046  -16.6691 C   0  0  0  0  0  0  0  0  0  0  0  0
   27.0586  -25.1382  -17.0864 C   0  0  0  0  0  0  0  0  0  0  0  0
   26.9576  -25.8861  -18.2525 C   0  0  0  0  0  0  0  0  0  0  0  0
   25.8273  -25.8010  -19.0104 C   0  0  0  0  0  0  0  0  0  0  0  0
   24.8049  -24.9796  -18.6139 C   0  0  0  0  0  0  0  0  0  0  0  0
   24.9120  -24.2484  -17.4675 C   0  0  0  0  0  0  0  0  0  0  0  0
   25.8299  -21.2675  -14.4073 C   0  0  0  0  0  0  0  0  0  0  0  0
   26.8465  -21.0017  -13.6744 O   0  0  0  0  0  0  0  0  0  0  0  0
   24.5722  -20.7752  -13.9384 N   0  0  0  0  0  0  0  0  0  0  0  0
   23.3653  -20.8479  -14.7488 C   0  0  0  0  0  0  0  0  0  0  0  0
   22.4322  -19.8130  -14.1267 C   0  0  0  0  0  0  0  0  0  0  0  0
   22.7679  -20.0657  -12.6485 C   0  0  0  0  0  0  0  0  0  0  0  0
   24.2643  -20.1504  -12.6939 C   0  0  1  0  0  0  0  0  0  0  0  0
   24.7007  -20.9455  -11.5165 C   0  0  0  0  0  0  0  0  0  0  0  0
   24.6112  -22.1872  -11.4550 O   0  0  0  0  0  0  0  0  0  0  0  0
   28.0645  -18.9216   -4.6760 C   0  0  0  0  0  0  0  0  0  0  0  0
   28.2462  -19.4129   -6.4088 S   0  0  0  0  0  0  0  0  0  0  0  0
   26.6034  -19.7100   -7.1656 C   0  0  0  0  0  0  0  0  0  0  0  0
   26.7752  -20.1136   -8.5883 C   0  0  0  0  0  0  0  0  0  0  0  0
   25.6741  -20.9212   -9.1822 C   0  0  2  0  0  0  0  0  0  0  0  0
   25.2426  -20.2372  -10.4214 N   0  0  0  0  0  0  0  0  0  0  0  0
   24.5006  -21.0070   -8.3040 C   0  0  0  0  0  0  0  0  0  0  0  0
   23.4955  -20.3001   -8.5236 O   0  0  0  0  0  0  0  0  0  0  0  0
   24.4905  -21.8657   -7.2292 O   0  0  0  0  0  0  0  0  0  0  0  0
  2  1  1  1
  3  4  1  0
  3  2  1  0
  4  9  2  0
  5  6  2  0
  5  4  1  0
  6  7  1  0
  7  8  2  0
  9  8  1  0
 10  2  1  0
 10 11  2  0
 12 10  1  0
 13 12  1  0
 14 15  1  0
 14 13  1  0
 15 16  1  0
 16 12  1  0
 16 17  1  1
 18 17  2  0
 20 19  1  0
 21 20  1  0
 22 21  1  0
 23 22  1  1
 23 24  1  0
 24 17  1  0
 25 23  1  0
 26 25  2  0
 27 25  1  0
M  END
$$$$
