FPM.pdb
     RDKit          3D

 27 28  0  0  1  0  0  0  0  0999 V2000
   24.4691  -18.1740  -16.4312 N   0  0  0  0  0  0  0  0  0  0  0  0
   25.7487  -18.1274  -15.7117 C   0  0  1  0  0  0  0  0  0  0  0  0
   25.9770  -16.7343  -15.1636 C   0  0  0  0  0  0  0  0  0  0  0  0
   26.2190  -15.7239  -16.2079 C   0  0  0  0  0  0  0  0  0  0  0  0
   25.2591  -14.7725  -16.4898 C   0  0  0  0  0  0  0  0  0  0  0  0
   25.4566  -13.8035  -17.4652 C   0  0  0  0  0  0  0  0  0  0  0  0
   26.6255  -13.7841  -18.1671 C   0  0  0  0  0  0  0  0  0  0  0  0
   27.5911  -14.7196  -17.9027 C   0  0  0  0  0  0  0  0  0  0  0  0
   27.3892  -15.6678  -16.9433 C   0  0  0  0  0  0  0  0  0  0  0  0
   25.8256  -19.1941  -14.7184 C   0  0  0  0  0  0  0  0  0  0  0  0
   24.8295  -19.3357  -13.9255 O   0  0  0  0  0  0  0  0  0  0  0  0
   26.9080  -20.1103  -14.5362 N   0  0  0  0  0  0  0  0  0  0  0  0
   28.0436  -20.1525  -15.4457 C   0  0  0  0  0  0  0  0  0  0  0  0
   28.6660  -21.5252  -15.2061 C   0  0  0  0  0  0  0  0  0  0  0  0
   28.4896  -21.5901  -13.6809 C   0  0  0  0  0  0  0  0  0  0  0  0
   27.0815  -21.0993  -13.5234 C   0  0  1  0  0  0  0  0  0  0  0  0
   26.9514  -20.5554  -12.1464 C   0  0  0  0  0  0  0  0  0  0  0  0
   27.8560  -19.9196  -11.5709 O   0  0  0  0  0  0  0  0  0  0  0  0
   29.2214  -19.4738   -6.9462 C   0  0  0  0  0  0  0  0  0  0  0  0
   27.5441  -18.8221   -7.1432 S   0  0  0  0  0  0  0  0  0  0  0  0
   26.4333  -20.1093   -7.8281 C   0  0  0  0  0  0  0  0  0  0  0  0
   26.4751  -20.0643   -9.3156 C   0  0  0  0  0  0  0  0  0  0  0  0
   25.6799  -21.1014  -10.0293 C   0  0  2  0  0  0  0  0  0  0  0  0
   25.7307  -20.7817  -11.4733 N   0  0  0  0  0  0  0  0  0  0  0  0
   24.2657  -21.0984   -9.6347 C   0  0  0  0  0  0  0  0  0  0  0  0
   23.3827  -20.7739  -10.4552 O   0  0  0  0  0  0  0  0  0  0  0  0
   23.8931  -21.4527   -8.3587 O   0  0  0  0  0  0  0  0  0  0  0  0
  2  1  1  1
  3  4  1  0
  3  2  1  0
  4  9  2  0
  5  6  2  0
  5  4  1  0
  6  7  1  0
  7  8  2  0
  9  8  1  0
 10  2  1  0
 10 11  2  0
 12 10  1  0
 13 12  1  0
 14 15  1  0
 14 13  1  0
 15 16  1  0
 16 12  1  0
 16 17  1  1
 18 17  2  0
 20 19  1  0
 21 20  1  0
 22 21  1  0
 23 22  1  1
 23 24  1  0
 24 17  1  0
 25 23  1  0
 26 25  2  0
 27 25  1  0
M  END
$$$$
