FPM.pdb
     RDKit          3D

 27 28  0  0  1  0  0  0  0  0999 V2000
   24.3706  -19.1942  -15.6093 N   0  0  0  0  0  0  0  0  0  0  0  0
   25.3417  -18.6947  -14.6271 C   0  0  1  0  0  0  0  0  0  0  0  0
   24.8697  -17.3678  -14.0703 C   0  0  0  0  0  0  0  0  0  0  0  0
   24.8371  -16.2880  -15.0718 C   0  0  0  0  0  0  0  0  0  0  0  0
   23.6333  -15.8671  -15.6007 C   0  0  0  0  0  0  0  0  0  0  0  0
   23.5668  -14.8493  -16.5436 C   0  0  0  0  0  0  0  0  0  0  0  0
   24.7148  -14.2449  -16.9631 C   0  0  0  0  0  0  0  0  0  0  0  0
   25.9199  -14.6478  -16.4506 C   0  0  0  0  0  0  0  0  0  0  0  0
   25.9766  -15.6481  -15.5251 C   0  0  0  0  0  0  0  0  0  0  0  0
   25.6319  -19.7105  -13.6200 C   0  0  0  0  0  0  0  0  0  0  0  0
   24.6576  -20.1191  -12.8956 O   0  0  0  0  0  0  0  0  0  0  0  0
   26.9042  -20.3065  -13.3550 N   0  0  0  0  0  0  0  0  0  0  0  0
   27.9887  -20.2720  -14.3252 C   0  0  0  0  0  0  0  0  0  0  0  0
   28.9229  -21.3953  -13.8844 C   0  0  0  0  0  0  0  0  0  0  0  0
   28.8149  -21.1957  -12.3645 C   0  0  0  0  0  0  0  0  0  0  0  0
   27.3367  -21.0116  -12.1932 C   0  0  1  0  0  0  0  0  0  0  0  0
   27.1261  -20.2498  -10.9345 C   0  0  0  0  0  0  0  0  0  0  0  0
   27.9132  -19.3763  -10.5207 O   0  0  0  0  0  0  0  0  0  0  0  0
   28.3504  -19.5269   -4.0407 C   0  0  0  0  0  0  0  0  0  0  0  0
   28.0798  -19.1128   -5.7821 S   0  0  0  0  0  0  0  0  0  0  0  0
   26.8802  -20.2747   -6.5375 C   0  0  0  0  0  0  0  0  0  0  0  0
   26.8612  -20.0824   -8.0137 C   0  0  0  0  0  0  0  0  0  0  0  0
   26.0416  -21.0500   -8.7943 C   0  0  2  0  0  0  0  0  0  0  0  0
   25.9673  -20.5466  -10.1839 N   0  0  0  0  0  0  0  0  0  0  0  0
   24.6641  -21.1525   -8.2967 C   0  0  0  0  0  0  0  0  0  0  0  0
   24.4436  -21.4961   -7.1172 O   0  0  0  0  0  0  0  0  0  0  0  0
   23.5984  -20.8715   -9.1202 O   0  0  0  0  0  0  0  0  0  0  0  0
  2  1  1  6
  3  4  1  0
  3  2  1  0
  4  9  2  0
  5  6  2  0
  5  4  1  0
  6  7  1  0
  7  8  2  0
  9  8  1  0
 10  2  1  0
 10 11  2  0
 12 10  1  0
 13 12  1  0
 14 15  1  0
 14 13  1  0
 15 16  1  0
 16 12  1  0
 16 17  1  1
 18 17  2  0
 20 19  1  0
 21 20  1  0
 22 21  1  0
 23 22  1  1
 23 24  1  0
 24 17  1  0
 25 23  1  0
 26 25  2  0
 27 25  1  0
M  END
$$$$
