AVM.pdb
     RDKit          3D

 21 20  0  0  1  0  0  0  0  0999 V2000
    5.0367  -18.3967   22.3299 C   0  0  0  0  0  0  0  0  0  0  0  0
    5.5455  -18.0014   20.9690 C   0  0  2  0  0  0  0  0  0  0  0  0
    6.0352  -19.1659   20.2497 N   0  0  0  0  0  0  0  0  0  0  0  0
    6.6873  -17.0709   21.1592 C   0  0  0  0  0  0  0  0  0  0  0  0
    7.7675  -17.5886   21.4963 O   0  0  0  0  0  0  0  0  0  0  0  0
    6.3178  -13.5007   19.5314 C   0  0  0  0  0  0  0  0  0  0  0  0
    7.7013  -13.6150   20.1362 C   0  0  1  0  0  0  0  0  0  0  0  0
    8.1570  -12.3056   20.6854 C   0  0  0  0  0  0  0  0  0  0  0  0
    7.7138  -14.7610   21.0733 C   0  0  2  0  0  0  0  0  0  0  0  0
    6.5990  -15.6637   20.9786 N   0  0  0  0  0  0  0  0  0  0  0  0
    8.0346  -14.4020   22.4794 C   0  0  0  0  0  0  0  0  0  0  0  0
    7.6104  -13.3268   23.0281 O   0  0  0  0  0  0  0  0  0  0  0  0
    6.6864  -11.5566   26.4945 C   0  0  0  0  0  0  0  0  0  0  0  0
    8.1323  -12.4773   27.0856 S   0  0  0  0  0  0  0  0  0  0  0  0
    7.8569  -14.2816   26.8773 C   0  0  0  0  0  0  0  0  0  0  0  0
    7.7602  -14.5355   25.4185 C   0  0  0  0  0  0  0  0  0  0  0  0
    9.0514  -14.9019   24.7421 C   0  0  2  0  0  0  0  0  0  0  0  0
    8.8330  -15.2048   23.3409 N   0  0  0  0  0  0  0  0  0  0  0  0
    9.7984  -15.9631   25.4348 C   0  0  0  0  0  0  0  0  0  0  0  0
    9.5543  -17.1790   25.3728 O   0  0  0  0  0  0  0  0  0  0  0  0
   10.8874  -15.5931   26.2431 O   0  0  0  0  0  0  0  0  0  0  0  0
  2  1  1  1
  3  2  1  0
  4  5  2  0
  4  2  1  0
  7  6  1  1
  7  9  1  0
  8  7  1  0
  9 11  1  0
  9 10  1  1
 10  4  1  0
 11 18  1  0
 12 11  2  0
 14 13  1  0
 15 14  1  0
 17 16  1  1
 16 15  1  0
 18 17  1  0
 19 21  1  0
 19 17  1  0
 20 19  2  0
M  END
$$$$
