AVM.pdb
     RDKit          3D

 21 20  0  0  1  0  0  0  0  0999 V2000
   10.3113  -19.2135   19.4730 C   0  0  0  0  0  0  0  0  0  0  0  0
    9.9405  -17.8974   18.8424 C   0  0  2  0  0  0  0  0  0  0  0  0
   10.9289  -17.5117   17.8486 N   0  0  0  0  0  0  0  0  0  0  0  0
    9.9393  -16.8629   19.9080 C   0  0  0  0  0  0  0  0  0  0  0  0
   11.0172  -16.2717   20.1008 O   0  0  0  0  0  0  0  0  0  0  0  0
    7.3430  -13.9697   20.6937 C   0  0  0  0  0  0  0  0  0  0  0  0
    7.5635  -14.7949   21.9440 C   0  0  1  0  0  0  0  0  0  0  0  0
    6.3335  -15.5549   22.3095 C   0  0  0  0  0  0  0  0  0  0  0  0
    8.8007  -15.5896   21.7732 C   0  0  2  0  0  0  0  0  0  0  0  0
    8.7980  -16.5331   20.6885 N   0  0  0  0  0  0  0  0  0  0  0  0
    9.3348  -16.1738   23.0312 C   0  0  0  0  0  0  0  0  0  0  0  0
    9.3390  -17.4332   23.2565 O   0  0  0  0  0  0  0  0  0  0  0  0
   10.4462  -12.7389   29.2218 C   0  0  0  0  0  0  0  0  0  0  0  0
   10.0038  -14.4748   28.9412 S   0  0  0  0  0  0  0  0  0  0  0  0
    9.3976  -14.6990   27.2216 C   0  0  0  0  0  0  0  0  0  0  0  0
   10.5914  -14.9376   26.3732 C   0  0  0  0  0  0  0  0  0  0  0  0
   10.4245  -15.9838   25.3072 C   0  0  2  0  0  0  0  0  0  0  0  0
    9.8849  -15.4030   24.0929 N   0  0  0  0  0  0  0  0  0  0  0  0
    9.6625  -17.1610   25.7517 C   0  0  0  0  0  0  0  0  0  0  0  0
    8.4357  -17.3146   25.6376 O   0  0  0  0  0  0  0  0  0  0  0  0
   10.3622  -18.2168   26.3616 O   0  0  0  0  0  0  0  0  0  0  0  0
  2  1  1  1
  3  2  1  0
  4  5  2  0
  4  2  1  0
  7  6  1  6
  7  9  1  0
  8  7  1  0
  9 11  1  0
  9 10  1  6
 10  4  1  0
 11 18  1  0
 12 11  2  0
 14 13  1  0
 15 14  1  0
 17 16  1  1
 16 15  1  0
 18 17  1  0
 19 21  1  0
 19 17  1  0
 20 19  2  0
M  END
$$$$
