AVM.pdb
     RDKit          3D

 21 20  0  0  1  0  0  0  0  0999 V2000
    7.4727  -19.0943   22.0225 C   0  0  0  0  0  0  0  0  0  0  0  0
    7.6414  -18.4785   20.6589 C   0  0  2  0  0  0  0  0  0  0  0  0
    8.5079  -19.3017   19.8314 N   0  0  0  0  0  0  0  0  0  0  0  0
    8.2977  -17.1573   20.8308 C   0  0  0  0  0  0  0  0  0  0  0  0
    9.5116  -17.1784   21.1037 O   0  0  0  0  0  0  0  0  0  0  0  0
    6.2254  -13.3132   20.4929 C   0  0  0  0  0  0  0  0  0  0  0  0
    7.7103  -13.4837   20.2507 C   0  0  1  0  0  0  0  0  0  0  0  0
    8.4381  -12.1975   20.4508 C   0  0  0  0  0  0  0  0  0  0  0  0
    8.1884  -14.6394   21.0427 C   0  0  2  0  0  0  0  0  0  0  0  0
    7.6195  -15.9148   20.7013 N   0  0  0  0  0  0  0  0  0  0  0  0
    8.2209  -14.4079   22.5104 C   0  0  0  0  0  0  0  0  0  0  0  0
    7.7133  -13.3663   23.0532 O   0  0  0  0  0  0  0  0  0  0  0  0
    6.3765  -11.0474   26.8387 C   0  0  0  0  0  0  0  0  0  0  0  0
    6.8808  -12.7885   26.8847 S   0  0  0  0  0  0  0  0  0  0  0  0
    6.8251  -13.5040   25.1936 C   0  0  0  0  0  0  0  0  0  0  0  0
    7.2985  -14.9060   25.3048 C   0  0  0  0  0  0  0  0  0  0  0  0
    8.7210  -15.1405   24.8803 C   0  0  2  0  0  0  0  0  0  0  0  0
    8.8107  -15.3063   23.4425 N   0  0  0  0  0  0  0  0  0  0  0  0
    9.3815  -16.2321   25.6125 C   0  0  0  0  0  0  0  0  0  0  0  0
    9.6248  -16.2439   26.8300 O   0  0  0  0  0  0  0  0  0  0  0  0
    9.7812  -17.3715   24.8927 O   0  0  0  0  0  0  0  0  0  0  0  0
  2  1  1  1
  3  2  1  0
  4  5  2  0
  4  2  1  0
  7  6  1  1
  7  9  1  0
  8  7  1  0
  9 11  1  0
  9 10  1  1
 10  4  1  0
 11 18  1  0
 12 11  2  0
 14 13  1  0
 15 14  1  0
 17 16  1  1
 16 15  1  0
 18 17  1  0
 19 21  1  0
 19 17  1  0
 20 19  2  0
M  END
$$$$
