AVM.pdb
     RDKit          3D

 21 20  0  0  1  0  0  0  0  0999 V2000
    1.8772  -24.2057   22.1158 C   0  0  0  0  0  0  0  0  0  0  0  0
    2.4635  -23.4767   20.9359 C   0  0  2  0  0  0  0  0  0  0  0  0
    2.6078  -24.3749   19.8020 N   0  0  0  0  0  0  0  0  0  0  0  0
    3.8188  -23.0037   21.3169 C   0  0  0  0  0  0  0  0  0  0  0  0
    4.4539  -23.7310   22.1018 O   0  0  0  0  0  0  0  0  0  0  0  0
    5.6452  -19.4829   19.6097 C   0  0  0  0  0  0  0  0  0  0  0  0
    6.4664  -20.6567   20.1001 C   0  0  1  0  0  0  0  0  0  0  0  0
    7.8609  -20.2387   20.4234 C   0  0  0  0  0  0  0  0  0  0  0  0
    5.7176  -21.3386   21.1800 C   0  0  2  0  0  0  0  0  0  0  0  0
    4.3985  -21.7971   20.8386 N   0  0  0  0  0  0  0  0  0  0  0  0
    5.7526  -20.6374   22.4899 C   0  0  0  0  0  0  0  0  0  0  0  0
    5.0303  -19.6113   22.7397 O   0  0  0  0  0  0  0  0  0  0  0  0
    6.0966  -22.4818   29.2117 C   0  0  0  0  0  0  0  0  0  0  0  0
    5.3681  -23.0693   27.6587 S   0  0  0  0  0  0  0  0  0  0  0  0
    6.3483  -22.4540   26.2321 C   0  0  0  0  0  0  0  0  0  0  0  0
    5.8052  -21.1181   25.8823 C   0  0  0  0  0  0  0  0  0  0  0  0
    6.5942  -20.3504   24.8591 C   0  0  2  0  0  0  0  0  0  0  0  0
    6.5799  -21.0307   23.5785 N   0  0  0  0  0  0  0  0  0  0  0  0
    7.9567  -20.0124   25.2987 C   0  0  0  0  0  0  0  0  0  0  0  0
    9.0067  -20.3623   24.7358 O   0  0  0  0  0  0  0  0  0  0  0  0
    8.1088  -19.2259   26.4539 O   0  0  0  0  0  0  0  0  0  0  0  0
  2  1  1  1
  3  2  1  0
  4  5  2  0
  4  2  1  0
  7  6  1  1
  7  9  1  0
  8  7  1  0
  9 11  1  0
  9 10  1  6
 10  4  1  0
 11 18  1  0
 12 11  2  0
 14 13  1  0
 15 14  1  0
 17 16  1  1
 16 15  1  0
 18 17  1  0
 19 21  1  0
 19 17  1  0
 20 19  2  0
M  END
$$$$
