AVM.pdb
     RDKit          3D

 21 20  0  0  1  0  0  0  0  0999 V2000
    9.0682  -19.0716   19.8699 C   0  0  0  0  0  0  0  0  0  0  0  0
    9.5090  -17.8593   19.0932 C   0  0  2  0  0  0  0  0  0  0  0  0
   10.8376  -18.0637   18.5397 N   0  0  0  0  0  0  0  0  0  0  0  0
    9.5799  -16.7128   20.0347 C   0  0  0  0  0  0  0  0  0  0  0  0
   10.5998  -16.6474   20.7447 O   0  0  0  0  0  0  0  0  0  0  0  0
    8.4413  -12.9715   19.2351 C   0  0  0  0  0  0  0  0  0  0  0  0
    7.9132  -13.3780   20.5947 C   0  0  1  0  0  0  0  0  0  0  0  0
    6.4240  -13.4576   20.5905 C   0  0  0  0  0  0  0  0  0  0  0  0
    8.6349  -14.5922   21.0380 C   0  0  2  0  0  0  0  0  0  0  0  0
    8.5663  -15.7233   20.1534 N   0  0  0  0  0  0  0  0  0  0  0  0
    8.3955  -14.9664   22.4562 C   0  0  0  0  0  0  0  0  0  0  0  0
    7.5731  -15.8863   22.7948 O   0  0  0  0  0  0  0  0  0  0  0  0
    6.6482  -10.9563   27.0517 C   0  0  0  0  0  0  0  0  0  0  0  0
    5.7239  -12.5110   26.9231 S   0  0  0  0  0  0  0  0  0  0  0  0
    6.8809  -13.9079   26.6322 C   0  0  0  0  0  0  0  0  0  0  0  0
    7.4024  -13.7532   25.2516 C   0  0  0  0  0  0  0  0  0  0  0  0
    8.6412  -14.5446   24.9392 C   0  0  2  0  0  0  0  0  0  0  0  0
    9.0458  -14.3486   23.5606 N   0  0  0  0  0  0  0  0  0  0  0  0
    8.5358  -15.9681   25.2952 C   0  0  0  0  0  0  0  0  0  0  0  0
    7.8360  -16.8107   24.7104 O   0  0  0  0  0  0  0  0  0  0  0  0
    9.2830  -16.4390   26.3889 O   0  0  0  0  0  0  0  0  0  0  0  0
  2  1  1  1
  3  2  1  0
  4  5  2  0
  4  2  1  0
  7  6  1  6
  7  9  1  0
  8  7  1  0
  9 11  1  0
  9 10  1  6
 10  4  1  0
 11 18  1  0
 12 11  2  0
 14 13  1  0
 15 14  1  0
 17 16  1  6
 16 15  1  0
 18 17  1  0
 19 21  1  0
 19 17  1  0
 20 19  2  0
M  END
$$$$
