AVM.pdb
     RDKit          3D

 21 20  0  0  1  0  0  0  0  0999 V2000
   10.7538  -18.7244   20.4041 C   0  0  0  0  0  0  0  0  0  0  0  0
   10.8840  -17.3928   19.7132 C   0  0  2  0  0  0  0  0  0  0  0  0
   12.2699  -17.1368   19.3567 N   0  0  0  0  0  0  0  0  0  0  0  0
   10.4575  -16.3378   20.6676 C   0  0  0  0  0  0  0  0  0  0  0  0
   11.3415  -15.8860   21.4179 O   0  0  0  0  0  0  0  0  0  0  0  0
    8.2022  -13.1142   20.1286 C   0  0  0  0  0  0  0  0  0  0  0  0
    7.6417  -13.9326   21.2727 C   0  0  1  0  0  0  0  0  0  0  0  0
    6.3194  -14.5218   20.9141 C   0  0  0  0  0  0  0  0  0  0  0  0
    8.6822  -14.8819   21.7285 C   0  0  2  0  0  0  0  0  0  0  0  0
    9.1284  -15.8416   20.7555 N   0  0  0  0  0  0  0  0  0  0  0  0
    8.4125  -15.5007   23.0526 C   0  0  0  0  0  0  0  0  0  0  0  0
    8.3839  -16.7680   23.2260 O   0  0  0  0  0  0  0  0  0  0  0  0
    5.9007  -11.5156   26.7145 C   0  0  0  0  0  0  0  0  0  0  0  0
    7.4084  -11.9161   27.6388 S   0  0  0  0  0  0  0  0  0  0  0  0
    8.3688  -13.2038   26.7477 C   0  0  0  0  0  0  0  0  0  0  0  0
    7.4513  -14.3495   26.5294 C   0  0  0  0  0  0  0  0  0  0  0  0
    7.9225  -15.3701   25.5318 C   0  0  2  0  0  0  0  0  0  0  0  0
    8.1626  -14.7573   24.2397 N   0  0  0  0  0  0  0  0  0  0  0  0
    7.0482  -16.5495   25.4387 C   0  0  0  0  0  0  0  0  0  0  0  0
    6.0898  -16.6806   24.6602 O   0  0  0  0  0  0  0  0  0  0  0  0
    7.3000  -17.6354   26.2952 O   0  0  0  0  0  0  0  0  0  0  0  0
  2  1  1  1
  3  2  1  0
  4  5  2  0
  4  2  1  0
  7  6  1  6
  7  9  1  0
  8  7  1  0
  9 11  1  0
  9 10  1  6
 10  4  1  0
 11 18  1  0
 12 11  2  0
 14 13  1  0
 15 14  1  0
 17 16  1  1
 16 15  1  0
 18 17  1  0
 19 21  1  0
 19 17  1  0
 20 19  2  0
M  END
$$$$
