AVM.pdb
     RDKit          3D

 21 20  0  0  1  0  0  0  0  0999 V2000
    6.6317  -19.1471   23.8038 C   0  0  0  0  0  0  0  0  0  0  0  0
    6.2429  -18.0249   22.8781 C   0  0  2  0  0  0  0  0  0  0  0  0
    6.4787  -18.4011   21.4938 N   0  0  0  0  0  0  0  0  0  0  0  0
    7.1072  -16.8570   23.1856 C   0  0  0  0  0  0  0  0  0  0  0  0
    8.2396  -16.8607   22.6696 O   0  0  0  0  0  0  0  0  0  0  0  0
    6.3618  -13.9725   26.3383 C   0  0  0  0  0  0  0  0  0  0  0  0
    6.8455  -13.5013   24.9830 C   0  0  1  0  0  0  0  0  0  0  0  0
    7.6224  -12.2338   25.1011 C   0  0  0  0  0  0  0  0  0  0  0  0
    7.5258  -14.6286   24.3062 C   0  0  2  0  0  0  0  0  0  0  0  0
    6.7077  -15.7745   24.0158 N   0  0  0  0  0  0  0  0  0  0  0  0
    8.8352  -15.0032   24.9014 C   0  0  0  0  0  0  0  0  0  0  0  0
    9.7661  -14.1498   25.1067 O   0  0  0  0  0  0  0  0  0  0  0  0
   10.2186  -12.8856   29.7469 C   0  0  0  0  0  0  0  0  0  0  0  0
   10.0360  -14.6752   29.5192 S   0  0  0  0  0  0  0  0  0  0  0  0
   10.9379  -15.2125   28.0117 C   0  0  0  0  0  0  0  0  0  0  0  0
   10.2268  -16.4049   27.4879 C   0  0  0  0  0  0  0  0  0  0  0  0
   10.3923  -16.6577   26.0157 C   0  0  2  0  0  0  0  0  0  0  0  0
    9.1783  -16.3266   25.2948 N   0  0  0  0  0  0  0  0  0  0  0  0
   10.8793  -18.0098   25.7016 C   0  0  0  0  0  0  0  0  0  0  0  0
   10.2650  -18.8662   25.0453 O   0  0  0  0  0  0  0  0  0  0  0  0
   12.1478  -18.3882   26.1749 O   0  0  0  0  0  0  0  0  0  0  0  0
  2  1  1  1
  3  2  1  0
  4  5  2  0
  4  2  1  0
  7  6  1  1
  7  9  1  0
  8  7  1  0
  9 11  1  0
  9 10  1  1
 10  4  1  0
 11 18  1  0
 12 11  2  0
 14 13  1  0
 15 14  1  0
 17 16  1  1
 16 15  1  0
 18 17  1  0
 19 21  1  0
 19 17  1  0
 20 19  2  0
M  END
$$$$
