TIS.pdb
     RDKit          3D

 22 21  0  0  1  0  0  0  0  0999 V2000
   25.0784  -12.2488  -19.1377 C   0  0  0  0  0  0  0  0  0  0  0  0
   24.6517  -13.5688  -19.7666 C   0  0  1  0  0  0  0  0  0  0  0  0
   25.7703  -14.3126  -20.1072 O   0  0  0  0  0  0  0  0  0  0  0  0
   23.7798  -14.3535  -18.8119 C   0  0  2  0  0  0  0  0  0  0  0  0
   23.5359  -15.6581  -19.3424 N   0  0  0  0  0  0  0  0  0  0  0  0
   22.5262  -13.6010  -18.5360 C   0  0  0  0  0  0  0  0  0  0  0  0
   21.6871  -13.4695  -19.4639 O   0  0  0  0  0  0  0  0  0  0  0  0
   18.7388  -14.7285  -15.1691 C   0  0  0  0  0  0  0  0  0  0  0  0
   19.5127  -14.0971  -16.2789 C   0  0  0  0  0  0  0  0  0  0  0  0
   20.1409  -12.7895  -15.9701 C   0  0  2  0  0  0  0  0  0  0  0  0
   19.0625  -11.7645  -15.5579 C   0  0  0  0  0  0  0  0  0  0  0  0
   21.0463  -12.2073  -17.0100 C   0  0  2  0  0  0  0  0  0  0  0  0
   22.2274  -13.0255  -17.2860 N   0  0  0  0  0  0  0  0  0  0  0  0
   21.5226  -10.8504  -16.5445 C   0  0  0  0  0  0  0  0  0  0  0  0
   22.2833  -10.7585  -15.5643 O   0  0  0  0  0  0  0  0  0  0  0  0
   21.8529   -6.0981  -17.3355 O   0  0  0  0  0  0  0  0  0  0  0  0
   21.2727   -7.2773  -17.7534 C   0  0  0  0  0  0  0  0  0  0  0  0
   21.6468   -8.3602  -16.7687 C   0  0  2  0  0  0  0  0  0  0  0  0
   21.1202   -9.6614  -17.2040 N   0  0  0  0  0  0  0  0  0  0  0  0
   21.1061   -8.0163  -15.4305 C   0  0  0  0  0  0  0  0  0  0  0  0
   21.8041   -7.2570  -14.7123 O   0  0  0  0  0  0  0  0  0  0  0  0
   19.8935   -8.4938  -14.9675 O   0  0  0  0  0  0  0  0  0  0  0  0
  2  1  1  1
  2  3  1  0
  4  2  1  0
  4  6  1  0
  4  5  1  6
  6 13  1  0
  7  6  2  0
  8  9  1  0
  9 10  1  0
 10 11  1  6
 10 12  1  0
 12 14  1  0
 12 13  1  1
 14 15  2  0
 14 19  1  0
 17 16  1  0
 18 17  1  6
 19 18  1  0
 20 18  1  0
 20 22  1  0
 21 20  2  0
M  END
$$$$
