TIS.pdb
     RDKit          3D

 22 21  0  0  1  0  0  0  0  0999 V2000
   18.7286  -11.4957  -14.1496 C   0  0  0  0  0  0  0  0  0  0  0  0
   17.7253  -10.4420  -13.6992 C   0  0  1  0  0  0  0  0  0  0  0  0
   17.4857   -9.5474  -14.7302 O   0  0  0  0  0  0  0  0  0  0  0  0
   16.4301  -11.0932  -13.2682 C   0  0  2  0  0  0  0  0  0  0  0  0
   15.8123  -11.7280  -14.3900 N   0  0  0  0  0  0  0  0  0  0  0  0
   15.5480  -10.0857  -12.6196 C   0  0  0  0  0  0  0  0  0  0  0  0
   14.7523   -9.4301  -13.3403 O   0  0  0  0  0  0  0  0  0  0  0  0
   11.9002  -10.9801   -8.9657 C   0  0  0  0  0  0  0  0  0  0  0  0
   12.7461  -10.3488  -10.0217 C   0  0  0  0  0  0  0  0  0  0  0  0
   13.7944   -9.4157   -9.5419 C   0  0  2  0  0  0  0  0  0  0  0  0
   13.1608   -8.2964   -8.6879 C   0  0  0  0  0  0  0  0  0  0  0  0
   14.7100   -8.8330  -10.5727 C   0  0  2  0  0  0  0  0  0  0  0  0
   15.5562   -9.8255  -11.2357 N   0  0  0  0  0  0  0  0  0  0  0  0
   15.6166   -7.8211   -9.9104 C   0  0  0  0  0  0  0  0  0  0  0  0
   16.4268   -8.1850   -9.0391 O   0  0  0  0  0  0  0  0  0  0  0  0
   17.3735   -4.9973  -11.6595 O   0  0  0  0  0  0  0  0  0  0  0  0
   16.8810   -4.3940  -10.5214 C   0  0  0  0  0  0  0  0  0  0  0  0
   16.4323   -5.4789   -9.5707 C   0  0  2  0  0  0  0  0  0  0  0  0
   15.5685   -6.4477  -10.2599 N   0  0  0  0  0  0  0  0  0  0  0  0
   15.7010   -4.8657   -8.4346 C   0  0  0  0  0  0  0  0  0  0  0  0
   14.4486   -4.9689   -8.4414 O   0  0  0  0  0  0  0  0  0  0  0  0
   16.3408   -4.2049   -7.4016 O   0  0  0  0  0  0  0  0  0  0  0  0
  2  1  1  6
  2  3  1  0
  4  2  1  0
  4  6  1  0
  4  5  1  6
  6 13  1  0
  7  6  2  0
  8  9  1  0
  9 10  1  0
 10 11  1  6
 10 12  1  0
 12 14  1  0
 12 13  1  1
 14 15  2  0
 14 19  1  0
 17 16  1  0
 18 17  1  6
 19 18  1  0
 20 18  1  0
 20 22  1  0
 21 20  2  0
M  END
$$$$
