TIS.pdb
     RDKit          3D

 22 21  0  0  1  0  0  0  0  0999 V2000
   13.3107  -20.6572    2.6368 C   0  0  0  0  0  0  0  0  0  0  0  0
   13.5534  -21.9042    1.7966 C   0  0  1  0  0  0  0  0  0  0  0  0
   12.4241  -22.1963    1.0485 O   0  0  0  0  0  0  0  0  0  0  0  0
   14.7419  -21.7046    0.8827 C   0  0  2  0  0  0  0  0  0  0  0  0
   14.8773  -22.8315    0.0140 N   0  0  0  0  0  0  0  0  0  0  0  0
   15.9651  -21.4508    1.6908 C   0  0  0  0  0  0  0  0  0  0  0  0
   16.5683  -22.4335    2.1937 O   0  0  0  0  0  0  0  0  0  0  0  0
   20.0279  -18.0995    0.2669 C   0  0  0  0  0  0  0  0  0  0  0  0
   19.1935  -19.1775    0.8759 C   0  0  0  0  0  0  0  0  0  0  0  0
   18.5764  -18.8585    2.1864 C   0  0  2  0  0  0  0  0  0  0  0  0
   19.6673  -18.4769    3.2100 C   0  0  0  0  0  0  0  0  0  0  0  0
   17.6474  -19.8783    2.7671 C   0  0  2  0  0  0  0  0  0  0  0  0
   16.4863  -20.1635    1.9239 N   0  0  0  0  0  0  0  0  0  0  0  0
   17.1391  -19.3790    4.1000 C   0  0  0  0  0  0  0  0  0  0  0  0
   16.3756  -18.3979    4.1491 O   0  0  0  0  0  0  0  0  0  0  0  0
   16.2986  -21.6396    7.1904 O   0  0  0  0  0  0  0  0  0  0  0  0
   15.8673  -20.3328    7.1010 C   0  0  0  0  0  0  0  0  0  0  0  0
   17.0169  -19.4916    6.5979 C   0  0  2  0  0  0  0  0  0  0  0  0
   17.5141  -20.0073    5.3146 N   0  0  0  0  0  0  0  0  0  0  0  0
   18.1077  -19.4974    7.6037 C   0  0  0  0  0  0  0  0  0  0  0  0
   19.1844  -20.0545    7.2727 O   0  0  0  0  0  0  0  0  0  0  0  0
   17.9749  -18.9244    8.8555 O   0  0  0  0  0  0  0  0  0  0  0  0
  2  1  1  6
  2  3  1  0
  4  2  1  0
  4  6  1  0
  4  5  1  1
  6 13  1  0
  7  6  2  0
  8  9  1  0
  9 10  1  0
 10 11  1  1
 10 12  1  0
 12 14  1  0
 12 13  1  6
 14 15  2  0
 14 19  1  0
 17 16  1  0
 18 17  1  1
 19 18  1  0
 20 18  1  0
 20 22  1  0
 21 20  2  0
M  END
$$$$
