TIS.pdb
     RDKit          3D

 22 21  0  0  1  0  0  0  0  0999 V2000
   15.2889   -9.9151  -15.0028 C   0  0  0  0  0  0  0  0  0  0  0  0
   16.5893   -9.1806  -14.7040 C   0  0  1  0  0  0  0  0  0  0  0  0
   16.3143   -7.9407  -14.1497 O   0  0  0  0  0  0  0  0  0  0  0  0
   17.4502   -9.9898  -13.7597 C   0  0  2  0  0  0  0  0  0  0  0  0
   16.7888  -10.1254  -12.4999 N   0  0  0  0  0  0  0  0  0  0  0  0
   18.7951   -9.3649  -13.6392 C   0  0  0  0  0  0  0  0  0  0  0  0
   19.0573   -8.6964  -12.6063 O   0  0  0  0  0  0  0  0  0  0  0  0
   23.5774  -11.7637  -15.1768 C   0  0  0  0  0  0  0  0  0  0  0  0
   22.5147  -10.9461  -14.5200 C   0  0  0  0  0  0  0  0  0  0  0  0
   22.2086   -9.6439  -15.1607 C   0  0  2  0  0  0  0  0  0  0  0  0
   23.4935   -8.7974  -15.2871 C   0  0  0  0  0  0  0  0  0  0  0  0
   21.1042   -8.8326  -14.5589 C   0  0  2  0  0  0  0  0  0  0  0  0
   19.7948   -9.4821  -14.6240 N   0  0  0  0  0  0  0  0  0  0  0  0
   21.0038   -7.5156  -15.2939 C   0  0  0  0  0  0  0  0  0  0  0  0
   20.4321   -7.4587  -16.3974 O   0  0  0  0  0  0  0  0  0  0  0  0
   19.4804   -3.5206  -15.8015 O   0  0  0  0  0  0  0  0  0  0  0  0
   19.7315   -4.7630  -15.2582 C   0  0  0  0  0  0  0  0  0  0  0  0
   21.2175   -5.0219  -15.3435 C   0  0  2  0  0  0  0  0  0  0  0  0
   21.5516   -6.3252  -14.7522 N   0  0  0  0  0  0  0  0  0  0  0  0
   21.9465   -3.9414  -14.6346 C   0  0  0  0  0  0  0  0  0  0  0  0
   22.3393   -4.1905  -13.4671 O   0  0  0  0  0  0  0  0  0  0  0  0
   22.1970   -2.7072  -15.2063 O   0  0  0  0  0  0  0  0  0  0  0  0
  2  1  1  1
  2  3  1  0
  4  2  1  0
  4  6  1  0
  4  5  1  1
  6 13  1  0
  7  6  2  0
  8  9  1  0
  9 10  1  0
 10 11  1  1
 10 12  1  0
 12 14  1  0
 12 13  1  6
 14 15  2  0
 14 19  1  0
 17 16  1  0
 18 17  1  1
 19 18  1  0
 20 18  1  0
 20 22  1  0
 21 20  2  0
M  END
$$$$
