TIS.pdb
     RDKit          3D

 22 21  0  0  1  0  0  0  0  0999 V2000
   19.4118   -9.0765  -21.7008 C   0  0  0  0  0  0  0  0  0  0  0  0
   19.5241   -8.7661  -20.2139 C   0  0  1  0  0  0  0  0  0  0  0  0
   18.4570   -7.9773  -19.8146 O   0  0  0  0  0  0  0  0  0  0  0  0
   19.5529  -10.0445  -19.4062 C   0  0  2  0  0  0  0  0  0  0  0  0
   18.3230  -10.7520  -19.5784 N   0  0  0  0  0  0  0  0  0  0  0  0
   19.8444   -9.7361  -17.9801 C   0  0  0  0  0  0  0  0  0  0  0  0
   18.8788   -9.5567  -17.1940 O   0  0  0  0  0  0  0  0  0  0  0  0
   22.1128  -10.0754  -13.0119 C   0  0  0  0  0  0  0  0  0  0  0  0
   23.0153   -9.6255  -14.1130 C   0  0  0  0  0  0  0  0  0  0  0  0
   22.6010  -10.0021  -15.4865 C   0  0  2  0  0  0  0  0  0  0  0  0
   23.8219   -9.9968  -16.4315 C   0  0  0  0  0  0  0  0  0  0  0  0
   21.4682   -9.2325  -16.0904 C   0  0  2  0  0  0  0  0  0  0  0  0
   21.1493   -9.6337  -17.4608 N   0  0  0  0  0  0  0  0  0  0  0  0
   21.8257   -7.7640  -16.1101 C   0  0  0  0  0  0  0  0  0  0  0  0
   22.7145   -7.3483  -16.8750 O   0  0  0  0  0  0  0  0  0  0  0  0
   19.3623   -4.8619  -14.8144 O   0  0  0  0  0  0  0  0  0  0  0  0
   20.4431   -4.5140  -15.5972 C   0  0  0  0  0  0  0  0  0  0  0  0
   21.5934   -5.4271  -15.2431 C   0  0  2  0  0  0  0  0  0  0  0  0
   21.1661   -6.8331  -15.2681 N   0  0  0  0  0  0  0  0  0  0  0  0
   22.1031   -5.0758  -13.8947 C   0  0  0  0  0  0  0  0  0  0  0  0
   22.0085   -5.9563  -13.0030 O   0  0  0  0  0  0  0  0  0  0  0  0
   22.6617   -3.8447  -13.6027 O   0  0  0  0  0  0  0  0  0  0  0  0
  2  1  1  6
  2  3  1  0
  4  2  1  0
  4  6  1  0
  4  5  1  1
  6 13  1  0
  7  6  2  0
  8  9  1  0
  9 10  1  0
 10 11  1  6
 10 12  1  0
 12 14  1  0
 12 13  1  6
 14 15  2  0
 14 19  1  0
 17 16  1  0
 18 17  1  1
 19 18  1  0
 20 18  1  0
 20 22  1  0
 21 20  2  0
M  END
$$$$
