HIR.pdb
     RDKit          3D

 30 30  0  0  1  0  0  0  0  0999 V2000
   15.3548  -11.7072  -13.8779 N   0  0  0  0  0  0  0  0  0  0  0  0
   16.0754  -10.5446  -13.4322 C   0  0  1  0  0  0  0  0  0  0  0  0
   16.7055   -9.7835  -14.5771 C   0  0  0  0  0  0  0  0  0  0  0  0
   17.6565  -10.6179  -15.3363 C   0  0  0  0  0  0  0  0  0  0  0  0
   17.4421  -11.3462  -16.4762 C   0  0  0  0  0  0  0  0  0  0  0  0
   18.6085  -11.9357  -16.7844 N   0  0  0  0  0  0  0  0  0  0  0  0
   19.5486  -11.5936  -15.8637 C   0  0  0  0  0  0  0  0  0  0  0  0
   18.9360  -10.7906  -14.9964 N   0  0  0  0  0  0  0  0  0  0  0  0
   15.2189   -9.6643  -12.5990 C   0  0  0  0  0  0  0  0  0  0  0  0
   14.0698   -9.3096  -12.9674 O   0  0  0  0  0  0  0  0  0  0  0  0
   12.5134  -10.8688   -8.6159 C   0  0  0  0  0  0  0  0  0  0  0  0
   13.2111  -10.1712   -9.7269 C   0  0  0  0  0  0  0  0  0  0  0  0
   14.1555   -9.0913   -9.3643 C   0  0  2  0  0  0  0  0  0  0  0  0
   13.5432   -8.0583   -8.4331 C   0  0  0  0  0  0  0  0  0  0  0  0
   14.8533   -8.3812  -10.4643 C   0  0  2  0  0  0  0  0  0  0  0  0
   15.6800   -9.1761  -11.3172 N   0  0  0  0  0  0  0  0  0  0  0  0
   15.6084   -7.1863  -10.0026 C   0  0  0  0  0  0  0  0  0  0  0  0
   16.6735   -7.3374   -9.3418 O   0  0  0  0  0  0  0  0  0  0  0  0
   14.4875   -2.5976  -15.1625 N   0  0  0  0  0  0  0  0  0  0  0  0
   15.8968   -2.8734  -15.3235 C   0  0  0  0  0  0  0  0  0  0  0  0
   16.3329   -3.1961  -16.4714 N   0  0  0  0  0  0  0  0  0  0  0  0
   16.6941   -2.7608  -14.1664 N   0  0  0  0  0  0  0  0  0  0  0  0
   16.0044   -2.4089  -12.8891 C   0  0  0  0  0  0  0  0  0  0  0  0
   16.2714   -3.5170  -11.9345 C   0  0  0  0  0  0  0  0  0  0  0  0
   15.7349   -3.5433  -10.5851 C   0  0  0  0  0  0  0  0  0  0  0  0
   15.8830   -4.6759   -9.6868 C   0  0  2  0  0  0  0  0  0  0  0  0
   15.1972   -5.8668  -10.2637 N   0  0  0  0  0  0  0  0  0  0  0  0
   15.4649   -4.5994   -8.3062 C   0  0  0  0  0  0  0  0  0  0  0  0
   14.4237   -4.9875   -7.7546 O   0  0  0  0  0  0  0  0  0  0  0  0
   16.3663   -3.9828   -7.3778 O   0  0  0  0  0  0  0  0  0  0  0  0
  2  1  1  6
  3  4  1  0
  3  2  1  0
  4  5  2  0
  6  5  1  0
  7  6  1  0
  8  7  2  0
  8  4  1  0
  9 10  2  0
  9  2  1  0
 11 12  1  0
 12 13  1  0
 13 15  1  0
 13 14  1  6
 15 16  1  1
 16  9  1  0
 17 15  1  0
 18 17  2  0
 19 20  1  0
 20 22  1  0
 21 20  2  0
 22 23  1  0
 23 24  1  0
 24 25  1  0
 26 25  1  6
 26 28  1  0
 26 27  1  0
 27 17  1  0
 28 30  1  0
 29 28  2  0
M  END
$$$$
