HIR.pdb
     RDKit          3D

 30 30  0  0  1  0  0  0  0  0999 V2000
   27.7989  -20.2880  -15.9855 N   0  0  0  0  0  0  0  0  0  0  0  0
   27.1917  -19.4734  -14.9670 C   0  0  1  0  0  0  0  0  0  0  0  0
   26.3651  -18.3475  -15.5467 C   0  0  0  0  0  0  0  0  0  0  0  0
   27.1999  -17.3610  -16.2588 C   0  0  0  0  0  0  0  0  0  0  0  0
   27.7117  -16.1764  -15.8001 C   0  0  0  0  0  0  0  0  0  0  0  0
   28.4025  -15.6337  -16.8157 N   0  0  0  0  0  0  0  0  0  0  0  0
   28.3351  -16.4511  -17.9000 C   0  0  0  0  0  0  0  0  0  0  0  0
   27.5957  -17.4935  -17.5270 N   0  0  0  0  0  0  0  0  0  0  0  0
   26.4018  -20.2957  -14.0169 C   0  0  0  0  0  0  0  0  0  0  0  0
   25.6376  -21.2153  -14.4067 O   0  0  0  0  0  0  0  0  0  0  0  0
   28.3298  -20.9793   -8.9149 C   0  0  0  0  0  0  0  0  0  0  0  0
   27.5477  -21.4595  -10.0834 C   0  0  0  0  0  0  0  0  0  0  0  0
   26.1928  -20.8952  -10.2722 C   0  0  2  0  0  0  0  0  0  0  0  0
   25.1422  -21.5801   -9.4142 C   0  0  0  0  0  0  0  0  0  0  0  0
   25.6735  -20.7857  -11.6576 C   0  0  2  0  0  0  0  0  0  0  0  0
   26.4829  -20.0664  -12.5904 N   0  0  0  0  0  0  0  0  0  0  0  0
   24.2728  -20.2899  -11.7196 C   0  0  0  0  0  0  0  0  0  0  0  0
   24.0493  -19.0474  -11.7147 O   0  0  0  0  0  0  0  0  0  0  0  0
   22.0537  -17.7171  -16.5044 N   0  0  0  0  0  0  0  0  0  0  0  0
   20.8699  -18.3364  -17.0548 C   0  0  0  0  0  0  0  0  0  0  0  0
   20.8231  -18.5736  -18.3013 N   0  0  0  0  0  0  0  0  0  0  0  0
   19.8363  -18.6341  -16.1436 N   0  0  0  0  0  0  0  0  0  0  0  0
   20.1954  -18.6978  -14.6952 C   0  0  0  0  0  0  0  0  0  0  0  0
   20.6372  -20.0906  -14.4205 C   0  0  0  0  0  0  0  0  0  0  0  0
   21.8280  -20.4040  -13.6504 C   0  0  0  0  0  0  0  0  0  0  0  0
   21.8090  -20.6801  -12.2239 C   0  0  2  0  0  0  0  0  0  0  0  0
   23.1560  -21.1425  -11.7844 N   0  0  0  0  0  0  0  0  0  0  0  0
   20.8586  -21.6044  -11.6502 C   0  0  0  0  0  0  0  0  0  0  0  0
   20.9188  -22.8340  -11.4968 O   0  0  0  0  0  0  0  0  0  0  0  0
   19.6251  -21.0624  -11.1610 O   0  0  0  0  0  0  0  0  0  0  0  0
  2  1  1  6
  3  4  1  0
  3  2  1  0
  4  5  2  0
  6  5  1  0
  7  6  1  0
  8  7  2  0
  8  4  1  0
  9 10  2  0
  9  2  1  0
 11 12  1  0
 12 13  1  0
 13 15  1  0
 13 14  1  1
 15 16  1  6
 16  9  1  0
 17 15  1  0
 18 17  2  0
 19 20  1  0
 20 22  1  0
 21 20  2  0
 22 23  1  0
 23 24  1  0
 24 25  1  0
 26 25  1  6
 26 28  1  0
 26 27  1  0
 27 17  1  0
 28 30  1  0
 29 28  2  0
M  END
$$$$
