HIR.pdb
     RDKit          3D

 30 30  0  0  1  0  0  0  0  0999 V2000
   28.7111  -23.8079  -16.6471 N   0  0  0  0  0  0  0  0  0  0  0  0
   27.2896  -23.6679  -16.4761 C   0  0  1  0  0  0  0  0  0  0  0  0
   26.6611  -24.8936  -15.8517 C   0  0  0  0  0  0  0  0  0  0  0  0
   26.8815  -26.1025  -16.6683 C   0  0  0  0  0  0  0  0  0  0  0  0
   27.6683  -27.1907  -16.3991 C   0  0  0  0  0  0  0  0  0  0  0  0
   27.5424  -28.0272  -17.4419 N   0  0  0  0  0  0  0  0  0  0  0  0
   26.6949  -27.4880  -18.3582 C   0  0  0  0  0  0  0  0  0  0  0  0
   26.3107  -26.3164  -17.8561 N   0  0  0  0  0  0  0  0  0  0  0  0
   26.9552  -22.4374  -15.7165 C   0  0  0  0  0  0  0  0  0  0  0  0
   27.5327  -22.1413  -14.6392 O   0  0  0  0  0  0  0  0  0  0  0  0
   26.6662  -16.6078  -15.5381 C   0  0  0  0  0  0  0  0  0  0  0  0
   25.9587  -17.8499  -15.1327 C   0  0  0  0  0  0  0  0  0  0  0  0
   26.2651  -19.0841  -15.8894 C   0  0  2  0  0  0  0  0  0  0  0  0
   26.0968  -18.9147  -17.3901 C   0  0  0  0  0  0  0  0  0  0  0  0
   25.5877  -20.3377  -15.4764 C   0  0  2  0  0  0  0  0  0  0  0  0
   25.9402  -21.5228  -16.1932 N   0  0  0  0  0  0  0  0  0  0  0  0
   24.1075  -20.2091  -15.4135 C   0  0  0  0  0  0  0  0  0  0  0  0
   23.4092  -20.5344  -16.4138 O   0  0  0  0  0  0  0  0  0  0  0  0
   16.5012  -18.0220  -16.9865 N   0  0  0  0  0  0  0  0  0  0  0  0
   17.0031  -16.8315  -16.3393 C   0  0  0  0  0  0  0  0  0  0  0  0
   16.2917  -15.7798  -16.3496 N   0  0  0  0  0  0  0  0  0  0  0  0
   18.2724  -16.9339  -15.7347 N   0  0  0  0  0  0  0  0  0  0  0  0
   19.0018  -18.2286  -15.8851 C   0  0  0  0  0  0  0  0  0  0  0  0
   20.3729  -18.0166  -15.3506 C   0  0  0  0  0  0  0  0  0  0  0  0
   21.4017  -19.0411  -15.3865 C   0  0  0  0  0  0  0  0  0  0  0  0
   21.9358  -19.6812  -14.1962 C   0  0  2  0  0  0  0  0  0  0  0  0
   23.4229  -19.7351  -14.2800 N   0  0  0  0  0  0  0  0  0  0  0  0
   21.5064  -21.0011  -13.7962 C   0  0  0  0  0  0  0  0  0  0  0  0
   21.4748  -22.0672  -14.4300 O   0  0  0  0  0  0  0  0  0  0  0  0
   21.0294  -21.1605  -12.4539 O   0  0  0  0  0  0  0  0  0  0  0  0
  2  1  1  1
  3  4  1  0
  3  2  1  0
  4  5  2  0
  6  5  1  0
  7  6  1  0
  8  7  2  0
  8  4  1  0
  9 10  2  0
  9  2  1  0
 11 12  1  0
 12 13  1  0
 13 15  1  0
 13 14  1  6
 15 16  1  6
 16  9  1  0
 17 15  1  0
 18 17  2  0
 19 20  1  0
 20 22  1  0
 21 20  2  0
 22 23  1  0
 23 24  1  0
 24 25  1  0
 26 25  1  6
 26 28  1  0
 26 27  1  0
 27 17  1  0
 28 30  1  0
 29 28  2  0
M  END
$$$$
