HIR.pdb
     RDKit          3D

 30 30  0  0  1  0  0  0  0  0999 V2000
   16.7192   -7.8485   -9.6420 N   0  0  0  0  0  0  0  0  0  0  0  0
   16.8800   -8.5536  -10.8856 C   0  0  1  0  0  0  0  0  0  0  0  0
   15.6305   -8.5125  -11.7367 C   0  0  0  0  0  0  0  0  0  0  0  0
   14.5037   -9.2170  -11.0957 C   0  0  0  0  0  0  0  0  0  0  0  0
   13.4156   -8.6915  -10.4510 C   0  0  0  0  0  0  0  0  0  0  0  0
   12.6710   -9.7299  -10.0383 N   0  0  0  0  0  0  0  0  0  0  0  0
   13.2678  -10.8939  -10.4096 C   0  0  0  0  0  0  0  0  0  0  0  0
   14.3810  -10.5458  -11.0513 N   0  0  0  0  0  0  0  0  0  0  0  0
   18.0652   -8.0660  -11.6341 C   0  0  0  0  0  0  0  0  0  0  0  0
   18.5021   -6.8941  -11.5009 O   0  0  0  0  0  0  0  0  0  0  0  0
   23.4082  -10.1358  -14.0137 C   0  0  0  0  0  0  0  0  0  0  0  0
   22.3083   -9.1371  -13.9876 C   0  0  0  0  0  0  0  0  0  0  0  0
   21.0361   -9.5442  -13.3509 C   0  0  2  0  0  0  0  0  0  0  0  0
   20.4350  -10.7923  -13.9755 C   0  0  0  0  0  0  0  0  0  0  0  0
   19.9691   -8.5222  -13.2164 C   0  0  2  0  0  0  0  0  0  0  0  0
   18.7696   -8.9312  -12.5556 N   0  0  0  0  0  0  0  0  0  0  0  0
   19.6329   -7.8552  -14.5023 C   0  0  0  0  0  0  0  0  0  0  0  0
   18.9526   -8.4735  -15.3675 O   0  0  0  0  0  0  0  0  0  0  0  0
   14.1333   -6.8138  -14.4300 N   0  0  0  0  0  0  0  0  0  0  0  0
   13.9367   -6.1763  -15.7118 C   0  0  0  0  0  0  0  0  0  0  0  0
   12.7866   -6.2161  -16.2482 N   0  0  0  0  0  0  0  0  0  0  0  0
   15.0636   -5.5472  -16.2788 N   0  0  0  0  0  0  0  0  0  0  0  0
   16.3685   -5.7074  -15.5698 C   0  0  0  0  0  0  0  0  0  0  0  0
   17.3791   -4.9424  -16.3469 C   0  0  0  0  0  0  0  0  0  0  0  0
   18.7706   -4.8370  -15.9445 C   0  0  0  0  0  0  0  0  0  0  0  0
   19.7408   -5.9026  -16.1310 C   0  0  2  0  0  0  0  0  0  0  0  0
   20.0376   -6.5461  -14.8199 N   0  0  0  0  0  0  0  0  0  0  0  0
   21.0189   -5.6539  -16.7565 C   0  0  0  0  0  0  0  0  0  0  0  0
   22.1637   -5.6426  -16.2787 O   0  0  0  0  0  0  0  0  0  0  0  0
   21.0208   -5.3685  -18.1612 O   0  0  0  0  0  0  0  0  0  0  0  0
  2  1  1  1
  3  4  1  0
  3  2  1  0
  4  5  2  0
  6  5  1  0
  7  6  1  0
  8  7  2  0
  8  4  1  0
  9 10  2  0
  9  2  1  0
 11 12  1  0
 12 13  1  0
 13 15  1  0
 13 14  1  6
 15 16  1  6
 16  9  1  0
 17 15  1  0
 18 17  2  0
 19 20  1  0
 20 22  1  0
 21 20  2  0
 22 23  1  0
 23 24  1  0
 24 25  1  0
 26 25  1  1
 26 28  1  0
 26 27  1  0
 27 17  1  0
 28 30  1  0
 29 28  2  0
M  END
$$$$
