HIR.pdb
     RDKit          3D

 30 30  0  0  1  0  0  0  0  0999 V2000
   30.3033  -23.4119  -17.6069 N   0  0  0  0  0  0  0  0  0  0  0  0
   28.9555  -23.4012  -17.1041 C   0  0  1  0  0  0  0  0  0  0  0  0
   28.5581  -24.7262  -16.4929 C   0  0  0  0  0  0  0  0  0  0  0  0
   28.3972  -25.7783  -17.5147 C   0  0  0  0  0  0  0  0  0  0  0  0
   28.4658  -25.6707  -18.8783 C   0  0  0  0  0  0  0  0  0  0  0  0
   28.2518  -26.8997  -19.3751 N   0  0  0  0  0  0  0  0  0  0  0  0
   28.0507  -27.7747  -18.3540 C   0  0  0  0  0  0  0  0  0  0  0  0
   28.1459  -27.0595  -17.2353 N   0  0  0  0  0  0  0  0  0  0  0  0
   28.7406  -22.2784  -16.1576 C   0  0  0  0  0  0  0  0  0  0  0  0
   29.5249  -22.0539  -15.2004 O   0  0  0  0  0  0  0  0  0  0  0  0
   28.1808  -17.2702  -17.6824 C   0  0  0  0  0  0  0  0  0  0  0  0
   28.4079  -18.4715  -16.8379 C   0  0  0  0  0  0  0  0  0  0  0  0
   27.2724  -18.9508  -16.0190 C   0  0  2  0  0  0  0  0  0  0  0  0
   26.8624  -17.9622  -14.9403 C   0  0  0  0  0  0  0  0  0  0  0  0
   27.3769  -20.2992  -15.4093 C   0  0  2  0  0  0  0  0  0  0  0  0
   27.6072  -21.3906  -16.3030 N   0  0  0  0  0  0  0  0  0  0  0  0
   26.2419  -20.6211  -14.5039 C   0  0  0  0  0  0  0  0  0  0  0  0
   25.1959  -21.1471  -14.9763 O   0  0  0  0  0  0  0  0  0  0  0  0
   21.7041  -18.7858  -10.1585 N   0  0  0  0  0  0  0  0  0  0  0  0
   21.4591  -19.9936   -9.4040 C   0  0  0  0  0  0  0  0  0  0  0  0
   20.2921  -20.4936   -9.4059 N   0  0  0  0  0  0  0  0  0  0  0  0
   22.5604  -20.5329   -8.7086 N   0  0  0  0  0  0  0  0  0  0  0  0
   23.8944  -19.9025   -8.9410 C   0  0  0  0  0  0  0  0  0  0  0  0
   24.7130  -20.8889   -9.6943 C   0  0  0  0  0  0  0  0  0  0  0  0
   25.5406  -20.5245  -10.8308 C   0  0  0  0  0  0  0  0  0  0  0  0
   25.1415  -20.7359  -12.2120 C   0  0  2  0  0  0  0  0  0  0  0  0
   26.2644  -20.3683  -13.1205 N   0  0  0  0  0  0  0  0  0  0  0  0
   23.9600  -20.1084  -12.7570 C   0  0  0  0  0  0  0  0  0  0  0  0
   23.7757  -18.9525  -13.1682 O   0  0  0  0  0  0  0  0  0  0  0  0
   22.7770  -20.9108  -12.8629 O   0  0  0  0  0  0  0  0  0  0  0  0
  2  1  1  1
  3  4  1  0
  3  2  1  0
  4  5  2  0
  6  5  1  0
  7  6  1  0
  8  7  2  0
  8  4  1  0
  9 10  2  0
  9  2  1  0
 11 12  1  0
 12 13  1  0
 13 15  1  0
 13 14  1  1
 15 16  1  6
 16  9  1  0
 17 15  1  0
 18 17  2  0
 19 20  1  0
 20 22  1  0
 21 20  2  0
 22 23  1  0
 23 24  1  0
 24 25  1  0
 26 25  1  1
 26 28  1  0
 26 27  1  0
 27 17  1  0
 28 30  1  0
 29 28  2  0
M  END
$$$$
