HIR.pdb
     RDKit          3D

 30 30  0  0  1  0  0  0  0  0999 V2000
   28.3478  -21.2171  -15.5389 N   0  0  0  0  0  0  0  0  0  0  0  0
   27.4476  -20.2467  -14.9755 C   0  0  1  0  0  0  0  0  0  0  0  0
   26.7828  -19.3951  -16.0338 C   0  0  0  0  0  0  0  0  0  0  0  0
   27.7672  -18.6378  -16.8303 C   0  0  0  0  0  0  0  0  0  0  0  0
   28.5581  -17.5872  -16.4474 C   0  0  0  0  0  0  0  0  0  0  0  0
   29.2840  -17.2372  -17.5214 N   0  0  0  0  0  0  0  0  0  0  0  0
   28.9660  -18.0443  -18.5684 C   0  0  0  0  0  0  0  0  0  0  0  0
   28.0398  -18.8855  -18.1136 N   0  0  0  0  0  0  0  0  0  0  0  0
   26.4480  -20.8890  -14.0862 C   0  0  0  0  0  0  0  0  0  0  0  0
   25.9295  -22.0017  -14.3599 O   0  0  0  0  0  0  0  0  0  0  0  0
   26.8062  -20.2951   -8.5698 C   0  0  0  0  0  0  0  0  0  0  0  0
   26.5033  -20.9225   -9.8822 C   0  0  0  0  0  0  0  0  0  0  0  0
   25.2253  -20.5557  -10.5317 C   0  0  2  0  0  0  0  0  0  0  0  0
   24.0112  -21.0994   -9.7971 C   0  0  0  0  0  0  0  0  0  0  0  0
   25.0728  -20.8486  -11.9781 C   0  0  2  0  0  0  0  0  0  0  0  0
   26.0282  -20.2509  -12.8571 N   0  0  0  0  0  0  0  0  0  0  0  0
   23.6972  -20.5968  -12.4838 C   0  0  0  0  0  0  0  0  0  0  0  0
   23.3365  -19.4171  -12.7523 O   0  0  0  0  0  0  0  0  0  0  0  0
   18.3943  -26.4319  -15.8875 N   0  0  0  0  0  0  0  0  0  0  0  0
   19.7718  -26.1799  -15.5312 C   0  0  0  0  0  0  0  0  0  0  0  0
   20.6387  -27.0809  -15.7521 N   0  0  0  0  0  0  0  0  0  0  0  0
   20.0504  -24.9252  -14.9522 N   0  0  0  0  0  0  0  0  0  0  0  0
   18.9133  -23.9673  -14.8097 C   0  0  0  0  0  0  0  0  0  0  0  0
   19.4825  -22.6949  -14.2924 C   0  0  0  0  0  0  0  0  0  0  0  0
   20.8214  -22.5964  -13.7383 C   0  0  0  0  0  0  0  0  0  0  0  0
   21.3835  -21.3615  -13.2180 C   0  0  2  0  0  0  0  0  0  0  0  0
   22.7514  -21.6183  -12.6850 N   0  0  0  0  0  0  0  0  0  0  0  0
   20.6960  -20.5898  -12.2088 C   0  0  0  0  0  0  0  0  0  0  0  0
   20.7671  -20.6327  -10.9710 O   0  0  0  0  0  0  0  0  0  0  0  0
   19.7669  -19.5953  -12.6588 O   0  0  0  0  0  0  0  0  0  0  0  0
  2  1  1  6
  3  4  1  0
  3  2  1  0
  4  5  2  0
  6  5  1  0
  7  6  1  0
  8  7  2  0
  8  4  1  0
  9 10  2  0
  9  2  1  0
 11 12  1  0
 12 13  1  0
 13 15  1  0
 13 14  1  1
 15 16  1  6
 16  9  1  0
 17 15  1  0
 18 17  2  0
 19 20  1  0
 20 22  1  0
 21 20  2  0
 22 23  1  0
 23 24  1  0
 24 25  1  0
 26 25  1  1
 26 28  1  0
 26 27  1  0
 27 17  1  0
 28 30  1  0
 29 28  2  0
M  END
$$$$
