HIR.pdb
     RDKit          3D

 30 30  0  0  1  0  0  0  0  0999 V2000
   27.8227  -21.3531  -14.7031 N   0  0  0  0  0  0  0  0  0  0  0  0
   27.3411  -20.3474  -13.7941 C   0  0  1  0  0  0  0  0  0  0  0  0
   26.7108  -19.1756  -14.5130 C   0  0  0  0  0  0  0  0  0  0  0  0
   27.6520  -18.5331  -15.4502 C   0  0  0  0  0  0  0  0  0  0  0  0
   28.8284  -17.8861  -15.1795 C   0  0  0  0  0  0  0  0  0  0  0  0
   29.3231  -17.4728  -16.3574 N   0  0  0  0  0  0  0  0  0  0  0  0
   28.4836  -17.8458  -17.3597 C   0  0  0  0  0  0  0  0  0  0  0  0
   27.4766  -18.4892  -16.7730 N   0  0  0  0  0  0  0  0  0  0  0  0
   26.4196  -20.9271  -12.7855 C   0  0  0  0  0  0  0  0  0  0  0  0
   25.8735  -22.0484  -12.9479 O   0  0  0  0  0  0  0  0  0  0  0  0
   27.7029  -19.9790   -7.7099 C   0  0  0  0  0  0  0  0  0  0  0  0
   27.1059  -20.8067   -8.7898 C   0  0  0  0  0  0  0  0  0  0  0  0
   25.6927  -20.5459   -9.1431 C   0  0  2  0  0  0  0  0  0  0  0  0
   24.7128  -21.2580   -8.2258 C   0  0  0  0  0  0  0  0  0  0  0  0
   25.2754  -20.7734  -10.5485 C   0  0  2  0  0  0  0  0  0  0  0  0
   26.1120  -20.2150  -11.5639 N   0  0  0  0  0  0  0  0  0  0  0  0
   23.8580  -20.4037  -10.8047 C   0  0  0  0  0  0  0  0  0  0  0  0
   22.9471  -20.8718  -10.0665 O   0  0  0  0  0  0  0  0  0  0  0  0
   19.3073  -20.0227  -17.5612 N   0  0  0  0  0  0  0  0  0  0  0  0
   19.0566  -18.6286  -17.2756 C   0  0  0  0  0  0  0  0  0  0  0  0
   17.9635  -18.1092  -17.6599 N   0  0  0  0  0  0  0  0  0  0  0  0
   20.0691  -17.9393  -16.5778 N   0  0  0  0  0  0  0  0  0  0  0  0
   21.3157  -18.6953  -16.2533 C   0  0  0  0  0  0  0  0  0  0  0  0
   21.1743  -19.1820  -14.8556 C   0  0  0  0  0  0  0  0  0  0  0  0
   22.2659  -19.1609  -13.8978 C   0  0  0  0  0  0  0  0  0  0  0  0
   22.1490  -19.6649  -12.5398 C   0  0  2  0  0  0  0  0  0  0  0  0
   23.4621  -19.5440  -11.8451 N   0  0  0  0  0  0  0  0  0  0  0  0
   21.6737  -21.0027  -12.2734 C   0  0  0  0  0  0  0  0  0  0  0  0
   22.1301  -22.1051  -12.6135 O   0  0  0  0  0  0  0  0  0  0  0  0
   20.4808  -21.1344  -11.4896 O   0  0  0  0  0  0  0  0  0  0  0  0
  2  1  1  6
  3  4  1  0
  3  2  1  0
  4  5  2  0
  6  5  1  0
  7  6  1  0
  8  7  2  0
  8  4  1  0
  9 10  2  0
  9  2  1  0
 11 12  1  0
 12 13  1  0
 13 15  1  0
 13 14  1  1
 15 16  1  6
 16  9  1  0
 17 15  1  0
 18 17  2  0
 19 20  1  0
 20 22  1  0
 21 20  2  0
 22 23  1  0
 23 24  1  0
 24 25  1  0
 26 25  1  6
 26 28  1  0
 26 27  1  0
 27 17  1  0
 28 30  1  0
 29 28  2  0
M  END
$$$$
