QPG.pdb
     RDKit          3D

 21 21  0  0  1  0  0  0  0  0999 V2000
    3.4332  -19.4079   22.3377 N   0  0  0  0  0  0  0  0  0  0  0  0
    3.1883  -18.6203   21.1698 C   0  0  0  0  0  0  0  0  0  0  0  0
    2.2630  -19.0130   20.4159 O   0  0  0  0  0  0  0  0  0  0  0  0
    3.9749  -17.4039   20.8524 C   0  0  0  0  0  0  0  0  0  0  0  0
    5.4164  -17.7987   20.7165 C   0  0  0  0  0  0  0  0  0  0  0  0
    6.0554  -17.1681   19.4799 C   0  0  2  0  0  0  0  0  0  0  0  0
    6.1586  -18.1215   18.4113 N   0  0  0  0  0  0  0  0  0  0  0  0
    7.3185  -16.5848   19.9272 C   0  0  0  0  0  0  0  0  0  0  0  0
    8.3547  -17.3194   19.6672 O   0  0  0  0  0  0  0  0  0  0  0  0
    7.5686  -15.3773   20.5794 N   0  0  0  0  0  0  0  0  0  0  0  0
    6.5484  -14.4548   21.0294 C   0  0  0  0  0  0  0  0  0  0  0  0
    7.1414  -13.1198   20.6397 C   0  0  0  0  0  0  0  0  0  0  0  0
    8.6333  -13.3329   20.5815 C   0  0  0  0  0  0  0  0  0  0  0  0
    8.8219  -14.8137   20.9467 C   0  0  1  0  0  0  0  0  0  0  0  0
    9.0652  -14.8250   22.4262 C   0  0  0  0  0  0  0  0  0  0  0  0
    8.2147  -14.4832   23.2770 O   0  0  0  0  0  0  0  0  0  0  0  0
   10.3621  -15.2605   22.8351 N   0  0  0  0  0  0  0  0  0  0  0  0
   10.6806  -15.3904   24.2295 C   0  0  0  0  0  0  0  0  0  0  0  0
   12.0826  -15.8618   24.3738 C   0  0  0  0  0  0  0  0  0  0  0  0
   12.2904  -16.9272   25.0313 O   0  0  0  0  0  0  0  0  0  0  0  0
   13.1581  -15.1977   23.8292 O   0  0  0  0  0  0  0  0  0  0  0  0
  2  1  1  0
  3  2  2  0
  4  2  1  0
  5  4  1  0
  6  5  1  0
  6  7  1  6
  6  8  1  0
  8  9  2  0
 10  8  1  0
 10 14  1  0
 11 10  1  0
 12 11  1  0
 12 13  1  0
 13 14  1  0
 14 15  1  1
 15 16  2  0
 15 17  1  0
 17 18  1  0
 18 19  1  0
 19 21  1  0
 20 19  2  0
M  END
$$$$
