QPG.pdb
     RDKit          3D

 21 21  0  0  1  0  0  0  0  0999 V2000
    9.6578  -14.5254   25.5142 N   0  0  0  0  0  0  0  0  0  0  0  0
    8.6766  -15.5341   25.7679 C   0  0  0  0  0  0  0  0  0  0  0  0
    8.3614  -15.7159   26.9705 O   0  0  0  0  0  0  0  0  0  0  0  0
    8.0563  -16.3302   24.6814 C   0  0  0  0  0  0  0  0  0  0  0  0
    6.7925  -15.6411   24.2567 C   0  0  0  0  0  0  0  0  0  0  0  0
    6.1231  -16.3679   23.0910 C   0  0  2  0  0  0  0  0  0  0  0  0
    5.6266  -17.6509   23.5017 N   0  0  0  0  0  0  0  0  0  0  0  0
    7.1040  -16.3898   22.0080 C   0  0  0  0  0  0  0  0  0  0  0  0
    7.3744  -17.5803   21.5715 O   0  0  0  0  0  0  0  0  0  0  0  0
    7.7787  -15.3389   21.3863 N   0  0  0  0  0  0  0  0  0  0  0  0
    7.7387  -13.9593   21.8215 C   0  0  0  0  0  0  0  0  0  0  0  0
    7.6117  -13.2215   20.5081 C   0  0  0  0  0  0  0  0  0  0  0  0
    8.1929  -14.1393   19.4620 C   0  0  0  0  0  0  0  0  0  0  0  0
    8.6305  -15.3852   20.2481 C   0  0  1  0  0  0  0  0  0  0  0  0
   10.0744  -15.1528   20.5795 C   0  0  0  0  0  0  0  0  0  0  0  0
   10.4718  -14.6315   21.6445 O   0  0  0  0  0  0  0  0  0  0  0  0
   11.0106  -15.5699   19.5854 N   0  0  0  0  0  0  0  0  0  0  0  0
   11.5722  -16.8913   19.6227 C   0  0  0  0  0  0  0  0  0  0  0  0
   12.5211  -16.9924   20.7620 C   0  0  0  0  0  0  0  0  0  0  0  0
   13.7325  -16.6720   20.5613 O   0  0  0  0  0  0  0  0  0  0  0  0
   12.1458  -17.4157   22.0168 O   0  0  0  0  0  0  0  0  0  0  0  0
  2  1  1  0
  3  2  2  0
  4  2  1  0
  5  4  1  0
  6  5  1  0
  6  7  1  1
  6  8  1  0
  8  9  2  0
 10  8  1  0
 10 14  1  0
 11 10  1  0
 12 11  1  0
 12 13  1  0
 13 14  1  0
 14 15  1  1
 15 16  2  0
 15 17  1  0
 17 18  1  0
 18 19  1  0
 19 21  1  0
 20 19  2  0
M  END
$$$$
