QPG.pdb
     RDKit          3D

 21 21  0  0  1  0  0  0  0  0999 V2000
    5.7749  -18.7365   24.2762 N   0  0  0  0  0  0  0  0  0  0  0  0
    7.1882  -18.5535   24.1597 C   0  0  0  0  0  0  0  0  0  0  0  0
    7.9092  -19.4872   24.5923 O   0  0  0  0  0  0  0  0  0  0  0  0
    7.7850  -17.3341   23.5632 C   0  0  0  0  0  0  0  0  0  0  0  0
    6.6749  -16.3766   23.2417 C   0  0  0  0  0  0  0  0  0  0  0  0
    7.2160  -15.0511   22.7077 C   0  0  2  0  0  0  0  0  0  0  0  0
    7.9135  -15.2423   21.4675 N   0  0  0  0  0  0  0  0  0  0  0  0
    8.0056  -14.4681   23.7905 C   0  0  0  0  0  0  0  0  0  0  0  0
    9.2600  -14.3170   23.5000 O   0  0  0  0  0  0  0  0  0  0  0  0
    7.6158  -14.0577   25.0655 N   0  0  0  0  0  0  0  0  0  0  0  0
    6.2572  -14.0870   25.5634 C   0  0  0  0  0  0  0  0  0  0  0  0
    6.1629  -12.7647   26.2902 C   0  0  0  0  0  0  0  0  0  0  0  0
    7.5771  -12.3993   26.6660 C   0  0  0  0  0  0  0  0  0  0  0  0
    8.4282  -13.5566   26.1201 C   0  0  1  0  0  0  0  0  0  0  0  0
    8.5688  -14.5143   27.2653 C   0  0  0  0  0  0  0  0  0  0  0  0
    7.7009  -14.6770   28.1509 O   0  0  0  0  0  0  0  0  0  0  0  0
    9.7855  -15.2608   27.2998 N   0  0  0  0  0  0  0  0  0  0  0  0
   10.8650  -14.8547   28.1556 C   0  0  0  0  0  0  0  0  0  0  0  0
   10.7346  -15.5340   29.4710 C   0  0  0  0  0  0  0  0  0  0  0  0
   11.5625  -15.2323   30.3842 O   0  0  0  0  0  0  0  0  0  0  0  0
    9.7616  -16.4696   29.7400 O   0  0  0  0  0  0  0  0  0  0  0  0
  2  1  1  0
  3  2  2  0
  4  2  1  0
  5  4  1  0
  6  5  1  0
  6  7  1  6
  6  8  1  0
  8  9  2  0
 10  8  1  0
 10 14  1  0
 11 10  1  0
 12 11  1  0
 12 13  1  0
 13 14  1  0
 14 15  1  1
 15 16  2  0
 15 17  1  0
 17 18  1  0
 18 19  1  0
 19 21  1  0
 20 19  2  0
M  END
$$$$
