QPG.pdb
     RDKit          3D

 21 21  0  0  1  0  0  0  0  0999 V2000
    4.5000  -19.1717   21.8725 N   0  0  0  0  0  0  0  0  0  0  0  0
    4.0842  -18.1237   20.9930 C   0  0  0  0  0  0  0  0  0  0  0  0
    2.9553  -18.2592   20.4583 O   0  0  0  0  0  0  0  0  0  0  0  0
    4.9282  -16.9361   20.7175 C   0  0  0  0  0  0  0  0  0  0  0  0
    6.1512  -17.0175   21.5835 C   0  0  0  0  0  0  0  0  0  0  0  0
    7.1028  -15.8513   21.3196 C   0  0  2  0  0  0  0  0  0  0  0  0
    7.8908  -16.0865   20.1427 N   0  0  0  0  0  0  0  0  0  0  0  0
    7.8590  -15.6557   22.5547 C   0  0  0  0  0  0  0  0  0  0  0  0
    9.0689  -16.1190   22.5059 O   0  0  0  0  0  0  0  0  0  0  0  0
    7.4785  -15.0550   23.7549 N   0  0  0  0  0  0  0  0  0  0  0  0
    6.2158  -14.3844   23.9789 C   0  0  0  0  0  0  0  0  0  0  0  0
    6.6457  -13.1626   24.7587 C   0  0  0  0  0  0  0  0  0  0  0  0
    7.9477  -13.5346   25.4227 C   0  0  0  0  0  0  0  0  0  0  0  0
    8.2035  -14.9828   24.9765 C   0  0  1  0  0  0  0  0  0  0  0  0
    7.6202  -15.8367   26.0624 C   0  0  0  0  0  0  0  0  0  0  0  0
    6.3933  -15.9630   26.2691 O   0  0  0  0  0  0  0  0  0  0  0  0
    8.5659  -16.5254   26.8810 N   0  0  0  0  0  0  0  0  0  0  0  0
    8.5468  -17.9589   26.9673 C   0  0  0  0  0  0  0  0  0  0  0  0
    9.5832  -18.4092   27.9326 C   0  0  0  0  0  0  0  0  0  0  0  0
   10.8016  -18.2178   27.6339 O   0  0  0  0  0  0  0  0  0  0  0  0
    9.2812  -19.0205   29.1281 O   0  0  0  0  0  0  0  0  0  0  0  0
  2  1  1  0
  3  2  2  0
  4  2  1  0
  5  4  1  0
  6  5  1  0
  6  7  1  6
  6  8  1  0
  8  9  2  0
 10  8  1  0
 10 14  1  0
 11 10  1  0
 12 11  1  0
 12 13  1  0
 13 14  1  0
 14 15  1  1
 15 16  2  0
 15 17  1  0
 17 18  1  0
 18 19  1  0
 19 21  1  0
 20 19  2  0
M  END
$$$$
