TRP.pdb
     RDKit          3D

 26 26  0  0  1  0  0  0  0  0999 V2000
   20.3427  -21.7757  -16.5193 C   0  0  0  0  0  0  0  0  0  0  0  0
   21.3386  -20.6759  -16.3422 C   0  0  1  0  0  0  0  0  0  0  0  0
   20.8960  -19.4886  -16.9324 O   0  0  0  0  0  0  0  0  0  0  0  0
   21.5558  -20.4141  -14.8683 C   0  0  2  0  0  0  0  0  0  0  0  0
   20.3646  -19.7597  -14.3800 N   0  0  0  0  0  0  0  0  0  0  0  0
   22.7394  -19.5133  -14.6776 C   0  0  0  0  0  0  0  0  0  0  0  0
   22.5730  -18.2752  -14.5557 O   0  0  0  0  0  0  0  0  0  0  0  0
   26.2916  -20.0594   -9.8068 N   0  0  0  0  0  0  0  0  0  0  0  0
   25.2191  -20.9889   -9.7369 C   0  0  0  0  0  0  0  0  0  0  0  0
   24.4608  -21.0700   -8.6752 N   0  0  0  0  0  0  0  0  0  0  0  0
   24.9173  -21.8627  -10.8071 N   0  0  0  0  0  0  0  0  0  0  0  0
   25.2224  -21.5716  -12.1991 C   0  0  0  0  0  0  0  0  0  0  0  0
   25.9992  -20.3096  -12.3930 C   0  0  0  0  0  0  0  0  0  0  0  0
   26.3092  -20.0008  -13.8268 C   0  0  0  0  0  0  0  0  0  0  0  0
   25.2094  -19.2200  -14.5266 C   0  0  2  0  0  0  0  0  0  0  0  0
   24.0297  -20.0962  -14.6400 N   0  0  0  0  0  0  0  0  0  0  0  0
   25.6731  -18.8237  -15.8805 C   0  0  0  0  0  0  0  0  0  0  0  0
   25.3137  -19.5180  -16.8587 O   0  0  0  0  0  0  0  0  0  0  0  0
   24.6722  -20.4771   -7.8295 N   0  0  0  0  0  0  0  0  0  0  0  0
   26.5012  -17.6943  -16.1001 C   0  0  0  0  0  0  0  0  0  0  0  0
   27.1753  -16.8607  -15.1264 C   0  0  0  0  0  0  0  0  0  0  0  0
   27.1137  -15.4603  -15.7270 C   0  0  0  0  0  0  0  0  0  0  0  0
   26.6953  -15.6445  -17.1485 C   0  0  1  0  0  0  0  0  0  0  0  0
   26.8556  -17.1191  -17.4016 C   0  0  0  0  0  0  0  0  0  0  0  0
   28.2284  -17.5116  -17.7537 O   0  0  0  0  0  0  0  0  0  0  0  0
   28.8231  -17.2084  -18.9623 O   0  0  0  0  0  0  0  0  0  0  0  0
  2  4  1  0
  2  1  1  1
  3  2  1  0
  4  5  1  6
  6  4  1  0
  6  7  2  0
  9  8  1  0
 10  9  2  0
 11  9  1  0
 12 11  1  0
 12 13  1  0
 13 14  1  0
 15 14  1  6
 15 16  1  0
 16  6  1  0
 17 15  1  0
 18 17  2  0
 19 17  1  0
 19 20  1  0
 21 20  1  0
 22 21  1  0
 22 23  1  0
 23 19  1  0
 23 24  1  6
 25 24  1  0
 26 24  2  0
M  END
$$$$
