TRP.pdb
     RDKit          3D

 26 26  0  0  1  0  0  0  0  0999 V2000
   28.2014  -20.4984  -18.6441 C   0  0  0  0  0  0  0  0  0  0  0  0
   28.8231  -21.8500  -18.5045 C   0  0  1  0  0  0  0  0  0  0  0  0
   30.2031  -21.8002  -18.7211 O   0  0  0  0  0  0  0  0  0  0  0  0
   28.5866  -22.3806  -17.1079 C   0  0  2  0  0  0  0  0  0  0  0  0
   29.2370  -23.6679  -17.0341 N   0  0  0  0  0  0  0  0  0  0  0  0
   27.1159  -22.5447  -16.8650 C   0  0  0  0  0  0  0  0  0  0  0  0
   26.4707  -23.4222  -17.4885 O   0  0  0  0  0  0  0  0  0  0  0  0
   26.4791  -20.7410  -10.3595 N   0  0  0  0  0  0  0  0  0  0  0  0
   25.1082  -21.0011  -10.6280 C   0  0  0  0  0  0  0  0  0  0  0  0
   24.1662  -20.2290  -10.1531 N   0  0  0  0  0  0  0  0  0  0  0  0
   24.6976  -22.0976  -11.4212 N   0  0  0  0  0  0  0  0  0  0  0  0
   25.6129  -23.0849  -11.9716 C   0  0  0  0  0  0  0  0  0  0  0  0
   25.7939  -22.9777  -13.4512 C   0  0  0  0  0  0  0  0  0  0  0  0
   24.9201  -21.9452  -14.0973 C   0  0  0  0  0  0  0  0  0  0  0  0
   25.0644  -21.8939  -15.6090 C   0  0  2  0  0  0  0  0  0  0  0  0
   26.4898  -21.6909  -15.9242 N   0  0  0  0  0  0  0  0  0  0  0  0
   24.2656  -20.7608  -16.1410 C   0  0  0  0  0  0  0  0  0  0  0  0
   24.8063  -19.6334  -16.2105 O   0  0  0  0  0  0  0  0  0  0  0  0
   23.1621  -20.3900  -10.4312 N   0  0  0  0  0  0  0  0  0  0  0  0
   22.9230  -20.9124  -16.5700 C   0  0  0  0  0  0  0  0  0  0  0  0
   22.1078  -22.1091  -16.5932 C   0  0  0  0  0  0  0  0  0  0  0  0
   21.2524  -21.9542  -17.8462 C   0  0  0  0  0  0  0  0  0  0  0  0
   21.4089  -20.5319  -18.2732 C   0  0  2  0  0  0  0  0  0  0  0  0
   22.0565  -19.8531  -17.0968 C   0  0  0  0  0  0  0  0  0  0  0  0
   21.1032  -19.4372  -16.0573 O   0  0  0  0  0  0  0  0  0  0  0  0
   20.2538  -18.3566  -16.1883 O   0  0  0  0  0  0  0  0  0  0  0  0
  2  4  1  0
  2  1  1  1
  3  2  1  0
  4  5  1  6
  6  4  1  0
  6  7  2  0
  9  8  1  0
 10  9  2  0
 11  9  1  0
 12 11  1  0
 12 13  1  0
 13 14  1  0
 15 14  1  1
 15 16  1  0
 16  6  1  0
 17 15  1  0
 18 17  2  0
 19 17  1  0
 19 20  1  0
 21 20  1  0
 22 21  1  0
 22 23  1  0
 23 19  1  0
 23 24  1  1
 25 24  1  0
 26 24  2  0
M  END
$$$$
