SRN.pdb
     RDKit          3D

 26 25  0  0  1  0  0  0  0  0999 V2000
   17.2975  -13.6841  -13.0395 O   0  0  0  0  0  0  0  0  0  0  0  0
   17.3392  -12.3116  -13.1299 C   0  0  0  0  0  0  0  0  0  0  0  0
   16.3440  -11.6097  -12.2565 C   0  0  2  0  0  0  0  0  0  0  0  0
   15.0140  -11.9694  -12.6875 N   0  0  0  0  0  0  0  0  0  0  0  0
   16.5035  -10.1543  -12.2204 C   0  0  0  0  0  0  0  0  0  0  0  0
   16.2598   -9.4854  -13.2570 O   0  0  0  0  0  0  0  0  0  0  0  0
   13.8560   -5.1409   -6.0246 N   0  0  0  0  0  0  0  0  0  0  0  0
   13.0023   -6.0119   -6.7513 C   0  0  0  0  0  0  0  0  0  0  0  0
   11.7386   -6.1254   -6.4696 N   0  0  0  0  0  0  0  0  0  0  0  0
   13.5539   -6.7836   -7.8217 N   0  0  0  0  0  0  0  0  0  0  0  0
   14.9547   -6.7185   -8.1414 C   0  0  0  0  0  0  0  0  0  0  0  0
   15.2668   -7.4674   -9.4113 C   0  0  0  0  0  0  0  0  0  0  0  0
   16.7459   -7.3879   -9.7008 C   0  0  0  0  0  0  0  0  0  0  0  0
   17.0549   -7.9819  -11.0764 C   0  0  2  0  0  0  0  0  0  0  0  0
   16.9225   -9.4196  -11.0779 N   0  0  0  0  0  0  0  0  0  0  0  0
   18.4250   -7.5441  -11.4261 C   0  0  0  0  0  0  0  0  0  0  0  0
   19.4056   -8.1511  -10.9139 O   0  0  0  0  0  0  0  0  0  0  0  0
   11.1241   -6.7180   -7.0690 N   0  0  0  0  0  0  0  0  0  0  0  0
   22.5545   -5.7176  -13.9288 C   0  0  0  0  0  0  0  0  0  0  0  0
   21.9458   -6.9891  -14.1357 O   0  0  0  0  0  0  0  0  0  0  0  0
   22.5994   -7.8074  -14.8131 C   0  0  0  0  0  0  0  0  0  0  0  0
   20.6284   -7.3514  -13.5993 C   0  0  1  0  0  0  0  0  0  0  0  0
   20.0745   -6.2307  -12.7950 N   0  0  0  0  0  0  0  0  0  0  0  0
   18.7339   -6.4860  -12.2992 C   0  0  0  0  0  0  0  0  0  0  0  0
   19.9315   -5.0488  -13.7031 O   0  0  0  0  0  0  0  0  0  0  0  0
   20.8319   -4.2859  -14.0635 O   0  0  0  0  0  0  0  0  0  0  0  0
  2  1  1  0
  3  2  1  0
  3  4  1  6
  5  3  1  0
  5  6  2  0
  7  8  1  0
  8 10  1  0
  8  9  2  0
 10 11  1  0
 11 12  1  0
 12 13  1  0
 14 13  1  1
 14 15  1  0
 15  5  1  0
 16 14  1  0
 17 16  2  0
 18 19  1  0
 19 20  2  0
 19 21  1  0
 22 21  1  1
 22 23  1  0
 22 24  1  0
 23 16  1  0
 24 26  1  0
 25 24  2  0
M  END
$$$$
