SRN.pdb
     RDKit          3D

 26 25  0  0  1  0  0  0  0  0999 V2000
   27.7102  -19.5378  -18.8945 O   0  0  0  0  0  0  0  0  0  0  0  0
   26.3616  -19.6942  -18.6697 C   0  0  0  0  0  0  0  0  0  0  0  0
   25.7962  -18.7484  -17.6541 C   0  0  2  0  0  0  0  0  0  0  0  0
   26.6824  -18.7071  -16.5152 N   0  0  0  0  0  0  0  0  0  0  0  0
   24.4286  -19.0674  -17.2379 C   0  0  0  0  0  0  0  0  0  0  0  0
   23.5590  -19.2985  -18.1165 O   0  0  0  0  0  0  0  0  0  0  0  0
   25.8059  -22.3962  -12.2157 N   0  0  0  0  0  0  0  0  0  0  0  0
   24.8079  -23.3331  -12.5921 C   0  0  0  0  0  0  0  0  0  0  0  0
   25.1068  -24.4560  -13.1742 N   0  0  0  0  0  0  0  0  0  0  0  0
   23.4374  -23.0273  -12.3208 N   0  0  0  0  0  0  0  0  0  0  0  0
   22.9235  -21.6952  -12.4946 C   0  0  0  0  0  0  0  0  0  0  0  0
   23.1193  -21.2075  -13.9069 C   0  0  0  0  0  0  0  0  0  0  0  0
   22.4950  -19.8427  -14.0672 C   0  0  0  0  0  0  0  0  0  0  0  0
   22.6187  -19.3642  -15.5151 C   0  0  2  0  0  0  0  0  0  0  0  0
   23.9956  -19.1381  -15.8858 N   0  0  0  0  0  0  0  0  0  0  0  0
   21.7992  -18.1363  -15.6242 C   0  0  0  0  0  0  0  0  0  0  0  0
   22.2914  -17.0413  -15.2353 O   0  0  0  0  0  0  0  0  0  0  0  0
   24.3463  -25.1013  -13.4793 N   0  0  0  0  0  0  0  0  0  0  0  0
   19.7198  -13.9462  -18.7165 C   0  0  0  0  0  0  0  0  0  0  0  0
   19.6658  -14.7151  -17.5182 O   0  0  0  0  0  0  0  0  0  0  0  0
   18.8789  -14.3090  -16.6398 C   0  0  0  0  0  0  0  0  0  0  0  0
   20.4735  -15.9202  -17.2940 C   0  0  2  0  0  0  0  0  0  0  0  0
   19.7739  -16.8420  -16.3610 N   0  0  0  0  0  0  0  0  0  0  0  0
   20.4902  -18.0847  -16.1352 C   0  0  0  0  0  0  0  0  0  0  0  0
   18.4869  -17.2506  -17.0080 O   0  0  0  0  0  0  0  0  0  0  0  0
   17.5947  -16.4983  -17.4089 O   0  0  0  0  0  0  0  0  0  0  0  0
  2  1  1  0
  3  2  1  0
  3  4  1  1
  5  3  1  0
  5  6  2  0
  7  8  1  0
  8 10  1  0
  8  9  2  0
 10 11  1  0
 11 12  1  0
 12 13  1  0
 14 13  1  1
 14 15  1  0
 15  5  1  0
 16 14  1  0
 17 16  2  0
 18 19  1  0
 19 20  2  0
 19 21  1  0
 22 21  1  1
 22 23  1  0
 22 24  1  0
 23 16  1  0
 24 26  1  0
 25 24  2  0
M  END
$$$$
