SRN.pdb
     RDKit          3D

 26 25  0  0  1  0  0  0  0  0999 V2000
   24.6446  -13.0072  -15.1861 O   0  0  0  0  0  0  0  0  0  0  0  0
   25.5365  -13.9815  -14.8002 C   0  0  0  0  0  0  0  0  0  0  0  0
   26.1209  -14.7624  -15.9380 C   0  0  2  0  0  0  0  0  0  0  0  0
   26.0626  -13.9545  -17.1330 N   0  0  0  0  0  0  0  0  0  0  0  0
   25.4850  -16.0632  -16.1578 C   0  0  0  0  0  0  0  0  0  0  0  0
   24.4500  -16.1268  -16.8692 O   0  0  0  0  0  0  0  0  0  0  0  0
   29.5188  -23.4954  -16.0783 N   0  0  0  0  0  0  0  0  0  0  0  0
   28.1109  -23.4333  -16.2496 C   0  0  0  0  0  0  0  0  0  0  0  0
   27.3858  -24.5063  -16.3590 N   0  0  0  0  0  0  0  0  0  0  0  0
   27.4785  -22.1516  -16.3025 N   0  0  0  0  0  0  0  0  0  0  0  0
   28.2277  -20.9424  -16.0897 C   0  0  0  0  0  0  0  0  0  0  0  0
   27.3897  -19.7190  -16.3574 C   0  0  0  0  0  0  0  0  0  0  0  0
   26.1621  -19.7387  -15.4796 C   0  0  0  0  0  0  0  0  0  0  0  0
   25.2606  -18.5429  -15.7929 C   0  0  2  0  0  0  0  0  0  0  0  0
   25.9569  -17.2903  -15.6172 N   0  0  0  0  0  0  0  0  0  0  0  0
   24.0824  -18.6595  -14.9045 C   0  0  0  0  0  0  0  0  0  0  0  0
   24.0310  -17.9429  -13.8670 O   0  0  0  0  0  0  0  0  0  0  0  0
   26.3570  -24.4247  -16.5099 N   0  0  0  0  0  0  0  0  0  0  0  0
   19.6599  -18.1173  -12.3593 C   0  0  0  0  0  0  0  0  0  0  0  0
   19.7831  -18.1652  -13.7779 O   0  0  0  0  0  0  0  0  0  0  0  0
   18.7164  -18.2404  -14.4199 C   0  0  0  0  0  0  0  0  0  0  0  0
   21.0724  -18.1304  -14.4788 C   0  0  1  0  0  0  0  0  0  0  0  0
   21.7566  -19.4450  -14.3627 N   0  0  0  0  0  0  0  0  0  0  0  0
   22.9917  -19.5198  -15.1225 C   0  0  0  0  0  0  0  0  0  0  0  0
   20.8625  -20.4769  -14.9772 O   0  0  0  0  0  0  0  0  0  0  0  0
   20.8657  -20.8443  -16.1552 O   0  0  0  0  0  0  0  0  0  0  0  0
  2  1  1  0
  3  2  1  0
  3  4  1  6
  5  3  1  0
  5  6  2  0
  7  8  1  0
  8 10  1  0
  8  9  2  0
 10 11  1  0
 11 12  1  0
 12 13  1  0
 14 13  1  1
 14 15  1  0
 15  5  1  0
 16 14  1  0
 17 16  2  0
 18 19  1  0
 19 20  2  0
 19 21  1  0
 22 21  1  1
 22 23  1  0
 22 24  1  0
 23 16  1  0
 24 26  1  0
 25 24  2  0
M  END
$$$$
