SRN.pdb
     RDKit          3D

 26 25  0  0  1  0  0  0  0  0999 V2000
   13.6238  -24.4726    2.6813 O   0  0  0  0  0  0  0  0  0  0  0  0
   13.5835  -23.9368    1.4144 C   0  0  0  0  0  0  0  0  0  0  0  0
   14.8077  -23.1582    1.0394 C   0  0  2  0  0  0  0  0  0  0  0  0
   14.7146  -21.8398    1.6201 N   0  0  0  0  0  0  0  0  0  0  0  0
   15.0436  -23.0756   -0.4037 C   0  0  0  0  0  0  0  0  0  0  0  0
   14.9138  -21.9671   -0.9833 O   0  0  0  0  0  0  0  0  0  0  0  0
   16.2457  -25.5104   -7.6397 N   0  0  0  0  0  0  0  0  0  0  0  0
   17.6624  -25.4833   -7.5512 C   0  0  0  0  0  0  0  0  0  0  0  0
   18.4044  -25.1105   -8.5509 N   0  0  0  0  0  0  0  0  0  0  0  0
   18.2845  -25.8784   -6.3255 N   0  0  0  0  0  0  0  0  0  0  0  0
   17.5002  -26.2465   -5.1774 C   0  0  0  0  0  0  0  0  0  0  0  0
   16.6904  -25.0832   -4.6657 C   0  0  0  0  0  0  0  0  0  0  0  0
   16.4200  -25.2584   -3.1912 C   0  0  0  0  0  0  0  0  0  0  0  0
   15.6551  -24.0533   -2.6403 C   0  0  2  0  0  0  0  0  0  0  0  0
   15.4171  -24.1766   -1.2216 N   0  0  0  0  0  0  0  0  0  0  0  0
   14.3969  -23.9632   -3.4147 C   0  0  0  0  0  0  0  0  0  0  0  0
   13.3598  -24.5158   -2.9547 O   0  0  0  0  0  0  0  0  0  0  0  0
   19.4430  -25.1092   -8.4546 N   0  0  0  0  0  0  0  0  0  0  0  0
   10.6559  -21.6047   -6.0664 C   0  0  0  0  0  0  0  0  0  0  0  0
   11.1730  -21.1983   -4.8025 O   0  0  0  0  0  0  0  0  0  0  0  0
   10.5124  -20.3356   -4.1903 C   0  0  0  0  0  0  0  0  0  0  0  0
   12.4076  -21.7404   -4.2222 C   0  0  1  0  0  0  0  0  0  0  0  0
   12.9906  -22.7694   -5.1227 N   0  0  0  0  0  0  0  0  0  0  0  0
   14.2555  -23.3002   -4.6467 C   0  0  0  0  0  0  0  0  0  0  0  0
   13.3170  -22.1016   -6.4224 O   0  0  0  0  0  0  0  0  0  0  0  0
   14.3822  -21.5543   -6.7202 O   0  0  0  0  0  0  0  0  0  0  0  0
  2  1  1  0
  3  2  1  0
  3  4  1  6
  5  3  1  0
  5  6  2  0
  7  8  1  0
  8 10  1  0
  8  9  2  0
 10 11  1  0
 11 12  1  0
 12 13  1  0
 14 13  1  6
 14 15  1  0
 15  5  1  0
 16 14  1  0
 17 16  2  0
 18 19  1  0
 19 20  2  0
 19 21  1  0
 22 21  1  1
 22 23  1  0
 22 24  1  0
 23 16  1  0
 24 26  1  0
 25 24  2  0
M  END
$$$$
