SRN.pdb
     RDKit          3D

 26 25  0  0  1  0  0  0  0  0999 V2000
   22.9808  -20.7047  -21.7009 O   0  0  0  0  0  0  0  0  0  0  0  0
   22.4073  -20.8923  -20.4641 C   0  0  0  0  0  0  0  0  0  0  0  0
   23.1948  -21.7838  -19.5526 C   0  0  2  0  0  0  0  0  0  0  0  0
   23.0084  -23.1535  -19.9691 N   0  0  0  0  0  0  0  0  0  0  0  0
   22.8702  -21.6228  -18.1336 C   0  0  0  0  0  0  0  0  0  0  0  0
   21.9592  -22.3282  -17.6296 O   0  0  0  0  0  0  0  0  0  0  0  0
   25.0396  -21.2328  -10.5997 N   0  0  0  0  0  0  0  0  0  0  0  0
   26.0740  -21.2872  -11.5705 C   0  0  0  0  0  0  0  0  0  0  0  0
   27.0385  -22.1551  -11.4963 N   0  0  0  0  0  0  0  0  0  0  0  0
   26.0488  -20.3586  -12.6580 N   0  0  0  0  0  0  0  0  0  0  0  0
   25.0168  -19.3622  -12.7621 C   0  0  0  0  0  0  0  0  0  0  0  0
   23.8574  -19.8523  -13.5906 C   0  0  0  0  0  0  0  0  0  0  0  0
   24.2837  -19.9962  -15.0312 C   0  0  0  0  0  0  0  0  0  0  0  0
   23.1299  -20.5338  -15.8799 C   0  0  2  0  0  0  0  0  0  0  0  0
   23.5195  -20.7095  -17.2590 N   0  0  0  0  0  0  0  0  0  0  0  0
   22.0137  -19.5732  -15.7301 C   0  0  0  0  0  0  0  0  0  0  0  0
   22.1233  -18.4291  -16.2510 O   0  0  0  0  0  0  0  0  0  0  0  0
   27.8322  -22.1084  -12.1715 N   0  0  0  0  0  0  0  0  0  0  0  0
   17.1597  -17.7654  -17.5461 C   0  0  0  0  0  0  0  0  0  0  0  0
   18.1811  -17.6623  -16.5581 O   0  0  0  0  0  0  0  0  0  0  0  0
   18.0174  -16.7835  -15.6883 C   0  0  0  0  0  0  0  0  0  0  0  0
   19.3707  -18.5219  -16.5325 C   0  0  2  0  0  0  0  0  0  0  0  0
   19.6398  -18.9866  -15.1465 N   0  0  0  0  0  0  0  0  0  0  0  0
   20.8154  -19.8323  -15.0413 C   0  0  0  0  0  0  0  0  0  0  0  0
   18.4973  -19.8610  -14.7319 O   0  0  0  0  0  0  0  0  0  0  0  0
   18.3566  -21.0589  -14.9923 O   0  0  0  0  0  0  0  0  0  0  0  0
  2  1  1  0
  3  2  1  0
  3  4  1  6
  5  3  1  0
  5  6  2  0
  7  8  1  0
  8 10  1  0
  8  9  2  0
 10 11  1  0
 11 12  1  0
 12 13  1  0
 14 13  1  1
 14 15  1  0
 15  5  1  0
 16 14  1  0
 17 16  2  0
 18 19  1  0
 19 20  2  0
 19 21  1  0
 22 21  1  1
 22 23  1  0
 22 24  1  0
 23 16  1  0
 24 26  1  0
 25 24  2  0
M  END
$$$$
