SRN.pdb
     RDKit          3D

 26 25  0  0  1  0  0  0  0  0999 V2000
   26.5066  -19.5596  -17.0306 O   0  0  0  0  0  0  0  0  0  0  0  0
   27.6381  -20.1476  -16.5131 C   0  0  0  0  0  0  0  0  0  0  0  0
   27.4245  -21.5382  -15.9970 C   0  0  2  0  0  0  0  0  0  0  0  0
   27.1547  -22.4112  -17.1147 N   0  0  0  0  0  0  0  0  0  0  0  0
   26.3689  -21.6443  -14.9872 C   0  0  0  0  0  0  0  0  0  0  0  0
   25.3144  -22.2700  -15.2667 O   0  0  0  0  0  0  0  0  0  0  0  0
   22.8917  -21.5295   -6.7162 N   0  0  0  0  0  0  0  0  0  0  0  0
   24.2549  -21.1460   -6.8154 C   0  0  0  0  0  0  0  0  0  0  0  0
   24.8933  -20.6194   -5.8132 N   0  0  0  0  0  0  0  0  0  0  0  0
   24.9395  -21.3468   -8.0549 N   0  0  0  0  0  0  0  0  0  0  0  0
   25.0474  -20.2907   -9.0253 C   0  0  0  0  0  0  0  0  0  0  0  0
   24.6101  -20.7499  -10.3923 C   0  0  0  0  0  0  0  0  0  0  0  0
   25.7828  -20.7164  -11.3418 C   0  0  0  0  0  0  0  0  0  0  0  0
   25.3424  -21.1173  -12.7510 C   0  0  2  0  0  0  0  0  0  0  0  0
   26.4438  -21.0821  -13.6838 N   0  0  0  0  0  0  0  0  0  0  0  0
   24.2542  -20.1890  -13.1322 C   0  0  0  0  0  0  0  0  0  0  0  0
   24.5530  -19.0130  -13.4787 O   0  0  0  0  0  0  0  0  0  0  0  0
   25.8632  -20.2595   -5.9467 N   0  0  0  0  0  0  0  0  0  0  0  0
   20.0108  -18.6434  -15.6099 C   0  0  0  0  0  0  0  0  0  0  0  0
   21.0751  -19.3805  -16.2048 O   0  0  0  0  0  0  0  0  0  0  0  0
   21.0854  -19.4216  -17.4514 C   0  0  0  0  0  0  0  0  0  0  0  0
   22.1166  -20.0650  -15.4292 C   0  0  1  0  0  0  0  0  0  0  0  0
   21.9133  -19.8302  -13.9756 N   0  0  0  0  0  0  0  0  0  0  0  0
   22.8859  -20.5128  -13.1410 C   0  0  0  0  0  0  0  0  0  0  0  0
   20.5939  -20.4301  -13.5999 O   0  0  0  0  0  0  0  0  0  0  0  0
   20.4150  -21.4715  -12.9626 O   0  0  0  0  0  0  0  0  0  0  0  0
  2  1  1  0
  3  2  1  0
  3  4  1  6
  5  3  1  0
  5  6  2  0
  7  8  1  0
  8 10  1  0
  8  9  2  0
 10 11  1  0
 11 12  1  0
 12 13  1  0
 14 13  1  1
 14 15  1  0
 15  5  1  0
 16 14  1  0
 17 16  2  0
 18 19  1  0
 19 20  2  0
 19 21  1  0
 22 21  1  6
 22 23  1  0
 22 24  1  0
 23 16  1  0
 24 26  1  0
 25 24  2  0
M  END
$$$$
