SRN.pdb
     RDKit          3D

 26 25  0  0  1  0  0  0  0  0999 V2000
   26.1786  -22.6208  -11.5958 O   0  0  0  0  0  0  0  0  0  0  0  0
   26.7045  -21.7154  -10.7027 C   0  0  0  0  0  0  0  0  0  0  0  0
   25.9252  -20.4402  -10.5928 C   0  0  2  0  0  0  0  0  0  0  0  0
   24.7073  -20.7025   -9.8633 N   0  0  0  0  0  0  0  0  0  0  0  0
   25.6340  -19.8058  -11.8804 C   0  0  0  0  0  0  0  0  0  0  0  0
   24.4460  -19.5021  -12.1590 O   0  0  0  0  0  0  0  0  0  0  0  0
   26.3443  -17.2514  -19.0492 N   0  0  0  0  0  0  0  0  0  0  0  0
   27.3265  -16.2646  -18.7716 C   0  0  0  0  0  0  0  0  0  0  0  0
   27.3142  -15.1027  -19.3538 N   0  0  0  0  0  0  0  0  0  0  0  0
   28.3556  -16.5632  -17.8243 N   0  0  0  0  0  0  0  0  0  0  0  0
   28.3959  -17.8294  -17.1433 C   0  0  0  0  0  0  0  0  0  0  0  0
   27.1556  -18.0517  -16.3168 C   0  0  0  0  0  0  0  0  0  0  0  0
   27.5337  -18.6233  -14.9720 C   0  0  0  0  0  0  0  0  0  0  0  0
   26.2813  -18.9150  -14.1430 C   0  0  2  0  0  0  0  0  0  0  0  0
   26.6126  -19.4985  -12.8646 N   0  0  0  0  0  0  0  0  0  0  0  0
   25.4313  -19.8067  -14.9636 C   0  0  0  0  0  0  0  0  0  0  0  0
   25.7269  -21.0315  -15.0341 O   0  0  0  0  0  0  0  0  0  0  0  0
   28.0821  -14.4213  -19.1692 N   0  0  0  0  0  0  0  0  0  0  0  0
   20.4508  -21.8327  -13.8594 C   0  0  0  0  0  0  0  0  0  0  0  0
   21.7683  -21.7274  -14.3914 O   0  0  0  0  0  0  0  0  0  0  0  0
   22.2315  -22.7580  -14.9195 C   0  0  0  0  0  0  0  0  0  0  0  0
   22.5649  -20.4955  -14.3397 C   0  0  2  0  0  0  0  0  0  0  0  0
   23.0504  -20.1395  -15.6987 N   0  0  0  0  0  0  0  0  0  0  0  0
   24.2978  -19.3965  -15.6877 C   0  0  0  0  0  0  0  0  0  0  0  0
   22.0504  -19.2056  -16.3069 O   0  0  0  0  0  0  0  0  0  0  0  0
   21.3517  -19.4227  -17.3006 O   0  0  0  0  0  0  0  0  0  0  0  0
  2  1  1  0
  3  2  1  0
  3  4  1  6
  5  3  1  0
  5  6  2  0
  7  8  1  0
  8 10  1  0
  8  9  2  0
 10 11  1  0
 11 12  1  0
 12 13  1  0
 14 13  1  6
 14 15  1  0
 15  5  1  0
 16 14  1  0
 17 16  2  0
 18 19  1  0
 19 20  2  0
 19 21  1  0
 22 21  1  6
 22 23  1  0
 22 24  1  0
 23 16  1  0
 24 26  1  0
 25 24  2  0
M  END
$$$$
