VTP.pdb
     RDKit          3D

 22 22  0  0  1  0  0  0  0  0999 V2000
    8.0055  -12.3000   27.3862 C   0  0  0  0  0  0  0  0  0  0  0  0
    7.1158  -11.7542   26.2947 C   0  0  2  0  0  0  0  0  0  0  0  0
    6.3847  -10.5311   26.7502 C   0  0  0  0  0  0  0  0  0  0  0  0
    6.1299  -12.7898   25.8395 C   0  0  2  0  0  0  0  0  0  0  0  0
    5.4053  -13.3268   26.9958 N   0  0  0  0  0  0  0  0  0  0  0  0
    6.8073  -13.9539   25.1961 C   0  0  0  0  0  0  0  0  0  0  0  0
    7.0928  -14.9251   25.9349 O   0  0  0  0  0  0  0  0  0  0  0  0
    8.2549  -13.7923   21.2249 C   0  0  0  0  0  0  0  0  0  0  0  0
    7.6726  -15.1102   21.6984 C   0  0  1  0  0  0  0  0  0  0  0  0
    8.2161  -16.1950   21.0555 O   0  0  0  0  0  0  0  0  0  0  0  0
    7.7472  -15.1704   23.1905 C   0  0  2  0  0  0  0  0  0  0  0  0
    7.1400  -14.0319   23.8433 N   0  0  0  0  0  0  0  0  0  0  0  0
    9.1372  -15.3845   23.6628 C   0  0  0  0  0  0  0  0  0  0  0  0
    9.8480  -14.3332   23.8255 O   0  0  0  0  0  0  0  0  0  0  0  0
    9.7558  -16.6011   23.9521 N   0  0  0  0  0  0  0  0  0  0  0  0
    9.1535  -17.9140   23.9034 C   0  0  0  0  0  0  0  0  0  0  0  0
    9.8926  -18.7013   24.9938 C   0  0  0  0  0  0  0  0  0  0  0  0
   11.3191  -18.2284   24.7247 C   0  0  0  0  0  0  0  0  0  0  0  0
   11.1253  -16.7806   24.3841 C   0  0  1  0  0  0  0  0  0  0  0  0
   12.0742  -16.4244   23.2982 C   0  0  0  0  0  0  0  0  0  0  0  0
   11.5995  -16.3897   21.9971 O   0  0  0  0  0  0  0  0  0  0  0  0
   13.2644  -16.1600   23.5169 O   0  0  0  0  0  0  0  0  0  0  0  0
  2  1  1  1
  2  3  1  0
  4  2  1  0
  4  6  1  0
  4  5  1  1
  6  7  2  0
  9  8  1  6
  9 11  1  0
 10  9  1  0
 11 13  1  0
 11 12  1  1
 12  6  1  0
 13 14  2  0
 13 15  1  0
 15 19  1  0
 16 15  1  0
 17 16  1  0
 18 17  1  0
 18 19  1  0
 19 20  1  6
 20 22  2  0
 20 21  1  0
M  END
$$$$
