VTP.pdb
     RDKit          3D

 22 22  0  0  1  0  0  0  0  0999 V2000
   13.0532  -19.1613   22.5340 C   0  0  0  0  0  0  0  0  0  0  0  0
   12.2994  -17.9294   22.9755 C   0  0  2  0  0  0  0  0  0  0  0  0
   11.5820  -18.1648   24.2669 C   0  0  0  0  0  0  0  0  0  0  0  0
   11.3179  -17.4974   21.9259 C   0  0  2  0  0  0  0  0  0  0  0  0
   12.0299  -17.1665   20.6873 N   0  0  0  0  0  0  0  0  0  0  0  0
   10.5863  -16.2601   22.3280 C   0  0  0  0  0  0  0  0  0  0  0  0
   11.2485  -15.1970   22.3725 O   0  0  0  0  0  0  0  0  0  0  0  0
    7.6514  -14.1405   20.9685 C   0  0  0  0  0  0  0  0  0  0  0  0
    7.2714  -14.7659   22.2969 C   0  0  1  0  0  0  0  0  0  0  0  0
    6.4420  -15.8513   22.1575 O   0  0  0  0  0  0  0  0  0  0  0  0
    8.5132  -15.0300   23.0866 C   0  0  2  0  0  0  0  0  0  0  0  0
    9.2304  -16.2087   22.6538 N   0  0  0  0  0  0  0  0  0  0  0  0
    8.2392  -15.0706   24.5440 C   0  0  0  0  0  0  0  0  0  0  0  0
    8.4865  -16.1777   25.1358 O   0  0  0  0  0  0  0  0  0  0  0  0
    7.7455  -14.0384   25.3424 N   0  0  0  0  0  0  0  0  0  0  0  0
    7.4432  -12.6879   24.9258 C   0  0  0  0  0  0  0  0  0  0  0  0
    7.7254  -11.8428   26.1753 C   0  0  0  0  0  0  0  0  0  0  0  0
    7.0967  -12.7424   27.2367 C   0  0  0  0  0  0  0  0  0  0  0  0
    7.4621  -14.1166   26.7594 C   0  0  1  0  0  0  0  0  0  0  0  0
    6.3147  -15.0231   27.0208 C   0  0  0  0  0  0  0  0  0  0  0  0
    6.1101  -15.4654   28.3178 O   0  0  0  0  0  0  0  0  0  0  0  0
    5.5430  -15.3924   26.1252 O   0  0  0  0  0  0  0  0  0  0  0  0
  2  1  1  6
  2  3  1  0
  4  2  1  0
  4  6  1  0
  4  5  1  6
  6  7  2  0
  9  8  1  6
  9 11  1  0
 10  9  1  0
 11 13  1  0
 11 12  1  6
 12  6  1  0
 13 14  2  0
 13 15  1  0
 15 19  1  0
 16 15  1  0
 17 16  1  0
 18 17  1  0
 18 19  1  0
 19 20  1  6
 20 22  2  0
 20 21  1  0
M  END
$$$$
