VTP.pdb
     RDKit          3D

 22 22  0  0  1  0  0  0  0  0999 V2000
    7.2534  -12.7890   19.7701 C   0  0  0  0  0  0  0  0  0  0  0  0
    8.5959  -13.4807   19.7600 C   0  0  2  0  0  0  0  0  0  0  0  0
    9.2787  -13.3229   18.4384 C   0  0  0  0  0  0  0  0  0  0  0  0
    8.4490  -14.9394   20.0799 C   0  0  2  0  0  0  0  0  0  0  0  0
    7.6523  -15.5976   19.0396 N   0  0  0  0  0  0  0  0  0  0  0  0
    7.7164  -15.1537   21.3626 C   0  0  0  0  0  0  0  0  0  0  0  0
    6.4726  -15.2897   21.2911 O   0  0  0  0  0  0  0  0  0  0  0  0
    6.1767  -17.2215   23.1233 C   0  0  0  0  0  0  0  0  0  0  0  0
    7.2202  -16.8035   24.1413 C   0  0  1  0  0  0  0  0  0  0  0  0
    8.2670  -17.6880   24.2258 O   0  0  0  0  0  0  0  0  0  0  0  0
    7.6224  -15.3879   23.8770 C   0  0  2  0  0  0  0  0  0  0  0  0
    8.3168  -15.2121   22.6209 N   0  0  0  0  0  0  0  0  0  0  0  0
    8.3975  -14.8171   25.0059 C   0  0  0  0  0  0  0  0  0  0  0  0
    9.6339  -15.1412   25.0647 O   0  0  0  0  0  0  0  0  0  0  0  0
    7.9322  -13.9657   26.0083 N   0  0  0  0  0  0  0  0  0  0  0  0
    6.5789  -13.4897   26.1835 C   0  0  0  0  0  0  0  0  0  0  0  0
    6.7531  -12.0995   26.8099 C   0  0  0  0  0  0  0  0  0  0  0  0
    7.8574  -12.4122   27.8168 C   0  0  0  0  0  0  0  0  0  0  0  0
    8.7284  -13.3708   27.0603 C   0  0  1  0  0  0  0  0  0  0  0  0
    9.2151  -14.4073   28.0066 C   0  0  0  0  0  0  0  0  0  0  0  0
   10.2117  -14.0601   28.9043 O   0  0  0  0  0  0  0  0  0  0  0  0
    8.7629  -15.5603   28.0183 O   0  0  0  0  0  0  0  0  0  0  0  0
  2  1  1  6
  2  3  1  0
  4  2  1  0
  4  6  1  0
  4  5  1  6
  6  7  2  0
  9  8  1  6
  9 11  1  0
 10  9  1  0
 11 13  1  0
 11 12  1  6
 12  6  1  0
 13 14  2  0
 13 15  1  0
 15 19  1  0
 16 15  1  0
 17 16  1  0
 18 17  1  0
 18 19  1  0
 19 20  1  1
 20 22  2  0
 20 21  1  0
M  END
$$$$
