VTP.pdb
     RDKit          3D

 22 22  0  0  1  0  0  0  0  0999 V2000
    6.6226  -13.9924   20.0657 C   0  0  0  0  0  0  0  0  0  0  0  0
    7.8904  -13.1725   20.0283 C   0  0  2  0  0  0  0  0  0  0  0  0
    8.3852  -13.0003   18.6271 C   0  0  0  0  0  0  0  0  0  0  0  0
    8.9622  -13.8053   20.8665 C   0  0  2  0  0  0  0  0  0  0  0  0
    9.3240  -15.1112   20.3061 N   0  0  0  0  0  0  0  0  0  0  0  0
    8.4936  -14.0661   22.2595 C   0  0  0  0  0  0  0  0  0  0  0  0
    7.9440  -13.1145   22.8620 O   0  0  0  0  0  0  0  0  0  0  0  0
    6.1191  -16.8289   23.6622 C   0  0  0  0  0  0  0  0  0  0  0  0
    7.4580  -16.8965   24.3714 C   0  0  1  0  0  0  0  0  0  0  0  0
    8.2207  -17.9654   23.9700 O   0  0  0  0  0  0  0  0  0  0  0  0
    8.1389  -15.5701   24.2590 C   0  0  2  0  0  0  0  0  0  0  0  0
    8.6252  -15.2840   22.9276 N   0  0  0  0  0  0  0  0  0  0  0  0
    9.2138  -15.4170   25.2700 C   0  0  0  0  0  0  0  0  0  0  0  0
   10.3314  -15.9770   24.9971 O   0  0  0  0  0  0  0  0  0  0  0  0
    9.1452  -14.7298   26.4822 N   0  0  0  0  0  0  0  0  0  0  0  0
    8.0960  -13.8344   26.9139 C   0  0  0  0  0  0  0  0  0  0  0  0
    8.8207  -12.8174   27.8060 C   0  0  0  0  0  0  0  0  0  0  0  0
    9.7298  -13.7656   28.5840 C   0  0  0  0  0  0  0  0  0  0  0  0
   10.1330  -14.7634   27.5393 C   0  0  1  0  0  0  0  0  0  0  0  0
   10.1868  -16.1067   28.1714 C   0  0  0  0  0  0  0  0  0  0  0  0
   11.2396  -16.3874   29.0272 O   0  0  0  0  0  0  0  0  0  0  0  0
    9.3291  -16.9748   27.9597 O   0  0  0  0  0  0  0  0  0  0  0  0
  2  1  1  6
  2  3  1  0
  4  2  1  0
  4  6  1  0
  4  5  1  6
  6  7  2  0
  9  8  1  6
  9 11  1  0
 10  9  1  0
 11 13  1  0
 11 12  1  6
 12  6  1  0
 13 14  2  0
 13 15  1  0
 15 19  1  0
 16 15  1  0
 17 16  1  0
 18 17  1  0
 18 19  1  0
 19 20  1  1
 20 22  2  0
 20 21  1  0
M  END
$$$$
