VTP.pdb
     RDKit          3D

 22 22  0  0  1  0  0  0  0  0999 V2000
    7.8133  -12.6930   19.5355 C   0  0  0  0  0  0  0  0  0  0  0  0
    9.1050  -13.4585   19.6989 C   0  0  2  0  0  0  0  0  0  0  0  0
   10.0045  -13.2648   18.5194 C   0  0  0  0  0  0  0  0  0  0  0  0
    8.8389  -14.9222   19.8943 C   0  0  2  0  0  0  0  0  0  0  0  0
    8.1670  -15.4667   18.7101 N   0  0  0  0  0  0  0  0  0  0  0  0
    7.9197  -15.1690   21.0441 C   0  0  0  0  0  0  0  0  0  0  0  0
    6.8120  -15.6943   20.7839 O   0  0  0  0  0  0  0  0  0  0  0  0
    8.1261  -17.4921   23.5127 C   0  0  0  0  0  0  0  0  0  0  0  0
    6.9126  -16.5833   23.5529 C   0  0  1  0  0  0  0  0  0  0  0  0
    6.0587  -16.8794   24.5865 O   0  0  0  0  0  0  0  0  0  0  0  0
    7.3661  -15.1592   23.5098 C   0  0  2  0  0  0  0  0  0  0  0  0
    8.2079  -14.8576   22.3734 N   0  0  0  0  0  0  0  0  0  0  0  0
    8.0101  -14.7490   24.7817 C   0  0  0  0  0  0  0  0  0  0  0  0
    9.1851  -15.2083   24.9950 O   0  0  0  0  0  0  0  0  0  0  0  0
    7.4814  -13.9177   25.7696 N   0  0  0  0  0  0  0  0  0  0  0  0
    6.1568  -13.3406   25.8004 C   0  0  0  0  0  0  0  0  0  0  0  0
    6.3509  -12.0062   26.5333 C   0  0  0  0  0  0  0  0  0  0  0  0
    7.2846  -12.4648   27.6509 C   0  0  0  0  0  0  0  0  0  0  0  0
    8.1733  -13.4500   26.9515 C   0  0  1  0  0  0  0  0  0  0  0  0
    8.4500  -14.5737   27.8827 C   0  0  0  0  0  0  0  0  0  0  0  0
    9.3286  -14.3557   28.9316 O   0  0  0  0  0  0  0  0  0  0  0  0
    7.9254  -15.6882   27.7526 O   0  0  0  0  0  0  0  0  0  0  0  0
  2  1  1  6
  2  3  1  0
  4  2  1  0
  4  6  1  0
  4  5  1  6
  6  7  2  0
  9  8  1  1
  9 11  1  0
 10  9  1  0
 11 13  1  0
 11 12  1  6
 12  6  1  0
 13 14  2  0
 13 15  1  0
 15 19  1  0
 16 15  1  0
 17 16  1  0
 18 17  1  0
 18 19  1  0
 19 20  1  1
 20 22  2  0
 20 21  1  0
M  END
$$$$
