VTP.pdb
     RDKit          3D

 22 22  0  0  1  0  0  0  0  0999 V2000
    7.4393  -12.7296   19.5437 C   0  0  0  0  0  0  0  0  0  0  0  0
    8.7707  -13.4423   19.5638 C   0  0  2  0  0  0  0  0  0  0  0  0
    9.4032  -13.4506   18.2082 C   0  0  0  0  0  0  0  0  0  0  0  0
    8.6163  -14.8514   20.0561 C   0  0  2  0  0  0  0  0  0  0  0  0
    7.8973  -15.6495   19.0579 N   0  0  0  0  0  0  0  0  0  0  0  0
    7.8013  -14.9152   21.3050 C   0  0  0  0  0  0  0  0  0  0  0  0
    6.5797  -14.6558   21.2005 O   0  0  0  0  0  0  0  0  0  0  0  0
    6.0833  -17.1924   23.0572 C   0  0  0  0  0  0  0  0  0  0  0  0
    7.0932  -16.7397   24.0941 C   0  0  1  0  0  0  0  0  0  0  0  0
    8.1238  -17.6317   24.2598 O   0  0  0  0  0  0  0  0  0  0  0  0
    7.5245  -15.3429   23.7801 C   0  0  2  0  0  0  0  0  0  0  0  0
    8.3029  -15.2405   22.5658 N   0  0  0  0  0  0  0  0  0  0  0  0
    8.2272  -14.7143   24.9255 C   0  0  0  0  0  0  0  0  0  0  0  0
    9.4890  -14.9146   24.9944 O   0  0  0  0  0  0  0  0  0  0  0  0
    7.6691  -13.9280   25.9338 N   0  0  0  0  0  0  0  0  0  0  0  0
    6.2870  -13.5224   26.0531 C   0  0  0  0  0  0  0  0  0  0  0  0
    6.3609  -12.1533   26.7426 C   0  0  0  0  0  0  0  0  0  0  0  0
    7.4241  -12.4572   27.7954 C   0  0  0  0  0  0  0  0  0  0  0  0
    8.3789  -13.3421   27.0505 C   0  0  1  0  0  0  0  0  0  0  0  0
    8.8641  -14.3941   27.9804 C   0  0  0  0  0  0  0  0  0  0  0  0
    9.7878  -14.0379   28.9497 O   0  0  0  0  0  0  0  0  0  0  0  0
    8.4731  -15.5676   27.9172 O   0  0  0  0  0  0  0  0  0  0  0  0
  2  1  1  6
  2  3  1  0
  4  2  1  0
  4  6  1  0
  4  5  1  6
  6  7  2  0
  9  8  1  6
  9 11  1  0
 10  9  1  0
 11 13  1  0
 11 12  1  6
 12  6  1  0
 13 14  2  0
 13 15  1  0
 15 19  1  0
 16 15  1  0
 17 16  1  0
 18 17  1  0
 18 19  1  0
 19 20  1  1
 20 22  2  0
 20 21  1  0
M  END
$$$$
