VTP.pdb
     RDKit          3D

 22 22  0  0  1  0  0  0  0  0999 V2000
   12.0030  -20.1627   20.3393 C   0  0  0  0  0  0  0  0  0  0  0  0
   11.4292  -19.0097   21.1280 C   0  0  2  0  0  0  0  0  0  0  0  0
   10.4605  -19.4877   22.1628 C   0  0  0  0  0  0  0  0  0  0  0  0
   10.7517  -18.0249   20.2209 C   0  0  2  0  0  0  0  0  0  0  0  0
   11.7197  -17.4906   19.2576 N   0  0  0  0  0  0  0  0  0  0  0  0
   10.2238  -16.8499   20.9751 C   0  0  0  0  0  0  0  0  0  0  0  0
   11.0673  -16.0628   21.4645 O   0  0  0  0  0  0  0  0  0  0  0  0
    7.6064  -14.0083   20.0555 C   0  0  0  0  0  0  0  0  0  0  0  0
    7.1480  -14.8194   21.2522 C   0  0  1  0  0  0  0  0  0  0  0  0
    6.1370  -15.6967   20.9461 O   0  0  0  0  0  0  0  0  0  0  0  0
    8.3388  -15.4463   21.9037 C   0  0  2  0  0  0  0  0  0  0  0  0
    8.8701  -16.5729   21.1691 N   0  0  0  0  0  0  0  0  0  0  0  0
    8.0665  -15.8045   23.3174 C   0  0  0  0  0  0  0  0  0  0  0  0
    8.1007  -17.0515   23.6019 O   0  0  0  0  0  0  0  0  0  0  0  0
    7.7803  -14.9365   24.3714 N   0  0  0  0  0  0  0  0  0  0  0  0
    7.7402  -13.4927   24.3200 C   0  0  0  0  0  0  0  0  0  0  0  0
    8.1809  -13.0596   25.7248 C   0  0  0  0  0  0  0  0  0  0  0  0
    7.3943  -14.0678   26.5590 C   0  0  0  0  0  0  0  0  0  0  0  0
    7.4900  -15.3185   25.7368 C   0  0  1  0  0  0  0  0  0  0  0  0
    6.1913  -16.0347   25.8216 C   0  0  0  0  0  0  0  0  0  0  0  0
    5.8977  -16.7254   26.9862 O   0  0  0  0  0  0  0  0  0  0  0  0
    5.3709  -16.0339   24.8936 O   0  0  0  0  0  0  0  0  0  0  0  0
  2  1  1  6
  2  3  1  0
  4  2  1  0
  4  6  1  0
  4  5  1  6
  6  7  2  0
  9  8  1  6
  9 11  1  0
 10  9  1  0
 11 13  1  0
 11 12  1  6
 12  6  1  0
 13 14  2  0
 13 15  1  0
 15 19  1  0
 16 15  1  0
 17 16  1  0
 18 17  1  0
 18 19  1  0
 19 20  1  6
 20 22  2  0
 20 21  1  0
M  END
$$$$
