VTP.pdb
     RDKit          3D

 22 22  0  0  1  0  0  0  0  0999 V2000
    7.8773  -12.5298   27.2607 C   0  0  0  0  0  0  0  0  0  0  0  0
    7.2224  -11.8942   26.0574 C   0  0  2  0  0  0  0  0  0  0  0  0
    6.6401  -10.5589   26.3974 C   0  0  0  0  0  0  0  0  0  0  0  0
    6.1506  -12.7835   25.4989 C   0  0  2  0  0  0  0  0  0  0  0  0
    5.1703  -13.0953   26.5440 N   0  0  0  0  0  0  0  0  0  0  0  0
    6.7010  -14.0933   25.0412 C   0  0  0  0  0  0  0  0  0  0  0  0
    6.5260  -15.0785   25.7957 O   0  0  0  0  0  0  0  0  0  0  0  0
    6.6264  -15.3817   21.2788 C   0  0  0  0  0  0  0  0  0  0  0  0
    7.9961  -15.6380   21.8774 C   0  0  1  0  0  0  0  0  0  0  0  0
    8.9758  -14.8511   21.3239 O   0  0  0  0  0  0  0  0  0  0  0  0
    7.9019  -15.5570   23.3674 C   0  0  2  0  0  0  0  0  0  0  0  0
    7.3892  -14.2916   23.8436 N   0  0  0  0  0  0  0  0  0  0  0  0
    9.1912  -15.8956   24.0186 C   0  0  0  0  0  0  0  0  0  0  0  0
   10.0634  -14.9607   24.0673 O   0  0  0  0  0  0  0  0  0  0  0  0
    9.5592  -17.1160   24.5858 N   0  0  0  0  0  0  0  0  0  0  0  0
    8.7534  -18.3129   24.6676 C   0  0  0  0  0  0  0  0  0  0  0  0
    9.2218  -18.9871   25.9643 C   0  0  0  0  0  0  0  0  0  0  0  0
   10.7287  -18.7855   25.8244 C   0  0  0  0  0  0  0  0  0  0  0  0
   10.8214  -17.4120   25.2290 C   0  0  1  0  0  0  0  0  0  0  0  0
   11.9328  -17.4035   24.2434 C   0  0  0  0  0  0  0  0  0  0  0  0
   13.2296  -17.5259   24.7156 O   0  0  0  0  0  0  0  0  0  0  0  0
   11.7389  -17.2916   23.0252 O   0  0  0  0  0  0  0  0  0  0  0  0
  2  1  1  1
  2  3  1  0
  4  2  1  0
  4  6  1  0
  4  5  1  1
  6  7  2  0
  9  8  1  6
  9 11  1  0
 10  9  1  0
 11 13  1  0
 11 12  1  6
 12  6  1  0
 13 14  2  0
 13 15  1  0
 15 19  1  0
 16 15  1  0
 17 16  1  0
 18 17  1  0
 18 19  1  0
 19 20  1  6
 20 22  2  0
 20 21  1  0
M  END
$$$$
