VTP.pdb
     RDKit          3D

 22 22  0  0  1  0  0  0  0  0999 V2000
    7.4570  -12.6300   19.7764 C   0  0  0  0  0  0  0  0  0  0  0  0
    8.6795  -13.5152   19.7251 C   0  0  2  0  0  0  0  0  0  0  0  0
    9.3945  -13.3794   18.4181 C   0  0  0  0  0  0  0  0  0  0  0  0
    8.3100  -14.9521   19.9499 C   0  0  2  0  0  0  0  0  0  0  0  0
    7.4538  -15.4211   18.8556 N   0  0  0  0  0  0  0  0  0  0  0  0
    7.5185  -15.1305   21.2028 C   0  0  0  0  0  0  0  0  0  0  0  0
    6.3412  -15.5414   21.0779 O   0  0  0  0  0  0  0  0  0  0  0  0
    8.1759  -17.4787   23.5219 C   0  0  0  0  0  0  0  0  0  0  0  0
    6.9558  -16.6388   23.8476 C   0  0  1  0  0  0  0  0  0  0  0  0
    6.3764  -16.9817   25.0443 O   0  0  0  0  0  0  0  0  0  0  0  0
    7.3096  -15.1917   23.7204 C   0  0  2  0  0  0  0  0  0  0  0  0
    7.9964  -14.8735   22.4883 N   0  0  0  0  0  0  0  0  0  0  0  0
    8.0660  -14.7053   24.9003 C   0  0  0  0  0  0  0  0  0  0  0  0
    9.2906  -15.0679   24.9763 O   0  0  0  0  0  0  0  0  0  0  0  0
    7.5945  -13.8958   25.9341 N   0  0  0  0  0  0  0  0  0  0  0  0
    6.2528  -13.3820   26.0909 C   0  0  0  0  0  0  0  0  0  0  0  0
    6.4519  -12.0367   26.8022 C   0  0  0  0  0  0  0  0  0  0  0  0
    7.5084  -12.4456   27.8259 C   0  0  0  0  0  0  0  0  0  0  0  0
    8.3725  -13.3905   27.0449 C   0  0  1  0  0  0  0  0  0  0  0  0
    8.7897  -14.4958   27.9454 C   0  0  0  0  0  0  0  0  0  0  0  0
    9.7465  -14.2296   28.9114 O   0  0  0  0  0  0  0  0  0  0  0  0
    8.3139  -15.6363   27.8610 O   0  0  0  0  0  0  0  0  0  0  0  0
  2  1  1  6
  2  3  1  0
  4  2  1  0
  4  6  1  0
  4  5  1  6
  6  7  2  0
  9  8  1  1
  9 11  1  0
 10  9  1  0
 11 13  1  0
 11 12  1  6
 12  6  1  0
 13 14  2  0
 13 15  1  0
 15 19  1  0
 16 15  1  0
 17 16  1  0
 18 17  1  0
 18 19  1  0
 19 20  1  1
 20 22  2  0
 20 21  1  0
M  END
$$$$
