SAQ.pdb
     RDKit          3D

 21 20  0  0  1  0  0  0  0  0999 V2000
   13.1544  -17.6820   19.9877 O   0  0  0  0  0  0  0  0  0  0  0  0
   12.3425  -16.8836   19.2102 C   0  0  0  0  0  0  0  0  0  0  0  0
   10.9429  -17.4024   19.2424 C   0  0  2  0  0  0  0  0  0  0  0  0
   10.0560  -16.6832   18.3560 N   0  0  0  0  0  0  0  0  0  0  0  0
   10.3916  -17.3719   20.6498 C   0  0  0  0  0  0  0  0  0  0  0  0
    9.8758  -16.3167   21.0920 O   0  0  0  0  0  0  0  0  0  0  0  0
    9.5185  -20.0547   23.1659 C   0  0  0  0  0  0  0  0  0  0  0  0
    9.7914  -18.6371   22.7429 C   0  0  2  0  0  0  0  0  0  0  0  0
   10.4479  -18.5170   21.4795 N   0  0  0  0  0  0  0  0  0  0  0  0
   10.5514  -17.8712   23.7979 C   0  0  0  0  0  0  0  0  0  0  0  0
   11.7709  -17.6070   23.7188 O   0  0  0  0  0  0  0  0  0  0  0  0
    9.7523  -13.1088   29.5069 N   0  0  0  0  0  0  0  0  0  0  0  0
    9.2651  -13.8392   28.3597 C   0  0  0  0  0  0  0  0  0  0  0  0
    8.1009  -13.5892   28.0190 O   0  0  0  0  0  0  0  0  0  0  0  0
   10.1211  -14.7864   27.6923 C   0  0  0  0  0  0  0  0  0  0  0  0
    9.6163  -15.6101   26.5829 C   0  0  0  0  0  0  0  0  0  0  0  0
   10.4871  -16.6629   26.0138 C   0  0  2  0  0  0  0  0  0  0  0  0
    9.8615  -17.4151   24.9551 N   0  0  0  0  0  0  0  0  0  0  0  0
   11.2100  -17.5351   26.9338 C   0  0  0  0  0  0  0  0  0  0  0  0
   10.7013  -18.6659   27.2630 O   0  0  0  0  0  0  0  0  0  0  0  0
   12.4400  -17.2632   27.5161 O   0  0  0  0  0  0  0  0  0  0  0  0
  1  2  1  0
  3  4  1  6
  3  2  1  0
  5  3  1  0
  6  5  2  0
  8  7  1  1
  8  9  1  0
  8 10  1  0
  9  5  1  0
 10 11  2  0
 12 13  1  0
 13 14  2  0
 15 13  1  0
 15 16  1  0
 17 16  1  1
 18 10  1  0
 18 17  1  0
 19 21  1  0
 19 17  1  0
 20 19  2  0
M  END
$$$$
