SAQ.pdb
     RDKit          3D

 21 20  0  0  1  0  0  0  0  0999 V2000
    3.2021  -24.4618   17.4298 O   0  0  0  0  0  0  0  0  0  0  0  0
    3.2721  -23.2203   18.0257 C   0  0  0  0  0  0  0  0  0  0  0  0
    2.2555  -22.3104   17.4195 C   0  0  2  0  0  0  0  0  0  0  0  0
    2.5588  -21.9615   16.0499 N   0  0  0  0  0  0  0  0  0  0  0  0
    2.1019  -21.0524   18.2438 C   0  0  0  0  0  0  0  0  0  0  0  0
    2.7969  -20.0433   17.9722 O   0  0  0  0  0  0  0  0  0  0  0  0
   -0.3647  -19.7704   20.7946 C   0  0  0  0  0  0  0  0  0  0  0  0
    1.0002  -19.8591   20.1684 C   0  0  2  0  0  0  0  0  0  0  0  0
    1.1846  -20.9938   19.3198 N   0  0  0  0  0  0  0  0  0  0  0  0
    2.0985  -19.7991   21.2014 C   0  0  0  0  0  0  0  0  0  0  0  0
    2.2043  -18.8855   22.0483 O   0  0  0  0  0  0  0  0  0  0  0  0
    3.8803  -24.4790   24.6622 N   0  0  0  0  0  0  0  0  0  0  0  0
    2.7639  -23.5674   24.5648 C   0  0  0  0  0  0  0  0  0  0  0  0
    1.7469  -23.8955   25.1908 O   0  0  0  0  0  0  0  0  0  0  0  0
    2.8804  -22.3677   23.7758 C   0  0  0  0  0  0  0  0  0  0  0  0
    4.1305  -22.0456   23.0706 C   0  0  0  0  0  0  0  0  0  0  0  0
    4.1685  -20.8684   22.1742 C   0  0  2  0  0  0  0  0  0  0  0  0
    3.0788  -20.8294   21.2313 N   0  0  0  0  0  0  0  0  0  0  0  0
    5.4364  -20.5224   21.5398 C   0  0  0  0  0  0  0  0  0  0  0  0
    6.4334  -20.1758   22.2689 O   0  0  0  0  0  0  0  0  0  0  0  0
    5.6921  -20.5277   20.1757 O   0  0  0  0  0  0  0  0  0  0  0  0
  1  2  1  0
  3  4  1  6
  3  2  1  0
  5  3  1  0
  6  5  2  0
  8  7  1  1
  8  9  1  0
  8 10  1  0
  9  5  1  0
 10 11  2  0
 12 13  1  0
 13 14  2  0
 15 13  1  0
 15 16  1  0
 17 16  1  6
 18 10  1  0
 18 17  1  0
 19 21  1  0
 19 17  1  0
 20 19  2  0
M  END
$$$$
