SAQ.pdb
     RDKit          3D

 21 20  0  0  1  0  0  0  0  0999 V2000
   10.3324  -12.4381   19.7662 O   0  0  0  0  0  0  0  0  0  0  0  0
   10.1522  -13.5240   18.9358 C   0  0  0  0  0  0  0  0  0  0  0  0
    8.7163  -13.9328   18.9427 C   0  0  2  0  0  0  0  0  0  0  0  0
    7.8176  -12.8349   18.6661 N   0  0  0  0  0  0  0  0  0  0  0  0
    8.3472  -14.5736   20.2614 C   0  0  0  0  0  0  0  0  0  0  0  0
    7.6368  -13.9426   21.0812 O   0  0  0  0  0  0  0  0  0  0  0  0
    9.0975  -17.9256   21.9226 C   0  0  0  0  0  0  0  0  0  0  0  0
    8.5738  -16.5175   21.8463 C   0  0  2  0  0  0  0  0  0  0  0  0
    8.7910  -15.8772   20.5875 N   0  0  0  0  0  0  0  0  0  0  0  0
    9.1071  -15.6570   22.9654 C   0  0  0  0  0  0  0  0  0  0  0  0
    9.5143  -14.4858   22.8053 O   0  0  0  0  0  0  0  0  0  0  0  0
    7.1252  -11.0113   26.3711 N   0  0  0  0  0  0  0  0  0  0  0  0
    6.8066  -12.4131   26.5136 C   0  0  0  0  0  0  0  0  0  0  0  0
    5.6029  -12.6809   26.6285 O   0  0  0  0  0  0  0  0  0  0  0  0
    7.8610  -13.3948   26.5160 C   0  0  0  0  0  0  0  0  0  0  0  0
    8.0384  -14.3157   25.3827 C   0  0  0  0  0  0  0  0  0  0  0  0
    9.0613  -15.3815   25.4746 C   0  0  2  0  0  0  0  0  0  0  0  0
    9.1584  -16.1882   24.2839 N   0  0  0  0  0  0  0  0  0  0  0  0
    9.0987  -16.2026   26.6806 C   0  0  0  0  0  0  0  0  0  0  0  0
    9.5986  -15.7189   27.7585 O   0  0  0  0  0  0  0  0  0  0  0  0
    8.6326  -17.5050   26.7933 O   0  0  0  0  0  0  0  0  0  0  0  0
  1  2  1  0
  3  4  1  1
  3  2  1  0
  5  3  1  0
  6  5  2  0
  8  7  1  6
  8  9  1  0
  8 10  1  0
  9  5  1  0
 10 11  2  0
 12 13  1  0
 13 14  2  0
 15 13  1  0
 15 16  1  0
 17 16  1  6
 18 10  1  0
 18 17  1  0
 19 21  1  0
 19 17  1  0
 20 19  2  0
M  END
$$$$
