SAQ.pdb
     RDKit          3D

 21 20  0  0  1  0  0  0  0  0999 V2000
    3.3233  -22.8896   18.2505 O   0  0  0  0  0  0  0  0  0  0  0  0
    3.4499  -22.3583   19.5165 C   0  0  0  0  0  0  0  0  0  0  0  0
    4.7787  -22.7267   20.0888 C   0  0  2  0  0  0  0  0  0  0  0  0
    5.1084  -24.1204   19.8930 N   0  0  0  0  0  0  0  0  0  0  0  0
    4.8406  -22.3904   21.5615 C   0  0  0  0  0  0  0  0  0  0  0  0
    5.2605  -21.2648   21.9243 O   0  0  0  0  0  0  0  0  0  0  0  0
    3.5748  -23.9638   24.7615 C   0  0  0  0  0  0  0  0  0  0  0  0
    4.5169  -23.1159   23.9512 C   0  0  2  0  0  0  0  0  0  0  0  0
    4.4315  -23.3268   22.5406 N   0  0  0  0  0  0  0  0  0  0  0  0
    5.9460  -23.2637   24.4128 C   0  0  0  0  0  0  0  0  0  0  0  0
    6.7329  -24.1262   23.9657 O   0  0  0  0  0  0  0  0  0  0  0  0
   10.4459  -19.3719   24.2264 N   0  0  0  0  0  0  0  0  0  0  0  0
    9.4335  -19.9988   23.4084 C   0  0  0  0  0  0  0  0  0  0  0  0
    9.3724  -19.6064   22.2354 O   0  0  0  0  0  0  0  0  0  0  0  0
    8.5764  -21.0101   23.9724 C   0  0  0  0  0  0  0  0  0  0  0  0
    8.6707  -21.3733   25.3947 C   0  0  0  0  0  0  0  0  0  0  0  0
    7.7920  -22.4396   25.9252 C   0  0  2  0  0  0  0  0  0  0  0  0
    6.4463  -22.3831   25.4114 N   0  0  0  0  0  0  0  0  0  0  0  0
    7.8050  -22.6961   27.3618 C   0  0  0  0  0  0  0  0  0  0  0  0
    8.9130  -22.9801   27.9425 O   0  0  0  0  0  0  0  0  0  0  0  0
    6.7024  -22.6648   28.2041 O   0  0  0  0  0  0  0  0  0  0  0  0
  1  2  1  0
  3  4  1  1
  3  2  1  0
  5  3  1  0
  6  5  2  0
  8  7  1  1
  8  9  1  0
  8 10  1  0
  9  5  1  0
 10 11  2  0
 12 13  1  0
 13 14  2  0
 15 13  1  0
 15 16  1  0
 17 16  1  1
 18 10  1  0
 18 17  1  0
 19 21  1  0
 19 17  1  0
 20 19  2  0
M  END
$$$$
