SAQ.pdb
     RDKit          3D

 21 20  0  0  1  0  0  0  0  0999 V2000
    9.0796  -19.0368   17.8085 O   0  0  0  0  0  0  0  0  0  0  0  0
    9.4176  -17.8454   18.4146 C   0  0  0  0  0  0  0  0  0  0  0  0
    8.9300  -16.7016   17.5882 C   0  0  2  0  0  0  0  0  0  0  0  0
    9.6459  -16.5642   16.3400 N   0  0  0  0  0  0  0  0  0  0  0  0
    9.0071  -15.4070   18.3651 C   0  0  0  0  0  0  0  0  0  0  0  0
   10.0053  -14.6588   18.2277 O   0  0  0  0  0  0  0  0  0  0  0  0
    6.5138  -13.1960   20.0305 C   0  0  0  0  0  0  0  0  0  0  0  0
    7.9015  -13.7669   19.9238 C   0  0  2  0  0  0  0  0  0  0  0  0
    7.9693  -15.0237   19.2476 N   0  0  0  0  0  0  0  0  0  0  0  0
    8.5751  -13.8649   21.2706 C   0  0  0  0  0  0  0  0  0  0  0  0
    8.4518  -13.0064   22.1712 O   0  0  0  0  0  0  0  0  0  0  0  0
    6.5227  -15.4043   25.8435 N   0  0  0  0  0  0  0  0  0  0  0  0
    7.1504  -16.6407   25.4379 C   0  0  0  0  0  0  0  0  0  0  0  0
    6.7407  -17.6621   26.0060 O   0  0  0  0  0  0  0  0  0  0  0  0
    8.1823  -16.6287   24.4328 C   0  0  0  0  0  0  0  0  0  0  0  0
    8.6523  -15.3636   23.8474 C   0  0  0  0  0  0  0  0  0  0  0  0
    9.7765  -15.3895   22.8850 C   0  0  2  0  0  0  0  0  0  0  0  0
    9.4007  -14.9883   21.5524 N   0  0  0  0  0  0  0  0  0  0  0  0
   10.6434  -16.5634   22.8651 C   0  0  0  0  0  0  0  0  0  0  0  0
   10.6595  -17.3188   21.8284 O   0  0  0  0  0  0  0  0  0  0  0  0
   11.4881  -16.9688   23.8889 O   0  0  0  0  0  0  0  0  0  0  0  0
  1  2  1  0
  3  4  1  6
  3  2  1  0
  5  3  1  0
  6  5  2  0
  8  7  1  1
  8  9  1  0
  8 10  1  0
  9  5  1  0
 10 11  2  0
 12 13  1  0
 13 14  2  0
 15 13  1  0
 15 16  1  0
 17 16  1  1
 18 10  1  0
 18 17  1  0
 19 21  1  0
 19 17  1  0
 20 19  2  0
M  END
$$$$
