SAQ.pdb
     RDKit          3D

 21 20  0  0  1  0  0  0  0  0999 V2000
    8.6387  -20.9830   22.2219 O   0  0  0  0  0  0  0  0  0  0  0  0
    8.9102  -20.0157   21.2775 C   0  0  0  0  0  0  0  0  0  0  0  0
   10.3694  -20.0132   20.9616 C   0  0  2  0  0  0  0  0  0  0  0  0
   10.7949  -21.2033   20.2602 N   0  0  0  0  0  0  0  0  0  0  0  0
   11.1905  -19.8419   22.2194 C   0  0  0  0  0  0  0  0  0  0  0  0
   11.7220  -20.8445   22.7553 O   0  0  0  0  0  0  0  0  0  0  0  0
   12.2907  -16.8673   24.3338 C   0  0  0  0  0  0  0  0  0  0  0  0
   12.0762  -18.3233   24.0225 C   0  0  2  0  0  0  0  0  0  0  0  0
   11.3701  -18.5658   22.8043 N   0  0  0  0  0  0  0  0  0  0  0  0
   11.4080  -19.0505   25.1636 C   0  0  0  0  0  0  0  0  0  0  0  0
   10.2263  -19.4572   25.1289 O   0  0  0  0  0  0  0  0  0  0  0  0
    9.3855  -24.2970   28.9272 N   0  0  0  0  0  0  0  0  0  0  0  0
    9.7290  -23.3722   27.8718 C   0  0  0  0  0  0  0  0  0  0  0  0
    9.4059  -23.7195   26.7277 O   0  0  0  0  0  0  0  0  0  0  0  0
   10.4045  -22.1392   28.1861 C   0  0  0  0  0  0  0  0  0  0  0  0
   10.9107  -21.2618   27.1194 C   0  0  0  0  0  0  0  0  0  0  0  0
   11.6163  -20.0140   27.4879 C   0  0  2  0  0  0  0  0  0  0  0  0
   12.1455  -19.2977   26.3544 N   0  0  0  0  0  0  0  0  0  0  0  0
   12.5762  -20.0604   28.5862 C   0  0  0  0  0  0  0  0  0  0  0  0
   12.1679  -20.3374   29.7704 O   0  0  0  0  0  0  0  0  0  0  0  0
   13.9406  -19.8276   28.4849 O   0  0  0  0  0  0  0  0  0  0  0  0
  1  2  1  0
  3  4  1  1
  3  2  1  0
  5  3  1  0
  6  5  2  0
  8  7  1  1
  8  9  1  0
  8 10  1  0
  9  5  1  0
 10 11  2  0
 12 13  1  0
 13 14  2  0
 15 13  1  0
 15 16  1  0
 17 16  1  6
 18 10  1  0
 18 17  1  0
 19 21  1  0
 19 17  1  0
 20 19  2  0
M  END
$$$$
