SAQ.pdb
     RDKit          3D

 21 20  0  0  1  0  0  0  0  0999 V2000
    1.5487  -19.2362   21.3029 O   0  0  0  0  0  0  0  0  0  0  0  0
    2.8023  -19.1034   21.8614 C   0  0  0  0  0  0  0  0  0  0  0  0
    3.7904  -18.7357   20.8043 C   0  0  2  0  0  0  0  0  0  0  0  0
    4.0756  -19.8249   19.8978 N   0  0  0  0  0  0  0  0  0  0  0  0
    5.0768  -18.2369   21.4224 C   0  0  0  0  0  0  0  0  0  0  0  0
    5.9223  -19.0614   21.8469 O   0  0  0  0  0  0  0  0  0  0  0  0
    6.5306  -14.7914   22.1791 C   0  0  0  0  0  0  0  0  0  0  0  0
    6.4266  -16.2891   22.2745 C   0  0  2  0  0  0  0  0  0  0  0  0
    5.3440  -16.8514   21.5305 N   0  0  0  0  0  0  0  0  0  0  0  0
    6.3716  -16.7595   23.7073 C   0  0  0  0  0  0  0  0  0  0  0  0
    5.3064  -16.9520   24.3331 O   0  0  0  0  0  0  0  0  0  0  0  0
    7.8429  -21.7428   26.3207 N   0  0  0  0  0  0  0  0  0  0  0  0
    7.6595  -20.6650   27.2650 C   0  0  0  0  0  0  0  0  0  0  0  0
    8.3774  -20.7070   28.2734 O   0  0  0  0  0  0  0  0  0  0  0  0
    6.6892  -19.6334   27.0011 C   0  0  0  0  0  0  0  0  0  0  0  0
    6.7370  -18.8520   25.7557 C   0  0  0  0  0  0  0  0  0  0  0  0
    7.6606  -17.6991   25.6643 C   0  0  2  0  0  0  0  0  0  0  0  0
    7.5875  -17.0035   24.4038 N   0  0  0  0  0  0  0  0  0  0  0  0
    9.0433  -17.8845   26.0927 C   0  0  0  0  0  0  0  0  0  0  0  0
    9.9330  -18.2143   25.2294 O   0  0  0  0  0  0  0  0  0  0  0  0
    9.5209  -17.7368   27.3874 O   0  0  0  0  0  0  0  0  0  0  0  0
  1  2  1  0
  3  4  1  1
  3  2  1  0
  5  3  1  0
  6  5  2  0
  8  7  1  1
  8  9  1  0
  8 10  1  0
  9  5  1  0
 10 11  2  0
 12 13  1  0
 13 14  2  0
 15 13  1  0
 15 16  1  0
 17 16  1  6
 18 10  1  0
 18 17  1  0
 19 21  1  0
 19 17  1  0
 20 19  2  0
M  END
$$$$
