SAQ.pdb
     RDKit          3D

 21 20  0  0  1  0  0  0  0  0999 V2000
    4.9004  -18.3626   21.7187 O   0  0  0  0  0  0  0  0  0  0  0  0
    4.4793  -17.5264   20.7064 C   0  0  0  0  0  0  0  0  0  0  0  0
    5.6276  -17.2001   19.8098 C   0  0  2  0  0  0  0  0  0  0  0  0
    6.2312  -18.3734   19.2194 N   0  0  0  0  0  0  0  0  0  0  0  0
    6.6781  -16.4048   20.5511 C   0  0  0  0  0  0  0  0  0  0  0  0
    7.6583  -16.9973   21.0641 O   0  0  0  0  0  0  0  0  0  0  0  0
    7.2103  -12.7055   21.3145 C   0  0  0  0  0  0  0  0  0  0  0  0
    7.4749  -14.1821   21.4266 C   0  0  2  0  0  0  0  0  0  0  0  0
    6.5741  -14.9990   20.6764 N   0  0  0  0  0  0  0  0  0  0  0  0
    7.5159  -14.6392   22.8642 C   0  0  0  0  0  0  0  0  0  0  0  0
    6.4985  -14.7707   23.5788 O   0  0  0  0  0  0  0  0  0  0  0  0
    7.5013  -19.7345   27.3004 N   0  0  0  0  0  0  0  0  0  0  0  0
    7.3434  -18.8787   26.1473 C   0  0  0  0  0  0  0  0  0  0  0  0
    6.4717  -19.2238   25.3381 O   0  0  0  0  0  0  0  0  0  0  0  0
    8.1739  -17.7111   25.9978 C   0  0  0  0  0  0  0  0  0  0  0  0
    8.0753  -16.8620   24.8007 C   0  0  0  0  0  0  0  0  0  0  0  0
    8.9142  -15.6460   24.7095 C   0  0  2  0  0  0  0  0  0  0  0  0
    8.7717  -14.9426   23.4593 N   0  0  0  0  0  0  0  0  0  0  0  0
   10.3134  -15.7387   25.1138 C   0  0  0  0  0  0  0  0  0  0  0  0
   11.2353  -15.6188   24.2299 O   0  0  0  0  0  0  0  0  0  0  0  0
   10.7750  -15.9516   26.4053 O   0  0  0  0  0  0  0  0  0  0  0  0
  1  2  1  0
  3  4  1  1
  3  2  1  0
  5  3  1  0
  6  5  2  0
  8  7  1  1
  8  9  1  0
  8 10  1  0
  9  5  1  0
 10 11  2  0
 12 13  1  0
 13 14  2  0
 15 13  1  0
 15 16  1  0
 17 16  1  6
 18 10  1  0
 18 17  1  0
 19 21  1  0
 19 17  1  0
 20 19  2  0
M  END
$$$$
