SAQ.pdb
     RDKit          3D

 21 20  0  0  1  0  0  0  0  0999 V2000
    6.7208  -18.3581   18.5454 O   0  0  0  0  0  0  0  0  0  0  0  0
    6.1895  -17.4510   17.6531 C   0  0  0  0  0  0  0  0  0  0  0  0
    7.2738  -16.5772   17.1147 C   0  0  2  0  0  0  0  0  0  0  0  0
    8.1916  -17.2867   16.2523 N   0  0  0  0  0  0  0  0  0  0  0  0
    8.0384  -15.9164   18.2391 C   0  0  0  0  0  0  0  0  0  0  0  0
    9.1159  -16.4212   18.6381 O   0  0  0  0  0  0  0  0  0  0  0  0
    7.5700  -12.7417   20.3007 C   0  0  0  0  0  0  0  0  0  0  0  0
    8.2238  -14.0378   19.9060 C   0  0  2  0  0  0  0  0  0  0  0  0
    7.5577  -14.7343   18.8511 N   0  0  0  0  0  0  0  0  0  0  0  0
    8.4199  -14.9529   21.0898 C   0  0  0  0  0  0  0  0  0  0  0  0
    7.5548  -15.7610   21.4917 O   0  0  0  0  0  0  0  0  0  0  0  0
    9.4754  -19.8979   20.6404 N   0  0  0  0  0  0  0  0  0  0  0  0
   10.5146  -19.7811   21.6371 C   0  0  0  0  0  0  0  0  0  0  0  0
   10.9945  -20.8495   22.0398 O   0  0  0  0  0  0  0  0  0  0  0  0
   10.9273  -18.4803   22.0984 C   0  0  0  0  0  0  0  0  0  0  0  0
   10.2863  -17.2589   21.5873 C   0  0  0  0  0  0  0  0  0  0  0  0
   10.2395  -16.0561   22.4485 C   0  0  2  0  0  0  0  0  0  0  0  0
    9.6501  -14.9101   21.8024 N   0  0  0  0  0  0  0  0  0  0  0  0
   11.4405  -15.6908   23.1927 C   0  0  0  0  0  0  0  0  0  0  0  0
   12.3031  -14.9083   22.6548 O   0  0  0  0  0  0  0  0  0  0  0  0
   11.7650  -16.1157   24.4735 O   0  0  0  0  0  0  0  0  0  0  0  0
  1  2  1  0
  3  4  1  1
  3  2  1  0
  5  3  1  0
  6  5  2  0
  8  7  1  1
  8  9  1  0
  8 10  1  0
  9  5  1  0
 10 11  2  0
 12 13  1  0
 13 14  2  0
 15 13  1  0
 15 16  1  0
 17 16  1  6
 18 10  1  0
 18 17  1  0
 19 21  1  0
 19 17  1  0
 20 19  2  0
M  END
$$$$
