SAQ.pdb
     RDKit          3D

 21 20  0  0  1  0  0  0  0  0999 V2000
    8.9851  -15.2892   17.5724 O   0  0  0  0  0  0  0  0  0  0  0  0
    7.6851  -14.8891   17.7981 C   0  0  0  0  0  0  0  0  0  0  0  0
    7.6764  -13.5744   18.5056 C   0  0  2  0  0  0  0  0  0  0  0  0
    8.2380  -12.5049   17.7118 N   0  0  0  0  0  0  0  0  0  0  0  0
    8.4101  -13.6698   19.8241 C   0  0  0  0  0  0  0  0  0  0  0  0
    9.6390  -13.4198   19.8704 O   0  0  0  0  0  0  0  0  0  0  0  0
    7.4006  -14.4067   23.4242 C   0  0  0  0  0  0  0  0  0  0  0  0
    8.3601  -14.2243   22.2801 C   0  0  2  0  0  0  0  0  0  0  0  0
    7.7318  -14.0375   21.0105 N   0  0  0  0  0  0  0  0  0  0  0  0
    9.3637  -15.3486   22.2024 C   0  0  0  0  0  0  0  0  0  0  0  0
    9.1669  -16.4109   21.5731 O   0  0  0  0  0  0  0  0  0  0  0  0
   14.4785  -16.4265   19.9669 N   0  0  0  0  0  0  0  0  0  0  0  0
   13.7072  -15.2068   20.0317 C   0  0  0  0  0  0  0  0  0  0  0  0
   13.7615  -14.4834   19.0279 O   0  0  0  0  0  0  0  0  0  0  0  0
   12.9420  -14.9003   21.2132 C   0  0  0  0  0  0  0  0  0  0  0  0
   12.9179  -15.8234   22.3583 C   0  0  0  0  0  0  0  0  0  0  0  0
   11.6132  -16.2473   22.9140 C   0  0  2  0  0  0  0  0  0  0  0  0
   10.6096  -15.2132   22.8752 N   0  0  0  0  0  0  0  0  0  0  0  0
   11.6017  -16.9553   24.1901 C   0  0  0  0  0  0  0  0  0  0  0  0
   10.8391  -16.5414   25.1350 O   0  0  0  0  0  0  0  0  0  0  0  0
   12.3580  -18.0752   24.5062 O   0  0  0  0  0  0  0  0  0  0  0  0
  1  2  1  0
  3  4  1  6
  3  2  1  0
  5  3  1  0
  6  5  2  0
  8  7  1  1
  8  9  1  0
  8 10  1  0
  9  5  1  0
 10 11  2  0
 12 13  1  0
 13 14  2  0
 15 13  1  0
 15 16  1  0
 17 16  1  1
 18 10  1  0
 18 17  1  0
 19 21  1  0
 19 17  1  0
 20 19  2  0
M  END
$$$$
