QCN.pdb
     RDKit          3D

 24 23  0  0  1  0  0  0  0  0999 V2000
    4.2163  -19.1939   24.0282 N   0  0  0  0  0  0  0  0  0  0  0  0
    4.2530  -20.4087   23.2857 C   0  0  0  0  0  0  0  0  0  0  0  0
    4.5238  -21.4524   23.9131 O   0  0  0  0  0  0  0  0  0  0  0  0
    3.9885  -20.4264   21.8601 C   0  0  0  0  0  0  0  0  0  0  0  0
    3.7109  -19.1500   21.1732 C   0  0  0  0  0  0  0  0  0  0  0  0
    4.7373  -18.6193   20.2393 C   0  0  2  0  0  0  0  0  0  0  0  0
    5.4009  -19.5600   19.4041 N   0  0  0  0  0  0  0  0  0  0  0  0
    5.7529  -17.9145   21.0753 C   0  0  0  0  0  0  0  0  0  0  0  0
    6.7528  -18.6340   21.4164 O   0  0  0  0  0  0  0  0  0  0  0  0
    5.6949  -16.5843   21.4952 N   0  0  0  0  0  0  0  0  0  0  0  0
    6.8298  -16.0408   22.2427 C   0  0  1  0  0  0  0  0  0  0  0  0
    6.5442  -14.5357   22.3290 C   0  0  0  0  0  0  0  0  0  0  0  0
    7.9873  -13.7810   23.1118 S   0  0  0  0  0  0  0  0  0  0  0  0
    6.8727  -16.5661   23.6161 C   0  0  0  0  0  0  0  0  0  0  0  0
    5.8444  -16.7399   24.3294 O   0  0  0  0  0  0  0  0  0  0  0  0
    8.4271  -21.0182   26.4891 N   0  0  0  0  0  0  0  0  0  0  0  0
    7.8228  -19.7604   26.5380 C   0  0  0  0  0  0  0  0  0  0  0  0
    7.3790  -19.3393   27.6470 O   0  0  0  0  0  0  0  0  0  0  0  0
    7.6631  -18.8766   25.3861 C   0  0  0  0  0  0  0  0  0  0  0  0
    8.2451  -17.5091   25.5099 C   0  0  2  0  0  0  0  0  0  0  0  0
    8.1175  -16.8956   24.1751 N   0  0  0  0  0  0  0  0  0  0  0  0
    9.6630  -17.4486   25.8814 C   0  0  0  0  0  0  0  0  0  0  0  0
   10.5225  -17.1355   25.0285 O   0  0  0  0  0  0  0  0  0  0  0  0
   10.0733  -17.7311   27.1611 O   0  0  0  0  0  0  0  0  0  0  0  0
  1  2  1  0
  2  4  1  0
  3  2  2  0
  5  4  1  0
  6  7  1  1
  6  5  1  0
  8  9  2  0
  8  6  1  0
 10  8  1  0
 11 10  1  0
 11 14  1  0
 11 12  1  1
 13 12  1  0
 14 21  1  0
 15 14  2  0
 16 17  1  0
 17 19  1  0
 18 17  2  0
 20 19  1  6
 20 22  1  0
 21 20  1  0
 22 23  2  0
 22 24  1  0
M  END
$$$$
