QCN.pdb
     RDKit          3D

 24 23  0  0  1  0  0  0  0  0999 V2000
    5.6406  -18.0718   21.7358 N   0  0  0  0  0  0  0  0  0  0  0  0
    5.6715  -17.5307   20.4188 C   0  0  0  0  0  0  0  0  0  0  0  0
    4.9747  -18.0973   19.5530 O   0  0  0  0  0  0  0  0  0  0  0  0
    6.4824  -16.3711   20.1015 C   0  0  0  0  0  0  0  0  0  0  0  0
    7.2527  -15.7258   21.1824 C   0  0  0  0  0  0  0  0  0  0  0  0
    7.0246  -14.2802   21.4387 C   0  0  2  0  0  0  0  0  0  0  0  0
    7.3753  -13.3753   20.3990 N   0  0  0  0  0  0  0  0  0  0  0  0
    7.8041  -13.9346   22.6635 C   0  0  0  0  0  0  0  0  0  0  0  0
    9.0538  -13.7537   22.4651 O   0  0  0  0  0  0  0  0  0  0  0  0
    7.2920  -13.8001   23.9553 N   0  0  0  0  0  0  0  0  0  0  0  0
    8.2170  -13.9069   25.0846 C   0  0  1  0  0  0  0  0  0  0  0  0
    7.5225  -13.1434   26.2200 C   0  0  0  0  0  0  0  0  0  0  0  0
    5.7481  -13.2301   25.8900 S   0  0  0  0  0  0  0  0  0  0  0  0
    8.3786  -15.3029   25.5195 C   0  0  0  0  0  0  0  0  0  0  0  0
    7.4213  -16.1232   25.6034 O   0  0  0  0  0  0  0  0  0  0  0  0
   11.7779  -16.7051   23.2418 N   0  0  0  0  0  0  0  0  0  0  0  0
   11.0047  -17.5360   24.0551 C   0  0  0  0  0  0  0  0  0  0  0  0
   10.1504  -18.2976   23.5124 O   0  0  0  0  0  0  0  0  0  0  0  0
   11.1104  -17.5961   25.5106 C   0  0  0  0  0  0  0  0  0  0  0  0
    9.9164  -17.1494   26.2843 C   0  0  2  0  0  0  0  0  0  0  0  0
    9.6608  -15.7597   25.8626 N   0  0  0  0  0  0  0  0  0  0  0  0
   10.0667  -17.1393   27.7435 C   0  0  0  0  0  0  0  0  0  0  0  0
   10.2887  -18.2053   28.3590 O   0  0  0  0  0  0  0  0  0  0  0  0
    9.9685  -15.9710   28.4584 O   0  0  0  0  0  0  0  0  0  0  0  0
  1  2  1  0
  2  4  1  0
  3  2  2  0
  5  4  1  0
  6  7  1  6
  6  5  1  0
  8  9  2  0
  8  6  1  0
 10  8  1  0
 11 10  1  0
 11 14  1  0
 11 12  1  1
 13 12  1  0
 14 21  1  0
 15 14  2  0
 16 17  1  0
 17 19  1  0
 18 17  2  0
 20 19  1  6
 20 22  1  0
 21 20  1  0
 22 23  2  0
 22 24  1  0
M  END
$$$$
