QCN.pdb
     RDKit          3D

 24 23  0  0  1  0  0  0  0  0999 V2000
    8.1027  -12.2317   17.8807 N   0  0  0  0  0  0  0  0  0  0  0  0
    7.8922  -13.4432   17.1621 C   0  0  0  0  0  0  0  0  0  0  0  0
    8.0140  -13.3987   15.9214 O   0  0  0  0  0  0  0  0  0  0  0  0
    7.5487  -14.6738   17.8478 C   0  0  0  0  0  0  0  0  0  0  0  0
    7.5283  -14.6828   19.3236 C   0  0  0  0  0  0  0  0  0  0  0  0
    8.6501  -15.3473   20.0357 C   0  0  2  0  0  0  0  0  0  0  0  0
    9.1891  -16.5217   19.4414 N   0  0  0  0  0  0  0  0  0  0  0  0
    8.1510  -15.6825   21.4017 C   0  0  0  0  0  0  0  0  0  0  0  0
    6.8924  -15.8941   21.4709 O   0  0  0  0  0  0  0  0  0  0  0  0
    8.9235  -15.7778   22.5607 N   0  0  0  0  0  0  0  0  0  0  0  0
    8.3538  -16.4631   23.7217 C   0  0  1  0  0  0  0  0  0  0  0  0
    8.0373  -17.8759   23.2133 C   0  0  0  0  0  0  0  0  0  0  0  0
    7.3755  -18.7944   24.6215 S   0  0  0  0  0  0  0  0  0  0  0  0
    9.3364  -16.5902   24.8091 C   0  0  0  0  0  0  0  0  0  0  0  0
   10.4967  -17.0641   24.6496 O   0  0  0  0  0  0  0  0  0  0  0  0
   11.1085  -13.5836   27.9313 N   0  0  0  0  0  0  0  0  0  0  0  0
    9.9339  -14.0273   28.5421 C   0  0  0  0  0  0  0  0  0  0  0  0
    9.3576  -13.2704   29.3784 O   0  0  0  0  0  0  0  0  0  0  0  0
    9.3070  -15.3208   28.2830 C   0  0  0  0  0  0  0  0  0  0  0  0
    9.9309  -16.1630   27.2222 C   0  0  2  0  0  0  0  0  0  0  0  0
    8.9769  -16.1653   26.0978 N   0  0  0  0  0  0  0  0  0  0  0  0
   10.1813  -17.5630   27.5818 C   0  0  0  0  0  0  0  0  0  0  0  0
    9.2473  -18.3944   27.5557 O   0  0  0  0  0  0  0  0  0  0  0  0
   11.4342  -17.9872   27.9506 O   0  0  0  0  0  0  0  0  0  0  0  0
  1  2  1  0
  2  4  1  0
  3  2  2  0
  5  4  1  0
  6  7  1  6
  6  5  1  0
  8  9  2  0
  8  6  1  0
 10  8  1  0
 11 10  1  0
 11 14  1  0
 11 12  1  6
 13 12  1  0
 14 21  1  0
 15 14  2  0
 16 17  1  0
 17 19  1  0
 18 17  2  0
 20 19  1  1
 20 22  1  0
 21 20  1  0
 22 23  2  0
 22 24  1  0
M  END
$$$$
