QCN.pdb
     RDKit          3D

 24 23  0  0  1  0  0  0  0  0999 V2000
    7.1903  -20.1692   20.1037 N   0  0  0  0  0  0  0  0  0  0  0  0
    8.0126  -20.4811   18.9834 C   0  0  0  0  0  0  0  0  0  0  0  0
    8.8171  -21.4257   19.1120 O   0  0  0  0  0  0  0  0  0  0  0  0
    7.9169  -19.7278   17.7481 C   0  0  0  0  0  0  0  0  0  0  0  0
    6.9723  -18.5959   17.6776 C   0  0  0  0  0  0  0  0  0  0  0  0
    7.4957  -17.2720   17.2528 C   0  0  2  0  0  0  0  0  0  0  0  0
    8.5254  -17.2673   16.2717 N   0  0  0  0  0  0  0  0  0  0  0  0
    7.9985  -16.5954   18.4843 C   0  0  0  0  0  0  0  0  0  0  0  0
    9.2556  -16.7163   18.6819 O   0  0  0  0  0  0  0  0  0  0  0  0
    7.2309  -15.8714   19.3985 N   0  0  0  0  0  0  0  0  0  0  0  0
    7.9012  -15.2883   20.5616 C   0  0  1  0  0  0  0  0  0  0  0  0
    6.7900  -14.5344   21.3040 C   0  0  0  0  0  0  0  0  0  0  0  0
    7.5335  -13.8752   22.8132 S   0  0  0  0  0  0  0  0  0  0  0  0
    8.4153  -16.3286   21.4657 C   0  0  0  0  0  0  0  0  0  0  0  0
    7.8276  -17.4281   21.6706 O   0  0  0  0  0  0  0  0  0  0  0  0
   13.4619  -17.8286   24.1688 N   0  0  0  0  0  0  0  0  0  0  0  0
   12.3889  -18.2650   23.3892 C   0  0  0  0  0  0  0  0  0  0  0  0
   12.0982  -19.4979   23.3866 O   0  0  0  0  0  0  0  0  0  0  0  0
   11.5597  -17.3910   22.5635 C   0  0  0  0  0  0  0  0  0  0  0  0
   10.1981  -17.0771   23.0845 C   0  0  2  0  0  0  0  0  0  0  0  0
    9.6231  -16.0986   22.1431 N   0  0  0  0  0  0  0  0  0  0  0  0
   10.1479  -16.4746   24.4212 C   0  0  0  0  0  0  0  0  0  0  0  0
   10.0464  -15.2344   24.5471 O   0  0  0  0  0  0  0  0  0  0  0  0
   10.2101  -17.2513   25.5519 O   0  0  0  0  0  0  0  0  0  0  0  0
  1  2  1  0
  2  4  1  0
  3  2  2  0
  5  4  1  0
  6  7  1  6
  6  5  1  0
  8  9  2  0
  8  6  1  0
 10  8  1  0
 11 10  1  0
 11 14  1  0
 11 12  1  1
 13 12  1  0
 14 21  1  0
 15 14  2  0
 16 17  1  0
 17 19  1  0
 18 17  2  0
 20 19  1  6
 20 22  1  0
 21 20  1  0
 22 23  2  0
 22 24  1  0
M  END
$$$$
