QCN.pdb
     RDKit          3D

 24 23  0  0  1  0  0  0  0  0999 V2000
    7.1633  -12.3544   18.1952 N   0  0  0  0  0  0  0  0  0  0  0  0
    7.1970  -13.6068   17.5177 C   0  0  0  0  0  0  0  0  0  0  0  0
    7.2321  -13.5798   16.2710 O   0  0  0  0  0  0  0  0  0  0  0  0
    7.1883  -14.8580   18.2504 C   0  0  0  0  0  0  0  0  0  0  0  0
    7.3658  -14.8247   19.7152 C   0  0  0  0  0  0  0  0  0  0  0  0
    8.4842  -15.6060   20.3034 C   0  0  2  0  0  0  0  0  0  0  0  0
    8.1382  -16.6886   21.1584 N   0  0  0  0  0  0  0  0  0  0  0  0
    9.3274  -14.6388   21.0655 C   0  0  0  0  0  0  0  0  0  0  0  0
    9.3414  -13.4536   20.5872 O   0  0  0  0  0  0  0  0  0  0  0  0
   10.0711  -14.9200   22.2131 N   0  0  0  0  0  0  0  0  0  0  0  0
    9.4028  -14.8368   23.5126 C   0  0  1  0  0  0  0  0  0  0  0  0
    7.9113  -14.7307   23.1684 C   0  0  0  0  0  0  0  0  0  0  0  0
    7.0506  -14.3606   24.7134 S   0  0  0  0  0  0  0  0  0  0  0  0
    9.5931  -16.0667   24.2969 C   0  0  0  0  0  0  0  0  0  0  0  0
    9.0777  -16.2557   25.4349 O   0  0  0  0  0  0  0  0  0  0  0  0
   10.3055  -19.4518   21.0797 N   0  0  0  0  0  0  0  0  0  0  0  0
    9.9947  -19.4893   22.4405 C   0  0  0  0  0  0  0  0  0  0  0  0
    8.7852  -19.6374   22.7862 O   0  0  0  0  0  0  0  0  0  0  0  0
   10.9773  -19.3708   23.5147 C   0  0  0  0  0  0  0  0  0  0  0  0
   10.7305  -18.3054   24.5286 C   0  0  2  0  0  0  0  0  0  0  0  0
   10.3881  -17.0929   23.7626 N   0  0  0  0  0  0  0  0  0  0  0  0
   11.8682  -17.9671   25.3908 C   0  0  0  0  0  0  0  0  0  0  0  0
   12.1769  -18.7148   26.3447 O   0  0  0  0  0  0  0  0  0  0  0  0
   12.6118  -16.8338   25.1713 O   0  0  0  0  0  0  0  0  0  0  0  0
  1  2  1  0
  2  4  1  0
  3  2  2  0
  5  4  1  0
  6  7  1  1
  6  5  1  0
  8  9  2  0
  8  6  1  0
 10  8  1  0
 11 10  1  0
 11 14  1  0
 11 12  1  6
 13 12  1  0
 14 21  1  0
 15 14  2  0
 16 17  1  0
 17 19  1  0
 18 17  2  0
 20 19  1  6
 20 22  1  0
 21 20  1  0
 22 23  2  0
 22 24  1  0
M  END
$$$$
