QCN.pdb
     RDKit          3D

 24 23  0  0  1  0  0  0  0  0999 V2000
    8.3072  -12.4924   18.0710 N   0  0  0  0  0  0  0  0  0  0  0  0
    7.9046  -13.8359   17.8233 C   0  0  0  0  0  0  0  0  0  0  0  0
    7.5722  -14.1256   16.6564 O   0  0  0  0  0  0  0  0  0  0  0  0
    7.8813  -14.8216   18.8866 C   0  0  0  0  0  0  0  0  0  0  0  0
    8.2012  -14.3910   20.2615 C   0  0  0  0  0  0  0  0  0  0  0  0
    8.1392  -15.4050   21.3456 C   0  0  2  0  0  0  0  0  0  0  0  0
    6.9392  -16.1602   21.4577 N   0  0  0  0  0  0  0  0  0  0  0  0
    8.3731  -14.6764   22.6269 C   0  0  0  0  0  0  0  0  0  0  0  0
    9.4039  -13.9206   22.6283 O   0  0  0  0  0  0  0  0  0  0  0  0
    7.5838  -14.7556   23.7757 N   0  0  0  0  0  0  0  0  0  0  0  0
    8.1331  -14.2470   25.0333 C   0  0  1  0  0  0  0  0  0  0  0  0
    6.9778  -13.4573   25.6626 C   0  0  0  0  0  0  0  0  0  0  0  0
    7.6185  -12.7348   27.1898 S   0  0  0  0  0  0  0  0  0  0  0  0
    8.4782  -15.3418   25.9533 C   0  0  0  0  0  0  0  0  0  0  0  0
    7.7149  -16.3200   26.1918 O   0  0  0  0  0  0  0  0  0  0  0  0
   11.6238  -18.5028   24.9252 N   0  0  0  0  0  0  0  0  0  0  0  0
   11.3407  -18.2439   26.2678 C   0  0  0  0  0  0  0  0  0  0  0  0
   10.9878  -19.2051   27.0134 O   0  0  0  0  0  0  0  0  0  0  0  0
   11.4247  -16.9247   26.8892 C   0  0  0  0  0  0  0  0  0  0  0  0
   10.1711  -16.3940   27.4980 C   0  0  2  0  0  0  0  0  0  0  0  0
    9.7198  -15.3088   26.6075 N   0  0  0  0  0  0  0  0  0  0  0  0
   10.3047  -15.8242   28.8432 C   0  0  0  0  0  0  0  0  0  0  0  0
   10.3529  -14.5840   28.9975 O   0  0  0  0  0  0  0  0  0  0  0  0
   10.3786  -16.6318   29.9513 O   0  0  0  0  0  0  0  0  0  0  0  0
  1  2  1  0
  2  4  1  0
  3  2  2  0
  5  4  1  0
  6  7  1  1
  6  5  1  0
  8  9  2  0
  8  6  1  0
 10  8  1  0
 11 10  1  0
 11 14  1  0
 11 12  1  1
 13 12  1  0
 14 21  1  0
 15 14  2  0
 16 17  1  0
 17 19  1  0
 18 17  2  0
 20 19  1  6
 20 22  1  0
 21 20  1  0
 22 23  2  0
 22 24  1  0
M  END
$$$$
