QCN.pdb
     RDKit          3D

 24 23  0  0  1  0  0  0  0  0999 V2000
    8.4109  -18.0417   20.2529 N   0  0  0  0  0  0  0  0  0  0  0  0
    8.7981  -17.2737   19.1177 C   0  0  0  0  0  0  0  0  0  0  0  0
    9.6831  -17.7524   18.3803 O   0  0  0  0  0  0  0  0  0  0  0  0
    8.1881  -15.9887   18.8362 C   0  0  0  0  0  0  0  0  0  0  0  0
    7.1028  -15.5099   19.7143 C   0  0  0  0  0  0  0  0  0  0  0  0
    7.1156  -14.0836   20.1301 C   0  0  2  0  0  0  0  0  0  0  0  0
    7.6572  -13.1454   19.2085 N   0  0  0  0  0  0  0  0  0  0  0  0
    7.8934  -14.0156   21.4020 C   0  0  0  0  0  0  0  0  0  0  0  0
    9.0863  -13.5750   21.2730 O   0  0  0  0  0  0  0  0  0  0  0  0
    7.4350  -14.3824   22.6687 N   0  0  0  0  0  0  0  0  0  0  0  0
    8.3541  -14.2656   23.8016 C   0  0  1  0  0  0  0  0  0  0  0  0
    7.5921  -13.4128   24.8247 C   0  0  0  0  0  0  0  0  0  0  0  0
    6.4437  -14.5235   25.6687 S   0  0  0  0  0  0  0  0  0  0  0  0
    8.6177  -15.5741   24.4198 C   0  0  0  0  0  0  0  0  0  0  0  0
    7.7640  -16.5038   24.4770 O   0  0  0  0  0  0  0  0  0  0  0  0
   11.0834  -18.0747   22.8416 N   0  0  0  0  0  0  0  0  0  0  0  0
   12.0388  -17.7280   23.7989 C   0  0  0  0  0  0  0  0  0  0  0  0
   13.2651  -17.7911   23.4879 O   0  0  0  0  0  0  0  0  0  0  0  0
   11.7252  -17.2877   25.1558 C   0  0  0  0  0  0  0  0  0  0  0  0
   10.2795  -17.1396   25.4907 C   0  0  2  0  0  0  0  0  0  0  0  0
    9.8822  -15.8147   24.9798 N   0  0  0  0  0  0  0  0  0  0  0  0
    9.9473  -17.1713   26.9192 C   0  0  0  0  0  0  0  0  0  0  0  0
    9.7187  -16.1065   27.5342 O   0  0  0  0  0  0  0  0  0  0  0  0
    9.8803  -18.3589   27.6054 O   0  0  0  0  0  0  0  0  0  0  0  0
  1  2  1  0
  2  4  1  0
  3  2  2  0
  5  4  1  0
  6  7  1  6
  6  5  1  0
  8  9  2  0
  8  6  1  0
 10  8  1  0
 11 10  1  0
 11 14  1  0
 11 12  1  1
 13 12  1  0
 14 21  1  0
 15 14  2  0
 16 17  1  0
 17 19  1  0
 18 17  2  0
 20 19  1  1
 20 22  1  0
 21 20  1  0
 22 23  2  0
 22 24  1  0
M  END
$$$$
