QCN.pdb
     RDKit          3D

 24 23  0  0  1  0  0  0  0  0999 V2000
   10.1807  -17.7211   20.2524 N   0  0  0  0  0  0  0  0  0  0  0  0
    9.1786  -17.2513   19.3561 C   0  0  0  0  0  0  0  0  0  0  0  0
    8.9722  -17.9259   18.3272 O   0  0  0  0  0  0  0  0  0  0  0  0
    8.4337  -16.0379   19.6308 C   0  0  0  0  0  0  0  0  0  0  0  0
    8.7032  -15.3075   20.8846 C   0  0  0  0  0  0  0  0  0  0  0  0
    7.5571  -15.0084   21.7815 C   0  0  2  0  0  0  0  0  0  0  0  0
    6.6514  -13.9965   21.3591 N   0  0  0  0  0  0  0  0  0  0  0  0
    8.1363  -14.6186   23.1005 C   0  0  0  0  0  0  0  0  0  0  0  0
    9.4127  -14.5528   23.1222 O   0  0  0  0  0  0  0  0  0  0  0  0
    7.4187  -14.3329   24.2635 N   0  0  0  0  0  0  0  0  0  0  0  0
    8.1604  -14.1573   25.5128 C   0  0  1  0  0  0  0  0  0  0  0  0
    7.1315  -13.5702   26.4881 C   0  0  0  0  0  0  0  0  0  0  0  0
    6.7151  -11.9244   25.8693 S   0  0  0  0  0  0  0  0  0  0  0  0
    8.6084  -15.4471   26.0603 C   0  0  0  0  0  0  0  0  0  0  0  0
    7.8899  -16.4862   26.0760 O   0  0  0  0  0  0  0  0  0  0  0  0
   11.1827  -18.9456   25.3188 N   0  0  0  0  0  0  0  0  0  0  0  0
   12.1072  -17.9689   25.6947 C   0  0  0  0  0  0  0  0  0  0  0  0
   13.2631  -17.9917   25.1774 O   0  0  0  0  0  0  0  0  0  0  0  0
   11.8360  -16.9023   26.6550 C   0  0  0  0  0  0  0  0  0  0  0  0
   10.4352  -16.7970   27.1557 C   0  0  2  0  0  0  0  0  0  0  0  0
    9.9021  -15.5407   26.5971 N   0  0  0  0  0  0  0  0  0  0  0  0
   10.2805  -16.7241   28.6127 C   0  0  0  0  0  0  0  0  0  0  0  0
   10.0687  -15.6232   29.1671 O   0  0  0  0  0  0  0  0  0  0  0  0
   10.3634  -17.8518   29.3918 O   0  0  0  0  0  0  0  0  0  0  0  0
  1  2  1  0
  2  4  1  0
  3  2  2  0
  5  4  1  0
  6  7  1  6
  6  5  1  0
  8  9  2  0
  8  6  1  0
 10  8  1  0
 11 10  1  0
 11 14  1  0
 11 12  1  1
 13 12  1  0
 14 21  1  0
 15 14  2  0
 16 17  1  0
 17 19  1  0
 18 17  2  0
 20 19  1  1
 20 22  1  0
 21 20  1  0
 22 23  2  0
 22 24  1  0
M  END
$$$$
