QCN.pdb
     RDKit          3D

 24 23  0  0  1  0  0  0  0  0999 V2000
    8.3250  -12.4268   17.3414 N   0  0  0  0  0  0  0  0  0  0  0  0
    8.3013  -13.8013   16.9693 C   0  0  0  0  0  0  0  0  0  0  0  0
    8.1659  -14.0616   15.7568 O   0  0  0  0  0  0  0  0  0  0  0  0
    8.4272  -14.8508   17.9619 C   0  0  0  0  0  0  0  0  0  0  0  0
    8.5456  -14.4733   19.3838 C   0  0  0  0  0  0  0  0  0  0  0  0
    8.6519  -15.5604   20.3909 C   0  0  2  0  0  0  0  0  0  0  0  0
    7.6422  -16.5618   20.3716 N   0  0  0  0  0  0  0  0  0  0  0  0
    8.6555  -14.9035   21.7309 C   0  0  0  0  0  0  0  0  0  0  0  0
    9.5595  -14.0130   21.8842 O   0  0  0  0  0  0  0  0  0  0  0  0
    7.7824  -15.1776   22.7852 N   0  0  0  0  0  0  0  0  0  0  0  0
    8.0021  -14.5005   24.0640 C   0  0  1  0  0  0  0  0  0  0  0  0
    6.5970  -14.3495   24.6620 C   0  0  0  0  0  0  0  0  0  0  0  0
    6.7529  -13.2247   26.0675 S   0  0  0  0  0  0  0  0  0  0  0  0
    8.7921  -15.3313   24.9858 C   0  0  0  0  0  0  0  0  0  0  0  0
    9.3516  -16.4121   24.6463 O   0  0  0  0  0  0  0  0  0  0  0  0
   12.0616  -15.3174   28.8867 N   0  0  0  0  0  0  0  0  0  0  0  0
   10.8520  -14.7452   29.2855 C   0  0  0  0  0  0  0  0  0  0  0  0
   10.8371  -14.0034   30.3121 O   0  0  0  0  0  0  0  0  0  0  0  0
    9.5800  -14.9390   28.5943 C   0  0  0  0  0  0  0  0  0  0  0  0
    9.6216  -15.7336   27.3330 C   0  0  2  0  0  0  0  0  0  0  0  0
    8.9395  -14.9109   26.3170 N   0  0  0  0  0  0  0  0  0  0  0  0
    8.9377  -17.0309   27.3714 C   0  0  0  0  0  0  0  0  0  0  0  0
    7.7047  -17.0965   27.1727 O   0  0  0  0  0  0  0  0  0  0  0  0
    9.6296  -18.1900   27.6231 O   0  0  0  0  0  0  0  0  0  0  0  0
  1  2  1  0
  2  4  1  0
  3  2  2  0
  5  4  1  0
  6  7  1  1
  6  5  1  0
  8  9  2  0
  8  6  1  0
 10  8  1  0
 11 10  1  0
 11 14  1  0
 11 12  1  1
 13 12  1  0
 14 21  1  0
 15 14  2  0
 16 17  1  0
 17 19  1  0
 18 17  2  0
 20 19  1  1
 20 22  1  0
 21 20  1  0
 22 23  2  0
 22 24  1  0
M  END
$$$$
