QCN.pdb
     RDKit          3D

 24 23  0  0  1  0  0  0  0  0999 V2000
    6.5633  -19.8678   19.2212 N   0  0  0  0  0  0  0  0  0  0  0  0
    7.8343  -19.8086   18.5812 C   0  0  0  0  0  0  0  0  0  0  0  0
    8.7393  -20.5328   19.0425 O   0  0  0  0  0  0  0  0  0  0  0  0
    8.0628  -18.9396   17.4431 C   0  0  0  0  0  0  0  0  0  0  0  0
    7.0974  -17.8570   17.1708 C   0  0  0  0  0  0  0  0  0  0  0  0
    7.6299  -16.5160   16.8166 C   0  0  2  0  0  0  0  0  0  0  0  0
    8.5099  -16.4427   15.7018 N   0  0  0  0  0  0  0  0  0  0  0  0
    8.3385  -16.0039   18.0261 C   0  0  0  0  0  0  0  0  0  0  0  0
    9.6121  -16.1014   17.9773 O   0  0  0  0  0  0  0  0  0  0  0  0
    7.7397  -15.4501   19.1592 N   0  0  0  0  0  0  0  0  0  0  0  0
    8.6045  -14.9519   20.2296 C   0  0  1  0  0  0  0  0  0  0  0  0
    7.6615  -14.1584   21.1438 C   0  0  0  0  0  0  0  0  0  0  0  0
    6.4638  -15.3413   21.8004 S   0  0  0  0  0  0  0  0  0  0  0  0
    9.1715  -16.0537   21.0222 C   0  0  0  0  0  0  0  0  0  0  0  0
    9.4095  -17.2019   20.5515 O   0  0  0  0  0  0  0  0  0  0  0  0
   12.9403  -17.7052   24.2283 N   0  0  0  0  0  0  0  0  0  0  0  0
   12.9194  -17.1077   22.9665 C   0  0  0  0  0  0  0  0  0  0  0  0
   13.9848  -17.0906   22.2817 O   0  0  0  0  0  0  0  0  0  0  0  0
   11.7396  -16.4917   22.3648 C   0  0  0  0  0  0  0  0  0  0  0  0
   10.4570  -16.6396   23.1111 C   0  0  2  0  0  0  0  0  0  0  0  0
    9.4683  -15.8296   22.3758 N   0  0  0  0  0  0  0  0  0  0  0  0
   10.4650  -16.1609   24.4978 C   0  0  0  0  0  0  0  0  0  0  0  0
   11.2505  -16.6640   25.3310 O   0  0  0  0  0  0  0  0  0  0  0  0
    9.6191  -15.1597   24.9072 O   0  0  0  0  0  0  0  0  0  0  0  0
  1  2  1  0
  2  4  1  0
  3  2  2  0
  5  4  1  0
  6  7  1  6
  6  5  1  0
  8  9  2  0
  8  6  1  0
 10  8  1  0
 11 10  1  0
 11 14  1  0
 11 12  1  1
 13 12  1  0
 14 21  1  0
 15 14  2  0
 16 17  1  0
 17 19  1  0
 18 17  2  0
 20 19  1  6
 20 22  1  0
 21 20  1  0
 22 23  2  0
 22 24  1  0
M  END
$$$$
