QCN.pdb
     RDKit          3D

 24 23  0  0  1  0  0  0  0  0999 V2000
    8.4747  -18.6514   21.5085 N   0  0  0  0  0  0  0  0  0  0  0  0
    7.9215  -18.0593   20.3373 C   0  0  0  0  0  0  0  0  0  0  0  0
    7.5842  -18.8281   19.4146 O   0  0  0  0  0  0  0  0  0  0  0  0
    7.7612  -16.6225   20.2255 C   0  0  0  0  0  0  0  0  0  0  0  0
    8.2357  -15.7667   21.3304 C   0  0  0  0  0  0  0  0  0  0  0  0
    7.3581  -14.6569   21.7836 C   0  0  2  0  0  0  0  0  0  0  0  0
    7.0531  -13.6434   20.8335 N   0  0  0  0  0  0  0  0  0  0  0  0
    8.0324  -14.0306   22.9585 C   0  0  0  0  0  0  0  0  0  0  0  0
    9.2256  -13.6299   22.7356 O   0  0  0  0  0  0  0  0  0  0  0  0
    7.4810  -13.8575   24.2293 N   0  0  0  0  0  0  0  0  0  0  0  0
    8.3745  -13.5017   25.3325 C   0  0  1  0  0  0  0  0  0  0  0  0
    7.4985  -12.6720   26.2805 C   0  0  0  0  0  0  0  0  0  0  0  0
    5.9830  -13.6199   26.5445 S   0  0  0  0  0  0  0  0  0  0  0  0
    8.8238  -14.6933   26.0688 C   0  0  0  0  0  0  0  0  0  0  0  0
    8.1141  -15.7271   26.2235 O   0  0  0  0  0  0  0  0  0  0  0  0
   12.8319  -15.4148   24.5997 N   0  0  0  0  0  0  0  0  0  0  0  0
   12.0763  -16.2566   25.4182 C   0  0  0  0  0  0  0  0  0  0  0  0
   11.4277  -17.2050   24.8850 O   0  0  0  0  0  0  0  0  0  0  0  0
   11.9774  -16.1250   26.8695 C   0  0  0  0  0  0  0  0  0  0  0  0
   10.6237  -15.8297   27.4210 C   0  0  2  0  0  0  0  0  0  0  0  0
   10.1084  -14.6936   26.6348 N   0  0  0  0  0  0  0  0  0  0  0  0
   10.5804  -15.4351   28.8333 C   0  0  0  0  0  0  0  0  0  0  0  0
   10.8909  -16.2563   29.7241 O   0  0  0  0  0  0  0  0  0  0  0  0
   10.2024  -14.1682   29.2043 O   0  0  0  0  0  0  0  0  0  0  0  0
  1  2  1  0
  2  4  1  0
  3  2  2  0
  5  4  1  0
  6  7  1  6
  6  5  1  0
  8  9  2  0
  8  6  1  0
 10  8  1  0
 11 10  1  0
 11 14  1  0
 11 12  1  1
 13 12  1  0
 14 21  1  0
 15 14  2  0
 16 17  1  0
 17 19  1  0
 18 17  2  0
 20 19  1  6
 20 22  1  0
 21 20  1  0
 22 23  2  0
 22 24  1  0
M  END
$$$$
