QCN.pdb
     RDKit          3D

 24 23  0  0  1  0  0  0  0  0999 V2000
   10.1189  -19.8768   17.2591 N   0  0  0  0  0  0  0  0  0  0  0  0
   10.4623  -19.9503   18.6394 C   0  0  0  0  0  0  0  0  0  0  0  0
   11.4937  -20.5856   18.9373 O   0  0  0  0  0  0  0  0  0  0  0  0
    9.6430  -19.3141   19.6526 C   0  0  0  0  0  0  0  0  0  0  0  0
    8.4613  -18.5390   19.2269 C   0  0  0  0  0  0  0  0  0  0  0  0
    7.5852  -17.9626   20.2793 C   0  0  2  0  0  0  0  0  0  0  0  0
    6.3872  -17.3284   19.8486 N   0  0  0  0  0  0  0  0  0  0  0  0
    8.4125  -16.9732   21.0303 C   0  0  0  0  0  0  0  0  0  0  0  0
    9.0173  -16.1194   20.2961 O   0  0  0  0  0  0  0  0  0  0  0  0
    8.5692  -16.9134   22.4163 N   0  0  0  0  0  0  0  0  0  0  0  0
    9.5575  -15.9838   22.9649 C   0  0  1  0  0  0  0  0  0  0  0  0
    8.8768  -15.3923   24.2064 C   0  0  0  0  0  0  0  0  0  0  0  0
    8.0492  -16.7632   25.0433 S   0  0  0  0  0  0  0  0  0  0  0  0
   10.7693  -16.6871   23.4133 C   0  0  0  0  0  0  0  0  0  0  0  0
   10.8010  -17.9212   23.6822 O   0  0  0  0  0  0  0  0  0  0  0  0
   16.1632  -17.3952   23.0469 N   0  0  0  0  0  0  0  0  0  0  0  0
   15.6789  -16.1134   23.3156 C   0  0  0  0  0  0  0  0  0  0  0  0
   16.4904  -15.2251   23.7114 O   0  0  0  0  0  0  0  0  0  0  0  0
   14.2822  -15.7118   23.1696 C   0  0  0  0  0  0  0  0  0  0  0  0
   13.2628  -16.6118   23.7818 C   0  0  2  0  0  0  0  0  0  0  0  0
   11.9608  -15.9583   23.5537 N   0  0  0  0  0  0  0  0  0  0  0  0
   13.3900  -16.8330   25.2265 C   0  0  0  0  0  0  0  0  0  0  0  0
   14.3607  -17.4786   25.6794 O   0  0  0  0  0  0  0  0  0  0  0  0
   12.4558  -16.3407   26.1042 O   0  0  0  0  0  0  0  0  0  0  0  0
  1  2  1  0
  2  4  1  0
  3  2  2  0
  5  4  1  0
  6  7  1  6
  6  5  1  0
  8  9  2  0
  8  6  1  0
 10  8  1  0
 11 10  1  0
 11 14  1  0
 11 12  1  1
 13 12  1  0
 14 21  1  0
 15 14  2  0
 16 17  1  0
 17 19  1  0
 18 17  2  0
 20 19  1  1
 20 22  1  0
 21 20  1  0
 22 23  2  0
 22 24  1  0
M  END
$$$$
