TKL.pdb
     RDKit          3D

 25 24  0  0  1  0  0  0  0  0999 V2000
   22.8828  -13.9295  -15.9903 C   0  0  0  0  0  0  0  0  0  0  0  0
   22.6174  -14.4853  -17.3698 C   0  0  1  0  0  0  0  0  0  0  0  0
   23.0529  -15.7842  -17.5118 O   0  0  0  0  0  0  0  0  0  0  0  0
   21.1442  -14.3945  -17.6450 C   0  0  2  0  0  0  0  0  0  0  0  0
   20.8055  -14.9331  -18.9515 N   0  0  0  0  0  0  0  0  0  0  0  0
   20.6895  -12.9754  -17.6135 C   0  0  0  0  0  0  0  0  0  0  0  0
   21.0763  -12.1458  -18.4811 O   0  0  0  0  0  0  0  0  0  0  0  0
   19.8040  -12.4855  -16.6136 N   0  0  0  0  0  0  0  0  0  0  0  0
   19.4347  -11.0907  -16.5846 C   0  0  1  0  0  0  0  0  0  0  0  0
   18.0231  -10.8944  -16.0704 C   0  0  0  0  0  0  0  0  0  0  0  0
   17.0473  -11.4010  -17.1275 C   0  0  0  0  0  0  0  0  0  0  0  0
   15.6556  -11.1192  -16.5864 C   0  0  0  0  0  0  0  0  0  0  0  0
   14.5888  -11.5816  -17.5646 C   0  0  0  0  0  0  0  0  0  0  0  0
   13.3044  -11.3296  -16.9157 N   0  0  0  0  0  0  0  0  0  0  0  0
   20.3380  -10.4014  -15.5962 C   0  0  0  0  0  0  0  0  0  0  0  0
   20.2390  -10.7543  -14.3969 O   0  0  0  0  0  0  0  0  0  0  0  0
   25.5641   -9.9547  -16.6478 C   0  0  0  0  0  0  0  0  0  0  0  0
   24.2290  -10.0554  -15.9900 C   0  0  1  0  0  0  0  0  0  0  0  0
   24.3796  -11.0593  -14.8510 C   0  0  0  0  0  0  0  0  0  0  0  0
   23.5091   -8.8477  -15.6224 C   0  0  0  0  0  0  0  0  0  0  0  0
   22.1824   -8.8625  -14.9708 C   0  0  2  0  0  0  0  0  0  0  0  0
   21.2518   -9.4047  -16.0073 N   0  0  0  0  0  0  0  0  0  0  0  0
   21.6458   -7.5653  -14.5497 C   0  0  0  0  0  0  0  0  0  0  0  0
   21.9957   -6.9553  -13.3759 O   0  0  0  0  0  0  0  0  0  0  0  0
   20.8194   -6.9726  -15.2843 O   0  0  0  0  0  0  0  0  0  0  0  0
  2  1  1  1
  3  2  1  0
  4  2  1  0
  4  6  1  0
  4  5  1  6
  6  7  2  0
  8  9  1  0
  8  6  1  0
 10 11  1  0
  9 10  1  1
 11 12  1  0
 12 13  1  0
 13 14  1  0
 15 16  2  0
 15  9  1  0
 18 20  1  0
 18 17  1  1
 19 18  1  0
 21 20  1  6
 21 22  1  0
 21 23  1  0
 22 15  1  0
 23 25  2  0
 23 24  1  0
M  END
$$$$
