TKL.pdb
     RDKit          3D

 25 24  0  0  1  0  0  0  0  0999 V2000
   28.3391  -20.4972  -18.6098 C   0  0  0  0  0  0  0  0  0  0  0  0
   27.4938  -20.5602  -17.3592 C   0  0  1  0  0  0  0  0  0  0  0  0
   28.2498  -20.6415  -16.2109 O   0  0  0  0  0  0  0  0  0  0  0  0
   26.6105  -19.3468  -17.3192 C   0  0  2  0  0  0  0  0  0  0  0  0
   27.3835  -18.1164  -17.3342 N   0  0  0  0  0  0  0  0  0  0  0  0
   25.7812  -19.3402  -16.0807 C   0  0  0  0  0  0  0  0  0  0  0  0
   25.9902  -18.5054  -15.1587 O   0  0  0  0  0  0  0  0  0  0  0  0
   24.7205  -20.2654  -15.8741 N   0  0  0  0  0  0  0  0  0  0  0  0
   23.9250  -20.2083  -14.6715 C   0  0  1  0  0  0  0  0  0  0  0  0
   22.5468  -20.8017  -14.8814 C   0  0  0  0  0  0  0  0  0  0  0  0
   21.8110  -20.8032  -13.5455 C   0  0  0  0  0  0  0  0  0  0  0  0
   20.4632  -21.4544  -13.8071 C   0  0  0  0  0  0  0  0  0  0  0  0
   19.6047  -21.4483  -12.5533 C   0  0  0  0  0  0  0  0  0  0  0  0
   18.2925  -21.9487  -12.9558 N   0  0  0  0  0  0  0  0  0  0  0  0
   24.5985  -21.0732  -13.6389 C   0  0  0  0  0  0  0  0  0  0  0  0
   24.7940  -22.2732  -13.9459 O   0  0  0  0  0  0  0  0  0  0  0  0
   28.4533  -19.8633  -10.2858 C   0  0  0  0  0  0  0  0  0  0  0  0
   27.8567  -20.2406  -11.6000 C   0  0  1  0  0  0  0  0  0  0  0  0
   28.9746  -20.1328  -12.6326 C   0  0  0  0  0  0  0  0  0  0  0  0
   27.0611  -21.4514  -11.7140 C   0  0  0  0  0  0  0  0  0  0  0  0
   25.6144  -21.5008  -11.4149 C   0  0  2  0  0  0  0  0  0  0  0  0
   24.9892  -20.5510  -12.3851 N   0  0  0  0  0  0  0  0  0  0  0  0
   25.2086  -21.0721  -10.0735 C   0  0  0  0  0  0  0  0  0  0  0  0
   24.3427  -20.0370   -9.8478 O   0  0  0  0  0  0  0  0  0  0  0  0
   25.6718  -21.6664   -9.0703 O   0  0  0  0  0  0  0  0  0  0  0  0
  2  1  1  6
  3  2  1  0
  4  2  1  0
  4  6  1  0
  4  5  1  1
  6  7  2  0
  8  9  1  0
  8  6  1  0
 10 11  1  0
  9 10  1  6
 11 12  1  0
 12 13  1  0
 13 14  1  0
 15 16  2  0
 15  9  1  0
 18 20  1  0
 18 17  1  1
 19 18  1  0
 21 20  1  1
 21 22  1  0
 21 23  1  0
 22 15  1  0
 23 25  2  0
 23 24  1  0
M  END
$$$$
