TKL.pdb
     RDKit          3D

 25 24  0  0  1  0  0  0  0  0999 V2000
   22.4268  -11.1678  -14.1616 C   0  0  0  0  0  0  0  0  0  0  0  0
   23.2761  -11.3823  -15.3924 C   0  0  1  0  0  0  0  0  0  0  0  0
   24.2228  -12.3677  -15.2191 O   0  0  0  0  0  0  0  0  0  0  0  0
   22.3722  -11.7217  -16.5422 C   0  0  2  0  0  0  0  0  0  0  0  0
   23.1154  -11.8985  -17.7783 N   0  0  0  0  0  0  0  0  0  0  0  0
   21.3779  -10.6347  -16.7684 C   0  0  0  0  0  0  0  0  0  0  0  0
   21.6928   -9.5780  -17.3806 O   0  0  0  0  0  0  0  0  0  0  0  0
   20.0342  -10.7296  -16.3107 N   0  0  0  0  0  0  0  0  0  0  0  0
   19.0831   -9.6881  -16.6161 C   0  0  1  0  0  0  0  0  0  0  0  0
   17.6565  -10.1943  -16.5520 C   0  0  0  0  0  0  0  0  0  0  0  0
   16.7219   -9.0651  -16.9734 C   0  0  0  0  0  0  0  0  0  0  0  0
   15.3183   -9.6466  -16.9449 C   0  0  0  0  0  0  0  0  0  0  0  0
   14.3104   -8.6602  -17.5107 C   0  0  0  0  0  0  0  0  0  0  0  0
   12.9938   -9.2573  -17.3000 N   0  0  0  0  0  0  0  0  0  0  0  0
   19.2007   -8.6362  -15.5449 C   0  0  0  0  0  0  0  0  0  0  0  0
   19.4098   -9.0393  -14.3760 O   0  0  0  0  0  0  0  0  0  0  0  0
   22.8103   -4.8057  -13.8746 C   0  0  0  0  0  0  0  0  0  0  0  0
   21.3276   -4.9694  -13.8940 C   0  0  1  0  0  0  0  0  0  0  0  0
   20.7376   -3.5722  -14.0591 C   0  0  0  0  0  0  0  0  0  0  0  0
   20.7203   -5.9730  -14.7520 C   0  0  0  0  0  0  0  0  0  0  0  0
   19.2776   -6.2939  -14.7269 C   0  0  2  0  0  0  0  0  0  0  0  0
   19.0801   -7.2613  -15.8492 N   0  0  0  0  0  0  0  0  0  0  0  0
   18.3552   -5.1782  -14.9555 C   0  0  0  0  0  0  0  0  0  0  0  0
   17.9546   -4.7807  -16.2020 O   0  0  0  0  0  0  0  0  0  0  0  0
   17.9050   -4.5400  -13.9737 O   0  0  0  0  0  0  0  0  0  0  0  0
  2  1  1  1
  3  2  1  0
  4  2  1  0
  4  6  1  0
  4  5  1  6
  6  7  2  0
  8  9  1  0
  8  6  1  0
 10 11  1  0
  9 10  1  1
 11 12  1  0
 12 13  1  0
 13 14  1  0
 15 16  2  0
 15  9  1  0
 18 20  1  0
 18 17  1  6
 19 18  1  0
 21 20  1  6
 21 22  1  0
 21 23  1  0
 22 15  1  0
 23 25  2  0
 23 24  1  0
M  END
$$$$
