TKL.pdb
     RDKit          3D

 25 24  0  0  1  0  0  0  0  0999 V2000
   19.2920  -13.1237  -15.7477 C   0  0  0  0  0  0  0  0  0  0  0  0
   18.2341  -13.8949  -16.5017 C   0  0  1  0  0  0  0  0  0  0  0  0
   18.4696  -15.2519  -16.5082 O   0  0  0  0  0  0  0  0  0  0  0  0
   16.8977  -13.5988  -15.8848 C   0  0  2  0  0  0  0  0  0  0  0  0
   15.8308  -14.3518  -16.5223 N   0  0  0  0  0  0  0  0  0  0  0  0
   16.5661  -12.1517  -16.0170 C   0  0  0  0  0  0  0  0  0  0  0  0
   16.8113  -11.5196  -17.0804 O   0  0  0  0  0  0  0  0  0  0  0  0
   15.9614  -11.4134  -14.9619 N   0  0  0  0  0  0  0  0  0  0  0  0
   15.7822   -9.9862  -15.0782 C   0  0  1  0  0  0  0  0  0  0  0  0
   14.6390   -9.4920  -14.2155 C   0  0  0  0  0  0  0  0  0  0  0  0
   13.3252   -9.8188  -14.9179 C   0  0  0  0  0  0  0  0  0  0  0  0
   12.2250   -9.2339  -14.0481 C   0  0  0  0  0  0  0  0  0  0  0  0
   10.8587   -9.4678  -14.6705 C   0  0  0  0  0  0  0  0  0  0  0  0
    9.8925   -8.8192  -13.7873 N   0  0  0  0  0  0  0  0  0  0  0  0
   17.0250   -9.3264  -14.5414 C   0  0  0  0  0  0  0  0  0  0  0  0
   17.4449   -9.7289  -13.4304 O   0  0  0  0  0  0  0  0  0  0  0  0
   21.9106   -8.4513  -13.3856 C   0  0  0  0  0  0  0  0  0  0  0  0
   21.4071   -8.1759  -14.7625 C   0  0  1  0  0  0  0  0  0  0  0  0
   22.4290   -8.7706  -15.7268 C   0  0  0  0  0  0  0  0  0  0  0  0
   20.0270   -8.4777  -15.1035 C   0  0  0  0  0  0  0  0  0  0  0  0
   18.8805   -7.6796  -14.6202 C   0  0  2  0  0  0  0  0  0  0  0  0
   17.6821   -8.3025  -15.2606 N   0  0  0  0  0  0  0  0  0  0  0  0
   18.8717   -6.2600  -14.9844 C   0  0  0  0  0  0  0  0  0  0  0  0
   18.3563   -5.7920  -16.1623 O   0  0  0  0  0  0  0  0  0  0  0  0
   19.3617   -5.4181  -14.1938 O   0  0  0  0  0  0  0  0  0  0  0  0
  2  1  1  1
  3  2  1  0
  4  2  1  0
  4  6  1  0
  4  5  1  6
  6  7  2  0
  8  9  1  0
  8  6  1  0
 10 11  1  0
  9 10  1  1
 11 12  1  0
 12 13  1  0
 13 14  1  0
 15 16  2  0
 15  9  1  0
 18 20  1  0
 18 17  1  1
 19 18  1  0
 21 20  1  6
 21 22  1  0
 21 23  1  0
 22 15  1  0
 23 25  2  0
 23 24  1  0
M  END
$$$$
