YAS.pdb
     RDKit          3D

 24 24  0  0  1  0  0  0  0  0999 V2000
   26.4392  -34.6016  -14.8499 O   0  0  0  0  0  0  0  0  0  0  0  0
   26.8143  -33.2778  -15.1155 C   0  0  0  0  0  0  0  0  0  0  0  0
   28.0541  -32.8095  -14.7365 C   0  0  0  0  0  0  0  0  0  0  0  0
   28.4268  -31.4917  -15.0012 C   0  0  0  0  0  0  0  0  0  0  0  0
   27.5818  -30.6165  -15.6438 C   0  0  0  0  0  0  0  0  0  0  0  0
   27.9893  -29.2088  -15.9192 C   0  0  0  0  0  0  0  0  0  0  0  0
   28.8719  -29.1261  -17.1479 C   0  0  2  0  0  0  0  0  0  0  0  0
   30.0793  -29.9041  -16.9422 N   0  0  0  0  0  0  0  0  0  0  0  0
   29.2349  -27.7659  -17.5428 C   0  0  0  0  0  0  0  0  0  0  0  0
   30.3468  -27.3005  -17.2665 O   0  0  0  0  0  0  0  0  0  0  0  0
   26.3452  -31.0903  -16.0196 C   0  0  0  0  0  0  0  0  0  0  0  0
   25.9646  -32.4069  -15.7587 C   0  0  0  0  0  0  0  0  0  0  0  0
   28.7768  -24.6770  -17.4878 C   0  0  0  0  0  0  0  0  0  0  0  0
   28.6074  -25.6078  -18.6842 C   0  0  2  0  0  0  0  0  0  0  0  0
   28.3092  -26.9539  -18.2564 N   0  0  0  0  0  0  0  0  0  0  0  0
   29.8279  -25.5048  -19.5180 C   0  0  0  0  0  0  0  0  0  0  0  0
   30.2578  -24.3689  -19.8885 O   0  0  0  0  0  0  0  0  0  0  0  0
   33.9156  -27.4852  -21.2114 O   0  0  0  0  0  0  0  0  0  0  0  0
   32.7150  -27.6918  -20.5342 C   0  0  0  0  0  0  0  0  0  0  0  0
   31.7981  -26.5000  -20.7237 C   0  0  2  0  0  0  0  0  0  0  0  0
   30.5926  -26.6141  -19.9570 N   0  0  0  0  0  0  0  0  0  0  0  0
   31.6054  -26.2925  -22.1649 C   0  0  0  0  0  0  0  0  0  0  0  0
   30.8530  -27.0418  -22.8131 O   0  0  0  0  0  0  0  0  0  0  0  0
   32.2638  -25.2612  -22.7968 O   0  0  0  0  0  0  0  0  0  0  0  0
  1  2  1  0
  2 12  2  0
  2  3  1  0
  3  4  2  0
  4  5  1  0
  5  6  1  0
  7  6  1  0
  7  8  1  1
  9  7  1  0
  9 10  2  0
 11  5  2  0
 12 11  1  0
 14 13  1  1
 14 15  1  0
 14 16  1  0
 15  9  1  0
 16 17  2  0
 19 18  1  0
 20 19  1  6
 21 16  1  0
 21 20  1  0
 22 20  1  0
 22 24  1  0
 23 22  2  0
M  END
$$$$
