YAS.pdb
     RDKit          3D

 24 24  0  0  1  0  0  0  0  0999 V2000
   24.9858   -1.8049    2.3904 O   0  0  0  0  0  0  0  0  0  0  0  0
   24.8494   -1.2230    1.1229 C   0  0  0  0  0  0  0  0  0  0  0  0
   25.9533   -1.0104    0.3252 C   0  0  0  0  0  0  0  0  0  0  0  0
   25.8169   -0.4311   -0.9363 C   0  0  0  0  0  0  0  0  0  0  0  0
   24.5893   -0.0531   -1.4293 C   0  0  0  0  0  0  0  0  0  0  0  0
   24.4552    0.5681   -2.7783 C   0  0  0  0  0  0  0  0  0  0  0  0
   24.9211    2.0097   -2.7646 C   0  0  2  0  0  0  0  0  0  0  0  0
   24.0233    2.8113   -1.9542 N   0  0  0  0  0  0  0  0  0  0  0  0
   25.0498    2.6174   -4.0883 C   0  0  0  0  0  0  0  0  0  0  0  0
   24.1344    3.2982   -4.5655 O   0  0  0  0  0  0  0  0  0  0  0  0
   23.4909   -0.2681   -0.6278 C   0  0  0  0  0  0  0  0  0  0  0  0
   23.6187   -0.8469    0.6351 C   0  0  0  0  0  0  0  0  0  0  0  0
   27.8311    2.7695   -6.6786 C   0  0  0  0  0  0  0  0  0  0  0  0
   26.3897    2.9169   -6.2023 C   0  0  2  0  0  0  0  0  0  0  0  0
   26.2380    2.4347   -4.8501 N   0  0  0  0  0  0  0  0  0  0  0  0
   25.5139    2.2305   -7.1808 C   0  0  0  0  0  0  0  0  0  0  0  0
   25.2511    0.9950   -7.0504 O   0  0  0  0  0  0  0  0  0  0  0  0
   22.4206    3.9257   -8.9572 O   0  0  0  0  0  0  0  0  0  0  0  0
   23.0903    3.1551   -9.9060 C   0  0  0  0  0  0  0  0  0  0  0  0
   24.0425    2.1958   -9.2202 C   0  0  2  0  0  0  0  0  0  0  0  0
   24.9160    2.8618   -8.2996 N   0  0  0  0  0  0  0  0  0  0  0  0
   24.7143    1.3972  -10.2537 C   0  0  0  0  0  0  0  0  0  0  0  0
   25.9232    1.5676  -10.4933 O   0  0  0  0  0  0  0  0  0  0  0  0
   23.9972    0.4561  -10.9583 O   0  0  0  0  0  0  0  0  0  0  0  0
  1  2  1  0
  2 12  2  0
  2  3  1  0
  3  4  2  0
  4  5  1  0
  5  6  1  0
  7  6  1  0
  7  8  1  1
  9  7  1  0
  9 10  2  0
 11  5  2  0
 12 11  1  0
 14 13  1  6
 14 15  1  0
 14 16  1  0
 15  9  1  0
 16 17  2  0
 19 18  1  0
 20 19  1  6
 21 16  1  0
 21 20  1  0
 22 20  1  0
 22 24  1  0
 23 22  2  0
M  END
$$$$
