YAS.pdb
     RDKit          3D

 24 24  0  0  1  0  0  0  0  0999 V2000
   18.4054  -14.0477  -16.3245 O   0  0  0  0  0  0  0  0  0  0  0  0
   18.7523  -12.6976  -16.1815 C   0  0  0  0  0  0  0  0  0  0  0  0
   19.5900  -12.0875  -17.0905 C   0  0  0  0  0  0  0  0  0  0  0  0
   19.9350  -10.7436  -16.9475 C   0  0  0  0  0  0  0  0  0  0  0  0
   19.4584   -9.9817  -15.9057 C   0  0  0  0  0  0  0  0  0  0  0  0
   19.8359   -8.5464  -15.7608 C   0  0  0  0  0  0  0  0  0  0  0  0
   21.2945   -8.4013  -15.3775 C   0  0  2  0  0  0  0  0  0  0  0  0
   21.5065   -8.9148  -14.0371 N   0  0  0  0  0  0  0  0  0  0  0  0
   21.8092   -7.0351  -15.4585 C   0  0  0  0  0  0  0  0  0  0  0  0
   21.8653   -6.3175  -14.4530 O   0  0  0  0  0  0  0  0  0  0  0  0
   18.6224  -10.5968  -15.0015 C   0  0  0  0  0  0  0  0  0  0  0  0
   18.2724  -11.9405  -15.1372 C   0  0  0  0  0  0  0  0  0  0  0  0
   23.2853   -4.9289  -18.2649 C   0  0  0  0  0  0  0  0  0  0  0  0
   22.7355   -5.1560  -16.8604 C   0  0  2  0  0  0  0  0  0  0  0  0
   22.2574   -6.5090  -16.7027 N   0  0  0  0  0  0  0  0  0  0  0  0
   21.7021   -4.1258  -16.6033 C   0  0  0  0  0  0  0  0  0  0  0  0
   20.5063   -4.3060  -16.9905 O   0  0  0  0  0  0  0  0  0  0  0  0
   21.2942   -2.2540  -13.2897 O   0  0  0  0  0  0  0  0  0  0  0  0
   21.1363   -1.2842  -14.2782 C   0  0  0  0  0  0  0  0  0  0  0  0
   20.9215   -1.9439  -15.6258 C   0  0  2  0  0  0  0  0  0  0  0  0
   21.9429   -2.9017  -15.9313 N   0  0  0  0  0  0  0  0  0  0  0  0
   20.7333   -0.8885  -16.6297 C   0  0  0  0  0  0  0  0  0  0  0  0
   21.4990   -0.8062  -17.6068 O   0  0  0  0  0  0  0  0  0  0  0  0
   19.7018    0.0121  -16.4836 O   0  0  0  0  0  0  0  0  0  0  0  0
  1  2  1  0
  2 12  2  0
  2  3  1  0
  3  4  2  0
  4  5  1  0
  5  6  1  0
  7  6  1  0
  7  8  1  1
  9  7  1  0
  9 10  2  0
 11  5  2  0
 12 11  1  0
 14 13  1  6
 14 15  1  0
 14 16  1  0
 15  9  1  0
 16 17  2  0
 19 18  1  0
 20 19  1  1
 21 16  1  0
 21 20  1  0
 22 20  1  0
 22 24  1  0
 23 22  2  0
M  END
$$$$
