YAS.pdb
     RDKit          3D

 24 24  0  0  1  0  0  0  0  0999 V2000
   15.5971  -18.9396  -19.9193 O   0  0  0  0  0  0  0  0  0  0  0  0
   16.3468  -17.9301  -19.3010 C   0  0  0  0  0  0  0  0  0  0  0  0
   16.5386  -17.9337  -17.9359 C   0  0  0  0  0  0  0  0  0  0  0  0
   17.2850  -16.9285  -17.3210 C   0  0  0  0  0  0  0  0  0  0  0  0
   17.8531  -15.9049  -18.0438 C   0  0  0  0  0  0  0  0  0  0  0  0
   18.6467  -14.8337  -17.3759 C   0  0  0  0  0  0  0  0  0  0  0  0
   20.1320  -15.1205  -17.4613 C   0  0  2  0  0  0  0  0  0  0  0  0
   20.4437  -16.3336  -16.7287 N   0  0  0  0  0  0  0  0  0  0  0  0
   20.9872  -14.0347  -16.9843 C   0  0  0  0  0  0  0  0  0  0  0  0
   21.1712  -13.8567  -15.7745 O   0  0  0  0  0  0  0  0  0  0  0  0
   17.6577  -15.9070  -19.4065 C   0  0  0  0  0  0  0  0  0  0  0  0
   16.9127  -16.9087  -20.0294 C   0  0  0  0  0  0  0  0  0  0  0  0
   23.2968  -11.5422  -18.6676 C   0  0  0  0  0  0  0  0  0  0  0  0
   22.4462  -12.0465  -17.5064 C   0  0  2  0  0  0  0  0  0  0  0  0
   21.6254  -13.1630  -17.9109 N   0  0  0  0  0  0  0  0  0  0  0  0
   21.6719  -10.8995  -16.9768 C   0  0  0  0  0  0  0  0  0  0  0  0
   20.5400  -10.6063  -17.4719 O   0  0  0  0  0  0  0  0  0  0  0  0
   21.0992   -7.3501  -13.6802 O   0  0  0  0  0  0  0  0  0  0  0  0
   21.8905   -8.4075  -14.1254 C   0  0  0  0  0  0  0  0  0  0  0  0
   21.3785   -8.9163  -15.4581 C   0  0  2  0  0  0  0  0  0  0  0  0
   22.1038  -10.0642  -15.9169 N   0  0  0  0  0  0  0  0  0  0  0  0
   21.3366   -7.7870  -16.3962 C   0  0  0  0  0  0  0  0  0  0  0  0
   22.3092   -7.5453  -17.1334 O   0  0  0  0  0  0  0  0  0  0  0  0
   20.2118   -6.9948  -16.4560 O   0  0  0  0  0  0  0  0  0  0  0  0
  1  2  1  0
  2 12  2  0
  2  3  1  0
  3  4  2  0
  4  5  1  0
  5  6  1  0
  7  6  1  0
  7  8  1  1
  9  7  1  0
  9 10  2  0
 11  5  2  0
 12 11  1  0
 14 13  1  6
 14 15  1  0
 14 16  1  0
 15  9  1  0
 16 17  2  0
 19 18  1  0
 20 19  1  1
 21 16  1  0
 21 20  1  0
 22 20  1  0
 22 24  1  0
 23 22  2  0
M  END
$$$$
