YAS.pdb
     RDKit          3D

 24 24  0  0  1  0  0  0  0  0999 V2000
   27.8346  -19.7859   -6.0548 O   0  0  0  0  0  0  0  0  0  0  0  0
   27.4876  -19.9387   -7.4038 C   0  0  0  0  0  0  0  0  0  0  0  0
   27.6990  -21.1367   -8.0522 C   0  0  0  0  0  0  0  0  0  0  0  0
   27.3534  -21.2881   -9.3950 C   0  0  0  0  0  0  0  0  0  0  0  0
   26.7942  -20.2598  -10.1180 C   0  0  0  0  0  0  0  0  0  0  0  0
   26.4311  -20.4316  -11.5541 C   0  0  0  0  0  0  0  0  0  0  0  0
   24.9549  -20.1750  -11.7788 C   0  0  2  0  0  0  0  0  0  0  0  0
   24.1713  -21.2330  -11.1690 N   0  0  0  0  0  0  0  0  0  0  0  0
   24.5708  -20.0370  -13.1828 C   0  0  0  0  0  0  0  0  0  0  0  0
   24.4023  -21.0335  -13.8954 O   0  0  0  0  0  0  0  0  0  0  0  0
   26.5857  -19.0661   -9.4648 C   0  0  0  0  0  0  0  0  0  0  0  0
   26.9284  -18.9063   -8.1219 C   0  0  0  0  0  0  0  0  0  0  0  0
   23.9057  -17.0580  -15.4599 C   0  0  0  0  0  0  0  0  0  0  0  0
   24.1686  -18.5309  -15.1637 C   0  0  2  0  0  0  0  0  0  0  0  0
   24.3824  -18.7464  -13.7524 N   0  0  0  0  0  0  0  0  0  0  0  0
   25.3014  -18.9712  -16.0114 C   0  0  0  0  0  0  0  0  0  0  0  0
   26.3195  -19.5199  -15.4872 O   0  0  0  0  0  0  0  0  0  0  0  0
   25.8206  -22.1222  -18.9382 O   0  0  0  0  0  0  0  0  0  0  0  0
   25.2233  -21.1749  -18.1085 C   0  0  0  0  0  0  0  0  0  0  0  0
   25.8771  -19.8220  -18.3070 C   0  0  2  0  0  0  0  0  0  0  0  0
   25.3491  -18.8276  -17.4202 N   0  0  0  0  0  0  0  0  0  0  0  0
   25.8118  -19.4847  -19.7349 C   0  0  0  0  0  0  0  0  0  0  0  0
   24.7600  -19.0400  -20.2287 O   0  0  0  0  0  0  0  0  0  0  0  0
   26.9240  -19.6638  -20.5269 O   0  0  0  0  0  0  0  0  0  0  0  0
  1  2  1  0
  2 12  2  0
  2  3  1  0
  3  4  2  0
  4  5  1  0
  5  6  1  0
  7  6  1  0
  7  8  1  6
  9  7  1  0
  9 10  2  0
 11  5  2  0
 12 11  1  0
 14 13  1  1
 14 15  1  0
 14 16  1  0
 15  9  1  0
 16 17  2  0
 19 18  1  0
 20 19  1  6
 21 16  1  0
 21 20  1  0
 22 20  1  0
 22 24  1  0
 23 22  2  0
M  END
$$$$
