YAS.pdb
     RDKit          3D

 24 24  0  0  1  0  0  0  0  0999 V2000
   29.1870  -18.7278   -4.1183 O   0  0  0  0  0  0  0  0  0  0  0  0
   28.6237  -19.1816   -5.3185 C   0  0  0  0  0  0  0  0  0  0  0  0
   27.9837  -18.3060   -6.1694 C   0  0  0  0  0  0  0  0  0  0  0  0
   27.4233  -18.7584   -7.3638 C   0  0  0  0  0  0  0  0  0  0  0  0
   27.4860  -20.0813   -7.7365 C   0  0  0  0  0  0  0  0  0  0  0  0
   26.8809  -20.5547   -9.0145 C   0  0  0  0  0  0  0  0  0  0  0  0
   25.3844  -20.3188   -9.0306 C   0  0  2  0  0  0  0  0  0  0  0  0
   24.7488  -21.1069   -7.9912 N   0  0  0  0  0  0  0  0  0  0  0  0
   24.7403  -20.6007  -10.3127 C   0  0  0  0  0  0  0  0  0  0  0  0
   24.2930  -21.7258  -10.5642 O   0  0  0  0  0  0  0  0  0  0  0  0
   28.1264  -20.9506   -6.8825 C   0  0  0  0  0  0  0  0  0  0  0  0
   28.6896  -20.5063   -5.6859 C   0  0  0  0  0  0  0  0  0  0  0  0
   23.7224  -18.5045  -13.3051 C   0  0  0  0  0  0  0  0  0  0  0  0
   24.0933  -19.8152  -12.6189 C   0  0  2  0  0  0  0  0  0  0  0  0
   24.6165  -19.5778  -11.2946 N   0  0  0  0  0  0  0  0  0  0  0  0
   25.0284  -20.5456  -13.5063 C   0  0  0  0  0  0  0  0  0  0  0  0
   26.2559  -20.2233  -13.5492 O   0  0  0  0  0  0  0  0  0  0  0  0
   25.6339  -24.1988  -13.7873 O   0  0  0  0  0  0  0  0  0  0  0  0
   25.4577  -23.8066  -15.1131 C   0  0  0  0  0  0  0  0  0  0  0  0
   25.5618  -22.2989  -15.2288 C   0  0  2  0  0  0  0  0  0  0  0  0
   24.6554  -21.6222  -14.3488 N   0  0  0  0  0  0  0  0  0  0  0  0
   25.4436  -21.9372  -16.6473 C   0  0  0  0  0  0  0  0  0  0  0  0
   26.2087  -22.4392  -17.4902 O   0  0  0  0  0  0  0  0  0  0  0  0
   24.4787  -21.0370  -17.0408 O   0  0  0  0  0  0  0  0  0  0  0  0
  1  2  1  0
  2 12  2  0
  2  3  1  0
  3  4  2  0
  4  5  1  0
  5  6  1  0
  7  6  1  0
  7  8  1  1
  9  7  1  0
  9 10  2  0
 11  5  2  0
 12 11  1  0
 14 13  1  6
 14 15  1  0
 14 16  1  0
 15  9  1  0
 16 17  2  0
 19 18  1  0
 20 19  1  6
 21 16  1  0
 21 20  1  0
 22 20  1  0
 22 24  1  0
 23 22  2  0
M  END
$$$$
