YAS.pdb
     RDKit          3D

 24 24  0  0  1  0  0  0  0  0999 V2000
   28.6125  -19.8591   -5.3100 O   0  0  0  0  0  0  0  0  0  0  0  0
   28.1206  -19.9117   -6.6210 C   0  0  0  0  0  0  0  0  0  0  0  0
   28.9773  -20.0913   -7.6859 C   0  0  0  0  0  0  0  0  0  0  0  0
   28.4870  -20.1435   -8.9907 C   0  0  0  0  0  0  0  0  0  0  0  0
   27.1444  -20.0193   -9.2641 C   0  0  0  0  0  0  0  0  0  0  0  0
   26.6313  -20.0737  -10.6632 C   0  0  0  0  0  0  0  0  0  0  0  0
   26.0973  -21.4520  -10.9959 C   0  0  2  0  0  0  0  0  0  0  0  0
   27.1976  -22.3484  -11.2978 N   0  0  0  0  0  0  0  0  0  0  0  0
   25.1355  -21.4796  -12.0969 C   0  0  0  0  0  0  0  0  0  0  0  0
   25.5173  -21.4738  -13.2731 O   0  0  0  0  0  0  0  0  0  0  0  0
   26.2942  -19.8400   -8.1964 C   0  0  0  0  0  0  0  0  0  0  0  0
   26.7763  -19.7867   -6.8883 C   0  0  0  0  0  0  0  0  0  0  0  0
   21.3500  -21.8171  -12.2758 C   0  0  0  0  0  0  0  0  0  0  0  0
   22.7383  -21.5952  -12.8674 C   0  0  2  0  0  0  0  0  0  0  0  0
   23.7382  -21.5157  -11.8292 N   0  0  0  0  0  0  0  0  0  0  0  0
   22.6790  -20.3921  -13.7302 C   0  0  0  0  0  0  0  0  0  0  0  0
   22.7608  -19.2321  -13.2201 O   0  0  0  0  0  0  0  0  0  0  0  0
   22.5618  -20.5735  -17.9559 O   0  0  0  0  0  0  0  0  0  0  0  0
   23.1669  -19.4940  -17.3147 C   0  0  0  0  0  0  0  0  0  0  0  0
   22.5143  -19.2554  -15.9677 C   0  0  2  0  0  0  0  0  0  0  0  0
   22.5337  -20.4248  -15.1394 N   0  0  0  0  0  0  0  0  0  0  0  0
   21.1855  -18.6735  -16.1971 C   0  0  0  0  0  0  0  0  0  0  0  0
   20.1679  -19.2341  -15.7520 O   0  0  0  0  0  0  0  0  0  0  0  0
   21.0712  -17.5005  -16.9095 O   0  0  0  0  0  0  0  0  0  0  0  0
  1  2  1  0
  2 12  2  0
  2  3  1  0
  3  4  2  0
  4  5  1  0
  5  6  1  0
  7  6  1  0
  7  8  1  6
  9  7  1  0
  9 10  2  0
 11  5  2  0
 12 11  1  0
 14 13  1  1
 14 15  1  0
 14 16  1  0
 15  9  1  0
 16 17  2  0
 19 18  1  0
 20 19  1  6
 21 16  1  0
 21 20  1  0
 22 20  1  0
 22 24  1  0
 23 22  2  0
M  END
$$$$
