YAS.pdb
     RDKit          3D

 24 24  0  0  1  0  0  0  0  0999 V2000
   23.0844  -22.0221   -7.2721 O   0  0  0  0  0  0  0  0  0  0  0  0
   23.7235  -21.4346   -8.3721 C   0  0  0  0  0  0  0  0  0  0  0  0
   22.9887  -20.8539   -9.3836 C   0  0  0  0  0  0  0  0  0  0  0  0
   23.6255  -20.2693  -10.4783 C   0  0  0  0  0  0  0  0  0  0  0  0
   24.9965  -20.2490  -10.5911 C   0  0  0  0  0  0  0  0  0  0  0  0
   25.6669  -19.6238  -11.7673 C   0  0  0  0  0  0  0  0  0  0  0  0
   25.1685  -20.2272  -13.0646 C   0  0  2  0  0  0  0  0  0  0  0  0
   25.5207  -21.6335  -13.1227 N   0  0  0  0  0  0  0  0  0  0  0  0
   25.6540  -19.5573  -14.2703 C   0  0  0  0  0  0  0  0  0  0  0  0
   25.4624  -18.3482  -14.4450 O   0  0  0  0  0  0  0  0  0  0  0  0
   25.7245  -20.8306   -9.5778 C   0  0  0  0  0  0  0  0  0  0  0  0
   25.0955  -21.4173   -8.4795 C   0  0  0  0  0  0  0  0  0  0  0  0
   28.1691  -20.2321  -16.9130 C   0  0  0  0  0  0  0  0  0  0  0  0
   26.7923  -19.7110  -16.5141 C   0  0  2  0  0  0  0  0  0  0  0  0
   26.3597  -20.2910  -15.2649 N   0  0  0  0  0  0  0  0  0  0  0  0
   25.8647  -19.9652  -17.6412 C   0  0  0  0  0  0  0  0  0  0  0  0
   26.2801  -20.5324  -18.6986 O   0  0  0  0  0  0  0  0  0  0  0  0
   22.5395  -22.6767  -17.2114 O   0  0  0  0  0  0  0  0  0  0  0  0
   23.5019  -21.7237  -16.8823 C   0  0  0  0  0  0  0  0  0  0  0  0
   23.4282  -20.5549  -17.8444 C   0  0  2  0  0  0  0  0  0  0  0  0
   24.4915  -19.6157  -17.6413 N   0  0  0  0  0  0  0  0  0  0  0  0
   22.0739  -19.9903  -17.7792 C   0  0  0  0  0  0  0  0  0  0  0  0
   21.8995  -18.8153  -17.4094 O   0  0  0  0  0  0  0  0  0  0  0  0
   20.9949  -20.7704  -18.1308 O   0  0  0  0  0  0  0  0  0  0  0  0
  1  2  1  0
  2 12  2  0
  2  3  1  0
  3  4  2  0
  4  5  1  0
  5  6  1  0
  7  6  1  0
  7  8  1  6
  9  7  1  0
  9 10  2  0
 11  5  2  0
 12 11  1  0
 14 13  1  6
 14 15  1  0
 14 16  1  0
 15  9  1  0
 16 17  2  0
 19 18  1  0
 20 19  1  1
 21 16  1  0
 21 20  1  0
 22 20  1  0
 22 24  1  0
 23 22  2  0
M  END
$$$$
