YAS.pdb
     RDKit          3D

 24 24  0  0  1  0  0  0  0  0999 V2000
   21.2415  -16.2779  -20.5611 O   0  0  0  0  0  0  0  0  0  0  0  0
   21.4095  -15.0119  -19.9843 C   0  0  0  0  0  0  0  0  0  0  0  0
   21.2013  -14.8215  -18.6350 C   0  0  0  0  0  0  0  0  0  0  0  0
   21.3686  -13.5611  -18.0615 C   0  0  0  0  0  0  0  0  0  0  0  0
   21.7439  -12.4700  -18.8108 C   0  0  0  0  0  0  0  0  0  0  0  0
   21.9171  -11.1262  -18.1880 C   0  0  0  0  0  0  0  0  0  0  0  0
   23.3654  -10.6840  -18.2372 C   0  0  2  0  0  0  0  0  0  0  0  0
   24.1975  -11.6379  -17.5279 N   0  0  0  0  0  0  0  0  0  0  0  0
   23.6079   -9.3432  -17.7067 C   0  0  0  0  0  0  0  0  0  0  0  0
   23.8786   -9.1728  -16.5122 O   0  0  0  0  0  0  0  0  0  0  0  0
   21.9502  -12.6667  -20.1576 C   0  0  0  0  0  0  0  0  0  0  0  0
   21.7851  -13.9240  -20.7390 C   0  0  0  0  0  0  0  0  0  0  0  0
   23.8499   -5.8899  -19.2842 C   0  0  0  0  0  0  0  0  0  0  0  0
   23.7933   -6.8618  -18.1101 C   0  0  2  0  0  0  0  0  0  0  0  0
   23.5372   -8.2084  -18.5629 N   0  0  0  0  0  0  0  0  0  0  0  0
   22.7867   -6.3559  -17.1477 C   0  0  0  0  0  0  0  0  0  0  0  0
   21.5777   -6.7365  -17.2244 O   0  0  0  0  0  0  0  0  0  0  0  0
   21.7607   -4.0778  -12.9696 O   0  0  0  0  0  0  0  0  0  0  0  0
   22.7409   -4.4238  -13.8981 C   0  0  0  0  0  0  0  0  0  0  0  0
   22.0984   -5.0016  -15.1433 C   0  0  2  0  0  0  0  0  0  0  0  0
   23.0689   -5.4437  -16.1007 N   0  0  0  0  0  0  0  0  0  0  0  0
   21.1190   -4.0306  -15.6482 C   0  0  0  0  0  0  0  0  0  0  0  0
   21.4756   -3.1186  -16.4157 O   0  0  0  0  0  0  0  0  0  0  0  0
   19.7999   -4.1351  -15.2668 O   0  0  0  0  0  0  0  0  0  0  0  0
  1  2  1  0
  2 12  2  0
  2  3  1  0
  3  4  2  0
  4  5  1  0
  5  6  1  0
  7  6  1  0
  7  8  1  1
  9  7  1  0
  9 10  2  0
 11  5  2  0
 12 11  1  0
 14 13  1  6
 14 15  1  0
 14 16  1  0
 15  9  1  0
 16 17  2  0
 19 18  1  0
 20 19  1  1
 21 16  1  0
 21 20  1  0
 22 20  1  0
 22 24  1  0
 23 22  2  0
M  END
$$$$
