YAS.pdb
     RDKit          3D

 24 24  0  0  1  0  0  0  0  0999 V2000
   26.9153  -14.5520  -18.1049 O   0  0  0  0  0  0  0  0  0  0  0  0
   26.2451  -13.3737  -17.7498 C   0  0  0  0  0  0  0  0  0  0  0  0
   25.8969  -12.4473  -18.7093 C   0  0  0  0  0  0  0  0  0  0  0  0
   25.2299  -11.2746  -18.3552 C   0  0  0  0  0  0  0  0  0  0  0  0
   24.8965  -10.9986  -17.0492 C   0  0  0  0  0  0  0  0  0  0  0  0
   24.1859   -9.7404  -16.6813 C   0  0  0  0  0  0  0  0  0  0  0  0
   22.7268  -10.0073  -16.3727 C   0  0  2  0  0  0  0  0  0  0  0  0
   22.0836  -10.6211  -17.5194 N   0  0  0  0  0  0  0  0  0  0  0  0
   21.9670   -8.8255  -15.9678 C   0  0  0  0  0  0  0  0  0  0  0  0
   21.4579   -8.0787  -16.8117 O   0  0  0  0  0  0  0  0  0  0  0  0
   25.2471  -11.9277  -16.0958 C   0  0  0  0  0  0  0  0  0  0  0  0
   25.9142  -13.1032  -16.4415 C   0  0  0  0  0  0  0  0  0  0  0  0
   20.9507   -7.3616  -12.6041 C   0  0  0  0  0  0  0  0  0  0  0  0
   21.0972   -7.3452  -14.1222 C   0  0  2  0  0  0  0  0  0  0  0  0
   21.8000   -8.5168  -14.5885 N   0  0  0  0  0  0  0  0  0  0  0  0
   21.7479   -6.0697  -14.5035 C   0  0  0  0  0  0  0  0  0  0  0  0
   22.8769   -6.0741  -15.0847 O   0  0  0  0  0  0  0  0  0  0  0  0
   20.6735   -3.5785  -16.8817 O   0  0  0  0  0  0  0  0  0  0  0  0
   21.9241   -3.5763  -16.2664 C   0  0  0  0  0  0  0  0  0  0  0  0
   21.7633   -3.5678  -14.7593 C   0  0  2  0  0  0  0  0  0  0  0  0
   21.1941   -4.7872  -14.2663 N   0  0  0  0  0  0  0  0  0  0  0  0
   21.0449   -2.3441  -14.3803 C   0  0  0  0  0  0  0  0  0  0  0  0
   19.9088   -2.4119  -13.8779 O   0  0  0  0  0  0  0  0  0  0  0  0
   21.6372   -1.1178  -14.5843 O   0  0  0  0  0  0  0  0  0  0  0  0
  1  2  1  0
  2 12  2  0
  2  3  1  0
  3  4  2  0
  4  5  1  0
  5  6  1  0
  7  6  1  0
  7  8  1  6
  9  7  1  0
  9 10  2  0
 11  5  2  0
 12 11  1  0
 14 13  1  1
 14 15  1  0
 14 16  1  0
 15  9  1  0
 16 17  2  0
 19 18  1  0
 20 19  1  6
 21 16  1  0
 21 20  1  0
 22 20  1  0
 22 24  1  0
 23 22  2  0
M  END
$$$$
