CNA.pdb
     RDKit          3D

 20 19  0  0  1  0  0  0  0  0999 V2000
    7.9442  -15.2161   18.4727 N   0  0  0  0  0  0  0  0  0  0  0  0
    8.6269  -14.8731   19.7049 C   0  0  1  0  0  0  0  0  0  0  0  0
    9.1023  -13.4566   19.6857 C   0  0  0  0  0  0  0  0  0  0  0  0
    7.7219  -12.3036   19.5869 S   0  0  0  0  0  0  0  0  0  0  0  0
    7.7866  -15.1487   20.8829 C   0  0  0  0  0  0  0  0  0  0  0  0
    6.5316  -15.1472   20.7074 O   0  0  0  0  0  0  0  0  0  0  0  0
    7.2170  -18.3115   25.9353 N   0  0  0  0  0  0  0  0  0  0  0  0
    6.7614  -17.3978   24.9573 C   0  0  0  0  0  0  0  0  0  0  0  0
    5.6605  -16.8271   25.1238 O   0  0  0  0  0  0  0  0  0  0  0  0
    7.5584  -17.1202   23.7693 C   0  0  0  0  0  0  0  0  0  0  0  0
    7.4763  -15.6585   23.3388 C   0  0  2  0  0  0  0  0  0  0  0  0
    8.3044  -15.4108   22.1791 N   0  0  0  0  0  0  0  0  0  0  0  0
    8.0073  -14.8636   24.4691 C   0  0  0  0  0  0  0  0  0  0  0  0
    9.2326  -14.9058   24.7205 O   0  0  0  0  0  0  0  0  0  0  0  0
    6.7891  -12.1481   26.7595 C   0  0  0  0  0  0  0  0  0  0  0  0
    7.7465  -13.2414   26.3539 C   0  0  2  0  0  0  0  0  0  0  0  0
    7.1788  -14.0468   25.2891 N   0  0  0  0  0  0  0  0  0  0  0  0
    8.1376  -14.0979   27.4926 C   0  0  0  0  0  0  0  0  0  0  0  0
    7.8280  -15.3131   27.5453 O   0  0  0  0  0  0  0  0  0  0  0  0
    8.8648  -13.5557   28.5339 O   0  0  0  0  0  0  0  0  0  0  0  0
  2  1  1  6
  2  5  1  0
  3  2  1  0
  4  3  1  0
  5 12  1  0
  5  6  2  0
  7  8  1  0
  8 10  1  0
  8  9  2  0
 11 10  1  1
 11 13  1  0
 12 11  1  0
 13 14  2  0
 16 15  1  1
 16 18  1  0
 17 16  1  0
 17 13  1  0
 18 20  1  0
 19 18  2  0
M  END
$$$$
