CNA.pdb
     RDKit          3D

 20 19  0  0  1  0  0  0  0  0999 V2000
    7.7214  -15.0673   18.4400 N   0  0  0  0  0  0  0  0  0  0  0  0
    8.2582  -14.3319   19.5684 C   0  0  1  0  0  0  0  0  0  0  0  0
    7.7225  -12.9377   19.6119 C   0  0  0  0  0  0  0  0  0  0  0  0
    8.5210  -11.8904   18.3829 S   0  0  0  0  0  0  0  0  0  0  0  0
    8.0258  -15.0436   20.8369 C   0  0  0  0  0  0  0  0  0  0  0  0
    6.8635  -15.5100   21.0303 O   0  0  0  0  0  0  0  0  0  0  0  0
    8.7401  -19.3043   23.0608 N   0  0  0  0  0  0  0  0  0  0  0  0
    9.4593  -18.2283   22.4914 C   0  0  0  0  0  0  0  0  0  0  0  0
    9.8135  -18.2995   21.2935 O   0  0  0  0  0  0  0  0  0  0  0  0
    9.7866  -17.0499   23.2836 C   0  0  0  0  0  0  0  0  0  0  0  0
    8.7859  -15.9151   23.0842 C   0  0  2  0  0  0  0  0  0  0  0  0
    9.0210  -15.2286   21.8331 N   0  0  0  0  0  0  0  0  0  0  0  0
    9.0175  -14.9597   24.1909 C   0  0  0  0  0  0  0  0  0  0  0  0
   10.1726  -14.5177   24.3819 O   0  0  0  0  0  0  0  0  0  0  0  0
    6.9768  -12.8873   26.5581 C   0  0  0  0  0  0  0  0  0  0  0  0
    8.2453  -13.5829   26.1301 C   0  0  2  0  0  0  0  0  0  0  0  0
    7.9755  -14.5183   25.0544 N   0  0  0  0  0  0  0  0  0  0  0  0
    8.9160  -14.2710   27.2525 C   0  0  0  0  0  0  0  0  0  0  0  0
    9.0374  -15.5197   27.2873 O   0  0  0  0  0  0  0  0  0  0  0  0
    9.4276  -13.5281   28.2982 O   0  0  0  0  0  0  0  0  0  0  0  0
  2  1  1  6
  2  5  1  0
  3  2  1  0
  4  3  1  0
  5 12  1  0
  5  6  2  0
  7  8  1  0
  8 10  1  0
  8  9  2  0
 11 10  1  1
 11 13  1  0
 12 11  1  0
 13 14  2  0
 16 15  1  1
 16 18  1  0
 17 16  1  0
 17 13  1  0
 18 20  1  0
 19 18  2  0
M  END
$$$$
