CNA.pdb
     RDKit          3D

 20 19  0  0  1  0  0  0  0  0999 V2000
    7.0541  -18.5746   23.2169 N   0  0  0  0  0  0  0  0  0  0  0  0
    7.6464  -17.2676   23.4246 C   0  0  1  0  0  0  0  0  0  0  0  0
    6.7883  -16.4164   24.3031 C   0  0  0  0  0  0  0  0  0  0  0  0
    6.6045  -17.1423   25.9414 S   0  0  0  0  0  0  0  0  0  0  0  0
    9.0204  -17.3737   23.9446 C   0  0  0  0  0  0  0  0  0  0  0  0
    9.3649  -18.4896   24.4365 O   0  0  0  0  0  0  0  0  0  0  0  0
   12.9162  -17.3107   21.7357 N   0  0  0  0  0  0  0  0  0  0  0  0
   12.2621  -16.1100   22.0954 C   0  0  0  0  0  0  0  0  0  0  0  0
   11.6697  -15.4516   21.2117 O   0  0  0  0  0  0  0  0  0  0  0  0
   12.2742  -15.6403   23.4748 C   0  0  0  0  0  0  0  0  0  0  0  0
   11.3276  -16.4340   24.3708 C   0  0  2  0  0  0  0  0  0  0  0  0
    9.9585  -16.3077   23.9218 N   0  0  0  0  0  0  0  0  0  0  0  0
   11.4332  -15.8333   25.7196 C   0  0  0  0  0  0  0  0  0  0  0  0
   12.5510  -15.7898   26.2809 O   0  0  0  0  0  0  0  0  0  0  0  0
    9.4009  -13.6485   27.9510 C   0  0  0  0  0  0  0  0  0  0  0  0
   10.4602  -14.6986   27.7241 C   0  0  2  0  0  0  0  0  0  0  0  0
   10.3102  -15.2986   26.4117 N   0  0  0  0  0  0  0  0  0  0  0  0
   10.4509  -15.7425   28.7698 C   0  0  0  0  0  0  0  0  0  0  0  0
   10.1443  -16.9328   28.5158 O   0  0  0  0  0  0  0  0  0  0  0  0
   10.7876  -15.4094   30.0670 O   0  0  0  0  0  0  0  0  0  0  0  0
  2  1  1  1
  2  5  1  0
  3  2  1  0
  4  3  1  0
  5 12  1  0
  5  6  2  0
  7  8  1  0
  8 10  1  0
  8  9  2  0
 11 10  1  6
 11 13  1  0
 12 11  1  0
 13 14  2  0
 16 15  1  1
 16 18  1  0
 17 16  1  0
 17 13  1  0
 18 20  1  0
 19 18  2  0
M  END
$$$$
