CNA.pdb
     RDKit          3D

 20 19  0  0  1  0  0  0  0  0999 V2000
    8.1414  -15.1691   19.5629 N   0  0  0  0  0  0  0  0  0  0  0  0
    8.9895  -14.6065   20.5955 C   0  0  1  0  0  0  0  0  0  0  0  0
    8.8105  -13.1265   20.6982 C   0  0  0  0  0  0  0  0  0  0  0  0
    7.7528  -12.5017   19.3808 S   0  0  0  0  0  0  0  0  0  0  0  0
    8.7753  -15.2714   21.8923 C   0  0  0  0  0  0  0  0  0  0  0  0
    7.7082  -15.9417   22.0258 O   0  0  0  0  0  0  0  0  0  0  0  0
    9.1651  -19.1047   22.9879 N   0  0  0  0  0  0  0  0  0  0  0  0
   10.2036  -18.1817   22.7260 C   0  0  0  0  0  0  0  0  0  0  0  0
   10.7042  -18.1380   21.5802 O   0  0  0  0  0  0  0  0  0  0  0  0
   10.6888  -17.2908   23.7722 C   0  0  0  0  0  0  0  0  0  0  0  0
    9.7175  -16.1512   24.0663 C   0  0  2  0  0  0  0  0  0  0  0  0
    9.6881  -15.1991   22.9778 N   0  0  0  0  0  0  0  0  0  0  0  0
   10.2362  -15.4656   25.2714 C   0  0  0  0  0  0  0  0  0  0  0  0
   11.4734  -15.3949   25.4463 O   0  0  0  0  0  0  0  0  0  0  0  0
    8.9234  -13.3738   28.1032 C   0  0  0  0  0  0  0  0  0  0  0  0
    9.9268  -14.3000   27.4618 C   0  0  2  0  0  0  0  0  0  0  0  0
    9.3828  -14.8787   26.2476 N   0  0  0  0  0  0  0  0  0  0  0  0
   10.3773  -15.3654   28.3810 C   0  0  0  0  0  0  0  0  0  0  0  0
   10.0728  -16.5696   28.2006 O   0  0  0  0  0  0  0  0  0  0  0  0
   11.1561  -15.0375   29.4733 O   0  0  0  0  0  0  0  0  0  0  0  0
  2  1  1  6
  2  5  1  0
  3  2  1  0
  4  3  1  0
  5 12  1  0
  5  6  2  0
  7  8  1  0
  8 10  1  0
  8  9  2  0
 11 10  1  6
 11 13  1  0
 12 11  1  0
 13 14  2  0
 16 15  1  1
 16 18  1  0
 17 16  1  0
 17 13  1  0
 18 20  1  0
 19 18  2  0
M  END
$$$$
