CNA.pdb
     RDKit          3D

 20 19  0  0  1  0  0  0  0  0999 V2000
    7.2920  -14.4678   17.8933 N   0  0  0  0  0  0  0  0  0  0  0  0
    8.3387  -14.1935   18.8583 C   0  0  1  0  0  0  0  0  0  0  0  0
    7.9532  -13.0778   19.7746 C   0  0  0  0  0  0  0  0  0  0  0  0
    8.0766  -11.4809   18.9505 S   0  0  0  0  0  0  0  0  0  0  0  0
    8.7155  -15.4055   19.6057 C   0  0  0  0  0  0  0  0  0  0  0  0
    7.8182  -16.2863   19.7636 O   0  0  0  0  0  0  0  0  0  0  0  0
   13.4219  -19.0286   21.0164 N   0  0  0  0  0  0  0  0  0  0  0  0
   12.0647  -18.6921   20.8067 C   0  0  0  0  0  0  0  0  0  0  0  0
   11.1778  -19.5161   21.1226 O   0  0  0  0  0  0  0  0  0  0  0  0
   11.6975  -17.4049   20.2309 C   0  0  0  0  0  0  0  0  0  0  0  0
   10.3991  -16.8533   20.8129 C   0  0  2  0  0  0  0  0  0  0  0  0
   10.0092  -15.6300   20.1469 N   0  0  0  0  0  0  0  0  0  0  0  0
   10.6811  -16.5418   22.2323 C   0  0  0  0  0  0  0  0  0  0  0  0
   11.5854  -15.7216   22.5075 O   0  0  0  0  0  0  0  0  0  0  0  0
    8.9613  -16.9085   25.5115 C   0  0  0  0  0  0  0  0  0  0  0  0
   10.2088  -16.7407   24.6797 C   0  0  2  0  0  0  0  0  0  0  0  0
    9.9631  -17.1391   23.3064 N   0  0  0  0  0  0  0  0  0  0  0  0
   11.3584  -17.4863   25.2326 C   0  0  0  0  0  0  0  0  0  0  0  0
   11.8505  -18.4789   24.6428 O   0  0  0  0  0  0  0  0  0  0  0  0
   11.9148  -17.0878   26.4321 O   0  0  0  0  0  0  0  0  0  0  0  0
  2  1  1  6
  2  5  1  0
  3  2  1  0
  4  3  1  0
  5 12  1  0
  5  6  2  0
  7  8  1  0
  8 10  1  0
  8  9  2  0
 11 10  1  6
 11 13  1  0
 12 11  1  0
 13 14  2  0
 16 15  1  1
 16 18  1  0
 17 16  1  0
 17 13  1  0
 18 20  1  0
 19 18  2  0
M  END
$$$$
