CNA.pdb
     RDKit          3D

 20 19  0  0  1  0  0  0  0  0999 V2000
   14.3998  -16.6579   17.1003 N   0  0  0  0  0  0  0  0  0  0  0  0
   15.0153  -17.3290   18.2284 C   0  0  1  0  0  0  0  0  0  0  0  0
   16.2138  -18.1144   17.8046 C   0  0  0  0  0  0  0  0  0  0  0  0
   16.8164  -19.1620   19.1403 S   0  0  0  0  0  0  0  0  0  0  0  0
   15.3400  -16.3820   19.3089 C   0  0  0  0  0  0  0  0  0  0  0  0
   15.7160  -15.2222   18.9637 O   0  0  0  0  0  0  0  0  0  0  0  0
   12.9383  -14.9574   21.4966 N   0  0  0  0  0  0  0  0  0  0  0  0
   13.3114  -15.5283   22.7351 C   0  0  0  0  0  0  0  0  0  0  0  0
   12.4524  -15.6372   23.6382 O   0  0  0  0  0  0  0  0  0  0  0  0
   14.6761  -15.9855   22.9629 C   0  0  0  0  0  0  0  0  0  0  0  0
   15.5755  -15.7683   21.7493 C   0  0  2  0  0  0  0  0  0  0  0  0
   15.2537  -16.6995   20.6904 N   0  0  0  0  0  0  0  0  0  0  0  0
   16.9577  -16.0396   22.2046 C   0  0  0  0  0  0  0  0  0  0  0  0
   17.3019  -17.2206   22.4351 O   0  0  0  0  0  0  0  0  0  0  0  0
   20.2463  -14.3366   22.1548 C   0  0  0  0  0  0  0  0  0  0  0  0
   19.2849  -15.3222   22.7717 C   0  0  2  0  0  0  0  0  0  0  0  0
   17.9200  -15.0080   22.3931 N   0  0  0  0  0  0  0  0  0  0  0  0
   19.4083  -15.3833   24.2428 C   0  0  0  0  0  0  0  0  0  0  0  0
   18.5267  -14.9131   25.0023 O   0  0  0  0  0  0  0  0  0  0  0  0
   20.5218  -15.9727   24.8085 O   0  0  0  0  0  0  0  0  0  0  0  0
  2  1  1  6
  2  5  1  0
  3  2  1  0
  4  3  1  0
  5 12  1  0
  5  6  2  0
  7  8  1  0
  8 10  1  0
  8  9  2  0
 11 10  1  1
 11 13  1  0
 12 11  1  0
 13 14  2  0
 16 15  1  1
 16 18  1  0
 17 16  1  0
 17 13  1  0
 18 20  1  0
 19 18  2  0
M  END
$$$$
