CNA.pdb
     RDKit          3D

 20 19  0  0  1  0  0  0  0  0999 V2000
    7.6199  -13.4677   17.7030 N   0  0  0  0  0  0  0  0  0  0  0  0
    8.7839  -12.9556   18.3994 C   0  0  1  0  0  0  0  0  0  0  0  0
    8.3932  -12.2103   19.6342 C   0  0  0  0  0  0  0  0  0  0  0  0
    7.5248  -13.2777   20.7966 S   0  0  0  0  0  0  0  0  0  0  0  0
    9.7516  -14.0263   18.6938 C   0  0  0  0  0  0  0  0  0  0  0  0
    9.3188  -15.2170   18.6647 O   0  0  0  0  0  0  0  0  0  0  0  0
   14.0242  -16.8012   19.4527 N   0  0  0  0  0  0  0  0  0  0  0  0
   14.4396  -15.5211   19.0195 C   0  0  0  0  0  0  0  0  0  0  0  0
   15.6424  -15.3380   18.7281 O   0  0  0  0  0  0  0  0  0  0  0  0
   13.4845  -14.4257   18.9118 C   0  0  0  0  0  0  0  0  0  0  0  0
   12.0670  -14.8471   19.2882 C   0  0  2  0  0  0  0  0  0  0  0  0
   11.1182  -13.7935   19.0024 N   0  0  0  0  0  0  0  0  0  0  0  0
   12.0787  -15.0799   20.7501 C   0  0  0  0  0  0  0  0  0  0  0  0
   12.6899  -14.2763   21.4896 O   0  0  0  0  0  0  0  0  0  0  0  0
   10.0762  -16.8552   23.2710 C   0  0  0  0  0  0  0  0  0  0  0  0
   11.4183  -16.3547   22.7974 C   0  0  2  0  0  0  0  0  0  0  0  0
   11.4200  -16.1866   21.3563 N   0  0  0  0  0  0  0  0  0  0  0  0
   12.5271  -17.2388   23.2122 C   0  0  0  0  0  0  0  0  0  0  0  0
   12.7836  -17.4582   24.4210 O   0  0  0  0  0  0  0  0  0  0  0  0
   13.3098  -17.8460   22.2500 O   0  0  0  0  0  0  0  0  0  0  0  0
  2  1  1  1
  2  5  1  0
  3  2  1  0
  4  3  1  0
  5 12  1  0
  5  6  2  0
  7  8  1  0
  8 10  1  0
  8  9  2  0
 11 10  1  1
 11 13  1  0
 12 11  1  0
 13 14  2  0
 16 15  1  6
 16 18  1  0
 17 16  1  0
 17 13  1  0
 18 20  1  0
 19 18  2  0
M  END
$$$$
