CNA.pdb
     RDKit          3D

 20 19  0  0  1  0  0  0  0  0999 V2000
    5.0165  -19.3963   20.0493 N   0  0  0  0  0  0  0  0  0  0  0  0
    5.3416  -18.0397   20.4440 C   0  0  1  0  0  0  0  0  0  0  0  0
    4.2565  -17.4430   21.2802 C   0  0  0  0  0  0  0  0  0  0  0  0
    2.6415  -18.0953   20.8206 S   0  0  0  0  0  0  0  0  0  0  0  0
    6.6485  -17.9723   21.1201 C   0  0  0  0  0  0  0  0  0  0  0  0
    7.0317  -19.0111   21.7364 O   0  0  0  0  0  0  0  0  0  0  0  0
   10.2505  -16.1809   18.5790 N   0  0  0  0  0  0  0  0  0  0  0  0
   10.4015  -16.5998   19.9209 C   0  0  0  0  0  0  0  0  0  0  0  0
   11.1108  -17.5999   20.1699 O   0  0  0  0  0  0  0  0  0  0  0  0
    9.7427  -15.8807   21.0036 C   0  0  0  0  0  0  0  0  0  0  0  0
    8.7657  -16.7596   21.7795 C   0  0  2  0  0  0  0  0  0  0  0  0
    7.4827  -16.8229   21.1147 N   0  0  0  0  0  0  0  0  0  0  0  0
    8.5774  -16.1077   23.0951 C   0  0  0  0  0  0  0  0  0  0  0  0
    8.2151  -14.9105   23.1350 O   0  0  0  0  0  0  0  0  0  0  0  0
    7.1869  -16.0982   26.0195 C   0  0  0  0  0  0  0  0  0  0  0  0
    8.6347  -16.1016   25.5949 C   0  0  2  0  0  0  0  0  0  0  0  0
    8.7922  -16.7883   24.3266 N   0  0  0  0  0  0  0  0  0  0  0  0
    9.5192  -16.7001   26.6159 C   0  0  0  0  0  0  0  0  0  0  0  0
   10.2348  -17.7012   26.3688 O   0  0  0  0  0  0  0  0  0  0  0  0
    9.5675  -16.1498   27.8816 O   0  0  0  0  0  0  0  0  0  0  0  0
  2  1  1  1
  2  5  1  0
  3  2  1  0
  4  3  1  0
  5 12  1  0
  5  6  2  0
  7  8  1  0
  8 10  1  0
  8  9  2  0
 11 10  1  6
 11 13  1  0
 12 11  1  0
 13 14  2  0
 16 15  1  1
 16 18  1  0
 17 16  1  0
 17 13  1  0
 18 20  1  0
 19 18  2  0
M  END
$$$$
