YEY.pdb
     RDKit          3D

 34 35  0  0  1  0  0  0  0  0999 V2000
    6.4967  -12.1778   16.1289 O   0  0  0  0  0  0  0  0  0  0  0  0
    6.9581  -12.8817   17.2225 C   0  0  0  0  0  0  0  0  0  0  0  0
    8.2403  -13.4014   17.2057 C   0  0  0  0  0  0  0  0  0  0  0  0
    8.7210  -14.1113   18.2955 C   0  0  0  0  0  0  0  0  0  0  0  0
    7.9485  -14.3229   19.4226 C   0  0  0  0  0  0  0  0  0  0  0  0
    8.4700  -15.0844   20.5871 C   0  0  0  0  0  0  0  0  0  0  0  0
    8.5535  -16.5214   20.1945 C   0  0  2  0  0  0  0  0  0  0  0  0
    7.2441  -17.0497   19.9840 N   0  0  0  0  0  0  0  0  0  0  0  0
    9.2941  -17.3537   21.1910 C   0  0  0  0  0  0  0  0  0  0  0  0
    8.7149  -17.7315   22.2419 O   0  0  0  0  0  0  0  0  0  0  0  0
    6.6673  -13.7974   19.4263 C   0  0  0  0  0  0  0  0  0  0  0  0
    6.1853  -13.0902   18.3433 C   0  0  0  0  0  0  0  0  0  0  0  0
   10.6371  -17.7431   21.0060 N   0  0  0  0  0  0  0  0  0  0  0  0
   11.4258  -18.4321   21.9905 C   0  0  1  0  0  0  0  0  0  0  0  0
   12.8133  -18.7415   21.4705 C   0  0  0  0  0  0  0  0  0  0  0  0
   13.6377  -19.4946   22.4847 C   0  0  0  0  0  0  0  0  0  0  0  0
   14.9721  -19.7745   21.9031 C   0  0  0  0  0  0  0  0  0  0  0  0
   15.3839  -20.9526   21.7783 O   0  0  0  0  0  0  0  0  0  0  0  0
   11.6266  -17.5790   23.2159 C   0  0  0  0  0  0  0  0  0  0  0  0
   12.0919  -16.4148   23.1249 O   0  0  0  0  0  0  0  0  0  0  0  0
   15.7950  -18.7444   21.4842 O   0  0  0  0  0  0  0  0  0  0  0  0
   10.6564  -14.1597   31.2418 O   0  0  0  0  0  0  0  0  0  0  0  0
   10.5038  -14.8448   30.0330 C   0  0  0  0  0  0  0  0  0  0  0  0
   10.5639  -16.2204   29.9956 C   0  0  0  0  0  0  0  0  0  0  0  0
   10.4095  -16.8854   28.7813 C   0  0  0  0  0  0  0  0  0  0  0  0
   10.1962  -16.2344   27.5952 C   0  0  0  0  0  0  0  0  0  0  0  0
   10.0317  -16.9713   26.3181 C   0  0  0  0  0  0  0  0  0  0  0  0
   11.3903  -17.1984   25.6909 C   0  0  2  0  0  0  0  0  0  0  0  0
   11.3028  -18.0454   24.5201 N   0  0  0  0  0  0  0  0  0  0  0  0
   12.3335  -17.8074   26.6467 C   0  0  0  0  0  0  0  0  0  0  0  0
   13.2579  -16.9987   27.2859 O   0  0  0  0  0  0  0  0  0  0  0  0
   10.1373  -14.8432   27.6449 C   0  0  0  0  0  0  0  0  0  0  0  0
   10.2895  -14.1802   28.8438 C   0  0  0  0  0  0  0  0  0  0  0  0
   12.3676  -19.0313   26.9357 O   0  0  0  0  0  0  0  0  0  0  0  0
  2  1  1  0
  3  2  2  0
  4  3  1  0
  5  4  2  0
  5 11  1  0
  6  5  1  0
  7  6  1  0
  7  8  1  1
  9  7  1  0
  9 10  2  0
 11 12  2  0
 12  2  1  0
 13  9  1  0
 14 13  1  0
 14 15  1  6
 15 16  1  0
 16 17  1  0
 17 21  1  0
 18 17  2  0
 19 14  1  0
 20 19  2  0
 23 22  1  0
 23 24  2  0
 25 24  1  0
 26 25  2  0
 27 26  1  0
 28 27  1  1
 28 29  1  0
 29 19  1  0
 30 31  1  0
 30 28  1  0
 32 33  2  0
 32 26  1  0
 33 23  1  0
 34 30  2  0
M  END
$$$$
