YEY.pdb
     RDKit          3D

 34 35  0  0  1  0  0  0  0  0999 V2000
    6.7025  -11.9849   16.3594 O   0  0  0  0  0  0  0  0  0  0  0  0
    7.1446  -12.7478   17.4209 C   0  0  0  0  0  0  0  0  0  0  0  0
    8.4678  -13.1496   17.4658 C   0  0  0  0  0  0  0  0  0  0  0  0
    8.9299  -13.9164   18.5247 C   0  0  0  0  0  0  0  0  0  0  0  0
    8.0979  -14.3022   19.5595 C   0  0  0  0  0  0  0  0  0  0  0  0
    8.5997  -15.1239   20.6913 C   0  0  0  0  0  0  0  0  0  0  0  0
    9.0935  -16.4171   20.1349 C   0  0  2  0  0  0  0  0  0  0  0  0
    8.0353  -17.0972   19.4599 N   0  0  0  0  0  0  0  0  0  0  0  0
    9.6988  -17.3036   21.1751 C   0  0  0  0  0  0  0  0  0  0  0  0
    8.9692  -17.8049   22.0691 O   0  0  0  0  0  0  0  0  0  0  0  0
    6.7760  -13.8933   19.5022 C   0  0  0  0  0  0  0  0  0  0  0  0
    6.3125  -13.1301   18.4498 C   0  0  0  0  0  0  0  0  0  0  0  0
   11.0751  -17.6109   21.2030 N   0  0  0  0  0  0  0  0  0  0  0  0
   11.7091  -18.4063   22.2185 C   0  0  1  0  0  0  0  0  0  0  0  0
   13.1186  -18.7899   21.8214 C   0  0  0  0  0  0  0  0  0  0  0  0
   13.9714  -17.5782   21.5384 C   0  0  0  0  0  0  0  0  0  0  0  0
   15.3092  -18.0299   21.0874 C   0  0  0  0  0  0  0  0  0  0  0  0
   16.3518  -17.5866   21.6253 O   0  0  0  0  0  0  0  0  0  0  0  0
   11.8401  -17.6350   23.5060 C   0  0  0  0  0  0  0  0  0  0  0  0
   12.2049  -16.4321   23.5056 O   0  0  0  0  0  0  0  0  0  0  0  0
   15.4403  -18.9506   20.0632 O   0  0  0  0  0  0  0  0  0  0  0  0
   10.7963  -14.3114   31.4689 O   0  0  0  0  0  0  0  0  0  0  0  0
   10.6714  -14.9678   30.2411 C   0  0  0  0  0  0  0  0  0  0  0  0
   10.5949  -16.3421   30.1866 C   0  0  0  0  0  0  0  0  0  0  0  0
   10.4706  -16.9782   28.9535 C   0  0  0  0  0  0  0  0  0  0  0  0
   10.4188  -16.2994   27.7649 C   0  0  0  0  0  0  0  0  0  0  0  0
   10.2824  -17.0056   26.4673 C   0  0  0  0  0  0  0  0  0  0  0  0
   11.6441  -17.4812   26.0088 C   0  0  2  0  0  0  0  0  0  0  0  0
   11.5603  -18.2250   24.7697 N   0  0  0  0  0  0  0  0  0  0  0  0
   12.2934  -18.3279   27.0265 C   0  0  0  0  0  0  0  0  0  0  0  0
   13.1276  -17.7360   27.9598 O   0  0  0  0  0  0  0  0  0  0  0  0
   10.4972  -14.9099   27.8320 C   0  0  0  0  0  0  0  0  0  0  0  0
   10.6203  -14.2754   29.0496 C   0  0  0  0  0  0  0  0  0  0  0  0
   12.1477  -19.5741   27.1182 O   0  0  0  0  0  0  0  0  0  0  0  0
  2  1  1  0
  3  2  2  0
  4  3  1  0
  5  4  2  0
  5 11  1  0
  6  5  1  0
  7  6  1  0
  7  8  1  1
  9  7  1  0
  9 10  2  0
 11 12  2  0
 12  2  1  0
 13  9  1  0
 14 13  1  0
 14 15  1  6
 15 16  1  0
 16 17  1  0
 17 21  1  0
 18 17  2  0
 19 14  1  0
 20 19  2  0
 23 22  1  0
 23 24  2  0
 25 24  1  0
 26 25  2  0
 27 26  1  0
 28 27  1  1
 28 29  1  0
 29 19  1  0
 30 31  1  0
 30 28  1  0
 32 33  2  0
 32 26  1  0
 33 23  1  0
 34 30  2  0
M  END
$$$$
