YEY.pdb
     RDKit          3D

 34 35  0  0  1  0  0  0  0  0999 V2000
    8.5017  -11.1508   18.4454 O   0  0  0  0  0  0  0  0  0  0  0  0
    8.1857  -12.3535   19.0436 C   0  0  0  0  0  0  0  0  0  0  0  0
    6.8857  -12.8232   18.9822 C   0  0  0  0  0  0  0  0  0  0  0  0
    6.5497  -14.0298   19.5774 C   0  0  0  0  0  0  0  0  0  0  0  0
    7.4873  -14.7967   20.2442 C   0  0  0  0  0  0  0  0  0  0  0  0
    7.1204  -16.0888   20.8797 C   0  0  0  0  0  0  0  0  0  0  0  0
    7.7119  -17.1865   20.0604 C   0  0  2  0  0  0  0  0  0  0  0  0
    6.6804  -18.0409   19.5664 N   0  0  0  0  0  0  0  0  0  0  0  0
    8.7319  -17.9839   20.8074 C   0  0  0  0  0  0  0  0  0  0  0  0
    8.3660  -18.9542   21.5196 O   0  0  0  0  0  0  0  0  0  0  0  0
    8.7845  -14.3150   20.2981 C   0  0  0  0  0  0  0  0  0  0  0  0
    9.1227  -13.1145   19.7069 C   0  0  0  0  0  0  0  0  0  0  0  0
   10.1112  -17.6950   20.7509 N   0  0  0  0  0  0  0  0  0  0  0  0
   11.0906  -18.2295   21.6569 C   0  0  1  0  0  0  0  0  0  0  0  0
   12.4727  -18.2324   21.0394 C   0  0  0  0  0  0  0  0  0  0  0  0
   12.5546  -19.1580   19.8512 C   0  0  0  0  0  0  0  0  0  0  0  0
   13.7333  -18.7838   19.0340 C   0  0  0  0  0  0  0  0  0  0  0  0
   14.3887  -19.6558   18.4151 O   0  0  0  0  0  0  0  0  0  0  0  0
   11.1969  -17.3834   22.8990 C   0  0  0  0  0  0  0  0  0  0  0  0
   11.3417  -16.1371   22.8225 O   0  0  0  0  0  0  0  0  0  0  0  0
   14.1390  -17.4650   18.9342 O   0  0  0  0  0  0  0  0  0  0  0  0
   11.0388  -14.3228   31.0953 O   0  0  0  0  0  0  0  0  0  0  0  0
   10.7877  -14.9726   29.8835 C   0  0  0  0  0  0  0  0  0  0  0  0
   10.4419  -14.2524   28.7615 C   0  0  0  0  0  0  0  0  0  0  0  0
   10.1954  -14.9179   27.5627 C   0  0  0  0  0  0  0  0  0  0  0  0
   10.2794  -16.2789   27.4333 C   0  0  0  0  0  0  0  0  0  0  0  0
   10.0144  -16.9586   26.1414 C   0  0  0  0  0  0  0  0  0  0  0  0
   11.3196  -17.1558   25.4008 C   0  0  2  0  0  0  0  0  0  0  0  0
   11.1391  -17.9485   24.2030 N   0  0  0  0  0  0  0  0  0  0  0  0
   12.3325  -17.8069   26.2516 C   0  0  0  0  0  0  0  0  0  0  0  0
   12.3809  -19.1899   26.2996 O   0  0  0  0  0  0  0  0  0  0  0  0
   10.6297  -16.9973   28.5746 C   0  0  0  0  0  0  0  0  0  0  0  0
   10.8746  -16.3437   29.7633 C   0  0  0  0  0  0  0  0  0  0  0  0
   13.1766  -17.1937   26.9545 O   0  0  0  0  0  0  0  0  0  0  0  0
  2  1  1  0
  3  2  2  0
  4  3  1  0
  5  4  2  0
  5 11  1  0
  6  5  1  0
  7  6  1  0
  7  8  1  1
  9  7  1  0
  9 10  2  0
 11 12  2  0
 12  2  1  0
 13  9  1  0
 14 13  1  0
 14 15  1  6
 15 16  1  0
 16 17  1  0
 17 21  1  0
 18 17  2  0
 19 14  1  0
 20 19  2  0
 23 22  1  0
 23 24  2  0
 25 24  1  0
 26 25  2  0
 27 26  1  0
 28 27  1  1
 28 29  1  0
 29 19  1  0
 30 31  1  0
 30 28  1  0
 32 33  2  0
 32 26  1  0
 33 23  1  0
 34 30  2  0
M  END
$$$$
