YEY.pdb
     RDKit          3D

 34 35  0  0  1  0  0  0  0  0999 V2000
    7.2641  -12.5492   16.5854 O   0  0  0  0  0  0  0  0  0  0  0  0
    7.3071  -13.0956   17.8519 C   0  0  0  0  0  0  0  0  0  0  0  0
    6.7361  -14.3355   18.0778 C   0  0  0  0  0  0  0  0  0  0  0  0
    6.7699  -14.9002   19.3438 C   0  0  0  0  0  0  0  0  0  0  0  0
    7.3667  -14.2550   20.4113 C   0  0  0  0  0  0  0  0  0  0  0  0
    7.3994  -14.8661   21.7653 C   0  0  0  0  0  0  0  0  0  0  0  0
    8.7988  -15.3081   22.0347 C   0  0  2  0  0  0  0  0  0  0  0  0
    9.3100  -16.0299   20.9142 N   0  0  0  0  0  0  0  0  0  0  0  0
    8.9195  -16.1283   23.2785 C   0  0  0  0  0  0  0  0  0  0  0  0
    7.9883  -16.1199   24.1243 O   0  0  0  0  0  0  0  0  0  0  0  0
    7.9343  -13.0149   20.1713 C   0  0  0  0  0  0  0  0  0  0  0  0
    7.9026  -12.4496   18.9126 C   0  0  0  0  0  0  0  0  0  0  0  0
   10.0492  -16.9264   23.5545 N   0  0  0  0  0  0  0  0  0  0  0  0
   10.2349  -17.6804   24.7640 C   0  0  1  0  0  0  0  0  0  0  0  0
   11.4186  -18.6178   24.6557 C   0  0  0  0  0  0  0  0  0  0  0  0
   11.5117  -19.5435   25.8431 C   0  0  0  0  0  0  0  0  0  0  0  0
   12.6548  -20.4656   25.6418 C   0  0  0  0  0  0  0  0  0  0  0  0
   12.4698  -21.6993   25.5136 O   0  0  0  0  0  0  0  0  0  0  0  0
   10.5353  -16.7712   25.9271 C   0  0  0  0  0  0  0  0  0  0  0  0
   11.4314  -15.8933   25.8477 O   0  0  0  0  0  0  0  0  0  0  0  0
   13.9522  -19.9882   25.5904 O   0  0  0  0  0  0  0  0  0  0  0  0
    7.0732  -11.8276   24.6146 O   0  0  0  0  0  0  0  0  0  0  0  0
    7.5281  -12.6661   25.6364 C   0  0  0  0  0  0  0  0  0  0  0  0
    6.9569  -13.9041   25.8323 C   0  0  0  0  0  0  0  0  0  0  0  0
    7.4240  -14.7256   26.8560 C   0  0  0  0  0  0  0  0  0  0  0  0
    8.4422  -14.3642   27.6977 C   0  0  0  0  0  0  0  0  0  0  0  0
    8.9201  -15.2632   28.7768 C   0  0  0  0  0  0  0  0  0  0  0  0
   10.1373  -16.0229   28.2952 C   0  0  2  0  0  0  0  0  0  0  0  0
    9.8269  -16.8622   27.1573 N   0  0  0  0  0  0  0  0  0  0  0  0
   10.7083  -16.8645   29.3628 C   0  0  0  0  0  0  0  0  0  0  0  0
   11.1436  -16.2633   30.5316 O   0  0  0  0  0  0  0  0  0  0  0  0
    9.0124  -13.1099   27.4904 C   0  0  0  0  0  0  0  0  0  0  0  0
    8.5540  -12.2930   26.4791 C   0  0  0  0  0  0  0  0  0  0  0  0
   10.8354  -18.1144   29.2966 O   0  0  0  0  0  0  0  0  0  0  0  0
  2  1  1  0
  3  2  2  0
  4  3  1  0
  5  4  2  0
  5 11  1  0
  6  5  1  0
  7  6  1  0
  7  8  1  6
  9  7  1  0
  9 10  2  0
 11 12  2  0
 12  2  1  0
 13  9  1  0
 14 13  1  0
 14 15  1  6
 15 16  1  0
 16 17  1  0
 17 21  1  0
 18 17  2  0
 19 14  1  0
 20 19  2  0
 23 22  1  0
 23 24  2  0
 25 24  1  0
 26 25  2  0
 27 26  1  0
 28 27  1  1
 28 29  1  0
 29 19  1  0
 30 31  1  0
 30 28  1  0
 32 33  2  0
 32 26  1  0
 33 23  1  0
 34 30  2  0
M  END
$$$$
