YEY.pdb
     RDKit          3D

 34 35  0  0  1  0  0  0  0  0999 V2000
    6.8673  -12.8494   16.2937 O   0  0  0  0  0  0  0  0  0  0  0  0
    6.9315  -13.4054   17.5551 C   0  0  0  0  0  0  0  0  0  0  0  0
    7.2984  -12.6145   18.6294 C   0  0  0  0  0  0  0  0  0  0  0  0
    7.3682  -13.1559   19.9042 C   0  0  0  0  0  0  0  0  0  0  0  0
    7.0780  -14.4861   20.1452 C   0  0  0  0  0  0  0  0  0  0  0  0
    7.1546  -15.0597   21.5139 C   0  0  0  0  0  0  0  0  0  0  0  0
    8.5756  -14.9863   21.9624 C   0  0  2  0  0  0  0  0  0  0  0  0
    9.4471  -15.3643   20.8968 N   0  0  0  0  0  0  0  0  0  0  0  0
    8.8462  -15.8196   23.1735 C   0  0  0  0  0  0  0  0  0  0  0  0
    8.0563  -15.7740   24.1515 O   0  0  0  0  0  0  0  0  0  0  0  0
    6.7122  -15.2663   19.0612 C   0  0  0  0  0  0  0  0  0  0  0  0
    6.6417  -14.7310   17.7910 C   0  0  0  0  0  0  0  0  0  0  0  0
    9.9663  -16.6709   23.2741 N   0  0  0  0  0  0  0  0  0  0  0  0
   10.2440  -17.5177   24.4018 C   0  0  1  0  0  0  0  0  0  0  0  0
   11.4659  -18.3780   24.1605 C   0  0  0  0  0  0  0  0  0  0  0  0
   11.6690  -19.3866   25.2636 C   0  0  0  0  0  0  0  0  0  0  0  0
   12.8427  -20.2286   24.9313 C   0  0  0  0  0  0  0  0  0  0  0  0
   12.6961  -21.3476   24.3842 O   0  0  0  0  0  0  0  0  0  0  0  0
   10.5526  -16.6999   25.6289 C   0  0  0  0  0  0  0  0  0  0  0  0
   11.3994  -15.7717   25.5919 O   0  0  0  0  0  0  0  0  0  0  0  0
   14.1273  -19.8014   25.2163 O   0  0  0  0  0  0  0  0  0  0  0  0
    6.9311  -11.7154   25.0774 O   0  0  0  0  0  0  0  0  0  0  0  0
    7.4577  -12.6526   25.9708 C   0  0  0  0  0  0  0  0  0  0  0  0
    6.9219  -13.9189   26.0534 C   0  0  0  0  0  0  0  0  0  0  0  0
    7.4605  -14.8391   26.9500 C   0  0  0  0  0  0  0  0  0  0  0  0
    8.5167  -14.5499   27.7727 C   0  0  0  0  0  0  0  0  0  0  0  0
    9.0707  -15.5532   28.7148 C   0  0  0  0  0  0  0  0  0  0  0  0
   10.2696  -16.2272   28.0830 C   0  0  2  0  0  0  0  0  0  0  0  0
    9.9075  -16.9368   26.8743 N   0  0  0  0  0  0  0  0  0  0  0  0
   10.9122  -17.1735   29.0134 C   0  0  0  0  0  0  0  0  0  0  0  0
   11.0847  -18.4897   28.6199 O   0  0  0  0  0  0  0  0  0  0  0  0
    9.0506  -13.2662   27.6806 C   0  0  0  0  0  0  0  0  0  0  0  0
    8.5214  -12.3518   26.7953 C   0  0  0  0  0  0  0  0  0  0  0  0
   11.3263  -16.8753   30.1632 O   0  0  0  0  0  0  0  0  0  0  0  0
  2  1  1  0
  3  2  2  0
  4  3  1  0
  5  4  2  0
  5 11  1  0
  6  5  1  0
  7  6  1  0
  7  8  1  6
  9  7  1  0
  9 10  2  0
 11 12  2  0
 12  2  1  0
 13  9  1  0
 14 13  1  0
 14 15  1  6
 15 16  1  0
 16 17  1  0
 17 21  1  0
 18 17  2  0
 19 14  1  0
 20 19  2  0
 23 22  1  0
 23 24  2  0
 25 24  1  0
 26 25  2  0
 27 26  1  0
 28 27  1  1
 28 29  1  0
 29 19  1  0
 30 31  1  0
 30 28  1  0
 32 33  2  0
 32 26  1  0
 33 23  1  0
 34 30  2  0
M  END
$$$$
