YEY.pdb
     RDKit          3D

 34 35  0  0  1  0  0  0  0  0999 V2000
    7.4680  -11.9614   17.3758 O   0  0  0  0  0  0  0  0  0  0  0  0
    7.5795  -12.6313   18.5771 C   0  0  0  0  0  0  0  0  0  0  0  0
    6.5133  -13.3826   19.0388 C   0  0  0  0  0  0  0  0  0  0  0  0
    6.6072  -14.0626   20.2436 C   0  0  0  0  0  0  0  0  0  0  0  0
    7.7527  -14.0158   21.0167 C   0  0  0  0  0  0  0  0  0  0  0  0
    7.8466  -14.7471   22.3068 C   0  0  0  0  0  0  0  0  0  0  0  0
    8.4408  -16.0876   22.0313 C   0  0  2  0  0  0  0  0  0  0  0  0
    7.5607  -16.8555   21.2105 N   0  0  0  0  0  0  0  0  0  0  0  0
    8.7766  -16.8413   23.2776 C   0  0  0  0  0  0  0  0  0  0  0  0
    7.8530  -17.2483   24.0287 O   0  0  0  0  0  0  0  0  0  0  0  0
    8.8121  -13.2602   20.5430 C   0  0  0  0  0  0  0  0  0  0  0  0
    8.7223  -12.5820   19.3442 C   0  0  0  0  0  0  0  0  0  0  0  0
   10.1048  -17.1235   23.6593 N   0  0  0  0  0  0  0  0  0  0  0  0
   10.4757  -17.7850   24.8803 C   0  0  1  0  0  0  0  0  0  0  0  0
   11.7729  -18.5494   24.7237 C   0  0  0  0  0  0  0  0  0  0  0  0
   12.1125  -19.3384   25.9637 C   0  0  0  0  0  0  0  0  0  0  0  0
   13.3589  -20.1022   25.7177 C   0  0  0  0  0  0  0  0  0  0  0  0
   14.4658  -19.5177   25.6416 O   0  0  0  0  0  0  0  0  0  0  0  0
   10.7166  -16.7879   25.9837 C   0  0  0  0  0  0  0  0  0  0  0  0
   11.4774  -15.8024   25.8107 O   0  0  0  0  0  0  0  0  0  0  0  0
   13.3315  -21.4770   25.5664 O   0  0  0  0  0  0  0  0  0  0  0  0
    6.6389  -12.2703   24.7678 O   0  0  0  0  0  0  0  0  0  0  0  0
    7.2425  -13.0270   25.7763 C   0  0  0  0  0  0  0  0  0  0  0  0
    6.8080  -14.3057   26.0472 C   0  0  0  0  0  0  0  0  0  0  0  0
    7.4222  -15.0442   27.0562 C   0  0  0  0  0  0  0  0  0  0  0  0
    8.4573  -14.5602   27.8114 C   0  0  0  0  0  0  0  0  0  0  0  0
    9.0936  -15.3729   28.8771 C   0  0  0  0  0  0  0  0  0  0  0  0
   10.3681  -15.9911   28.3437 C   0  0  2  0  0  0  0  0  0  0  0  0
   10.1012  -16.9131   27.2601 N   0  0  0  0  0  0  0  0  0  0  0  0
   11.1082  -16.7042   29.4010 C   0  0  0  0  0  0  0  0  0  0  0  0
   11.3965  -18.0476   29.2297 O   0  0  0  0  0  0  0  0  0  0  0  0
    8.8885  -13.2657   27.5287 C   0  0  0  0  0  0  0  0  0  0  0  0
    8.2842  -12.5306   26.5315 C   0  0  0  0  0  0  0  0  0  0  0  0
   11.5087  -16.1790   30.4716 O   0  0  0  0  0  0  0  0  0  0  0  0
  2  1  1  0
  3  2  2  0
  4  3  1  0
  5  4  2  0
  5 11  1  0
  6  5  1  0
  7  6  1  0
  7  8  1  1
  9  7  1  0
  9 10  2  0
 11 12  2  0
 12  2  1  0
 13  9  1  0
 14 13  1  0
 14 15  1  6
 15 16  1  0
 16 17  1  0
 17 21  1  0
 18 17  2  0
 19 14  1  0
 20 19  2  0
 23 22  1  0
 23 24  2  0
 25 24  1  0
 26 25  2  0
 27 26  1  0
 28 27  1  1
 28 29  1  0
 29 19  1  0
 30 31  1  0
 30 28  1  0
 32 33  2  0
 32 26  1  0
 33 23  1  0
 34 30  2  0
M  END
$$$$
