YEY.pdb
     RDKit          3D

 34 35  0  0  1  0  0  0  0  0999 V2000
    7.8813  -12.1405   17.4061 O   0  0  0  0  0  0  0  0  0  0  0  0
    7.8781  -12.8894   18.5652 C   0  0  0  0  0  0  0  0  0  0  0  0
    6.6944  -13.0620   19.2606 C   0  0  0  0  0  0  0  0  0  0  0  0
    6.6721  -13.8114   20.4271 C   0  0  0  0  0  0  0  0  0  0  0  0
    7.8146  -14.4052   20.9310 C   0  0  0  0  0  0  0  0  0  0  0  0
    7.7834  -15.2071   22.1815 C   0  0  0  0  0  0  0  0  0  0  0  0
    8.5060  -16.4867   21.9233 C   0  0  2  0  0  0  0  0  0  0  0  0
    7.6657  -17.3883   21.2030 N   0  0  0  0  0  0  0  0  0  0  0  0
    9.0076  -17.1331   23.1743 C   0  0  0  0  0  0  0  0  0  0  0  0
    8.2361  -17.8571   23.8550 O   0  0  0  0  0  0  0  0  0  0  0  0
    8.9923  -14.2245   20.2252 C   0  0  0  0  0  0  0  0  0  0  0  0
    9.0185  -13.4792   19.0638 C   0  0  0  0  0  0  0  0  0  0  0  0
   10.3296  -16.9670   23.6368 N   0  0  0  0  0  0  0  0  0  0  0  0
   10.8645  -17.5998   24.8113 C   0  0  1  0  0  0  0  0  0  0  0  0
   12.3014  -18.0282   24.6034 C   0  0  0  0  0  0  0  0  0  0  0  0
   12.4301  -19.0403   23.4922 C   0  0  0  0  0  0  0  0  0  0  0  0
   13.8688  -19.2679   23.2172 C   0  0  0  0  0  0  0  0  0  0  0  0
   14.6937  -18.3261   23.2919 O   0  0  0  0  0  0  0  0  0  0  0  0
   10.8843  -16.6463   25.9776 C   0  0  0  0  0  0  0  0  0  0  0  0
   11.6211  -15.6279   25.9685 O   0  0  0  0  0  0  0  0  0  0  0  0
   14.3363  -20.5233   22.8719 O   0  0  0  0  0  0  0  0  0  0  0  0
    6.9235  -11.9848   24.7788 O   0  0  0  0  0  0  0  0  0  0  0  0
    7.4170  -12.8433   25.7653 C   0  0  0  0  0  0  0  0  0  0  0  0
    8.4407  -12.4416   26.5947 C   0  0  0  0  0  0  0  0  0  0  0  0
    8.9191  -13.3114   27.5721 C   0  0  0  0  0  0  0  0  0  0  0  0
    8.4178  -14.5722   27.7598 C   0  0  0  0  0  0  0  0  0  0  0  0
    8.9462  -15.4743   28.8124 C   0  0  0  0  0  0  0  0  0  0  0  0
   10.2521  -16.0803   28.3453 C   0  0  2  0  0  0  0  0  0  0  0  0
   10.0790  -16.8510   27.1321 N   0  0  0  0  0  0  0  0  0  0  0  0
   10.8463  -16.9493   29.3777 C   0  0  0  0  0  0  0  0  0  0  0  0
   11.1816  -16.4020   30.6046 O   0  0  0  0  0  0  0  0  0  0  0  0
    7.3827  -14.9679   26.9152 C   0  0  0  0  0  0  0  0  0  0  0  0
    6.9057  -14.1112   25.9464 C   0  0  0  0  0  0  0  0  0  0  0  0
   11.0790  -18.1769   29.2313 O   0  0  0  0  0  0  0  0  0  0  0  0
  2  1  1  0
  3  2  2  0
  4  3  1  0
  5  4  2  0
  5 11  1  0
  6  5  1  0
  7  6  1  0
  7  8  1  1
  9  7  1  0
  9 10  2  0
 11 12  2  0
 12  2  1  0
 13  9  1  0
 14 13  1  0
 14 15  1  6
 15 16  1  0
 16 17  1  0
 17 21  1  0
 18 17  2  0
 19 14  1  0
 20 19  2  0
 23 22  1  0
 23 24  2  0
 25 24  1  0
 26 25  2  0
 27 26  1  0
 28 27  1  1
 28 29  1  0
 29 19  1  0
 30 31  1  0
 30 28  1  0
 32 33  2  0
 32 26  1  0
 33 23  1  0
 34 30  2  0
M  END
$$$$
