YEY.pdb
     RDKit          3D

 34 35  0  0  1  0  0  0  0  0999 V2000
   17.9894  -13.7097   18.1866 O   0  0  0  0  0  0  0  0  0  0  0  0
   16.6309  -13.7191   18.4289 C   0  0  0  0  0  0  0  0  0  0  0  0
   16.1598  -14.1799   19.6455 C   0  0  0  0  0  0  0  0  0  0  0  0
   14.7981  -14.1966   19.9067 C   0  0  0  0  0  0  0  0  0  0  0  0
   13.8744  -13.7599   18.9750 C   0  0  0  0  0  0  0  0  0  0  0  0
   12.4165  -13.7805   19.2615 C   0  0  0  0  0  0  0  0  0  0  0  0
   11.8521  -15.0313   18.6760 C   0  0  2  0  0  0  0  0  0  0  0  0
   10.8985  -14.7123   17.6627 N   0  0  0  0  0  0  0  0  0  0  0  0
   11.2373  -15.9272   19.7025 C   0  0  0  0  0  0  0  0  0  0  0  0
    9.9893  -15.9304   19.8609 O   0  0  0  0  0  0  0  0  0  0  0  0
   14.3593  -13.3013   17.7617 C   0  0  0  0  0  0  0  0  0  0  0  0
   15.7141  -13.2832   17.4981 C   0  0  0  0  0  0  0  0  0  0  0  0
   12.0042  -16.7856   20.5176 N   0  0  0  0  0  0  0  0  0  0  0  0
   11.4573  -17.6475   21.5295 C   0  0  1  0  0  0  0  0  0  0  0  0
   12.1173  -19.0097   21.5122 C   0  0  0  0  0  0  0  0  0  0  0  0
   11.4575  -19.9653   22.4751 C   0  0  0  0  0  0  0  0  0  0  0  0
   12.1687  -21.2648   22.4216 C   0  0  0  0  0  0  0  0  0  0  0  0
   12.0948  -22.0769   23.3744 O   0  0  0  0  0  0  0  0  0  0  0  0
   11.7038  -17.0886   22.9067 C   0  0  0  0  0  0  0  0  0  0  0  0
   12.8330  -16.6419   23.2313 O   0  0  0  0  0  0  0  0  0  0  0  0
   12.9304  -21.6132   21.3206 O   0  0  0  0  0  0  0  0  0  0  0  0
   10.7090  -14.4412   31.2438 O   0  0  0  0  0  0  0  0  0  0  0  0
   10.4412  -14.8603   29.9374 C   0  0  0  0  0  0  0  0  0  0  0  0
   10.3134  -16.2001   29.6444 C   0  0  0  0  0  0  0  0  0  0  0  0
   10.0464  -16.5983   28.3364 C   0  0  0  0  0  0  0  0  0  0  0  0
    9.9002  -15.7131   27.3014 C   0  0  0  0  0  0  0  0  0  0  0  0
    9.6123  -16.1681   25.9190 C   0  0  0  0  0  0  0  0  0  0  0  0
   10.9112  -16.5154   25.2239 C   0  0  2  0  0  0  0  0  0  0  0  0
   10.6814  -17.0404   23.8945 N   0  0  0  0  0  0  0  0  0  0  0  0
   11.6913  -17.5014   25.9942 C   0  0  0  0  0  0  0  0  0  0  0  0
   12.7720  -17.0662   26.7424 O   0  0  0  0  0  0  0  0  0  0  0  0
   10.0316  -14.3605   27.6094 C   0  0  0  0  0  0  0  0  0  0  0  0
   10.2958  -13.9611   28.9019 C   0  0  0  0  0  0  0  0  0  0  0  0
   11.4491  -18.7354   26.0278 O   0  0  0  0  0  0  0  0  0  0  0  0
  2  1  1  0
  3  2  2  0
  4  3  1  0
  5  4  2  0
  5 11  1  0
  6  5  1  0
  7  6  1  0
  7  8  1  6
  9  7  1  0
  9 10  2  0
 11 12  2  0
 12  2  1  0
 13  9  1  0
 14 13  1  0
 14 15  1  1
 15 16  1  0
 16 17  1  0
 17 21  1  0
 18 17  2  0
 19 14  1  0
 20 19  2  0
 23 22  1  0
 23 24  2  0
 25 24  1  0
 26 25  2  0
 27 26  1  0
 28 27  1  1
 28 29  1  0
 29 19  1  0
 30 31  1  0
 30 28  1  0
 32 33  2  0
 32 26  1  0
 33 23  1  0
 34 30  2  0
M  END
$$$$
