YEY.pdb
     RDKit          3D

 34 35  0  0  1  0  0  0  0  0999 V2000
    7.3070  -11.5493   18.0160 O   0  0  0  0  0  0  0  0  0  0  0  0
    7.4024  -12.3741   19.1183 C   0  0  0  0  0  0  0  0  0  0  0  0
    6.3276  -13.1734   19.4651 C   0  0  0  0  0  0  0  0  0  0  0  0
    6.4054  -14.0085   20.5694 C   0  0  0  0  0  0  0  0  0  0  0  0
    7.5428  -14.0725   21.3530 C   0  0  0  0  0  0  0  0  0  0  0  0
    7.6194  -14.9698   22.5349 C   0  0  0  0  0  0  0  0  0  0  0  0
    8.2964  -16.2298   22.1104 C   0  0  2  0  0  0  0  0  0  0  0  0
    7.3471  -17.1274   21.5351 N   0  0  0  0  0  0  0  0  0  0  0  0
    9.0315  -16.8987   23.2268 C   0  0  0  0  0  0  0  0  0  0  0  0
    8.4020  -17.6141   24.0481 O   0  0  0  0  0  0  0  0  0  0  0  0
    8.6110  -13.2674   20.9947 C   0  0  0  0  0  0  0  0  0  0  0  0
    8.5373  -12.4348   19.8963 C   0  0  0  0  0  0  0  0  0  0  0  0
   10.4239  -16.7636   23.4070 N   0  0  0  0  0  0  0  0  0  0  0  0
   11.1645  -17.3579   24.4860 C   0  0  1  0  0  0  0  0  0  0  0  0
   12.6187  -17.5569   24.1156 C   0  0  0  0  0  0  0  0  0  0  0  0
   12.7725  -18.4307   22.8955 C   0  0  0  0  0  0  0  0  0  0  0  0
   14.1809  -18.3685   22.4376 C   0  0  0  0  0  0  0  0  0  0  0  0
   14.4558  -18.2678   21.2181 O   0  0  0  0  0  0  0  0  0  0  0  0
   11.1676  -16.4622   25.6974 C   0  0  0  0  0  0  0  0  0  0  0  0
   11.6300  -15.2949   25.6380 O   0  0  0  0  0  0  0  0  0  0  0  0
   15.2255  -18.4199   23.3431 O   0  0  0  0  0  0  0  0  0  0  0  0
    6.4787  -12.5759   24.8090 O   0  0  0  0  0  0  0  0  0  0  0  0
    7.1630  -13.3541   25.7471 C   0  0  0  0  0  0  0  0  0  0  0  0
    6.8891  -14.6980   25.8753 C   0  0  0  0  0  0  0  0  0  0  0  0
    7.5816  -15.4570   26.8160 C   0  0  0  0  0  0  0  0  0  0  0  0
    8.5415  -14.9312   27.6395 C   0  0  0  0  0  0  0  0  0  0  0  0
    9.2647  -15.7667   28.6294 C   0  0  0  0  0  0  0  0  0  0  0  0
   10.6651  -16.0427   28.1259 C   0  0  2  0  0  0  0  0  0  0  0  0
   10.6530  -16.8904   26.9525 N   0  0  0  0  0  0  0  0  0  0  0  0
   11.4978  -16.6803   29.1623 C   0  0  0  0  0  0  0  0  0  0  0  0
   11.7349  -16.0010   30.3453 O   0  0  0  0  0  0  0  0  0  0  0  0
    8.8102  -13.5710   27.5012 C   0  0  0  0  0  0  0  0  0  0  0  0
    8.1279  -12.8153   26.5721 C   0  0  0  0  0  0  0  0  0  0  0  0
   12.0230  -17.8186   29.0569 O   0  0  0  0  0  0  0  0  0  0  0  0
  2  1  1  0
  3  2  2  0
  4  3  1  0
  5  4  2  0
  5 11  1  0
  6  5  1  0
  7  6  1  0
  7  8  1  1
  9  7  1  0
  9 10  2  0
 11 12  2  0
 12  2  1  0
 13  9  1  0
 14 13  1  0
 14 15  1  6
 15 16  1  0
 16 17  1  0
 17 21  1  0
 18 17  2  0
 19 14  1  0
 20 19  2  0
 23 22  1  0
 23 24  2  0
 25 24  1  0
 26 25  2  0
 27 26  1  0
 28 27  1  1
 28 29  1  0
 29 19  1  0
 30 31  1  0
 30 28  1  0
 32 33  2  0
 32 26  1  0
 33 23  1  0
 34 30  2  0
M  END
$$$$
