EEW.pdb
     RDKit          3D

 33 34  0  0  1  0  0  0  0  0999 V2000
    8.0336  -18.8742   21.1451 N   0  0  0  0  0  0  0  0  0  0  0  0
    9.0689  -19.8702   21.5085 C   0  0  1  0  0  0  0  0  0  0  0  0
    9.4315  -20.5397   20.2095 C   0  0  0  0  0  0  0  0  0  0  0  0
    8.7824  -19.8439   19.0537 C   0  0  0  0  0  0  0  0  0  0  0  0
    9.1245  -20.5113   17.7603 C   0  0  0  0  0  0  0  0  0  0  0  0
   10.2473  -20.3335   17.2243 O   0  0  0  0  0  0  0  0  0  0  0  0
   10.2350  -19.1295   22.0798 C   0  0  0  0  0  0  0  0  0  0  0  0
   11.2700  -19.7219   22.4094 O   0  0  0  0  0  0  0  0  0  0  0  0
    8.2219  -21.3336   17.1267 O   0  0  0  0  0  0  0  0  0  0  0  0
   10.2115  -17.7195   22.2705 N   0  0  0  0  0  0  0  0  0  0  0  0
   11.2660  -17.0176   22.9808 C   0  0  1  0  0  0  0  0  0  0  0  0
   11.7695  -15.9545   22.0746 C   0  0  0  0  0  0  0  0  0  0  0  0
   12.6875  -16.3400   20.9807 C   0  0  0  0  0  0  0  0  0  0  0  0
   13.2318  -15.3575   20.0879 C   0  0  0  0  0  0  0  0  0  0  0  0
   14.2388  -15.5197   19.3908 O   0  0  0  0  0  0  0  0  0  0  0  0
   10.9902  -16.6899   24.3655 C   0  0  0  0  0  0  0  0  0  0  0  0
   11.8095  -16.0117   25.0386 O   0  0  0  0  0  0  0  0  0  0  0  0
   12.6055  -14.1230   19.9750 O   0  0  0  0  0  0  0  0  0  0  0  0
    9.8179  -17.0799   25.0686 N   0  0  0  0  0  0  0  0  0  0  0  0
    9.6112  -16.8316   26.4751 C   0  0  1  0  0  0  0  0  0  0  0  0
    8.1501  -16.5115   26.6546 C   0  0  0  0  0  0  0  0  0  0  0  0
    7.6736  -15.3743   25.8697 C   0  0  0  0  0  0  0  0  0  0  0  0
    7.2259  -15.3642   24.5642 C   0  0  0  0  0  0  0  0  0  0  0  0
    6.8790  -14.1089   24.2222 N   0  0  0  0  0  0  0  0  0  0  0  0
    7.1002  -13.3099   25.2987 C   0  0  0  0  0  0  0  0  0  0  0  0
    6.9081  -11.9539   25.4643 C   0  0  0  0  0  0  0  0  0  0  0  0
    7.1980  -11.3145   26.6566 C   0  0  0  0  0  0  0  0  0  0  0  0
    7.6927  -12.0766   27.6959 C   0  0  0  0  0  0  0  0  0  0  0  0
    7.8814  -13.4363   27.5183 C   0  0  0  0  0  0  0  0  0  0  0  0
    7.5936  -14.0780   26.3313 C   0  0  0  0  0  0  0  0  0  0  0  0
   10.0629  -17.9839   27.2493 C   0  0  0  0  0  0  0  0  0  0  0  0
   10.4732  -19.0607   26.7444 O   0  0  0  0  0  0  0  0  0  0  0  0
   10.0556  -17.9294   28.6495 O   0  0  0  0  0  0  0  0  0  0  0  0
  2  1  1  6
  2  3  1  0
  3  4  1  0
  4  5  1  0
  5  9  1  0
  6  5  2  0
  7  2  1  0
  7  8  2  0
 10  7  1  0
 11 10  1  0
 11 12  1  6
 13 12  1  0
 13 14  1  0
 14 15  2  0
 16 11  1  0
 17 16  2  0
 18 14  1  0
 19 16  1  0
 20 21  1  6
 20 19  1  0
 22 21  1  0
 23 22  2  0
 24 25  1  0
 24 23  1  0
 25 30  2  0
 26 27  2  0
 26 25  1  0
 27 28  1  0
 28 29  2  0
 30 29  1  0
 30 22  1  0
 31 20  1  0
 32 31  2  0
 33 31  1  0
M  END
$$$$
