EEW.pdb
     RDKit          3D

 33 34  0  0  1  0  0  0  0  0999 V2000
   12.0225  -19.0873   19.8501 N   0  0  0  0  0  0  0  0  0  0  0  0
   12.6624  -17.7933   20.1845 C   0  0  1  0  0  0  0  0  0  0  0  0
   12.9908  -17.1710   18.8534 C   0  0  0  0  0  0  0  0  0  0  0  0
   12.7702  -18.1484   17.7410 C   0  0  0  0  0  0  0  0  0  0  0  0
   13.2437  -17.5959   16.4348 C   0  0  0  0  0  0  0  0  0  0  0  0
   13.9869  -16.5830   16.3986 O   0  0  0  0  0  0  0  0  0  0  0  0
   11.6652  -16.9708   20.9355 C   0  0  0  0  0  0  0  0  0  0  0  0
   11.8687  -15.7726   21.1670 O   0  0  0  0  0  0  0  0  0  0  0  0
   12.8787  -18.1803   15.2442 O   0  0  0  0  0  0  0  0  0  0  0  0
   10.4441  -17.5212   21.4160 N   0  0  0  0  0  0  0  0  0  0  0  0
    9.5902  -16.8097   22.3507 C   0  0  1  0  0  0  0  0  0  0  0  0
    8.2109  -16.8547   21.8026 C   0  0  0  0  0  0  0  0  0  0  0  0
    8.0389  -17.0614   20.3481 C   0  0  0  0  0  0  0  0  0  0  0  0
    6.7341  -17.0925   19.7522 C   0  0  0  0  0  0  0  0  0  0  0  0
    6.0237  -18.0994   19.6633 O   0  0  0  0  0  0  0  0  0  0  0  0
    9.7999  -17.1048   23.7542 C   0  0  0  0  0  0  0  0  0  0  0  0
    9.0421  -17.9065   24.3603 O   0  0  0  0  0  0  0  0  0  0  0  0
    6.2005  -15.9227   19.2271 O   0  0  0  0  0  0  0  0  0  0  0  0
   10.8380  -16.5474   24.5492 N   0  0  0  0  0  0  0  0  0  0  0  0
   10.7440  -16.3767   25.9792 C   0  0  1  0  0  0  0  0  0  0  0  0
   10.2278  -14.9824   26.2222 C   0  0  0  0  0  0  0  0  0  0  0  0
    8.7753  -14.8453   26.1330 C   0  0  0  0  0  0  0  0  0  0  0  0
    7.8357  -15.8313   25.9096 C   0  0  0  0  0  0  0  0  0  0  0  0
    6.6067  -15.2813   25.9010 N   0  0  0  0  0  0  0  0  0  0  0  0
    6.7480  -13.9473   26.1173 C   0  0  0  0  0  0  0  0  0  0  0  0
    5.8022  -12.9465   26.1998 C   0  0  0  0  0  0  0  0  0  0  0  0
    6.1513  -11.6276   26.4297 C   0  0  0  0  0  0  0  0  0  0  0  0
    7.4910  -11.3291   26.5774 C   0  0  0  0  0  0  0  0  0  0  0  0
    8.4312  -12.3415   26.4927 C   0  0  0  0  0  0  0  0  0  0  0  0
    8.0876  -13.6580   26.2637 C   0  0  0  0  0  0  0  0  0  0  0  0
    9.9011  -17.4256   26.5451 C   0  0  0  0  0  0  0  0  0  0  0  0
    9.2227  -18.2357   25.8623 O   0  0  0  0  0  0  0  0  0  0  0  0
    9.8131  -17.5753   27.9357 O   0  0  0  0  0  0  0  0  0  0  0  0
  2  1  1  6
  2  3  1  0
  3  4  1  0
  4  5  1  0
  5  9  1  0
  6  5  2  0
  7  2  1  0
  7  8  2  0
 10  7  1  0
 11 10  1  0
 11 12  1  6
 13 12  1  0
 13 14  1  0
 14 15  2  0
 16 11  1  0
 17 16  2  0
 18 14  1  0
 19 16  1  0
 20 21  1  6
 20 19  1  0
 22 21  1  0
 23 22  2  0
 24 25  1  0
 24 23  1  0
 25 30  2  0
 26 27  2  0
 26 25  1  0
 27 28  1  0
 28 29  2  0
 30 29  1  0
 30 22  1  0
 31 20  1  0
 32 31  2  0
 33 31  1  0
M  END
$$$$
