EEW.pdb
     RDKit          3D

 33 34  0  0  1  0  0  0  0  0999 V2000
   10.8708  -18.3482   17.2256 N   0  0  0  0  0  0  0  0  0  0  0  0
   10.4766  -17.0662   17.8555 C   0  0  1  0  0  0  0  0  0  0  0  0
    9.3297  -16.5633   17.0196 C   0  0  0  0  0  0  0  0  0  0  0  0
    9.6250  -15.1990   16.4781 C   0  0  0  0  0  0  0  0  0  0  0  0
    8.9456  -14.9808   15.1642 C   0  0  0  0  0  0  0  0  0  0  0  0
    7.8872  -15.5958   14.8797 O   0  0  0  0  0  0  0  0  0  0  0  0
   10.0389  -17.3599   19.2545 C   0  0  0  0  0  0  0  0  0  0  0  0
    8.8417  -17.3474   19.5661 O   0  0  0  0  0  0  0  0  0  0  0  0
    9.4605  -14.1045   14.2372 O   0  0  0  0  0  0  0  0  0  0  0  0
   10.9699  -17.6656   20.2864 N   0  0  0  0  0  0  0  0  0  0  0  0
   10.5460  -18.0509   21.6208 C   0  0  1  0  0  0  0  0  0  0  0  0
   10.8928  -19.4846   21.7917 C   0  0  0  0  0  0  0  0  0  0  0  0
   10.5708  -20.1370   23.0796 C   0  0  0  0  0  0  0  0  0  0  0  0
   10.9887  -21.4816   23.3551 C   0  0  0  0  0  0  0  0  0  0  0  0
   10.3592  -22.2870   24.0490 O   0  0  0  0  0  0  0  0  0  0  0  0
   10.8653  -17.1180   22.6831 C   0  0  0  0  0  0  0  0  0  0  0  0
   12.0612  -16.8104   22.9274 O   0  0  0  0  0  0  0  0  0  0  0  0
   12.1833  -21.9438   22.8182 O   0  0  0  0  0  0  0  0  0  0  0  0
    9.9034  -16.4823   23.5145 N   0  0  0  0  0  0  0  0  0  0  0  0
   10.2425  -15.7470   24.7092 C   0  0  1  0  0  0  0  0  0  0  0  0
    9.1510  -14.7311   24.9243 C   0  0  0  0  0  0  0  0  0  0  0  0
    8.0138  -14.8552   24.0144 C   0  0  0  0  0  0  0  0  0  0  0  0
    6.8584  -15.5904   24.1856 C   0  0  0  0  0  0  0  0  0  0  0  0
    6.0657  -15.4309   23.1089 N   0  0  0  0  0  0  0  0  0  0  0  0
    6.7027  -14.5979   22.2449 C   0  0  0  0  0  0  0  0  0  0  0  0
    6.3184  -14.1233   21.0079 C   0  0  0  0  0  0  0  0  0  0  0  0
    7.1198  -13.2696   20.2709 C   0  0  0  0  0  0  0  0  0  0  0  0
    8.3347  -12.8963   20.8097 C   0  0  0  0  0  0  0  0  0  0  0  0
    8.7100  -13.3788   22.0516 C   0  0  0  0  0  0  0  0  0  0  0  0
    7.9140  -14.2301   22.7900 C   0  0  0  0  0  0  0  0  0  0  0  0
   10.4154  -16.6733   25.8242 C   0  0  0  0  0  0  0  0  0  0  0  0
   10.1542  -17.9028   25.7716 O   0  0  0  0  0  0  0  0  0  0  0  0
   10.9019  -16.2039   27.0516 O   0  0  0  0  0  0  0  0  0  0  0  0
  2  1  1  6
  2  3  1  0
  3  4  1  0
  4  5  1  0
  5  9  1  0
  6  5  2  0
  7  2  1  0
  7  8  2  0
 10  7  1  0
 11 10  1  0
 11 12  1  1
 13 12  1  0
 13 14  1  0
 14 15  2  0
 16 11  1  0
 17 16  2  0
 18 14  1  0
 19 16  1  0
 20 21  1  1
 20 19  1  0
 22 21  1  0
 23 22  2  0
 24 25  1  0
 24 23  1  0
 25 30  2  0
 26 27  2  0
 26 25  1  0
 27 28  1  0
 28 29  2  0
 30 29  1  0
 30 22  1  0
 31 20  1  0
 32 31  2  0
 33 31  1  0
M  END
$$$$
