EEW.pdb
     RDKit          3D

 33 34  0  0  1  0  0  0  0  0999 V2000
    6.5068  -15.6877   19.4569 N   0  0  0  0  0  0  0  0  0  0  0  0
    7.8912  -15.2811   19.7947 C   0  0  1  0  0  0  0  0  0  0  0  0
    7.7796  -13.8354   20.2002 C   0  0  0  0  0  0  0  0  0  0  0  0
    7.4348  -12.9782   19.0222 C   0  0  0  0  0  0  0  0  0  0  0  0
    8.5695  -12.9137   18.0507 C   0  0  0  0  0  0  0  0  0  0  0  0
    9.6379  -13.5380   18.2703 O   0  0  0  0  0  0  0  0  0  0  0  0
    8.3511  -16.1297   20.9363 C   0  0  0  0  0  0  0  0  0  0  0  0
    7.5744  -16.4614   21.8404 O   0  0  0  0  0  0  0  0  0  0  0  0
    8.4726  -12.1720   16.8962 O   0  0  0  0  0  0  0  0  0  0  0  0
    9.6927  -16.5933   21.0375 N   0  0  0  0  0  0  0  0  0  0  0  0
   10.1541  -17.3854   22.1637 C   0  0  1  0  0  0  0  0  0  0  0  0
   11.1906  -18.3151   21.6477 C   0  0  0  0  0  0  0  0  0  0  0  0
   10.7567  -19.4636   20.8227 C   0  0  0  0  0  0  0  0  0  0  0  0
   11.4588  -20.7142   20.8641 C   0  0  0  0  0  0  0  0  0  0  0  0
   11.1840  -21.6519   21.6202 O   0  0  0  0  0  0  0  0  0  0  0  0
   10.4097  -16.6572   23.3906 C   0  0  0  0  0  0  0  0  0  0  0  0
   11.0442  -15.5703   23.3699 O   0  0  0  0  0  0  0  0  0  0  0  0
   12.5306  -20.9188   20.0049 O   0  0  0  0  0  0  0  0  0  0  0  0
    9.9846  -17.0761   24.6807 N   0  0  0  0  0  0  0  0  0  0  0  0
   10.3996  -16.4346   25.9051 C   0  0  1  0  0  0  0  0  0  0  0  0
   10.0051  -14.9847   25.7969 C   0  0  0  0  0  0  0  0  0  0  0  0
    8.5774  -14.7259   25.9733 C   0  0  0  0  0  0  0  0  0  0  0  0
    7.5327  -15.6265   25.9224 C   0  0  0  0  0  0  0  0  0  0  0  0
    6.3735  -14.9762   26.1383 N   0  0  0  0  0  0  0  0  0  0  0  0
    6.6642  -13.6626   26.3280 C   0  0  0  0  0  0  0  0  0  0  0  0
    5.8373  -12.5882   26.5829 C   0  0  0  0  0  0  0  0  0  0  0  0
    6.3328  -11.3071   26.7482 C   0  0  0  0  0  0  0  0  0  0  0  0
    7.6975  -11.1235   26.6507 C   0  0  0  0  0  0  0  0  0  0  0  0
    8.5176  -12.2088   26.3945 C   0  0  0  0  0  0  0  0  0  0  0  0
    8.0278  -13.4880   26.2291 C   0  0  0  0  0  0  0  0  0  0  0  0
    9.8067  -17.1244   27.0469 C   0  0  0  0  0  0  0  0  0  0  0  0
    8.9508  -18.0419   26.9549 O   0  0  0  0  0  0  0  0  0  0  0  0
   10.1880  -16.7729   28.3487 O   0  0  0  0  0  0  0  0  0  0  0  0
  2  1  1  1
  2  3  1  0
  3  4  1  0
  4  5  1  0
  5  9  1  0
  6  5  2  0
  7  2  1  0
  7  8  2  0
 10  7  1  0
 11 10  1  0
 11 12  1  6
 13 12  1  0
 13 14  1  0
 14 15  2  0
 16 11  1  0
 17 16  2  0
 18 14  1  0
 19 16  1  0
 20 21  1  6
 20 19  1  0
 22 21  1  0
 23 22  2  0
 24 25  1  0
 24 23  1  0
 25 30  2  0
 26 27  2  0
 26 25  1  0
 27 28  1  0
 28 29  2  0
 30 29  1  0
 30 22  1  0
 31 20  1  0
 32 31  2  0
 33 31  1  0
M  END
$$$$
