EEW.pdb
     RDKit          3D

 33 34  0  0  1  0  0  0  0  0999 V2000
    8.8132  -16.2261   19.9654 N   0  0  0  0  0  0  0  0  0  0  0  0
    7.9178  -16.8618   20.9603 C   0  0  1  0  0  0  0  0  0  0  0  0
    7.4004  -18.0996   20.2769 C   0  0  0  0  0  0  0  0  0  0  0  0
    6.0107  -18.4176   20.7343 C   0  0  0  0  0  0  0  0  0  0  0  0
    5.7646  -19.8923   20.7288 C   0  0  0  0  0  0  0  0  0  0  0  0
    6.6156  -20.6827   20.2487 O   0  0  0  0  0  0  0  0  0  0  0  0
    8.7403  -17.2090   22.1594 C   0  0  0  0  0  0  0  0  0  0  0  0
    8.2689  -17.8796   23.0861 O   0  0  0  0  0  0  0  0  0  0  0  0
    4.6043  -20.4190   21.2472 O   0  0  0  0  0  0  0  0  0  0  0  0
   10.0935  -16.7890   22.2918 N   0  0  0  0  0  0  0  0  0  0  0  0
   10.9117  -17.1648   23.4311 C   0  0  1  0  0  0  0  0  0  0  0  0
   12.3144  -17.2506   22.9515 C   0  0  0  0  0  0  0  0  0  0  0  0
   12.5587  -17.2660   21.4927 C   0  0  0  0  0  0  0  0  0  0  0  0
   13.8911  -17.3292   20.9641 C   0  0  0  0  0  0  0  0  0  0  0  0
   14.6937  -18.2425   21.1836 O   0  0  0  0  0  0  0  0  0  0  0  0
   10.6332  -16.4678   24.6710 C   0  0  0  0  0  0  0  0  0  0  0  0
   10.5605  -15.2114   24.6972 O   0  0  0  0  0  0  0  0  0  0  0  0
   14.3437  -16.3052   20.1422 O   0  0  0  0  0  0  0  0  0  0  0  0
   10.4193  -17.1045   25.9238 N   0  0  0  0  0  0  0  0  0  0  0  0
   10.1894  -16.3871   27.1547 C   0  0  1  0  0  0  0  0  0  0  0  0
    8.7431  -16.5957   27.5211 C   0  0  0  0  0  0  0  0  0  0  0  0
    7.7897  -15.8837   26.6722 C   0  0  0  0  0  0  0  0  0  0  0  0
    6.9344  -16.4058   25.7232 C   0  0  0  0  0  0  0  0  0  0  0  0
    6.2240  -15.4066   25.1663 N   0  0  0  0  0  0  0  0  0  0  0  0
    6.6159  -14.2440   25.7503 C   0  0  0  0  0  0  0  0  0  0  0  0
    6.1974  -12.9469   25.5367 C   0  0  0  0  0  0  0  0  0  0  0  0
    6.7267  -11.8820   26.2439 C   0  0  0  0  0  0  0  0  0  0  0  0
    7.7004  -12.1502   27.1850 C   0  0  0  0  0  0  0  0  0  0  0  0
    8.1126  -13.4555   27.3907 C   0  0  0  0  0  0  0  0  0  0  0  0
    7.5875  -14.5204   26.6879 C   0  0  0  0  0  0  0  0  0  0  0  0
   11.1288  -16.8454   28.1738 C   0  0  0  0  0  0  0  0  0  0  0  0
   11.9427  -17.7914   28.0138 O   0  0  0  0  0  0  0  0  0  0  0  0
   11.1596  -16.2182   29.4265 O   0  0  0  0  0  0  0  0  0  0  0  0
  2  1  1  6
  2  3  1  0
  3  4  1  0
  4  5  1  0
  5  9  1  0
  6  5  2  0
  7  2  1  0
  7  8  2  0
 10  7  1  0
 11 10  1  0
 11 12  1  6
 13 12  1  0
 13 14  1  0
 14 15  2  0
 16 11  1  0
 17 16  2  0
 18 14  1  0
 19 16  1  0
 20 21  1  1
 20 19  1  0
 22 21  1  0
 23 22  2  0
 24 25  1  0
 24 23  1  0
 25 30  2  0
 26 27  2  0
 26 25  1  0
 27 28  1  0
 28 29  2  0
 30 29  1  0
 30 22  1  0
 31 20  1  0
 32 31  2  0
 33 31  1  0
M  END
$$$$
