EEW.pdb
     RDKit          3D

 33 34  0  0  1  0  0  0  0  0999 V2000
    8.5728  -17.2303   19.6163 N   0  0  0  0  0  0  0  0  0  0  0  0
    8.6035  -18.4209   20.4980 C   0  0  1  0  0  0  0  0  0  0  0  0
    8.5596  -19.5967   19.5586 C   0  0  0  0  0  0  0  0  0  0  0  0
    7.6202  -19.3346   18.4227 C   0  0  0  0  0  0  0  0  0  0  0  0
    7.3439  -20.5850   17.6509 C   0  0  0  0  0  0  0  0  0  0  0  0
    7.9094  -21.6651   17.9561 O   0  0  0  0  0  0  0  0  0  0  0  0
    9.8861  -18.3884   21.2653 C   0  0  0  0  0  0  0  0  0  0  0  0
   10.2500  -19.3565   21.9443 O   0  0  0  0  0  0  0  0  0  0  0  0
    6.4669  -20.5843   16.5911 O   0  0  0  0  0  0  0  0  0  0  0  0
   10.7432  -17.2526   21.2519 N   0  0  0  0  0  0  0  0  0  0  0  0
   11.8870  -17.1366   22.1390 C   0  0  1  0  0  0  0  0  0  0  0  0
   12.9613  -16.4494   21.3783 C   0  0  0  0  0  0  0  0  0  0  0  0
   14.1004  -17.2550   20.8872 C   0  0  0  0  0  0  0  0  0  0  0  0
   14.0216  -17.9731   19.6475 C   0  0  0  0  0  0  0  0  0  0  0  0
   13.3902  -19.0216   19.4793 O   0  0  0  0  0  0  0  0  0  0  0  0
   11.5997  -16.7087   23.4937 C   0  0  0  0  0  0  0  0  0  0  0  0
   12.3520  -15.8865   24.0789 O   0  0  0  0  0  0  0  0  0  0  0  0
   14.6924  -17.4812   18.5353 O   0  0  0  0  0  0  0  0  0  0  0  0
   10.4875  -17.1509   24.2605 N   0  0  0  0  0  0  0  0  0  0  0  0
   10.2124  -16.6974   25.6027 C   0  0  1  0  0  0  0  0  0  0  0  0
    9.9046  -15.2254   25.5145 C   0  0  0  0  0  0  0  0  0  0  0  0
    8.4857  -14.8911   25.6223 C   0  0  0  0  0  0  0  0  0  0  0  0
    7.3976  -15.7302   25.4930 C   0  0  0  0  0  0  0  0  0  0  0  0
    6.2658  -15.0212   25.6646 N   0  0  0  0  0  0  0  0  0  0  0  0
    6.6173  -13.7307   25.9035 C   0  0  0  0  0  0  0  0  0  0  0  0
    5.8379  -12.6178   26.1425 C   0  0  0  0  0  0  0  0  0  0  0  0
    6.3931  -11.3706   26.3670 C   0  0  0  0  0  0  0  0  0  0  0  0
    7.7692  -11.2617   26.3463 C   0  0  0  0  0  0  0  0  0  0  0  0
    8.5412  -12.3850   26.1053 C   0  0  0  0  0  0  0  0  0  0  0  0
    7.9918  -13.6306   25.8811 C   0  0  0  0  0  0  0  0  0  0  0  0
    9.1327  -17.4932   26.1789 C   0  0  0  0  0  0  0  0  0  0  0  0
    8.7754  -17.4367   27.3839 O   0  0  0  0  0  0  0  0  0  0  0  0
    8.4213  -18.3913   25.3722 O   0  0  0  0  0  0  0  0  0  0  0  0
  2  1  1  6
  2  3  1  0
  3  4  1  0
  4  5  1  0
  5  9  1  0
  6  5  2  0
  7  2  1  0
  7  8  2  0
 10  7  1  0
 11 10  1  0
 11 12  1  6
 13 12  1  0
 13 14  1  0
 14 15  2  0
 16 11  1  0
 17 16  2  0
 18 14  1  0
 19 16  1  0
 20 21  1  6
 20 19  1  0
 22 21  1  0
 23 22  2  0
 24 25  1  0
 24 23  1  0
 25 30  2  0
 26 27  2  0
 26 25  1  0
 27 28  1  0
 28 29  2  0
 30 29  1  0
 30 22  1  0
 31 20  1  0
 32 31  2  0
 33 31  1  0
M  END
$$$$
