EEW.pdb
     RDKit          3D

 33 34  0  0  1  0  0  0  0  0999 V2000
    6.4481  -14.9516   19.6147 N   0  0  0  0  0  0  0  0  0  0  0  0
    7.9221  -14.9437   19.7657 C   0  0  1  0  0  0  0  0  0  0  0  0
    8.2923  -13.4867   19.8515 C   0  0  0  0  0  0  0  0  0  0  0  0
    7.9689  -12.7800   18.5719 C   0  0  0  0  0  0  0  0  0  0  0  0
    8.7587  -13.3386   17.4319 C   0  0  0  0  0  0  0  0  0  0  0  0
    8.5837  -12.9145   16.2618 O   0  0  0  0  0  0  0  0  0  0  0  0
    8.2556  -15.6626   21.0332 C   0  0  0  0  0  0  0  0  0  0  0  0
    7.5783  -15.5034   22.0563 O   0  0  0  0  0  0  0  0  0  0  0  0
    9.6933  -14.3274   17.6346 O   0  0  0  0  0  0  0  0  0  0  0  0
    9.3584  -16.5574   21.1239 N   0  0  0  0  0  0  0  0  0  0  0  0
    9.6629  -17.2885   22.3411 C   0  0  1  0  0  0  0  0  0  0  0  0
   10.3693  -18.5310   21.9386 C   0  0  0  0  0  0  0  0  0  0  0  0
   10.9253  -19.3987   22.9996 C   0  0  0  0  0  0  0  0  0  0  0  0
   11.7475  -20.5298   22.6782 C   0  0  0  0  0  0  0  0  0  0  0  0
   12.4200  -20.6421   21.6480 O   0  0  0  0  0  0  0  0  0  0  0  0
   10.1906  -16.5029   23.4390 C   0  0  0  0  0  0  0  0  0  0  0  0
   11.1818  -15.7464   23.2669 O   0  0  0  0  0  0  0  0  0  0  0  0
   11.8150  -21.5937   23.5684 O   0  0  0  0  0  0  0  0  0  0  0  0
    9.6627  -16.5047   24.7588 N   0  0  0  0  0  0  0  0  0  0  0  0
   10.4459  -16.2001   25.9321 C   0  0  1  0  0  0  0  0  0  0  0  0
    9.8277  -14.9829   26.5691 C   0  0  0  0  0  0  0  0  0  0  0  0
    8.3768  -14.8870   26.4210 C   0  0  0  0  0  0  0  0  0  0  0  0
    7.4610  -15.9116   26.2926 C   0  0  0  0  0  0  0  0  0  0  0  0
    6.2240  -15.3916   26.1805 N   0  0  0  0  0  0  0  0  0  0  0  0
    6.3365  -14.0386   26.2356 C   0  0  0  0  0  0  0  0  0  0  0  0
    5.3723  -13.0545   26.1668 C   0  0  0  0  0  0  0  0  0  0  0  0
    5.6923  -11.7106   26.2434 C   0  0  0  0  0  0  0  0  0  0  0  0
    7.0216  -11.3694   26.3929 C   0  0  0  0  0  0  0  0  0  0  0  0
    7.9804  -12.3654   26.4606 C   0  0  0  0  0  0  0  0  0  0  0  0
    7.6659  -13.7066   26.3848 C   0  0  0  0  0  0  0  0  0  0  0  0
   10.4920  -17.3665   26.8088 C   0  0  0  0  0  0  0  0  0  0  0  0
    9.8170  -18.4134   26.6323 O   0  0  0  0  0  0  0  0  0  0  0  0
   11.3299  -17.3619   27.9320 O   0  0  0  0  0  0  0  0  0  0  0  0
  2  1  1  1
  2  3  1  0
  3  4  1  0
  4  5  1  0
  5  9  1  0
  6  5  2  0
  7  2  1  0
  7  8  2  0
 10  7  1  0
 11 10  1  0
 11 12  1  6
 13 12  1  0
 13 14  1  0
 14 15  2  0
 16 11  1  0
 17 16  2  0
 18 14  1  0
 19 16  1  0
 20 21  1  1
 20 19  1  0
 22 21  1  0
 23 22  2  0
 24 25  1  0
 24 23  1  0
 25 30  2  0
 26 27  2  0
 26 25  1  0
 27 28  1  0
 28 29  2  0
 30 29  1  0
 30 22  1  0
 31 20  1  0
 32 31  2  0
 33 31  1  0
M  END
$$$$
