EEW.pdb
     RDKit          3D

 33 34  0  0  1  0  0  0  0  0999 V2000
    6.5882  -16.5334   20.4144 N   0  0  0  0  0  0  0  0  0  0  0  0
    8.0688  -16.5342   20.3544 C   0  0  1  0  0  0  0  0  0  0  0  0
    8.4366  -15.1440   19.9080 C   0  0  0  0  0  0  0  0  0  0  0  0
    7.7194  -14.1159   20.7267 C   0  0  0  0  0  0  0  0  0  0  0  0
    8.0413  -12.7327   20.2592 C   0  0  0  0  0  0  0  0  0  0  0  0
    8.7337  -12.5498   19.2263 O   0  0  0  0  0  0  0  0  0  0  0  0
    8.5819  -16.8145   21.7303 C   0  0  0  0  0  0  0  0  0  0  0  0
    7.8171  -16.8567   22.7020 O   0  0  0  0  0  0  0  0  0  0  0  0
    7.5894  -11.6296   20.9456 O   0  0  0  0  0  0  0  0  0  0  0  0
    9.9625  -17.0447   21.9869 N   0  0  0  0  0  0  0  0  0  0  0  0
   10.4330  -17.6027   23.2423 C   0  0  1  0  0  0  0  0  0  0  0  0
   11.6712  -18.3660   22.9435 C   0  0  0  0  0  0  0  0  0  0  0  0
   12.8935  -17.6121   22.5893 C   0  0  0  0  0  0  0  0  0  0  0  0
   14.1085  -18.2904   22.2394 C   0  0  0  0  0  0  0  0  0  0  0  0
   14.9821  -17.8325   21.4955 O   0  0  0  0  0  0  0  0  0  0  0  0
   10.4159  -16.7072   24.3819 C   0  0  0  0  0  0  0  0  0  0  0  0
   10.7423  -15.4986   24.2516 O   0  0  0  0  0  0  0  0  0  0  0  0
   14.3517  -19.5559   22.7574 O   0  0  0  0  0  0  0  0  0  0  0  0
   10.0414  -17.0860   25.6998 N   0  0  0  0  0  0  0  0  0  0  0  0
   10.1521  -16.2124   26.8431 C   0  0  1  0  0  0  0  0  0  0  0  0
    8.7789  -16.1130   27.4546 C   0  0  0  0  0  0  0  0  0  0  0  0
    7.8092  -15.3629   26.6587 C   0  0  0  0  0  0  0  0  0  0  0  0
    6.7685  -15.8523   25.8956 C   0  0  0  0  0  0  0  0  0  0  0  0
    6.1149  -14.8241   25.3223 N   0  0  0  0  0  0  0  0  0  0  0  0
    6.7276  -13.6752   25.7110 C   0  0  0  0  0  0  0  0  0  0  0  0
    6.4468  -12.3601   25.4033 C   0  0  0  0  0  0  0  0  0  0  0  0
    7.1998  -11.3144   25.9070 C   0  0  0  0  0  0  0  0  0  0  0  0
    8.2576  -11.6209   26.7393 C   0  0  0  0  0  0  0  0  0  0  0  0
    8.5301  -12.9441   27.0410 C   0  0  0  0  0  0  0  0  0  0  0  0
    7.7818  -13.9899   26.5411 C   0  0  0  0  0  0  0  0  0  0  0  0
   11.1697  -16.7242   27.7562 C   0  0  0  0  0  0  0  0  0  0  0  0
   11.7732  -17.8176   27.6044 O   0  0  0  0  0  0  0  0  0  0  0  0
   11.5282  -15.9805   28.8885 O   0  0  0  0  0  0  0  0  0  0  0  0
  2  1  1  1
  2  3  1  0
  3  4  1  0
  4  5  1  0
  5  9  1  0
  6  5  2  0
  7  2  1  0
  7  8  2  0
 10  7  1  0
 11 10  1  0
 11 12  1  6
 13 12  1  0
 13 14  1  0
 14 15  2  0
 16 11  1  0
 17 16  2  0
 18 14  1  0
 19 16  1  0
 20 21  1  1
 20 19  1  0
 22 21  1  0
 23 22  2  0
 24 25  1  0
 24 23  1  0
 25 30  2  0
 26 27  2  0
 26 25  1  0
 27 28  1  0
 28 29  2  0
 30 29  1  0
 30 22  1  0
 31 20  1  0
 32 31  2  0
 33 31  1  0
M  END
$$$$
