EEW.pdb
     RDKit          3D

 33 34  0  0  1  0  0  0  0  0999 V2000
    6.2961  -15.3458   20.0507 N   0  0  0  0  0  0  0  0  0  0  0  0
    7.7129  -15.1556   20.4412 C   0  0  1  0  0  0  0  0  0  0  0  0
    7.8492  -13.6763   20.6864 C   0  0  0  0  0  0  0  0  0  0  0  0
    7.6148  -12.9047   19.4250 C   0  0  0  0  0  0  0  0  0  0  0  0
    8.7641  -13.0525   18.4802 C   0  0  0  0  0  0  0  0  0  0  0  0
    9.7646  -13.7467   18.7910 O   0  0  0  0  0  0  0  0  0  0  0  0
    7.9504  -15.9362   21.6939 C   0  0  0  0  0  0  0  0  0  0  0  0
    7.0606  -16.0692   22.5432 O   0  0  0  0  0  0  0  0  0  0  0  0
    8.7552  -12.4342   17.2513 O   0  0  0  0  0  0  0  0  0  0  0  0
    9.2003  -16.5588   21.9677 N   0  0  0  0  0  0  0  0  0  0  0  0
    9.4243  -17.3498   23.1648 C   0  0  1  0  0  0  0  0  0  0  0  0
   10.0469  -18.6270   22.7336 C   0  0  0  0  0  0  0  0  0  0  0  0
    9.3943  -19.3974   21.6526 C   0  0  0  0  0  0  0  0  0  0  0  0
   10.0115  -20.5686   21.0993 C   0  0  0  0  0  0  0  0  0  0  0  0
   11.1339  -20.9848   21.4050 O   0  0  0  0  0  0  0  0  0  0  0  0
    9.9838  -16.6416   24.2989 C   0  0  0  0  0  0  0  0  0  0  0  0
   10.9220  -15.8177   24.1401 O   0  0  0  0  0  0  0  0  0  0  0  0
    9.3247  -21.3118   20.1482 O   0  0  0  0  0  0  0  0  0  0  0  0
    9.5457  -16.7961   25.6424 N   0  0  0  0  0  0  0  0  0  0  0  0
   10.3197  -16.3798   26.7871 C   0  0  1  0  0  0  0  0  0  0  0  0
    9.5400  -15.2869   27.4706 C   0  0  0  0  0  0  0  0  0  0  0  0
    8.2832  -14.9318   26.8142 C   0  0  0  0  0  0  0  0  0  0  0  0
    7.3303  -15.7748   26.2791 C   0  0  0  0  0  0  0  0  0  0  0  0
    6.3234  -15.0411   25.7683 N   0  0  0  0  0  0  0  0  0  0  0  0
    6.6210  -13.7309   25.9706 C   0  0  0  0  0  0  0  0  0  0  0  0
    5.9213  -12.5898   25.6369 C   0  0  0  0  0  0  0  0  0  0  0  0
    6.3993  -11.3259   25.9337 C   0  0  0  0  0  0  0  0  0  0  0  0
    7.6138  -11.2293   26.5828 C   0  0  0  0  0  0  0  0  0  0  0  0
    8.3072  -12.3810   26.9126 C   0  0  0  0  0  0  0  0  0  0  0  0
    7.8343  -13.6434   26.6187 C   0  0  0  0  0  0  0  0  0  0  0  0
   10.5939  -17.5320   27.6405 C   0  0  0  0  0  0  0  0  0  0  0  0
   10.1160  -18.6811   27.4557 O   0  0  0  0  0  0  0  0  0  0  0  0
   11.4398  -17.3932   28.7490 O   0  0  0  0  0  0  0  0  0  0  0  0
  2  1  1  1
  2  3  1  0
  3  4  1  0
  4  5  1  0
  5  9  1  0
  6  5  2  0
  7  2  1  0
  7  8  2  0
 10  7  1  0
 11 10  1  0
 11 12  1  6
 13 12  1  0
 13 14  1  0
 14 15  2  0
 16 11  1  0
 17 16  2  0
 18 14  1  0
 19 16  1  0
 20 21  1  1
 20 19  1  0
 22 21  1  0
 23 22  2  0
 24 25  1  0
 24 23  1  0
 25 30  2  0
 26 27  2  0
 26 25  1  0
 27 28  1  0
 28 29  2  0
 30 29  1  0
 30 22  1  0
 31 20  1  0
 32 31  2  0
 33 31  1  0
M  END
$$$$
