RQK.pdb
     RDKit          3D

 30 29  0  0  1  0  0  0  0  0999 V2000
   30.7049  -21.0891   -9.0371 N   0  0  0  0  0  0  0  0  0  0  0  0
   31.0425  -22.1279   -9.9546 C   0  0  0  0  0  0  0  0  0  0  0  0
   31.6067  -23.1951   -9.5400 N   0  0  0  0  0  0  0  0  0  0  0  0
   30.7476  -21.9728  -11.3230 N   0  0  0  0  0  0  0  0  0  0  0  0
   29.6319  -21.1236  -11.7893 C   0  0  0  0  0  0  0  0  0  0  0  0
   28.4223  -21.5645  -11.0261 C   0  0  0  0  0  0  0  0  0  0  0  0
   27.1967  -20.8575  -11.4524 C   0  0  0  0  0  0  0  0  0  0  0  0
   26.9461  -20.7292  -12.9241 C   0  0  2  0  0  0  0  0  0  0  0  0
   27.9186  -19.9692  -13.6505 N   0  0  0  0  0  0  0  0  0  0  0  0
   25.6160  -20.0864  -13.0738 C   0  0  0  0  0  0  0  0  0  0  0  0
   25.4442  -18.9557  -12.5741 O   0  0  0  0  0  0  0  0  0  0  0  0
   31.9023  -23.9292  -10.2034 N   0  0  0  0  0  0  0  0  0  0  0  0
   20.2401  -19.6681  -16.0840 C   0  0  0  0  0  0  0  0  0  0  0  0
   21.0221  -18.4911  -16.0373 O   0  0  0  0  0  0  0  0  0  0  0  0
   20.4679  -17.4021  -16.3464 C   0  0  0  0  0  0  0  0  0  0  0  0
   22.4399  -18.4664  -15.6425 C   0  0  0  0  0  0  0  0  0  0  0  0
   23.0566  -19.7861  -15.3383 C   0  0  2  0  0  0  0  0  0  0  0  0
   23.2467  -20.1583  -13.9077 N   0  0  0  0  0  0  0  0  0  0  0  0
   24.6009  -20.7627  -13.7655 C   0  0  0  0  0  0  0  0  0  0  0  0
   22.3336  -21.1464  -13.3269 O   0  0  0  0  0  0  0  0  0  0  0  0
   22.7245  -22.2354  -12.8075 N   0  0  0  0  0  0  0  0  0  0  0  0
   20.9075  -20.9536  -13.3028 C   0  0  1  0  0  0  0  0  0  0  0  0
   20.0214  -21.9082  -12.6491 C   0  0  0  0  0  0  0  0  0  0  0  0
   20.3404  -22.0505  -11.1749 C   0  0  0  0  0  0  0  0  0  0  0  0
   19.2374  -22.8671  -10.5401 C   0  0  0  0  0  0  0  0  0  0  0  0
   19.7025  -23.5217   -9.2608 C   0  0  0  0  0  0  0  0  0  0  0  0
   18.6258  -24.3934   -8.6730 N   0  0  0  0  0  0  0  0  0  0  0  0
   19.0272  -25.0540   -7.4707 C   0  0  0  0  0  0  0  0  0  0  0  0
   18.5961  -21.5337  -12.8507 O   0  0  0  0  0  0  0  0  0  0  0  0
   17.7128  -22.2868  -12.3679 O   0  0  0  0  0  0  0  0  0  0  0  0
  1  2  1  0
  2  3  2  0
  4  5  1  0
  4  2  1  0
  6  5  1  0
  7  6  1  0
  8  9  1  1
  8  7  1  0
 10 11  2  0
 10  8  1  0
 12 13  1  0
 13 14  2  0
 15 16  1  0
 15 13  1  0
 17 16  1  1
 17 19  1  0
 17 18  1  0
 18 10  1  0
 19 21  1  0
 20 19  2  0
 21 22  1  0
 22 28  1  0
 23 24  1  0
 22 23  1  6
 24 25  1  0
 25 26  1  0
 26 27  1  0
 28 29  2  0
 28 30  1  0
M  END
$$$$
