RQK.pdb
     RDKit          3D

 30 29  0  0  1  0  0  0  0  0999 V2000
   10.5753   -9.5590   -9.7796 N   0  0  0  0  0  0  0  0  0  0  0  0
   10.2277  -10.9131  -10.0634 C   0  0  0  0  0  0  0  0  0  0  0  0
    9.4730  -11.5648   -9.2666 N   0  0  0  0  0  0  0  0  0  0  0  0
   10.7192  -11.5293  -11.2306 N   0  0  0  0  0  0  0  0  0  0  0  0
   11.7064  -10.8654  -12.1069 C   0  0  0  0  0  0  0  0  0  0  0  0
   11.9003  -11.7719  -13.2820 C   0  0  0  0  0  0  0  0  0  0  0  0
   12.9713  -11.3035  -14.1859 C   0  0  0  0  0  0  0  0  0  0  0  0
   14.0391  -12.2845  -14.5634 C   0  0  2  0  0  0  0  0  0  0  0  0
   14.0194  -13.5231  -13.8448 N   0  0  0  0  0  0  0  0  0  0  0  0
   15.3397  -11.6074  -14.3294 C   0  0  0  0  0  0  0  0  0  0  0  0
   15.9522  -11.8499  -13.2693 O   0  0  0  0  0  0  0  0  0  0  0  0
    9.2110  -12.5432   -9.4677 N   0  0  0  0  0  0  0  0  0  0  0  0
   19.8955  -12.9035  -17.4442 C   0  0  0  0  0  0  0  0  0  0  0  0
   20.3904  -11.7209  -16.8480 O   0  0  0  0  0  0  0  0  0  0  0  0
   21.6057  -11.4361  -17.0228 C   0  0  0  0  0  0  0  0  0  0  0  0
   19.5666  -10.8039  -16.0435 C   0  0  0  0  0  0  0  0  0  0  0  0
   18.1230  -11.1484  -15.9336 C   0  0  1  0  0  0  0  0  0  0  0  0
   17.2299  -10.2028  -15.2059 N   0  0  0  0  0  0  0  0  0  0  0  0
   15.8369  -10.7230  -15.2972 C   0  0  0  0  0  0  0  0  0  0  0  0
   17.1463   -8.8231  -15.6926 O   0  0  0  0  0  0  0  0  0  0  0  0
   16.6198   -8.5066  -16.8022 N   0  0  0  0  0  0  0  0  0  0  0  0
   17.6623   -7.7104  -14.9396 C   0  0  1  0  0  0  0  0  0  0  0  0
   17.6880   -6.3628  -15.4940 C   0  0  0  0  0  0  0  0  0  0  0  0
   16.9522   -5.3782  -14.6084 C   0  0  0  0  0  0  0  0  0  0  0  0
   17.0643   -4.0111  -15.2445 C   0  0  0  0  0  0  0  0  0  0  0  0
   16.3219   -2.9677  -14.4434 C   0  0  0  0  0  0  0  0  0  0  0  0
   16.3632   -1.6270  -15.1256 N   0  0  0  0  0  0  0  0  0  0  0  0
   15.6129   -0.6212  -14.4410 C   0  0  0  0  0  0  0  0  0  0  0  0
   19.0855   -5.9160  -15.7386 O   0  0  0  0  0  0  0  0  0  0  0  0
   19.2614   -4.8054  -16.3009 O   0  0  0  0  0  0  0  0  0  0  0  0
  1  2  1  0
  2  3  2  0
  4  5  1  0
  4  2  1  0
  6  5  1  0
  7  6  1  0
  8  9  1  1
  8  7  1  0
 10 11  2  0
 10  8  1  0
 12 13  1  0
 13 14  2  0
 15 16  1  0
 15 13  1  0
 17 16  1  1
 17 19  1  0
 17 18  1  0
 18 10  1  0
 19 21  1  0
 20 19  2  0
 21 22  1  0
 22 28  1  0
 23 24  1  0
 22 23  1  6
 24 25  1  0
 25 26  1  0
 26 27  1  0
 28 29  2  0
 28 30  1  0
M  END
$$$$
