RQK.pdb
     RDKit          3D

 30 29  0  0  1  0  0  0  0  0999 V2000
   25.2239  -15.8981  -17.3527 N   0  0  0  0  0  0  0  0  0  0  0  0
   26.0874  -15.1666  -16.4843 C   0  0  0  0  0  0  0  0  0  0  0  0
   26.1385  -13.8930  -16.5500 N   0  0  0  0  0  0  0  0  0  0  0  0
   26.8836  -15.8565  -15.5494 N   0  0  0  0  0  0  0  0  0  0  0  0
   26.6414  -17.2751  -15.2145 C   0  0  0  0  0  0  0  0  0  0  0  0
   27.0340  -18.0643  -16.4242 C   0  0  0  0  0  0  0  0  0  0  0  0
   26.8248  -19.5159  -16.2438 C   0  0  0  0  0  0  0  0  0  0  0  0
   27.3801  -20.1482  -15.0040 C   0  0  2  0  0  0  0  0  0  0  0  0
   28.4256  -21.1037  -15.2152 N   0  0  0  0  0  0  0  0  0  0  0  0
   26.2424  -20.8152  -14.3216 C   0  0  0  0  0  0  0  0  0  0  0  0
   25.7380  -21.8232  -14.8575 O   0  0  0  0  0  0  0  0  0  0  0  0
   26.8134  -13.3605  -15.9779 N   0  0  0  0  0  0  0  0  0  0  0  0
   25.4985  -20.4246   -8.0484 C   0  0  0  0  0  0  0  0  0  0  0  0
   26.4907  -20.9407   -8.9134 O   0  0  0  0  0  0  0  0  0  0  0  0
   27.6299  -21.1780   -8.4293 C   0  0  0  0  0  0  0  0  0  0  0  0
   26.2655  -21.2218  -10.3406 C   0  0  0  0  0  0  0  0  0  0  0  0
   24.9531  -20.7889  -10.8928 C   0  0  2  0  0  0  0  0  0  0  0  0
   24.7001  -20.9994  -12.3464 N   0  0  0  0  0  0  0  0  0  0  0  0
   25.7721  -20.2974  -13.1064 C   0  0  0  0  0  0  0  0  0  0  0  0
   23.4472  -20.4871  -12.9077 O   0  0  0  0  0  0  0  0  0  0  0  0
   23.3800  -19.4405  -13.6210 N   0  0  0  0  0  0  0  0  0  0  0  0
   22.1835  -21.1402  -12.6885 C   0  0  1  0  0  0  0  0  0  0  0  0
   21.0840  -21.0077  -13.6357 C   0  0  0  0  0  0  0  0  0  0  0  0
   21.3911  -21.6944  -14.9507 C   0  0  0  0  0  0  0  0  0  0  0  0
   20.2018  -21.4980  -15.8635 C   0  0  0  0  0  0  0  0  0  0  0  0
   20.3933  -22.2131  -17.1802 C   0  0  0  0  0  0  0  0  0  0  0  0
   19.2603  -21.9225  -18.1270 N   0  0  0  0  0  0  0  0  0  0  0  0
   19.3887  -22.5907  -19.3840 C   0  0  0  0  0  0  0  0  0  0  0  0
   19.8156  -21.5206  -13.0519 O   0  0  0  0  0  0  0  0  0  0  0  0
   19.8786  -22.5069  -12.2750 O   0  0  0  0  0  0  0  0  0  0  0  0
  1  2  1  0
  2  3  2  0
  4  5  1  0
  4  2  1  0
  6  5  1  0
  7  6  1  0
  8  9  1  6
  8  7  1  0
 10 11  2  0
 10  8  1  0
 12 13  1  0
 13 14  2  0
 15 16  1  0
 15 13  1  0
 17 16  1  1
 17 19  1  0
 17 18  1  0
 18 10  1  0
 19 21  1  0
 20 19  2  0
 21 22  1  0
 22 28  1  0
 23 24  1  0
 22 23  1  1
 24 25  1  0
 25 26  1  0
 26 27  1  0
 28 29  2  0
 28 30  1  0
M  END
$$$$
