RQK.pdb
     RDKit          3D

 30 29  0  0  1  0  0  0  0  0999 V2000
   26.6394  -28.6675  -18.6535 N   0  0  0  0  0  0  0  0  0  0  0  0
   27.3460  -28.7724  -17.4187 C   0  0  0  0  0  0  0  0  0  0  0  0
   28.1268  -29.7592  -17.2052 N   0  0  0  0  0  0  0  0  0  0  0  0
   27.1808  -27.7788  -16.4342 N   0  0  0  0  0  0  0  0  0  0  0  0
   26.2360  -26.6563  -16.6093 C   0  0  0  0  0  0  0  0  0  0  0  0
   24.8681  -27.2208  -16.3850 C   0  0  0  0  0  0  0  0  0  0  0  0
   23.8021  -26.2201  -16.5987 C   0  0  0  0  0  0  0  0  0  0  0  0
   23.0677  -25.7203  -15.3920 C   0  0  2  0  0  0  0  0  0  0  0  0
   21.8535  -26.4124  -15.0795 N   0  0  0  0  0  0  0  0  0  0  0  0
   22.7606  -24.2896  -15.6443 C   0  0  0  0  0  0  0  0  0  0  0  0
   21.6796  -24.0039  -16.1987 O   0  0  0  0  0  0  0  0  0  0  0  0
   28.6216  -29.8569  -16.3042 N   0  0  0  0  0  0  0  0  0  0  0  0
   20.7367  -21.4429  -13.7485 C   0  0  0  0  0  0  0  0  0  0  0  0
   21.3634  -20.1774  -13.6799 O   0  0  0  0  0  0  0  0  0  0  0  0
   20.6318  -19.1653  -13.5095 C   0  0  0  0  0  0  0  0  0  0  0  0
   22.8177  -19.9780  -13.7888 C   0  0  0  0  0  0  0  0  0  0  0  0
   23.6206  -21.1879  -14.1145 C   0  0  2  0  0  0  0  0  0  0  0  0
   23.3733  -21.8630  -15.4201 N   0  0  0  0  0  0  0  0  0  0  0  0
   23.6861  -23.3103  -15.2562 C   0  0  0  0  0  0  0  0  0  0  0  0
   24.1676  -21.4374  -16.5757 O   0  0  0  0  0  0  0  0  0  0  0  0
   25.3783  -21.7727  -16.7503 N   0  0  0  0  0  0  0  0  0  0  0  0
   23.6275  -20.5964  -17.6112 C   0  0  1  0  0  0  0  0  0  0  0  0
   24.4262  -20.2009  -18.7643 C   0  0  0  0  0  0  0  0  0  0  0  0
   23.5642  -19.6447  -19.8791 C   0  0  0  0  0  0  0  0  0  0  0  0
   24.4561  -19.4016  -21.0756 C   0  0  0  0  0  0  0  0  0  0  0  0
   23.6627  -18.9135  -22.2646 C   0  0  0  0  0  0  0  0  0  0  0  0
   24.5097  -18.8818  -23.5080 N   0  0  0  0  0  0  0  0  0  0  0  0
   23.8053  -18.4125  -24.6599 C   0  0  0  0  0  0  0  0  0  0  0  0
   25.4801  -19.2275  -18.3714 O   0  0  0  0  0  0  0  0  0  0  0  0
   25.1949  -18.3662  -17.5013 O   0  0  0  0  0  0  0  0  0  0  0  0
  1  2  1  0
  2  3  2  0
  4  5  1  0
  4  2  1  0
  6  5  1  0
  7  6  1  0
  8  9  1  6
  8  7  1  0
 10 11  2  0
 10  8  1  0
 12 13  1  0
 13 14  2  0
 15 16  1  0
 15 13  1  0
 17 16  1  1
 17 19  1  0
 17 18  1  0
 18 10  1  0
 19 21  1  0
 20 19  2  0
 21 22  1  0
 22 28  1  0
 23 24  1  0
 22 23  1  1
 24 25  1  0
 25 26  1  0
 26 27  1  0
 28 29  2  0
 28 30  1  0
M  END
$$$$
