RQK.pdb
     RDKit          3D

 30 29  0  0  1  0  0  0  0  0999 V2000
   28.1851  -26.1745  -16.2113 N   0  0  0  0  0  0  0  0  0  0  0  0
   28.5604  -25.9414  -17.5677 C   0  0  0  0  0  0  0  0  0  0  0  0
   28.5594  -26.9003  -18.4101 N   0  0  0  0  0  0  0  0  0  0  0  0
   28.9302  -24.6452  -17.9761 N   0  0  0  0  0  0  0  0  0  0  0  0
   28.4715  -23.4395  -17.2555 C   0  0  0  0  0  0  0  0  0  0  0  0
   27.3431  -22.8742  -18.0600 C   0  0  0  0  0  0  0  0  0  0  0  0
   26.0427  -22.9896  -17.3679 C   0  0  0  0  0  0  0  0  0  0  0  0
   25.8529  -22.1965  -16.1108 C   0  0  2  0  0  0  0  0  0  0  0  0
   26.5100  -22.7166  -14.9495 N   0  0  0  0  0  0  0  0  0  0  0  0
   24.3906  -22.1432  -15.8591 C   0  0  0  0  0  0  0  0  0  0  0  0
   23.6292  -21.9418  -16.8273 O   0  0  0  0  0  0  0  0  0  0  0  0
   28.8368  -26.7420  -19.3921 N   0  0  0  0  0  0  0  0  0  0  0  0
   19.5708  -24.4383  -14.0435 C   0  0  0  0  0  0  0  0  0  0  0  0
   20.7229  -25.2453  -14.1862 O   0  0  0  0  0  0  0  0  0  0  0  0
   20.5862  -26.3800  -14.7176 C   0  0  0  0  0  0  0  0  0  0  0  0
   22.0689  -24.8324  -13.7566 C   0  0  0  0  0  0  0  0  0  0  0  0
   22.1992  -23.4313  -13.2724 C   0  0  2  0  0  0  0  0  0  0  0  0
   22.4483  -22.3616  -14.2799 N   0  0  0  0  0  0  0  0  0  0  0  0
   23.9122  -22.3184  -14.5527 C   0  0  0  0  0  0  0  0  0  0  0  0
   22.0938  -20.9851  -13.9234 O   0  0  0  0  0  0  0  0  0  0  0  0
   22.5971  -20.3698  -12.9351 N   0  0  0  0  0  0  0  0  0  0  0  0
   21.1359  -20.2191  -14.6764 C   0  0  1  0  0  0  0  0  0  0  0  0
   20.8158  -18.8420  -14.3228 C   0  0  0  0  0  0  0  0  0  0  0  0
   21.0667  -17.8939  -15.4776 C   0  0  0  0  0  0  0  0  0  0  0  0
   22.5510  -17.6101  -15.5283 C   0  0  0  0  0  0  0  0  0  0  0  0
   22.8768  -16.5619  -16.5660 C   0  0  0  0  0  0  0  0  0  0  0  0
   24.3621  -16.3457  -16.6734 N   0  0  0  0  0  0  0  0  0  0  0  0
   24.7165  -15.2943  -17.5745 C   0  0  0  0  0  0  0  0  0  0  0  0
   19.4137  -18.7303  -13.8388 O   0  0  0  0  0  0  0  0  0  0  0  0
   18.6490  -19.7134  -14.0097 O   0  0  0  0  0  0  0  0  0  0  0  0
  1  2  1  0
  2  3  2  0
  4  5  1  0
  4  2  1  0
  6  5  1  0
  7  6  1  0
  8  9  1  1
  8  7  1  0
 10 11  2  0
 10  8  1  0
 12 13  1  0
 13 14  2  0
 15 16  1  0
 15 13  1  0
 17 16  1  6
 17 19  1  0
 17 18  1  0
 18 10  1  0
 19 21  1  0
 20 19  2  0
 21 22  1  0
 22 28  1  0
 23 24  1  0
 22 23  1  1
 24 25  1  0
 25 26  1  0
 26 27  1  0
 28 29  2  0
 28 30  1  0
M  END
$$$$
