RQK.pdb
     RDKit          3D

 30 29  0  0  1  0  0  0  0  0999 V2000
   15.9690  -23.4826  -10.0936 N   0  0  0  0  0  0  0  0  0  0  0  0
   16.8601  -23.2790  -11.1887 C   0  0  0  0  0  0  0  0  0  0  0  0
   17.0541  -24.2077  -12.0425 N   0  0  0  0  0  0  0  0  0  0  0  0
   17.5249  -22.0450  -11.3267 N   0  0  0  0  0  0  0  0  0  0  0  0
   18.4941  -21.7982  -12.4145 C   0  0  0  0  0  0  0  0  0  0  0  0
   19.8361  -22.1835  -11.8755 C   0  0  0  0  0  0  0  0  0  0  0  0
   20.9206  -21.3231  -12.3923 C   0  0  0  0  0  0  0  0  0  0  0  0
   22.3044  -21.5614  -11.8692 C   0  0  2  0  0  0  0  0  0  0  0  0
   22.6528  -20.8254  -10.6912 N   0  0  0  0  0  0  0  0  0  0  0  0
   23.2402  -21.1989  -12.9636 C   0  0  0  0  0  0  0  0  0  0  0  0
   23.7217  -20.0475  -12.9749 O   0  0  0  0  0  0  0  0  0  0  0  0
   17.7377  -24.0889  -12.8072 N   0  0  0  0  0  0  0  0  0  0  0  0
   27.6407  -21.0349  -14.7264 C   0  0  0  0  0  0  0  0  0  0  0  0
   27.6374  -21.9211  -15.8280 O   0  0  0  0  0  0  0  0  0  0  0  0
   28.5570  -21.8040  -16.6820 C   0  0  0  0  0  0  0  0  0  0  0  0
   26.6276  -22.9732  -16.0283 C   0  0  0  0  0  0  0  0  0  0  0  0
   25.5218  -23.0154  -15.0334 C   0  0  1  0  0  0  0  0  0  0  0  0
   24.5784  -21.8626  -14.9841 N   0  0  0  0  0  0  0  0  0  0  0  0
   23.5522  -22.1519  -13.9437 C   0  0  0  0  0  0  0  0  0  0  0  0
   23.8088  -21.5516  -16.1918 O   0  0  0  0  0  0  0  0  0  0  0  0
   22.8519  -22.2700  -16.6123 N   0  0  0  0  0  0  0  0  0  0  0  0
   24.0849  -20.3943  -17.0017 C   0  0  1  0  0  0  0  0  0  0  0  0
   23.3330  -20.1211  -18.2199 C   0  0  0  0  0  0  0  0  0  0  0  0
   23.5815  -18.7158  -18.7286 C   0  0  0  0  0  0  0  0  0  0  0  0
   22.3019  -17.9289  -18.5561 C   0  0  0  0  0  0  0  0  0  0  0  0
   22.4408  -16.5252  -19.0965 C   0  0  0  0  0  0  0  0  0  0  0  0
   21.1923  -15.7217  -18.8513 N   0  0  0  0  0  0  0  0  0  0  0  0
   21.3062  -14.3591  -19.2677 C   0  0  0  0  0  0  0  0  0  0  0  0
   23.6397  -21.1285  -19.2704 O   0  0  0  0  0  0  0  0  0  0  0  0
   24.7343  -21.7427  -19.1990 O   0  0  0  0  0  0  0  0  0  0  0  0
  1  2  1  0
  2  3  2  0
  4  5  1  0
  4  2  1  0
  6  5  1  0
  7  6  1  0
  8  9  1  1
  8  7  1  0
 10 11  2  0
 10  8  1  0
 12 13  1  0
 13 14  2  0
 15 16  1  0
 15 13  1  0
 17 16  1  1
 17 19  1  0
 17 18  1  0
 18 10  1  0
 19 21  1  0
 20 19  2  0
 21 22  1  0
 22 28  1  0
 23 24  1  0
 22 23  1  6
 24 25  1  0
 25 26  1  0
 26 27  1  0
 28 29  2  0
 28 30  1  0
M  END
$$$$
