RQK.pdb
     RDKit          3D

 30 29  0  0  1  0  0  0  0  0999 V2000
   21.2661  -21.9313   -6.9437 N   0  0  0  0  0  0  0  0  0  0  0  0
   21.0662  -21.1885   -8.1451 C   0  0  0  0  0  0  0  0  0  0  0  0
   19.9728  -20.5594   -8.3390 N   0  0  0  0  0  0  0  0  0  0  0  0
   22.0837  -21.1493   -9.1182 N   0  0  0  0  0  0  0  0  0  0  0  0
   23.4729  -21.5482   -8.8110 C   0  0  0  0  0  0  0  0  0  0  0  0
   24.1748  -20.3066   -8.3572 C   0  0  0  0  0  0  0  0  0  0  0  0
   25.1881  -19.8438   -9.3281 C   0  0  0  0  0  0  0  0  0  0  0  0
   25.9718  -20.8877  -10.0639 C   0  0  2  0  0  0  0  0  0  0  0  0
   27.1150  -21.4016   -9.3713 N   0  0  0  0  0  0  0  0  0  0  0  0
   26.4138  -20.2671  -11.3383 C   0  0  0  0  0  0  0  0  0  0  0  0
   27.4116  -19.5178  -11.3182 O   0  0  0  0  0  0  0  0  0  0  0  0
   19.7973  -20.0654   -9.2286 N   0  0  0  0  0  0  0  0  0  0  0  0
   28.3898  -22.9609  -16.0972 C   0  0  0  0  0  0  0  0  0  0  0  0
   28.0135  -21.7329  -16.6882 O   0  0  0  0  0  0  0  0  0  0  0  0
   28.3858  -21.5091  -17.8713 C   0  0  0  0  0  0  0  0  0  0  0  0
   27.2082  -20.7086  -16.0034 C   0  0  0  0  0  0  0  0  0  0  0  0
   26.8204  -21.0131  -14.5993 C   0  0  1  0  0  0  0  0  0  0  0  0
   26.1332  -19.9482  -13.8149 N   0  0  0  0  0  0  0  0  0  0  0  0
   25.7032  -20.5382  -12.5163 C   0  0  0  0  0  0  0  0  0  0  0  0
   24.9165  -19.3562  -14.3776 O   0  0  0  0  0  0  0  0  0  0  0  0
   23.7974  -19.9526  -14.3993 N   0  0  0  0  0  0  0  0  0  0  0  0
   24.9000  -18.0383  -14.9557 C   0  0  2  0  0  0  0  0  0  0  0  0
   23.7072  -17.5054  -15.6015 C   0  0  0  0  0  0  0  0  0  0  0  0
   23.9837  -16.1820  -16.2851 C   0  0  0  0  0  0  0  0  0  0  0  0
   22.6809  -15.6812  -16.8667 C   0  0  0  0  0  0  0  0  0  0  0  0
   22.8610  -14.3496  -17.5568 C   0  0  0  0  0  0  0  0  0  0  0  0
   21.5735  -13.8808  -18.1790 N   0  0  0  0  0  0  0  0  0  0  0  0
   21.7050  -12.6464  -18.8877 C   0  0  0  0  0  0  0  0  0  0  0  0
   23.1378  -18.4899  -16.5602 O   0  0  0  0  0  0  0  0  0  0  0  0
   23.9309  -19.1043  -17.3178 O   0  0  0  0  0  0  0  0  0  0  0  0
  1  2  1  0
  2  3  2  0
  4  5  1  0
  4  2  1  0
  6  5  1  0
  7  6  1  0
  8  9  1  1
  8  7  1  0
 10 11  2  0
 10  8  1  0
 12 13  1  0
 13 14  2  0
 15 16  1  0
 15 13  1  0
 17 16  1  1
 17 19  1  0
 17 18  1  0
 18 10  1  0
 19 21  1  0
 20 19  2  0
 21 22  1  0
 22 28  1  0
 23 24  1  0
 22 23  1  6
 24 25  1  0
 25 26  1  0
 26 27  1  0
 28 29  2  0
 28 30  1  0
M  END
$$$$
