RQK.pdb
     RDKit          3D

 30 29  0  0  1  0  0  0  0  0999 V2000
   24.5753  -24.9604  -15.3512 N   0  0  0  0  0  0  0  0  0  0  0  0
   25.7404  -24.2770  -15.8102 C   0  0  0  0  0  0  0  0  0  0  0  0
   26.7078  -24.9294  -16.3275 N   0  0  0  0  0  0  0  0  0  0  0  0
   25.8184  -22.8757  -15.6929 N   0  0  0  0  0  0  0  0  0  0  0  0
   25.3028  -22.1621  -14.5061 C   0  0  0  0  0  0  0  0  0  0  0  0
   24.9129  -20.7954  -14.9754 C   0  0  0  0  0  0  0  0  0  0  0  0
   23.6019  -20.3684  -14.4438 C   0  0  0  0  0  0  0  0  0  0  0  0
   22.7553  -21.4050  -13.7702 C   0  0  2  0  0  0  0  0  0  0  0  0
   22.6129  -22.6404  -14.4804 N   0  0  0  0  0  0  0  0  0  0  0  0
   21.4140  -20.7979  -13.5772 C   0  0  0  0  0  0  0  0  0  0  0  0
   21.3442  -19.6710  -13.0454 O   0  0  0  0  0  0  0  0  0  0  0  0
   26.6456  -25.9516  -16.4598 N   0  0  0  0  0  0  0  0  0  0  0  0
   17.2402  -18.1711  -13.5832 C   0  0  0  0  0  0  0  0  0  0  0  0
   18.0690  -18.0552  -14.7228 O   0  0  0  0  0  0  0  0  0  0  0  0
   18.3485  -16.8969  -15.1337 C   0  0  0  0  0  0  0  0  0  0  0  0
   18.6270  -19.2078  -15.4488 C   0  0  0  0  0  0  0  0  0  0  0  0
   18.2636  -20.5508  -14.9208 C   0  0  2  0  0  0  0  0  0  0  0  0
   18.9113  -21.0067  -13.6582 N   0  0  0  0  0  0  0  0  0  0  0  0
   20.2755  -21.5024  -13.9938 C   0  0  0  0  0  0  0  0  0  0  0  0
   18.2841  -22.1078  -12.9223 O   0  0  0  0  0  0  0  0  0  0  0  0
   18.2222  -23.2950  -13.3642 N   0  0  0  0  0  0  0  0  0  0  0  0
   17.6833  -21.9225  -11.6276 C   0  0  2  0  0  0  0  0  0  0  0  0
   16.9864  -23.0080  -10.9496 C   0  0  0  0  0  0  0  0  0  0  0  0
   15.9183  -23.6245  -11.8297 C   0  0  0  0  0  0  0  0  0  0  0  0
   14.6581  -23.7551  -11.0044 C   0  0  0  0  0  0  0  0  0  0  0  0
   13.7226  -24.7885  -11.5863 C   0  0  0  0  0  0  0  0  0  0  0  0
   12.4861  -24.9398  -10.7421 N   0  0  0  0  0  0  0  0  0  0  0  0
   11.5732  -25.9170  -11.2470 C   0  0  0  0  0  0  0  0  0  0  0  0
   17.9461  -24.0410  -10.4759 O   0  0  0  0  0  0  0  0  0  0  0  0
   18.3400  -24.9046  -11.3003 O   0  0  0  0  0  0  0  0  0  0  0  0
  1  2  1  0
  2  3  2  0
  4  5  1  0
  4  2  1  0
  6  5  1  0
  7  6  1  0
  8  9  1  6
  8  7  1  0
 10 11  2  0
 10  8  1  0
 12 13  1  0
 13 14  2  0
 15 16  1  0
 15 13  1  0
 17 16  1  1
 17 19  1  0
 17 18  1  0
 18 10  1  0
 19 21  1  0
 20 19  2  0
 21 22  1  0
 22 28  1  0
 23 24  1  0
 22 23  1  6
 24 25  1  0
 25 26  1  0
 26 27  1  0
 28 29  2  0
 28 30  1  0
M  END
$$$$
