RQK.pdb
     RDKit          3D

 30 29  0  0  1  0  0  0  0  0999 V2000
   20.8558  -23.2352  -18.6984 N   0  0  0  0  0  0  0  0  0  0  0  0
   19.4625  -22.9336  -18.6447 C   0  0  0  0  0  0  0  0  0  0  0  0
   18.7921  -22.7930  -19.7217 N   0  0  0  0  0  0  0  0  0  0  0  0
   18.8268  -22.7939  -17.3957 N   0  0  0  0  0  0  0  0  0  0  0  0
   19.5111  -23.1304  -16.1300 C   0  0  0  0  0  0  0  0  0  0  0  0
   19.5392  -24.6249  -16.0532 C   0  0  0  0  0  0  0  0  0  0  0  0
   20.1365  -25.1145  -14.7935 C   0  0  0  0  0  0  0  0  0  0  0  0
   20.0067  -24.2450  -13.5801 C   0  0  2  0  0  0  0  0  0  0  0  0
   20.9561  -23.1773  -13.4832 N   0  0  0  0  0  0  0  0  0  0  0  0
   20.1550  -25.1359  -12.4015 C   0  0  0  0  0  0  0  0  0  0  0  0
   21.0907  -25.9618  -12.3965 O   0  0  0  0  0  0  0  0  0  0  0  0
   17.7930  -22.5337  -19.6927 N   0  0  0  0  0  0  0  0  0  0  0  0
   18.0231  -23.5989   -6.6326 C   0  0  0  0  0  0  0  0  0  0  0  0
   18.5149  -24.9166   -6.4884 O   0  0  0  0  0  0  0  0  0  0  0  0
   18.5195  -25.4214   -5.3334 C   0  0  0  0  0  0  0  0  0  0  0  0
   19.0130  -25.7309   -7.6089 C   0  0  0  0  0  0  0  0  0  0  0  0
   19.0612  -25.0576   -8.9351 C   0  0  1  0  0  0  0  0  0  0  0  0
   19.3831  -25.8866  -10.1311 N   0  0  0  0  0  0  0  0  0  0  0  0
   19.2473  -25.0247  -11.3386 C   0  0  0  0  0  0  0  0  0  0  0  0
   18.5391  -27.0523  -10.4073 O   0  0  0  0  0  0  0  0  0  0  0  0
   17.4079  -26.9744  -10.9755 N   0  0  0  0  0  0  0  0  0  0  0  0
   18.9346  -28.3891  -10.0494 C   0  0  1  0  0  0  0  0  0  0  0  0
   18.0205  -29.5157  -10.1868 C   0  0  0  0  0  0  0  0  0  0  0  0
   18.7637  -30.8328  -10.2775 C   0  0  0  0  0  0  0  0  0  0  0  0
   17.7360  -31.9382  -10.3673 C   0  0  0  0  0  0  0  0  0  0  0  0
   18.3926  -33.2923  -10.4972 C   0  0  0  0  0  0  0  0  0  0  0  0
   17.8659  -34.0400  -11.6922 N   0  0  0  0  0  0  0  0  0  0  0  0
   18.3990  -35.3608  -11.8125 C   0  0  0  0  0  0  0  0  0  0  0  0
   17.0340  -29.5378   -9.0737 O   0  0  0  0  0  0  0  0  0  0  0  0
   16.0350  -30.2929   -9.1838 O   0  0  0  0  0  0  0  0  0  0  0  0
  1  2  1  0
  2  3  2  0
  4  5  1  0
  4  2  1  0
  6  5  1  0
  7  6  1  0
  8  9  1  6
  8  7  1  0
 10 11  2  0
 10  8  1  0
 12 13  1  0
 13 14  2  0
 15 16  1  0
 15 13  1  0
 17 16  1  1
 17 19  1  0
 17 18  1  0
 18 10  1  0
 19 21  1  0
 20 19  2  0
 21 22  1  0
 22 28  1  0
 23 24  1  0
 22 23  1  1
 24 25  1  0
 25 26  1  0
 26 27  1  0
 28 29  2  0
 28 30  1  0
M  END
$$$$
