FCI.pdb
     RDKit          3D

 26 26  0  0  1  0  0  0  0  0999 V2000
   24.0574  -22.0594  -13.0734 N   0  0  0  0  0  0  0  0  0  0  0  0
   24.7993  -20.9776  -12.5115 C   0  0  1  0  0  0  0  0  0  0  0  0
   23.7687  -19.9484  -12.0535 C   0  0  0  0  0  0  0  0  0  0  0  0
   23.3338  -19.2028  -13.2543 C   0  0  0  0  0  0  0  0  0  0  0  0
   24.1661  -18.3021  -13.8721 C   0  0  0  0  0  0  0  0  0  0  0  0
   23.7527  -17.6288  -15.0360 C   0  0  0  0  0  0  0  0  0  0  0  0
   22.4914  -17.8970  -15.5381 C   0  0  0  0  0  0  0  0  0  0  0  0
   21.6366  -18.7994  -14.9323 C   0  0  0  0  0  0  0  0  0  0  0  0
   22.0900  -19.4308  -13.7975 C   0  0  0  0  0  0  0  0  0  0  0  0
   25.7131  -21.3460  -11.4063 C   0  0  0  0  0  0  0  0  0  0  0  0
   25.2221  -22.0446  -10.4410 O   0  0  0  0  0  0  0  0  0  0  0  0
   27.0724  -21.0152  -11.2924 N   0  0  0  0  0  0  0  0  0  0  0  0
   27.9376  -21.3598  -10.1864 C   0  0  1  0  0  0  0  0  0  0  0  0
   29.3987  -21.4155  -10.5905 C   0  0  0  0  0  0  0  0  0  0  0  0
   29.7341  -20.0721  -11.7522 S   0  0  0  0  0  0  0  0  0  0  0  0
   27.8165  -20.4874   -9.0224 C   0  0  0  0  0  0  0  0  0  0  0  0
   27.3525  -19.3326   -9.1731 O   0  0  0  0  0  0  0  0  0  0  0  0
   25.4323  -21.3888   -4.3282 C   0  0  0  0  0  0  0  0  0  0  0  0
   26.0326  -20.7397   -5.5568 C   0  0  0  0  0  0  0  0  0  0  0  0
   27.4901  -20.4235   -5.3625 C   0  0  2  0  0  0  0  0  0  0  0  0
   27.6971  -19.5773   -4.1385 C   0  0  0  0  0  0  0  0  0  0  0  0
   28.2191  -19.9739   -6.5788 C   0  0  2  0  0  0  0  0  0  0  0  0
   28.1970  -20.8674   -7.7001 N   0  0  0  0  0  0  0  0  0  0  0  0
   29.5744  -19.5583   -6.1890 C   0  0  0  0  0  0  0  0  0  0  0  0
   30.5267  -20.3620   -6.1979 O   0  0  0  0  0  0  0  0  0  0  0  0
   29.7946  -18.2535   -5.8067 O   0  0  0  0  0  0  0  0  0  0  0  0
  2  1  1  1
  2 10  1  0
  3  2  1  0
  3  4  1  0
  4  5  2  0
  4  9  1  0
  5  6  1  0
  6  7  2  0
  8  7  1  0
  9  8  2  0
 10 11  2  0
 12 13  1  0
 12 10  1  0
 13 16  1  0
 14 15  1  0
 13 14  1  6
 16 17  2  0
 18 19  1  0
 20 21  1  1
 20 19  1  0
 22 20  1  0
 23 16  1  0
 22 23  1  6
 24 26  1  0
 24 22  1  0
 25 24  2  0
M  END
$$$$
