FCI.pdb
     RDKit          3D

 26 26  0  0  1  0  0  0  0  0999 V2000
   17.8771  -10.8816  -15.0990 N   0  0  0  0  0  0  0  0  0  0  0  0
   18.5185   -9.9202  -15.9361 C   0  0  1  0  0  0  0  0  0  0  0  0
   17.5729   -9.6820  -17.1110 C   0  0  0  0  0  0  0  0  0  0  0  0
   17.6614  -10.8684  -17.9894 C   0  0  0  0  0  0  0  0  0  0  0  0
   16.7223  -11.8686  -17.9304 C   0  0  0  0  0  0  0  0  0  0  0  0
   16.7983  -12.9725  -18.7990 C   0  0  0  0  0  0  0  0  0  0  0  0
   17.8396  -13.0230  -19.7088 C   0  0  0  0  0  0  0  0  0  0  0  0
   18.7966  -12.0278  -19.7856 C   0  0  0  0  0  0  0  0  0  0  0  0
   18.6755  -10.9704  -18.9142 C   0  0  0  0  0  0  0  0  0  0  0  0
   18.8774   -8.6459  -15.2733 C   0  0  0  0  0  0  0  0  0  0  0  0
   17.9845   -8.0977  -14.5227 O   0  0  0  0  0  0  0  0  0  0  0  0
   20.0982   -7.9604  -15.3722 N   0  0  0  0  0  0  0  0  0  0  0  0
   20.3923   -6.6676  -14.7954 C   0  0  1  0  0  0  0  0  0  0  0  0
   21.8776   -6.4602  -14.5673 C   0  0  0  0  0  0  0  0  0  0  0  0
   22.1450   -4.7793  -13.9592 S   0  0  0  0  0  0  0  0  0  0  0  0
   19.8816   -5.5304  -15.5548 C   0  0  0  0  0  0  0  0  0  0  0  0
   20.1447   -5.4479  -16.7777 O   0  0  0  0  0  0  0  0  0  0  0  0
   15.3373   -2.6980  -17.7239 C   0  0  0  0  0  0  0  0  0  0  0  0
   16.6560   -2.3705  -17.0570 C   0  0  0  0  0  0  0  0  0  0  0  0
   17.1868   -3.5382  -16.2716 C   0  0  2  0  0  0  0  0  0  0  0  0
   16.1640   -4.0333  -15.2887 C   0  0  0  0  0  0  0  0  0  0  0  0
   18.5639   -3.3788  -15.7322 C   0  0  2  0  0  0  0  0  0  0  0  0
   19.0880   -4.4875  -14.9889 N   0  0  0  0  0  0  0  0  0  0  0  0
   18.6418   -2.1011  -15.0092 C   0  0  0  0  0  0  0  0  0  0  0  0
   18.4888   -1.0131  -15.5970 O   0  0  0  0  0  0  0  0  0  0  0  0
   18.8889   -2.1085  -13.6541 O   0  0  0  0  0  0  0  0  0  0  0  0
  2  1  1  1
  2 10  1  0
  3  2  1  0
  3  4  1  0
  4  5  2  0
  4  9  1  0
  5  6  1  0
  6  7  2  0
  8  7  1  0
  9  8  2  0
 10 11  2  0
 12 13  1  0
 12 10  1  0
 13 16  1  0
 14 15  1  0
 13 14  1  6
 16 17  2  0
 18 19  1  0
 20 21  1  1
 20 19  1  0
 22 20  1  0
 23 16  1  0
 22 23  1  1
 24 26  1  0
 24 22  1  0
 25 24  2  0
M  END
$$$$
