FCI.pdb
     RDKit          3D

 26 26  0  0  1  0  0  0  0  0999 V2000
   23.0867  -22.0864  -15.7823 N   0  0  0  0  0  0  0  0  0  0  0  0
   23.5735  -20.9879  -15.0125 C   0  0  1  0  0  0  0  0  0  0  0  0
   22.4035  -20.5233  -14.1483 C   0  0  0  0  0  0  0  0  0  0  0  0
   21.4493  -19.8318  -15.0417 C   0  0  0  0  0  0  0  0  0  0  0  0
   20.2474  -20.4044  -15.3784 C   0  0  0  0  0  0  0  0  0  0  0  0
   19.3333  -19.7179  -16.1981 C   0  0  0  0  0  0  0  0  0  0  0  0
   19.6767  -18.4573  -16.6539 C   0  0  0  0  0  0  0  0  0  0  0  0
   20.8812  -17.8615  -16.3280 C   0  0  0  0  0  0  0  0  0  0  0  0
   21.7385  -18.5753  -15.5232 C   0  0  0  0  0  0  0  0  0  0  0  0
   24.7665  -21.2770  -14.1847 C   0  0  0  0  0  0  0  0  0  0  0  0
   24.7685  -22.3777  -13.5142 O   0  0  0  0  0  0  0  0  0  0  0  0
   25.9105  -20.4753  -14.0480 N   0  0  0  0  0  0  0  0  0  0  0  0
   27.0094  -20.7163  -13.1399 C   0  0  1  0  0  0  0  0  0  0  0  0
   28.3393  -20.2559  -13.7059 C   0  0  0  0  0  0  0  0  0  0  0  0
   28.4810  -20.8395  -15.4107 S   0  0  0  0  0  0  0  0  0  0  0  0
   26.8461  -20.1265  -11.8146 C   0  0  0  0  0  0  0  0  0  0  0  0
   26.1000  -19.1281  -11.6807 O   0  0  0  0  0  0  0  0  0  0  0  0
   23.3515  -20.4888   -9.2409 C   0  0  0  0  0  0  0  0  0  0  0  0
   24.6988  -19.9974   -9.7250 C   0  0  0  0  0  0  0  0  0  0  0  0
   25.8123  -20.4450   -8.8184 C   0  0  2  0  0  0  0  0  0  0  0  0
   25.5440  -20.0374   -7.3975 C   0  0  0  0  0  0  0  0  0  0  0  0
   27.1903  -20.1751   -9.3094 C   0  0  2  0  0  0  0  0  0  0  0  0
   27.4897  -20.6191  -10.6396 N   0  0  0  0  0  0  0  0  0  0  0  0
   28.1507  -20.6523   -8.3037 C   0  0  0  0  0  0  0  0  0  0  0  0
   28.2706  -20.0845   -7.2009 O   0  0  0  0  0  0  0  0  0  0  0  0
   28.9331  -21.7497   -8.5876 O   0  0  0  0  0  0  0  0  0  0  0  0
  2  1  1  1
  2 10  1  0
  3  2  1  0
  3  4  1  0
  4  5  2  0
  4  9  1  0
  5  6  1  0
  6  7  2  0
  8  7  1  0
  9  8  2  0
 10 11  2  0
 12 13  1  0
 12 10  1  0
 13 16  1  0
 14 15  1  0
 13 14  1  6
 16 17  2  0
 18 19  1  0
 20 21  1  1
 20 19  1  0
 22 20  1  0
 23 16  1  0
 22 23  1  6
 24 26  1  0
 24 22  1  0
 25 24  2  0
M  END
$$$$
