FCI.pdb
     RDKit          3D

 26 26  0  0  1  0  0  0  0  0999 V2000
   16.0633  -11.1747  -11.3701 N   0  0  0  0  0  0  0  0  0  0  0  0
   15.4965  -10.0844  -12.0958 C   0  0  1  0  0  0  0  0  0  0  0  0
   14.5601   -9.3691  -11.1248 C   0  0  0  0  0  0  0  0  0  0  0  0
   13.3399  -10.1961  -11.0068 C   0  0  0  0  0  0  0  0  0  0  0  0
   13.2132  -11.1397  -10.0172 C   0  0  0  0  0  0  0  0  0  0  0  0
   12.0309  -11.8920   -9.8939 C   0  0  0  0  0  0  0  0  0  0  0  0
   11.0051  -11.6568  -10.7924 C   0  0  0  0  0  0  0  0  0  0  0  0
   11.1108  -10.7123  -11.7967 C   0  0  0  0  0  0  0  0  0  0  0  0
   12.2874  -10.0039  -11.8726 C   0  0  0  0  0  0  0  0  0  0  0  0
   16.4747   -9.1424  -12.6855 C   0  0  0  0  0  0  0  0  0  0  0  0
   17.6786   -9.5698  -12.8560 O   0  0  0  0  0  0  0  0  0  0  0  0
   16.2330   -7.8189  -13.0854 N   0  0  0  0  0  0  0  0  0  0  0  0
   17.1653   -6.9616  -13.7826 C   0  0  1  0  0  0  0  0  0  0  0  0
   17.7390   -7.6188  -15.0235 C   0  0  0  0  0  0  0  0  0  0  0  0
   19.0184   -6.5448  -15.7139 S   0  0  0  0  0  0  0  0  0  0  0  0
   16.6294   -5.6574  -14.1604 C   0  0  0  0  0  0  0  0  0  0  0  0
   17.3994   -4.8056  -14.6634 O   0  0  0  0  0  0  0  0  0  0  0  0
   10.9827   -4.5930  -13.9354 C   0  0  0  0  0  0  0  0  0  0  0  0
   12.3991   -4.7658  -14.4401 C   0  0  0  0  0  0  0  0  0  0  0  0
   13.3260   -3.7334  -13.8594 C   0  0  2  0  0  0  0  0  0  0  0  0
   12.8129   -2.3454  -14.1184 C   0  0  0  0  0  0  0  0  0  0  0  0
   14.7732   -3.9396  -14.1351 C   0  0  2  0  0  0  0  0  0  0  0  0
   15.2629   -5.2798  -13.9932 N   0  0  0  0  0  0  0  0  0  0  0  0
   15.5445   -2.9510  -13.3674 C   0  0  0  0  0  0  0  0  0  0  0  0
   15.8344   -3.1422  -12.1706 O   0  0  0  0  0  0  0  0  0  0  0  0
   15.9546   -1.7903  -13.9852 O   0  0  0  0  0  0  0  0  0  0  0  0
  2  1  1  1
  2 10  1  0
  3  2  1  0
  3  4  1  0
  4  5  2  0
  4  9  1  0
  5  6  1  0
  6  7  2  0
  8  7  1  0
  9  8  2  0
 10 11  2  0
 12 13  1  0
 12 10  1  0
 13 16  1  0
 14 15  1  0
 13 14  1  6
 16 17  2  0
 18 19  1  0
 20 21  1  6
 20 19  1  0
 22 20  1  0
 23 16  1  0
 22 23  1  1
 24 26  1  0
 24 22  1  0
 25 24  2  0
M  END
$$$$
