FCI.pdb
     RDKit          3D

 26 26  0  0  1  0  0  0  0  0999 V2000
   32.2707  -32.4514  -16.4796 N   0  0  0  0  0  0  0  0  0  0  0  0
   31.1459  -32.1869  -17.3170 C   0  0  1  0  0  0  0  0  0  0  0  0
   31.5809  -32.5414  -18.7370 C   0  0  0  0  0  0  0  0  0  0  0  0
   32.0423  -31.2905  -19.3767 C   0  0  0  0  0  0  0  0  0  0  0  0
   33.3695  -30.9383  -19.3747 C   0  0  0  0  0  0  0  0  0  0  0  0
   33.7987  -29.7647  -20.0207 C   0  0  0  0  0  0  0  0  0  0  0  0
   32.8520  -28.9790  -20.6542 C   0  0  0  0  0  0  0  0  0  0  0  0
   31.5104  -29.3138  -20.6686 C   0  0  0  0  0  0  0  0  0  0  0  0
   31.1443  -30.4718  -20.0227 C   0  0  0  0  0  0  0  0  0  0  0  0
   29.9020  -32.8994  -16.9465 C   0  0  0  0  0  0  0  0  0  0  0  0
   30.0256  -34.0128  -16.3093 O   0  0  0  0  0  0  0  0  0  0  0  0
   28.5863  -32.4909  -17.2149 N   0  0  0  0  0  0  0  0  0  0  0  0
   27.3846  -33.1694  -16.7835 C   0  0  1  0  0  0  0  0  0  0  0  0
   26.5288  -32.3083  -15.8741 C   0  0  0  0  0  0  0  0  0  0  0  0
   27.2415  -32.3267  -14.2132 S   0  0  0  0  0  0  0  0  0  0  0  0
   26.5437  -33.6688  -17.8672 C   0  0  0  0  0  0  0  0  0  0  0  0
   26.4059  -32.9728  -18.9007 O   0  0  0  0  0  0  0  0  0  0  0  0
   27.0100  -38.4746  -20.0345 C   0  0  0  0  0  0  0  0  0  0  0  0
   26.7806  -37.0432  -19.5991 C   0  0  0  0  0  0  0  0  0  0  0  0
   25.3173  -36.7432  -19.4238 C   0  0  2  0  0  0  0  0  0  0  0  0
   24.5381  -37.1398  -20.6456 C   0  0  0  0  0  0  0  0  0  0  0  0
   24.9970  -35.3993  -18.8722 C   0  0  2  0  0  0  0  0  0  0  0  0
   25.8558  -34.9190  -17.8291 N   0  0  0  0  0  0  0  0  0  0  0  0
   23.5705  -35.3630  -18.5183 C   0  0  0  0  0  0  0  0  0  0  0  0
   22.6845  -35.3810  -19.3943 O   0  0  0  0  0  0  0  0  0  0  0  0
   23.2077  -35.3080  -17.1907 O   0  0  0  0  0  0  0  0  0  0  0  0
  2  1  1  1
  2 10  1  0
  3  2  1  0
  3  4  1  0
  4  5  2  0
  4  9  1  0
  5  6  1  0
  6  7  2  0
  8  7  1  0
  9  8  2  0
 10 11  2  0
 12 13  1  0
 12 10  1  0
 13 16  1  0
 14 15  1  0
 13 14  1  6
 16 17  2  0
 18 19  1  0
 20 21  1  6
 20 19  1  0
 22 20  1  0
 23 16  1  0
 22 23  1  1
 24 26  1  0
 24 22  1  0
 25 24  2  0
M  END
$$$$
