FCI.pdb
     RDKit          3D

 26 26  0  0  1  0  0  0  0  0999 V2000
   23.8555  -13.7235  -20.6668 N   0  0  0  0  0  0  0  0  0  0  0  0
   22.6258  -13.0202  -20.4944 C   0  0  1  0  0  0  0  0  0  0  0  0
   21.6931  -13.9721  -19.7491 C   0  0  0  0  0  0  0  0  0  0  0  0
   21.2126  -14.9688  -20.7302 C   0  0  0  0  0  0  0  0  0  0  0  0
   20.1983  -14.6719  -21.6069 C   0  0  0  0  0  0  0  0  0  0  0  0
   19.7779  -15.6170  -22.5603 C   0  0  0  0  0  0  0  0  0  0  0  0
   20.4106  -16.8473  -22.5899 C   0  0  0  0  0  0  0  0  0  0  0  0
   21.4336  -17.1682  -21.7166 C   0  0  0  0  0  0  0  0  0  0  0  0
   21.8065  -16.2081  -20.8049 C   0  0  0  0  0  0  0  0  0  0  0  0
   22.7348  -11.7213  -19.7923 C   0  0  0  0  0  0  0  0  0  0  0  0
   23.6414  -11.6151  -18.8824 O   0  0  0  0  0  0  0  0  0  0  0  0
   21.9508  -10.5779  -20.0111 N   0  0  0  0  0  0  0  0  0  0  0  0
   22.0630   -9.3253  -19.2977 C   0  0  1  0  0  0  0  0  0  0  0  0
   21.4461   -8.1680  -20.0599 C   0  0  0  0  0  0  0  0  0  0  0  0
   19.6603   -8.4257  -20.1666 S   0  0  0  0  0  0  0  0  0  0  0  0
   21.5014   -9.3384  -17.9503 C   0  0  0  0  0  0  0  0  0  0  0  0
   20.4836  -10.0335  -17.7220 O   0  0  0  0  0  0  0  0  0  0  0  0
   23.8587  -11.1862  -13.8642 C   0  0  0  0  0  0  0  0  0  0  0  0
   22.8647  -10.6640  -14.8792 C   0  0  0  0  0  0  0  0  0  0  0  0
   22.3373   -9.3090  -14.4946 C   0  0  2  0  0  0  0  0  0  0  0  0
   21.7521   -9.3338  -13.1112 C   0  0  0  0  0  0  0  0  0  0  0  0
   21.5105   -8.6239  -15.5241 C   0  0  2  0  0  0  0  0  0  0  0  0
   22.0433   -8.6003  -16.8552 N   0  0  0  0  0  0  0  0  0  0  0  0
   21.1372   -7.2941  -15.0202 C   0  0  0  0  0  0  0  0  0  0  0  0
   20.4079   -7.1616  -14.0185 O   0  0  0  0  0  0  0  0  0  0  0  0
   21.6042   -6.1728  -15.6696 O   0  0  0  0  0  0  0  0  0  0  0  0
  2  1  1  1
  2 10  1  0
  3  2  1  0
  3  4  1  0
  4  5  2  0
  4  9  1  0
  5  6  1  0
  6  7  2  0
  8  7  1  0
  9  8  2  0
 10 11  2  0
 12 13  1  0
 12 10  1  0
 13 16  1  0
 14 15  1  0
 13 14  1  6
 16 17  2  0
 18 19  1  0
 20 21  1  1
 20 19  1  0
 22 20  1  0
 23 16  1  0
 22 23  1  6
 24 26  1  0
 24 22  1  0
 25 24  2  0
M  END
$$$$
