LWW.pdb
     RDKit          3D

 37 40  0  0  1  0  0  0  0  0999 V2000
    7.9431  -14.5837   17.2513 C   0  0  0  0  0  0  0  0  0  0  0  0
    7.3448  -13.8228   18.4215 C   0  0  2  0  0  0  0  0  0  0  0  0
    6.9446  -12.4403   18.0266 C   0  0  0  0  0  0  0  0  0  0  0  0
    8.1615  -13.9113   19.6685 C   0  0  0  0  0  0  0  0  0  0  0  0
    8.5798  -15.3074   20.0552 C   0  0  2  0  0  0  0  0  0  0  0  0
    7.4958  -16.2377   20.0565 N   0  0  0  0  0  0  0  0  0  0  0  0
    9.1432  -15.2047   21.4324 C   0  0  0  0  0  0  0  0  0  0  0  0
   10.0109  -14.3111   21.6979 O   0  0  0  0  0  0  0  0  0  0  0  0
    8.7753  -16.0546   22.5077 N   0  0  0  0  0  0  0  0  0  0  0  0
    9.3400  -15.8919   23.8462 C   0  0  1  0  0  0  0  0  0  0  0  0
    8.3871  -16.4621   24.8736 C   0  0  0  0  0  0  0  0  0  0  0  0
    7.2606  -15.5648   25.1920 C   0  0  0  0  0  0  0  0  0  0  0  0
    5.9168  -15.9014   25.3256 C   0  0  0  0  0  0  0  0  0  0  0  0
    5.2349  -14.7899   25.5802 N   0  0  0  0  0  0  0  0  0  0  0  0
    6.0567  -13.7132   25.6262 C   0  0  0  0  0  0  0  0  0  0  0  0
    5.8138  -12.3761   25.8685 C   0  0  0  0  0  0  0  0  0  0  0  0
    6.8599  -11.4804   25.8738 C   0  0  0  0  0  0  0  0  0  0  0  0
    8.1308  -11.9211   25.6395 C   0  0  0  0  0  0  0  0  0  0  0  0
    8.3389  -13.2546   25.4021 C   0  0  0  0  0  0  0  0  0  0  0  0
    7.3221  -14.2011   25.3836 C   0  0  0  0  0  0  0  0  0  0  0  0
   10.7292  -16.3354   23.9596 C   0  0  0  0  0  0  0  0  0  0  0  0
   11.1549  -17.3441   23.3286 O   0  0  0  0  0  0  0  0  0  0  0  0
   11.7026  -15.6754   24.7759 N   0  0  0  0  0  0  0  0  0  0  0  0
   12.8244  -16.4333   25.3347 C   0  0  1  0  0  0  0  0  0  0  0  0
   12.3163  -17.6971   26.0037 C   0  0  0  0  0  0  0  0  0  0  0  0
   11.2379  -17.3412   26.9453 C   0  0  0  0  0  0  0  0  0  0  0  0
   10.1678  -18.1615   27.3011 C   0  0  0  0  0  0  0  0  0  0  0  0
    9.3921  -17.4957   28.1691 N   0  0  0  0  0  0  0  0  0  0  0  0
    9.8934  -16.2643   28.4127 C   0  0  0  0  0  0  0  0  0  0  0  0
    9.4828  -15.2209   29.2106 C   0  0  0  0  0  0  0  0  0  0  0  0
   10.2276  -14.0623   29.2514 C   0  0  0  0  0  0  0  0  0  0  0  0
   11.3646  -13.9843   28.4890 C   0  0  0  0  0  0  0  0  0  0  0  0
   11.7964  -15.0126   27.6835 C   0  0  0  0  0  0  0  0  0  0  0  0
   11.0487  -16.1657   27.6479 C   0  0  0  0  0  0  0  0  0  0  0  0
   13.7627  -16.7887   24.2631 C   0  0  0  0  0  0  0  0  0  0  0  0
   13.5214  -16.4265   22.9477 O   0  0  0  0  0  0  0  0  0  0  0  0
   14.8137  -17.4317   24.4999 O   0  0  0  0  0  0  0  0  0  0  0  0
  2  1  1  6
  2  3  1  0
  4  2  1  0
  5  4  1  0
  5  6  1  1
  7  5  1  0
  7  8  2  0
  9  7  1  0
 10 21  1  0
 10  9  1  0
 10 11  1  1
 12 20  1  0
 12 11  1  0
 13 12  2  0
 14 13  1  0
 14 15  1  0
 15 16  1  0
 15 20  2  0
 16 17  2  0
 17 18  1  0
 19 18  2  0
 20 19  1  0
 21 22  2  0
 23 24  1  0
 23 21  1  0
 24 25  1  6
 25 26  1  0
 26 34  1  0
 26 27  2  0
 27 28  1  0
 28 29  1  0
 29 30  2  0
 31 30  1  0
 32 31  2  0
 33 34  2  0
 33 32  1  0
 34 29  1  0
 35 24  1  0
 36 35  1  0
 37 35  2  0
M  END
$$$$
