LWW.pdb
     RDKit          3D

 37 40  0  0  1  0  0  0  0  0999 V2000
   10.5076  -23.0038   24.8644 C   0  0  0  0  0  0  0  0  0  0  0  0
    9.8014  -23.0877   23.5226 C   0  0  2  0  0  0  0  0  0  0  0  0
   10.7677  -23.3289   22.4110 C   0  0  0  0  0  0  0  0  0  0  0  0
    8.8354  -21.9733   23.2881 C   0  0  0  0  0  0  0  0  0  0  0  0
    7.9861  -21.6086   24.4795 C   0  0  2  0  0  0  0  0  0  0  0  0
    6.7804  -22.3700   24.5632 N   0  0  0  0  0  0  0  0  0  0  0  0
    7.6477  -20.1647   24.3207 C   0  0  0  0  0  0  0  0  0  0  0  0
    6.9284  -19.7858   23.3405 O   0  0  0  0  0  0  0  0  0  0  0  0
    8.0798  -19.1443   25.2072 N   0  0  0  0  0  0  0  0  0  0  0  0
    7.7364  -17.7399   24.9913 C   0  0  1  0  0  0  0  0  0  0  0  0
    7.6977  -17.0152   26.3187 C   0  0  0  0  0  0  0  0  0  0  0  0
    7.0199  -15.7067   26.2542 C   0  0  0  0  0  0  0  0  0  0  0  0
    5.7043  -15.4480   25.8815 C   0  0  0  0  0  0  0  0  0  0  0  0
    5.5118  -14.1341   25.9269 N   0  0  0  0  0  0  0  0  0  0  0  0
    6.6389  -13.4892   26.3150 C   0  0  0  0  0  0  0  0  0  0  0  0
    6.9141  -12.1517   26.5168 C   0  0  0  0  0  0  0  0  0  0  0  0
    8.1674  -11.7669   26.9387 C   0  0  0  0  0  0  0  0  0  0  0  0
    9.1296  -12.7114   27.1548 C   0  0  0  0  0  0  0  0  0  0  0  0
    8.8249  -14.0309   26.9452 C   0  0  0  0  0  0  0  0  0  0  0  0
    7.5793  -14.4751   26.5191 C   0  0  0  0  0  0  0  0  0  0  0  0
    8.5245  -17.0933   23.9422 C   0  0  0  0  0  0  0  0  0  0  0  0
    8.0662  -16.9316   22.7757 O   0  0  0  0  0  0  0  0  0  0  0  0
    9.8519  -16.5977   24.1466 N   0  0  0  0  0  0  0  0  0  0  0  0
   10.5801  -15.9766   23.0380 C   0  0  1  0  0  0  0  0  0  0  0  0
   10.1746  -14.5208   22.9001 C   0  0  0  0  0  0  0  0  0  0  0  0
    8.9317  -14.4416   22.1095 C   0  0  0  0  0  0  0  0  0  0  0  0
    7.6751  -14.8788   22.5271 C   0  0  0  0  0  0  0  0  0  0  0  0
    6.7961  -14.6506   21.5402 N   0  0  0  0  0  0  0  0  0  0  0  0
    7.4061  -14.0793   20.4779 C   0  0  0  0  0  0  0  0  0  0  0  0
    6.9559  -13.6566   19.2481 C   0  0  0  0  0  0  0  0  0  0  0  0
    7.8430  -13.0951   18.3556 C   0  0  0  0  0  0  0  0  0  0  0  0
    9.1582  -12.9741   18.7238 C   0  0  0  0  0  0  0  0  0  0  0  0
    9.6333  -13.3885   19.9466 C   0  0  0  0  0  0  0  0  0  0  0  0
    8.7427  -13.9475   20.8322 C   0  0  0  0  0  0  0  0  0  0  0  0
   12.0244  -16.0622   23.2865 C   0  0  0  0  0  0  0  0  0  0  0  0
   12.9431  -15.7635   22.2933 O   0  0  0  0  0  0  0  0  0  0  0  0
   12.4769  -16.4083   24.4043 O   0  0  0  0  0  0  0  0  0  0  0  0
  2  1  1  1
  2  3  1  0
  4  2  1  0
  5  4  1  0
  5  6  1  6
  7  5  1  0
  7  8  2  0
  9  7  1  0
 10 21  1  0
 10  9  1  0
 10 11  1  1
 12 20  1  0
 12 11  1  0
 13 12  2  0
 14 13  1  0
 14 15  1  0
 15 16  1  0
 15 20  2  0
 16 17  2  0
 17 18  1  0
 19 18  2  0
 20 19  1  0
 21 22  2  0
 23 24  1  0
 23 21  1  0
 24 25  1  1
 25 26  1  0
 26 34  1  0
 26 27  2  0
 27 28  1  0
 28 29  1  0
 29 30  2  0
 31 30  1  0
 32 31  2  0
 33 34  2  0
 33 32  1  0
 34 29  1  0
 35 24  1  0
 36 35  1  0
 37 35  2  0
M  END
$$$$
