LWW.pdb
     RDKit          3D

 37 40  0  0  1  0  0  0  0  0999 V2000
    9.3155  -14.9615   15.4633 C   0  0  0  0  0  0  0  0  0  0  0  0
    8.4005  -14.2759   16.4627 C   0  0  2  0  0  0  0  0  0  0  0  0
    7.9582  -12.9383   15.9700 C   0  0  0  0  0  0  0  0  0  0  0  0
    8.9277  -14.2910   17.8597 C   0  0  0  0  0  0  0  0  0  0  0  0
    9.3274  -15.6516   18.3723 C   0  0  2  0  0  0  0  0  0  0  0  0
    8.4351  -16.6894   17.9636 N   0  0  0  0  0  0  0  0  0  0  0  0
    9.3199  -15.5523   19.8605 C   0  0  0  0  0  0  0  0  0  0  0  0
   10.0918  -14.7252   20.4450 O   0  0  0  0  0  0  0  0  0  0  0  0
    8.4911  -16.3351   20.7057 N   0  0  0  0  0  0  0  0  0  0  0  0
    8.4588  -16.1344   22.1533 C   0  0  1  0  0  0  0  0  0  0  0  0
    7.0459  -16.3189   22.6615 C   0  0  0  0  0  0  0  0  0  0  0  0
    6.8767  -15.9411   24.0772 C   0  0  0  0  0  0  0  0  0  0  0  0
    6.6792  -16.7862   25.1651 C   0  0  0  0  0  0  0  0  0  0  0  0
    6.5396  -16.0357   26.2526 N   0  0  0  0  0  0  0  0  0  0  0  0
    6.6344  -14.7177   25.9510 C   0  0  0  0  0  0  0  0  0  0  0  0
    6.5694  -13.5841   26.7360 C   0  0  0  0  0  0  0  0  0  0  0  0
    6.7196  -12.3426   26.1591 C   0  0  0  0  0  0  0  0  0  0  0  0
    6.9322  -12.2414   24.8141 C   0  0  0  0  0  0  0  0  0  0  0  0
    6.9914  -13.3856   24.0624 C   0  0  0  0  0  0  0  0  0  0  0  0
    6.8455  -14.6622   24.5907 C   0  0  0  0  0  0  0  0  0  0  0  0
    9.4912  -16.8768   22.8761 C   0  0  0  0  0  0  0  0  0  0  0  0
    9.9113  -17.9955   22.4651 O   0  0  0  0  0  0  0  0  0  0  0  0
   10.1006  -16.4061   24.0830 N   0  0  0  0  0  0  0  0  0  0  0  0
   11.3372  -17.0235   24.5675 C   0  0  1  0  0  0  0  0  0  0  0  0
   12.0260  -16.1014   25.5566 C   0  0  0  0  0  0  0  0  0  0  0  0
   11.2182  -16.0301   26.7888 C   0  0  0  0  0  0  0  0  0  0  0  0
   11.1737  -17.0024   27.7874 C   0  0  0  0  0  0  0  0  0  0  0  0
   10.3261  -16.5923   28.7425 N   0  0  0  0  0  0  0  0  0  0  0  0
    9.7992  -15.3874   28.4302 C   0  0  0  0  0  0  0  0  0  0  0  0
    8.9044  -14.5573   29.0659 C   0  0  0  0  0  0  0  0  0  0  0  0
    8.5560  -13.3587   28.4821 C   0  0  0  0  0  0  0  0  0  0  0  0
    9.1166  -13.0277   27.2753 C   0  0  0  0  0  0  0  0  0  0  0  0
   10.0130  -13.8395   26.6197 C   0  0  0  0  0  0  0  0  0  0  0  0
   10.3563  -15.0337   27.2080 C   0  0  0  0  0  0  0  0  0  0  0  0
   11.0280  -18.3010   25.2212 C   0  0  0  0  0  0  0  0  0  0  0  0
   12.0326  -19.1821   25.5875 O   0  0  0  0  0  0  0  0  0  0  0  0
    9.8459  -18.6395   25.4705 O   0  0  0  0  0  0  0  0  0  0  0  0
  2  1  1  6
  2  3  1  0
  4  2  1  0
  5  4  1  0
  5  6  1  1
  7  5  1  0
  7  8  2  0
  9  7  1  0
 10 21  1  0
 10  9  1  0
 10 11  1  1
 12 20  1  0
 12 11  1  0
 13 12  2  0
 14 13  1  0
 14 15  1  0
 15 16  1  0
 15 20  2  0
 16 17  2  0
 17 18  1  0
 19 18  2  0
 20 19  1  0
 21 22  2  0
 23 24  1  0
 23 21  1  0
 24 25  1  1
 25 26  1  0
 26 34  1  0
 26 27  2  0
 27 28  1  0
 28 29  1  0
 29 30  2  0
 31 30  1  0
 32 31  2  0
 33 34  2  0
 33 32  1  0
 34 29  1  0
 35 24  1  0
 36 35  1  0
 37 35  2  0
M  END
$$$$
