LWW.pdb
     RDKit          3D

 37 40  0  0  1  0  0  0  0  0999 V2000
    8.7299  -13.6875   17.8508 C   0  0  0  0  0  0  0  0  0  0  0  0
    7.6246  -13.5145   18.8776 C   0  0  2  0  0  0  0  0  0  0  0  0
    7.0151  -12.1543   18.8001 C   0  0  0  0  0  0  0  0  0  0  0  0
    8.0140  -13.9540   20.2506 C   0  0  0  0  0  0  0  0  0  0  0  0
    8.6617  -15.3139   20.3216 C   0  0  2  0  0  0  0  0  0  0  0  0
    7.7537  -16.3826   20.0500 N   0  0  0  0  0  0  0  0  0  0  0  0
    9.1841  -15.4519   21.7118 C   0  0  0  0  0  0  0  0  0  0  0  0
   10.0917  -14.6623   22.1298 O   0  0  0  0  0  0  0  0  0  0  0  0
    8.7335  -16.4286   22.6376 N   0  0  0  0  0  0  0  0  0  0  0  0
    9.2014  -16.4513   24.0222 C   0  0  1  0  0  0  0  0  0  0  0  0
    8.0810  -16.9069   24.9309 C   0  0  0  0  0  0  0  0  0  0  0  0
    7.0472  -15.8779   25.1504 C   0  0  0  0  0  0  0  0  0  0  0  0
    5.6792  -16.0695   25.3197 C   0  0  0  0  0  0  0  0  0  0  0  0
    5.1075  -14.8775   25.4526 N   0  0  0  0  0  0  0  0  0  0  0  0
    6.0274  -13.8847   25.3818 C   0  0  0  0  0  0  0  0  0  0  0  0
    5.9139  -12.5124   25.4780 C   0  0  0  0  0  0  0  0  0  0  0  0
    7.0397  -11.7244   25.3862 C   0  0  0  0  0  0  0  0  0  0  0  0
    8.2610  -12.3061   25.2010 C   0  0  0  0  0  0  0  0  0  0  0  0
    8.3403  -13.6711   25.1092 C   0  0  0  0  0  0  0  0  0  0  0  0
    7.2387  -14.5136   25.1934 C   0  0  0  0  0  0  0  0  0  0  0  0
   10.4796  -17.1392   24.2031 C   0  0  0  0  0  0  0  0  0  0  0  0
   10.9390  -17.9224   23.3243 O   0  0  0  0  0  0  0  0  0  0  0  0
   11.3004  -16.9833   25.3655 N   0  0  0  0  0  0  0  0  0  0  0  0
   12.5241  -17.7752   25.5091 C   0  0  1  0  0  0  0  0  0  0  0  0
   13.4005  -17.1853   26.5985 C   0  0  0  0  0  0  0  0  0  0  0  0
   12.5659  -16.8902   27.7785 C   0  0  0  0  0  0  0  0  0  0  0  0
   12.3264  -17.7606   28.8413 C   0  0  0  0  0  0  0  0  0  0  0  0
   11.5179  -17.1479   29.7186 N   0  0  0  0  0  0  0  0  0  0  0  0
   11.2034  -15.9043   29.2926 C   0  0  0  0  0  0  0  0  0  0  0  0
   10.4283  -14.8962   29.8188 C   0  0  0  0  0  0  0  0  0  0  0  0
   10.2999  -13.7085   29.1322 C   0  0  0  0  0  0  0  0  0  0  0  0
   10.9540  -13.5668   27.9354 C   0  0  0  0  0  0  0  0  0  0  0  0
   11.7345  -14.5586   27.3881 C   0  0  0  0  0  0  0  0  0  0  0  0
   11.8585  -15.7409   28.0787 C   0  0  0  0  0  0  0  0  0  0  0  0
   12.1786  -19.1598   25.8534 C   0  0  0  0  0  0  0  0  0  0  0  0
   13.1458  -20.1506   25.9022 O   0  0  0  0  0  0  0  0  0  0  0  0
   10.9979  -19.4942   26.1148 O   0  0  0  0  0  0  0  0  0  0  0  0
  2  1  1  6
  2  3  1  0
  4  2  1  0
  5  4  1  0
  5  6  1  1
  7  5  1  0
  7  8  2  0
  9  7  1  0
 10 21  1  0
 10  9  1  0
 10 11  1  1
 12 20  1  0
 12 11  1  0
 13 12  2  0
 14 13  1  0
 14 15  1  0
 15 16  1  0
 15 20  2  0
 16 17  2  0
 17 18  1  0
 19 18  2  0
 20 19  1  0
 21 22  2  0
 23 24  1  0
 23 21  1  0
 24 25  1  1
 25 26  1  0
 26 34  1  0
 26 27  2  0
 27 28  1  0
 28 29  1  0
 29 30  2  0
 31 30  1  0
 32 31  2  0
 33 34  2  0
 33 32  1  0
 34 29  1  0
 35 24  1  0
 36 35  1  0
 37 35  2  0
M  END
$$$$
