LWW.pdb
     RDKit          3D

 37 40  0  0  1  0  0  0  0  0999 V2000
   10.3511  -17.7056   15.6864 C   0  0  0  0  0  0  0  0  0  0  0  0
    9.5105  -16.5152   16.1135 C   0  0  2  0  0  0  0  0  0  0  0  0
    9.5314  -15.4345   15.0844 C   0  0  0  0  0  0  0  0  0  0  0  0
    9.7865  -16.0624   17.5095 C   0  0  0  0  0  0  0  0  0  0  0  0
    9.8035  -17.1618   18.5414 C   0  0  2  0  0  0  0  0  0  0  0  0
    8.7602  -18.1200   18.3574 N   0  0  0  0  0  0  0  0  0  0  0  0
    9.6308  -16.4924   19.8630 C   0  0  0  0  0  0  0  0  0  0  0  0
   10.4366  -15.5725   20.2183 O   0  0  0  0  0  0  0  0  0  0  0  0
    8.6030  -16.8115   20.7880 N   0  0  0  0  0  0  0  0  0  0  0  0
    8.4898  -16.1335   22.0781 C   0  0  1  0  0  0  0  0  0  0  0  0
    7.0618  -16.2126   22.5714 C   0  0  0  0  0  0  0  0  0  0  0  0
    6.8762  -15.6569   23.9250 C   0  0  0  0  0  0  0  0  0  0  0  0
    6.4090  -16.3160   25.0581 C   0  0  0  0  0  0  0  0  0  0  0  0
    6.3620  -15.4407   26.0566 N   0  0  0  0  0  0  0  0  0  0  0  0
    6.7778  -14.2160   25.6514 C   0  0  0  0  0  0  0  0  0  0  0  0
    6.9137  -13.0181   26.3238 C   0  0  0  0  0  0  0  0  0  0  0  0
    7.3867  -11.9093   25.6578 C   0  0  0  0  0  0  0  0  0  0  0  0
    7.7184  -12.0024   24.3365 C   0  0  0  0  0  0  0  0  0  0  0  0
    7.5719  -13.2057   23.6975 C   0  0  0  0  0  0  0  0  0  0  0  0
    7.0988  -14.3548   24.3188 C   0  0  0  0  0  0  0  0  0  0  0  0
    9.5140  -16.5279   23.0450 C   0  0  0  0  0  0  0  0  0  0  0  0
    9.7437  -17.7426   23.3064 O   0  0  0  0  0  0  0  0  0  0  0  0
   10.3263  -15.5897   23.7587 N   0  0  0  0  0  0  0  0  0  0  0  0
   11.4266  -16.0656   24.6002 C   0  0  1  0  0  0  0  0  0  0  0  0
   11.0185  -17.3379   25.3195 C   0  0  0  0  0  0  0  0  0  0  0  0
   10.2986  -16.9800   26.5564 C   0  0  0  0  0  0  0  0  0  0  0  0
    9.3215  -17.7552   27.1798 C   0  0  0  0  0  0  0  0  0  0  0  0
    8.8921  -17.1021   28.2696 N   0  0  0  0  0  0  0  0  0  0  0  0
    9.5374  -15.9224   28.4064 C   0  0  0  0  0  0  0  0  0  0  0  0
    9.4642  -14.9109   29.3367 C   0  0  0  0  0  0  0  0  0  0  0  0
   10.2755  -13.8051   29.2040 C   0  0  0  0  0  0  0  0  0  0  0  0
   11.1380  -13.7464   28.1396 C   0  0  0  0  0  0  0  0  0  0  0  0
   11.2305  -14.7435   27.1965 C   0  0  0  0  0  0  0  0  0  0  0  0
   10.4183  -15.8441   27.3353 C   0  0  0  0  0  0  0  0  0  0  0  0
   12.6064  -16.3297   23.7674 C   0  0  0  0  0  0  0  0  0  0  0  0
   12.6586  -17.4270   22.9232 O   0  0  0  0  0  0  0  0  0  0  0  0
   13.6069  -15.5730   23.7909 O   0  0  0  0  0  0  0  0  0  0  0  0
  2  1  1  6
  2  3  1  0
  4  2  1  0
  5  4  1  0
  5  6  1  6
  7  5  1  0
  7  8  2  0
  9  7  1  0
 10 21  1  0
 10  9  1  0
 10 11  1  1
 12 20  1  0
 12 11  1  0
 13 12  2  0
 14 13  1  0
 14 15  1  0
 15 16  1  0
 15 20  2  0
 16 17  2  0
 17 18  1  0
 19 18  2  0
 20 19  1  0
 21 22  2  0
 23 24  1  0
 23 21  1  0
 24 25  1  6
 25 26  1  0
 26 34  1  0
 26 27  2  0
 27 28  1  0
 28 29  1  0
 29 30  2  0
 31 30  1  0
 32 31  2  0
 33 34  2  0
 33 32  1  0
 34 29  1  0
 35 24  1  0
 36 35  1  0
 37 35  2  0
M  END
$$$$
