LWW.pdb
     RDKit          3D

 37 40  0  0  1  0  0  0  0  0999 V2000
    9.0759  -13.1606   18.0188 C   0  0  0  0  0  0  0  0  0  0  0  0
    7.6743  -13.4465   18.5286 C   0  0  2  0  0  0  0  0  0  0  0  0
    6.8015  -12.2396   18.4330 C   0  0  0  0  0  0  0  0  0  0  0  0
    7.6522  -14.1377   19.8521 C   0  0  0  0  0  0  0  0  0  0  0  0
    8.5705  -15.3287   19.9613 C   0  0  2  0  0  0  0  0  0  0  0  0
    7.9265  -16.5644   19.6470 N   0  0  0  0  0  0  0  0  0  0  0  0
    9.0386  -15.3626   21.3770 C   0  0  0  0  0  0  0  0  0  0  0  0
    9.7209  -14.3935   21.8430 O   0  0  0  0  0  0  0  0  0  0  0  0
    8.7742  -16.4276   22.2769 N   0  0  0  0  0  0  0  0  0  0  0  0
    9.2261  -16.3920   23.6666 C   0  0  1  0  0  0  0  0  0  0  0  0
    8.1856  -17.0347   24.5571 C   0  0  0  0  0  0  0  0  0  0  0  0
    7.1498  -16.0941   25.0239 C   0  0  0  0  0  0  0  0  0  0  0  0
    5.8409  -16.3864   25.3956 C   0  0  0  0  0  0  0  0  0  0  0  0
    5.2371  -15.2470   25.7160 N   0  0  0  0  0  0  0  0  0  0  0  0
    6.0789  -14.1937   25.5789 C   0  0  0  0  0  0  0  0  0  0  0  0
    5.9107  -12.8422   25.8040 C   0  0  0  0  0  0  0  0  0  0  0  0
    6.9625  -11.9777   25.5964 C   0  0  0  0  0  0  0  0  0  0  0  0
    8.1651  -12.4634   25.1694 C   0  0  0  0  0  0  0  0  0  0  0  0
    8.2999  -13.8101   24.9549 C   0  0  0  0  0  0  0  0  0  0  0  0
    7.2736  -14.7267   25.1467 C   0  0  0  0  0  0  0  0  0  0  0  0
   10.5971  -16.8661   23.8547 C   0  0  0  0  0  0  0  0  0  0  0  0
   11.1626  -17.6086   23.0029 O   0  0  0  0  0  0  0  0  0  0  0  0
   11.3963  -16.5328   24.9947 N   0  0  0  0  0  0  0  0  0  0  0  0
   12.7355  -17.1070   25.1429 C   0  0  1  0  0  0  0  0  0  0  0  0
   13.4310  -16.5006   26.3476 C   0  0  0  0  0  0  0  0  0  0  0  0
   12.5274  -16.5750   27.5112 C   0  0  0  0  0  0  0  0  0  0  0  0
   12.3339  -17.6957   28.3181 C   0  0  0  0  0  0  0  0  0  0  0  0
   11.4367  -17.3873   29.2660 N   0  0  0  0  0  0  0  0  0  0  0  0
   11.0186  -16.1089   29.1320 C   0  0  0  0  0  0  0  0  0  0  0  0
   10.1293  -15.3299   29.8364 C   0  0  0  0  0  0  0  0  0  0  0  0
    9.9116  -14.0260   29.4478 C   0  0  0  0  0  0  0  0  0  0  0  0
   10.5937  -13.5410   28.3616 C   0  0  0  0  0  0  0  0  0  0  0  0
   11.4875  -14.2987   27.6410 C   0  0  0  0  0  0  0  0  0  0  0  0
   11.7002  -15.5987   28.0346 C   0  0  0  0  0  0  0  0  0  0  0  0
   12.6327  -18.5612   25.3163 C   0  0  0  0  0  0  0  0  0  0  0  0
   13.7547  -19.3722   25.2612 O   0  0  0  0  0  0  0  0  0  0  0  0
   11.5278  -19.1197   25.5197 O   0  0  0  0  0  0  0  0  0  0  0  0
  2  1  1  1
  2  3  1  0
  4  2  1  0
  5  4  1  0
  5  6  1  1
  7  5  1  0
  7  8  2  0
  9  7  1  0
 10 21  1  0
 10  9  1  0
 10 11  1  1
 12 20  1  0
 12 11  1  0
 13 12  2  0
 14 13  1  0
 14 15  1  0
 15 16  1  0
 15 20  2  0
 16 17  2  0
 17 18  1  0
 19 18  2  0
 20 19  1  0
 21 22  2  0
 23 24  1  0
 23 21  1  0
 24 25  1  1
 25 26  1  0
 26 34  1  0
 26 27  2  0
 27 28  1  0
 28 29  1  0
 29 30  2  0
 31 30  1  0
 32 31  2  0
 33 34  2  0
 33 32  1  0
 34 29  1  0
 35 24  1  0
 36 35  1  0
 37 35  2  0
M  END
$$$$
