LWW.pdb
     RDKit          3D

 37 40  0  0  1  0  0  0  0  0999 V2000
    8.5445  -16.1119   15.7529 C   0  0  0  0  0  0  0  0  0  0  0  0
    8.2508  -14.9690   16.7086 C   0  0  2  0  0  0  0  0  0  0  0  0
    7.7909  -13.7511   15.9787 C   0  0  0  0  0  0  0  0  0  0  0  0
    9.3365  -14.7340   17.7065 C   0  0  0  0  0  0  0  0  0  0  0  0
    9.6794  -15.9264   18.5635 C   0  0  2  0  0  0  0  0  0  0  0  0
    8.8408  -17.0557   18.3150 N   0  0  0  0  0  0  0  0  0  0  0  0
    9.5052  -15.4844   19.9773 C   0  0  0  0  0  0  0  0  0  0  0  0
   10.1281  -14.4582   20.4025 O   0  0  0  0  0  0  0  0  0  0  0  0
    8.6706  -16.1408   20.9189 N   0  0  0  0  0  0  0  0  0  0  0  0
    8.5796  -15.6972   22.3087 C   0  0  1  0  0  0  0  0  0  0  0  0
    7.1424  -15.7741   22.7747 C   0  0  0  0  0  0  0  0  0  0  0  0
    6.9531  -15.3363   24.1705 C   0  0  0  0  0  0  0  0  0  0  0  0
    6.6519  -16.1260   25.2760 C   0  0  0  0  0  0  0  0  0  0  0  0
    6.5327  -15.3303   26.3333 N   0  0  0  0  0  0  0  0  0  0  0  0
    6.7406  -14.0346   25.9944 C   0  0  0  0  0  0  0  0  0  0  0  0
    6.7364  -12.8732   26.7404 C   0  0  0  0  0  0  0  0  0  0  0  0
    7.0033  -11.6673   26.1310 C   0  0  0  0  0  0  0  0  0  0  0  0
    7.2707  -11.6287   24.7926 C   0  0  0  0  0  0  0  0  0  0  0  0
    7.2672  -12.7991   24.0799 C   0  0  0  0  0  0  0  0  0  0  0  0
    7.0035  -14.0420   24.6421 C   0  0  0  0  0  0  0  0  0  0  0  0
    9.5639  -16.3197   23.1936 C   0  0  0  0  0  0  0  0  0  0  0  0
    9.6785  -17.5755   23.2756 O   0  0  0  0  0  0  0  0  0  0  0  0
   10.4625  -15.5733   24.0211 N   0  0  0  0  0  0  0  0  0  0  0  0
   11.4924  -16.2687   24.7963 C   0  0  1  0  0  0  0  0  0  0  0  0
   10.9445  -17.5786   25.3319 C   0  0  0  0  0  0  0  0  0  0  0  0
   10.3221  -17.3363   26.6472 C   0  0  0  0  0  0  0  0  0  0  0  0
    9.7994  -18.3161   27.4905 C   0  0  0  0  0  0  0  0  0  0  0  0
    9.3137  -17.7175   28.5880 N   0  0  0  0  0  0  0  0  0  0  0  0
    9.4869  -16.3787   28.5197 C   0  0  0  0  0  0  0  0  0  0  0  0
    9.1730  -15.3436   29.3706 C   0  0  0  0  0  0  0  0  0  0  0  0
    9.4888  -14.0507   29.0139 C   0  0  0  0  0  0  0  0  0  0  0  0
   10.1113  -13.8337   27.8115 C   0  0  0  0  0  0  0  0  0  0  0  0
   10.4357  -14.8505   26.9436 C   0  0  0  0  0  0  0  0  0  0  0  0
   10.1181  -16.1380   27.3061 C   0  0  0  0  0  0  0  0  0  0  0  0
   12.6563  -16.5363   23.9426 C   0  0  0  0  0  0  0  0  0  0  0  0
   13.7936  -17.1447   24.4487 O   0  0  0  0  0  0  0  0  0  0  0  0
   12.6625  -16.2241   22.7275 O   0  0  0  0  0  0  0  0  0  0  0  0
  2  1  1  6
  2  3  1  0
  4  2  1  0
  5  4  1  0
  5  6  1  6
  7  5  1  0
  7  8  2  0
  9  7  1  0
 10 21  1  0
 10  9  1  0
 10 11  1  1
 12 20  1  0
 12 11  1  0
 13 12  2  0
 14 13  1  0
 14 15  1  0
 15 16  1  0
 15 20  2  0
 16 17  2  0
 17 18  1  0
 19 18  2  0
 20 19  1  0
 21 22  2  0
 23 24  1  0
 23 21  1  0
 24 25  1  6
 25 26  1  0
 26 34  1  0
 26 27  2  0
 27 28  1  0
 28 29  1  0
 29 30  2  0
 31 30  1  0
 32 31  2  0
 33 34  2  0
 33 32  1  0
 34 29  1  0
 35 24  1  0
 36 35  1  0
 37 35  2  0
M  END
$$$$
