LWW.pdb
     RDKit          3D

 37 40  0  0  1  0  0  0  0  0999 V2000
   12.5402  -21.3651   17.9050 C   0  0  0  0  0  0  0  0  0  0  0  0
   11.3700  -20.4125   17.7336 C   0  0  2  0  0  0  0  0  0  0  0  0
   11.2808  -19.9034   16.3335 C   0  0  0  0  0  0  0  0  0  0  0  0
   11.2980  -19.3622   18.7926 C   0  0  0  0  0  0  0  0  0  0  0  0
    9.9179  -18.8096   19.0453 C   0  0  2  0  0  0  0  0  0  0  0  0
    9.3524  -18.1680   17.9013 N   0  0  0  0  0  0  0  0  0  0  0  0
   10.0652  -17.8145   20.1465 C   0  0  0  0  0  0  0  0  0  0  0  0
   11.1551  -17.1687   20.2764 O   0  0  0  0  0  0  0  0  0  0  0  0
    9.0505  -17.5209   21.0942 N   0  0  0  0  0  0  0  0  0  0  0  0
    9.2073  -16.4592   22.0867 C   0  0  1  0  0  0  0  0  0  0  0  0
    7.8790  -15.7705   22.3098 C   0  0  0  0  0  0  0  0  0  0  0  0
    7.9864  -14.5278   23.0972 C   0  0  0  0  0  0  0  0  0  0  0  0
    8.6604  -13.3596   22.7545 C   0  0  0  0  0  0  0  0  0  0  0  0
    8.5355  -12.4994   23.7594 N   0  0  0  0  0  0  0  0  0  0  0  0
    7.8054  -13.0321   24.7694 C   0  0  0  0  0  0  0  0  0  0  0  0
    7.4064  -12.5223   25.9886 C   0  0  0  0  0  0  0  0  0  0  0  0
    6.6370  -13.2913   26.8332 C   0  0  0  0  0  0  0  0  0  0  0  0
    6.2737  -14.5532   26.4588 C   0  0  0  0  0  0  0  0  0  0  0  0
    6.6860  -15.0302   25.2422 C   0  0  0  0  0  0  0  0  0  0  0  0
    7.4634  -14.2997   24.3520 C   0  0  0  0  0  0  0  0  0  0  0  0
    9.9104  -16.8814   23.2979 C   0  0  0  0  0  0  0  0  0  0  0  0
    9.8164  -18.0616   23.7395 O   0  0  0  0  0  0  0  0  0  0  0  0
   10.7482  -16.0112   24.0661 N   0  0  0  0  0  0  0  0  0  0  0  0
   11.7624  -16.5734   24.9608 C   0  0  1  0  0  0  0  0  0  0  0  0
   11.1167  -17.5385   25.9378 C   0  0  0  0  0  0  0  0  0  0  0  0
   10.0189  -16.8473   26.6403 C   0  0  0  0  0  0  0  0  0  0  0  0
    8.7111  -17.3157   26.7613 C   0  0  0  0  0  0  0  0  0  0  0  0
    8.0001  -16.4159   27.4568 N   0  0  0  0  0  0  0  0  0  0  0  0
    8.7721  -15.3637   27.8085 C   0  0  0  0  0  0  0  0  0  0  0  0
    8.5248  -14.2080   28.5135 C   0  0  0  0  0  0  0  0  0  0  0  0
    9.5449  -13.3041   28.7165 C   0  0  0  0  0  0  0  0  0  0  0  0
   10.7853  -13.5867   28.2049 C   0  0  0  0  0  0  0  0  0  0  0  0
   11.0583  -14.7342   27.4971 C   0  0  0  0  0  0  0  0  0  0  0  0
   10.0360  -15.6318   27.2987 C   0  0  0  0  0  0  0  0  0  0  0  0
   12.7790  -17.2804   24.1724 C   0  0  0  0  0  0  0  0  0  0  0  0
   13.6284  -16.5969   23.3173 O   0  0  0  0  0  0  0  0  0  0  0  0
   12.9142  -18.5256   24.2445 O   0  0  0  0  0  0  0  0  0  0  0  0
  2  1  1  6
  2  3  1  0
  4  2  1  0
  5  4  1  0
  5  6  1  6
  7  5  1  0
  7  8  2  0
  9  7  1  0
 10 21  1  0
 10  9  1  0
 10 11  1  1
 12 20  1  0
 12 11  1  0
 13 12  2  0
 14 13  1  0
 14 15  1  0
 15 16  1  0
 15 20  2  0
 16 17  2  0
 17 18  1  0
 19 18  2  0
 20 19  1  0
 21 22  2  0
 23 24  1  0
 23 21  1  0
 24 25  1  1
 25 26  1  0
 26 34  1  0
 26 27  2  0
 27 28  1  0
 28 29  1  0
 29 30  2  0
 31 30  1  0
 32 31  2  0
 33 34  2  0
 33 32  1  0
 34 29  1  0
 35 24  1  0
 36 35  1  0
 37 35  2  0
M  END
$$$$
