LWW.pdb
     RDKit          3D

 37 40  0  0  1  0  0  0  0  0999 V2000
    8.9592  -14.2051   17.5099 C   0  0  0  0  0  0  0  0  0  0  0  0
    7.8645  -13.6538   18.4064 C   0  0  2  0  0  0  0  0  0  0  0  0
    7.6140  -12.2075   18.1362 C   0  0  0  0  0  0  0  0  0  0  0  0
    8.0423  -14.0048   19.8469 C   0  0  0  0  0  0  0  0  0  0  0  0
    8.2635  -15.4712   20.1200 C   0  0  2  0  0  0  0  0  0  0  0  0
    7.1655  -16.2894   19.7132 N   0  0  0  0  0  0  0  0  0  0  0  0
    8.4507  -15.5945   21.5945 C   0  0  0  0  0  0  0  0  0  0  0  0
    8.3779  -14.5589   22.3321 O   0  0  0  0  0  0  0  0  0  0  0  0
    8.7131  -16.8183   22.2634 N   0  0  0  0  0  0  0  0  0  0  0  0
    8.8274  -16.8917   23.7189 C   0  0  1  0  0  0  0  0  0  0  0  0
    7.4829  -17.2408   24.3182 C   0  0  0  0  0  0  0  0  0  0  0  0
    6.7872  -16.0846   24.9140 C   0  0  0  0  0  0  0  0  0  0  0  0
    5.5149  -16.0556   25.4771 C   0  0  0  0  0  0  0  0  0  0  0  0
    5.2606  -14.8095   25.8618 N   0  0  0  0  0  0  0  0  0  0  0  0
    6.3050  -13.9911   25.5854 C   0  0  0  0  0  0  0  0  0  0  0  0
    6.5063  -12.6438   25.8088 C   0  0  0  0  0  0  0  0  0  0  0  0
    7.6957  -12.0584   25.4354 C   0  0  0  0  0  0  0  0  0  0  0  0
    8.6682  -12.8149   24.8468 C   0  0  0  0  0  0  0  0  0  0  0  0
    8.4375  -14.1495   24.6386 C   0  0  0  0  0  0  0  0  0  0  0  0
    7.2575  -14.7914   24.9936 C   0  0  0  0  0  0  0  0  0  0  0  0
    9.9543  -17.7003   24.1833 C   0  0  0  0  0  0  0  0  0  0  0  0
   10.3307  -18.7314   23.5572 O   0  0  0  0  0  0  0  0  0  0  0  0
   10.7104  -17.3954   25.3601 N   0  0  0  0  0  0  0  0  0  0  0  0
   11.9029  -18.1802   25.6876 C   0  0  1  0  0  0  0  0  0  0  0  0
   12.8772  -17.3362   26.4884 C   0  0  0  0  0  0  0  0  0  0  0  0
   12.1959  -16.1036   26.9274 C   0  0  0  0  0  0  0  0  0  0  0  0
   12.0320  -14.9500   26.1613 C   0  0  0  0  0  0  0  0  0  0  0  0
   11.3741  -14.0415   26.8964 N   0  0  0  0  0  0  0  0  0  0  0  0
   11.0884  -14.5333   28.1225 C   0  0  0  0  0  0  0  0  0  0  0  0
   10.4407  -14.0119   29.2191 C   0  0  0  0  0  0  0  0  0  0  0  0
   10.2995  -14.7803   30.3542 C   0  0  0  0  0  0  0  0  0  0  0  0
   10.8133  -16.0515   30.3558 C   0  0  0  0  0  0  0  0  0  0  0  0
   11.4646  -16.5959   29.2732 C   0  0  0  0  0  0  0  0  0  0  0  0
   11.6016  -15.8238   28.1440 C   0  0  0  0  0  0  0  0  0  0  0  0
   11.5175  -19.3604   26.4709 C   0  0  0  0  0  0  0  0  0  0  0  0
   12.4351  -20.3539   26.7718 O   0  0  0  0  0  0  0  0  0  0  0  0
   10.3461  -19.5110   26.8944 O   0  0  0  0  0  0  0  0  0  0  0  0
  2  1  1  6
  2  3  1  0
  4  2  1  0
  5  4  1  0
  5  6  1  1
  7  5  1  0
  7  8  2  0
  9  7  1  0
 10 21  1  0
 10  9  1  0
 10 11  1  1
 12 20  1  0
 12 11  1  0
 13 12  2  0
 14 13  1  0
 14 15  1  0
 15 16  1  0
 15 20  2  0
 16 17  2  0
 17 18  1  0
 19 18  2  0
 20 19  1  0
 21 22  2  0
 23 24  1  0
 23 21  1  0
 24 25  1  1
 25 26  1  0
 26 34  1  0
 26 27  2  0
 27 28  1  0
 28 29  1  0
 29 30  2  0
 31 30  1  0
 32 31  2  0
 33 34  2  0
 33 32  1  0
 34 29  1  0
 35 24  1  0
 36 35  1  0
 37 35  2  0
M  END
$$$$
