LWW.pdb
     RDKit          3D

 37 40  0  0  1  0  0  0  0  0999 V2000
    7.0724  -12.0058   19.5448 C   0  0  0  0  0  0  0  0  0  0  0  0
    7.9887  -13.2109   19.6645 C   0  0  2  0  0  0  0  0  0  0  0  0
    9.2735  -12.9945   18.9366 C   0  0  0  0  0  0  0  0  0  0  0  0
    7.3080  -14.5072   19.3712 C   0  0  0  0  0  0  0  0  0  0  0  0
    8.1400  -15.7358   19.6402 C   0  0  2  0  0  0  0  0  0  0  0  0
    7.5055  -16.9454   19.2224 N   0  0  0  0  0  0  0  0  0  0  0  0
    8.3550  -15.7757   21.1155 C   0  0  0  0  0  0  0  0  0  0  0  0
    7.4684  -15.3046   21.8989 O   0  0  0  0  0  0  0  0  0  0  0  0
    9.5110  -16.3162   21.7365 N   0  0  0  0  0  0  0  0  0  0  0  0
    9.6519  -16.3670   23.1905 C   0  0  1  0  0  0  0  0  0  0  0  0
    8.4643  -17.0852   23.7925 C   0  0  0  0  0  0  0  0  0  0  0  0
    7.5899  -16.2068   24.5921 C   0  0  0  0  0  0  0  0  0  0  0  0
    6.3967  -16.5426   25.2247 C   0  0  0  0  0  0  0  0  0  0  0  0
    5.9132  -15.4490   25.8042 N   0  0  0  0  0  0  0  0  0  0  0  0
    6.7263  -14.3854   25.5936 C   0  0  0  0  0  0  0  0  0  0  0  0
    6.6494  -13.0693   26.0029 C   0  0  0  0  0  0  0  0  0  0  0  0
    7.6455  -12.1846   25.6536 C   0  0  0  0  0  0  0  0  0  0  0  0
    8.7028  -12.6155   24.9047 C   0  0  0  0  0  0  0  0  0  0  0  0
    8.7498  -13.9281   24.5140 C   0  0  0  0  0  0  0  0  0  0  0  0
    7.7735  -14.8626   24.8361 C   0  0  0  0  0  0  0  0  0  0  0  0
   10.9642  -16.8301   23.6414 C   0  0  0  0  0  0  0  0  0  0  0  0
   11.7326  -17.4827   22.8796 O   0  0  0  0  0  0  0  0  0  0  0  0
   11.4772  -16.5851   24.9552 N   0  0  0  0  0  0  0  0  0  0  0  0
   12.8316  -17.0192   25.3049 C   0  0  1  0  0  0  0  0  0  0  0  0
   13.2690  -16.3645   26.6021 C   0  0  0  0  0  0  0  0  0  0  0  0
   12.1314  -16.3529   27.5412 C   0  0  0  0  0  0  0  0  0  0  0  0
   11.6850  -17.4421   28.2887 C   0  0  0  0  0  0  0  0  0  0  0  0
   10.6288  -17.0530   29.0179 N   0  0  0  0  0  0  0  0  0  0  0  0
   10.3455  -15.7506   28.7937 C   0  0  0  0  0  0  0  0  0  0  0  0
    9.3846  -14.8972   29.2860 C   0  0  0  0  0  0  0  0  0  0  0  0
    9.3536  -13.5882   28.8568 C   0  0  0  0  0  0  0  0  0  0  0  0
   10.2891  -13.1731   27.9443 C   0  0  0  0  0  0  0  0  0  0  0  0
   11.2595  -14.0058   27.4370 C   0  0  0  0  0  0  0  0  0  0  0  0
   11.2848  -15.3104   27.8700 C   0  0  0  0  0  0  0  0  0  0  0  0
   12.8578  -18.4789   25.4589 C   0  0  0  0  0  0  0  0  0  0  0  0
   11.6863  -19.2169   25.5109 O   0  0  0  0  0  0  0  0  0  0  0  0
   13.9394  -19.1083   25.5491 O   0  0  0  0  0  0  0  0  0  0  0  0
  2  1  1  6
  2  3  1  0
  4  2  1  0
  5  4  1  0
  5  6  1  1
  7  5  1  0
  7  8  2  0
  9  7  1  0
 10 21  1  0
 10  9  1  0
 10 11  1  6
 12 20  1  0
 12 11  1  0
 13 12  2  0
 14 13  1  0
 14 15  1  0
 15 16  1  0
 15 20  2  0
 16 17  2  0
 17 18  1  0
 19 18  2  0
 20 19  1  0
 21 22  2  0
 23 24  1  0
 23 21  1  0
 24 25  1  1
 25 26  1  0
 26 34  1  0
 26 27  2  0
 27 28  1  0
 28 29  1  0
 29 30  2  0
 31 30  1  0
 32 31  2  0
 33 34  2  0
 33 32  1  0
 34 29  1  0
 35 24  1  0
 36 35  1  0
 37 35  2  0
M  END
$$$$
