CTY.pdb
     RDKit          3D

 26 26  0  0  1  0  0  0  0  0999 V2000
    7.8263  -18.0225   14.4694 N   0  0  0  0  0  0  0  0  0  0  0  0
    8.7057  -17.4222   15.4216 C   0  0  1  0  0  0  0  0  0  0  0  0
    8.5171  -15.8988   15.4304 C   0  0  0  0  0  0  0  0  0  0  0  0
    9.0913  -15.1924   13.8532 S   0  0  0  0  0  0  0  0  0  0  0  0
    8.4889  -17.8889   16.8026 C   0  0  0  0  0  0  0  0  0  0  0  0
    7.3866  -18.4298   17.0763 O   0  0  0  0  0  0  0  0  0  0  0  0
   10.0375  -20.0894   20.6547 C   0  0  0  0  0  0  0  0  0  0  0  0
    9.9252  -19.6730   19.2060 C   0  0  1  0  0  0  0  0  0  0  0  0
    9.2351  -20.5802   18.4374 O   0  0  0  0  0  0  0  0  0  0  0  0
    9.2614  -18.2903   19.1676 C   0  0  2  0  0  0  0  0  0  0  0  0
    9.4379  -17.7712   17.8493 N   0  0  0  0  0  0  0  0  0  0  0  0
    9.9065  -17.4777   20.2197 C   0  0  0  0  0  0  0  0  0  0  0  0
   11.1109  -17.1517   20.0157 O   0  0  0  0  0  0  0  0  0  0  0  0
    7.4058  -12.2730   17.9541 O   0  0  0  0  0  0  0  0  0  0  0  0
    7.8292  -12.9370   19.1211 C   0  0  0  0  0  0  0  0  0  0  0  0
    9.1464  -12.8808   19.5330 C   0  0  0  0  0  0  0  0  0  0  0  0
    9.5568  -13.5365   20.6825 C   0  0  0  0  0  0  0  0  0  0  0  0
    8.6418  -14.2530   21.4242 C   0  0  0  0  0  0  0  0  0  0  0  0
    9.1054  -14.9469   22.6521 C   0  0  0  0  0  0  0  0  0  0  0  0
    9.9704  -16.1407   22.3067 C   0  0  2  0  0  0  0  0  0  0  0  0
    9.2963  -17.0489   21.4044 N   0  0  0  0  0  0  0  0  0  0  0  0
   10.4788  -16.8250   23.5117 C   0  0  0  0  0  0  0  0  0  0  0  0
   11.4572  -16.2304   24.2869 O   0  0  0  0  0  0  0  0  0  0  0  0
    7.3198  -14.3322   21.0454 C   0  0  0  0  0  0  0  0  0  0  0  0
    6.9454  -13.6632   19.8893 C   0  0  0  0  0  0  0  0  0  0  0  0
   10.0455  -17.9475   23.8623 O   0  0  0  0  0  0  0  0  0  0  0  0
  2  5  1  0
  2  1  1  6
  3  2  1  0
  4  3  1  0
  5  6  2  0
  8  9  1  0
  8 10  1  0
  8  7  1  1
 11  5  1  0
 10 11  1  6
 12 10  1  0
 12 21  1  0
 13 12  2  0
 15 14  1  0
 16 15  2  0
 17 16  1  0
 18 24  1  0
 18 17  2  0
 19 18  1  0
 20 21  1  0
 20 19  1  1
 22 20  1  0
 23 22  1  0
 24 25  2  0
 25 15  1  0
 26 22  2  0
M  END
$$$$
