CTY.pdb
     RDKit          3D

 26 26  0  0  1  0  0  0  0  0999 V2000
    9.7498  -18.2122   16.7810 N   0  0  0  0  0  0  0  0  0  0  0  0
    8.7771  -17.8979   17.7788 C   0  0  1  0  0  0  0  0  0  0  0  0
    8.5893  -19.0885   18.7293 C   0  0  0  0  0  0  0  0  0  0  0  0
    7.9454  -20.5224   17.8098 S   0  0  0  0  0  0  0  0  0  0  0  0
    9.1387  -16.7373   18.6119 C   0  0  0  0  0  0  0  0  0  0  0  0
    9.8739  -15.8522   18.1032 O   0  0  0  0  0  0  0  0  0  0  0  0
    8.5121  -14.1010   18.5739 C   0  0  0  0  0  0  0  0  0  0  0  0
    7.9808  -14.2757   19.9782 C   0  0  1  0  0  0  0  0  0  0  0  0
    6.6519  -14.6263   20.0109 O   0  0  0  0  0  0  0  0  0  0  0  0
    8.8522  -15.3257   20.6799 C   0  0  2  0  0  0  0  0  0  0  0  0
    8.7156  -16.5460   19.9514 N   0  0  0  0  0  0  0  0  0  0  0  0
    8.3784  -15.4090   22.0770 C   0  0  0  0  0  0  0  0  0  0  0  0
    7.1582  -15.6979   22.2381 O   0  0  0  0  0  0  0  0  0  0  0  0
    6.1699  -11.4653   29.3467 O   0  0  0  0  0  0  0  0  0  0  0  0
    6.6055  -11.9437   28.0963 C   0  0  0  0  0  0  0  0  0  0  0  0
    7.9448  -12.1762   27.8512 C   0  0  0  0  0  0  0  0  0  0  0  0
    8.3671  -12.6471   26.6184 C   0  0  0  0  0  0  0  0  0  0  0  0
    7.4418  -12.8865   25.6249 C   0  0  0  0  0  0  0  0  0  0  0  0
    7.9185  -13.3911   24.3125 C   0  0  0  0  0  0  0  0  0  0  0  0
    8.5738  -14.7484   24.4587 C   0  0  2  0  0  0  0  0  0  0  0  0
    9.1640  -15.1961   23.2159 N   0  0  0  0  0  0  0  0  0  0  0  0
    7.6542  -15.7497   25.0333 C   0  0  0  0  0  0  0  0  0  0  0  0
    7.8778  -16.2499   26.3028 O   0  0  0  0  0  0  0  0  0  0  0  0
    6.0978  -12.6667   25.8317 C   0  0  0  0  0  0  0  0  0  0  0  0
    5.7120  -12.1952   27.0779 C   0  0  0  0  0  0  0  0  0  0  0  0
    6.6590  -16.1696   24.3975 O   0  0  0  0  0  0  0  0  0  0  0  0
  2  5  1  0
  2  1  1  6
  3  2  1  0
  4  3  1  0
  5  6  2  0
  8  9  1  0
  8 10  1  0
  8  7  1  6
 11  5  1  0
 10 11  1  6
 12 10  1  0
 12 21  1  0
 13 12  2  0
 15 14  1  0
 16 15  2  0
 17 16  1  0
 18 24  1  0
 18 17  2  0
 19 18  1  0
 20 21  1  0
 20 19  1  6
 22 20  1  0
 23 22  1  0
 24 25  2  0
 25 15  1  0
 26 22  2  0
M  END
$$$$
