CTY.pdb
     RDKit          3D

 26 26  0  0  1  0  0  0  0  0999 V2000
    8.2491  -15.0513   17.0541 N   0  0  0  0  0  0  0  0  0  0  0  0
    8.7487  -14.6386   18.3270 C   0  0  1  0  0  0  0  0  0  0  0  0
    7.8526  -13.5410   18.9175 C   0  0  0  0  0  0  0  0  0  0  0  0
    8.1738  -11.9576   18.0774 S   0  0  0  0  0  0  0  0  0  0  0  0
    8.8056  -15.7259   19.3204 C   0  0  0  0  0  0  0  0  0  0  0  0
    8.0216  -16.6990   19.1753 O   0  0  0  0  0  0  0  0  0  0  0  0
   10.2030  -18.4676   19.5771 C   0  0  0  0  0  0  0  0  0  0  0  0
   10.8064  -17.8266   20.8058 C   0  0  1  0  0  0  0  0  0  0  0  0
   12.0122  -17.2152   20.5566 O   0  0  0  0  0  0  0  0  0  0  0  0
    9.7812  -16.8310   21.3644 C   0  0  2  0  0  0  0  0  0  0  0  0
    9.6844  -15.7537   20.4325 N   0  0  0  0  0  0  0  0  0  0  0  0
   10.2657  -16.4231   22.6993 C   0  0  0  0  0  0  0  0  0  0  0  0
   11.2729  -15.6592   22.7199 O   0  0  0  0  0  0  0  0  0  0  0  0
    6.3376  -11.1649   28.1091 O   0  0  0  0  0  0  0  0  0  0  0  0
    6.7563  -12.1390   27.1829 C   0  0  0  0  0  0  0  0  0  0  0  0
    5.9608  -13.2293   26.8893 C   0  0  0  0  0  0  0  0  0  0  0  0
    6.3786  -14.1846   25.9768 C   0  0  0  0  0  0  0  0  0  0  0  0
    7.6010  -14.0467   25.3544 C   0  0  0  0  0  0  0  0  0  0  0  0
    8.0267  -15.0830   24.3803 C   0  0  0  0  0  0  0  0  0  0  0  0
    9.2462  -15.8288   24.8798 C   0  0  2  0  0  0  0  0  0  0  0  0
    9.7043  -16.8112   23.9215 N   0  0  0  0  0  0  0  0  0  0  0  0
    9.0305  -16.4119   26.2184 C   0  0  0  0  0  0  0  0  0  0  0  0
    9.5034  -15.7617   27.3433 O   0  0  0  0  0  0  0  0  0  0  0  0
    8.4219  -12.9731   25.6213 C   0  0  0  0  0  0  0  0  0  0  0  0
    7.9708  -12.0369   26.5401 C   0  0  0  0  0  0  0  0  0  0  0  0
    8.4220  -17.4967   26.3726 O   0  0  0  0  0  0  0  0  0  0  0  0
  2  5  1  0
  2  1  1  6
  3  2  1  0
  4  3  1  0
  5  6  2  0
  8  9  1  0
  8 10  1  0
  8  7  1  6
 11  5  1  0
 10 11  1  6
 12 10  1  0
 12 21  1  0
 13 12  2  0
 15 14  1  0
 16 15  2  0
 17 16  1  0
 18 24  1  0
 18 17  2  0
 19 18  1  0
 20 21  1  0
 20 19  1  6
 22 20  1  0
 23 22  1  0
 24 25  2  0
 25 15  1  0
 26 22  2  0
M  END
$$$$
