CTY.pdb
     RDKit          3D

 26 26  0  0  1  0  0  0  0  0999 V2000
    5.9214  -20.0539   20.9163 N   0  0  0  0  0  0  0  0  0  0  0  0
    5.9905  -19.0193   21.8988 C   0  0  1  0  0  0  0  0  0  0  0  0
    6.0086  -19.6273   23.3081 C   0  0  0  0  0  0  0  0  0  0  0  0
    5.9941  -18.3019   24.5570 S   0  0  0  0  0  0  0  0  0  0  0  0
    7.1910  -18.1725   21.7819 C   0  0  0  0  0  0  0  0  0  0  0  0
    8.2985  -18.7410   21.6007 O   0  0  0  0  0  0  0  0  0  0  0  0
    8.0777  -15.1944   19.4345 C   0  0  0  0  0  0  0  0  0  0  0  0
    7.9923  -14.7385   20.8731 C   0  0  1  0  0  0  0  0  0  0  0  0
    6.7614  -14.2217   21.2015 O   0  0  0  0  0  0  0  0  0  0  0  0
    8.3506  -15.9351   21.7643 C   0  0  2  0  0  0  0  0  0  0  0  0
    7.1870  -16.7569   21.8594 N   0  0  0  0  0  0  0  0  0  0  0  0
    8.7987  -15.3835   23.0597 C   0  0  0  0  0  0  0  0  0  0  0  0
    8.2516  -14.3048   23.4282 O   0  0  0  0  0  0  0  0  0  0  0  0
    6.1630  -10.8310   27.1233 O   0  0  0  0  0  0  0  0  0  0  0  0
    6.6902  -12.0974   26.8063 C   0  0  0  0  0  0  0  0  0  0  0  0
    8.0110  -12.4038   27.0693 C   0  0  0  0  0  0  0  0  0  0  0  0
    8.5238  -13.6521   26.7549 C   0  0  0  0  0  0  0  0  0  0  0  0
    7.7081  -14.5993   26.1734 C   0  0  0  0  0  0  0  0  0  0  0  0
    8.2803  -15.9295   25.8460 C   0  0  0  0  0  0  0  0  0  0  0  0
    9.6987  -15.7983   25.3324 C   0  0  2  0  0  0  0  0  0  0  0  0
    9.7658  -15.9542   23.8955 N   0  0  0  0  0  0  0  0  0  0  0  0
   10.6298  -16.7014   26.0365 C   0  0  0  0  0  0  0  0  0  0  0  0
   11.1447  -17.8096   25.3895 O   0  0  0  0  0  0  0  0  0  0  0  0
    6.3858  -14.3306   25.8960 C   0  0  0  0  0  0  0  0  0  0  0  0
    5.9074  -13.0707   26.2244 C   0  0  0  0  0  0  0  0  0  0  0  0
   10.9758  -16.4940   27.2232 O   0  0  0  0  0  0  0  0  0  0  0  0
  2  5  1  0
  2  1  1  6
  3  2  1  0
  4  3  1  0
  5  6  2  0
  8  9  1  0
  8 10  1  0
  8  7  1  6
 11  5  1  0
 10 11  1  1
 12 10  1  0
 12 21  1  0
 13 12  2  0
 15 14  1  0
 16 15  2  0
 17 16  1  0
 18 24  1  0
 18 17  2  0
 19 18  1  0
 20 21  1  0
 20 19  1  1
 22 20  1  0
 23 22  1  0
 24 25  2  0
 25 15  1  0
 26 22  2  0
M  END
$$$$
