CTY.pdb
     RDKit          3D

 26 26  0  0  1  0  0  0  0  0999 V2000
    7.6357  -15.0972   17.1786 N   0  0  0  0  0  0  0  0  0  0  0  0
    8.3609  -14.7409   18.3566 C   0  0  1  0  0  0  0  0  0  0  0  0
    7.8326  -13.4160   18.9237 C   0  0  0  0  0  0  0  0  0  0  0  0
    8.5237  -12.0179   17.9835 S   0  0  0  0  0  0  0  0  0  0  0  0
    8.2618  -15.7392   19.4363 C   0  0  0  0  0  0  0  0  0  0  0  0
    7.3465  -16.5990   19.3624 O   0  0  0  0  0  0  0  0  0  0  0  0
    9.6719  -19.2175   21.8729 C   0  0  0  0  0  0  0  0  0  0  0  0
    9.6514  -18.1105   20.8439 C   0  0  1  0  0  0  0  0  0  0  0  0
    8.9060  -18.4234   19.7319 O   0  0  0  0  0  0  0  0  0  0  0  0
    9.1237  -16.8441   21.5308 C   0  0  2  0  0  0  0  0  0  0  0  0
    9.1278  -15.8000   20.5570 N   0  0  0  0  0  0  0  0  0  0  0  0
   10.0077  -16.5854   22.6863 C   0  0  0  0  0  0  0  0  0  0  0  0
   11.0722  -15.9475   22.4449 O   0  0  0  0  0  0  0  0  0  0  0  0
    6.3090  -11.3900   28.1996 O   0  0  0  0  0  0  0  0  0  0  0  0
    6.7533  -12.3451   27.2656 C   0  0  0  0  0  0  0  0  0  0  0  0
    5.8698  -12.9533   26.3955 C   0  0  0  0  0  0  0  0  0  0  0  0
    6.3134  -13.8926   25.4786 C   0  0  0  0  0  0  0  0  0  0  0  0
    7.6507  -14.2248   25.4331 C   0  0  0  0  0  0  0  0  0  0  0  0
    8.1019  -15.2337   24.4419 C   0  0  0  0  0  0  0  0  0  0  0  0
    9.2530  -16.0527   24.9871 C   0  0  2  0  0  0  0  0  0  0  0  0
    9.7605  -16.9858   24.0047 N   0  0  0  0  0  0  0  0  0  0  0  0
    8.9093  -16.7142   26.2609 C   0  0  0  0  0  0  0  0  0  0  0  0
    7.9265  -17.6862   26.2953 O   0  0  0  0  0  0  0  0  0  0  0  0
    8.5618  -13.6397   26.2847 C   0  0  0  0  0  0  0  0  0  0  0  0
    8.0815  -12.7040   27.1890 C   0  0  0  0  0  0  0  0  0  0  0  0
    9.4889  -16.4192   27.3323 O   0  0  0  0  0  0  0  0  0  0  0  0
  2  5  1  0
  2  1  1  6
  3  2  1  0
  4  3  1  0
  5  6  2  0
  8  9  1  0
  8 10  1  0
  8  7  1  1
 11  5  1  0
 10 11  1  6
 12 10  1  0
 12 21  1  0
 13 12  2  0
 15 14  1  0
 16 15  2  0
 17 16  1  0
 18 24  1  0
 18 17  2  0
 19 18  1  0
 20 21  1  0
 20 19  1  6
 22 20  1  0
 23 22  1  0
 24 25  2  0
 25 15  1  0
 26 22  2  0
M  END
$$$$
