CTY.pdb
     RDKit          3D

 26 26  0  0  1  0  0  0  0  0999 V2000
    5.6887  -19.7676   23.6115 N   0  0  0  0  0  0  0  0  0  0  0  0
    5.8966  -18.3546   23.6342 C   0  0  1  0  0  0  0  0  0  0  0  0
    6.2767  -17.8975   25.0495 C   0  0  0  0  0  0  0  0  0  0  0  0
    4.7723  -17.6063   26.0335 S   0  0  0  0  0  0  0  0  0  0  0  0
    6.9719  -17.9009   22.7342 C   0  0  0  0  0  0  0  0  0  0  0  0
    7.9377  -18.6805   22.5291 O   0  0  0  0  0  0  0  0  0  0  0  0
    6.5763  -16.1057   19.3606 C   0  0  0  0  0  0  0  0  0  0  0  0
    7.4989  -15.2563   20.2044 C   0  0  1  0  0  0  0  0  0  0  0  0
    6.8754  -14.1550   20.7414 O   0  0  0  0  0  0  0  0  0  0  0  0
    8.0875  -16.1538   21.3009 C   0  0  2  0  0  0  0  0  0  0  0  0
    6.9959  -16.6433   22.0801 N   0  0  0  0  0  0  0  0  0  0  0  0
    9.0413  -15.3240   22.0656 C   0  0  0  0  0  0  0  0  0  0  0  0
    8.6782  -14.1386   22.3137 O   0  0  0  0  0  0  0  0  0  0  0  0
    7.2409  -10.9996   26.7400 O   0  0  0  0  0  0  0  0  0  0  0  0
    7.8208  -12.1952   26.2747 C   0  0  0  0  0  0  0  0  0  0  0  0
    7.8046  -12.5176   24.9317 C   0  0  0  0  0  0  0  0  0  0  0  0
    8.3771  -13.6958   24.4801 C   0  0  0  0  0  0  0  0  0  0  0  0
    8.9695  -14.5565   25.3796 C   0  0  0  0  0  0  0  0  0  0  0  0
    9.5763  -15.8126   24.8716 C   0  0  0  0  0  0  0  0  0  0  0  0
   10.6989  -15.5181   23.8991 C   0  0  2  0  0  0  0  0  0  0  0  0
   10.2943  -15.7428   22.5283 N   0  0  0  0  0  0  0  0  0  0  0  0
   11.9363  -16.2454   24.2429 C   0  0  0  0  0  0  0  0  0  0  0  0
   12.9736  -15.5887   24.8791 O   0  0  0  0  0  0  0  0  0  0  0  0
    9.0053  -14.2692   26.7264 C   0  0  0  0  0  0  0  0  0  0  0  0
    8.4223  -13.0811   27.1419 C   0  0  0  0  0  0  0  0  0  0  0  0
   12.0813  -17.4607   23.9727 O   0  0  0  0  0  0  0  0  0  0  0  0
  2  5  1  0
  2  1  1  1
  3  2  1  0
  4  3  1  0
  5  6  2  0
  8  9  1  0
  8 10  1  0
  8  7  1  1
 11  5  1  0
 10 11  1  1
 12 10  1  0
 12 21  1  0
 13 12  2  0
 15 14  1  0
 16 15  2  0
 17 16  1  0
 18 24  1  0
 18 17  2  0
 19 18  1  0
 20 21  1  0
 20 19  1  1
 22 20  1  0
 23 22  1  0
 24 25  2  0
 25 15  1  0
 26 22  2  0
M  END
$$$$
