CTY.pdb
     RDKit          3D

 26 26  0  0  1  0  0  0  0  0999 V2000
    7.2427  -17.2124   17.3918 N   0  0  0  0  0  0  0  0  0  0  0  0
    8.1281  -16.6082   18.3359 C   0  0  1  0  0  0  0  0  0  0  0  0
    8.3811  -15.1412   17.9615 C   0  0  0  0  0  0  0  0  0  0  0  0
    9.3677  -14.3298   19.2593 S   0  0  0  0  0  0  0  0  0  0  0  0
    7.6140  -16.6155   19.7170 C   0  0  0  0  0  0  0  0  0  0  0  0
    6.5605  -15.9715   19.9576 O   0  0  0  0  0  0  0  0  0  0  0  0
    6.9027  -18.6909   23.9646 C   0  0  0  0  0  0  0  0  0  0  0  0
    7.4076  -18.7117   22.5401 C   0  0  1  0  0  0  0  0  0  0  0  0
    6.5104  -19.2678   21.6594 O   0  0  0  0  0  0  0  0  0  0  0  0
    7.7549  -17.2700   22.1466 C   0  0  2  0  0  0  0  0  0  0  0  0
    8.2243  -17.2993   20.7986 N   0  0  0  0  0  0  0  0  0  0  0  0
    8.7608  -16.7928   23.1181 C   0  0  0  0  0  0  0  0  0  0  0  0
    9.9305  -17.2538   22.9849 O   0  0  0  0  0  0  0  0  0  0  0  0
    4.7794  -12.0657   27.4472 O   0  0  0  0  0  0  0  0  0  0  0  0
    5.9812  -12.5331   26.8821 C   0  0  0  0  0  0  0  0  0  0  0  0
    5.9742  -13.3243   25.7500 C   0  0  0  0  0  0  0  0  0  0  0  0
    7.1605  -13.7810   25.1988 C   0  0  0  0  0  0  0  0  0  0  0  0
    8.3615  -13.4430   25.7854 C   0  0  0  0  0  0  0  0  0  0  0  0
    9.6191  -13.9442   25.1762 C   0  0  0  0  0  0  0  0  0  0  0  0
    9.5889  -15.4512   25.0316 C   0  0  2  0  0  0  0  0  0  0  0  0
    8.5215  -15.8851   24.1566 N   0  0  0  0  0  0  0  0  0  0  0  0
    9.5513  -16.1337   26.3398 C   0  0  0  0  0  0  0  0  0  0  0  0
    8.4743  -16.9333   26.6750 O   0  0  0  0  0  0  0  0  0  0  0  0
    8.4087  -12.6559   26.9150 C   0  0  0  0  0  0  0  0  0  0  0  0
    7.2015  -12.2172   27.4387 C   0  0  0  0  0  0  0  0  0  0  0  0
   10.4800  -16.0106   27.1724 O   0  0  0  0  0  0  0  0  0  0  0  0
  2  5  1  0
  2  1  1  6
  3  2  1  0
  4  3  1  0
  5  6  2  0
  8  9  1  0
  8 10  1  0
  8  7  1  1
 11  5  1  0
 10 11  1  6
 12 10  1  0
 12 21  1  0
 13 12  2  0
 15 14  1  0
 16 15  2  0
 17 16  1  0
 18 24  1  0
 18 17  2  0
 19 18  1  0
 20 21  1  0
 20 19  1  1
 22 20  1  0
 23 22  1  0
 24 25  2  0
 25 15  1  0
 26 22  2  0
M  END
$$$$
