CTY.pdb
     RDKit          3D

 26 26  0  0  1  0  0  0  0  0999 V2000
    7.9428  -14.2499   17.9249 N   0  0  0  0  0  0  0  0  0  0  0  0
    8.4811  -14.0909   19.2384 C   0  0  1  0  0  0  0  0  0  0  0  0
    7.9700  -12.7867   19.8662 C   0  0  0  0  0  0  0  0  0  0  0  0
    8.8373  -11.3627   19.1339 S   0  0  0  0  0  0  0  0  0  0  0  0
    8.1193  -15.1814   20.1614 C   0  0  0  0  0  0  0  0  0  0  0  0
    7.2749  -16.0284   19.7715 O   0  0  0  0  0  0  0  0  0  0  0  0
    8.2572  -17.9182   20.2928 C   0  0  0  0  0  0  0  0  0  0  0  0
    9.0608  -17.6952   21.5534 C   0  0  1  0  0  0  0  0  0  0  0  0
   10.4010  -17.5082   21.3110 O   0  0  0  0  0  0  0  0  0  0  0  0
    8.4536  -16.4924   22.2875 C   0  0  2  0  0  0  0  0  0  0  0  0
    8.6572  -15.3449   21.4629 N   0  0  0  0  0  0  0  0  0  0  0  0
    9.1260  -16.4100   23.6007 C   0  0  0  0  0  0  0  0  0  0  0  0
   10.2968  -15.9329   23.6012 O   0  0  0  0  0  0  0  0  0  0  0  0
    6.0547  -11.0229   26.2409 O   0  0  0  0  0  0  0  0  0  0  0  0
    6.6034  -12.2989   26.4708 C   0  0  0  0  0  0  0  0  0  0  0  0
    7.8862  -12.4432   26.9620 C   0  0  0  0  0  0  0  0  0  0  0  0
    8.4205  -13.7018   27.1862 C   0  0  0  0  0  0  0  0  0  0  0  0
    7.6648  -14.8229   26.9166 C   0  0  0  0  0  0  0  0  0  0  0  0
    8.2590  -16.1606   27.1652 C   0  0  0  0  0  0  0  0  0  0  0  0
    9.2429  -16.5283   26.0745 C   0  0  2  0  0  0  0  0  0  0  0  0
    8.5750  -16.8128   24.8229 N   0  0  0  0  0  0  0  0  0  0  0  0
   10.1461  -17.6203   26.4868 C   0  0  0  0  0  0  0  0  0  0  0  0
   11.0327  -17.4310   27.5308 O   0  0  0  0  0  0  0  0  0  0  0  0
    6.3818  -14.7191   26.4260 C   0  0  0  0  0  0  0  0  0  0  0  0
    5.8803  -13.4433   26.2140 C   0  0  0  0  0  0  0  0  0  0  0  0
   10.1365  -18.7339   25.9119 O   0  0  0  0  0  0  0  0  0  0  0  0
  2  5  1  0
  2  1  1  6
  3  2  1  0
  4  3  1  0
  5  6  2  0
  8  9  1  0
  8 10  1  0
  8  7  1  6
 11  5  1  0
 10 11  1  6
 12 10  1  0
 12 21  1  0
 13 12  2  0
 15 14  1  0
 16 15  2  0
 17 16  1  0
 18 24  1  0
 18 17  2  0
 19 18  1  0
 20 21  1  0
 20 19  1  1
 22 20  1  0
 23 22  1  0
 24 25  2  0
 25 15  1  0
 26 22  2  0
M  END
$$$$
