CTY.pdb
     RDKit          3D

 26 26  0  0  1  0  0  0  0  0999 V2000
    4.9636  -19.7550   21.2798 N   0  0  0  0  0  0  0  0  0  0  0  0
    5.2371  -18.7134   22.2183 C   0  0  1  0  0  0  0  0  0  0  0  0
    5.6252  -19.3130   23.5771 C   0  0  0  0  0  0  0  0  0  0  0  0
    5.8788  -17.9822   24.7940 S   0  0  0  0  0  0  0  0  0  0  0  0
    6.3405  -17.8254   21.8108 C   0  0  0  0  0  0  0  0  0  0  0  0
    7.2642  -18.3152   21.1112 O   0  0  0  0  0  0  0  0  0  0  0  0
    7.7003  -13.3863   20.5429 C   0  0  0  0  0  0  0  0  0  0  0  0
    6.7297  -14.5196   20.7845 C   0  0  1  0  0  0  0  0  0  0  0  0
    6.2590  -15.0819   19.6216 O   0  0  0  0  0  0  0  0  0  0  0  0
    7.4371  -15.5613   21.6612 C   0  0  2  0  0  0  0  0  0  0  0  0
    6.4359  -16.4528   22.1524 N   0  0  0  0  0  0  0  0  0  0  0  0
    8.1448  -14.8160   22.7228 C   0  0  0  0  0  0  0  0  0  0  0  0
    7.4394  -14.0360   23.4246 O   0  0  0  0  0  0  0  0  0  0  0  0
   10.7066  -15.1933   30.6942 O   0  0  0  0  0  0  0  0  0  0  0  0
   10.2556  -15.2404   29.3613 C   0  0  0  0  0  0  0  0  0  0  0  0
   10.3148  -16.4116   28.6317 C   0  0  0  0  0  0  0  0  0  0  0  0
    9.8694  -16.4514   27.3202 C   0  0  0  0  0  0  0  0  0  0  0  0
    9.3615  -15.3105   26.7361 C   0  0  0  0  0  0  0  0  0  0  0  0
    8.8903  -15.3781   25.3299 C   0  0  0  0  0  0  0  0  0  0  0  0
    9.9913  -14.9810   24.3692 C   0  0  2  0  0  0  0  0  0  0  0  0
    9.5128  -14.9063   23.0058 N   0  0  0  0  0  0  0  0  0  0  0  0
   11.1794  -15.8471   24.4978 C   0  0  0  0  0  0  0  0  0  0  0  0
   12.2788  -15.4152   25.2165 O   0  0  0  0  0  0  0  0  0  0  0  0
    9.2864  -14.1240   27.4318 C   0  0  0  0  0  0  0  0  0  0  0  0
    9.7415  -14.1219   28.7422 C   0  0  0  0  0  0  0  0  0  0  0  0
   11.2262  -16.9819   23.9677 O   0  0  0  0  0  0  0  0  0  0  0  0
  2  5  1  0
  2  1  1  6
  3  2  1  0
  4  3  1  0
  5  6  2  0
  8  9  1  0
  8 10  1  0
  8  7  1  6
 11  5  1  0
 10 11  1  1
 12 10  1  0
 12 21  1  0
 13 12  2  0
 15 14  1  0
 16 15  2  0
 17 16  1  0
 18 24  1  0
 18 17  2  0
 19 18  1  0
 20 21  1  0
 20 19  1  1
 22 20  1  0
 23 22  1  0
 24 25  2  0
 25 15  1  0
 26 22  2  0
M  END
$$$$
