CTY.pdb
     RDKit          3D

 26 26  0  0  1  0  0  0  0  0999 V2000
    7.9988  -14.5097   17.8020 N   0  0  0  0  0  0  0  0  0  0  0  0
    8.4226  -14.0865   19.0988 C   0  0  1  0  0  0  0  0  0  0  0  0
    7.7554  -12.7535   19.4654 C   0  0  0  0  0  0  0  0  0  0  0  0
    8.3208  -12.2064   21.1077 S   0  0  0  0  0  0  0  0  0  0  0  0
    8.0891  -15.0416   20.1705 C   0  0  0  0  0  0  0  0  0  0  0  0
    6.9063  -15.4649   20.2365 O   0  0  0  0  0  0  0  0  0  0  0  0
    8.6506  -18.2799   20.5159 C   0  0  0  0  0  0  0  0  0  0  0  0
    9.3314  -17.7963   21.7758 C   0  0  1  0  0  0  0  0  0  0  0  0
   10.6945  -17.6802   21.6401 O   0  0  0  0  0  0  0  0  0  0  0  0
    8.6936  -16.4566   22.1664 C   0  0  2  0  0  0  0  0  0  0  0  0
    9.0100  -15.5197   21.1366 N   0  0  0  0  0  0  0  0  0  0  0  0
    9.2394  -16.0940   23.4908 C   0  0  0  0  0  0  0  0  0  0  0  0
   10.2429  -15.3250   23.4913 O   0  0  0  0  0  0  0  0  0  0  0  0
    5.9815  -10.7895   26.1299 O   0  0  0  0  0  0  0  0  0  0  0  0
    6.5777  -12.0443   26.3584 C   0  0  0  0  0  0  0  0  0  0  0  0
    7.9105  -12.1454   26.7063 C   0  0  0  0  0  0  0  0  0  0  0  0
    8.4913  -13.3834   26.9298 C   0  0  0  0  0  0  0  0  0  0  0  0
    7.7321  -14.5272   26.8040 C   0  0  0  0  0  0  0  0  0  0  0  0
    8.3767  -15.8420   27.0488 C   0  0  0  0  0  0  0  0  0  0  0  0
    9.3844  -16.1622   25.9649 C   0  0  2  0  0  0  0  0  0  0  0  0
    8.7387  -16.5296   24.7234 N   0  0  0  0  0  0  0  0  0  0  0  0
   10.3688  -17.1711   26.4027 C   0  0  0  0  0  0  0  0  0  0  0  0
   10.5139  -18.3513   25.6971 O   0  0  0  0  0  0  0  0  0  0  0  0
    6.3999  -14.4665   26.4588 C   0  0  0  0  0  0  0  0  0  0  0  0
    5.8526  -13.2103   26.2428 C   0  0  0  0  0  0  0  0  0  0  0  0
   11.0909  -16.9907   27.4111 O   0  0  0  0  0  0  0  0  0  0  0  0
  2  5  1  0
  2  1  1  6
  3  2  1  0
  4  3  1  0
  5  6  2  0
  8  9  1  0
  8 10  1  0
  8  7  1  6
 11  5  1  0
 10 11  1  6
 12 10  1  0
 12 21  1  0
 13 12  2  0
 15 14  1  0
 16 15  2  0
 17 16  1  0
 18 24  1  0
 18 17  2  0
 19 18  1  0
 20 21  1  0
 20 19  1  1
 22 20  1  0
 23 22  1  0
 24 25  2  0
 25 15  1  0
 26 22  2  0
M  END
$$$$
