AHN.pdb
     RDKit          3D

 24 24  0  0  1  0  0  0  0  0999 V2000
   22.2733  -11.0423  -20.9038 C   0  0  0  0  0  0  0  0  0  0  0  0
   23.5408  -11.4423  -20.1822 C   0  0  2  0  0  0  0  0  0  0  0  0
   23.8699  -12.8200  -20.3507 N   0  0  0  0  0  0  0  0  0  0  0  0
   23.5084  -11.0922  -18.7519 C   0  0  0  0  0  0  0  0  0  0  0  0
   22.6914  -11.6312  -17.9680 O   0  0  0  0  0  0  0  0  0  0  0  0
   24.4088  -10.1331  -18.2401 N   0  0  0  0  0  0  0  0  0  0  0  0
   24.4668   -9.7306  -16.8311 C   0  0  1  0  0  0  0  0  0  0  0  0
   25.8925   -9.3712  -16.5599 C   0  0  0  0  0  0  0  0  0  0  0  0
   26.7809  -10.5240  -16.2782 C   0  0  0  0  0  0  0  0  0  0  0  0
   26.5153  -11.8496  -16.2822 C   0  0  0  0  0  0  0  0  0  0  0  0
   27.6727  -12.5338  -16.0254 N   0  0  0  0  0  0  0  0  0  0  0  0
   28.6585  -11.6440  -15.8627 C   0  0  0  0  0  0  0  0  0  0  0  0
   28.1259  -10.4304  -16.0145 N   0  0  0  0  0  0  0  0  0  0  0  0
   23.6971   -8.4209  -16.8410 C   0  0  0  0  0  0  0  0  0  0  0  0
   23.9254   -7.6139  -17.7527 O   0  0  0  0  0  0  0  0  0  0  0  0
   20.2117   -4.7289  -16.4060 N   0  0  0  0  0  0  0  0  0  0  0  0
   20.4022   -5.6408  -17.4911 C   0  0  0  0  0  0  0  0  0  0  0  0
   19.7828   -5.3520  -18.5505 O   0  0  0  0  0  0  0  0  0  0  0  0
   21.2678   -6.8239  -17.3470 C   0  0  0  0  0  0  0  0  0  0  0  0
   21.8939   -6.8758  -15.9863 C   0  0  2  0  0  0  0  0  0  0  0  0
   22.7426   -8.0742  -15.8749 N   0  0  0  0  0  0  0  0  0  0  0  0
   20.9451   -6.8020  -14.8693 C   0  0  0  0  0  0  0  0  0  0  0  0
   20.5800   -5.5814  -14.2719 O   0  0  0  0  0  0  0  0  0  0  0  0
   20.4247   -7.8422  -14.4088 O   0  0  0  0  0  0  0  0  0  0  0  0
  2  1  1  1
  2  4  1  0
  2  3  1  0
  4  5  2  0
  6  7  1  0
  6  4  1  0
  7 14  1  0
  7  8  1  6
  9 10  2  0
  9  8  1  0
 11 10  1  0
 12 13  2  0
 12 11  1  0
 13  9  1  0
 14 21  1  0
 14 15  2  0
 17 18  2  0
 17 16  1  0
 19 17  1  0
 20 19  1  6
 21 20  1  0
 22 23  1  0
 22 20  1  0
 24 22  2  0
M  END
$$$$
