AHN.pdb
     RDKit          3D

 24 24  0  0  1  0  0  0  0  0999 V2000
   20.7551  -13.4328  -19.1072 C   0  0  0  0  0  0  0  0  0  0  0  0
   21.2587  -12.1426  -18.4996 C   0  0  2  0  0  0  0  0  0  0  0  0
   22.2706  -12.3452  -17.5149 N   0  0  0  0  0  0  0  0  0  0  0  0
   20.1693  -11.3143  -17.9550 C   0  0  0  0  0  0  0  0  0  0  0  0
   19.3377  -10.7548  -18.7086 O   0  0  0  0  0  0  0  0  0  0  0  0
   20.0472  -11.1383  -16.5598 N   0  0  0  0  0  0  0  0  0  0  0  0
   19.0156  -10.3128  -15.9232 C   0  0  1  0  0  0  0  0  0  0  0  0
   18.4430  -11.1417  -14.8185 C   0  0  0  0  0  0  0  0  0  0  0  0
   17.1658  -11.8183  -15.1477 C   0  0  0  0  0  0  0  0  0  0  0  0
   16.4989  -11.8966  -16.3212 C   0  0  0  0  0  0  0  0  0  0  0  0
   15.3953  -12.6883  -16.1511 N   0  0  0  0  0  0  0  0  0  0  0  0
   15.3702  -13.1054  -14.8801 C   0  0  0  0  0  0  0  0  0  0  0  0
   16.4361  -12.5838  -14.2708 N   0  0  0  0  0  0  0  0  0  0  0  0
   19.8427   -9.2298  -15.2515 C   0  0  0  0  0  0  0  0  0  0  0  0
   20.9930   -9.5116  -14.8881 O   0  0  0  0  0  0  0  0  0  0  0  0
   21.9577   -4.8804  -13.6317 N   0  0  0  0  0  0  0  0  0  0  0  0
   22.3484   -5.6693  -14.7587 C   0  0  0  0  0  0  0  0  0  0  0  0
   23.4495   -5.3491  -15.2827 O   0  0  0  0  0  0  0  0  0  0  0  0
   21.5005   -6.7706  -15.2466 C   0  0  0  0  0  0  0  0  0  0  0  0
   20.2271   -6.8638  -14.4618 C   0  0  2  0  0  0  0  0  0  0  0  0
   19.3762   -7.9286  -15.0196 N   0  0  0  0  0  0  0  0  0  0  0  0
   19.4814   -5.6051  -14.3476 C   0  0  0  0  0  0  0  0  0  0  0  0
   18.1716   -5.4594  -14.8409 O   0  0  0  0  0  0  0  0  0  0  0  0
   19.9996   -4.6080  -13.7980 O   0  0  0  0  0  0  0  0  0  0  0  0
  2  1  1  1
  2  4  1  0
  2  3  1  0
  4  5  2  0
  6  7  1  0
  6  4  1  0
  7 14  1  0
  7  8  1  1
  9 10  2  0
  9  8  1  0
 11 10  1  0
 12 13  2  0
 12 11  1  0
 13  9  1  0
 14 21  1  0
 14 15  2  0
 17 18  2  0
 17 16  1  0
 19 17  1  0
 20 19  1  6
 21 20  1  0
 22 23  1  0
 22 20  1  0
 24 22  2  0
M  END
$$$$
