AHN.pdb
     RDKit          3D

 24 24  0  0  1  0  0  0  0  0999 V2000
   36.1438  -37.6930   -6.7315 C   0  0  0  0  0  0  0  0  0  0  0  0
   34.9981  -38.0850   -5.8253 C   0  0  2  0  0  0  0  0  0  0  0  0
   33.9217  -38.7097   -6.5223 N   0  0  0  0  0  0  0  0  0  0  0  0
   34.5035  -36.9537   -5.0222 C   0  0  0  0  0  0  0  0  0  0  0  0
   35.2645  -36.3185   -4.2542 O   0  0  0  0  0  0  0  0  0  0  0  0
   33.1489  -36.5663   -5.1090 N   0  0  0  0  0  0  0  0  0  0  0  0
   32.5422  -35.5118   -4.2900 C   0  0  1  0  0  0  0  0  0  0  0  0
   31.6741  -34.7171   -5.2120 C   0  0  0  0  0  0  0  0  0  0  0  0
   32.3975  -33.7338   -6.0529 C   0  0  0  0  0  0  0  0  0  0  0  0
   33.7097  -33.4092   -6.0795 C   0  0  0  0  0  0  0  0  0  0  0  0
   33.9185  -32.4912   -7.0732 N   0  0  0  0  0  0  0  0  0  0  0  0
   32.7459  -32.2424   -7.6674 C   0  0  0  0  0  0  0  0  0  0  0  0
   31.8254  -32.9896   -7.0559 N   0  0  0  0  0  0  0  0  0  0  0  0
   31.5982  -36.3022   -3.3999 C   0  0  0  0  0  0  0  0  0  0  0  0
   31.6159  -37.5383   -3.4785 O   0  0  0  0  0  0  0  0  0  0  0  0
   31.3742  -38.6781    1.4140 N   0  0  0  0  0  0  0  0  0  0  0  0
   30.5504  -37.9674    0.4858 C   0  0  0  0  0  0  0  0  0  0  0  0
   29.3088  -38.1146    0.6473 O   0  0  0  0  0  0  0  0  0  0  0  0
   31.1436  -37.1313   -0.5721 C   0  0  0  0  0  0  0  0  0  0  0  0
   30.0836  -36.4542   -1.3869 C   0  0  2  0  0  0  0  0  0  0  0  0
   30.7073  -35.7101   -2.4942 N   0  0  0  0  0  0  0  0  0  0  0  0
   29.1776  -35.5899   -0.6216 C   0  0  0  0  0  0  0  0  0  0  0  0
   29.5000  -34.2581   -0.3017 O   0  0  0  0  0  0  0  0  0  0  0  0
   28.0726  -36.0218   -0.2250 O   0  0  0  0  0  0  0  0  0  0  0  0
  2  1  1  6
  2  4  1  0
  2  3  1  0
  4  5  2  0
  6  7  1  0
  6  4  1  0
  7 14  1  0
  7  8  1  6
  9 10  2  0
  9  8  1  0
 11 10  1  0
 12 13  2  0
 12 11  1  0
 13  9  1  0
 14 21  1  0
 14 15  2  0
 17 18  2  0
 17 16  1  0
 19 17  1  0
 20 19  1  1
 21 20  1  0
 22 23  1  0
 22 20  1  0
 24 22  2  0
M  END
$$$$
