AHN.pdb
     RDKit          3D

 24 24  0  0  1  0  0  0  0  0999 V2000
   23.9791  -19.9557   -8.9094 C   0  0  0  0  0  0  0  0  0  0  0  0
   25.0415  -20.8809   -9.4596 C   0  0  2  0  0  0  0  0  0  0  0  0
   26.0997  -21.1301   -8.5362 N   0  0  0  0  0  0  0  0  0  0  0  0
   25.5819  -20.4141  -10.7478 C   0  0  0  0  0  0  0  0  0  0  0  0
   26.7368  -19.9332  -10.8335 O   0  0  0  0  0  0  0  0  0  0  0  0
   24.7953  -20.5038  -11.9165 N   0  0  0  0  0  0  0  0  0  0  0  0
   25.2922  -20.2129  -13.2653 C   0  0  1  0  0  0  0  0  0  0  0  0
   25.6584  -21.5318  -13.8667 C   0  0  0  0  0  0  0  0  0  0  0  0
   26.1111  -21.4672  -15.2768 C   0  0  0  0  0  0  0  0  0  0  0  0
   27.3142  -21.1256  -15.7905 C   0  0  0  0  0  0  0  0  0  0  0  0
   27.2752  -21.2808  -17.1500 N   0  0  0  0  0  0  0  0  0  0  0  0
   26.0566  -21.7183  -17.4874 C   0  0  0  0  0  0  0  0  0  0  0  0
   25.3508  -21.8327  -16.3612 N   0  0  0  0  0  0  0  0  0  0  0  0
   24.0303  -19.7603  -13.9799 C   0  0  0  0  0  0  0  0  0  0  0  0
   23.0645  -20.5354  -14.0111 O   0  0  0  0  0  0  0  0  0  0  0  0
   20.6672  -17.3575  -17.0773 N   0  0  0  0  0  0  0  0  0  0  0  0
   22.0031  -17.0461  -17.4819 C   0  0  0  0  0  0  0  0  0  0  0  0
   22.1029  -16.4335  -18.5792 O   0  0  0  0  0  0  0  0  0  0  0  0
   23.1579  -17.4286  -16.6512 C   0  0  0  0  0  0  0  0  0  0  0  0
   22.7199  -18.1459  -15.4103 C   0  0  2  0  0  0  0  0  0  0  0  0
   23.8980  -18.5136  -14.6067 N   0  0  0  0  0  0  0  0  0  0  0  0
   21.8625  -19.3135  -15.6449 C   0  0  0  0  0  0  0  0  0  0  0  0
   22.3104  -20.4464  -16.3491 O   0  0  0  0  0  0  0  0  0  0  0  0
   20.6872  -19.3339  -15.2169 O   0  0  0  0  0  0  0  0  0  0  0  0
  2  1  1  1
  2  4  1  0
  2  3  1  0
  4  5  2  0
  6  7  1  0
  6  4  1  0
  7 14  1  0
  7  8  1  6
  9 10  2  0
  9  8  1  0
 11 10  1  0
 12 13  2  0
 12 11  1  0
 13  9  1  0
 14 21  1  0
 14 15  2  0
 17 18  2  0
 17 16  1  0
 19 17  1  0
 20 19  1  6
 21 20  1  0
 22 23  1  0
 22 20  1  0
 24 22  2  0
M  END
$$$$
