AHN.pdb
     RDKit          3D

 24 24  0  0  1  0  0  0  0  0999 V2000
   12.2404  -11.0230  -12.0863 C   0  0  0  0  0  0  0  0  0  0  0  0
   13.1550  -12.1308  -12.5592 C   0  0  2  0  0  0  0  0  0  0  0  0
   13.0980  -13.2938  -11.7352 N   0  0  0  0  0  0  0  0  0  0  0  0
   14.5484  -11.6807  -12.7183 C   0  0  0  0  0  0  0  0  0  0  0  0
   15.3151  -11.5750  -11.7318 O   0  0  0  0  0  0  0  0  0  0  0  0
   15.0433  -11.3589  -14.0005 N   0  0  0  0  0  0  0  0  0  0  0  0
   16.4272  -10.9547  -14.2691 C   0  0  1  0  0  0  0  0  0  0  0  0
   16.8244  -11.6466  -15.5335 C   0  0  0  0  0  0  0  0  0  0  0  0
   17.4496  -12.9772  -15.3434 C   0  0  0  0  0  0  0  0  0  0  0  0
   17.7803  -13.6296  -14.2063 C   0  0  0  0  0  0  0  0  0  0  0  0
   18.2732  -14.8644  -14.5319 N   0  0  0  0  0  0  0  0  0  0  0  0
   18.2508  -14.9871  -15.8640 C   0  0  0  0  0  0  0  0  0  0  0  0
   17.7546  -13.8516  -16.3581 N   0  0  0  0  0  0  0  0  0  0  0  0
   16.2678   -9.4864  -14.6250 C   0  0  0  0  0  0  0  0  0  0  0  0
   15.2528   -9.1406  -15.2453 O   0  0  0  0  0  0  0  0  0  0  0  0
   16.7642   -4.3914  -15.1799 N   0  0  0  0  0  0  0  0  0  0  0  0
   16.1090   -4.9324  -14.0296 C   0  0  0  0  0  0  0  0  0  0  0  0
   15.4667   -4.0987  -13.3355 O   0  0  0  0  0  0  0  0  0  0  0  0
   16.1987   -6.3671  -13.7079 C   0  0  0  0  0  0  0  0  0  0  0  0
   17.0619   -7.0918  -14.6958 C   0  0  2  0  0  0  0  0  0  0  0  0
   17.2062   -8.5003  -14.2906 N   0  0  0  0  0  0  0  0  0  0  0  0
   18.3742   -6.4791  -14.9319 C   0  0  0  0  0  0  0  0  0  0  0  0
   18.5703   -5.4664  -15.8890 O   0  0  0  0  0  0  0  0  0  0  0  0
   19.3738   -6.8474  -14.2762 O   0  0  0  0  0  0  0  0  0  0  0  0
  2  1  1  1
  2  4  1  0
  2  3  1  0
  4  5  2  0
  6  7  1  0
  6  4  1  0
  7 14  1  0
  7  8  1  6
  9 10  2  0
  9  8  1  0
 11 10  1  0
 12 13  2  0
 12 11  1  0
 13  9  1  0
 14 21  1  0
 14 15  2  0
 17 18  2  0
 17 16  1  0
 19 17  1  0
 20 19  1  1
 21 20  1  0
 22 23  1  0
 22 20  1  0
 24 22  2  0
M  END
$$$$
