AHN.pdb
     RDKit          3D

 24 24  0  0  1  0  0  0  0  0999 V2000
   13.4685  -11.1831  -19.1437 C   0  0  0  0  0  0  0  0  0  0  0  0
   14.8330  -11.7622  -18.8432 C   0  0  2  0  0  0  0  0  0  0  0  0
   14.8477  -13.1885  -18.8419 N   0  0  0  0  0  0  0  0  0  0  0  0
   15.4018  -11.2406  -17.5887 C   0  0  0  0  0  0  0  0  0  0  0  0
   14.8517  -11.4602  -16.4835 O   0  0  0  0  0  0  0  0  0  0  0  0
   16.5888  -10.4771  -17.6166 N   0  0  0  0  0  0  0  0  0  0  0  0
   17.3179  -10.0484  -16.4185 C   0  0  1  0  0  0  0  0  0  0  0  0
   18.6739  -10.6711  -16.5121 C   0  0  0  0  0  0  0  0  0  0  0  0
   18.7525  -12.0658  -16.0160 C   0  0  0  0  0  0  0  0  0  0  0  0
   17.7880  -12.8645  -15.5064 C   0  0  0  0  0  0  0  0  0  0  0  0
   18.3249  -14.0967  -15.2472 N   0  0  0  0  0  0  0  0  0  0  0  0
   19.6172  -14.0723  -15.5931 C   0  0  0  0  0  0  0  0  0  0  0  0
   19.8799  -12.8497  -16.0576 N   0  0  0  0  0  0  0  0  0  0  0  0
   17.5170   -8.5650  -16.6794 C   0  0  0  0  0  0  0  0  0  0  0  0
   17.7332   -8.1986  -17.8428 O   0  0  0  0  0  0  0  0  0  0  0  0
   17.9687   -3.4219  -16.1934 N   0  0  0  0  0  0  0  0  0  0  0  0
   16.6881   -3.9298  -15.8094 C   0  0  0  0  0  0  0  0  0  0  0  0
   15.7889   -3.0594  -15.6566 O   0  0  0  0  0  0  0  0  0  0  0  0
   16.4698   -5.3735  -15.6149 C   0  0  0  0  0  0  0  0  0  0  0  0
   17.7036   -6.1581  -15.9438 C   0  0  2  0  0  0  0  0  0  0  0  0
   17.4699   -7.5873  -15.6762 N   0  0  0  0  0  0  0  0  0  0  0  0
   18.9243   -5.6941  -15.2745 C   0  0  0  0  0  0  0  0  0  0  0  0
   19.7058   -4.6395  -15.7817 O   0  0  0  0  0  0  0  0  0  0  0  0
   19.3111   -6.2338  -14.2143 O   0  0  0  0  0  0  0  0  0  0  0  0
  2  1  1  1
  2  4  1  0
  2  3  1  0
  4  5  2  0
  6  7  1  0
  6  4  1  0
  7 14  1  0
  7  8  1  6
  9 10  2  0
  9  8  1  0
 11 10  1  0
 12 13  2  0
 12 11  1  0
 13  9  1  0
 14 21  1  0
 14 15  2  0
 17 18  2  0
 17 16  1  0
 19 17  1  0
 20 19  1  1
 21 20  1  0
 22 23  1  0
 22 20  1  0
 24 22  2  0
M  END
$$$$
