AHN.pdb
     RDKit          3D

 24 24  0  0  1  0  0  0  0  0999 V2000
   42.3862   -8.9154   -4.3584 C   0  0  0  0  0  0  0  0  0  0  0  0
   42.7829   -9.8455   -5.4831 C   0  0  2  0  0  0  0  0  0  0  0  0
   44.1484  -10.2527   -5.4174 N   0  0  0  0  0  0  0  0  0  0  0  0
   42.4761   -9.2860   -6.8107 C   0  0  0  0  0  0  0  0  0  0  0  0
   43.3573   -8.7150   -7.4961 O   0  0  0  0  0  0  0  0  0  0  0  0
   41.1689   -9.3876   -7.3336 N   0  0  0  0  0  0  0  0  0  0  0  0
   40.7396   -8.7769   -8.5960 C   0  0  1  0  0  0  0  0  0  0  0  0
   39.9692   -9.8297   -9.3262 C   0  0  0  0  0  0  0  0  0  0  0  0
   40.7824  -10.6842  -10.2239 C   0  0  0  0  0  0  0  0  0  0  0  0
   42.1230  -10.7476  -10.3872 C   0  0  0  0  0  0  0  0  0  0  0  0
   42.4132  -11.7400  -11.2842 N   0  0  0  0  0  0  0  0  0  0  0  0
   41.2629  -12.2969  -11.6803 C   0  0  0  0  0  0  0  0  0  0  0  0
   40.2764  -11.6638  -11.0434 N   0  0  0  0  0  0  0  0  0  0  0  0
   39.7168   -7.7568   -8.1258 C   0  0  0  0  0  0  0  0  0  0  0  0
   39.2954   -7.8421   -6.9640 O   0  0  0  0  0  0  0  0  0  0  0  0
   38.8735   -3.4529   -5.2488 N   0  0  0  0  0  0  0  0  0  0  0  0
   38.4992   -3.9416   -6.5396 C   0  0  0  0  0  0  0  0  0  0  0  0
   37.5087   -3.3656   -7.0655 O   0  0  0  0  0  0  0  0  0  0  0  0
   39.2403   -5.0415   -7.1805 C   0  0  0  0  0  0  0  0  0  0  0  0
   38.5152   -5.5530   -8.3884 C   0  0  2  0  0  0  0  0  0  0  0  0
   39.2226   -6.7238   -8.9340 N   0  0  0  0  0  0  0  0  0  0  0  0
   38.2791   -4.5511   -9.4342 C   0  0  0  0  0  0  0  0  0  0  0  0
   38.9582   -4.5755  -10.6664 O   0  0  0  0  0  0  0  0  0  0  0  0
   37.4517   -3.6300   -9.2555 O   0  0  0  0  0  0  0  0  0  0  0  0
  2  1  1  1
  2  4  1  0
  2  3  1  0
  4  5  2  0
  6  7  1  0
  6  4  1  0
  7 14  1  0
  7  8  1  6
  9 10  2  0
  9  8  1  0
 11 10  1  0
 12 13  2  0
 12 11  1  0
 13  9  1  0
 14 21  1  0
 14 15  2  0
 17 18  2  0
 17 16  1  0
 19 17  1  0
 20 19  1  1
 21 20  1  0
 22 23  1  0
 22 20  1  0
 24 22  2  0
M  END
$$$$
