AHN.pdb
     RDKit          3D

 24 24  0  0  1  0  0  0  0  0999 V2000
   46.2152  -11.6853   -6.7747 C   0  0  0  0  0  0  0  0  0  0  0  0
   46.0963  -10.2080   -6.4733 C   0  0  2  0  0  0  0  0  0  0  0  0
   46.3233   -9.8969   -5.0999 N   0  0  0  0  0  0  0  0  0  0  0  0
   44.8124   -9.6435   -6.9234 C   0  0  0  0  0  0  0  0  0  0  0  0
   43.8204   -9.5910   -6.1583 O   0  0  0  0  0  0  0  0  0  0  0  0
   44.6824   -9.1484   -8.2389 N   0  0  0  0  0  0  0  0  0  0  0  0
   43.4930   -8.4524   -8.7407 C   0  0  1  0  0  0  0  0  0  0  0  0
   43.9371   -7.0676   -9.0874 C   0  0  0  0  0  0  0  0  0  0  0  0
   42.9326   -6.0094   -8.8257 C   0  0  0  0  0  0  0  0  0  0  0  0
   41.7151   -6.0892   -8.2431 C   0  0  0  0  0  0  0  0  0  0  0  0
   41.1800   -4.8319   -8.1619 N   0  0  0  0  0  0  0  0  0  0  0  0
   42.0560   -3.9685   -8.6885 C   0  0  0  0  0  0  0  0  0  0  0  0
   43.1148   -4.6736   -9.0900 N   0  0  0  0  0  0  0  0  0  0  0  0
   43.2441   -9.1581  -10.0629 C   0  0  0  0  0  0  0  0  0  0  0  0
   44.2164   -9.3934  -10.7936 O   0  0  0  0  0  0  0  0  0  0  0  0
   41.1615  -11.6035  -14.1112 N   0  0  0  0  0  0  0  0  0  0  0  0
   40.1668  -11.5762  -13.0840 C   0  0  0  0  0  0  0  0  0  0  0  0
   39.1023  -12.1968  -13.3505 O   0  0  0  0  0  0  0  0  0  0  0  0
   40.4022  -10.8639  -11.8163 C   0  0  0  0  0  0  0  0  0  0  0  0
   41.7495  -10.2075  -11.8047 C   0  0  2  0  0  0  0  0  0  0  0  0
   41.9746   -9.5575  -10.5025 N   0  0  0  0  0  0  0  0  0  0  0  0
   41.9848   -9.2665  -12.9059 C   0  0  0  0  0  0  0  0  0  0  0  0
   42.7431   -9.6105  -14.0402 O   0  0  0  0  0  0  0  0  0  0  0  0
   41.5085   -8.1105  -12.8655 O   0  0  0  0  0  0  0  0  0  0  0  0
  2  1  1  1
  2  4  1  0
  2  3  1  0
  4  5  2  0
  6  7  1  0
  6  4  1  0
  7 14  1  0
  7  8  1  6
  9 10  2  0
  9  8  1  0
 11 10  1  0
 12 13  2  0
 12 11  1  0
 13  9  1  0
 14 21  1  0
 14 15  2  0
 17 18  2  0
 17 16  1  0
 19 17  1  0
 20 19  1  1
 21 20  1  0
 22 23  1  0
 22 20  1  0
 24 22  2  0
M  END
$$$$
