FKQ.pdb
     RDKit          3D

 30 30  0  0  1  0  0  0  0  0999 V2000
    5.8091  -16.5293   25.2760 N   0  0  0  0  0  0  0  0  0  0  0  0
    6.9421  -15.7279   24.8653 C   0  0  1  0  0  0  0  0  0  0  0  0
    7.4680  -15.0179   26.0890 C   0  0  0  0  0  0  0  0  0  0  0  0
    6.9414  -13.6500   26.1592 C   0  0  0  0  0  0  0  0  0  0  0  0
    7.3604  -12.7335   25.2073 C   0  0  0  0  0  0  0  0  0  0  0  0
    6.9042  -11.4225   25.2127 C   0  0  0  0  0  0  0  0  0  0  0  0
    6.0259  -11.0034   26.1629 C   0  0  0  0  0  0  0  0  0  0  0  0
    5.5893  -11.9075   27.1319 C   0  0  0  0  0  0  0  0  0  0  0  0
    6.0545  -13.2021   27.1076 C   0  0  0  0  0  0  0  0  0  0  0  0
    7.9425  -16.6057   24.2405 C   0  0  0  0  0  0  0  0  0  0  0  0
    8.2661  -17.6693   24.8214 O   0  0  0  0  0  0  0  0  0  0  0  0
    8.5707  -16.3124   23.0002 N   0  0  0  0  0  0  0  0  0  0  0  0
    9.6121  -17.0662   22.3790 C   0  0  1  0  0  0  0  0  0  0  0  0
    9.9064  -16.6034   20.9646 C   0  0  0  0  0  0  0  0  0  0  0  0
    8.9944  -17.2707   19.9706 C   0  0  0  0  0  0  0  0  0  0  0  0
    9.1665  -16.7991   18.5648 C   0  0  0  0  0  0  0  0  0  0  0  0
    8.2355  -17.5184   17.6120 C   0  0  0  0  0  0  0  0  0  0  0  0
    8.3282  -16.8339   16.3311 N   0  0  0  0  0  0  0  0  0  0  0  0
   10.8250  -17.0234   23.2328 C   0  0  0  0  0  0  0  0  0  0  0  0
   11.3561  -15.9039   23.5101 O   0  0  0  0  0  0  0  0  0  0  0  0
   12.2053  -20.8002   27.6576 N   0  0  0  0  0  0  0  0  0  0  0  0
   13.3883  -20.0247   27.7739 C   0  0  0  0  0  0  0  0  0  0  0  0
   14.2057  -20.1846   28.7041 O   0  0  0  0  0  0  0  0  0  0  0  0
   13.6080  -18.9888   26.7060 C   0  0  0  0  0  0  0  0  0  0  0  0
   12.3981  -18.9935   25.8118 C   0  0  0  0  0  0  0  0  0  0  0  0
   12.5914  -18.0405   24.6703 C   0  0  2  0  0  0  0  0  0  0  0  0
   11.4362  -18.1687   23.7650 N   0  0  0  0  0  0  0  0  0  0  0  0
   13.8074  -18.3761   23.9205 C   0  0  0  0  0  0  0  0  0  0  0  0
   14.0962  -19.7364   23.6930 O   0  0  0  0  0  0  0  0  0  0  0  0
   14.6330  -17.5770   23.4513 O   0  0  0  0  0  0  0  0  0  0  0  0
  2  1  1  1
  2 10  1  0
  2  3  1  0
  3  4  1  0
  4  5  2  0
  4  9  1  0
  5  6  1  0
  6  7  2  0
  8  7  1  0
  9  8  2  0
 10 11  2  0
 12 13  1  0
 12 10  1  0
 13 14  1  6
 14 15  1  0
 16 17  1  0
 16 15  1  0
 18 17  1  0
 19 20  2  0
 19 13  1  0
 21 22  1  0
 22 24  1  0
 23 22  2  0
 24 25  1  0
 26 25  1  1
 26 28  1  0
 26 27  1  0
 27 19  1  0
 28 29  1  0
 30 28  2  0
M  END
$$$$
