FKQ.pdb
     RDKit          3D

 30 30  0  0  1  0  0  0  0  0999 V2000
    6.0483  -16.7493   25.6124 N   0  0  0  0  0  0  0  0  0  0  0  0
    6.9291  -15.8831   24.8584 C   0  0  1  0  0  0  0  0  0  0  0  0
    7.6744  -15.0176   25.8449 C   0  0  0  0  0  0  0  0  0  0  0  0
    7.0686  -13.6832   25.9227 C   0  0  0  0  0  0  0  0  0  0  0  0
    7.7861  -12.6046   25.4293 C   0  0  0  0  0  0  0  0  0  0  0  0
    7.2757  -11.3144   25.4704 C   0  0  0  0  0  0  0  0  0  0  0  0
    6.0464  -11.0772   26.0017 C   0  0  0  0  0  0  0  0  0  0  0  0
    5.3049  -12.1467   26.5048 C   0  0  0  0  0  0  0  0  0  0  0  0
    5.8301  -13.4173   26.4539 C   0  0  0  0  0  0  0  0  0  0  0  0
    7.8231  -16.7135   24.0381 C   0  0  0  0  0  0  0  0  0  0  0  0
    8.3600  -17.7227   24.5546 O   0  0  0  0  0  0  0  0  0  0  0  0
    8.1162  -16.4329   22.6764 N   0  0  0  0  0  0  0  0  0  0  0  0
    9.1773  -16.9960   21.9049 C   0  0  1  0  0  0  0  0  0  0  0  0
    9.2192  -16.4591   20.4866 C   0  0  0  0  0  0  0  0  0  0  0  0
   10.2638  -17.1661   19.6655 C   0  0  0  0  0  0  0  0  0  0  0  0
    9.9080  -18.5667   19.2915 C   0  0  0  0  0  0  0  0  0  0  0  0
   10.9569  -19.1944   18.3983 C   0  0  0  0  0  0  0  0  0  0  0  0
   10.4698  -20.5174   18.0374 N   0  0  0  0  0  0  0  0  0  0  0  0
   10.4648  -16.7803   22.6103 C   0  0  0  0  0  0  0  0  0  0  0  0
   10.8517  -15.5968   22.8590 O   0  0  0  0  0  0  0  0  0  0  0  0
   11.7389  -20.5677   26.5273 N   0  0  0  0  0  0  0  0  0  0  0  0
   11.5991  -19.2488   27.0324 C   0  0  0  0  0  0  0  0  0  0  0  0
   11.4841  -19.0068   28.2519 O   0  0  0  0  0  0  0  0  0  0  0  0
   11.5970  -18.1456   26.0102 C   0  0  0  0  0  0  0  0  0  0  0  0
   12.5909  -18.5129   24.9422 C   0  0  0  0  0  0  0  0  0  0  0  0
   12.5187  -17.5365   23.8066 C   0  0  2  0  0  0  0  0  0  0  0  0
   11.3012  -17.8260   23.0292 N   0  0  0  0  0  0  0  0  0  0  0  0
   13.6802  -17.6890   22.9227 C   0  0  0  0  0  0  0  0  0  0  0  0
   13.4820  -18.2740   21.6563 O   0  0  0  0  0  0  0  0  0  0  0  0
   14.8489  -17.3524   23.1701 O   0  0  0  0  0  0  0  0  0  0  0  0
  2  1  1  1
  2 10  1  0
  2  3  1  0
  3  4  1  0
  4  5  2  0
  4  9  1  0
  5  6  1  0
  6  7  2  0
  8  7  1  0
  9  8  2  0
 10 11  2  0
 12 13  1  0
 12 10  1  0
 13 14  1  6
 14 15  1  0
 16 17  1  0
 16 15  1  0
 18 17  1  0
 19 20  2  0
 19 13  1  0
 21 22  1  0
 22 24  1  0
 23 22  2  0
 24 25  1  0
 26 25  1  1
 26 28  1  0
 26 27  1  0
 27 19  1  0
 28 29  1  0
 30 28  2  0
M  END
$$$$
