FKQ.pdb
     RDKit          3D

 30 30  0  0  1  0  0  0  0  0999 V2000
    5.3005  -17.9828   25.0560 N   0  0  0  0  0  0  0  0  0  0  0  0
    5.8421  -16.6409   25.0262 C   0  0  1  0  0  0  0  0  0  0  0  0
    6.4651  -16.3689   26.3737 C   0  0  0  0  0  0  0  0  0  0  0  0
    6.7944  -14.9456   26.5130 C   0  0  0  0  0  0  0  0  0  0  0  0
    8.1309  -14.5781   26.5353 C   0  0  0  0  0  0  0  0  0  0  0  0
    8.5159  -13.2508   26.6650 C   0  0  0  0  0  0  0  0  0  0  0  0
    7.5797  -12.2702   26.7742 C   0  0  0  0  0  0  0  0  0  0  0  0
    6.2279  -12.6151   26.7543 C   0  0  0  0  0  0  0  0  0  0  0  0
    5.8688  -13.9369   26.6249 C   0  0  0  0  0  0  0  0  0  0  0  0
    6.8067  -16.5431   23.9209 C   0  0  0  0  0  0  0  0  0  0  0  0
    7.5328  -17.5316   23.6579 O   0  0  0  0  0  0  0  0  0  0  0  0
    6.9641  -15.3769   23.1247 N   0  0  0  0  0  0  0  0  0  0  0  0
    7.8657  -15.2142   22.0296 C   0  0  1  0  0  0  0  0  0  0  0  0
    7.6777  -13.8934   21.3074 C   0  0  0  0  0  0  0  0  0  0  0  0
    8.3547  -13.9046   19.9632 C   0  0  0  0  0  0  0  0  0  0  0  0
    8.1484  -12.6633   19.1603 C   0  0  0  0  0  0  0  0  0  0  0  0
    8.0806  -12.9574   17.6767 C   0  0  0  0  0  0  0  0  0  0  0  0
    9.2639  -13.7366   17.3445 N   0  0  0  0  0  0  0  0  0  0  0  0
    9.2589  -15.3811   22.5122 C   0  0  0  0  0  0  0  0  0  0  0  0
   10.2233  -15.2576   21.6955 O   0  0  0  0  0  0  0  0  0  0  0  0
   13.5722  -15.9417   28.4873 N   0  0  0  0  0  0  0  0  0  0  0  0
   12.3488  -15.7012   27.8094 C   0  0  0  0  0  0  0  0  0  0  0  0
   11.2812  -15.4712   28.4147 O   0  0  0  0  0  0  0  0  0  0  0  0
   12.4064  -15.7383   26.3070 C   0  0  0  0  0  0  0  0  0  0  0  0
   10.9962  -15.6277   25.7948 C   0  0  0  0  0  0  0  0  0  0  0  0
   10.9867  -15.6176   24.2954 C   0  0  2  0  0  0  0  0  0  0  0  0
    9.5852  -15.6741   23.8449 N   0  0  0  0  0  0  0  0  0  0  0  0
   11.6906  -16.7927   23.7688 C   0  0  0  0  0  0  0  0  0  0  0  0
   13.0976  -16.8149   23.8413 O   0  0  0  0  0  0  0  0  0  0  0  0
   11.1740  -17.7964   23.2529 O   0  0  0  0  0  0  0  0  0  0  0  0
  2  1  1  1
  2 10  1  0
  2  3  1  0
  3  4  1  0
  4  5  2  0
  4  9  1  0
  5  6  1  0
  6  7  2  0
  8  7  1  0
  9  8  2  0
 10 11  2  0
 12 13  1  0
 12 10  1  0
 13 14  1  1
 14 15  1  0
 16 17  1  0
 16 15  1  0
 18 17  1  0
 19 20  2  0
 19 13  1  0
 21 22  1  0
 22 24  1  0
 23 22  2  0
 24 25  1  0
 26 25  1  1
 26 28  1  0
 26 27  1  0
 27 19  1  0
 28 29  1  0
 30 28  2  0
M  END
$$$$
