FKQ.pdb
     RDKit          3D

 30 30  0  0  1  0  0  0  0  0999 V2000
    6.2843  -17.6280   25.9159 N   0  0  0  0  0  0  0  0  0  0  0  0
    6.5792  -16.2848   25.4646 C   0  0  1  0  0  0  0  0  0  0  0  0
    7.2528  -15.5574   26.6026 C   0  0  0  0  0  0  0  0  0  0  0  0
    6.7963  -14.1642   26.6678 C   0  0  0  0  0  0  0  0  0  0  0  0
    7.7433  -13.1561   26.5764 C   0  0  0  0  0  0  0  0  0  0  0  0
    7.3839  -11.8164   26.6311 C   0  0  0  0  0  0  0  0  0  0  0  0
    6.0796  -11.4592   26.7772 C   0  0  0  0  0  0  0  0  0  0  0  0
    5.1078  -12.4560   26.8714 C   0  0  0  0  0  0  0  0  0  0  0  0
    5.4865  -13.7775   26.8149 C   0  0  0  0  0  0  0  0  0  0  0  0
    7.4187  -16.3625   24.2601 C   0  0  0  0  0  0  0  0  0  0  0  0
    8.2267  -17.3148   24.1422 O   0  0  0  0  0  0  0  0  0  0  0  0
    7.3650  -15.4074   23.2096 N   0  0  0  0  0  0  0  0  0  0  0  0
    8.1563  -15.4098   22.0213 C   0  0  1  0  0  0  0  0  0  0  0  0
    7.7773  -14.2965   21.0628 C   0  0  0  0  0  0  0  0  0  0  0  0
    8.5848  -14.3689   19.7948 C   0  0  0  0  0  0  0  0  0  0  0  0
    8.2022  -13.3596   18.7637 C   0  0  0  0  0  0  0  0  0  0  0  0
    9.0067  -13.5222   17.4915 C   0  0  0  0  0  0  0  0  0  0  0  0
    8.7126  -12.3692   16.6537 N   0  0  0  0  0  0  0  0  0  0  0  0
    9.5929  -15.3509   22.3883 C   0  0  0  0  0  0  0  0  0  0  0  0
   10.0012  -14.4418   23.1749 O   0  0  0  0  0  0  0  0  0  0  0  0
   12.9781  -19.9450   23.7218 N   0  0  0  0  0  0  0  0  0  0  0  0
   14.0837  -19.0590   23.6395 C   0  0  0  0  0  0  0  0  0  0  0  0
   15.2473  -19.4111   23.9243 O   0  0  0  0  0  0  0  0  0  0  0  0
   13.7769  -17.6582   23.1862 C   0  0  0  0  0  0  0  0  0  0  0  0
   12.3076  -17.5940   22.8695 C   0  0  0  0  0  0  0  0  0  0  0  0
   11.9327  -16.2143   22.4176 C   0  0  2  0  0  0  0  0  0  0  0  0
   10.5506  -16.2576   21.9094 N   0  0  0  0  0  0  0  0  0  0  0  0
   12.8130  -15.7726   21.3296 C   0  0  0  0  0  0  0  0  0  0  0  0
   12.3241  -15.8346   20.0096 O   0  0  0  0  0  0  0  0  0  0  0  0
   13.9705  -15.3391   21.4426 O   0  0  0  0  0  0  0  0  0  0  0  0
  2  1  1  1
  2 10  1  0
  2  3  1  0
  3  4  1  0
  4  5  2  0
  4  9  1  0
  5  6  1  0
  6  7  2  0
  8  7  1  0
  9  8  2  0
 10 11  2  0
 12 13  1  0
 12 10  1  0
 13 14  1  6
 14 15  1  0
 16 17  1  0
 16 15  1  0
 18 17  1  0
 19 20  2  0
 19 13  1  0
 21 22  1  0
 22 24  1  0
 23 22  2  0
 24 25  1  0
 26 25  1  6
 26 28  1  0
 26 27  1  0
 27 19  1  0
 28 29  1  0
 30 28  2  0
M  END
$$$$
