FKQ.pdb
     RDKit          3D

 30 30  0  0  1  0  0  0  0  0999 V2000
    6.0344  -17.7701   25.9856 N   0  0  0  0  0  0  0  0  0  0  0  0
    6.6036  -16.5323   25.4972 C   0  0  1  0  0  0  0  0  0  0  0  0
    7.2684  -15.8427   26.6637 C   0  0  0  0  0  0  0  0  0  0  0  0
    6.9733  -14.4052   26.6509 C   0  0  0  0  0  0  0  0  0  0  0  0
    6.6221  -13.8159   25.4463 C   0  0  0  0  0  0  0  0  0  0  0  0
    6.3303  -12.4616   25.3595 C   0  0  0  0  0  0  0  0  0  0  0  0
    6.3831  -11.6739   26.4670 C   0  0  0  0  0  0  0  0  0  0  0  0
    6.7341  -12.2440   27.6912 C   0  0  0  0  0  0  0  0  0  0  0  0
    7.0193  -13.5884   27.7543 C   0  0  0  0  0  0  0  0  0  0  0  0
    7.5401  -16.8386   24.4060 C   0  0  0  0  0  0  0  0  0  0  0  0
    8.4192  -17.7150   24.5869 O   0  0  0  0  0  0  0  0  0  0  0  0
    7.5042  -16.1893   23.1427 N   0  0  0  0  0  0  0  0  0  0  0  0
    8.3744  -16.4367   22.0381 C   0  0  1  0  0  0  0  0  0  0  0  0
    7.8550  -15.8479   20.7400 C   0  0  0  0  0  0  0  0  0  0  0  0
    8.4574  -14.4944   20.4745 C   0  0  0  0  0  0  0  0  0  0  0  0
    8.0805  -13.9011   19.1577 C   0  0  0  0  0  0  0  0  0  0  0  0
    8.8407  -12.6219   18.8786 C   0  0  0  0  0  0  0  0  0  0  0  0
    8.3517  -12.1067   17.6085 N   0  0  0  0  0  0  0  0  0  0  0  0
    9.7330  -15.9355   22.3619 C   0  0  0  0  0  0  0  0  0  0  0  0
    9.8631  -14.8321   22.9766 O   0  0  0  0  0  0  0  0  0  0  0  0
   13.6823  -17.7563   25.7531 N   0  0  0  0  0  0  0  0  0  0  0  0
   13.0319  -18.6871   24.9017 C   0  0  0  0  0  0  0  0  0  0  0  0
   12.9410  -19.9007   25.1808 O   0  0  0  0  0  0  0  0  0  0  0  0
   12.4515  -18.1287   23.6316 C   0  0  0  0  0  0  0  0  0  0  0  0
   12.7023  -16.6454   23.6303 C   0  0  0  0  0  0  0  0  0  0  0  0
   12.2250  -16.0383   22.3450 C   0  0  2  0  0  0  0  0  0  0  0  0
   10.9101  -16.6197   22.0234 N   0  0  0  0  0  0  0  0  0  0  0  0
   13.1516  -16.3543   21.2517 C   0  0  0  0  0  0  0  0  0  0  0  0
   14.4459  -15.7990   21.2934 O   0  0  0  0  0  0  0  0  0  0  0  0
   12.9189  -17.0743   20.2679 O   0  0  0  0  0  0  0  0  0  0  0  0
  2  1  1  1
  2 10  1  0
  2  3  1  0
  3  4  1  0
  4  5  2  0
  4  9  1  0
  5  6  1  0
  6  7  2  0
  8  7  1  0
  9  8  2  0
 10 11  2  0
 12 13  1  0
 12 10  1  0
 13 14  1  6
 14 15  1  0
 16 17  1  0
 16 15  1  0
 18 17  1  0
 19 20  2  0
 19 13  1  0
 21 22  1  0
 22 24  1  0
 23 22  2  0
 24 25  1  0
 26 25  1  1
 26 28  1  0
 26 27  1  0
 27 19  1  0
 28 29  1  0
 30 28  2  0
M  END
$$$$
