FKQ.pdb
     RDKit          3D

 30 30  0  0  1  0  0  0  0  0999 V2000
    5.7997  -17.1971   25.7284 N   0  0  0  0  0  0  0  0  0  0  0  0
    6.4873  -16.0010   25.2909 C   0  0  1  0  0  0  0  0  0  0  0  0
    7.1298  -15.3730   26.5037 C   0  0  0  0  0  0  0  0  0  0  0  0
    6.9274  -13.9196   26.5016 C   0  0  0  0  0  0  0  0  0  0  0  0
    5.8918  -13.3980   27.2614 C   0  0  0  0  0  0  0  0  0  0  0  0
    5.6414  -12.0334   27.3064 C   0  0  0  0  0  0  0  0  0  0  0  0
    6.4155  -11.1680   26.5979 C   0  0  0  0  0  0  0  0  0  0  0  0
    7.4640  -11.6689   25.8256 C   0  0  0  0  0  0  0  0  0  0  0  0
    7.6942  -13.0250   25.7956 C   0  0  0  0  0  0  0  0  0  0  0  0
    7.4625  -16.3670   24.2533 C   0  0  0  0  0  0  0  0  0  0  0  0
    8.1066  -17.4366   24.3740 O   0  0  0  0  0  0  0  0  0  0  0  0
    7.7190  -15.5667   23.1076 N   0  0  0  0  0  0  0  0  0  0  0  0
    8.6553  -15.8512   22.0679 C   0  0  1  0  0  0  0  0  0  0  0  0
    8.4641  -14.9677   20.8496 C   0  0  0  0  0  0  0  0  0  0  0  0
    9.4691  -15.2914   19.7770 C   0  0  0  0  0  0  0  0  0  0  0  0
    8.9224  -16.0958   18.6446 C   0  0  0  0  0  0  0  0  0  0  0  0
    9.9979  -16.4625   17.6441 C   0  0  0  0  0  0  0  0  0  0  0  0
    9.3673  -17.2935   16.6294 N   0  0  0  0  0  0  0  0  0  0  0  0
   10.0338  -15.7490   22.6077 C   0  0  0  0  0  0  0  0  0  0  0  0
   10.4423  -14.6417   23.0755 O   0  0  0  0  0  0  0  0  0  0  0  0
   10.7420  -19.3584   24.6395 N   0  0  0  0  0  0  0  0  0  0  0  0
   11.2777  -18.5969   25.7106 C   0  0  0  0  0  0  0  0  0  0  0  0
   10.8496  -18.6912   26.8797 O   0  0  0  0  0  0  0  0  0  0  0  0
   12.4006  -17.6600   25.3596 C   0  0  0  0  0  0  0  0  0  0  0  0
   12.7093  -17.8468   23.8991 C   0  0  0  0  0  0  0  0  0  0  0  0
   12.3107  -16.6272   23.1231 C   0  0  2  0  0  0  0  0  0  0  0  0
   10.9350  -16.8240   22.6338 N   0  0  0  0  0  0  0  0  0  0  0  0
   13.1929  -16.4436   21.9648 C   0  0  0  0  0  0  0  0  0  0  0  0
   14.2929  -15.5729   22.0960 O   0  0  0  0  0  0  0  0  0  0  0  0
   13.0774  -16.9823   20.8526 O   0  0  0  0  0  0  0  0  0  0  0  0
  2  1  1  1
  2 10  1  0
  2  3  1  0
  3  4  1  0
  4  5  2  0
  4  9  1  0
  5  6  1  0
  6  7  2  0
  8  7  1  0
  9  8  2  0
 10 11  2  0
 12 13  1  0
 12 10  1  0
 13 14  1  6
 14 15  1  0
 16 17  1  0
 16 15  1  0
 18 17  1  0
 19 20  2  0
 19 13  1  0
 21 22  1  0
 22 24  1  0
 23 22  2  0
 24 25  1  0
 26 25  1  6
 26 28  1  0
 26 27  1  0
 27 19  1  0
 28 29  1  0
 30 28  2  0
M  END
$$$$
