FKQ.pdb
     RDKit          3D

 30 30  0  0  1  0  0  0  0  0999 V2000
    6.4902  -16.3983   26.1373 N   0  0  0  0  0  0  0  0  0  0  0  0
    6.9552  -15.5326   25.0747 C   0  0  1  0  0  0  0  0  0  0  0  0
    7.9365  -14.5563   25.6762 C   0  0  0  0  0  0  0  0  0  0  0  0
    7.2300  -13.4935   26.4007 C   0  0  0  0  0  0  0  0  0  0  0  0
    6.1119  -12.9252   25.8103 C   0  0  0  0  0  0  0  0  0  0  0  0
    5.3951  -11.9153   26.4373 C   0  0  0  0  0  0  0  0  0  0  0  0
    5.7783  -11.4558   27.6588 C   0  0  0  0  0  0  0  0  0  0  0  0
    6.9006  -12.0121   28.2735 C   0  0  0  0  0  0  0  0  0  0  0  0
    7.5962  -13.0121   27.6339 C   0  0  0  0  0  0  0  0  0  0  0  0
    7.5499  -16.3599   24.0147 C   0  0  0  0  0  0  0  0  0  0  0  0
    8.0297  -17.4796   24.3141 O   0  0  0  0  0  0  0  0  0  0  0  0
    7.6121  -15.9567   22.6538 N   0  0  0  0  0  0  0  0  0  0  0  0
    8.2532  -16.6610   21.5901 C   0  0  1  0  0  0  0  0  0  0  0  0
    7.8274  -16.1671   20.2202 C   0  0  0  0  0  0  0  0  0  0  0  0
    8.4886  -14.8582   19.8817 C   0  0  0  0  0  0  0  0  0  0  0  0
    8.1608  -14.3372   18.5218 C   0  0  0  0  0  0  0  0  0  0  0  0
    8.8727  -13.0328   18.2322 C   0  0  0  0  0  0  0  0  0  0  0  0
    8.3803  -12.5572   16.9480 N   0  0  0  0  0  0  0  0  0  0  0  0
    9.7244  -16.5837   21.7671 C   0  0  0  0  0  0  0  0  0  0  0  0
   10.2698  -15.4591   21.9905 O   0  0  0  0  0  0  0  0  0  0  0  0
   12.3471  -19.7492   26.2223 N   0  0  0  0  0  0  0  0  0  0  0  0
   11.7721  -19.7810   24.9252 C   0  0  0  0  0  0  0  0  0  0  0  0
   11.3517  -20.8349   24.4041 O   0  0  0  0  0  0  0  0  0  0  0  0
   11.6947  -18.4639   24.2033 C   0  0  0  0  0  0  0  0  0  0  0  0
   12.4447  -18.6106   22.9074 C   0  0  0  0  0  0  0  0  0  0  0  0
   12.0171  -17.5513   21.9361 C   0  0  2  0  0  0  0  0  0  0  0  0
   10.5704  -17.7011   21.7013 N   0  0  0  0  0  0  0  0  0  0  0  0
   12.7141  -17.7165   20.6553 C   0  0  0  0  0  0  0  0  0  0  0  0
   14.1188  -17.6060   20.6417 O   0  0  0  0  0  0  0  0  0  0  0  0
   12.1935  -17.9485   19.5528 O   0  0  0  0  0  0  0  0  0  0  0  0
  2  1  1  1
  2 10  1  0
  2  3  1  0
  3  4  1  0
  4  5  2  0
  4  9  1  0
  5  6  1  0
  6  7  2  0
  8  7  1  0
  9  8  2  0
 10 11  2  0
 12 13  1  0
 12 10  1  0
 13 14  1  6
 14 15  1  0
 16 17  1  0
 16 15  1  0
 18 17  1  0
 19 20  2  0
 19 13  1  0
 21 22  1  0
 22 24  1  0
 23 22  2  0
 24 25  1  0
 26 25  1  1
 26 28  1  0
 26 27  1  0
 27 19  1  0
 28 29  1  0
 30 28  2  0
M  END
$$$$
