FKQ.pdb
     RDKit          3D

 30 30  0  0  1  0  0  0  0  0999 V2000
    8.2520  -16.0331   26.3054 N   0  0  0  0  0  0  0  0  0  0  0  0
    6.9872  -16.3286   25.6669 C   0  0  1  0  0  0  0  0  0  0  0  0
    5.9365  -15.4535   26.3060 C   0  0  0  0  0  0  0  0  0  0  0  0
    6.4568  -14.0994   26.5278 C   0  0  0  0  0  0  0  0  0  0  0  0
    7.4975  -13.9332   27.4283 C   0  0  0  0  0  0  0  0  0  0  0  0
    8.0388  -12.6817   27.6881 C   0  0  0  0  0  0  0  0  0  0  0  0
    7.5545  -11.5781   27.0576 C   0  0  0  0  0  0  0  0  0  0  0  0
    6.5071  -11.7197   26.1467 C   0  0  0  0  0  0  0  0  0  0  0  0
    5.9857  -12.9697   25.9044 C   0  0  0  0  0  0  0  0  0  0  0  0
    7.1202  -16.0977   24.2210 C   0  0  0  0  0  0  0  0  0  0  0  0
    6.2310  -16.5336   23.4511 O   0  0  0  0  0  0  0  0  0  0  0  0
    8.2132  -15.3999   23.6404 N   0  0  0  0  0  0  0  0  0  0  0  0
    8.5566  -15.3656   22.2550 C   0  0  1  0  0  0  0  0  0  0  0  0
    8.4955  -13.9669   21.6708 C   0  0  0  0  0  0  0  0  0  0  0  0
    8.9817  -13.9481   20.2465 C   0  0  0  0  0  0  0  0  0  0  0  0
    7.9577  -13.5095   19.2529 C   0  0  0  0  0  0  0  0  0  0  0  0
    8.4502  -13.6677   17.8301 C   0  0  0  0  0  0  0  0  0  0  0  0
    7.4002  -13.1611   16.9592 N   0  0  0  0  0  0  0  0  0  0  0  0
    9.8939  -15.9803   22.0657 C   0  0  0  0  0  0  0  0  0  0  0  0
   10.8536  -15.6366   22.8225 O   0  0  0  0  0  0  0  0  0  0  0  0
   10.9262  -21.9043   22.0951 N   0  0  0  0  0  0  0  0  0  0  0  0
   10.1925  -20.6895   22.0986 C   0  0  0  0  0  0  0  0  0  0  0  0
    8.9547  -20.6537   21.9390 O   0  0  0  0  0  0  0  0  0  0  0  0
   10.9931  -19.4335   22.3071 C   0  0  0  0  0  0  0  0  0  0  0  0
   11.4650  -18.9655   20.9574 C   0  0  0  0  0  0  0  0  0  0  0  0
   11.5369  -17.4682   20.9221 C   0  0  2  0  0  0  0  0  0  0  0  0
   10.1709  -16.9393   21.0797 N   0  0  0  0  0  0  0  0  0  0  0  0
   12.0657  -17.0091   19.6324 C   0  0  0  0  0  0  0  0  0  0  0  0
   13.4135  -17.2855   19.3281 O   0  0  0  0  0  0  0  0  0  0  0  0
   11.4445  -16.3882   18.7554 O   0  0  0  0  0  0  0  0  0  0  0  0
  2  1  1  1
  2 10  1  0
  2  3  1  0
  3  4  1  0
  4  5  2  0
  4  9  1  0
  5  6  1  0
  6  7  2  0
  8  7  1  0
  9  8  2  0
 10 11  2  0
 12 13  1  0
 12 10  1  0
 13 14  1  1
 14 15  1  0
 16 17  1  0
 16 15  1  0
 18 17  1  0
 19 20  2  0
 19 13  1  0
 21 22  1  0
 22 24  1  0
 23 22  2  0
 24 25  1  0
 26 25  1  6
 26 28  1  0
 26 27  1  0
 27 19  1  0
 28 29  1  0
 30 28  2  0
M  END
$$$$
