VYP.pdb
     RDKit          3D

 27 28  0  0  1  0  0  0  0  0999 V2000
   24.4825  -29.6511  -20.6880 C   0  0  0  0  0  0  0  0  0  0  0  0
   23.6770  -29.1019  -19.5581 C   0  0  1  0  0  0  0  0  0  0  0  0
   22.2124  -29.2827  -19.8243 C   0  0  0  0  0  0  0  0  0  0  0  0
   24.0838  -29.6247  -18.2023 C   0  0  2  0  0  0  0  0  0  0  0  0
   23.4048  -28.9339  -17.1502 N   0  0  0  0  0  0  0  0  0  0  0  0
   25.5355  -29.7138  -18.0056 C   0  0  0  0  0  0  0  0  0  0  0  0
   26.1447  -28.8153  -17.3831 O   0  0  0  0  0  0  0  0  0  0  0  0
   26.4764  -33.2993  -12.4603 O   0  0  0  0  0  0  0  0  0  0  0  0
   26.8636  -33.0597  -13.7580 C   0  0  0  0  0  0  0  0  0  0  0  0
   28.0531  -32.4324  -14.0040 C   0  0  0  0  0  0  0  0  0  0  0  0
   28.4523  -32.1861  -15.3143 C   0  0  0  0  0  0  0  0  0  0  0  0
   27.6749  -32.5601  -16.3897 C   0  0  0  0  0  0  0  0  0  0  0  0
   28.1440  -32.2747  -17.7459 C   0  0  0  0  0  0  0  0  0  0  0  0
   27.7490  -30.8853  -18.2487 C   0  0  2  0  0  0  0  0  0  0  0  0
   26.3483  -30.7998  -18.4938 N   0  0  0  0  0  0  0  0  0  0  0  0
   28.5463  -30.6385  -19.4367 C   0  0  0  0  0  0  0  0  0  0  0  0
   28.0906  -31.2198  -20.5072 O   0  0  0  0  0  0  0  0  0  0  0  0
   26.4792  -33.1916  -16.1183 C   0  0  0  0  0  0  0  0  0  0  0  0
   26.0619  -33.4468  -14.8224 C   0  0  0  0  0  0  0  0  0  0  0  0
   29.7395  -29.8617  -19.6012 N   0  0  0  0  0  0  0  0  0  0  0  0
   30.4369  -29.1526  -18.5883 C   0  0  0  0  0  0  0  0  0  0  0  0
   31.8558  -28.9942  -19.1042 C   0  0  0  0  0  0  0  0  0  0  0  0
   31.5697  -28.7975  -20.6006 C   0  0  0  0  0  0  0  0  0  0  0  0
   30.4309  -29.6975  -20.8779 C   0  0  1  0  0  0  0  0  0  0  0  0
   30.8136  -30.9968  -21.4593 C   0  0  0  0  0  0  0  0  0  0  0  0
   31.2874  -31.1396  -22.7502 O   0  0  0  0  0  0  0  0  0  0  0  0
   30.7065  -32.0262  -20.7543 O   0  0  0  0  0  0  0  0  0  0  0  0
  2  1  1  6
  2  4  1  0
  2  3  1  0
  4  5  1  1
  6  4  1  0
  6  7  2  0
  8  9  1  0
  9 10  2  0
 10 11  1  0
 12 13  1  0
 12 11  2  0
 14 13  1  6
 14 15  1  0
 15  6  1  0
 16 20  1  0
 16 14  1  0
 17 16  2  0
 18 12  1  0
 19 18  2  0
 19  9  1  0
 20 24  1  0
 21 20  1  0
 22 21  1  0
 22 23  1  0
 24 23  1  0
 24 25  1  1
 26 25  1  0
 27 25  2  0
M  END
$$$$
