VYP.pdb
     RDKit          3D

 27 28  0  0  1  0  0  0  0  0999 V2000
   27.9024  -17.8540  -15.4549 C   0  0  0  0  0  0  0  0  0  0  0  0
   26.8689  -17.7263  -16.5239 C   0  0  1  0  0  0  0  0  0  0  0  0
   27.5208  -17.6002  -17.8684 C   0  0  0  0  0  0  0  0  0  0  0  0
   25.8170  -18.8078  -16.4941 C   0  0  2  0  0  0  0  0  0  0  0  0
   24.9980  -18.7732  -17.6660 N   0  0  0  0  0  0  0  0  0  0  0  0
   25.0511  -18.8641  -15.2434 C   0  0  0  0  0  0  0  0  0  0  0  0
   24.4039  -17.8665  -14.8538 O   0  0  0  0  0  0  0  0  0  0  0  0
   19.1281  -18.3262  -16.5978 O   0  0  0  0  0  0  0  0  0  0  0  0
   20.0684  -18.9538  -15.8148 C   0  0  0  0  0  0  0  0  0  0  0  0
   20.1757  -18.6247  -14.4922 C   0  0  0  0  0  0  0  0  0  0  0  0
   21.1246  -19.2551  -13.6928 C   0  0  0  0  0  0  0  0  0  0  0  0
   21.9736  -20.2160  -14.1992 C   0  0  0  0  0  0  0  0  0  0  0  0
   22.9532  -20.8449  -13.3126 C   0  0  0  0  0  0  0  0  0  0  0  0
   24.2503  -20.0468  -13.1720 C   0  0  2  0  0  0  0  0  0  0  0  0
   24.9833  -20.0264  -14.3931 N   0  0  0  0  0  0  0  0  0  0  0  0
   24.9886  -20.6557  -12.0802 C   0  0  0  0  0  0  0  0  0  0  0  0
   25.2729  -21.9103  -12.2715 O   0  0  0  0  0  0  0  0  0  0  0  0
   21.8479  -20.5324  -15.5357 C   0  0  0  0  0  0  0  0  0  0  0  0
   20.9107  -19.9179  -16.3499 C   0  0  0  0  0  0  0  0  0  0  0  0
   25.4433  -20.0881  -10.8451 N   0  0  0  0  0  0  0  0  0  0  0  0
   25.3294  -18.7318  -10.4417 C   0  0  0  0  0  0  0  0  0  0  0  0
   25.4143  -18.7484   -8.9260 C   0  0  0  0  0  0  0  0  0  0  0  0
   26.4328  -19.8821   -8.7334 C   0  0  0  0  0  0  0  0  0  0  0  0
   26.0994  -20.8586   -9.7912 C   0  0  1  0  0  0  0  0  0  0  0  0
   25.2596  -21.9812   -9.3362 C   0  0  0  0  0  0  0  0  0  0  0  0
   25.7357  -23.0142   -8.5503 O   0  0  0  0  0  0  0  0  0  0  0  0
   24.0542  -22.0065   -9.6747 O   0  0  0  0  0  0  0  0  0  0  0  0
  2  1  1  1
  2  4  1  0
  2  3  1  0
  4  5  1  6
  6  4  1  0
  6  7  2  0
  8  9  1  0
  9 10  2  0
 10 11  1  0
 12 13  1  0
 12 11  2  0
 14 13  1  6
 14 15  1  0
 15  6  1  0
 16 20  1  0
 16 14  1  0
 17 16  2  0
 18 12  1  0
 19 18  2  0
 19  9  1  0
 20 24  1  0
 21 20  1  0
 22 21  1  0
 22 23  1  0
 24 23  1  0
 24 25  1  1
 26 25  1  0
 27 25  2  0
M  END
$$$$
