VYP.pdb
     RDKit          3D

 27 28  0  0  1  0  0  0  0  0999 V2000
   23.4928  -34.8524  -14.7944 C   0  0  0  0  0  0  0  0  0  0  0  0
   22.2269  -34.9615  -14.0116 C   0  0  1  0  0  0  0  0  0  0  0  0
   22.3534  -36.0217  -12.9588 C   0  0  0  0  0  0  0  0  0  0  0  0
   21.7365  -33.6494  -13.4503 C   0  0  2  0  0  0  0  0  0  0  0  0
   21.3264  -32.7567  -14.4896 N   0  0  0  0  0  0  0  0  0  0  0  0
   22.6469  -33.0374  -12.4753 C   0  0  0  0  0  0  0  0  0  0  0  0
   23.4433  -32.1403  -12.8315 O   0  0  0  0  0  0  0  0  0  0  0  0
   20.1955  -27.4559  -11.3640 O   0  0  0  0  0  0  0  0  0  0  0  0
   20.8040  -28.5638  -10.8221 C   0  0  0  0  0  0  0  0  0  0  0  0
   22.0803  -28.4673  -10.3418 C   0  0  0  0  0  0  0  0  0  0  0  0
   22.7033  -29.5837   -9.7919 C   0  0  0  0  0  0  0  0  0  0  0  0
   22.0652  -30.8033   -9.7144 C   0  0  0  0  0  0  0  0  0  0  0  0
   22.7693  -31.9437   -9.1272 C   0  0  0  0  0  0  0  0  0  0  0  0
   23.5611  -32.7633  -10.1472 C   0  0  2  0  0  0  0  0  0  0  0  0
   22.6982  -33.4040  -11.0820 N   0  0  0  0  0  0  0  0  0  0  0  0
   24.3630  -33.7022   -9.3833 C   0  0  0  0  0  0  0  0  0  0  0  0
   23.6891  -34.7111   -8.9146 O   0  0  0  0  0  0  0  0  0  0  0  0
   20.7783  -30.8777  -10.2048 C   0  0  0  0  0  0  0  0  0  0  0  0
   20.1388  -29.7797  -10.7563 C   0  0  0  0  0  0  0  0  0  0  0  0
   25.7627  -33.6823   -9.0759 N   0  0  0  0  0  0  0  0  0  0  0  0
   26.7118  -32.7170   -9.5035 C   0  0  0  0  0  0  0  0  0  0  0  0
   27.8514  -32.7946   -8.5035 C   0  0  0  0  0  0  0  0  0  0  0  0
   27.8529  -34.3053   -8.2251 C   0  0  0  0  0  0  0  0  0  0  0  0
   26.4243  -34.6829   -8.2416 C   0  0  1  0  0  0  0  0  0  0  0  0
   25.8059  -34.7716   -6.9066 C   0  0  0  0  0  0  0  0  0  0  0  0
   26.0759  -35.7909   -6.0124 O   0  0  0  0  0  0  0  0  0  0  0  0
   24.9949  -33.8830   -6.5590 O   0  0  0  0  0  0  0  0  0  0  0  0
  2  1  1  1
  2  4  1  0
  2  3  1  0
  4  5  1  6
  6  4  1  0
  6  7  2  0
  8  9  1  0
  9 10  2  0
 10 11  1  0
 12 13  1  0
 12 11  2  0
 14 13  1  1
 14 15  1  0
 15  6  1  0
 16 20  1  0
 16 14  1  0
 17 16  2  0
 18 12  1  0
 19 18  2  0
 19  9  1  0
 20 24  1  0
 21 20  1  0
 22 21  1  0
 22 23  1  0
 24 23  1  0
 24 25  1  1
 26 25  1  0
 27 25  2  0
M  END
$$$$
