VYP.pdb
     RDKit          3D

 27 28  0  0  1  0  0  0  0  0999 V2000
   29.0727  -20.9807  -14.4167 C   0  0  0  0  0  0  0  0  0  0  0  0
   28.4861  -20.3365  -13.2051 C   0  0  1  0  0  0  0  0  0  0  0  0
   28.5796  -18.8436  -13.3101 C   0  0  0  0  0  0  0  0  0  0  0  0
   27.0894  -20.8034  -12.8761 C   0  0  2  0  0  0  0  0  0  0  0  0
   26.2048  -20.6294  -13.9862 N   0  0  0  0  0  0  0  0  0  0  0  0
   26.5613  -20.2704  -11.6147 C   0  0  0  0  0  0  0  0  0  0  0  0
   26.1700  -19.0838  -11.5451 O   0  0  0  0  0  0  0  0  0  0  0  0
   20.1950  -19.5161  -11.8333 O   0  0  0  0  0  0  0  0  0  0  0  0
   21.2738  -19.9019  -11.0728 C   0  0  0  0  0  0  0  0  0  0  0  0
   22.0260  -20.9752  -11.4615 C   0  0  0  0  0  0  0  0  0  0  0  0
   23.1195  -21.3723  -10.6976 C   0  0  0  0  0  0  0  0  0  0  0  0
   23.4745  -20.7080   -9.5429 C   0  0  0  0  0  0  0  0  0  0  0  0
   24.6333  -21.1704   -8.7784 C   0  0  0  0  0  0  0  0  0  0  0  0
   25.9430  -20.4939   -9.1860 C   0  0  2  0  0  0  0  0  0  0  0  0
   26.4538  -21.0381  -10.3992 N   0  0  0  0  0  0  0  0  0  0  0  0
   26.8531  -20.6571   -8.0666 C   0  0  0  0  0  0  0  0  0  0  0  0
   27.0998  -21.8979   -7.7647 O   0  0  0  0  0  0  0  0  0  0  0  0
   22.7019  -19.6283   -9.1696 C   0  0  0  0  0  0  0  0  0  0  0  0
   21.6094  -19.2155   -9.9146 C   0  0  0  0  0  0  0  0  0  0  0  0
   27.5089  -19.6703   -7.2601 N   0  0  0  0  0  0  0  0  0  0  0  0
   27.4073  -18.2607   -7.3942 C   0  0  0  0  0  0  0  0  0  0  0  0
   27.7843  -17.6936   -6.0374 C   0  0  0  0  0  0  0  0  0  0  0  0
   28.8764  -18.6940   -5.6299 C   0  0  0  0  0  0  0  0  0  0  0  0
   28.3943  -19.9930   -6.1435 C   0  0  1  0  0  0  0  0  0  0  0  0
   27.7157  -20.8283   -5.1363 C   0  0  0  0  0  0  0  0  0  0  0  0
   28.3687  -21.3963   -4.0582 O   0  0  0  0  0  0  0  0  0  0  0  0
   26.4870  -21.0376   -5.2574 O   0  0  0  0  0  0  0  0  0  0  0  0
  2  1  1  6
  2  4  1  0
  2  3  1  0
  4  5  1  6
  6  4  1  0
  6  7  2  0
  8  9  1  0
  9 10  2  0
 10 11  1  0
 12 13  1  0
 12 11  2  0
 14 13  1  1
 14 15  1  0
 15  6  1  0
 16 20  1  0
 16 14  1  0
 17 16  2  0
 18 12  1  0
 19 18  2  0
 19  9  1  0
 20 24  1  0
 21 20  1  0
 22 21  1  0
 22 23  1  0
 24 23  1  0
 24 25  1  1
 26 25  1  0
 27 25  2  0
M  END
$$$$
