VYP.pdb
     RDKit          3D

 27 28  0  0  1  0  0  0  0  0999 V2000
   25.7001  -16.8308  -20.4673 C   0  0  0  0  0  0  0  0  0  0  0  0
   25.5745  -17.8293  -19.3653 C   0  0  1  0  0  0  0  0  0  0  0  0
   24.6932  -18.9663  -19.7885 C   0  0  0  0  0  0  0  0  0  0  0  0
   26.8959  -18.3017  -18.8105 C   0  0  2  0  0  0  0  0  0  0  0  0
   27.7078  -18.8953  -19.8273 N   0  0  0  0  0  0  0  0  0  0  0  0
   26.7780  -19.1220  -17.5992 C   0  0  0  0  0  0  0  0  0  0  0  0
   26.9171  -20.3641  -17.6616 O   0  0  0  0  0  0  0  0  0  0  0  0
   26.1612  -21.6645   -9.1372 O   0  0  0  0  0  0  0  0  0  0  0  0
   26.3194  -20.9367  -10.2932 C   0  0  0  0  0  0  0  0  0  0  0  0
   25.3640  -20.0290  -10.6569 C   0  0  0  0  0  0  0  0  0  0  0  0
   25.5164  -19.2884  -11.8254 C   0  0  0  0  0  0  0  0  0  0  0  0
   26.6170  -19.4427  -12.6411 C   0  0  0  0  0  0  0  0  0  0  0  0
   26.7243  -18.6380  -13.8585 C   0  0  0  0  0  0  0  0  0  0  0  0
   26.3736  -19.4085  -15.1324 C   0  0  2  0  0  0  0  0  0  0  0  0
   26.5027  -18.5872  -16.2891 N   0  0  0  0  0  0  0  0  0  0  0  0
   25.0254  -19.9141  -14.9463 C   0  0  0  0  0  0  0  0  0  0  0  0
   24.0997  -19.0123  -15.0923 O   0  0  0  0  0  0  0  0  0  0  0  0
   27.5682  -20.3637  -12.2550 C   0  0  0  0  0  0  0  0  0  0  0  0
   27.4373  -21.1116  -11.0964 C   0  0  0  0  0  0  0  0  0  0  0  0
   24.5720  -21.2370  -14.6322 N   0  0  0  0  0  0  0  0  0  0  0  0
   25.3829  -22.3769  -14.3904 C   0  0  0  0  0  0  0  0  0  0  0  0
   24.5211  -23.3253  -13.5765 C   0  0  0  0  0  0  0  0  0  0  0  0
   23.1529  -23.0526  -14.2192 C   0  0  0  0  0  0  0  0  0  0  0  0
   23.1632  -21.6023  -14.5029 C   0  0  1  0  0  0  0  0  0  0  0  0
   22.4805  -20.7816  -13.4867 C   0  0  0  0  0  0  0  0  0  0  0  0
   21.1077  -20.6264  -13.4350 O   0  0  0  0  0  0  0  0  0  0  0  0
   23.1723  -20.1931  -12.6246 O   0  0  0  0  0  0  0  0  0  0  0  0
  2  1  1  6
  2  4  1  0
  2  3  1  0
  4  5  1  6
  6  4  1  0
  6  7  2  0
  8  9  1  0
  9 10  2  0
 10 11  1  0
 12 13  1  0
 12 11  2  0
 14 13  1  1
 14 15  1  0
 15  6  1  0
 16 20  1  0
 16 14  1  0
 17 16  2  0
 18 12  1  0
 19 18  2  0
 19  9  1  0
 20 24  1  0
 21 20  1  0
 22 21  1  0
 22 23  1  0
 24 23  1  0
 24 25  1  1
 26 25  1  0
 27 25  2  0
M  END
$$$$
