VYP.pdb
     RDKit          3D

 27 28  0  0  1  0  0  0  0  0999 V2000
   27.1914  -11.1949  -15.1131 C   0  0  0  0  0  0  0  0  0  0  0  0
   26.0532  -10.4665  -15.7464 C   0  0  1  0  0  0  0  0  0  0  0  0
   26.4352   -9.9899  -17.1159 C   0  0  0  0  0  0  0  0  0  0  0  0
   24.7552  -11.2360  -15.7467 C   0  0  2  0  0  0  0  0  0  0  0  0
   24.8865  -12.4828  -16.4347 N   0  0  0  0  0  0  0  0  0  0  0  0
   23.5924  -10.4488  -16.1737 C   0  0  0  0  0  0  0  0  0  0  0  0
   23.1023  -10.6134  -17.3133 O   0  0  0  0  0  0  0  0  0  0  0  0
   18.3869  -14.1302  -16.3727 O   0  0  0  0  0  0  0  0  0  0  0  0
   18.9259  -12.9209  -16.0007 C   0  0  0  0  0  0  0  0  0  0  0  0
   18.7585  -11.8294  -16.8066 C   0  0  0  0  0  0  0  0  0  0  0  0
   19.3007  -10.6019  -16.4375 C   0  0  0  0  0  0  0  0  0  0  0  0
   20.0125  -10.4483  -15.2669 C   0  0  0  0  0  0  0  0  0  0  0  0
   20.5612   -9.1343  -14.9299 C   0  0  0  0  0  0  0  0  0  0  0  0
   21.7819   -8.7494  -15.7672 C   0  0  2  0  0  0  0  0  0  0  0  0
   22.9439   -9.4596  -15.3495 N   0  0  0  0  0  0  0  0  0  0  0  0
   21.9249   -7.3099  -15.6437 C   0  0  0  0  0  0  0  0  0  0  0  0
   22.4344   -6.9264  -14.5102 O   0  0  0  0  0  0  0  0  0  0  0  0
   20.1690  -11.5624  -14.4692 C   0  0  0  0  0  0  0  0  0  0  0  0
   19.6382  -12.7938  -14.8167 C   0  0  0  0  0  0  0  0  0  0  0  0
   21.5944   -6.2677  -16.5704 N   0  0  0  0  0  0  0  0  0  0  0  0
   20.9464   -6.4211  -17.8242 C   0  0  0  0  0  0  0  0  0  0  0  0
   20.3329   -5.0675  -18.1346 C   0  0  0  0  0  0  0  0  0  0  0  0
   21.4165   -4.1489  -17.5501 C   0  0  0  0  0  0  0  0  0  0  0  0
   21.8801   -4.8539  -16.3370 C   0  0  1  0  0  0  0  0  0  0  0  0
   21.2652   -4.3750  -15.0860 C   0  0  0  0  0  0  0  0  0  0  0  0
   21.6715   -3.2261  -14.4330 O   0  0  0  0  0  0  0  0  0  0  0  0
   20.3279   -5.0369  -14.5845 O   0  0  0  0  0  0  0  0  0  0  0  0
  2  1  1  6
  2  4  1  0
  2  3  1  0
  4  5  1  6
  6  4  1  0
  6  7  2  0
  8  9  1  0
  9 10  2  0
 10 11  1  0
 12 13  1  0
 12 11  2  0
 14 13  1  1
 14 15  1  0
 15  6  1  0
 16 20  1  0
 16 14  1  0
 17 16  2  0
 18 12  1  0
 19 18  2  0
 19  9  1  0
 20 24  1  0
 21 20  1  0
 22 21  1  0
 22 23  1  0
 24 23  1  0
 24 25  1  1
 26 25  1  0
 27 25  2  0
M  END
$$$$
