VYP.pdb
     RDKit          3D

 27 28  0  0  1  0  0  0  0  0999 V2000
   18.5921  -21.1965  -13.1440 C   0  0  0  0  0  0  0  0  0  0  0  0
   19.9784  -20.8947  -12.6813 C   0  0  1  0  0  0  0  0  0  0  0  0
   20.3395  -21.7619  -11.5125 C   0  0  0  0  0  0  0  0  0  0  0  0
   21.0160  -20.9438  -13.7759 C   0  0  2  0  0  0  0  0  0  0  0  0
   20.9799  -22.1908  -14.4752 N   0  0  0  0  0  0  0  0  0  0  0  0
   22.3624  -20.5516  -13.3429 C   0  0  0  0  0  0  0  0  0  0  0  0
   22.5824  -19.3872  -12.9409 O   0  0  0  0  0  0  0  0  0  0  0  0
   26.9869  -19.5988   -7.1243 O   0  0  0  0  0  0  0  0  0  0  0  0
   26.5932  -20.1742   -8.3096 C   0  0  0  0  0  0  0  0  0  0  0  0
   27.5339  -20.6960   -9.1533 C   0  0  0  0  0  0  0  0  0  0  0  0
   27.1439  -21.2802  -10.3548 C   0  0  0  0  0  0  0  0  0  0  0  0
   25.8187  -21.3510  -10.7281 C   0  0  0  0  0  0  0  0  0  0  0  0
   25.4665  -21.9753  -12.0037 C   0  0  0  0  0  0  0  0  0  0  0  0
   24.8114  -21.0119  -12.9946 C   0  0  2  0  0  0  0  0  0  0  0  0
   23.4984  -21.4392  -13.3447 N   0  0  0  0  0  0  0  0  0  0  0  0
   25.7030  -20.9324  -14.1377 C   0  0  0  0  0  0  0  0  0  0  0  0
   25.6348  -21.9604  -14.9316 O   0  0  0  0  0  0  0  0  0  0  0  0
   24.8868  -20.8184   -9.8619 C   0  0  0  0  0  0  0  0  0  0  0  0
   25.2522  -20.2324   -8.6612 C   0  0  0  0  0  0  0  0  0  0  0  0
   26.6299  -19.9062  -14.5143 N   0  0  0  0  0  0  0  0  0  0  0  0
   26.9501  -18.7383  -13.7734 C   0  0  0  0  0  0  0  0  0  0  0  0
   28.3172  -18.3027  -14.2693 C   0  0  0  0  0  0  0  0  0  0  0  0
   28.1878  -18.6745  -15.7541 C   0  0  0  0  0  0  0  0  0  0  0  0
   27.4070  -19.9292  -15.7515 C   0  0  1  0  0  0  0  0  0  0  0  0
   28.2243  -21.1513  -15.8567 C   0  0  0  0  0  0  0  0  0  0  0  0
   28.7275  -21.6258  -17.0538 O   0  0  0  0  0  0  0  0  0  0  0  0
   28.4790  -21.7963  -14.8140 O   0  0  0  0  0  0  0  0  0  0  0  0
  2  1  1  6
  2  4  1  0
  2  3  1  0
  4  5  1  1
  6  4  1  0
  6  7  2  0
  8  9  1  0
  9 10  2  0
 10 11  1  0
 12 13  1  0
 12 11  2  0
 14 13  1  1
 14 15  1  0
 15  6  1  0
 16 20  1  0
 16 14  1  0
 17 16  2  0
 18 12  1  0
 19 18  2  0
 19  9  1  0
 20 24  1  0
 21 20  1  0
 22 21  1  0
 22 23  1  0
 24 23  1  0
 24 25  1  1
 26 25  1  0
 27 25  2  0
M  END
$$$$
