VYP.pdb
     RDKit          3D

 27 28  0  0  1  0  0  0  0  0999 V2000
   29.6115  -18.2439  -18.5215 C   0  0  0  0  0  0  0  0  0  0  0  0
   28.5446  -18.4708  -17.5029 C   0  0  1  0  0  0  0  0  0  0  0  0
   28.8715  -17.7431  -16.2331 C   0  0  0  0  0  0  0  0  0  0  0  0
   27.1505  -18.1697  -17.9956 C   0  0  2  0  0  0  0  0  0  0  0  0
   27.0614  -16.8495  -18.5383 N   0  0  0  0  0  0  0  0  0  0  0  0
   26.0928  -18.4792  -17.0263 C   0  0  0  0  0  0  0  0  0  0  0  0
   25.6619  -17.5914  -16.2568 O   0  0  0  0  0  0  0  0  0  0  0  0
   19.5620  -22.1838  -12.4273 O   0  0  0  0  0  0  0  0  0  0  0  0
   20.4779  -21.8350  -13.3920 C   0  0  0  0  0  0  0  0  0  0  0  0
   21.3300  -22.7814  -13.8891 C   0  0  0  0  0  0  0  0  0  0  0  0
   22.2600  -22.4368  -14.8655 C   0  0  0  0  0  0  0  0  0  0  0  0
   22.3514  -21.1516  -15.3558 C   0  0  0  0  0  0  0  0  0  0  0  0
   23.3491  -20.8458  -16.3815 C   0  0  0  0  0  0  0  0  0  0  0  0
   24.5665  -20.0923  -15.8434 C   0  0  2  0  0  0  0  0  0  0  0  0
   25.4866  -19.7795  -16.8850 N   0  0  0  0  0  0  0  0  0  0  0  0
   25.1457  -20.9346  -14.8124 C   0  0  0  0  0  0  0  0  0  0  0  0
   25.8596  -21.9184  -15.2751 O   0  0  0  0  0  0  0  0  0  0  0  0
   21.4820  -20.2131  -14.8402 C   0  0  0  0  0  0  0  0  0  0  0  0
   20.5487  -20.5337  -13.8682 C   0  0  0  0  0  0  0  0  0  0  0  0
   25.0495  -20.8430  -13.3853 N   0  0  0  0  0  0  0  0  0  0  0  0
   24.3412  -19.8613  -12.6438 C   0  0  0  0  0  0  0  0  0  0  0  0
   24.0683  -20.4910  -11.2896 C   0  0  0  0  0  0  0  0  0  0  0  0
   25.3635  -21.2973  -11.1102 C   0  0  0  0  0  0  0  0  0  0  0  0
   25.6812  -21.7882  -12.4673 C   0  0  1  0  0  0  0  0  0  0  0  0
   25.2457  -23.1720  -12.7282 C   0  0  0  0  0  0  0  0  0  0  0  0
   25.8349  -24.2757  -12.1399 O   0  0  0  0  0  0  0  0  0  0  0  0
   24.2955  -23.3643  -13.5208 O   0  0  0  0  0  0  0  0  0  0  0  0
  2  1  1  6
  2  4  1  0
  2  3  1  0
  4  5  1  1
  6  4  1  0
  6  7  2  0
  8  9  1  0
  9 10  2  0
 10 11  1  0
 12 13  1  0
 12 11  2  0
 14 13  1  6
 14 15  1  0
 15  6  1  0
 16 20  1  0
 16 14  1  0
 17 16  2  0
 18 12  1  0
 19 18  2  0
 19  9  1  0
 20 24  1  0
 21 20  1  0
 22 21  1  0
 22 23  1  0
 24 23  1  0
 24 25  1  1
 26 25  1  0
 27 25  2  0
M  END
$$$$
