QME.pdb
     RDKit          3D

 27 26  0  0  1  0  0  0  0  0999 V2000
   29.8173  -21.0076  -17.3206 N   0  0  0  0  0  0  0  0  0  0  0  0
   28.5352  -20.3924  -17.3711 C   0  0  0  0  0  0  0  0  0  0  0  0
   28.4831  -19.2043  -16.9785 O   0  0  0  0  0  0  0  0  0  0  0  0
   27.3429  -21.1006  -17.8542 C   0  0  0  0  0  0  0  0  0  0  0  0
   26.2762  -21.3284  -16.8238 C   0  0  0  0  0  0  0  0  0  0  0  0
   26.7865  -22.2250  -15.7468 C   0  0  2  0  0  0  0  0  0  0  0  0
   26.8908  -23.5799  -16.2846 N   0  0  0  0  0  0  0  0  0  0  0  0
   25.8567  -22.2439  -14.5604 C   0  0  0  0  0  0  0  0  0  0  0  0
   24.8403  -22.9379  -14.6450 O   0  0  0  0  0  0  0  0  0  0  0  0
   26.9763  -20.9225   -7.8499 C   0  0  0  0  0  0  0  0  0  0  0  0
   26.0364  -19.5439   -8.5828 S   0  0  0  0  0  0  0  0  0  0  0  0
   25.0842  -20.2306   -9.9833 C   0  0  0  0  0  0  0  0  0  0  0  0
   25.9936  -20.5099  -11.1302 C   0  0  0  0  0  0  0  0  0  0  0  0
   25.3086  -21.1664  -12.3151 C   0  0  2  0  0  0  0  0  0  0  0  0
   26.1430  -21.4995  -13.4104 N   0  0  0  0  0  0  0  0  0  0  0  0
   24.0393  -20.5356  -12.6058 C   0  0  0  0  0  0  0  0  0  0  0  0
   24.0669  -19.2861  -12.8857 O   0  0  0  0  0  0  0  0  0  0  0  0
   22.7762  -21.1757  -12.6087 N   0  0  0  0  0  0  0  0  0  0  0  0
   21.5831  -20.4437  -12.8890 C   0  0  1  0  0  0  0  0  0  0  0  0
   20.7072  -21.1917  -13.8706 C   0  0  0  0  0  0  0  0  0  0  0  0
   21.3743  -21.1959  -15.2292 C   0  0  0  0  0  0  0  0  0  0  0  0
   20.5728  -20.3961  -16.1852 C   0  0  0  0  0  0  0  0  0  0  0  0
   19.5055  -19.8277  -15.8522 O   0  0  0  0  0  0  0  0  0  0  0  0
   20.7750  -20.1821  -11.6755 C   0  0  0  0  0  0  0  0  0  0  0  0
   19.7922  -19.2262  -11.5831 O   0  0  0  0  0  0  0  0  0  0  0  0
   21.0059  -20.2640  -17.4937 O   0  0  0  0  0  0  0  0  0  0  0  0
   21.0123  -20.8915  -10.6598 O   0  0  0  0  0  0  0  0  0  0  0  0
  2  1  1  0
  3  2  2  0
  4  2  1  0
  5  4  1  0
  5  6  1  0
  6  8  1  0
  6  7  1  6
  8  9  2  0
 11 12  1  0
 11 10  1  0
 13 12  1  0
 14 13  1  1
 15 14  1  0
 15  8  1  0
 16 17  2  0
 16 14  1  0
 18 16  1  0
 19 18  1  0
 19 24  1  0
 19 20  1  6
 21 20  1  0
 22 21  1  0
 23 22  2  0
 24 25  1  0
 26 22  1  0
 27 24  2  0
M  END
$$$$
