QME.pdb
     RDKit          3D

 27 26  0  0  1  0  0  0  0  0999 V2000
   27.3809  -21.8354  -18.8269 N   0  0  0  0  0  0  0  0  0  0  0  0
   28.2662  -20.7314  -18.6783 C   0  0  0  0  0  0  0  0  0  0  0  0
   29.0249  -20.5045  -19.6486 O   0  0  0  0  0  0  0  0  0  0  0  0
   28.2927  -19.9039  -17.4654 C   0  0  0  0  0  0  0  0  0  0  0  0
   27.2010  -20.1886  -16.4762 C   0  0  0  0  0  0  0  0  0  0  0  0
   27.6872  -21.1392  -15.4350 C   0  0  2  0  0  0  0  0  0  0  0  0
   28.1467  -22.3569  -16.0997 N   0  0  0  0  0  0  0  0  0  0  0  0
   26.5915  -21.4997  -14.4646 C   0  0  0  0  0  0  0  0  0  0  0  0
   25.7596  -22.3342  -14.8301 O   0  0  0  0  0  0  0  0  0  0  0  0
   27.2587  -21.1283   -7.9238 C   0  0  0  0  0  0  0  0  0  0  0  0
   25.6172  -20.3562   -8.0988 S   0  0  0  0  0  0  0  0  0  0  0  0
   24.9634  -20.8540   -9.7311 C   0  0  0  0  0  0  0  0  0  0  0  0
   25.9857  -20.6074  -10.7869 C   0  0  0  0  0  0  0  0  0  0  0  0
   25.5634  -21.0610  -12.1725 C   0  0  2  0  0  0  0  0  0  0  0  0
   26.5274  -20.9058  -13.1991 N   0  0  0  0  0  0  0  0  0  0  0  0
   24.2026  -20.6656  -12.4644 C   0  0  0  0  0  0  0  0  0  0  0  0
   23.9797  -19.4101  -12.5838 O   0  0  0  0  0  0  0  0  0  0  0  0
   23.1017  -21.5409  -12.6297 N   0  0  0  0  0  0  0  0  0  0  0  0
   21.8001  -21.0351  -12.9263 C   0  0  1  0  0  0  0  0  0  0  0  0
   20.9129  -22.1228  -13.4920 C   0  0  0  0  0  0  0  0  0  0  0  0
   19.5156  -21.5742  -13.6855 C   0  0  0  0  0  0  0  0  0  0  0  0
   18.6655  -22.5879  -14.3531 C   0  0  0  0  0  0  0  0  0  0  0  0
   17.4208  -22.4624  -14.4441 O   0  0  0  0  0  0  0  0  0  0  0  0
   21.1198  -20.4752  -11.7357 C   0  0  0  0  0  0  0  0  0  0  0  0
   20.2299  -19.4285  -11.7651 O   0  0  0  0  0  0  0  0  0  0  0  0
   19.2527  -23.7167  -14.8991 O   0  0  0  0  0  0  0  0  0  0  0  0
   21.3816  -21.0022  -10.6200 O   0  0  0  0  0  0  0  0  0  0  0  0
  2  1  1  0
  3  2  2  0
  4  2  1  0
  5  4  1  0
  5  6  1  0
  6  8  1  0
  6  7  1  6
  8  9  2  0
 11 12  1  0
 11 10  1  0
 13 12  1  0
 14 13  1  1
 15 14  1  0
 15  8  1  0
 16 17  2  0
 16 14  1  0
 18 16  1  0
 19 18  1  0
 19 24  1  0
 19 20  1  1
 21 20  1  0
 22 21  1  0
 23 22  2  0
 24 25  1  0
 26 22  1  0
 27 24  2  0
M  END
$$$$
