QME.pdb
     RDKit          3D

 27 26  0  0  1  0  0  0  0  0999 V2000
   18.4319  -14.7378  -16.1592 N   0  0  0  0  0  0  0  0  0  0  0  0
   18.8738  -15.1432  -17.4496 C   0  0  0  0  0  0  0  0  0  0  0  0
   18.2702  -16.1184  -17.9527 O   0  0  0  0  0  0  0  0  0  0  0  0
   19.9682  -14.4634  -18.1543 C   0  0  0  0  0  0  0  0  0  0  0  0
   20.5595  -13.2893  -17.4307 C   0  0  0  0  0  0  0  0  0  0  0  0
   22.0480  -13.3330  -17.5123 C   0  0  2  0  0  0  0  0  0  0  0  0
   22.5014  -14.6218  -16.9933 N   0  0  0  0  0  0  0  0  0  0  0  0
   22.6761  -12.2326  -16.6957 C   0  0  0  0  0  0  0  0  0  0  0  0
   22.3945  -12.1830  -15.4957 O   0  0  0  0  0  0  0  0  0  0  0  0
   28.2466  -13.4268  -14.6882 C   0  0  0  0  0  0  0  0  0  0  0  0
   27.9212  -11.9745  -15.7399 S   0  0  0  0  0  0  0  0  0  0  0  0
   26.1172  -11.6845  -15.7079 C   0  0  0  0  0  0  0  0  0  0  0  0
   25.7771  -10.4942  -16.5374 C   0  0  0  0  0  0  0  0  0  0  0  0
   24.2860  -10.2550  -16.6911 C   0  0  2  0  0  0  0  0  0  0  0  0
   23.5447  -11.3065  -17.2842 N   0  0  0  0  0  0  0  0  0  0  0  0
   24.0121   -8.9061  -17.1370 C   0  0  0  0  0  0  0  0  0  0  0  0
   24.0548   -8.6962  -18.3997 O   0  0  0  0  0  0  0  0  0  0  0  0
   23.7017   -7.8039  -16.3039 N   0  0  0  0  0  0  0  0  0  0  0  0
   23.4450   -6.5138  -16.8588 C   0  0  1  0  0  0  0  0  0  0  0  0
   22.6088   -5.6759  -15.9161 C   0  0  0  0  0  0  0  0  0  0  0  0
   21.2152   -6.2607  -15.8343 C   0  0  0  0  0  0  0  0  0  0  0  0
   20.4021   -5.4887  -14.8652 C   0  0  0  0  0  0  0  0  0  0  0  0
   20.5645   -5.5892  -13.6256 O   0  0  0  0  0  0  0  0  0  0  0  0
   24.6863   -5.7594  -17.1486 C   0  0  0  0  0  0  0  0  0  0  0  0
   24.7711   -4.7012  -18.0212 O   0  0  0  0  0  0  0  0  0  0  0  0
   19.4266   -4.6237  -15.3311 O   0  0  0  0  0  0  0  0  0  0  0  0
   25.7350   -6.1204  -16.5476 O   0  0  0  0  0  0  0  0  0  0  0  0
  2  1  1  0
  3  2  2  0
  4  2  1  0
  5  4  1  0
  5  6  1  0
  6  8  1  0
  6  7  1  1
  8  9  2  0
 11 12  1  0
 11 10  1  0
 13 12  1  0
 14 13  1  6
 15 14  1  0
 15  8  1  0
 16 17  2  0
 16 14  1  0
 18 16  1  0
 19 18  1  0
 19 24  1  0
 19 20  1  1
 21 20  1  0
 22 21  1  0
 23 22  2  0
 24 25  1  0
 26 22  1  0
 27 24  2  0
M  END
$$$$
