QME.pdb
     RDKit          3D

 27 26  0  0  1  0  0  0  0  0999 V2000
   16.8131  -14.5811  -20.8198 N   0  0  0  0  0  0  0  0  0  0  0  0
   18.0023  -13.8010  -20.7769 C   0  0  0  0  0  0  0  0  0  0  0  0
   19.0702  -14.4201  -20.9882 O   0  0  0  0  0  0  0  0  0  0  0  0
   17.9855  -12.3581  -20.5039 C   0  0  0  0  0  0  0  0  0  0  0  0
   18.5502  -11.9550  -19.1735 C   0  0  0  0  0  0  0  0  0  0  0  0
   19.8136  -12.7007  -18.9053 C   0  0  2  0  0  0  0  0  0  0  0  0
   19.4682  -14.0411  -18.4363 N   0  0  0  0  0  0  0  0  0  0  0  0
   20.6430  -12.0157  -17.8493 C   0  0  0  0  0  0  0  0  0  0  0  0
   20.1004  -11.7735  -16.7681 O   0  0  0  0  0  0  0  0  0  0  0  0
   27.7859  -11.1375  -14.7994 C   0  0  0  0  0  0  0  0  0  0  0  0
   26.7646  -11.9610  -16.0642 S   0  0  0  0  0  0  0  0  0  0  0  0
   25.2050  -11.0169  -16.1901 C   0  0  0  0  0  0  0  0  0  0  0  0
   24.2826  -11.6817  -17.1532 C   0  0  0  0  0  0  0  0  0  0  0  0
   22.9164  -11.0275  -17.2510 C   0  0  2  0  0  0  0  0  0  0  0  0
   21.9770  -11.6709  -18.0940 N   0  0  0  0  0  0  0  0  0  0  0  0
   23.0270   -9.5879  -17.3451 C   0  0  0  0  0  0  0  0  0  0  0  0
   23.3354   -9.1068  -18.4913 O   0  0  0  0  0  0  0  0  0  0  0  0
   22.8245   -8.6694  -16.2865 N   0  0  0  0  0  0  0  0  0  0  0  0
   22.8582   -7.2615  -16.5200 C   0  0  1  0  0  0  0  0  0  0  0  0
   22.4236   -6.4980  -15.2877 C   0  0  0  0  0  0  0  0  0  0  0  0
   22.4403   -5.0151  -15.5900 C   0  0  0  0  0  0  0  0  0  0  0  0
   21.9896   -4.2545  -14.4007 C   0  0  0  0  0  0  0  0  0  0  0  0
   21.8373   -4.7947  -13.2791 O   0  0  0  0  0  0  0  0  0  0  0  0
   24.2066   -6.7769  -16.8956 C   0  0  0  0  0  0  0  0  0  0  0  0
   25.3811   -7.2343  -16.3481 O   0  0  0  0  0  0  0  0  0  0  0  0
   21.7242   -2.9007  -14.5182 O   0  0  0  0  0  0  0  0  0  0  0  0
   24.2723   -5.8812  -17.7813 O   0  0  0  0  0  0  0  0  0  0  0  0
  2  1  1  0
  3  2  2  0
  4  2  1  0
  5  4  1  0
  5  6  1  0
  6  8  1  0
  6  7  1  1
  8  9  2  0
 11 12  1  0
 11 10  1  0
 13 12  1  0
 14 13  1  6
 15 14  1  0
 15  8  1  0
 16 17  2  0
 16 14  1  0
 18 16  1  0
 19 18  1  0
 19 24  1  0
 19 20  1  1
 21 20  1  0
 22 21  1  0
 23 22  2  0
 24 25  1  0
 26 22  1  0
 27 24  2  0
M  END
$$$$
