QME.pdb
     RDKit          3D

 27 26  0  0  1  0  0  0  0  0999 V2000
   26.2216  -23.5506  -15.5171 N   0  0  0  0  0  0  0  0  0  0  0  0
   26.2457  -22.9447  -16.8044 C   0  0  0  0  0  0  0  0  0  0  0  0
   25.3870  -23.3557  -17.6182 O   0  0  0  0  0  0  0  0  0  0  0  0
   27.2138  -21.9002  -17.1626 C   0  0  0  0  0  0  0  0  0  0  0  0
   28.1841  -21.5323  -16.0788 C   0  0  0  0  0  0  0  0  0  0  0  0
   27.5434  -20.5925  -15.1141 C   0  0  2  0  0  0  0  0  0  0  0  0
   28.2834  -19.3325  -15.1361 N   0  0  0  0  0  0  0  0  0  0  0  0
   27.5659  -21.1443  -13.7114 C   0  0  0  0  0  0  0  0  0  0  0  0
   27.9800  -22.2964  -13.5598 O   0  0  0  0  0  0  0  0  0  0  0  0
   27.7618  -20.0249   -7.4516 C   0  0  0  0  0  0  0  0  0  0  0  0
   25.9440  -19.9745   -7.5699 S   0  0  0  0  0  0  0  0  0  0  0  0
   25.4956  -20.6500   -9.2076 C   0  0  0  0  0  0  0  0  0  0  0  0
   26.4635  -20.1768  -10.2370 C   0  0  0  0  0  0  0  0  0  0  0  0
   26.1559  -20.6612  -11.6422 C   0  0  2  0  0  0  0  0  0  0  0  0
   27.1317  -20.3724  -12.6279 N   0  0  0  0  0  0  0  0  0  0  0  0
   24.7684  -20.4362  -11.9852 C   0  0  0  0  0  0  0  0  0  0  0  0
   24.4407  -19.2410  -12.3083 O   0  0  0  0  0  0  0  0  0  0  0  0
   23.7469  -21.4168  -11.9956 N   0  0  0  0  0  0  0  0  0  0  0  0
   22.4329  -21.1029  -12.4570 C   0  0  1  0  0  0  0  0  0  0  0  0
   21.7843  -22.3074  -13.1040 C   0  0  0  0  0  0  0  0  0  0  0  0
   20.3793  -21.9444  -13.5342 C   0  0  0  0  0  0  0  0  0  0  0  0
   20.1306  -22.4396  -14.9086 C   0  0  0  0  0  0  0  0  0  0  0  0
   20.8246  -23.3453  -15.4294 O   0  0  0  0  0  0  0  0  0  0  0  0
   21.5399  -20.6432  -11.3683 C   0  0  0  0  0  0  0  0  0  0  0  0
   20.4008  -19.8975  -11.5552 O   0  0  0  0  0  0  0  0  0  0  0  0
   19.1001  -21.8923  -15.6539 O   0  0  0  0  0  0  0  0  0  0  0  0
   21.8546  -20.9631  -10.1894 O   0  0  0  0  0  0  0  0  0  0  0  0
  2  1  1  0
  3  2  2  0
  4  2  1  0
  5  4  1  0
  5  6  1  0
  6  8  1  0
  6  7  1  1
  8  9  2  0
 11 12  1  0
 11 10  1  0
 13 12  1  0
 14 13  1  1
 15 14  1  0
 15  8  1  0
 16 17  2  0
 16 14  1  0
 18 16  1  0
 19 18  1  0
 19 24  1  0
 19 20  1  1
 21 20  1  0
 22 21  1  0
 23 22  2  0
 24 25  1  0
 26 22  1  0
 27 24  2  0
M  END
$$$$
