QME.pdb
     RDKit          3D

 27 26  0  0  1  0  0  0  0  0999 V2000
   17.5636  -13.3420  -20.0064 N   0  0  0  0  0  0  0  0  0  0  0  0
   18.0645  -12.5072  -21.0443 C   0  0  0  0  0  0  0  0  0  0  0  0
   17.9646  -12.9613  -22.2072 O   0  0  0  0  0  0  0  0  0  0  0  0
   18.6614  -11.1927  -20.7755 C   0  0  0  0  0  0  0  0  0  0  0  0
   18.6389  -10.7650  -19.3374 C   0  0  0  0  0  0  0  0  0  0  0  0
   19.7159  -11.4630  -18.5777 C   0  0  2  0  0  0  0  0  0  0  0  0
   19.1195  -12.5855  -17.8565 N   0  0  0  0  0  0  0  0  0  0  0  0
   20.3733  -10.5409  -17.5828 C   0  0  0  0  0  0  0  0  0  0  0  0
   19.6364   -9.8728  -16.8531 O   0  0  0  0  0  0  0  0  0  0  0  0
   27.3116  -10.3324  -16.5214 C   0  0  0  0  0  0  0  0  0  0  0  0
   26.3235  -10.4477  -14.9945 S   0  0  0  0  0  0  0  0  0  0  0  0
   24.7503   -9.5723  -15.3082 C   0  0  0  0  0  0  0  0  0  0  0  0
   23.9883  -10.2631  -16.3865 C   0  0  0  0  0  0  0  0  0  0  0  0
   22.5750   -9.7422  -16.5742 C   0  0  2  0  0  0  0  0  0  0  0  0
   21.7672  -10.4521  -17.4965 N   0  0  0  0  0  0  0  0  0  0  0  0
   22.5498   -8.2967  -16.6338 C   0  0  0  0  0  0  0  0  0  0  0  0
   22.9226   -7.7582  -17.7344 O   0  0  0  0  0  0  0  0  0  0  0  0
   22.1502   -7.4302  -15.5875 N   0  0  0  0  0  0  0  0  0  0  0  0
   22.1359   -6.0147  -15.7720 C   0  0  1  0  0  0  0  0  0  0  0  0
   20.7173   -5.4926  -15.8431 C   0  0  0  0  0  0  0  0  0  0  0  0
   20.7484   -3.9859  -15.9837 C   0  0  0  0  0  0  0  0  0  0  0  0
   19.3651   -3.4556  -16.0200 C   0  0  0  0  0  0  0  0  0  0  0  0
   18.9687   -2.5654  -15.2304 O   0  0  0  0  0  0  0  0  0  0  0  0
   22.8268   -5.2893  -14.6810 C   0  0  0  0  0  0  0  0  0  0  0  0
   23.3667   -4.0311  -14.7994 O   0  0  0  0  0  0  0  0  0  0  0  0
   18.4698   -3.9513  -16.9527 O   0  0  0  0  0  0  0  0  0  0  0  0
   22.9220   -5.8751  -13.5679 O   0  0  0  0  0  0  0  0  0  0  0  0
  2  1  1  0
  3  2  2  0
  4  2  1  0
  5  4  1  0
  5  6  1  0
  6  8  1  0
  6  7  1  1
  8  9  2  0
 11 12  1  0
 11 10  1  0
 13 12  1  0
 14 13  1  6
 15 14  1  0
 15  8  1  0
 16 17  2  0
 16 14  1  0
 18 16  1  0
 19 18  1  0
 19 24  1  0
 19 20  1  1
 21 20  1  0
 22 21  1  0
 23 22  2  0
 24 25  1  0
 26 22  1  0
 27 24  2  0
M  END
$$$$
