QME.pdb
     RDKit          3D

 27 26  0  0  1  0  0  0  0  0999 V2000
   20.5243  -18.3298  -17.1173 N   0  0  0  0  0  0  0  0  0  0  0  0
   19.5782  -17.3589  -17.5495 C   0  0  0  0  0  0  0  0  0  0  0  0
   18.6762  -17.7761  -18.3117 O   0  0  0  0  0  0  0  0  0  0  0  0
   19.6482  -15.9532  -17.1303 C   0  0  0  0  0  0  0  0  0  0  0  0
   20.8210  -15.6055  -16.2613 C   0  0  0  0  0  0  0  0  0  0  0  0
   21.8533  -14.8819  -17.0583 C   0  0  2  0  0  0  0  0  0  0  0  0
   22.6453  -15.8673  -17.7914 N   0  0  0  0  0  0  0  0  0  0  0  0
   22.7731  -14.0829  -16.1707 C   0  0  0  0  0  0  0  0  0  0  0  0
   23.2913  -14.6670  -15.2156 O   0  0  0  0  0  0  0  0  0  0  0  0
   28.4073  -12.6241  -17.1680 C   0  0  0  0  0  0  0  0  0  0  0  0
   28.1154  -12.2875  -15.4010 S   0  0  0  0  0  0  0  0  0  0  0  0
   26.4490  -11.5498  -15.2652 C   0  0  0  0  0  0  0  0  0  0  0  0
   25.4417  -12.4443  -15.9021 C   0  0  0  0  0  0  0  0  0  0  0  0
   24.0322  -11.8810  -15.9076 C   0  0  2  0  0  0  0  0  0  0  0  0
   23.0244  -12.7304  -16.4273 N   0  0  0  0  0  0  0  0  0  0  0  0
   24.0205  -10.4946  -16.3212 C   0  0  0  0  0  0  0  0  0  0  0  0
   24.3003  -10.2563  -17.5481 O   0  0  0  0  0  0  0  0  0  0  0  0
   23.7274   -9.3842  -15.4927 N   0  0  0  0  0  0  0  0  0  0  0  0
   23.6437   -8.0661  -16.0346 C   0  0  1  0  0  0  0  0  0  0  0  0
   23.1491   -7.0840  -14.9948 C   0  0  0  0  0  0  0  0  0  0  0  0
   22.8904   -5.7476  -15.6565 C   0  0  0  0  0  0  0  0  0  0  0  0
   22.4327   -4.7660  -14.6451 C   0  0  0  0  0  0  0  0  0  0  0  0
   22.4887   -4.9983  -13.4138 O   0  0  0  0  0  0  0  0  0  0  0  0
   24.9465   -7.5707  -16.5358 C   0  0  0  0  0  0  0  0  0  0  0  0
   25.1026   -6.7535  -17.6295 O   0  0  0  0  0  0  0  0  0  0  0  0
   21.9237   -3.5472  -15.0603 O   0  0  0  0  0  0  0  0  0  0  0  0
   25.9805   -7.9290  -15.9085 O   0  0  0  0  0  0  0  0  0  0  0  0
  2  1  1  0
  3  2  2  0
  4  2  1  0
  5  4  1  0
  5  6  1  0
  6  8  1  0
  6  7  1  1
  8  9  2  0
 11 12  1  0
 11 10  1  0
 13 12  1  0
 14 13  1  6
 15 14  1  0
 15  8  1  0
 16 17  2  0
 16 14  1  0
 18 16  1  0
 19 18  1  0
 19 24  1  0
 19 20  1  1
 21 20  1  0
 22 21  1  0
 23 22  2  0
 24 25  1  0
 26 22  1  0
 27 24  2  0
M  END
$$$$
