QVD.pdb
     RDKit          3D

 25 24  0  0  1  0  0  0  0  0999 V2000
   26.9521  -21.1536  -10.4192 N   0  0  0  0  0  0  0  0  0  0  0  0
   25.7696  -20.9015   -9.6353 C   0  0  0  0  0  0  0  0  0  0  0  0
   25.8753  -21.1775   -8.4209 O   0  0  0  0  0  0  0  0  0  0  0  0
   24.5539  -20.3661  -10.2604 C   0  0  0  0  0  0  0  0  0  0  0  0
   24.6433  -20.0357  -11.7118 C   0  0  0  0  0  0  0  0  0  0  0  0
   23.8917  -21.0059  -12.5446 C   0  0  2  0  0  0  0  0  0  0  0  0
   24.5123  -22.3015  -12.5128 N   0  0  0  0  0  0  0  0  0  0  0  0
   23.7730  -20.6017  -13.9596 C   0  0  0  0  0  0  0  0  0  0  0  0
   24.7783  -20.6433  -14.7332 O   0  0  0  0  0  0  0  0  0  0  0  0
   20.7694  -20.4119  -17.7244 C   0  0  0  0  0  0  0  0  0  0  0  0
   21.6912  -20.9068  -16.6562 C   0  0  2  0  0  0  0  0  0  0  0  0
   20.8236  -21.7196  -15.6910 C   0  0  0  0  0  0  0  0  0  0  0  0
   22.4241  -19.8100  -15.9144 C   0  0  2  0  0  0  0  0  0  0  0  0
   22.5428  -20.1585  -14.4845 N   0  0  0  0  0  0  0  0  0  0  0  0
   21.7891  -18.4922  -16.0791 C   0  0  0  0  0  0  0  0  0  0  0  0
   20.8675  -18.0618  -15.3416 O   0  0  0  0  0  0  0  0  0  0  0  0
   22.1914  -17.5819  -17.1236 N   0  0  0  0  0  0  0  0  0  0  0  0
   21.5101  -16.2699  -17.2553 C   0  0  1  0  0  0  0  0  0  0  0  0
   22.4291  -15.2839  -17.9134 C   0  0  0  0  0  0  0  0  0  0  0  0
   21.7328  -14.0033  -18.1140 C   0  0  0  0  0  0  0  0  0  0  0  0
   20.5525  -13.8256  -17.6406 O   0  0  0  0  0  0  0  0  0  0  0  0
   20.3797  -16.5501  -18.1646 C   0  0  0  0  0  0  0  0  0  0  0  0
   19.1025  -16.0608  -17.9581 O   0  0  0  0  0  0  0  0  0  0  0  0
   22.2336  -12.9048  -18.7972 O   0  0  0  0  0  0  0  0  0  0  0  0
   20.5589  -17.2576  -19.1714 O   0  0  0  0  0  0  0  0  0  0  0  0
  1  2  1  0
  2  3  2  0
  4  2  1  0
  4  5  1  0
  6  5  1  0
  6  8  1  0
  6  7  1  6
  8  9  2  0
 11 10  1  6
 11 12  1  0
 11 13  1  0
 13 15  1  0
 13 14  1  1
 14  8  1  0
 15 17  1  0
 16 15  2  0
 17 18  1  0
 18 19  1  6
 20 19  1  0
 21 20  2  0
 22 18  1  0
 23 22  1  0
 24 20  1  0
 25 22  2  0
M  END
$$$$
