QVD.pdb
     RDKit          3D

 25 24  0  0  1  0  0  0  0  0999 V2000
   19.1804  -20.5606  -14.3531 N   0  0  0  0  0  0  0  0  0  0  0  0
   19.8263  -21.7530  -13.8659 C   0  0  0  0  0  0  0  0  0  0  0  0
   19.1433  -22.7958  -13.9580 O   0  0  0  0  0  0  0  0  0  0  0  0
   21.1824  -21.6976  -13.3064 C   0  0  0  0  0  0  0  0  0  0  0  0
   21.8567  -20.3678  -13.3288 C   0  0  0  0  0  0  0  0  0  0  0  0
   22.4345  -20.0658  -14.6610 C   0  0  2  0  0  0  0  0  0  0  0  0
   23.4072  -21.0543  -15.0368 N   0  0  0  0  0  0  0  0  0  0  0  0
   23.0885  -18.7443  -14.7349 C   0  0  0  0  0  0  0  0  0  0  0  0
   22.5580  -17.7261  -14.1938 O   0  0  0  0  0  0  0  0  0  0  0  0
   27.0408  -18.2884  -16.4226 C   0  0  0  0  0  0  0  0  0  0  0  0
   26.4236  -17.3344  -15.4507 C   0  0  2  0  0  0  0  0  0  0  0  0
   26.8407  -17.8184  -14.0590 C   0  0  0  0  0  0  0  0  0  0  0  0
   24.9164  -17.2396  -15.5490 C   0  0  2  0  0  0  0  0  0  0  0  0
   24.3151  -18.5809  -15.4088 N   0  0  0  0  0  0  0  0  0  0  0  0
   24.4690  -16.5949  -16.7944 C   0  0  0  0  0  0  0  0  0  0  0  0
   24.2984  -17.2075  -17.8780 O   0  0  0  0  0  0  0  0  0  0  0  0
   24.1881  -15.1813  -16.8579 N   0  0  0  0  0  0  0  0  0  0  0  0
   23.6822  -14.5903  -18.1219 C   0  0  1  0  0  0  0  0  0  0  0  0
   22.6429  -13.5525  -17.8174 C   0  0  0  0  0  0  0  0  0  0  0  0
   22.1377  -12.9643  -19.0678 C   0  0  0  0  0  0  0  0  0  0  0  0
   21.9104  -13.7083  -20.0894 O   0  0  0  0  0  0  0  0  0  0  0  0
   24.8683  -13.9239  -18.6984 C   0  0  0  0  0  0  0  0  0  0  0  0
   24.9744  -13.5917  -20.0369 O   0  0  0  0  0  0  0  0  0  0  0  0
   21.8660  -11.6209  -19.2819 O   0  0  0  0  0  0  0  0  0  0  0  0
   25.8315  -13.6375  -17.9660 O   0  0  0  0  0  0  0  0  0  0  0  0
  1  2  1  0
  2  3  2  0
  4  2  1  0
  4  5  1  0
  6  5  1  0
  6  8  1  0
  6  7  1  1
  8  9  2  0
 11 10  1  6
 11 12  1  0
 11 13  1  0
 13 15  1  0
 13 14  1  6
 14  8  1  0
 15 17  1  0
 16 15  2  0
 17 18  1  0
 18 19  1  1
 20 19  1  0
 21 20  2  0
 22 18  1  0
 23 22  1  0
 24 20  1  0
 25 22  2  0
M  END
$$$$
