QVD.pdb
     RDKit          3D

 25 24  0  0  1  0  0  0  0  0999 V2000
   23.7857  -25.2300  -16.9923 N   0  0  0  0  0  0  0  0  0  0  0  0
   25.2106  -25.4167  -16.8854 C   0  0  0  0  0  0  0  0  0  0  0  0
   25.7404  -25.9887  -17.8623 O   0  0  0  0  0  0  0  0  0  0  0  0
   25.9412  -24.9588  -15.6972 C   0  0  0  0  0  0  0  0  0  0  0  0
   25.1292  -24.3150  -14.6249 C   0  0  0  0  0  0  0  0  0  0  0  0
   24.6957  -22.9491  -15.0075 C   0  0  2  0  0  0  0  0  0  0  0  0
   25.8185  -22.0561  -15.0884 N   0  0  0  0  0  0  0  0  0  0  0  0
   23.7193  -22.3561  -14.0725 C   0  0  0  0  0  0  0  0  0  0  0  0
   24.0996  -21.8432  -12.9755 O   0  0  0  0  0  0  0  0  0  0  0  0
   19.8893  -20.9390  -15.2657 C   0  0  0  0  0  0  0  0  0  0  0  0
   20.6490  -20.6128  -14.0199 C   0  0  2  0  0  0  0  0  0  0  0  0
   21.6454  -19.5160  -14.4063 C   0  0  0  0  0  0  0  0  0  0  0  0
   21.3717  -21.7937  -13.4087 C   0  0  2  0  0  0  0  0  0  0  0  0
   22.3428  -22.3470  -14.3736 N   0  0  0  0  0  0  0  0  0  0  0  0
   20.4501  -22.8404  -12.9379 C   0  0  0  0  0  0  0  0  0  0  0  0
   19.9974  -23.7559  -13.6696 O   0  0  0  0  0  0  0  0  0  0  0  0
   19.9925  -22.8889  -11.5705 N   0  0  0  0  0  0  0  0  0  0  0  0
   19.0708  -23.9710  -11.1436 C   0  0  1  0  0  0  0  0  0  0  0  0
   19.2168  -24.2111   -9.6702 C   0  0  0  0  0  0  0  0  0  0  0  0
   18.3982  -25.3645   -9.2648 C   0  0  0  0  0  0  0  0  0  0  0  0
   17.7780  -26.0619  -10.1467 O   0  0  0  0  0  0  0  0  0  0  0  0
   17.7279  -23.4135  -11.4061 C   0  0  0  0  0  0  0  0  0  0  0  0
   16.6582  -24.1820  -11.8284 O   0  0  0  0  0  0  0  0  0  0  0  0
   18.2071  -25.8079   -7.9643 O   0  0  0  0  0  0  0  0  0  0  0  0
   17.5233  -22.1972  -11.2475 O   0  0  0  0  0  0  0  0  0  0  0  0
  1  2  1  0
  2  3  2  0
  4  2  1  0
  4  5  1  0
  6  5  1  0
  6  8  1  0
  6  7  1  1
  8  9  2  0
 11 10  1  6
 11 12  1  0
 11 13  1  0
 13 15  1  0
 13 14  1  6
 14  8  1  0
 15 17  1  0
 16 15  2  0
 17 18  1  0
 18 19  1  1
 20 19  1  0
 21 20  2  0
 22 18  1  0
 23 22  1  0
 24 20  1  0
 25 22  2  0
M  END
$$$$
