QVD.pdb
     RDKit          3D

 25 24  0  0  1  0  0  0  0  0999 V2000
   15.3784  -13.3627  -15.3671 N   0  0  0  0  0  0  0  0  0  0  0  0
   15.9755  -13.7869  -16.6079 C   0  0  0  0  0  0  0  0  0  0  0  0
   15.2918  -14.5968  -17.2704 O   0  0  0  0  0  0  0  0  0  0  0  0
   17.2922  -13.2840  -17.0187 C   0  0  0  0  0  0  0  0  0  0  0  0
   17.9307  -12.2810  -16.1187 C   0  0  0  0  0  0  0  0  0  0  0  0
   19.2926  -11.9163  -16.5793 C   0  0  2  0  0  0  0  0  0  0  0  0
   20.1034  -13.0874  -16.7683 N   0  0  0  0  0  0  0  0  0  0  0  0
   20.0100  -11.0211  -15.6499 C   0  0  0  0  0  0  0  0  0  0  0  0
   19.5688  -10.8134  -14.4781 O   0  0  0  0  0  0  0  0  0  0  0  0
   24.0655   -9.9019  -16.3507 C   0  0  0  0  0  0  0  0  0  0  0  0
   23.3725   -9.8768  -15.0261 C   0  0  2  0  0  0  0  0  0  0  0  0
   23.5245  -11.2841  -14.4417 C   0  0  0  0  0  0  0  0  0  0  0  0
   21.9116   -9.4886  -15.0994 C   0  0  2  0  0  0  0  0  0  0  0  0
   21.1993  -10.3748  -16.0414 N   0  0  0  0  0  0  0  0  0  0  0  0
   21.7181   -8.0758  -15.4647 C   0  0  0  0  0  0  0  0  0  0  0  0
   21.7239   -7.6510  -16.6470 O   0  0  0  0  0  0  0  0  0  0  0  0
   21.5028   -7.0570  -14.4661 N   0  0  0  0  0  0  0  0  0  0  0  0
   21.3743   -5.6381  -14.8821 C   0  0  1  0  0  0  0  0  0  0  0  0
   19.9323   -5.2267  -14.8468 C   0  0  0  0  0  0  0  0  0  0  0  0
   19.8060   -3.8041  -15.2002 C   0  0  0  0  0  0  0  0  0  0  0  0
   20.6244   -3.2669  -16.0312 O   0  0  0  0  0  0  0  0  0  0  0  0
   22.1084   -4.8967  -13.8358 C   0  0  0  0  0  0  0  0  0  0  0  0
   22.4662   -3.5664  -13.9601 O   0  0  0  0  0  0  0  0  0  0  0  0
   18.8510   -2.9265  -14.7080 O   0  0  0  0  0  0  0  0  0  0  0  0
   22.4322   -5.4739  -12.7832 O   0  0  0  0  0  0  0  0  0  0  0  0
  1  2  1  0
  2  3  2  0
  4  2  1  0
  4  5  1  0
  6  5  1  0
  6  8  1  0
  6  7  1  1
  8  9  2  0
 11 10  1  6
 11 12  1  0
 11 13  1  0
 13 15  1  0
 13 14  1  6
 14  8  1  0
 15 17  1  0
 16 15  2  0
 17 18  1  0
 18 19  1  1
 20 19  1  0
 21 20  2  0
 22 18  1  0
 23 22  1  0
 24 20  1  0
 25 22  2  0
M  END
$$$$
