QVD.pdb
     RDKit          3D

 25 24  0  0  1  0  0  0  0  0999 V2000
   15.2203  -13.1879  -19.8276 N   0  0  0  0  0  0  0  0  0  0  0  0
   16.0676  -12.0223  -19.8382 C   0  0  0  0  0  0  0  0  0  0  0  0
   15.5019  -10.9645  -20.1893 O   0  0  0  0  0  0  0  0  0  0  0  0
   17.4836  -12.1194  -19.4631 C   0  0  0  0  0  0  0  0  0  0  0  0
   17.8893  -11.4164  -18.2122 C   0  0  0  0  0  0  0  0  0  0  0  0
   19.0635  -12.0604  -17.5748 C   0  0  2  0  0  0  0  0  0  0  0  0
   18.7244  -13.3603  -17.0649 N   0  0  0  0  0  0  0  0  0  0  0  0
   19.6333  -11.2777  -16.4602 C   0  0  0  0  0  0  0  0  0  0  0  0
   18.9295  -10.9864  -15.4450 O   0  0  0  0  0  0  0  0  0  0  0  0
   23.5882   -9.9704  -13.8779 C   0  0  0  0  0  0  0  0  0  0  0  0
   22.8405  -10.7419  -14.9178 C   0  0  2  0  0  0  0  0  0  0  0  0
   23.7945  -10.8844  -16.1072 C   0  0  0  0  0  0  0  0  0  0  0  0
   21.5431  -10.0961  -15.3537 C   0  0  2  0  0  0  0  0  0  0  0  0
   20.9701  -10.8339  -16.4972 N   0  0  0  0  0  0  0  0  0  0  0  0
   21.7016   -8.6695  -15.6799 C   0  0  0  0  0  0  0  0  0  0  0  0
   22.2509   -8.2476  -16.7281 O   0  0  0  0  0  0  0  0  0  0  0  0
   21.2250   -7.6324  -14.7975 N   0  0  0  0  0  0  0  0  0  0  0  0
   21.3794   -6.2089  -15.1884 C   0  0  1  0  0  0  0  0  0  0  0  0
   20.0287   -5.5822  -15.3691 C   0  0  0  0  0  0  0  0  0  0  0  0
   20.1767   -4.1815  -15.7946 C   0  0  0  0  0  0  0  0  0  0  0  0
   21.1079   -3.8471  -16.6130 O   0  0  0  0  0  0  0  0  0  0  0  0
   22.0397   -5.5924  -14.0191 C   0  0  0  0  0  0  0  0  0  0  0  0
   22.7063   -4.3819  -14.0769 O   0  0  0  0  0  0  0  0  0  0  0  0
   19.3814   -3.1205  -15.3871 O   0  0  0  0  0  0  0  0  0  0  0  0
   22.0092   -6.1699  -12.9183 O   0  0  0  0  0  0  0  0  0  0  0  0
  1  2  1  0
  2  3  2  0
  4  2  1  0
  4  5  1  0
  6  5  1  0
  6  8  1  0
  6  7  1  1
  8  9  2  0
 11 10  1  1
 11 12  1  0
 11 13  1  0
 13 15  1  0
 13 14  1  6
 14  8  1  0
 15 17  1  0
 16 15  2  0
 17 18  1  0
 18 19  1  1
 20 19  1  0
 21 20  2  0
 22 18  1  0
 23 22  1  0
 24 20  1  0
 25 22  2  0
M  END
$$$$
