QVD.pdb
     RDKit          3D

 25 24  0  0  1  0  0  0  0  0999 V2000
   28.8624  -19.0924  -18.2605 N   0  0  0  0  0  0  0  0  0  0  0  0
   28.3825  -18.0400  -17.4012 C   0  0  0  0  0  0  0  0  0  0  0  0
   28.9165  -16.9252  -17.5869 O   0  0  0  0  0  0  0  0  0  0  0  0
   27.3478  -18.3054  -16.3942 C   0  0  0  0  0  0  0  0  0  0  0  0
   26.8106  -19.6956  -16.3439 C   0  0  0  0  0  0  0  0  0  0  0  0
   27.2331  -20.4048  -15.1117 C   0  0  2  0  0  0  0  0  0  0  0  0
   28.1651  -21.4553  -15.4158 N   0  0  0  0  0  0  0  0  0  0  0  0
   26.1117  -21.0052  -14.3622 C   0  0  0  0  0  0  0  0  0  0  0  0
   25.3627  -21.8763  -14.9019 O   0  0  0  0  0  0  0  0  0  0  0  0
   24.8622  -19.8586  -10.1844 C   0  0  0  0  0  0  0  0  0  0  0  0
   25.0336  -21.2120  -10.7962 C   0  0  2  0  0  0  0  0  0  0  0  0
   26.4827  -21.6220  -10.5187 C   0  0  0  0  0  0  0  0  0  0  0  0
   24.7442  -21.2611  -12.2809 C   0  0  2  0  0  0  0  0  0  0  0  0
   25.8448  -20.6250  -13.0321 N   0  0  0  0  0  0  0  0  0  0  0  0
   23.4525  -20.6459  -12.6272 C   0  0  0  0  0  0  0  0  0  0  0  0
   23.2709  -19.4066  -12.7255 O   0  0  0  0  0  0  0  0  0  0  0  0
   22.2777  -21.4429  -12.8845 N   0  0  0  0  0  0  0  0  0  0  0  0
   20.9826  -20.7724  -13.1596 C   0  0  1  0  0  0  0  0  0  0  0  0
   20.3242  -21.4070  -14.3486 C   0  0  0  0  0  0  0  0  0  0  0  0
   19.0200  -20.7738  -14.5993 C   0  0  0  0  0  0  0  0  0  0  0  0
   18.9578  -19.5895  -15.0918 O   0  0  0  0  0  0  0  0  0  0  0  0
   20.1748  -21.0596  -11.9562 C   0  0  0  0  0  0  0  0  0  0  0  0
   20.3542  -22.1868  -11.1750 O   0  0  0  0  0  0  0  0  0  0  0  0
   17.7796  -21.3415  -14.3476 O   0  0  0  0  0  0  0  0  0  0  0  0
   19.2839  -20.2653  -11.6076 O   0  0  0  0  0  0  0  0  0  0  0  0
  1  2  1  0
  2  3  2  0
  4  2  1  0
  4  5  1  0
  6  5  1  0
  6  8  1  0
  6  7  1  6
  8  9  2  0
 11 10  1  6
 11 12  1  0
 11 13  1  0
 13 15  1  0
 13 14  1  6
 14  8  1  0
 15 17  1  0
 16 15  2  0
 17 18  1  0
 18 19  1  6
 20 19  1  0
 21 20  2  0
 22 18  1  0
 23 22  1  0
 24 20  1  0
 25 22  2  0
M  END
$$$$
