QVD.pdb
     RDKit          3D

 25 24  0  0  1  0  0  0  0  0999 V2000
   23.3279  -14.5494  -18.2905 N   0  0  0  0  0  0  0  0  0  0  0  0
   23.6603  -15.0677  -16.9877 C   0  0  0  0  0  0  0  0  0  0  0  0
   23.5439  -16.3066  -16.8696 O   0  0  0  0  0  0  0  0  0  0  0  0
   24.0922  -14.1697  -15.9096 C   0  0  0  0  0  0  0  0  0  0  0  0
   24.1735  -12.7192  -16.2456 C   0  0  0  0  0  0  0  0  0  0  0  0
   23.1301  -11.9322  -15.5444 C   0  0  2  0  0  0  0  0  0  0  0  0
   21.8386  -12.5453  -15.6884 N   0  0  0  0  0  0  0  0  0  0  0  0
   23.0198  -10.5398  -16.0226 C   0  0  0  0  0  0  0  0  0  0  0  0
   24.0253   -9.9401  -16.5128 O   0  0  0  0  0  0  0  0  0  0  0  0
   19.3021   -9.0227  -17.2391 C   0  0  0  0  0  0  0  0  0  0  0  0
   20.6463   -8.5126  -17.6496 C   0  0  2  0  0  0  0  0  0  0  0  0
   21.1137   -9.4208  -18.7906 C   0  0  0  0  0  0  0  0  0  0  0  0
   21.6686   -8.4951  -16.5338 C   0  0  2  0  0  0  0  0  0  0  0  0
   21.7977   -9.8429  -15.9448 N   0  0  0  0  0  0  0  0  0  0  0  0
   21.3570   -7.4996  -15.4952 C   0  0  0  0  0  0  0  0  0  0  0  0
   20.6753   -7.7476  -14.4694 O   0  0  0  0  0  0  0  0  0  0  0  0
   21.8247   -6.1378  -15.5854 N   0  0  0  0  0  0  0  0  0  0  0  0
   21.4439   -5.1606  -14.5352 C   0  0  1  0  0  0  0  0  0  0  0  0
   22.3216   -3.9478  -14.6271 C   0  0  0  0  0  0  0  0  0  0  0  0
   21.9119   -2.9528  -13.6238 C   0  0  0  0  0  0  0  0  0  0  0  0
   21.3862   -1.8401  -13.9906 O   0  0  0  0  0  0  0  0  0  0  0  0
   20.0623   -4.7789  -14.8940 C   0  0  0  0  0  0  0  0  0  0  0  0
   19.5617   -4.8682  -16.1803 O   0  0  0  0  0  0  0  0  0  0  0  0
   22.0383   -3.0862  -12.2488 O   0  0  0  0  0  0  0  0  0  0  0  0
   19.2922   -4.3534  -14.0152 O   0  0  0  0  0  0  0  0  0  0  0  0
  1  2  1  0
  2  3  2  0
  4  2  1  0
  4  5  1  0
  6  5  1  0
  6  8  1  0
  6  7  1  6
  8  9  2  0
 11 10  1  1
 11 12  1  0
 11 13  1  0
 13 15  1  0
 13 14  1  1
 14  8  1  0
 15 17  1  0
 16 15  2  0
 17 18  1  0
 18 19  1  6
 20 19  1  0
 21 20  2  0
 22 18  1  0
 23 22  1  0
 24 20  1  0
 25 22  2  0
M  END
$$$$
