QVD.pdb
     RDKit          3D

 25 24  0  0  1  0  0  0  0  0999 V2000
   19.3318  -12.7346  -20.9697 N   0  0  0  0  0  0  0  0  0  0  0  0
   20.2416  -13.8457  -21.0880 C   0  0  0  0  0  0  0  0  0  0  0  0
   19.8135  -14.8059  -21.7641 O   0  0  0  0  0  0  0  0  0  0  0  0
   21.5589  -13.8103  -20.4410 C   0  0  0  0  0  0  0  0  0  0  0  0
   21.9433  -12.5269  -19.7862 C   0  0  0  0  0  0  0  0  0  0  0  0
   22.5914  -12.7522  -18.4713 C   0  0  2  0  0  0  0  0  0  0  0  0
   22.5825  -14.1466  -18.1246 N   0  0  0  0  0  0  0  0  0  0  0  0
   21.9535  -12.0123  -17.3643 C   0  0  0  0  0  0  0  0  0  0  0  0
   20.9369  -12.4843  -16.7688 O   0  0  0  0  0  0  0  0  0  0  0  0
   24.0695   -9.6148  -14.7302 C   0  0  0  0  0  0  0  0  0  0  0  0
   22.6943  -10.1810  -14.5766 C   0  0  2  0  0  0  0  0  0  0  0  0
   22.8819  -11.6549  -14.2057 C   0  0  0  0  0  0  0  0  0  0  0  0
   21.8303  -10.0516  -15.8124 C   0  0  2  0  0  0  0  0  0  0  0  0
   22.4559  -10.7648  -16.9439 N   0  0  0  0  0  0  0  0  0  0  0  0
   21.5552   -8.6498  -16.1674 C   0  0  0  0  0  0  0  0  0  0  0  0
   22.3641   -7.9115  -16.7831 O   0  0  0  0  0  0  0  0  0  0  0  0
   20.3072   -8.0118  -15.8252 N   0  0  0  0  0  0  0  0  0  0  0  0
   20.1079   -6.5751  -16.1395 C   0  0  1  0  0  0  0  0  0  0  0  0
   19.1215   -6.4321  -17.2604 C   0  0  0  0  0  0  0  0  0  0  0  0
   18.9094   -5.0085  -17.5656 C   0  0  0  0  0  0  0  0  0  0  0  0
   17.8524   -4.4072  -17.1536 O   0  0  0  0  0  0  0  0  0  0  0  0
   19.5114   -6.0242  -14.9050 C   0  0  0  0  0  0  0  0  0  0  0  0
   19.4223   -4.6683  -14.6467 O   0  0  0  0  0  0  0  0  0  0  0  0
   19.7688   -4.1966  -18.2913 O   0  0  0  0  0  0  0  0  0  0  0  0
   19.0606   -6.7959  -14.0404 O   0  0  0  0  0  0  0  0  0  0  0  0
  1  2  1  0
  2  3  2  0
  4  2  1  0
  4  5  1  0
  6  5  1  0
  6  8  1  0
  6  7  1  1
  8  9  2  0
 11 10  1  6
 11 12  1  0
 11 13  1  0
 13 15  1  0
 13 14  1  6
 14  8  1  0
 15 17  1  0
 16 15  2  0
 17 18  1  0
 18 19  1  6
 20 19  1  0
 21 20  2  0
 22 18  1  0
 23 22  1  0
 24 20  1  0
 25 22  2  0
M  END
$$$$
