QVD.pdb
     RDKit          3D

 25 24  0  0  1  0  0  0  0  0999 V2000
   15.7561   -9.6542  -18.7626 N   0  0  0  0  0  0  0  0  0  0  0  0
   16.8660  -10.2235  -19.4840 C   0  0  0  0  0  0  0  0  0  0  0  0
   16.7641  -10.1750  -20.7288 O   0  0  0  0  0  0  0  0  0  0  0  0
   18.0055  -10.8103  -18.7683 C   0  0  0  0  0  0  0  0  0  0  0  0
   17.9519  -10.7602  -17.2789 C   0  0  0  0  0  0  0  0  0  0  0  0
   19.1209  -11.4338  -16.6629 C   0  0  2  0  0  0  0  0  0  0  0  0
   18.7211  -12.6257  -15.9672 N   0  0  0  0  0  0  0  0  0  0  0  0
   19.8559  -10.5830  -15.7061 C   0  0  0  0  0  0  0  0  0  0  0  0
   19.3482  -10.2813  -14.5826 O   0  0  0  0  0  0  0  0  0  0  0  0
   24.0324   -9.6768  -16.2572 C   0  0  0  0  0  0  0  0  0  0  0  0
   23.3030   -9.6681  -14.9521 C   0  0  2  0  0  0  0  0  0  0  0  0
   23.3921  -11.0966  -14.4075 C   0  0  0  0  0  0  0  0  0  0  0  0
   21.8582   -9.2291  -15.0537 C   0  0  2  0  0  0  0  0  0  0  0  0
   21.1363  -10.0840  -16.0172 N   0  0  0  0  0  0  0  0  0  0  0  0
   21.7215   -7.8081  -15.4127 C   0  0  0  0  0  0  0  0  0  0  0  0
   21.9884   -7.3441  -16.5493 O   0  0  0  0  0  0  0  0  0  0  0  0
   21.2599   -6.8267  -14.4613 N   0  0  0  0  0  0  0  0  0  0  0  0
   21.2259   -5.3933  -14.8446 C   0  0  1  0  0  0  0  0  0  0  0  0
   19.9529   -4.7670  -14.3576 C   0  0  0  0  0  0  0  0  0  0  0  0
   18.8174   -5.2436  -15.1628 C   0  0  0  0  0  0  0  0  0  0  0  0
   18.9257   -5.3504  -16.4378 O   0  0  0  0  0  0  0  0  0  0  0  0
   22.3616   -4.8041  -14.1054 C   0  0  0  0  0  0  0  0  0  0  0  0
   23.0807   -5.4943  -13.1464 O   0  0  0  0  0  0  0  0  0  0  0  0
   17.5717   -5.6089  -14.6739 O   0  0  0  0  0  0  0  0  0  0  0  0
   22.7074   -3.6326  -14.3380 O   0  0  0  0  0  0  0  0  0  0  0  0
  1  2  1  0
  2  3  2  0
  4  2  1  0
  4  5  1  0
  6  5  1  0
  6  8  1  0
  6  7  1  1
  8  9  2  0
 11 10  1  6
 11 12  1  0
 11 13  1  0
 13 15  1  0
 13 14  1  6
 14  8  1  0
 15 17  1  0
 16 15  2  0
 17 18  1  0
 18 19  1  1
 20 19  1  0
 21 20  2  0
 22 18  1  0
 23 22  1  0
 24 20  1  0
 25 22  2  0
M  END
$$$$
