WWH.pdb
     RDKit          3D

 39 43  0  0  1  0  0  0  0  0999 V2000
   26.5887  -18.6650   -9.0402 N   0  0  0  0  0  0  0  0  0  0  0  0
   26.7840  -19.9364   -9.6698 C   0  0  1  0  0  0  0  0  0  0  0  0
   27.0327  -21.0700   -8.7083 C   0  0  0  0  0  0  0  0  0  0  0  0
   28.1350  -20.8202   -7.7586 C   0  0  0  0  0  0  0  0  0  0  0  0
   29.4857  -20.9746   -7.9938 C   0  0  0  0  0  0  0  0  0  0  0  0
   30.1659  -20.6746   -6.8828 N   0  0  0  0  0  0  0  0  0  0  0  0
   29.2944  -20.3251   -5.9194 C   0  0  0  0  0  0  0  0  0  0  0  0
   29.4384  -19.9246   -4.6110 C   0  0  0  0  0  0  0  0  0  0  0  0
   28.3256  -19.6113   -3.8392 C   0  0  0  0  0  0  0  0  0  0  0  0
   27.0568  -19.6954   -4.3696 C   0  0  0  0  0  0  0  0  0  0  0  0
   26.9186  -20.1034   -5.7002 C   0  0  0  0  0  0  0  0  0  0  0  0
   28.0082  -20.4129   -6.4615 C   0  0  0  0  0  0  0  0  0  0  0  0
   25.7367  -20.2464  -10.6771 C   0  0  0  0  0  0  0  0  0  0  0  0
   24.5282  -19.8589  -10.5078 O   0  0  0  0  0  0  0  0  0  0  0  0
   26.1169  -20.9810  -11.8308 N   0  0  0  0  0  0  0  0  0  0  0  0
   25.2921  -20.9931  -13.0026 C   0  0  1  0  0  0  0  0  0  0  0  0
   26.0798  -21.2964  -14.2609 C   0  0  0  0  0  0  0  0  0  0  0  0
   27.1207  -20.2986  -14.5357 C   0  0  0  0  0  0  0  0  0  0  0  0
   28.4646  -20.4669  -14.3297 C   0  0  0  0  0  0  0  0  0  0  0  0
   29.0661  -19.3072  -14.7135 N   0  0  0  0  0  0  0  0  0  0  0  0
   28.1496  -18.4280  -15.1486 C   0  0  0  0  0  0  0  0  0  0  0  0
   28.1853  -17.1337  -15.6440 C   0  0  0  0  0  0  0  0  0  0  0  0
   27.0743  -16.4410  -16.0280 C   0  0  0  0  0  0  0  0  0  0  0  0
   25.8386  -17.0516  -15.9224 C   0  0  0  0  0  0  0  0  0  0  0  0
   25.7791  -18.3416  -15.4312 C   0  0  0  0  0  0  0  0  0  0  0  0
   26.9223  -19.0401  -15.0416 C   0  0  0  0  0  0  0  0  0  0  0  0
   24.2190  -22.0189  -12.9302 C   0  0  0  0  0  0  0  0  0  0  0  0
   24.2547  -22.8813  -12.0192 O   0  0  0  0  0  0  0  0  0  0  0  0
   23.1510  -22.0677  -13.8486 N   0  0  0  0  0  0  0  0  0  0  0  0
   21.7658  -21.8933  -13.3552 C   0  0  1  0  0  0  0  0  0  0  0  0
   21.6732  -20.5431  -12.7035 C   0  0  0  0  0  0  0  0  0  0  0  0
   20.3418  -20.3135  -12.1198 C   0  0  0  0  0  0  0  0  0  0  0  0
   19.3124  -21.2463  -12.2161 C   0  0  0  0  0  0  0  0  0  0  0  0
   18.2521  -20.7187  -11.5831 N   0  0  0  0  0  0  0  0  0  0  0  0
   18.5444  -19.5146  -11.0939 C   0  0  0  0  0  0  0  0  0  0  0  0
   19.8174  -19.2907  -11.4320 N   0  0  0  0  0  0  0  0  0  0  0  0
   20.8752  -21.9775  -14.5608 C   0  0  0  0  0  0  0  0  0  0  0  0
   19.8639  -22.7050  -14.4909 O   0  0  0  0  0  0  0  0  0  0  0  0
   21.1475  -21.2829  -15.7115 O   0  0  0  0  0  0  0  0  0  0  0  0
  2  1  1  1
  2  3  1  0
  3  4  1  0
  4  5  2  0
  5  6  1  0
  7  6  1  0
  8  7  2  0
  9  8  1  0
 10 11  1  0
 10  9  2  0
 11 12  2  0
 12  4  1  0
 12  7  1  0
 13  2  1  0
 14 13  2  0
 15 13  1  0
 16 15  1  0
 16 17  1  6
 18 26  1  0
 18 17  1  0
 19 18  2  0
 20 19  1  0
 20 21  1  0
 21 22  1  0
 21 26  2  0
 22 23  2  0
 23 24  1  0
 25 24  2  0
 26 25  1  0
 27 16  1  0
 28 27  2  0
 29 27  1  0
 30 29  1  0
 30 31  1  6
 32 31  1  0
 32 36  1  0
 33 34  1  0
 33 32  2  0
 34 35  1  0
 35 36  2  0
 37 30  1  0
 37 39  1  0
 38 37  2  0
M  END
$$$$
