WWH.pdb
     RDKit          3D

 39 43  0  0  1  0  0  0  0  0999 V2000
   27.2078  -21.6361  -14.4149 N   0  0  0  0  0  0  0  0  0  0  0  0
   26.9299  -20.6589  -13.4055 C   0  0  1  0  0  0  0  0  0  0  0  0
   26.2033  -19.4388  -13.9103 C   0  0  0  0  0  0  0  0  0  0  0  0
   26.8145  -18.8294  -15.1080 C   0  0  0  0  0  0  0  0  0  0  0  0
   26.1660  -18.4188  -16.2545 C   0  0  0  0  0  0  0  0  0  0  0  0
   27.0624  -17.9413  -17.1237 N   0  0  0  0  0  0  0  0  0  0  0  0
   28.2884  -18.0269  -16.5763 C   0  0  0  0  0  0  0  0  0  0  0  0
   29.5470  -17.6829  -17.0124 C   0  0  0  0  0  0  0  0  0  0  0  0
   30.6580  -17.8861  -16.2019 C   0  0  0  0  0  0  0  0  0  0  0  0
   30.5201  -18.4357  -14.9461 C   0  0  0  0  0  0  0  0  0  0  0  0
   29.2374  -18.7829  -14.5100 C   0  0  0  0  0  0  0  0  0  0  0  0
   28.1439  -18.5862  -15.3026 C   0  0  0  0  0  0  0  0  0  0  0  0
   26.3068  -21.2470  -12.1915 C   0  0  0  0  0  0  0  0  0  0  0  0
   25.6461  -22.3416  -12.2579 O   0  0  0  0  0  0  0  0  0  0  0  0
   26.4685  -20.5611  -10.9593 N   0  0  0  0  0  0  0  0  0  0  0  0
   25.6992  -20.9244   -9.8062 C   0  0  1  0  0  0  0  0  0  0  0  0
   26.1248  -20.1667   -8.5650 C   0  0  0  0  0  0  0  0  0  0  0  0
   27.4900  -20.4951   -8.1374 C   0  0  0  0  0  0  0  0  0  0  0  0
   28.4193  -21.1748   -8.8799 C   0  0  0  0  0  0  0  0  0  0  0  0
   29.5421  -21.2617   -8.1146 N   0  0  0  0  0  0  0  0  0  0  0  0
   29.3460  -20.6635   -6.9288 C   0  0  0  0  0  0  0  0  0  0  0  0
   30.1142  -20.4527   -5.7942 C   0  0  0  0  0  0  0  0  0  0  0  0
   29.6630  -19.7932   -4.6884 C   0  0  0  0  0  0  0  0  0  0  0  0
   28.3705  -19.3028   -4.6859 C   0  0  0  0  0  0  0  0  0  0  0  0
   27.5866  -19.5013   -5.8061 C   0  0  0  0  0  0  0  0  0  0  0  0
   28.0590  -20.1776   -6.9313 C   0  0  0  0  0  0  0  0  0  0  0  0
   24.2495  -20.6479   -9.9816 C   0  0  0  0  0  0  0  0  0  0  0  0
   23.8898  -19.5640  -10.5018 O   0  0  0  0  0  0  0  0  0  0  0  0
   23.2489  -21.5582   -9.5858 N   0  0  0  0  0  0  0  0  0  0  0  0
   21.8576  -21.3476  -10.0472 C   0  0  1  0  0  0  0  0  0  0  0  0
   21.6601  -22.1487  -11.3024 C   0  0  0  0  0  0  0  0  0  0  0  0
   20.3078  -21.9665  -11.8540 C   0  0  0  0  0  0  0  0  0  0  0  0
   19.5773  -20.7952  -11.6709 C   0  0  0  0  0  0  0  0  0  0  0  0
   18.4025  -20.9704  -12.2975 N   0  0  0  0  0  0  0  0  0  0  0  0
   18.3435  -22.1747  -12.8638 C   0  0  0  0  0  0  0  0  0  0  0  0
   19.5107  -22.7603  -12.5811 N   0  0  0  0  0  0  0  0  0  0  0  0
   20.9682  -21.8396   -8.9423 C   0  0  0  0  0  0  0  0  0  0  0  0
   21.4363  -22.6764   -8.1438 O   0  0  0  0  0  0  0  0  0  0  0  0
   19.6793  -21.3939   -8.7981 O   0  0  0  0  0  0  0  0  0  0  0  0
  2  1  1  6
  2  3  1  0
  3  4  1  0
  4  5  2  0
  5  6  1  0
  7  6  1  0
  8  7  2  0
  9  8  1  0
 10 11  1  0
 10  9  2  0
 11 12  2  0
 12  4  1  0
 12  7  1  0
 13  2  1  0
 14 13  2  0
 15 13  1  0
 16 15  1  0
 16 17  1  1
 18 26  1  0
 18 17  1  0
 19 18  2  0
 20 19  1  0
 20 21  1  0
 21 22  1  0
 21 26  2  0
 22 23  2  0
 23 24  1  0
 25 24  2  0
 26 25  1  0
 27 16  1  0
 28 27  2  0
 29 27  1  0
 30 29  1  0
 30 31  1  6
 32 31  1  0
 32 36  1  0
 33 34  1  0
 33 32  2  0
 34 35  1  0
 35 36  2  0
 37 30  1  0
 37 39  1  0
 38 37  2  0
M  END
$$$$
