WWH.pdb
     RDKit          3D

 39 43  0  0  1  0  0  0  0  0999 V2000
   27.2203  -21.5265  -13.2388 N   0  0  0  0  0  0  0  0  0  0  0  0
   26.2316  -20.6422  -12.6988 C   0  0  1  0  0  0  0  0  0  0  0  0
   25.3406  -20.0059  -13.7345 C   0  0  0  0  0  0  0  0  0  0  0  0
   25.9327  -18.8232  -14.3902 C   0  0  0  0  0  0  0  0  0  0  0  0
   25.3139  -17.6163  -14.6434 C   0  0  0  0  0  0  0  0  0  0  0  0
   26.1680  -16.8044  -15.2746 N   0  0  0  0  0  0  0  0  0  0  0  0
   27.3372  -17.4482  -15.4432 C   0  0  0  0  0  0  0  0  0  0  0  0
   28.5398  -17.0958  -16.0111 C   0  0  0  0  0  0  0  0  0  0  0  0
   29.6026  -17.9914  -16.0330 C   0  0  0  0  0  0  0  0  0  0  0  0
   29.4725  -19.2492  -15.4861 C   0  0  0  0  0  0  0  0  0  0  0  0
   28.2469  -19.6001  -14.9109 C   0  0  0  0  0  0  0  0  0  0  0  0
   27.2004  -18.7244  -14.8880 C   0  0  0  0  0  0  0  0  0  0  0  0
   25.4751  -21.2450  -11.5709 C   0  0  0  0  0  0  0  0  0  0  0  0
   25.1913  -22.4934  -11.5642 O   0  0  0  0  0  0  0  0  0  0  0  0
   25.0805  -20.3970  -10.5032 N   0  0  0  0  0  0  0  0  0  0  0  0
   24.4204  -20.9258   -9.3464 C   0  0  1  0  0  0  0  0  0  0  0  0
   24.6536  -20.0806   -8.1107 C   0  0  0  0  0  0  0  0  0  0  0  0
   26.0768  -19.9254   -7.7870 C   0  0  0  0  0  0  0  0  0  0  0  0
   27.0258  -19.3642   -8.6005 C   0  0  0  0  0  0  0  0  0  0  0  0
   28.2040  -19.4185   -7.9202 N   0  0  0  0  0  0  0  0  0  0  0  0
   28.0233  -19.9903   -6.7190 C   0  0  0  0  0  0  0  0  0  0  0  0
   28.8410  -20.2965   -5.6422 C   0  0  0  0  0  0  0  0  0  0  0  0
   28.3943  -20.8971   -4.5015 C   0  0  0  0  0  0  0  0  0  0  0  0
   27.0549  -21.2237   -4.4007 C   0  0  0  0  0  0  0  0  0  0  0  0
   26.2213  -20.9278   -5.4620 C   0  0  0  0  0  0  0  0  0  0  0  0
   26.6895  -20.3134   -6.6238 C   0  0  0  0  0  0  0  0  0  0  0  0
   22.9465  -21.0040   -9.5208 C   0  0  0  0  0  0  0  0  0  0  0  0
   22.3633  -20.1348  -10.2131 O   0  0  0  0  0  0  0  0  0  0  0  0
   22.1651  -22.0215   -8.9373 N   0  0  0  0  0  0  0  0  0  0  0  0
   20.7195  -22.0915   -9.2508 C   0  0  1  0  0  0  0  0  0  0  0  0
   20.2655  -23.5058   -9.0274 C   0  0  0  0  0  0  0  0  0  0  0  0
   20.5927  -24.3674  -10.1749 C   0  0  0  0  0  0  0  0  0  0  0  0
   20.6816  -23.8782  -11.4756 C   0  0  0  0  0  0  0  0  0  0  0  0
   20.9912  -24.9224  -12.2611 N   0  0  0  0  0  0  0  0  0  0  0  0
   21.1035  -26.0382  -11.5419 C   0  0  0  0  0  0  0  0  0  0  0  0
   20.8574  -25.6762  -10.2796 N   0  0  0  0  0  0  0  0  0  0  0  0
   20.0371  -21.1454   -8.3058 C   0  0  0  0  0  0  0  0  0  0  0  0
   20.5683  -20.9443   -7.1949 O   0  0  0  0  0  0  0  0  0  0  0  0
   18.8666  -20.5116   -8.6361 O   0  0  0  0  0  0  0  0  0  0  0  0
  2  1  1  6
  2  3  1  0
  3  4  1  0
  4  5  2  0
  5  6  1  0
  7  6  1  0
  8  7  2  0
  9  8  1  0
 10 11  1  0
 10  9  2  0
 11 12  2  0
 12  4  1  0
 12  7  1  0
 13  2  1  0
 14 13  2  0
 15 13  1  0
 16 15  1  0
 16 17  1  1
 18 26  1  0
 18 17  1  0
 19 18  2  0
 20 19  1  0
 20 21  1  0
 21 22  1  0
 21 26  2  0
 22 23  2  0
 23 24  1  0
 25 24  2  0
 26 25  1  0
 27 16  1  0
 28 27  2  0
 29 27  1  0
 30 29  1  0
 30 31  1  1
 32 31  1  0
 32 36  1  0
 33 34  1  0
 33 32  2  0
 34 35  1  0
 35 36  2  0
 37 30  1  0
 37 39  1  0
 38 37  2  0
M  END
$$$$
