WWH.pdb
     RDKit          3D

 39 43  0  0  1  0  0  0  0  0999 V2000
   28.2024  -22.4172  -16.7261 N   0  0  0  0  0  0  0  0  0  0  0  0
   27.1237  -21.5564  -16.3432 C   0  0  1  0  0  0  0  0  0  0  0  0
   26.0831  -21.3561  -17.4148 C   0  0  0  0  0  0  0  0  0  0  0  0
   26.6124  -20.7731  -18.6635 C   0  0  0  0  0  0  0  0  0  0  0  0
   26.9107  -21.4427  -19.8323 C   0  0  0  0  0  0  0  0  0  0  0  0
   27.3911  -20.5757  -20.7294 N   0  0  0  0  0  0  0  0  0  0  0  0
   27.4161  -19.3484  -20.1790 C   0  0  0  0  0  0  0  0  0  0  0  0
   27.8000  -18.1104  -20.6404 C   0  0  0  0  0  0  0  0  0  0  0  0
   27.7024  -16.9887  -19.8253 C   0  0  0  0  0  0  0  0  0  0  0  0
   27.2191  -17.0948  -18.5395 C   0  0  0  0  0  0  0  0  0  0  0  0
   26.8310  -18.3566  -18.0776 C   0  0  0  0  0  0  0  0  0  0  0  0
   26.9259  -19.4609  -18.8740 C   0  0  0  0  0  0  0  0  0  0  0  0
   26.5404  -21.9167  -15.0250 C   0  0  0  0  0  0  0  0  0  0  0  0
   26.1689  -23.1168  -14.7779 O   0  0  0  0  0  0  0  0  0  0  0  0
   26.4105  -20.8929  -14.0503 N   0  0  0  0  0  0  0  0  0  0  0  0
   25.7621  -21.1450  -12.7975 C   0  0  1  0  0  0  0  0  0  0  0  0
   26.2267  -20.2023  -11.7061 C   0  0  0  0  0  0  0  0  0  0  0  0
   27.3904  -20.7117  -10.9707 C   0  0  0  0  0  0  0  0  0  0  0  0
   28.5094  -21.2694  -11.5309 C   0  0  0  0  0  0  0  0  0  0  0  0
   29.3357  -21.6034  -10.5015 N   0  0  0  0  0  0  0  0  0  0  0  0
   28.7740  -21.2753   -9.3270 C   0  0  0  0  0  0  0  0  0  0  0  0
   29.1461  -21.3785   -7.9956 C   0  0  0  0  0  0  0  0  0  0  0  0
   28.3671  -20.9551   -6.9586 C   0  0  0  0  0  0  0  0  0  0  0  0
   27.1366  -20.3900   -7.2368 C   0  0  0  0  0  0  0  0  0  0  0  0
   26.7451  -20.2769   -8.5570 C   0  0  0  0  0  0  0  0  0  0  0  0
   27.5504  -20.7137   -9.6092 C   0  0  0  0  0  0  0  0  0  0  0  0
   24.2868  -20.9854  -12.8803 C   0  0  0  0  0  0  0  0  0  0  0  0
   23.8095  -19.9902  -13.4775 O   0  0  0  0  0  0  0  0  0  0  0  0
   23.3891  -21.9116  -12.3120 N   0  0  0  0  0  0  0  0  0  0  0  0
   21.9325  -21.6810  -12.4460 C   0  0  1  0  0  0  0  0  0  0  0  0
   21.2239  -22.9308  -12.0075 C   0  0  0  0  0  0  0  0  0  0  0  0
   19.7618  -22.7733  -12.0662 C   0  0  0  0  0  0  0  0  0  0  0  0
   18.9846  -22.5785  -10.9274 C   0  0  0  0  0  0  0  0  0  0  0  0
   17.7110  -22.4775  -11.3411 N   0  0  0  0  0  0  0  0  0  0  0  0
   17.6333  -22.5958  -12.6657 C   0  0  0  0  0  0  0  0  0  0  0  0
   18.8899  -22.7744  -13.0830 N   0  0  0  0  0  0  0  0  0  0  0  0
   21.6042  -20.5253  -11.5459 C   0  0  0  0  0  0  0  0  0  0  0  0
   22.3750  -20.2886  -10.5936 O   0  0  0  0  0  0  0  0  0  0  0  0
   20.4971  -19.7418  -11.7487 O   0  0  0  0  0  0  0  0  0  0  0  0
  2  1  1  6
  2  3  1  0
  3  4  1  0
  4  5  2  0
  5  6  1  0
  7  6  1  0
  8  7  2  0
  9  8  1  0
 10 11  1  0
 10  9  2  0
 11 12  2  0
 12  4  1  0
 12  7  1  0
 13  2  1  0
 14 13  2  0
 15 13  1  0
 16 15  1  0
 16 17  1  1
 18 26  1  0
 18 17  1  0
 19 18  2  0
 20 19  1  0
 20 21  1  0
 21 22  1  0
 21 26  2  0
 22 23  2  0
 23 24  1  0
 25 24  2  0
 26 25  1  0
 27 16  1  0
 28 27  2  0
 29 27  1  0
 30 29  1  0
 30 31  1  1
 32 31  1  0
 32 36  1  0
 33 34  1  0
 33 32  2  0
 34 35  1  0
 35 36  2  0
 37 30  1  0
 37 39  1  0
 38 37  2  0
M  END
$$$$
