WWH.pdb
     RDKit          3D

 39 43  0  0  1  0  0  0  0  0999 V2000
   26.9398  -20.0735  -18.9242 N   0  0  0  0  0  0  0  0  0  0  0  0
   26.4355  -19.3204  -17.8153 C   0  0  1  0  0  0  0  0  0  0  0  0
   25.0890  -18.6888  -18.0588 C   0  0  0  0  0  0  0  0  0  0  0  0
   25.0171  -17.8882  -19.2971 C   0  0  0  0  0  0  0  0  0  0  0  0
   25.7475  -16.7575  -19.5993 C   0  0  0  0  0  0  0  0  0  0  0  0
   25.3830  -16.3031  -20.8025 N   0  0  0  0  0  0  0  0  0  0  0  0
   24.4285  -17.1090  -21.3018 C   0  0  0  0  0  0  0  0  0  0  0  0
   23.7156  -17.1178  -22.4784 C   0  0  0  0  0  0  0  0  0  0  0  0
   22.7736  -18.1088  -22.7288 C   0  0  0  0  0  0  0  0  0  0  0  0
   22.5357  -19.1017  -21.8038 C   0  0  0  0  0  0  0  0  0  0  0  0
   23.2643  -19.0859  -20.6100 C   0  0  0  0  0  0  0  0  0  0  0  0
   24.1895  -18.1144  -20.3594 C   0  0  0  0  0  0  0  0  0  0  0  0
   26.5046  -20.0682  -16.5331 C   0  0  0  0  0  0  0  0  0  0  0  0
   26.0416  -21.2584  -16.4419 O   0  0  0  0  0  0  0  0  0  0  0  0
   27.1005  -19.4250  -15.4167 N   0  0  0  0  0  0  0  0  0  0  0  0
   26.9632  -19.9629  -14.0956 C   0  0  1  0  0  0  0  0  0  0  0  0
   27.7486  -19.1757  -13.0664 C   0  0  0  0  0  0  0  0  0  0  0  0
   27.6623  -19.7537  -11.7199 C   0  0  0  0  0  0  0  0  0  0  0  0
   26.6404  -19.5572  -10.8288 C   0  0  0  0  0  0  0  0  0  0  0  0
   26.9549  -20.2691   -9.7116 N   0  0  0  0  0  0  0  0  0  0  0  0
   28.1297  -20.8982   -9.8746 C   0  0  0  0  0  0  0  0  0  0  0  0
   28.9143  -21.7344   -9.0954 C   0  0  0  0  0  0  0  0  0  0  0  0
   30.1051  -22.2556   -9.5100 C   0  0  0  0  0  0  0  0  0  0  0  0
   30.5663  -21.9406  -10.7745 C   0  0  0  0  0  0  0  0  0  0  0  0
   29.8006  -21.1088  -11.5686 C   0  0  0  0  0  0  0  0  0  0  0  0
   28.5843  -20.5817  -11.1337 C   0  0  0  0  0  0  0  0  0  0  0  0
   25.5528  -19.9627  -13.6269 C   0  0  0  0  0  0  0  0  0  0  0  0
   24.8050  -19.0017  -13.9309 O   0  0  0  0  0  0  0  0  0  0  0  0
   25.0107  -21.0045  -12.8478 N   0  0  0  0  0  0  0  0  0  0  0  0
   23.5730  -21.3333  -12.9813 C   0  0  1  0  0  0  0  0  0  0  0  0
   23.4527  -22.5210  -13.8931 C   0  0  0  0  0  0  0  0  0  0  0  0
   22.0488  -22.9232  -14.0762 C   0  0  0  0  0  0  0  0  0  0  0  0
   20.9988  -22.2974  -13.4092 C   0  0  0  0  0  0  0  0  0  0  0  0
   19.8705  -22.9091  -13.8043 N   0  0  0  0  0  0  0  0  0  0  0  0
   20.1393  -23.8795  -14.6765 C   0  0  0  0  0  0  0  0  0  0  0  0
   21.4669  -23.8687  -14.8255 N   0  0  0  0  0  0  0  0  0  0  0  0
   23.0845  -21.6569  -11.5991 C   0  0  0  0  0  0  0  0  0  0  0  0
   23.8662  -22.2471  -10.8261 O   0  0  0  0  0  0  0  0  0  0  0  0
   21.8225  -21.3210  -11.1805 O   0  0  0  0  0  0  0  0  0  0  0  0
  2  1  1  6
  2  3  1  0
  3  4  1  0
  4  5  2  0
  5  6  1  0
  7  6  1  0
  8  7  2  0
  9  8  1  0
 10 11  1  0
 10  9  2  0
 11 12  2  0
 12  4  1  0
 12  7  1  0
 13  2  1  0
 14 13  2  0
 15 13  1  0
 16 15  1  0
 16 17  1  1
 18 26  1  0
 18 17  1  0
 19 18  2  0
 20 19  1  0
 20 21  1  0
 21 22  1  0
 21 26  2  0
 22 23  2  0
 23 24  1  0
 25 24  2  0
 26 25  1  0
 27 16  1  0
 28 27  2  0
 29 27  1  0
 30 29  1  0
 30 31  1  6
 32 31  1  0
 32 36  1  0
 33 34  1  0
 33 32  2  0
 34 35  1  0
 35 36  2  0
 37 30  1  0
 37 39  1  0
 38 37  2  0
M  END
$$$$
