RYD.pdb
     RDKit          3D

 32 32  0  0  1  0  0  0  0  0999 V2000
    8.7744  -13.0105   17.0844 N   0  0  0  0  0  0  0  0  0  0  0  0
    8.2985  -13.6751   15.9323 C   0  0  0  0  0  0  0  0  0  0  0  0
    8.3134  -13.0952   14.7940 N   0  0  0  0  0  0  0  0  0  0  0  0
    7.7898  -15.0120   16.0199 N   0  0  0  0  0  0  0  0  0  0  0  0
    7.8120  -15.7483   17.2664 C   0  0  0  0  0  0  0  0  0  0  0  0
    9.1355  -16.4966   17.3370 C   0  0  0  0  0  0  0  0  0  0  0  0
    9.9010  -16.1370   18.5821 C   0  0  0  0  0  0  0  0  0  0  0  0
    9.4625  -16.8655   19.8056 C   0  0  2  0  0  0  0  0  0  0  0  0
    8.0892  -17.3192   19.5477 N   0  0  0  0  0  0  0  0  0  0  0  0
    9.5341  -16.0881   21.0536 C   0  0  0  0  0  0  0  0  0  0  0  0
   10.5573  -15.5866   21.5324 O   0  0  0  0  0  0  0  0  0  0  0  0
    8.0044  -13.5279   13.9095 O   0  0  0  0  0  0  0  0  0  0  0  0
    6.7620  -11.7933   28.2728 C   0  0  0  0  0  0  0  0  0  0  0  0
    6.8531  -12.3965   27.0189 C   0  0  0  0  0  0  0  0  0  0  0  0
    6.2122  -13.5995   26.7502 C   0  0  0  0  0  0  0  0  0  0  0  0
    6.3184  -14.1775   25.4973 C   0  0  0  0  0  0  0  0  0  0  0  0
    7.0501  -13.5859   24.4993 C   0  0  0  0  0  0  0  0  0  0  0  0
    7.1466  -14.2196   23.1784 C   0  0  1  0  0  0  0  0  0  0  0  0
    8.2835  -15.1818   23.0385 N   0  0  0  0  0  0  0  0  0  0  0  0
    8.3281  -15.8803   21.7960 C   0  0  0  0  0  0  0  0  0  0  0  0
    8.3881  -16.1361   24.1577 O   0  0  0  0  0  0  0  0  0  0  0  0
    7.5408  -17.0318   24.4135 C   0  0  0  0  0  0  0  0  0  0  0  0
    7.6879  -12.4016   24.7448 C   0  0  0  0  0  0  0  0  0  0  0  0
    7.5834  -11.8240   25.9925 N   0  0  0  0  0  0  0  0  0  0  0  0
    9.5102  -16.0779   25.0377 C   0  0  1  0  0  0  0  0  0  0  0  0
    9.8621  -17.1382   25.9477 C   0  0  0  0  0  0  0  0  0  0  0  0
    9.8471  -18.5017   25.3430 C   0  0  0  0  0  0  0  0  0  0  0  0
   10.2822  -19.5858   26.2417 O   0  0  0  0  0  0  0  0  0  0  0  0
   10.1177  -19.4626   27.4758 C   0  0  0  0  0  0  0  0  0  0  0  0
   11.0991  -16.8748   26.6905 O   0  0  0  0  0  0  0  0  0  0  0  0
   11.4756  -17.6772   27.7483 O   0  0  0  0  0  0  0  0  0  0  0  0
   10.8708  -20.7459   25.7743 O   0  0  0  0  0  0  0  0  0  0  0  0
  2  3  2  0
  2  1  1  0
  4  2  1  0
  5  4  1  0
  6  5  1  0
  7  8  1  0
  7  6  1  0
  8  9  1  6
 10  8  1  0
 10 11  2  0
 12 13  1  0
 13 23  2  0
 13 14  1  0
 14 15  2  0
 15 16  1  0
 16 17  1  0
 18 17  1  6
 18 19  1  0
 19 10  1  0
 20 18  1  0
 21 20  2  0
 22 16  2  0
 23 22  1  0
 24 20  1  0
 25 24  1  0
 25 29  1  0
 25 26  1  1
 27 26  1  0
 27 28  2  0
 29 30  1  0
 31 27  1  0
 32 29  2  0
M  END
$$$$
