RYD.pdb
     RDKit          3D

 32 32  0  0  1  0  0  0  0  0999 V2000
    8.2191  -12.3289   16.5516 N   0  0  0  0  0  0  0  0  0  0  0  0
    7.8669  -13.6427   16.1703 C   0  0  0  0  0  0  0  0  0  0  0  0
    7.9763  -14.0185   14.9541 N   0  0  0  0  0  0  0  0  0  0  0  0
    7.3799  -14.5776   17.1411 N   0  0  0  0  0  0  0  0  0  0  0  0
    8.1264  -14.8730   18.3460 C   0  0  0  0  0  0  0  0  0  0  0  0
    8.0471  -13.6507   19.2494 C   0  0  0  0  0  0  0  0  0  0  0  0
    7.7041  -14.0370   20.6631 C   0  0  0  0  0  0  0  0  0  0  0  0
    8.3909  -15.2670   21.1484 C   0  0  2  0  0  0  0  0  0  0  0  0
    7.4226  -16.3634   21.0116 N   0  0  0  0  0  0  0  0  0  0  0  0
    8.9084  -15.1906   22.5244 C   0  0  0  0  0  0  0  0  0  0  0  0
    9.7517  -14.3848   22.9334 O   0  0  0  0  0  0  0  0  0  0  0  0
    7.8451  -14.9874   14.6239 O   0  0  0  0  0  0  0  0  0  0  0  0
    6.0215  -10.3319   25.9656 C   0  0  0  0  0  0  0  0  0  0  0  0
    6.4064  -11.6714   25.9229 C   0  0  0  0  0  0  0  0  0  0  0  0
    7.5677  -12.1073   26.5487 C   0  0  0  0  0  0  0  0  0  0  0  0
    7.9275  -13.4424   26.4916 C   0  0  0  0  0  0  0  0  0  0  0  0
    7.1570  -14.3601   25.8239 C   0  0  0  0  0  0  0  0  0  0  0  0
    7.5608  -15.7709   25.7784 C   0  0  2  0  0  0  0  0  0  0  0  0
    8.7246  -16.0499   24.8809 N   0  0  0  0  0  0  0  0  0  0  0  0
    8.4076  -16.1187   23.4922 C   0  0  0  0  0  0  0  0  0  0  0  0
    9.5044  -17.2361   25.2797 O   0  0  0  0  0  0  0  0  0  0  0  0
    9.1200  -18.4260   25.1310 C   0  0  0  0  0  0  0  0  0  0  0  0
    6.0106  -13.9500   25.2018 C   0  0  0  0  0  0  0  0  0  0  0  0
    5.6503  -12.6202   25.2576 N   0  0  0  0  0  0  0  0  0  0  0  0
   10.7891  -17.0724   25.8793 C   0  0  1  0  0  0  0  0  0  0  0  0
   11.5769  -18.1692   26.3818 C   0  0  0  0  0  0  0  0  0  0  0  0
   13.0516  -17.9678   26.2812 C   0  0  0  0  0  0  0  0  0  0  0  0
   13.5563  -17.7363   24.9159 O   0  0  0  0  0  0  0  0  0  0  0  0
   12.9269  -18.2052   23.9416 C   0  0  0  0  0  0  0  0  0  0  0  0
   11.1676  -18.6090   27.7198 O   0  0  0  0  0  0  0  0  0  0  0  0
   11.7557  -19.7054   28.3168 O   0  0  0  0  0  0  0  0  0  0  0  0
   14.7082  -17.0153   24.6629 O   0  0  0  0  0  0  0  0  0  0  0  0
  2  3  2  0
  2  1  1  0
  4  2  1  0
  5  4  1  0
  6  5  1  0
  7  8  1  0
  7  6  1  0
  8  9  1  1
 10  8  1  0
 10 11  2  0
 12 13  1  0
 13 23  2  0
 13 14  1  0
 14 15  2  0
 15 16  1  0
 16 17  1  0
 18 17  1  6
 18 19  1  0
 19 10  1  0
 20 18  1  0
 21 20  2  0
 22 16  2  0
 23 22  1  0
 24 20  1  0
 25 24  1  0
 25 29  1  0
 25 26  1  6
 27 26  1  0
 27 28  2  0
 29 30  1  0
 31 27  1  0
 32 29  2  0
M  END
$$$$
