RYD.pdb
     RDKit          3D

 32 32  0  0  1  0  0  0  0  0999 V2000
    8.9009  -16.4202   13.5220 N   0  0  0  0  0  0  0  0  0  0  0  0
    8.1811  -15.4310   14.2283 C   0  0  0  0  0  0  0  0  0  0  0  0
    6.9267  -15.2798   14.0392 N   0  0  0  0  0  0  0  0  0  0  0  0
    8.8455  -14.5788   15.1696 N   0  0  0  0  0  0  0  0  0  0  0  0
    8.1230  -13.5709   15.9169 C   0  0  0  0  0  0  0  0  0  0  0  0
    7.3595  -14.2785   17.0273 C   0  0  0  0  0  0  0  0  0  0  0  0
    7.8145  -13.8145   18.3850 C   0  0  0  0  0  0  0  0  0  0  0  0
    8.3788  -14.8918   19.2458 C   0  0  2  0  0  0  0  0  0  0  0  0
    7.4061  -15.9926   19.2229 N   0  0  0  0  0  0  0  0  0  0  0  0
    8.6854  -14.4893   20.6282 C   0  0  0  0  0  0  0  0  0  0  0  0
    9.5561  -13.6800   20.9667 O   0  0  0  0  0  0  0  0  0  0  0  0
    6.3031  -14.7251   14.6462 O   0  0  0  0  0  0  0  0  0  0  0  0
    7.7504  -12.4212   29.0432 C   0  0  0  0  0  0  0  0  0  0  0  0
    7.5347  -12.8642   27.7388 C   0  0  0  0  0  0  0  0  0  0  0  0
    7.1229  -14.1655   27.4790 C   0  0  0  0  0  0  0  0  0  0  0  0
    6.9156  -14.5804   26.1752 C   0  0  0  0  0  0  0  0  0  0  0  0
    7.1087  -13.7290   25.1172 C   0  0  0  0  0  0  0  0  0  0  0  0
    6.8815  -14.1939   23.7432 C   0  0  2  0  0  0  0  0  0  0  0  0
    8.1030  -14.7265   23.0633 N   0  0  0  0  0  0  0  0  0  0  0  0
    7.9232  -15.0707   21.6911 C   0  0  0  0  0  0  0  0  0  0  0  0
    8.7380  -15.8447   23.7849 O   0  0  0  0  0  0  0  0  0  0  0  0
    8.2425  -16.9972   23.8933 C   0  0  0  0  0  0  0  0  0  0  0  0
    7.5139  -12.4445   25.3530 C   0  0  0  0  0  0  0  0  0  0  0  0
    7.7209  -12.0291   26.6514 N   0  0  0  0  0  0  0  0  0  0  0  0
   10.0019  -15.6534   24.4195 C   0  0  2  0  0  0  0  0  0  0  0  0
   10.7210  -16.7060   25.0911 C   0  0  0  0  0  0  0  0  0  0  0  0
   12.1718  -16.7775   24.7512 C   0  0  0  0  0  0  0  0  0  0  0  0
   12.4797  -17.4496   23.4762 O   0  0  0  0  0  0  0  0  0  0  0  0
   11.5464  -17.9274   22.7936 C   0  0  0  0  0  0  0  0  0  0  0  0
   10.4891  -16.7311   26.5391 O   0  0  0  0  0  0  0  0  0  0  0  0
    9.7707  -15.7295   27.1598 O   0  0  0  0  0  0  0  0  0  0  0  0
   13.7701  -17.5762   22.9968 O   0  0  0  0  0  0  0  0  0  0  0  0
  2  3  2  0
  2  1  1  0
  4  2  1  0
  5  4  1  0
  6  5  1  0
  7  8  1  0
  7  6  1  0
  8  9  1  1
 10  8  1  0
 10 11  2  0
 12 13  1  0
 13 23  2  0
 13 14  1  0
 14 15  2  0
 15 16  1  0
 16 17  1  0
 18 17  1  6
 18 19  1  0
 19 10  1  0
 20 18  1  0
 21 20  2  0
 22 16  2  0
 23 22  1  0
 24 20  1  0
 25 24  1  0
 25 29  1  0
 25 26  1  6
 27 26  1  0
 27 28  2  0
 29 30  1  0
 31 27  1  0
 32 29  2  0
M  END
$$$$
