RYD.pdb
     RDKit          3D

 32 32  0  0  1  0  0  0  0  0999 V2000
    7.6071  -14.7562   15.0708 N   0  0  0  0  0  0  0  0  0  0  0  0
    8.0584  -13.9553   16.1434 C   0  0  0  0  0  0  0  0  0  0  0  0
    8.0016  -12.6810   16.0726 N   0  0  0  0  0  0  0  0  0  0  0  0
    8.5887  -14.5583   17.3303 N   0  0  0  0  0  0  0  0  0  0  0  0
    7.9849  -15.7385   17.9125 C   0  0  0  0  0  0  0  0  0  0  0  0
    7.2120  -15.2997   19.1481 C   0  0  0  0  0  0  0  0  0  0  0  0
    8.1385  -14.7981   20.2230 C   0  0  0  0  0  0  0  0  0  0  0  0
    8.7715  -15.8716   21.0395 C   0  0  2  0  0  0  0  0  0  0  0  0
    7.7163  -16.8543   21.3214 N   0  0  0  0  0  0  0  0  0  0  0  0
    9.4103  -15.4138   22.2843 C   0  0  0  0  0  0  0  0  0  0  0  0
   10.3173  -14.5779   22.3636 O   0  0  0  0  0  0  0  0  0  0  0  0
    8.3095  -12.0363   16.8173 O   0  0  0  0  0  0  0  0  0  0  0  0
   10.8475  -14.7024   30.9998 C   0  0  0  0  0  0  0  0  0  0  0  0
   10.2762  -14.8894   29.7417 C   0  0  0  0  0  0  0  0  0  0  0  0
   10.0186  -13.8140   28.9006 C   0  0  0  0  0  0  0  0  0  0  0  0
    9.4510  -14.0265   27.6566 C   0  0  0  0  0  0  0  0  0  0  0  0
    9.1312  -15.2888   27.2254 C   0  0  0  0  0  0  0  0  0  0  0  0
    8.5300  -15.4873   25.9008 C   0  0  1  0  0  0  0  0  0  0  0  0
    9.5211  -15.6211   24.7882 N   0  0  0  0  0  0  0  0  0  0  0  0
    8.9600  -15.9692   23.5243 C   0  0  0  0  0  0  0  0  0  0  0  0
   10.6450  -16.5209   25.1063 O   0  0  0  0  0  0  0  0  0  0  0  0
   11.4371  -16.3599   26.0719 C   0  0  0  0  0  0  0  0  0  0  0  0
    9.3772  -16.3597   28.0392 C   0  0  0  0  0  0  0  0  0  0  0  0
    9.9428  -16.1501   29.2791 N   0  0  0  0  0  0  0  0  0  0  0  0
   10.8900  -17.6664   24.2909 C   0  0  2  0  0  0  0  0  0  0  0  0
   12.0040  -18.5586   24.4883 C   0  0  0  0  0  0  0  0  0  0  0  0
   13.3386  -17.9499   24.2171 C   0  0  0  0  0  0  0  0  0  0  0  0
   14.3562  -18.8847   23.7043 O   0  0  0  0  0  0  0  0  0  0  0  0
   14.0503  -20.0837   23.5199 C   0  0  0  0  0  0  0  0  0  0  0  0
   11.9644  -19.2553   25.7784 O   0  0  0  0  0  0  0  0  0  0  0  0
   12.8824  -20.2403   26.0809 O   0  0  0  0  0  0  0  0  0  0  0  0
   15.6487  -18.4889   23.4150 O   0  0  0  0  0  0  0  0  0  0  0  0
  2  3  2  0
  2  1  1  0
  4  2  1  0
  5  4  1  0
  6  5  1  0
  7  8  1  0
  7  6  1  0
  8  9  1  1
 10  8  1  0
 10 11  2  0
 12 13  1  0
 13 23  2  0
 13 14  1  0
 14 15  2  0
 15 16  1  0
 16 17  1  0
 18 17  1  6
 18 19  1  0
 19 10  1  0
 20 18  1  0
 21 20  2  0
 22 16  2  0
 23 22  1  0
 24 20  1  0
 25 24  1  0
 25 29  1  0
 25 26  1  6
 27 26  1  0
 27 28  2  0
 29 30  1  0
 31 27  1  0
 32 29  2  0
M  END
$$$$
