RYD.pdb
     RDKit          3D

 32 32  0  0  1  0  0  0  0  0999 V2000
    8.8840  -12.9521   16.4140 N   0  0  0  0  0  0  0  0  0  0  0  0
    7.9570  -13.9832   16.6840 C   0  0  0  0  0  0  0  0  0  0  0  0
    6.7890  -13.9597   16.1669 N   0  0  0  0  0  0  0  0  0  0  0  0
    8.3100  -15.0741   17.5436 N   0  0  0  0  0  0  0  0  0  0  0  0
    9.1899  -14.8874   18.6783 C   0  0  0  0  0  0  0  0  0  0  0  0
    8.3194  -14.6293   19.8998 C   0  0  0  0  0  0  0  0  0  0  0  0
    9.1571  -14.3634   21.1218 C   0  0  0  0  0  0  0  0  0  0  0  0
    9.4676  -15.5758   21.9302 C   0  0  2  0  0  0  0  0  0  0  0  0
    8.2916  -16.4510   21.8327 N   0  0  0  0  0  0  0  0  0  0  0  0
    9.8145  -15.3155   23.3369 C   0  0  0  0  0  0  0  0  0  0  0  0
   10.6973  -14.5452   23.7307 O   0  0  0  0  0  0  0  0  0  0  0  0
    6.0486  -14.6537   16.3546 O   0  0  0  0  0  0  0  0  0  0  0  0
    6.1185  -10.2571   26.0006 C   0  0  0  0  0  0  0  0  0  0  0  0
    6.6104  -11.5540   26.1427 C   0  0  0  0  0  0  0  0  0  0  0  0
    7.7622  -11.8111   26.8759 C   0  0  0  0  0  0  0  0  0  0  0  0
    8.2296  -13.1076   27.0018 C   0  0  0  0  0  0  0  0  0  0  0  0
    7.5767  -14.1608   26.4136 C   0  0  0  0  0  0  0  0  0  0  0  0
    8.0933  -15.5270   26.5627 C   0  0  2  0  0  0  0  0  0  0  0  0
    9.3164  -15.8151   25.7509 N   0  0  0  0  0  0  0  0  0  0  0  0
    9.0805  -16.0009   24.3568 C   0  0  0  0  0  0  0  0  0  0  0  0
   10.1241  -16.9299   26.2790 O   0  0  0  0  0  0  0  0  0  0  0  0
   10.3965  -17.0999   27.4966 C   0  0  0  0  0  0  0  0  0  0  0  0
    6.4415  -13.9275   25.6880 C   0  0  0  0  0  0  0  0  0  0  0  0
    5.9741  -12.6365   25.5613 N   0  0  0  0  0  0  0  0  0  0  0  0
   10.6544  -17.9080   25.3851 C   0  0  2  0  0  0  0  0  0  0  0  0
   11.1097  -19.2078   25.8087 C   0  0  0  0  0  0  0  0  0  0  0  0
   10.1339  -19.9605   26.6492 C   0  0  0  0  0  0  0  0  0  0  0  0
   10.5737  -21.3062   27.0589 O   0  0  0  0  0  0  0  0  0  0  0  0
   11.7035  -21.4512   27.5761 C   0  0  0  0  0  0  0  0  0  0  0  0
   11.6374  -20.0217   24.7086 O   0  0  0  0  0  0  0  0  0  0  0  0
   11.6527  -19.5412   23.4150 O   0  0  0  0  0  0  0  0  0  0  0  0
    9.7824  -22.4277   26.8942 O   0  0  0  0  0  0  0  0  0  0  0  0
  2  3  2  0
  2  1  1  0
  4  2  1  0
  5  4  1  0
  6  5  1  0
  7  8  1  0
  7  6  1  0
  8  9  1  1
 10  8  1  0
 10 11  2  0
 12 13  1  0
 13 23  2  0
 13 14  1  0
 14 15  2  0
 15 16  1  0
 16 17  1  0
 18 17  1  6
 18 19  1  0
 19 10  1  0
 20 18  1  0
 21 20  2  0
 22 16  2  0
 23 22  1  0
 24 20  1  0
 25 24  1  0
 25 29  1  0
 25 26  1  1
 27 26  1  0
 27 28  2  0
 29 30  1  0
 31 27  1  0
 32 29  2  0
M  END
$$$$
