RYD.pdb
     RDKit          3D

 32 32  0  0  1  0  0  0  0  0999 V2000
    8.9839  -15.1895   15.6107 N   0  0  0  0  0  0  0  0  0  0  0  0
    8.0849  -14.1116   15.4516 C   0  0  0  0  0  0  0  0  0  0  0  0
    8.2616  -13.2483   14.5265 N   0  0  0  0  0  0  0  0  0  0  0  0
    6.9584  -13.9669   16.3255 N   0  0  0  0  0  0  0  0  0  0  0  0
    6.7265  -14.8887   17.4177 C   0  0  0  0  0  0  0  0  0  0  0  0
    6.7271  -14.0835   18.7093 C   0  0  0  0  0  0  0  0  0  0  0  0
    8.0815  -14.1041   19.3657 C   0  0  0  0  0  0  0  0  0  0  0  0
    8.3298  -15.2949   20.2261 C   0  0  2  0  0  0  0  0  0  0  0  0
    7.0135  -15.8820   20.5107 N   0  0  0  0  0  0  0  0  0  0  0  0
    9.0645  -15.0217   21.4721 C   0  0  0  0  0  0  0  0  0  0  0  0
   10.1782  -14.4912   21.5504 O   0  0  0  0  0  0  0  0  0  0  0  0
    7.6444  -12.4401   14.3507 O   0  0  0  0  0  0  0  0  0  0  0  0
   10.7062  -14.3959   30.1367 C   0  0  0  0  0  0  0  0  0  0  0  0
   10.0802  -14.5245   28.8975 C   0  0  0  0  0  0  0  0  0  0  0  0
    9.7817  -15.7737   28.3675 C   0  0  0  0  0  0  0  0  0  0  0  0
    9.1598  -15.8741   27.1353 C   0  0  0  0  0  0  0  0  0  0  0  0
    8.8255  -14.7571   26.4127 C   0  0  0  0  0  0  0  0  0  0  0  0
    8.1659  -14.8909   25.1079 C   0  0  1  0  0  0  0  0  0  0  0  0
    9.0930  -15.2153   23.9795 N   0  0  0  0  0  0  0  0  0  0  0  0
    8.4586  -15.3927   22.7146 C   0  0  0  0  0  0  0  0  0  0  0  0
    9.9859  -16.3546   24.2602 O   0  0  0  0  0  0  0  0  0  0  0  0
    9.6153  -17.5571   24.3075 C   0  0  0  0  0  0  0  0  0  0  0  0
    9.1112  -13.5191   26.9178 C   0  0  0  0  0  0  0  0  0  0  0  0
    9.7308  -13.4168   28.1454 N   0  0  0  0  0  0  0  0  0  0  0  0
   11.3740  -16.1261   24.5009 C   0  0  2  0  0  0  0  0  0  0  0  0
   12.3599  -17.1766   24.5232 C   0  0  0  0  0  0  0  0  0  0  0  0
   13.6232  -16.8538   23.7985 C   0  0  0  0  0  0  0  0  0  0  0  0
   14.6327  -17.9276   23.7992 O   0  0  0  0  0  0  0  0  0  0  0  0
   14.3383  -19.0466   23.3234 C   0  0  0  0  0  0  0  0  0  0  0  0
   12.6119  -17.7036   25.8686 O   0  0  0  0  0  0  0  0  0  0  0  0
   12.0089  -17.1409   26.9751 O   0  0  0  0  0  0  0  0  0  0  0  0
   15.9053  -17.7494   24.3088 O   0  0  0  0  0  0  0  0  0  0  0  0
  2  3  2  0
  2  1  1  0
  4  2  1  0
  5  4  1  0
  6  5  1  0
  7  8  1  0
  7  6  1  0
  8  9  1  1
 10  8  1  0
 10 11  2  0
 12 13  1  0
 13 23  2  0
 13 14  1  0
 14 15  2  0
 15 16  1  0
 16 17  1  0
 18 17  1  6
 18 19  1  0
 19 10  1  0
 20 18  1  0
 21 20  2  0
 22 16  2  0
 23 22  1  0
 24 20  1  0
 25 24  1  0
 25 29  1  0
 25 26  1  6
 27 26  1  0
 27 28  2  0
 29 30  1  0
 31 27  1  0
 32 29  2  0
M  END
$$$$
