RYD.pdb
     RDKit          3D

 32 32  0  0  1  0  0  0  0  0999 V2000
    9.5939  -14.1620   16.9807 N   0  0  0  0  0  0  0  0  0  0  0  0
    8.2903  -14.0177   16.4561 C   0  0  0  0  0  0  0  0  0  0  0  0
    8.1131  -13.7288   15.2243 N   0  0  0  0  0  0  0  0  0  0  0  0
    7.1429  -14.1922   17.2967 N   0  0  0  0  0  0  0  0  0  0  0  0
    7.0075  -13.4765   18.5481 C   0  0  0  0  0  0  0  0  0  0  0  0
    8.3375  -13.5736   19.2816 C   0  0  0  0  0  0  0  0  0  0  0  0
    8.1334  -13.7663   20.7604 C   0  0  0  0  0  0  0  0  0  0  0  0
    8.6831  -15.0433   21.2959 C   0  0  2  0  0  0  0  0  0  0  0  0
    7.5982  -16.0302   21.2086 N   0  0  0  0  0  0  0  0  0  0  0  0
    9.2160  -14.9671   22.6660 C   0  0  0  0  0  0  0  0  0  0  0  0
   10.1774  -14.2798   23.0280 O   0  0  0  0  0  0  0  0  0  0  0  0
    7.1930  -13.6696   14.7606 O   0  0  0  0  0  0  0  0  0  0  0  0
    6.0781  -10.1662   26.6714 C   0  0  0  0  0  0  0  0  0  0  0  0
    6.5080  -11.4827   26.5092 C   0  0  0  0  0  0  0  0  0  0  0  0
    7.8425  -11.8305   26.6784 C   0  0  0  0  0  0  0  0  0  0  0  0
    8.2435  -13.1445   26.5117 C   0  0  0  0  0  0  0  0  0  0  0  0
    7.3458  -14.1268   26.1791 C   0  0  0  0  0  0  0  0  0  0  0  0
    7.7969  -15.5135   26.0083 C   0  0  2  0  0  0  0  0  0  0  0  0
    8.9457  -15.6756   25.0639 N   0  0  0  0  0  0  0  0  0  0  0  0
    8.5838  -15.7467   23.6864 C   0  0  0  0  0  0  0  0  0  0  0  0
    9.8380  -16.7974   25.4096 O   0  0  0  0  0  0  0  0  0  0  0  0
   10.2249  -17.0681   26.5770 C   0  0  0  0  0  0  0  0  0  0  0  0
    6.0282  -13.8038   26.0083 C   0  0  0  0  0  0  0  0  0  0  0  0
    5.6265  -12.4952   26.1740 N   0  0  0  0  0  0  0  0  0  0  0  0
   10.3212  -17.6627   24.3826 C   0  0  1  0  0  0  0  0  0  0  0  0
   11.2225  -18.7599   24.6270 C   0  0  0  0  0  0  0  0  0  0  0  0
   10.8967  -20.0064   23.8751 C   0  0  0  0  0  0  0  0  0  0  0  0
   10.9038  -21.2397   24.6820 O   0  0  0  0  0  0  0  0  0  0  0  0
   11.2808  -21.1906   25.8740 C   0  0  0  0  0  0  0  0  0  0  0  0
   12.6350  -18.3870   24.4963 O   0  0  0  0  0  0  0  0  0  0  0  0
   13.1104  -17.8036   23.3395 O   0  0  0  0  0  0  0  0  0  0  0  0
   10.5073  -22.4620   24.1727 O   0  0  0  0  0  0  0  0  0  0  0  0
  2  3  2  0
  2  1  1  0
  4  2  1  0
  5  4  1  0
  6  5  1  0
  7  8  1  0
  7  6  1  0
  8  9  1  1
 10  8  1  0
 10 11  2  0
 12 13  1  0
 13 23  2  0
 13 14  1  0
 14 15  2  0
 15 16  1  0
 16 17  1  0
 18 17  1  6
 18 19  1  0
 19 10  1  0
 20 18  1  0
 21 20  2  0
 22 16  2  0
 23 22  1  0
 24 20  1  0
 25 24  1  0
 25 29  1  0
 25 26  1  1
 27 26  1  0
 27 28  2  0
 29 30  1  0
 31 27  1  0
 32 29  2  0
M  END
$$$$
