RYD.pdb
     RDKit          3D

 32 32  0  0  1  0  0  0  0  0999 V2000
    9.0540  -13.7616   15.8598 N   0  0  0  0  0  0  0  0  0  0  0  0
    8.0473  -14.6517   15.4240 C   0  0  0  0  0  0  0  0  0  0  0  0
    8.2396  -15.4056   14.4107 N   0  0  0  0  0  0  0  0  0  0  0  0
    6.7917  -14.7245   16.1108 N   0  0  0  0  0  0  0  0  0  0  0  0
    6.6838  -14.4189   17.5220 C   0  0  0  0  0  0  0  0  0  0  0  0
    7.4236  -15.5064   18.2877 C   0  0  0  0  0  0  0  0  0  0  0  0
    8.5133  -14.9247   19.1478 C   0  0  0  0  0  0  0  0  0  0  0  0
    8.0351  -13.9588   20.1764 C   0  0  2  0  0  0  0  0  0  0  0  0
    8.1685  -12.6216   19.5828 N   0  0  0  0  0  0  0  0  0  0  0  0
    8.7312  -14.0313   21.4715 C   0  0  0  0  0  0  0  0  0  0  0  0
    9.9374  -13.8320   21.6534 O   0  0  0  0  0  0  0  0  0  0  0  0
    7.5300  -16.0332   14.0016 O   0  0  0  0  0  0  0  0  0  0  0  0
    9.9927  -14.9775   30.1645 C   0  0  0  0  0  0  0  0  0  0  0  0
    9.4130  -14.7961   28.9094 C   0  0  0  0  0  0  0  0  0  0  0  0
    8.8356  -15.8570   28.2228 C   0  0  0  0  0  0  0  0  0  0  0  0
    8.2668  -15.6505   26.9782 C   0  0  0  0  0  0  0  0  0  0  0  0
    8.2577  -14.4086   26.3960 C   0  0  0  0  0  0  0  0  0  0  0  0
    7.6474  -14.2161   25.0746 C   0  0  2  0  0  0  0  0  0  0  0  0
    8.5476  -14.5463   23.9263 N   0  0  0  0  0  0  0  0  0  0  0  0
    7.9677  -14.3589   22.6370 C   0  0  0  0  0  0  0  0  0  0  0  0
    9.1504  -15.8888   24.0182 O   0  0  0  0  0  0  0  0  0  0  0  0
    8.5351  -16.9643   23.7940 C   0  0  0  0  0  0  0  0  0  0  0  0
    8.8211  -13.3522   27.0564 C   0  0  0  0  0  0  0  0  0  0  0  0
    9.3884  -13.5558   28.2966 N   0  0  0  0  0  0  0  0  0  0  0  0
   10.5232  -16.0271   24.3828 C   0  0  1  0  0  0  0  0  0  0  0  0
   11.2120  -17.2921   24.4196 C   0  0  0  0  0  0  0  0  0  0  0  0
   12.4514  -17.3452   23.5912 C   0  0  0  0  0  0  0  0  0  0  0  0
   12.5332  -18.4899   22.6665 O   0  0  0  0  0  0  0  0  0  0  0  0
   11.6277  -19.3532   22.6775 C   0  0  0  0  0  0  0  0  0  0  0  0
   11.4338  -17.7895   25.7815 O   0  0  0  0  0  0  0  0  0  0  0  0
   11.9765  -19.0393   26.0005 O   0  0  0  0  0  0  0  0  0  0  0  0
   13.5792  -18.6525   21.7776 O   0  0  0  0  0  0  0  0  0  0  0  0
  2  3  2  0
  2  1  1  0
  4  2  1  0
  5  4  1  0
  6  5  1  0
  7  8  1  0
  7  6  1  0
  8  9  1  6
 10  8  1  0
 10 11  2  0
 12 13  1  0
 13 23  2  0
 13 14  1  0
 14 15  2  0
 15 16  1  0
 16 17  1  0
 18 17  1  6
 18 19  1  0
 19 10  1  0
 20 18  1  0
 21 20  2  0
 22 16  2  0
 23 22  1  0
 24 20  1  0
 25 24  1  0
 25 29  1  0
 25 26  1  1
 27 26  1  0
 27 28  2  0
 29 30  1  0
 31 27  1  0
 32 29  2  0
M  END
$$$$
