IYV.pdb
     RDKit          3D

 28 28  0  0  1  0  0  0  0  0999 V2000
   29.0741  -17.6676  -17.5663 C   0  0  0  0  0  0  0  0  0  0  0  0
   27.9860  -18.6920  -17.5046 C   0  0  0  0  0  0  0  0  0  0  0  0
   27.1625  -18.5396  -16.2674 C   0  0  2  0  0  0  0  0  0  0  0  0
   28.0247  -18.6622  -15.0155 C   0  0  0  0  0  0  0  0  0  0  0  0
   26.0707  -19.5997  -16.2551 C   0  0  2  0  0  0  0  0  0  0  0  0
   25.2416  -19.3668  -17.4342 N   0  0  0  0  0  0  0  0  0  0  0  0
   25.1852  -19.5178  -15.0810 C   0  0  0  0  0  0  0  0  0  0  0  0
   24.4508  -18.5085  -14.9476 O   0  0  0  0  0  0  0  0  0  0  0  0
   18.9523  -20.3093   -9.2286 O   0  0  0  0  0  0  0  0  0  0  0  0
   19.9367  -20.4995  -10.2070 C   0  0  0  0  0  0  0  0  0  0  0  0
   20.1901  -19.5484  -11.1698 C   0  0  0  0  0  0  0  0  0  0  0  0
   21.1624  -19.7562  -12.1218 C   0  0  0  0  0  0  0  0  0  0  0  0
   21.9293  -20.8996  -12.1762 C   0  0  0  0  0  0  0  0  0  0  0  0
   22.9479  -21.0700  -13.2125 C   0  0  0  0  0  0  0  0  0  0  0  0
   24.2551  -20.3385  -12.9183 C   0  0  2  0  0  0  0  0  0  0  0  0
   25.1143  -20.5274  -14.0875 N   0  0  0  0  0  0  0  0  0  0  0  0
   24.8603  -20.8414  -11.6858 C   0  0  0  0  0  0  0  0  0  0  0  0
   25.3402  -22.0256  -11.5972 O   0  0  0  0  0  0  0  0  0  0  0  0
   21.6633  -21.8510  -11.1991 C   0  0  0  0  0  0  0  0  0  0  0  0
   20.6911  -21.6533  -10.2400 C   0  0  0  0  0  0  0  0  0  0  0  0
   26.7176  -20.0197   -7.1158 C   0  0  0  0  0  0  0  0  0  0  0  0
   26.1355  -19.5257   -8.4096 C   0  0  1  0  0  0  0  0  0  0  0  0
   27.2374  -18.8433   -9.1883 C   0  0  0  0  0  0  0  0  0  0  0  0
   25.5932  -20.6345   -9.2802 C   0  0  2  0  0  0  0  0  0  0  0  0
   24.9745  -20.0855  -10.4960 N   0  0  0  0  0  0  0  0  0  0  0  0
   24.5154  -21.3175   -8.5305 C   0  0  0  0  0  0  0  0  0  0  0  0
   23.3539  -20.8510   -8.5625 O   0  0  0  0  0  0  0  0  0  0  0  0
   24.7415  -22.4625   -7.7881 O   0  0  0  0  0  0  0  0  0  0  0  0
  2  1  1  0
  3  2  1  0
  3  4  1  1
  5  3  1  0
  5  6  1  6
  7  8  2  0
  7  5  1  0
  9 10  1  0
 10 11  2  0
 11 12  1  0
 13 14  1  0
 13 12  2  0
 15 14  1  6
 15 16  1  0
 16  7  1  0
 17 15  1  0
 17 18  2  0
 19 13  1  0
 20 19  2  0
 20 10  1  0
 22 21  1  1
 23 22  1  0
 24 22  1  0
 24 25  1  6
 25 17  1  0
 26 24  1  0
 27 26  2  0
 28 26  1  0
M  END
$$$$
