IYV.pdb
     RDKit          3D

 28 28  0  0  1  0  0  0  0  0999 V2000
   24.6436  -12.4147  -21.4332 C   0  0  0  0  0  0  0  0  0  0  0  0
   24.1848  -12.5768  -20.0189 C   0  0  0  0  0  0  0  0  0  0  0  0
   23.1424  -11.5671  -19.6642 C   0  0  2  0  0  0  0  0  0  0  0  0
   23.6562  -10.1478  -19.8821 C   0  0  0  0  0  0  0  0  0  0  0  0
   22.7315  -11.7561  -18.2111 C   0  0  2  0  0  0  0  0  0  0  0  0
   22.2497  -13.1284  -18.0828 N   0  0  0  0  0  0  0  0  0  0  0  0
   21.6320  -10.8708  -17.7913 C   0  0  0  0  0  0  0  0  0  0  0  0
   20.6581  -10.7078  -18.5665 O   0  0  0  0  0  0  0  0  0  0  0  0
   16.2777  -14.1614  -16.3020 O   0  0  0  0  0  0  0  0  0  0  0  0
   17.1375  -13.0996  -15.9927 C   0  0  0  0  0  0  0  0  0  0  0  0
   18.3201  -13.3023  -15.3171 C   0  0  0  0  0  0  0  0  0  0  0  0
   19.1501  -12.2441  -15.0235 C   0  0  0  0  0  0  0  0  0  0  0  0
   18.8632  -10.9433  -15.3757 C   0  0  0  0  0  0  0  0  0  0  0  0
   19.7803   -9.8554  -15.0354 C   0  0  0  0  0  0  0  0  0  0  0  0
   20.5167   -9.2708  -16.2381 C   0  0  2  0  0  0  0  0  0  0  0  0
   21.6122  -10.1902  -16.5471 N   0  0  0  0  0  0  0  0  0  0  0  0
   20.9821   -7.9154  -15.9477 C   0  0  0  0  0  0  0  0  0  0  0  0
   21.9229   -7.6837  -15.1101 O   0  0  0  0  0  0  0  0  0  0  0  0
   17.6671  -10.7529  -16.0566 C   0  0  0  0  0  0  0  0  0  0  0  0
   16.8275  -11.8061  -16.3563 C   0  0  0  0  0  0  0  0  0  0  0  0
   21.4524   -3.1613  -17.3053 C   0  0  0  0  0  0  0  0  0  0  0  0
   21.0107   -4.5779  -17.5398 C   0  0  1  0  0  0  0  0  0  0  0  0
   21.9883   -5.2205  -18.4977 C   0  0  0  0  0  0  0  0  0  0  0  0
   21.0013   -5.4145  -16.2823 C   0  0  2  0  0  0  0  0  0  0  0  0
   20.4518   -6.7516  -16.5514 N   0  0  0  0  0  0  0  0  0  0  0  0
   20.0870   -4.7706  -15.3128 C   0  0  0  0  0  0  0  0  0  0  0  0
   18.8786   -5.0978  -15.2972 O   0  0  0  0  0  0  0  0  0  0  0  0
   20.5180   -3.8118  -14.4138 O   0  0  0  0  0  0  0  0  0  0  0  0
  2  1  1  0
  3  2  1  0
  3  4  1  1
  5  3  1  0
  5  6  1  6
  7  8  2  0
  7  5  1  0
  9 10  1  0
 10 11  2  0
 11 12  1  0
 13 14  1  0
 13 12  2  0
 15 14  1  1
 15 16  1  0
 16  7  1  0
 17 15  1  0
 17 18  2  0
 19 13  1  0
 20 19  2  0
 20 10  1  0
 22 21  1  1
 23 22  1  0
 24 22  1  0
 24 25  1  6
 25 17  1  0
 26 24  1  0
 27 26  2  0
 28 26  1  0
M  END
$$$$
