IYV.pdb
     RDKit          3D

 28 28  0  0  1  0  0  0  0  0999 V2000
   22.6898  -17.5056  -16.3168 C   0  0  0  0  0  0  0  0  0  0  0  0
   21.6454  -16.6876  -17.0075 C   0  0  0  0  0  0  0  0  0  0  0  0
   22.0296  -15.2449  -17.0618 C   0  0  2  0  0  0  0  0  0  0  0  0
   22.3017  -14.6963  -15.6651 C   0  0  0  0  0  0  0  0  0  0  0  0
   20.9142  -14.4510  -17.7263 C   0  0  2  0  0  0  0  0  0  0  0  0
   20.7046  -15.0393  -19.0461 N   0  0  0  0  0  0  0  0  0  0  0  0
   21.2464  -13.0312  -17.9336 C   0  0  0  0  0  0  0  0  0  0  0  0
   22.3944  -12.7333  -18.3451 O   0  0  0  0  0  0  0  0  0  0  0  0
   21.8396  -12.1295  -24.0575 O   0  0  0  0  0  0  0  0  0  0  0  0
   21.3918  -11.6149  -22.8340 C   0  0  0  0  0  0  0  0  0  0  0  0
   20.3497  -12.1945  -22.1456 C   0  0  0  0  0  0  0  0  0  0  0  0
   19.9260  -11.6720  -20.9446 C   0  0  0  0  0  0  0  0  0  0  0  0
   20.4997  -10.5624  -20.3633 C   0  0  0  0  0  0  0  0  0  0  0  0
   20.0073  -10.0469  -19.0856 C   0  0  0  0  0  0  0  0  0  0  0  0
   20.7595  -10.5868  -17.8718 C   0  0  2  0  0  0  0  0  0  0  0  0
   20.3308  -11.9746  -17.6953 N   0  0  0  0  0  0  0  0  0  0  0  0
   20.4969   -9.7607  -16.6942 C   0  0  0  0  0  0  0  0  0  0  0  0
   19.4677   -9.9395  -15.9533 O   0  0  0  0  0  0  0  0  0  0  0  0
   21.5498   -9.9873  -21.0682 C   0  0  0  0  0  0  0  0  0  0  0  0
   21.9829  -10.5026  -22.2728 C   0  0  0  0  0  0  0  0  0  0  0  0
   22.1981   -9.6560  -13.5735 C   0  0  0  0  0  0  0  0  0  0  0  0
   22.1352   -8.2167  -13.9992 C   0  0  1  0  0  0  0  0  0  0  0  0
   23.4646   -7.8543  -14.6218 C   0  0  0  0  0  0  0  0  0  0  0  0
   21.0685   -7.9482  -15.0344 C   0  0  2  0  0  0  0  0  0  0  0  0
   21.3364   -8.7063  -16.2656 N   0  0  0  0  0  0  0  0  0  0  0  0
   21.1367   -6.5154  -15.3987 C   0  0  0  0  0  0  0  0  0  0  0  0
   21.6402   -6.1837  -16.4960 O   0  0  0  0  0  0  0  0  0  0  0  0
   20.6616   -5.5173  -14.5672 O   0  0  0  0  0  0  0  0  0  0  0  0
  2  1  1  0
  3  2  1  0
  3  4  1  1
  5  3  1  0
  5  6  1  6
  7  8  2  0
  7  5  1  0
  9 10  1  0
 10 11  2  0
 11 12  1  0
 13 14  1  0
 13 12  2  0
 15 14  1  6
 15 16  1  0
 16  7  1  0
 17 15  1  0
 17 18  2  0
 19 13  1  0
 20 19  2  0
 20 10  1  0
 22 21  1  6
 23 22  1  0
 24 22  1  0
 24 25  1  6
 25 17  1  0
 26 24  1  0
 27 26  2  0
 28 26  1  0
M  END
$$$$
