IYV.pdb
     RDKit          3D

 28 28  0  0  1  0  0  0  0  0999 V2000
   31.5866  -23.9813  -17.8885 C   0  0  0  0  0  0  0  0  0  0  0  0
   30.4445  -24.6361  -17.1788 C   0  0  0  0  0  0  0  0  0  0  0  0
   29.2398  -23.7529  -17.1524 C   0  0  2  0  0  0  0  0  0  0  0  0
   29.5490  -22.4227  -16.4736 C   0  0  0  0  0  0  0  0  0  0  0  0
   28.1105  -24.4627  -16.4198 C   0  0  2  0  0  0  0  0  0  0  0  0
   27.8320  -25.6902  -17.1597 N   0  0  0  0  0  0  0  0  0  0  0  0
   26.8581  -23.6887  -16.3795 C   0  0  0  0  0  0  0  0  0  0  0  0
   26.2790  -23.4200  -17.4604 O   0  0  0  0  0  0  0  0  0  0  0  0
   19.1790  -20.1030  -13.7618 O   0  0  0  0  0  0  0  0  0  0  0  0
   20.4046  -20.7761  -13.8476 C   0  0  0  0  0  0  0  0  0  0  0  0
   20.6891  -21.8613  -13.0494 C   0  0  0  0  0  0  0  0  0  0  0  0
   21.9001  -22.5079  -13.1505 C   0  0  0  0  0  0  0  0  0  0  0  0
   22.8856  -22.1245  -14.0338 C   0  0  0  0  0  0  0  0  0  0  0  0
   24.1567  -22.8462  -14.0975 C   0  0  0  0  0  0  0  0  0  0  0  0
   25.0720  -22.3843  -15.2286 C   0  0  2  0  0  0  0  0  0  0  0  0
   26.2646  -23.2303  -15.1757 N   0  0  0  0  0  0  0  0  0  0  0  0
   25.3822  -20.9620  -15.0915 C   0  0  0  0  0  0  0  0  0  0  0  0
   25.9076  -20.4795  -14.0278 O   0  0  0  0  0  0  0  0  0  0  0  0
   22.5857  -21.0283  -14.8331 C   0  0  0  0  0  0  0  0  0  0  0  0
   21.3751  -20.3726  -14.7402 C   0  0  0  0  0  0  0  0  0  0  0  0
   26.9158  -16.7476  -16.9498 C   0  0  0  0  0  0  0  0  0  0  0  0
   26.5715  -18.2098  -16.9706 C   0  0  1  0  0  0  0  0  0  0  0  0
   27.8261  -18.9906  -16.6504 C   0  0  0  0  0  0  0  0  0  0  0  0
   25.5326  -18.5914  -15.9427 C   0  0  2  0  0  0  0  0  0  0  0  0
   25.1393  -19.9996  -16.0990 N   0  0  0  0  0  0  0  0  0  0  0  0
   24.3190  -17.7841  -16.1991 C   0  0  0  0  0  0  0  0  0  0  0  0
   24.3161  -16.5677  -15.9021 O   0  0  0  0  0  0  0  0  0  0  0  0
   23.1758  -18.3245  -16.7596 O   0  0  0  0  0  0  0  0  0  0  0  0
  2  1  1  0
  3  2  1  0
  3  4  1  1
  5  3  1  0
  5  6  1  6
  7  8  2  0
  7  5  1  0
  9 10  1  0
 10 11  2  0
 11 12  1  0
 13 14  1  0
 13 12  2  0
 15 14  1  1
 15 16  1  0
 16  7  1  0
 17 15  1  0
 17 18  2  0
 19 13  1  0
 20 19  2  0
 20 10  1  0
 22 21  1  1
 23 22  1  0
 24 22  1  0
 24 25  1  6
 25 17  1  0
 26 24  1  0
 27 26  2  0
 28 26  1  0
M  END
$$$$
