IYV.pdb
     RDKit          3D

 28 28  0  0  1  0  0  0  0  0999 V2000
   24.8203  -18.9793  -20.7855 C   0  0  0  0  0  0  0  0  0  0  0  0
   23.5885  -19.3154  -20.0066 C   0  0  0  0  0  0  0  0  0  0  0  0
   23.8206  -19.1878  -18.5363 C   0  0  2  0  0  0  0  0  0  0  0  0
   24.9601  -20.0928  -18.0799 C   0  0  0  0  0  0  0  0  0  0  0  0
   22.5418  -19.5426  -17.7915 C   0  0  2  0  0  0  0  0  0  0  0  0
   21.5548  -18.5235  -18.1363 N   0  0  0  0  0  0  0  0  0  0  0  0
   22.6902  -19.5227  -16.3264 C   0  0  0  0  0  0  0  0  0  0  0  0
   22.7881  -18.4148  -15.7442 O   0  0  0  0  0  0  0  0  0  0  0  0
   16.8837  -18.1927  -13.9522 O   0  0  0  0  0  0  0  0  0  0  0  0
   18.0578  -18.9474  -13.8329 C   0  0  0  0  0  0  0  0  0  0  0  0
   18.8640  -18.8564  -12.7204 C   0  0  0  0  0  0  0  0  0  0  0  0
   20.0135  -19.6075  -12.6241 C   0  0  0  0  0  0  0  0  0  0  0  0
   20.4265  -20.4793  -13.6078 C   0  0  0  0  0  0  0  0  0  0  0  0
   21.6597  -21.2516  -13.4550 C   0  0  0  0  0  0  0  0  0  0  0  0
   22.8841  -20.5886  -14.0809 C   0  0  2  0  0  0  0  0  0  0  0  0
   22.7247  -20.6966  -15.5313 N   0  0  0  0  0  0  0  0  0  0  0  0
   24.1129  -21.2181  -13.5995 C   0  0  0  0  0  0  0  0  0  0  0  0
   24.4326  -22.4172  -13.9164 O   0  0  0  0  0  0  0  0  0  0  0  0
   19.6043  -20.5614  -14.7248 C   0  0  0  0  0  0  0  0  0  0  0  0
   18.4497  -19.8133  -14.8319 C   0  0  0  0  0  0  0  0  0  0  0  0
   27.6021  -20.3111  -14.2310 C   0  0  0  0  0  0  0  0  0  0  0  0
   27.5004  -20.4711  -12.7407 C   0  0  1  0  0  0  0  0  0  0  0  0
   27.3939  -19.0928  -12.1282 C   0  0  0  0  0  0  0  0  0  0  0  0
   26.2801  -21.2486  -12.3074 C   0  0  2  0  0  0  0  0  0  0  0  0
   25.0504  -20.5783  -12.7557 N   0  0  0  0  0  0  0  0  0  0  0  0
   26.2427  -21.2517  -10.8279 C   0  0  0  0  0  0  0  0  0  0  0  0
   25.4523  -20.4852  -10.2316 O   0  0  0  0  0  0  0  0  0  0  0  0
   27.0541  -22.0758  -10.0691 O   0  0  0  0  0  0  0  0  0  0  0  0
  2  1  1  0
  3  2  1  0
  3  4  1  1
  5  3  1  0
  5  6  1  1
  7  8  2  0
  7  5  1  0
  9 10  1  0
 10 11  2  0
 11 12  1  0
 13 14  1  0
 13 12  2  0
 15 14  1  1
 15 16  1  0
 16  7  1  0
 17 15  1  0
 17 18  2  0
 19 13  1  0
 20 19  2  0
 20 10  1  0
 22 21  1  6
 23 22  1  0
 24 22  1  0
 24 25  1  6
 25 17  1  0
 26 24  1  0
 27 26  2  0
 28 26  1  0
M  END
$$$$
