QMD.pdb
     RDKit          3D

 26 25  0  0  1  0  0  0  0  0999 V2000
   22.1124  -15.9519  -16.4234 N   0  0  0  0  0  0  0  0  0  0  0  0
   20.8404  -16.2563  -17.0394 C   0  0  0  0  0  0  0  0  0  0  0  0
   20.7094  -17.3347  -17.6314 O   0  0  0  0  0  0  0  0  0  0  0  0
   19.7204  -15.3039  -16.9685 C   0  0  0  0  0  0  0  0  0  0  0  0
   20.0891  -14.0722  -16.2361 C   0  0  0  0  0  0  0  0  0  0  0  0
   20.1777  -12.8366  -17.1079 C   0  0  2  0  0  0  0  0  0  0  0  0
   21.2674  -13.0102  -18.0847 N   0  0  0  0  0  0  0  0  0  0  0  0
   20.5645  -11.6962  -16.2364 C   0  0  0  0  0  0  0  0  0  0  0  0
   19.8924  -11.3867  -15.2013 O   0  0  0  0  0  0  0  0  0  0  0  0
   27.1692  -11.5178  -14.5314 C   0  0  0  0  0  0  0  0  0  0  0  0
   26.1883  -10.2434  -15.3666 S   0  0  0  0  0  0  0  0  0  0  0  0
   24.4120  -10.6356  -15.2341 C   0  0  0  0  0  0  0  0  0  0  0  0
   23.6000   -9.5181  -15.8466 C   0  0  0  0  0  0  0  0  0  0  0  0
   22.1161   -9.8129  -15.7834 C   0  0  2  0  0  0  0  0  0  0  0  0
   21.7251  -10.9367  -16.5855 N   0  0  0  0  0  0  0  0  0  0  0  0
   21.4165   -8.6047  -16.2866 C   0  0  0  0  0  0  0  0  0  0  0  0
   21.4329   -8.3780  -17.5174 O   0  0  0  0  0  0  0  0  0  0  0  0
   20.7376   -7.7133  -15.4037 N   0  0  0  0  0  0  0  0  0  0  0  0
   20.1944   -6.5003  -15.9130 C   0  0  1  0  0  0  0  0  0  0  0  0
   18.7372   -6.3041  -15.5067 C   0  0  0  0  0  0  0  0  0  0  0  0
   18.2595   -5.0065  -16.0439 C   0  0  0  0  0  0  0  0  0  0  0  0
   18.8312   -4.4662  -17.0197 O   0  0  0  0  0  0  0  0  0  0  0  0
   21.0075   -5.3112  -15.4919 C   0  0  0  0  0  0  0  0  0  0  0  0
   20.7000   -4.1869  -15.9463 O   0  0  0  0  0  0  0  0  0  0  0  0
   17.1602   -4.4123  -15.4278 O   0  0  0  0  0  0  0  0  0  0  0  0
   22.0746   -5.4121  -14.6271 O   0  0  0  0  0  0  0  0  0  0  0  0
  2  1  1  0
  3  2  2  0
  4  2  1  0
  5  4  1  0
  6  5  1  0
  6  7  1  6
  8  6  1  0
  9  8  2  0
 11 10  1  0
 11 12  1  0
 14 13  1  6
 13 12  1  0
 14 15  1  0
 15  8  1  0
 16 18  1  0
 16 14  1  0
 17 16  2  0
 19 18  1  0
 19 20  1  1
 20 21  1  0
 21 22  2  0
 23 26  1  0
 23 19  1  0
 24 23  2  0
 25 21  1  0
M  END
$$$$
