QMD.pdb
     RDKit          3D

 26 25  0  0  1  0  0  0  0  0999 V2000
   27.8506  -16.7948  -15.5152 N   0  0  0  0  0  0  0  0  0  0  0  0
   28.2366  -17.1511  -16.8622 C   0  0  0  0  0  0  0  0  0  0  0  0
   29.0040  -16.4017  -17.4786 O   0  0  0  0  0  0  0  0  0  0  0  0
   27.7273  -18.3795  -17.4932 C   0  0  0  0  0  0  0  0  0  0  0  0
   26.9475  -19.2047  -16.5444 C   0  0  0  0  0  0  0  0  0  0  0  0
   27.7915  -19.9349  -15.5202 C   0  0  2  0  0  0  0  0  0  0  0  0
   28.5801  -20.9791  -16.1982 N   0  0  0  0  0  0  0  0  0  0  0  0
   26.8672  -20.6355  -14.5904 C   0  0  0  0  0  0  0  0  0  0  0  0
   26.4518  -21.8156  -14.8224 O   0  0  0  0  0  0  0  0  0  0  0  0
   24.3712  -21.2120   -7.1366 C   0  0  0  0  0  0  0  0  0  0  0  0
   25.2859  -20.2298   -8.3542 S   0  0  0  0  0  0  0  0  0  0  0  0
   25.0280  -20.9104  -10.0266 C   0  0  0  0  0  0  0  0  0  0  0  0
   25.8800  -20.1528  -11.0182 C   0  0  0  0  0  0  0  0  0  0  0  0
   25.6375  -20.6297  -12.4347 C   0  0  2  0  0  0  0  0  0  0  0  0
   26.4427  -19.9502  -13.4090 N   0  0  0  0  0  0  0  0  0  0  0  0
   24.2078  -20.3697  -12.7365 C   0  0  0  0  0  0  0  0  0  0  0  0
   23.8735  -19.2129  -13.0777 O   0  0  0  0  0  0  0  0  0  0  0  0
   23.2262  -21.4007  -12.6448 N   0  0  0  0  0  0  0  0  0  0  0  0
   21.8924  -21.1385  -13.0665 C   0  0  1  0  0  0  0  0  0  0  0  0
   21.1934  -22.3913  -13.5853 C   0  0  0  0  0  0  0  0  0  0  0  0
   19.8352  -22.0238  -14.0548 C   0  0  0  0  0  0  0  0  0  0  0  0
   19.4441  -20.8335  -14.0196 O   0  0  0  0  0  0  0  0  0  0  0  0
   21.0786  -20.5157  -11.9700 C   0  0  0  0  0  0  0  0  0  0  0  0
   21.2642  -20.9035  -10.7952 O   0  0  0  0  0  0  0  0  0  0  0  0
   19.0137  -23.0429  -14.5321 O   0  0  0  0  0  0  0  0  0  0  0  0
   20.1397  -19.5368  -12.2089 O   0  0  0  0  0  0  0  0  0  0  0  0
  2  1  1  0
  3  2  2  0
  4  2  1  0
  5  4  1  0
  6  5  1  0
  6  7  1  6
  8  6  1  0
  9  8  2  0
 11 10  1  0
 11 12  1  0
 14 13  1  1
 13 12  1  0
 14 15  1  0
 15  8  1  0
 16 18  1  0
 16 14  1  0
 17 16  2  0
 19 18  1  0
 19 20  1  1
 20 21  1  0
 21 22  2  0
 23 26  1  0
 23 19  1  0
 24 23  2  0
 25 21  1  0
M  END
$$$$
