QMD.pdb
     RDKit          3D

 26 25  0  0  1  0  0  0  0  0999 V2000
   17.8543  -15.7200  -16.4628 N   0  0  0  0  0  0  0  0  0  0  0  0
   17.1170  -14.7577  -17.2505 C   0  0  0  0  0  0  0  0  0  0  0  0
   17.0147  -14.9408  -18.4697 O   0  0  0  0  0  0  0  0  0  0  0  0
   16.5001  -13.5799  -16.6191 C   0  0  0  0  0  0  0  0  0  0  0  0
   17.5084  -12.7022  -15.9849 C   0  0  0  0  0  0  0  0  0  0  0  0
   18.1967  -11.7548  -16.9458 C   0  0  2  0  0  0  0  0  0  0  0  0
   18.8291  -12.5343  -18.0248 N   0  0  0  0  0  0  0  0  0  0  0  0
   19.2961  -11.0815  -16.2060 C   0  0  0  0  0  0  0  0  0  0  0  0
   19.1222  -10.5993  -15.0414 O   0  0  0  0  0  0  0  0  0  0  0  0
   27.1126  -10.4677  -15.3410 C   0  0  0  0  0  0  0  0  0  0  0  0
   25.7505  -11.0410  -16.3897 S   0  0  0  0  0  0  0  0  0  0  0  0
   24.1567  -10.4696  -15.7113 C   0  0  0  0  0  0  0  0  0  0  0  0
   23.0298  -10.9427  -16.5998 C   0  0  0  0  0  0  0  0  0  0  0  0
   21.6897  -10.4322  -16.1137 C   0  0  2  0  0  0  0  0  0  0  0  0
   20.5768  -10.9808  -16.8346 N   0  0  0  0  0  0  0  0  0  0  0  0
   21.6971   -8.9601  -16.3016 C   0  0  0  0  0  0  0  0  0  0  0  0
   21.5586   -8.5083  -17.4605 O   0  0  0  0  0  0  0  0  0  0  0  0
   21.8574   -8.0679  -15.2000 N   0  0  0  0  0  0  0  0  0  0  0  0
   21.8584   -6.6632  -15.4298 C   0  0  1  0  0  0  0  0  0  0  0  0
   21.4724   -5.8734  -14.1831 C   0  0  0  0  0  0  0  0  0  0  0  0
   21.5314   -4.4245  -14.4951 C   0  0  0  0  0  0  0  0  0  0  0  0
   20.8348   -3.9374  -15.4163 O   0  0  0  0  0  0  0  0  0  0  0  0
   23.1855   -6.1888  -15.9454 C   0  0  0  0  0  0  0  0  0  0  0  0
   23.2073   -5.2141  -16.7295 O   0  0  0  0  0  0  0  0  0  0  0  0
   22.3847   -3.6290  -13.7335 O   0  0  0  0  0  0  0  0  0  0  0  0
   24.3750   -6.7842  -15.5881 O   0  0  0  0  0  0  0  0  0  0  0  0
  2  1  1  0
  3  2  2  0
  4  2  1  0
  5  4  1  0
  6  5  1  0
  6  7  1  6
  8  6  1  0
  9  8  2  0
 11 10  1  0
 11 12  1  0
 14 13  1  6
 13 12  1  0
 14 15  1  0
 15  8  1  0
 16 18  1  0
 16 14  1  0
 17 16  2  0
 19 18  1  0
 19 20  1  1
 20 21  1  0
 21 22  2  0
 23 26  1  0
 23 19  1  0
 24 23  2  0
 25 21  1  0
M  END
$$$$
