QMD.pdb
     RDKit          3D

 26 25  0  0  1  0  0  0  0  0999 V2000
   20.9040  -15.4954  -19.8422 N   0  0  0  0  0  0  0  0  0  0  0  0
   22.0831  -15.6524  -20.6639 C   0  0  0  0  0  0  0  0  0  0  0  0
   22.0194  -16.3801  -21.6624 O   0  0  0  0  0  0  0  0  0  0  0  0
   23.3383  -14.9638  -20.3220 C   0  0  0  0  0  0  0  0  0  0  0  0
   23.1697  -14.0481  -19.1721 C   0  0  0  0  0  0  0  0  0  0  0  0
   24.4556  -13.3981  -18.7045 C   0  0  2  0  0  0  0  0  0  0  0  0
   25.3752  -14.4407  -18.2152 N   0  0  0  0  0  0  0  0  0  0  0  0
   24.1280  -12.5373  -17.5379 C   0  0  0  0  0  0  0  0  0  0  0  0
   23.5306  -12.9976  -16.5131 O   0  0  0  0  0  0  0  0  0  0  0  0
   28.6295  -12.6227  -15.0962 C   0  0  0  0  0  0  0  0  0  0  0  0
   27.6589  -11.4705  -16.1033 S   0  0  0  0  0  0  0  0  0  0  0  0
   26.3780  -10.6720  -15.0793 C   0  0  0  0  0  0  0  0  0  0  0  0
   25.5892   -9.6985  -15.9238 C   0  0  0  0  0  0  0  0  0  0  0  0
   24.3072  -10.3212  -16.4350 C   0  0  2  0  0  0  0  0  0  0  0  0
   24.5005  -11.1572  -17.5852 N   0  0  0  0  0  0  0  0  0  0  0  0
   23.4055   -9.2029  -16.8078 C   0  0  0  0  0  0  0  0  0  0  0  0
   23.5486   -8.6741  -17.9331 O   0  0  0  0  0  0  0  0  0  0  0  0
   22.3958   -8.7299  -15.9179 N   0  0  0  0  0  0  0  0  0  0  0  0
   21.5283   -7.6815  -16.3353 C   0  0  1  0  0  0  0  0  0  0  0  0
   20.2135   -7.6769  -15.5618 C   0  0  0  0  0  0  0  0  0  0  0  0
   19.3755   -6.5528  -16.0460 C   0  0  0  0  0  0  0  0  0  0  0  0
   18.7936   -6.6171  -17.1543 O   0  0  0  0  0  0  0  0  0  0  0  0
   22.1911   -6.3395  -16.2257 C   0  0  0  0  0  0  0  0  0  0  0  0
   21.9103   -5.4642  -17.0744 O   0  0  0  0  0  0  0  0  0  0  0  0
   19.2600   -5.4289  -15.2308 O   0  0  0  0  0  0  0  0  0  0  0  0
   23.0927   -6.0377  -15.2293 O   0  0  0  0  0  0  0  0  0  0  0  0
  2  1  1  0
  3  2  2  0
  4  2  1  0
  5  4  1  0
  6  5  1  0
  6  7  1  1
  8  6  1  0
  9  8  2  0
 11 10  1  0
 11 12  1  0
 14 13  1  6
 13 12  1  0
 14 15  1  0
 15  8  1  0
 16 18  1  0
 16 14  1  0
 17 16  2  0
 19 18  1  0
 19 20  1  1
 20 21  1  0
 21 22  2  0
 23 26  1  0
 23 19  1  0
 24 23  2  0
 25 21  1  0
M  END
$$$$
