QMD.pdb
     RDKit          3D

 26 25  0  0  1  0  0  0  0  0999 V2000
   27.0740  -19.4380  -18.4106 N   0  0  0  0  0  0  0  0  0  0  0  0
   28.0482  -18.4902  -17.9179 C   0  0  0  0  0  0  0  0  0  0  0  0
   28.7026  -17.8311  -18.7351 O   0  0  0  0  0  0  0  0  0  0  0  0
   28.2626  -18.3108  -16.4728 C   0  0  0  0  0  0  0  0  0  0  0  0
   27.3090  -19.1084  -15.6704 C   0  0  0  0  0  0  0  0  0  0  0  0
   27.9651  -20.1302  -14.7647 C   0  0  2  0  0  0  0  0  0  0  0  0
   28.5767  -21.1870  -15.5899 N   0  0  0  0  0  0  0  0  0  0  0  0
   26.8929  -20.7801  -13.9662 C   0  0  0  0  0  0  0  0  0  0  0  0
   26.2449  -21.7828  -14.4063 O   0  0  0  0  0  0  0  0  0  0  0  0
   26.6156  -20.1269   -7.5293 C   0  0  0  0  0  0  0  0  0  0  0  0
   24.9639  -20.8309   -7.7751 S   0  0  0  0  0  0  0  0  0  0  0  0
   24.7194  -21.2514   -9.5330 C   0  0  0  0  0  0  0  0  0  0  0  0
   25.7541  -20.5388  -10.3724 C   0  0  0  0  0  0  0  0  0  0  0  0
   25.6237  -20.9004  -11.8369 C   0  0  2  0  0  0  0  0  0  0  0  0
   26.5940  -20.2512  -12.6715 N   0  0  0  0  0  0  0  0  0  0  0  0
   24.2684  -20.4739  -12.2655 C   0  0  0  0  0  0  0  0  0  0  0  0
   24.0705  -19.2581  -12.4872 O   0  0  0  0  0  0  0  0  0  0  0  0
   23.2062  -21.4126  -12.4255 N   0  0  0  0  0  0  0  0  0  0  0  0
   21.9235  -20.9562  -12.8403 C   0  0  1  0  0  0  0  0  0  0  0  0
   21.1693  -22.0077  -13.6482 C   0  0  0  0  0  0  0  0  0  0  0  0
   21.7606  -22.0850  -15.0064 C   0  0  0  0  0  0  0  0  0  0  0  0
   22.2274  -21.0632  -15.5623 O   0  0  0  0  0  0  0  0  0  0  0  0
   21.0906  -20.5134  -11.6731 C   0  0  0  0  0  0  0  0  0  0  0  0
   21.3173  -21.0200  -10.5518 O   0  0  0  0  0  0  0  0  0  0  0  0
   21.7772  -23.3260  -15.6394 O   0  0  0  0  0  0  0  0  0  0  0  0
   20.0906  -19.5736  -11.7906 O   0  0  0  0  0  0  0  0  0  0  0  0
  2  1  1  0
  3  2  2  0
  4  2  1  0
  5  4  1  0
  6  5  1  0
  6  7  1  6
  8  6  1  0
  9  8  2  0
 11 10  1  0
 11 12  1  0
 14 13  1  1
 13 12  1  0
 14 15  1  0
 15  8  1  0
 16 18  1  0
 16 14  1  0
 17 16  2  0
 19 18  1  0
 19 20  1  1
 20 21  1  0
 21 22  2  0
 23 26  1  0
 23 19  1  0
 24 23  2  0
 25 21  1  0
M  END
$$$$
