QMD.pdb
     RDKit          3D

 26 25  0  0  1  0  0  0  0  0999 V2000
   28.0430  -17.8078  -15.4922 N   0  0  0  0  0  0  0  0  0  0  0  0
   28.4195  -18.2529  -16.8152 C   0  0  0  0  0  0  0  0  0  0  0  0
   29.3446  -17.6730  -17.3968 O   0  0  0  0  0  0  0  0  0  0  0  0
   27.7172  -19.3726  -17.4629 C   0  0  0  0  0  0  0  0  0  0  0  0
   26.7800  -20.0459  -16.5367 C   0  0  0  0  0  0  0  0  0  0  0  0
   27.4553  -20.9162  -15.4969 C   0  0  2  0  0  0  0  0  0  0  0  0
   27.9250  -22.1583  -16.1361 N   0  0  0  0  0  0  0  0  0  0  0  0
   26.4248  -21.3125  -14.5018 C   0  0  0  0  0  0  0  0  0  0  0  0
   25.4702  -22.0979  -14.8032 O   0  0  0  0  0  0  0  0  0  0  0  0
   26.8879  -19.6273   -8.2050 C   0  0  0  0  0  0  0  0  0  0  0  0
   25.2307  -20.3591   -8.1635 S   0  0  0  0  0  0  0  0  0  0  0  0
   24.7929  -21.0079   -9.8110 C   0  0  0  0  0  0  0  0  0  0  0  0
   25.8451  -20.5944  -10.8136 C   0  0  0  0  0  0  0  0  0  0  0  0
   25.5151  -21.0991  -12.2025 C   0  0  2  0  0  0  0  0  0  0  0  0
   26.5232  -20.7874  -13.1751 N   0  0  0  0  0  0  0  0  0  0  0  0
   24.2467  -20.4436  -12.6075 C   0  0  0  0  0  0  0  0  0  0  0  0
   24.2984  -19.2776  -13.0595 O   0  0  0  0  0  0  0  0  0  0  0  0
   22.9913  -21.1110  -12.4910 N   0  0  0  0  0  0  0  0  0  0  0  0
   21.8275  -20.5198  -13.0584 C   0  0  1  0  0  0  0  0  0  0  0  0
   21.8819  -20.4842  -14.5825 C   0  0  0  0  0  0  0  0  0  0  0  0
   20.6034  -19.9343  -15.0959 C   0  0  0  0  0  0  0  0  0  0  0  0
   20.3217  -18.7217  -14.9500 O   0  0  0  0  0  0  0  0  0  0  0  0
   20.5776  -21.2174  -12.6073 C   0  0  0  0  0  0  0  0  0  0  0  0
   20.6443  -22.4321  -12.3153 O   0  0  0  0  0  0  0  0  0  0  0  0
   19.7313  -20.8087  -15.7408 O   0  0  0  0  0  0  0  0  0  0  0  0
   19.3655  -20.5718  -12.5030 O   0  0  0  0  0  0  0  0  0  0  0  0
  2  1  1  0
  3  2  2  0
  4  2  1  0
  5  4  1  0
  6  5  1  0
  6  7  1  6
  8  6  1  0
  9  8  2  0
 11 10  1  0
 11 12  1  0
 14 13  1  1
 13 12  1  0
 14 15  1  0
 15  8  1  0
 16 18  1  0
 16 14  1  0
 17 16  2  0
 19 18  1  0
 19 20  1  6
 20 21  1  0
 21 22  2  0
 23 26  1  0
 23 19  1  0
 24 23  2  0
 25 21  1  0
M  END
$$$$
