QMD.pdb
     RDKit          3D

 26 25  0  0  1  0  0  0  0  0999 V2000
   22.3864   -9.2627  -24.3881 N   0  0  0  0  0  0  0  0  0  0  0  0
   23.1732   -9.7734  -23.2879 C   0  0  0  0  0  0  0  0  0  0  0  0
   23.5391  -10.9548  -23.3166 O   0  0  0  0  0  0  0  0  0  0  0  0
   23.5325   -8.9089  -22.1521 C   0  0  0  0  0  0  0  0  0  0  0  0
   22.4570   -8.8557  -21.1373 C   0  0  0  0  0  0  0  0  0  0  0  0
   22.5177   -9.9690  -20.1118 C   0  0  2  0  0  0  0  0  0  0  0  0
   21.8745  -11.1736  -20.6661 N   0  0  0  0  0  0  0  0  0  0  0  0
   21.7015   -9.5502  -18.9422 C   0  0  0  0  0  0  0  0  0  0  0  0
   20.4298   -9.5375  -18.9834 O   0  0  0  0  0  0  0  0  0  0  0  0
   20.4870  -13.9387  -14.8725 C   0  0  0  0  0  0  0  0  0  0  0  0
   21.3894  -12.4107  -14.5052 S   0  0  0  0  0  0  0  0  0  0  0  0
   21.0459  -11.1590  -15.7866 C   0  0  0  0  0  0  0  0  0  0  0  0
   21.7987   -9.8884  -15.4675 C   0  0  0  0  0  0  0  0  0  0  0  0
   21.6291   -8.8547  -16.5609 C   0  0  2  0  0  0  0  0  0  0  0  0
   22.3795   -9.1534  -17.7471 N   0  0  0  0  0  0  0  0  0  0  0  0
   22.1085   -7.5632  -16.0091 C   0  0  0  0  0  0  0  0  0  0  0  0
   23.3423   -7.3576  -15.9644 O   0  0  0  0  0  0  0  0  0  0  0  0
   21.1998   -6.5701  -15.5367 N   0  0  0  0  0  0  0  0  0  0  0  0
   21.7080   -5.3684  -14.9679 C   0  0  1  0  0  0  0  0  0  0  0  0
   20.8885   -4.1465  -15.3710 C   0  0  0  0  0  0  0  0  0  0  0  0
   21.4448   -2.9502  -14.6929 C   0  0  0  0  0  0  0  0  0  0  0  0
   20.9460   -2.5288  -13.6231 O   0  0  0  0  0  0  0  0  0  0  0  0
   21.7919   -5.4575  -13.4721 C   0  0  0  0  0  0  0  0  0  0  0  0
   22.3712   -4.5389  -12.8511 O   0  0  0  0  0  0  0  0  0  0  0  0
   22.5340   -2.3144  -15.2848 O   0  0  0  0  0  0  0  0  0  0  0  0
   21.2562   -6.5087  -12.7614 O   0  0  0  0  0  0  0  0  0  0  0  0
  2  1  1  0
  3  2  2  0
  4  2  1  0
  5  4  1  0
  6  5  1  0
  6  7  1  6
  8  6  1  0
  9  8  2  0
 11 10  1  0
 11 12  1  0
 14 13  1  1
 13 12  1  0
 14 15  1  0
 15  8  1  0
 16 18  1  0
 16 14  1  0
 17 16  2  0
 19 18  1  0
 19 20  1  1
 20 21  1  0
 21 22  2  0
 23 26  1  0
 23 19  1  0
 24 23  2  0
 25 21  1  0
M  END
$$$$
