VDH.pdb
     RDKit          3D

 26 26  0  0  1  0  0  0  0  0999 V2000
   23.9564  -14.7591  -15.8101 C   0  0  0  0  0  0  0  0  0  0  0  0
   23.2999  -15.9952  -16.3886 C   0  0  1  0  0  0  0  0  0  0  0  0
   23.8034  -17.2495  -15.7533 C   0  0  0  0  0  0  0  0  0  0  0  0
   21.8077  -15.8137  -16.2425 C   0  0  2  0  0  0  0  0  0  0  0  0
   21.0928  -16.9402  -16.7761 N   0  0  0  0  0  0  0  0  0  0  0  0
   21.3146  -14.5767  -16.8653 C   0  0  0  0  0  0  0  0  0  0  0  0
   20.8813  -14.5457  -18.0525 O   0  0  0  0  0  0  0  0  0  0  0  0
   21.3221  -13.3727  -16.1145 N   0  0  0  0  0  0  0  0  0  0  0  0
   20.7341  -12.1177  -16.6573 C   0  0  1  0  0  0  0  0  0  0  0  0
   19.2487  -12.2797  -16.7725 C   0  0  0  0  0  0  0  0  0  0  0  0
   18.5781  -11.0795  -17.2716 C   0  0  0  0  0  0  0  0  0  0  0  0
   17.5246  -10.5599  -16.8595 O   0  0  0  0  0  0  0  0  0  0  0  0
   21.1262  -11.0587  -15.7085 C   0  0  0  0  0  0  0  0  0  0  0  0
   20.9633  -11.1960  -14.4860 O   0  0  0  0  0  0  0  0  0  0  0  0
   19.1851  -10.4134  -18.3545 O   0  0  0  0  0  0  0  0  0  0  0  0
   21.6986   -9.8603  -16.1828 N   0  0  0  0  0  0  0  0  0  0  0  0
   22.1545   -8.8414  -15.2037 C   0  0  1  0  0  0  0  0  0  0  0  0
   23.5592   -8.4690  -15.5162 C   0  0  0  0  0  0  0  0  0  0  0  0
   24.6028   -9.4144  -15.2129 C   0  0  0  0  0  0  0  0  0  0  0  0
   24.5658  -10.6384  -14.6208 C   0  0  0  0  0  0  0  0  0  0  0  0
   25.8195  -11.1900  -14.6131 N   0  0  0  0  0  0  0  0  0  0  0  0
   26.6071  -10.3041  -15.1984 C   0  0  0  0  0  0  0  0  0  0  0  0
   25.9121   -9.2290  -15.5704 N   0  0  0  0  0  0  0  0  0  0  0  0
   21.1966   -7.7375  -15.3743 C   0  0  0  0  0  0  0  0  0  0  0  0
   20.3560   -7.7264  -16.2796 O   0  0  0  0  0  0  0  0  0  0  0  0
   21.2130   -6.6607  -14.5073 O   0  0  0  0  0  0  0  0  0  0  0  0
  2  3  1  1
  2  1  1  0
  4  2  1  0
  4  5  1  6
  6  4  1  0
  7  6  2  0
  8  6  1  0
  9 10  1  1
  9  8  1  0
 10 11  1  0
 11 15  1  0
 11 12  2  0
 13  9  1  0
 14 13  2  0
 16 13  1  0
 17 18  1  6
 17 16  1  0
 18 19  1  0
 19 20  2  0
 20 21  1  0
 22 21  1  0
 23 19  1  0
 23 22  2  0
 24 17  1  0
 25 24  2  0
 26 24  1  0
M  END
$$$$
