VDH.pdb
     RDKit          3D

 26 26  0  0  1  0  0  0  0  0999 V2000
   33.8368  -32.7047   -7.1753 C   0  0  0  0  0  0  0  0  0  0  0  0
   33.3372  -33.4948   -5.9836 C   0  0  1  0  0  0  0  0  0  0  0  0
   31.8469  -33.5880   -5.9549 C   0  0  0  0  0  0  0  0  0  0  0  0
   34.0154  -34.8434   -6.0306 C   0  0  2  0  0  0  0  0  0  0  0  0
   33.7187  -35.5315   -7.2567 N   0  0  0  0  0  0  0  0  0  0  0  0
   33.6705  -35.7014   -4.8877 C   0  0  0  0  0  0  0  0  0  0  0  0
   32.8689  -36.6733   -4.9919 O   0  0  0  0  0  0  0  0  0  0  0  0
   34.2530  -35.4355   -3.6215 N   0  0  0  0  0  0  0  0  0  0  0  0
   33.8889  -36.2328   -2.4186 C   0  0  1  0  0  0  0  0  0  0  0  0
   34.8116  -35.8749   -1.2931 C   0  0  0  0  0  0  0  0  0  0  0  0
   34.5971  -36.6870   -0.0957 C   0  0  0  0  0  0  0  0  0  0  0  0
   33.7934  -37.6241    0.0639 O   0  0  0  0  0  0  0  0  0  0  0  0
   32.4804  -35.8974   -2.1375 C   0  0  0  0  0  0  0  0  0  0  0  0
   31.9443  -34.8958   -2.6366 O   0  0  0  0  0  0  0  0  0  0  0  0
   35.3902  -36.3865    1.0292 O   0  0  0  0  0  0  0  0  0  0  0  0
   31.7134  -36.7203   -1.2870 N   0  0  0  0  0  0  0  0  0  0  0  0
   30.2677  -36.4296   -1.1131 C   0  0  1  0  0  0  0  0  0  0  0  0
   29.5754  -36.6401   -2.4116 C   0  0  0  0  0  0  0  0  0  0  0  0
   28.9069  -35.5194   -3.0216 C   0  0  0  0  0  0  0  0  0  0  0  0
   28.1172  -34.5452   -2.4946 C   0  0  0  0  0  0  0  0  0  0  0  0
   27.7658  -33.6516   -3.4713 N   0  0  0  0  0  0  0  0  0  0  0  0
   28.3416  -34.0839   -4.5801 C   0  0  0  0  0  0  0  0  0  0  0  0
   29.0329  -35.1998   -4.3476 N   0  0  0  0  0  0  0  0  0  0  0  0
   29.8462  -37.3650   -0.0582 C   0  0  0  0  0  0  0  0  0  0  0  0
   30.6351  -38.1425    0.4890 O   0  0  0  0  0  0  0  0  0  0  0  0
   28.5278  -37.3987    0.3567 O   0  0  0  0  0  0  0  0  0  0  0  0
  2  3  1  6
  2  1  1  0
  4  2  1  0
  4  5  1  6
  6  4  1  0
  7  6  2  0
  8  6  1  0
  9 10  1  1
  9  8  1  0
 10 11  1  0
 11 15  1  0
 11 12  2  0
 13  9  1  0
 14 13  2  0
 16 13  1  0
 17 18  1  6
 17 16  1  0
 18 19  1  0
 19 20  2  0
 20 21  1  0
 22 21  1  0
 23 19  1  0
 23 22  2  0
 24 17  1  0
 25 24  2  0
 26 24  1  0
M  END
$$$$
