VDH.pdb
     RDKit          3D

 26 26  0  0  1  0  0  0  0  0999 V2000
   37.7511  -23.0334    4.8279 C   0  0  0  0  0  0  0  0  0  0  0  0
   38.4790  -23.8420    5.8816 C   0  0  1  0  0  0  0  0  0  0  0  0
   38.3848  -23.2174    7.2349 C   0  0  0  0  0  0  0  0  0  0  0  0
   37.9146  -25.2421    5.8335 C   0  0  2  0  0  0  0  0  0  0  0  0
   38.1229  -25.8420    4.5445 N   0  0  0  0  0  0  0  0  0  0  0  0
   36.4869  -25.2994    6.1793 C   0  0  0  0  0  0  0  0  0  0  0  0
   35.6173  -25.7515    5.3808 O   0  0  0  0  0  0  0  0  0  0  0  0
   36.0630  -24.8332    7.4506 N   0  0  0  0  0  0  0  0  0  0  0  0
   34.6567  -25.0016    7.9079 C   0  0  1  0  0  0  0  0  0  0  0  0
   34.6253  -25.9586    9.0608 C   0  0  0  0  0  0  0  0  0  0  0  0
   33.3029  -26.0726    9.6754 C   0  0  0  0  0  0  0  0  0  0  0  0
   32.1896  -25.9499    9.1322 O   0  0  0  0  0  0  0  0  0  0  0  0
   34.1975  -23.6477    8.2706 C   0  0  0  0  0  0  0  0  0  0  0  0
   34.4451  -23.1599    9.3843 O   0  0  0  0  0  0  0  0  0  0  0  0
   33.2630  -26.3567   11.0547 O   0  0  0  0  0  0  0  0  0  0  0  0
   33.4615  -22.8788    7.3454 N   0  0  0  0  0  0  0  0  0  0  0  0
   32.4431  -21.9233    7.8499 C   0  0  1  0  0  0  0  0  0  0  0  0
   31.3639  -22.6858    8.5308 C   0  0  0  0  0  0  0  0  0  0  0  0
   30.3439  -21.9508    9.2339 C   0  0  0  0  0  0  0  0  0  0  0  0
   30.0102  -20.6322    9.2176 C   0  0  0  0  0  0  0  0  0  0  0  0
   28.9152  -20.4193   10.0125 N   0  0  0  0  0  0  0  0  0  0  0  0
   28.5902  -21.6029   10.5037 C   0  0  0  0  0  0  0  0  0  0  0  0
   29.4241  -22.5428   10.0584 N   0  0  0  0  0  0  0  0  0  0  0  0
   33.2042  -21.0418    8.7494 C   0  0  0  0  0  0  0  0  0  0  0  0
   33.2550  -19.8181    8.5878 O   0  0  0  0  0  0  0  0  0  0  0  0
   33.8974  -21.5719    9.8218 O   0  0  0  0  0  0  0  0  0  0  0  0
  2  3  1  1
  2  1  1  0
  4  2  1  0
  4  5  1  6
  6  4  1  0
  7  6  2  0
  8  6  1  0
  9 10  1  1
  9  8  1  0
 10 11  1  0
 11 15  1  0
 11 12  2  0
 13  9  1  0
 14 13  2  0
 16 13  1  0
 17 18  1  1
 17 16  1  0
 18 19  1  0
 19 20  2  0
 20 21  1  0
 22 21  1  0
 23 19  1  0
 23 22  2  0
 24 17  1  0
 25 24  2  0
 26 24  1  0
M  END
$$$$
