VDH.pdb
     RDKit          3D

 26 26  0  0  1  0  0  0  0  0999 V2000
   20.4288  -12.2159  -20.8318 C   0  0  0  0  0  0  0  0  0  0  0  0
   19.2801  -11.5603  -20.0940 C   0  0  1  0  0  0  0  0  0  0  0  0
   18.3773  -12.5629  -19.4535 C   0  0  0  0  0  0  0  0  0  0  0  0
   19.8840  -10.5896  -19.1071 C   0  0  2  0  0  0  0  0  0  0  0  0
   20.9064  -11.2198  -18.3182 N   0  0  0  0  0  0  0  0  0  0  0  0
   18.8858   -9.9745  -18.2203 C   0  0  0  0  0  0  0  0  0  0  0  0
   17.9235   -9.2851  -18.6639 O   0  0  0  0  0  0  0  0  0  0  0  0
   18.9999  -10.1564  -16.8177 N   0  0  0  0  0  0  0  0  0  0  0  0
   18.0635   -9.4905  -15.8716 C   0  0  1  0  0  0  0  0  0  0  0  0
   17.4407  -10.5259  -14.9850 C   0  0  0  0  0  0  0  0  0  0  0  0
   16.6699  -11.5253  -15.7244 C   0  0  0  0  0  0  0  0  0  0  0  0
   15.8484  -11.3388  -16.6409 O   0  0  0  0  0  0  0  0  0  0  0  0
   18.8837   -8.5148  -15.1296 C   0  0  0  0  0  0  0  0  0  0  0  0
   19.0250   -8.5948  -13.8994 O   0  0  0  0  0  0  0  0  0  0  0  0
   16.8682  -12.8742  -15.3696 O   0  0  0  0  0  0  0  0  0  0  0  0
   19.5270   -7.4642  -15.8160 N   0  0  0  0  0  0  0  0  0  0  0  0
   20.4022   -6.5355  -15.0568 C   0  0  1  0  0  0  0  0  0  0  0  0
   21.5998   -7.2799  -14.5865 C   0  0  0  0  0  0  0  0  0  0  0  0
   21.4980   -8.0440  -13.3696 C   0  0  0  0  0  0  0  0  0  0  0  0
   20.5046   -8.1381  -12.4451 C   0  0  0  0  0  0  0  0  0  0  0  0
   20.8465   -9.0545  -11.4862 N   0  0  0  0  0  0  0  0  0  0  0  0
   22.0381   -9.5109  -11.8317 C   0  0  0  0  0  0  0  0  0  0  0  0
   22.4585   -8.9280  -12.9545 N   0  0  0  0  0  0  0  0  0  0  0  0
   20.7085   -5.4712  -16.0257 C   0  0  0  0  0  0  0  0  0  0  0  0
   20.3519   -5.5307  -17.2070 O   0  0  0  0  0  0  0  0  0  0  0  0
   21.4189   -4.3528  -15.6305 O   0  0  0  0  0  0  0  0  0  0  0  0
  2  3  1  1
  2  1  1  0
  4  2  1  0
  4  5  1  1
  6  4  1  0
  7  6  2  0
  8  6  1  0
  9 10  1  1
  9  8  1  0
 10 11  1  0
 11 15  1  0
 11 12  2  0
 13  9  1  0
 14 13  2  0
 16 13  1  0
 17 18  1  6
 17 16  1  0
 18 19  1  0
 19 20  2  0
 20 21  1  0
 22 21  1  0
 23 19  1  0
 23 22  2  0
 24 17  1  0
 25 24  2  0
 26 24  1  0
M  END
$$$$
