VDH.pdb
     RDKit          3D

 26 26  0  0  1  0  0  0  0  0999 V2000
   22.8742  -14.2856  -18.5652 C   0  0  0  0  0  0  0  0  0  0  0  0
   22.8584  -12.8911  -17.9745 C   0  0  1  0  0  0  0  0  0  0  0  0
   23.4880  -12.8459  -16.6210 C   0  0  0  0  0  0  0  0  0  0  0  0
   23.5317  -11.9796  -18.9730 C   0  0  2  0  0  0  0  0  0  0  0  0
   24.8580  -12.4380  -19.2826 N   0  0  0  0  0  0  0  0  0  0  0  0
   23.5851  -10.5791  -18.5292 C   0  0  0  0  0  0  0  0  0  0  0  0
   24.5435   -9.8121  -18.8313 O   0  0  0  0  0  0  0  0  0  0  0  0
   22.5285  -10.0637  -17.7346 N   0  0  0  0  0  0  0  0  0  0  0  0
   22.4778   -8.6264  -17.3512 C   0  0  1  0  0  0  0  0  0  0  0  0
   22.5761   -7.7837  -18.5866 C   0  0  0  0  0  0  0  0  0  0  0  0
   22.4870   -6.3499  -18.3111 C   0  0  0  0  0  0  0  0  0  0  0  0
   23.0200   -5.7104  -17.3857 O   0  0  0  0  0  0  0  0  0  0  0  0
   21.1981   -8.4558  -16.6379 C   0  0  0  0  0  0  0  0  0  0  0  0
   20.2118   -9.1593  -16.9063 O   0  0  0  0  0  0  0  0  0  0  0  0
   21.7042   -5.5786  -19.1926 O   0  0  0  0  0  0  0  0  0  0  0  0
   21.0758   -7.4789  -15.6282 N   0  0  0  0  0  0  0  0  0  0  0  0
   19.8514   -7.4586  -14.7885 C   0  0  1  0  0  0  0  0  0  0  0  0
   19.7245   -8.7656  -14.0918 C   0  0  0  0  0  0  0  0  0  0  0  0
   18.7120   -8.9060  -13.0768 C   0  0  0  0  0  0  0  0  0  0  0  0
   17.7210   -8.0675  -12.6705 C   0  0  0  0  0  0  0  0  0  0  0  0
   16.9613   -8.6770  -11.7074 N   0  0  0  0  0  0  0  0  0  0  0  0
   17.4905   -9.8762  -11.5355 C   0  0  0  0  0  0  0  0  0  0  0  0
   18.5402  -10.0474  -12.3394 N   0  0  0  0  0  0  0  0  0  0  0  0
   20.0679   -6.3213  -13.8801 C   0  0  0  0  0  0  0  0  0  0  0  0
   21.1661   -5.7674  -13.7653 O   0  0  0  0  0  0  0  0  0  0  0  0
   19.0251   -5.8328  -13.1149 O   0  0  0  0  0  0  0  0  0  0  0  0
  2  3  1  1
  2  1  1  0
  4  2  1  0
  4  5  1  1
  6  4  1  0
  7  6  2  0
  8  6  1  0
  9 10  1  6
  9  8  1  0
 10 11  1  0
 11 15  1  0
 11 12  2  0
 13  9  1  0
 14 13  2  0
 16 13  1  0
 17 18  1  1
 17 16  1  0
 18 19  1  0
 19 20  2  0
 20 21  1  0
 22 21  1  0
 23 19  1  0
 23 22  2  0
 24 17  1  0
 25 24  2  0
 26 24  1  0
M  END
$$$$
