VDH.pdb
     RDKit          3D

 26 26  0  0  1  0  0  0  0  0999 V2000
   21.6947  -12.6624  -20.3126 C   0  0  0  0  0  0  0  0  0  0  0  0
   21.1974  -13.5101  -19.1602 C   0  0  1  0  0  0  0  0  0  0  0  0
   22.3037  -14.2623  -18.4964 C   0  0  0  0  0  0  0  0  0  0  0  0
   20.4583  -12.5885  -18.2193 C   0  0  2  0  0  0  0  0  0  0  0  0
   19.0399  -12.8100  -18.2828 N   0  0  0  0  0  0  0  0  0  0  0  0
   20.7467  -11.1673  -18.4608 C   0  0  0  0  0  0  0  0  0  0  0  0
   21.9128  -10.6895  -18.3609 O   0  0  0  0  0  0  0  0  0  0  0  0
   19.6852  -10.2963  -18.8184 N   0  0  0  0  0  0  0  0  0  0  0  0
   19.9035   -8.8322  -18.9735 C   0  0  1  0  0  0  0  0  0  0  0  0
   18.8656   -8.2752  -19.9001 C   0  0  0  0  0  0  0  0  0  0  0  0
   19.1550   -8.5383  -21.3096 C   0  0  0  0  0  0  0  0  0  0  0  0
   18.3560   -8.8401  -22.2151 O   0  0  0  0  0  0  0  0  0  0  0  0
   19.8163   -8.2762  -17.6101 C   0  0  0  0  0  0  0  0  0  0  0  0
   18.9133   -8.6184  -16.8310 O   0  0  0  0  0  0  0  0  0  0  0  0
   20.5016   -8.4430  -21.7127 O   0  0  0  0  0  0  0  0  0  0  0  0
   20.7697   -7.3361  -17.1672 N   0  0  0  0  0  0  0  0  0  0  0  0
   20.6415   -6.7670  -15.8018 C   0  0  1  0  0  0  0  0  0  0  0  0
   21.8279   -7.1675  -15.0007 C   0  0  0  0  0  0  0  0  0  0  0  0
   21.9322   -8.5375  -14.5679 C   0  0  0  0  0  0  0  0  0  0  0  0
   21.1204   -9.6103  -14.7688 C   0  0  0  0  0  0  0  0  0  0  0  0
   21.6805  -10.7288  -14.2108 N   0  0  0  0  0  0  0  0  0  0  0  0
   22.8237  -10.3326  -13.6781 C   0  0  0  0  0  0  0  0  0  0  0  0
   23.0067   -9.0266  -13.8733 N   0  0  0  0  0  0  0  0  0  0  0  0
   20.5449   -5.3171  -16.0337 C   0  0  0  0  0  0  0  0  0  0  0  0
   20.6251   -4.8220  -17.1626 O   0  0  0  0  0  0  0  0  0  0  0  0
   20.3579   -4.4527  -14.9709 O   0  0  0  0  0  0  0  0  0  0  0  0
  2  3  1  1
  2  1  1  0
  4  2  1  0
  4  5  1  6
  6  4  1  0
  7  6  2  0
  8  6  1  0
  9 10  1  6
  9  8  1  0
 10 11  1  0
 11 15  1  0
 11 12  2  0
 13  9  1  0
 14 13  2  0
 16 13  1  0
 17 18  1  1
 17 16  1  0
 18 19  1  0
 19 20  2  0
 20 21  1  0
 22 21  1  0
 23 19  1  0
 23 22  2  0
 24 17  1  0
 25 24  2  0
 26 24  1  0
M  END
$$$$
