LTH.pdb
     RDKit          3D

 26 26  0  0  1  0  0  0  0  0999 V2000
    8.3207  -13.5035   18.7217 C   0  0  0  0  0  0  0  0  0  0  0  0
    8.7961  -13.1380   20.0895 C   0  0  1  0  0  0  0  0  0  0  0  0
    8.1952  -11.7860   20.4543 C   0  0  0  0  0  0  0  0  0  0  0  0
    8.4442  -14.1693   21.1336 C   0  0  0  0  0  0  0  0  0  0  0  0
    9.1403  -15.4502   20.8167 C   0  0  2  0  0  0  0  0  0  0  0  0
    8.4396  -16.0999   19.7196 N   0  0  0  0  0  0  0  0  0  0  0  0
    9.1181  -16.4125   21.9482 C   0  0  0  0  0  0  0  0  0  0  0  0
    8.2892  -17.3811   21.9048 O   0  0  0  0  0  0  0  0  0  0  0  0
    9.2726  -19.1329   22.4324 C   0  0  0  0  0  0  0  0  0  0  0  0
   10.3925  -18.7023   23.3715 C   0  0  1  0  0  0  0  0  0  0  0  0
   11.5879  -18.5388   22.7138 O   0  0  0  0  0  0  0  0  0  0  0  0
    9.9946  -17.4265   24.0924 C   0  0  2  0  0  0  0  0  0  0  0  0
    9.9525  -16.3435   23.0884 N   0  0  0  0  0  0  0  0  0  0  0  0
   10.8745  -17.0720   25.2069 C   0  0  0  0  0  0  0  0  0  0  0  0
   11.9909  -16.5059   24.9656 O   0  0  0  0  0  0  0  0  0  0  0  0
   10.5249  -17.3368   26.5384 N   0  0  0  0  0  0  0  0  0  0  0  0
   11.4046  -16.9688   27.6672 C   0  0  1  0  0  0  0  0  0  0  0  0
   10.6397  -16.2231   28.7064 C   0  0  0  0  0  0  0  0  0  0  0  0
    9.9737  -15.0479   28.1228 C   0  0  0  0  0  0  0  0  0  0  0  0
   10.0463  -14.5883   26.8311 C   0  0  0  0  0  0  0  0  0  0  0  0
    9.3064  -13.4563   26.7068 N   0  0  0  0  0  0  0  0  0  0  0  0
    8.7766  -13.2053   27.8987 C   0  0  0  0  0  0  0  0  0  0  0  0
    9.1688  -14.1610   28.7774 N   0  0  0  0  0  0  0  0  0  0  0  0
   11.9160  -18.2270   28.2305 C   0  0  0  0  0  0  0  0  0  0  0  0
   11.1852  -19.3970   28.3851 O   0  0  0  0  0  0  0  0  0  0  0  0
   13.1131  -18.2811   28.6173 O   0  0  0  0  0  0  0  0  0  0  0  0
  2  1  1  6
  2  4  1  0
  3  2  1  0
  4  5  1  0
  5  7  1  0
  5  6  1  6
  7  8  2  0
 10 12  1  0
 10  9  1  6
 11 10  1  0
 13  7  1  0
 12 13  1  6
 14 12  1  0
 14 15  2  0
 16 14  1  0
 17 16  1  0
 17 24  1  0
 17 18  1  1
 19 23  1  0
 19 18  1  0
 20 19  2  0
 21 20  1  0
 21 22  1  0
 22 23  2  0
 24 25  1  0
 26 24  2  0
M  END
$$$$
