LTH.pdb
     RDKit          3D

 26 26  0  0  1  0  0  0  0  0999 V2000
    7.6869  -12.1017   18.4775 C   0  0  0  0  0  0  0  0  0  0  0  0
    8.7091  -13.1817   18.6150 C   0  0  1  0  0  0  0  0  0  0  0  0
    9.9808  -12.5610   19.1804 C   0  0  0  0  0  0  0  0  0  0  0  0
    8.2490  -14.3247   19.4864 C   0  0  0  0  0  0  0  0  0  0  0  0
    9.3341  -15.3445   19.5767 C   0  0  2  0  0  0  0  0  0  0  0  0
    9.3156  -16.1501   18.3652 N   0  0  0  0  0  0  0  0  0  0  0  0
    9.1415  -16.2915   20.7049 C   0  0  0  0  0  0  0  0  0  0  0  0
    8.6306  -17.4339   20.4579 O   0  0  0  0  0  0  0  0  0  0  0  0
    9.7284  -18.7999   21.3292 C   0  0  0  0  0  0  0  0  0  0  0  0
   10.2811  -18.2337   22.6313 C   0  0  1  0  0  0  0  0  0  0  0  0
   11.5945  -17.8470   22.5134 O   0  0  0  0  0  0  0  0  0  0  0  0
    9.4168  -17.0740   23.0936 C   0  0  2  0  0  0  0  0  0  0  0  0
    9.4826  -16.0282   22.0523 N   0  0  0  0  0  0  0  0  0  0  0  0
    9.7927  -16.5343   24.4011 C   0  0  0  0  0  0  0  0  0  0  0  0
   10.7598  -15.7076   24.4808 O   0  0  0  0  0  0  0  0  0  0  0  0
    9.1176  -16.8999   25.5740 N   0  0  0  0  0  0  0  0  0  0  0  0
    9.3689  -16.2257   26.8647 C   0  0  1  0  0  0  0  0  0  0  0  0
    8.0860  -15.7983   27.4912 C   0  0  0  0  0  0  0  0  0  0  0  0
    7.5488  -14.6039   26.8203 C   0  0  0  0  0  0  0  0  0  0  0  0
    8.1686  -13.8032   25.8929 C   0  0  0  0  0  0  0  0  0  0  0  0
    7.3409  -12.7851   25.5426 N   0  0  0  0  0  0  0  0  0  0  0  0
    6.2190  -12.9398   26.2366 C   0  0  0  0  0  0  0  0  0  0  0  0
    6.3221  -14.0407   27.0218 N   0  0  0  0  0  0  0  0  0  0  0  0
   10.0435  -17.2064   27.7280 C   0  0  0  0  0  0  0  0  0  0  0  0
   10.6233  -16.9328   28.9592 O   0  0  0  0  0  0  0  0  0  0  0  0
   10.1216  -18.4040   27.3468 O   0  0  0  0  0  0  0  0  0  0  0  0
  2  1  1  1
  2  4  1  0
  3  2  1  0
  4  5  1  0
  5  7  1  0
  5  6  1  6
  7  8  2  0
 10 12  1  0
 10  9  1  6
 11 10  1  0
 13  7  1  0
 12 13  1  6
 14 12  1  0
 14 15  2  0
 16 14  1  0
 17 16  1  0
 17 24  1  0
 17 18  1  1
 19 23  1  0
 19 18  1  0
 20 19  2  0
 21 20  1  0
 21 22  1  0
 22 23  2  0
 24 25  1  0
 26 24  2  0
M  END
$$$$
