LTH.pdb
     RDKit          3D

 26 26  0  0  1  0  0  0  0  0999 V2000
    7.0448  -12.0539   18.9474 C   0  0  0  0  0  0  0  0  0  0  0  0
    8.1073  -13.1031   18.9272 C   0  0  1  0  0  0  0  0  0  0  0  0
    9.4521  -12.4196   19.1424 C   0  0  0  0  0  0  0  0  0  0  0  0
    7.8938  -14.1817   19.9610 C   0  0  0  0  0  0  0  0  0  0  0  0
    9.0600  -15.1120   19.9519 C   0  0  2  0  0  0  0  0  0  0  0  0
    8.9763  -15.9493   18.7650 N   0  0  0  0  0  0  0  0  0  0  0  0
    9.0651  -16.0399   21.1120 C   0  0  0  0  0  0  0  0  0  0  0  0
    8.0609  -16.8086   21.2786 O   0  0  0  0  0  0  0  0  0  0  0  0
   11.1886  -18.8153   21.7366 C   0  0  0  0  0  0  0  0  0  0  0  0
   11.2770  -18.0217   23.0341 C   0  0  1  0  0  0  0  0  0  0  0  0
   12.4369  -17.2896   23.1172 O   0  0  0  0  0  0  0  0  0  0  0  0
   10.0608  -17.1225   23.1688 C   0  0  2  0  0  0  0  0  0  0  0  0
   10.1071  -16.1440   22.0630 N   0  0  0  0  0  0  0  0  0  0  0  0
    9.9602  -16.4452   24.4623 C   0  0  0  0  0  0  0  0  0  0  0  0
   10.3858  -15.2489   24.5755 O   0  0  0  0  0  0  0  0  0  0  0  0
    9.4065  -17.0748   25.5858 N   0  0  0  0  0  0  0  0  0  0  0  0
    9.3146  -16.3987   26.8965 C   0  0  1  0  0  0  0  0  0  0  0  0
    7.9052  -16.0130   27.1895 C   0  0  0  0  0  0  0  0  0  0  0  0
    7.6617  -14.6075   26.8281 C   0  0  0  0  0  0  0  0  0  0  0  0
    8.5707  -13.6766   26.3897 C   0  0  0  0  0  0  0  0  0  0  0  0
    7.9470  -12.4863   26.1935 N   0  0  0  0  0  0  0  0  0  0  0  0
    6.6673  -12.6624   26.5029 C   0  0  0  0  0  0  0  0  0  0  0  0
    6.4695  -13.9463   26.8923 N   0  0  0  0  0  0  0  0  0  0  0  0
    9.7877  -17.3620   27.9016 C   0  0  0  0  0  0  0  0  0  0  0  0
   10.1032  -17.0625   29.2198 O   0  0  0  0  0  0  0  0  0  0  0  0
    9.9321  -18.5684   27.5710 O   0  0  0  0  0  0  0  0  0  0  0  0
  2  1  1  1
  2  4  1  0
  3  2  1  0
  4  5  1  0
  5  7  1  0
  5  6  1  6
  7  8  2  0
 10 12  1  0
 10  9  1  6
 11 10  1  0
 13  7  1  0
 12 13  1  6
 14 12  1  0
 14 15  2  0
 16 14  1  0
 17 16  1  0
 17 24  1  0
 17 18  1  1
 19 23  1  0
 19 18  1  0
 20 19  2  0
 21 20  1  0
 21 22  1  0
 22 23  2  0
 24 25  1  0
 26 24  2  0
M  END
$$$$
