LTH.pdb
     RDKit          3D

 26 26  0  0  1  0  0  0  0  0999 V2000
    7.7206  -12.2741   18.2622 C   0  0  0  0  0  0  0  0  0  0  0  0
    8.5664  -13.5044   18.2251 C   0  0  1  0  0  0  0  0  0  0  0  0
   10.0055  -13.0990   18.5199 C   0  0  0  0  0  0  0  0  0  0  0  0
    8.1096  -14.5662   19.1954 C   0  0  0  0  0  0  0  0  0  0  0  0
    8.9899  -15.7638   19.0672 C   0  0  2  0  0  0  0  0  0  0  0  0
    8.4219  -16.6520   18.0646 N   0  0  0  0  0  0  0  0  0  0  0  0
    9.0709  -16.5555   20.3215 C   0  0  0  0  0  0  0  0  0  0  0  0
    7.9991  -17.0680   20.7859 O   0  0  0  0  0  0  0  0  0  0  0  0
   11.5492  -18.8173   23.9619 C   0  0  0  0  0  0  0  0  0  0  0  0
   11.4894  -18.2282   22.5580 C   0  0  1  0  0  0  0  0  0  0  0  0
   11.5505  -19.1968   21.5852 O   0  0  0  0  0  0  0  0  0  0  0  0
   10.2320  -17.3905   22.4069 C   0  0  2  0  0  0  0  0  0  0  0  0
   10.2563  -16.7925   21.0562 N   0  0  0  0  0  0  0  0  0  0  0  0
   10.0760  -16.3585   23.4328 C   0  0  0  0  0  0  0  0  0  0  0  0
   10.9140  -15.3993   23.4862 O   0  0  0  0  0  0  0  0  0  0  0  0
    9.0276  -16.3925   24.3628 N   0  0  0  0  0  0  0  0  0  0  0  0
    8.7841  -15.2842   25.3094 C   0  0  1  0  0  0  0  0  0  0  0  0
    7.3350  -14.9383   25.3499 C   0  0  0  0  0  0  0  0  0  0  0  0
    7.0920  -13.8101   26.2627 C   0  0  0  0  0  0  0  0  0  0  0  0
    8.0134  -13.0890   26.9813 C   0  0  0  0  0  0  0  0  0  0  0  0
    7.3769  -12.1492   27.7269 N   0  0  0  0  0  0  0  0  0  0  0  0
    6.0771  -12.2748   27.4839 C   0  0  0  0  0  0  0  0  0  0  0  0
    5.8791  -13.2800   26.5952 N   0  0  0  0  0  0  0  0  0  0  0  0
    9.2219  -15.7556   26.6316 C   0  0  0  0  0  0  0  0  0  0  0  0
    9.6396  -14.9457   27.6787 O   0  0  0  0  0  0  0  0  0  0  0  0
    9.2332  -16.9927   26.8661 O   0  0  0  0  0  0  0  0  0  0  0  0
  2  1  1  1
  2  4  1  0
  3  2  1  0
  4  5  1  0
  5  7  1  0
  5  6  1  6
  7  8  2  0
 10 12  1  0
 10  9  1  1
 11 10  1  0
 13  7  1  0
 12 13  1  6
 14 12  1  0
 14 15  2  0
 16 14  1  0
 17 16  1  0
 17 24  1  0
 17 18  1  1
 19 23  1  0
 19 18  1  0
 20 19  2  0
 21 20  1  0
 21 22  1  0
 22 23  2  0
 24 25  1  0
 26 24  2  0
M  END
$$$$
