LTH.pdb
     RDKit          3D

 26 26  0  0  1  0  0  0  0  0999 V2000
    7.2253  -11.8730   19.2266 C   0  0  0  0  0  0  0  0  0  0  0  0
    8.2551  -12.9520   19.3019 C   0  0  1  0  0  0  0  0  0  0  0  0
    9.4595  -12.4052   20.0585 C   0  0  0  0  0  0  0  0  0  0  0  0
    7.7465  -14.2106   19.9612 C   0  0  0  0  0  0  0  0  0  0  0  0
    8.8586  -15.2003   20.0597 C   0  0  2  0  0  0  0  0  0  0  0  0
    8.7710  -16.1106   18.9281 N   0  0  0  0  0  0  0  0  0  0  0  0
    8.7700  -16.0461   21.2777 C   0  0  0  0  0  0  0  0  0  0  0  0
    8.1430  -17.1544   21.2025 O   0  0  0  0  0  0  0  0  0  0  0  0
    9.5827  -18.4865   21.9456 C   0  0  0  0  0  0  0  0  0  0  0  0
   10.1956  -17.8762   23.1999 C   0  0  1  0  0  0  0  0  0  0  0  0
   11.5072  -17.5116   23.0126 O   0  0  0  0  0  0  0  0  0  0  0  0
    9.3645  -16.6878   23.6502 C   0  0  2  0  0  0  0  0  0  0  0  0
    9.3318  -15.7202   22.5343 N   0  0  0  0  0  0  0  0  0  0  0  0
    9.8467  -16.0537   24.8780 C   0  0  0  0  0  0  0  0  0  0  0  0
   10.5529  -14.9953   24.7984 O   0  0  0  0  0  0  0  0  0  0  0  0
    9.5537  -16.5770   26.1450 N   0  0  0  0  0  0  0  0  0  0  0  0
    9.6794  -15.7675   27.3749 C   0  0  1  0  0  0  0  0  0  0  0  0
    8.3347  -15.3773   27.8853 C   0  0  0  0  0  0  0  0  0  0  0  0
    7.8255  -14.1974   27.1685 C   0  0  0  0  0  0  0  0  0  0  0  0
    8.4668  -13.0056   26.9371 C   0  0  0  0  0  0  0  0  0  0  0  0
    7.6394  -12.1649   26.2640 N   0  0  0  0  0  0  0  0  0  0  0  0
    6.4962  -12.8140   26.0742 C   0  0  0  0  0  0  0  0  0  0  0  0
    6.5856  -14.0538   26.6165 N   0  0  0  0  0  0  0  0  0  0  0  0
   10.3642  -16.6106   28.3660 C   0  0  0  0  0  0  0  0  0  0  0  0
   10.7483  -17.9307   28.1740 O   0  0  0  0  0  0  0  0  0  0  0  0
   10.6379  -16.1258   29.4954 O   0  0  0  0  0  0  0  0  0  0  0  0
  2  1  1  1
  2  4  1  0
  3  2  1  0
  4  5  1  0
  5  7  1  0
  5  6  1  6
  7  8  2  0
 10 12  1  0
 10  9  1  6
 11 10  1  0
 13  7  1  0
 12 13  1  6
 14 12  1  0
 14 15  2  0
 16 14  1  0
 17 16  1  0
 17 24  1  0
 17 18  1  1
 19 23  1  0
 19 18  1  0
 20 19  2  0
 21 20  1  0
 21 22  1  0
 22 23  2  0
 24 25  1  0
 26 24  2  0
M  END
$$$$
