LTH.pdb
     RDKit          3D

 26 26  0  0  1  0  0  0  0  0999 V2000
    5.2041  -12.2175   26.0514 C   0  0  0  0  0  0  0  0  0  0  0  0
    6.6107  -12.7105   25.9585 C   0  0  1  0  0  0  0  0  0  0  0  0
    7.4700  -11.8700   26.8952 C   0  0  0  0  0  0  0  0  0  0  0  0
    6.7475  -14.1759   26.2919 C   0  0  0  0  0  0  0  0  0  0  0  0
    6.5107  -14.9863   25.0618 C   0  0  2  0  0  0  0  0  0  0  0  0
    5.4190  -15.9128   25.3197 N   0  0  0  0  0  0  0  0  0  0  0  0
    7.6813  -15.8213   24.6885 C   0  0  0  0  0  0  0  0  0  0  0  0
    8.0022  -16.7920   25.4513 O   0  0  0  0  0  0  0  0  0  0  0  0
    8.4152  -17.1079   21.1235 C   0  0  0  0  0  0  0  0  0  0  0  0
    9.7254  -16.5933   21.7065 C   0  0  1  0  0  0  0  0  0  0  0  0
   10.0855  -15.3761   21.1801 O   0  0  0  0  0  0  0  0  0  0  0  0
    9.6182  -16.5164   23.2192 C   0  0  2  0  0  0  0  0  0  0  0  0
    8.4830  -15.6269   23.5394 N   0  0  0  0  0  0  0  0  0  0  0  0
   10.8416  -16.0619   23.8815 C   0  0  0  0  0  0  0  0  0  0  0  0
   11.2754  -14.8852   23.6525 O   0  0  0  0  0  0  0  0  0  0  0  0
   11.5540  -16.8848   24.7648 N   0  0  0  0  0  0  0  0  0  0  0  0
   12.8596  -16.4834   25.3287 C   0  0  1  0  0  0  0  0  0  0  0  0
   12.9835  -16.9415   26.7414 C   0  0  0  0  0  0  0  0  0  0  0  0
   12.1391  -16.1284   27.6308 C   0  0  0  0  0  0  0  0  0  0  0  0
   11.5462  -14.9193   27.3630 C   0  0  0  0  0  0  0  0  0  0  0  0
   10.8742  -14.4869   28.4610 N   0  0  0  0  0  0  0  0  0  0  0  0
   11.0402  -15.4062   29.4054 C   0  0  0  0  0  0  0  0  0  0  0  0
   11.8072  -16.4154   28.9232 N   0  0  0  0  0  0  0  0  0  0  0  0
   13.8914  -17.1278   24.5026 C   0  0  0  0  0  0  0  0  0  0  0  0
   13.6524  -17.9938   23.4444 O   0  0  0  0  0  0  0  0  0  0  0  0
   15.1042  -16.8979   24.7510 O   0  0  0  0  0  0  0  0  0  0  0  0
  2  1  1  1
  2  4  1  0
  3  2  1  0
  4  5  1  0
  5  7  1  0
  5  6  1  1
  7  8  2  0
 10 12  1  0
 10  9  1  6
 11 10  1  0
 13  7  1  0
 12 13  1  6
 14 12  1  0
 14 15  2  0
 16 14  1  0
 17 16  1  0
 17 24  1  0
 17 18  1  1
 19 23  1  0
 19 18  1  0
 20 19  2  0
 21 20  1  0
 21 22  1  0
 22 23  2  0
 24 25  1  0
 26 24  2  0
M  END
$$$$
