LTH.pdb
     RDKit          3D

 26 26  0  0  1  0  0  0  0  0999 V2000
    7.4111  -12.1505   18.8756 C   0  0  0  0  0  0  0  0  0  0  0  0
    8.3124  -13.2791   19.2554 C   0  0  1  0  0  0  0  0  0  0  0  0
    9.6852  -12.7013   19.5773 C   0  0  0  0  0  0  0  0  0  0  0  0
    7.7936  -14.0841   20.4217 C   0  0  0  0  0  0  0  0  0  0  0  0
    8.7805  -15.1492   20.7644 C   0  0  2  0  0  0  0  0  0  0  0  0
    8.6492  -16.2309   19.8003 N   0  0  0  0  0  0  0  0  0  0  0  0
    8.5347  -15.7537   22.0990 C   0  0  0  0  0  0  0  0  0  0  0  0
    7.5017  -16.4861   22.2524 O   0  0  0  0  0  0  0  0  0  0  0  0
    8.0845  -18.0619   22.9420 C   0  0  0  0  0  0  0  0  0  0  0  0
    9.1985  -17.8785   23.9651 C   0  0  1  0  0  0  0  0  0  0  0  0
   10.4232  -18.2618   23.4739 O   0  0  0  0  0  0  0  0  0  0  0  0
    9.2327  -16.4340   24.4322 C   0  0  2  0  0  0  0  0  0  0  0  0
    9.3637  -15.5822   23.2323 N   0  0  0  0  0  0  0  0  0  0  0  0
   10.2940  -16.1443   25.3974 C   0  0  0  0  0  0  0  0  0  0  0  0
   11.2028  -17.0136   25.6060 O   0  0  0  0  0  0  0  0  0  0  0  0
   10.3423  -14.9336   26.1024 N   0  0  0  0  0  0  0  0  0  0  0  0
   10.0292  -14.8540   27.5443 C   0  0  1  0  0  0  0  0  0  0  0  0
    8.5591  -14.9537   27.7677 C   0  0  0  0  0  0  0  0  0  0  0  0
    7.8691  -13.7628   27.2471 C   0  0  0  0  0  0  0  0  0  0  0  0
    8.4264  -12.6288   26.7100 C   0  0  0  0  0  0  0  0  0  0  0  0
    7.4449  -11.7516   26.3760 N   0  0  0  0  0  0  0  0  0  0  0  0
    6.2887  -12.3213   26.6970 C   0  0  0  0  0  0  0  0  0  0  0  0
    6.5216  -13.5467   27.2293 N   0  0  0  0  0  0  0  0  0  0  0  0
   10.7097  -15.9883   28.1865 C   0  0  0  0  0  0  0  0  0  0  0  0
   11.2550  -17.0805   27.5258 O   0  0  0  0  0  0  0  0  0  0  0  0
   10.8223  -16.0025   29.4406 O   0  0  0  0  0  0  0  0  0  0  0  0
  2  1  1  1
  2  4  1  0
  3  2  1  0
  4  5  1  0
  5  7  1  0
  5  6  1  6
  7  8  2  0
 10 12  1  0
 10  9  1  6
 11 10  1  0
 13  7  1  0
 12 13  1  6
 14 12  1  0
 14 15  2  0
 16 14  1  0
 17 16  1  0
 17 24  1  0
 17 18  1  6
 19 23  1  0
 19 18  1  0
 20 19  2  0
 21 20  1  0
 21 22  1  0
 22 23  2  0
 24 25  1  0
 26 24  2  0
M  END
$$$$
