LTH.pdb
     RDKit          3D

 26 26  0  0  1  0  0  0  0  0999 V2000
    9.4252  -14.9444   14.3900 C   0  0  0  0  0  0  0  0  0  0  0  0
    8.4616  -14.8614   15.5279 C   0  0  1  0  0  0  0  0  0  0  0  0
    8.1195  -16.2810   15.9635 C   0  0  0  0  0  0  0  0  0  0  0  0
    8.9918  -14.0660   16.6957 C   0  0  0  0  0  0  0  0  0  0  0  0
    7.9612  -14.0249   17.7737 C   0  0  2  0  0  0  0  0  0  0  0  0
    7.2023  -12.7904   17.6432 N   0  0  0  0  0  0  0  0  0  0  0  0
    8.5536  -14.0032   19.1358 C   0  0  0  0  0  0  0  0  0  0  0  0
    8.8541  -12.8747   19.6488 O   0  0  0  0  0  0  0  0  0  0  0  0
    8.5790  -15.1744   23.6874 C   0  0  0  0  0  0  0  0  0  0  0  0
    8.1305  -15.2940   22.2362 C   0  0  1  0  0  0  0  0  0  0  0  0
    7.0911  -14.4447   21.9421 O   0  0  0  0  0  0  0  0  0  0  0  0
    9.3098  -15.0432   21.3131 C   0  0  2  0  0  0  0  0  0  0  0  0
    8.8168  -15.1477   19.9243 N   0  0  0  0  0  0  0  0  0  0  0  0
   10.4426  -15.9429   21.5347 C   0  0  0  0  0  0  0  0  0  0  0  0
   10.3486  -17.1642   21.1814 O   0  0  0  0  0  0  0  0  0  0  0  0
   11.6341  -15.5002   22.1261 N   0  0  0  0  0  0  0  0  0  0  0  0
   12.8268  -16.3665   22.2280 C   0  0  1  0  0  0  0  0  0  0  0  0
   14.0726  -15.5633   22.0738 C   0  0  0  0  0  0  0  0  0  0  0  0
   14.2528  -15.1406   20.6759 C   0  0  0  0  0  0  0  0  0  0  0  0
   13.6352  -15.6380   19.5550 C   0  0  0  0  0  0  0  0  0  0  0  0
   14.1012  -14.9947   18.4534 N   0  0  0  0  0  0  0  0  0  0  0  0
   14.9971  -14.1075   18.8712 C   0  0  0  0  0  0  0  0  0  0  0  0
   15.1066  -14.1779   20.2211 N   0  0  0  0  0  0  0  0  0  0  0  0
   12.7898  -16.9789   23.5643 C   0  0  0  0  0  0  0  0  0  0  0  0
   11.8559  -16.7012   24.5530 O   0  0  0  0  0  0  0  0  0  0  0  0
   13.6664  -17.8293   23.8709 O   0  0  0  0  0  0  0  0  0  0  0  0
  2  1  1  6
  2  4  1  0
  3  2  1  0
  4  5  1  0
  5  7  1  0
  5  6  1  6
  7  8  2  0
 10 12  1  0
 10  9  1  1
 11 10  1  0
 13  7  1  0
 12 13  1  6
 14 12  1  0
 14 15  2  0
 16 14  1  0
 17 16  1  0
 17 24  1  0
 17 18  1  1
 19 23  1  0
 19 18  1  0
 20 19  2  0
 21 20  1  0
 21 22  1  0
 22 23  2  0
 24 25  1  0
 26 24  2  0
M  END
$$$$
