LTH.pdb
     RDKit          3D

 26 26  0  0  1  0  0  0  0  0999 V2000
    7.4954  -11.8068   19.2723 C   0  0  0  0  0  0  0  0  0  0  0  0
    8.4096  -12.9870   19.2313 C   0  0  1  0  0  0  0  0  0  0  0  0
    9.8110  -12.5135   19.5976 C   0  0  0  0  0  0  0  0  0  0  0  0
    7.9753  -14.1044   20.1479 C   0  0  0  0  0  0  0  0  0  0  0  0
    8.9683  -15.2155   20.0769 C   0  0  2  0  0  0  0  0  0  0  0  0
    8.6188  -16.0793   18.9595 N   0  0  0  0  0  0  0  0  0  0  0  0
    8.9539  -16.0784   21.2860 C   0  0  0  0  0  0  0  0  0  0  0  0
    7.9264  -16.8027   21.5024 O   0  0  0  0  0  0  0  0  0  0  0  0
   10.5612  -18.9792   21.9304 C   0  0  0  0  0  0  0  0  0  0  0  0
   10.9381  -18.1839   23.1741 C   0  0  1  0  0  0  0  0  0  0  0  0
   12.2134  -17.6774   23.1000 O   0  0  0  0  0  0  0  0  0  0  0  0
    9.9282  -17.0722   23.3972 C   0  0  2  0  0  0  0  0  0  0  0  0
   10.0011  -16.1656   22.2330 N   0  0  0  0  0  0  0  0  0  0  0  0
   10.1194  -16.3347   24.6468 C   0  0  0  0  0  0  0  0  0  0  0  0
   10.9618  -15.3787   24.6850 O   0  0  0  0  0  0  0  0  0  0  0  0
    9.4002  -16.6486   25.8084 N   0  0  0  0  0  0  0  0  0  0  0  0
    9.5557  -15.8763   27.0585 C   0  0  1  0  0  0  0  0  0  0  0  0
    8.2239  -15.5547   27.6450 C   0  0  0  0  0  0  0  0  0  0  0  0
    7.5619  -14.4838   26.8833 C   0  0  0  0  0  0  0  0  0  0  0  0
    8.1371  -13.5627   26.0432 C   0  0  0  0  0  0  0  0  0  0  0  0
    7.1822  -12.7271   25.5591 N   0  0  0  0  0  0  0  0  0  0  0  0
    6.0250  -13.1133   26.0846 C   0  0  0  0  0  0  0  0  0  0  0  0
    6.2311  -14.1814   26.8945 N   0  0  0  0  0  0  0  0  0  0  0  0
   10.3178  -16.7253   27.9862 C   0  0  0  0  0  0  0  0  0  0  0  0
   10.7375  -18.0236   27.7313 O   0  0  0  0  0  0  0  0  0  0  0  0
   10.6303  -16.2672   29.1167 O   0  0  0  0  0  0  0  0  0  0  0  0
  2  1  1  1
  2  4  1  0
  3  2  1  0
  4  5  1  0
  5  7  1  0
  5  6  1  6
  7  8  2  0
 10 12  1  0
 10  9  1  6
 11 10  1  0
 13  7  1  0
 12 13  1  6
 14 12  1  0
 14 15  2  0
 16 14  1  0
 17 16  1  0
 17 24  1  0
 17 18  1  1
 19 23  1  0
 19 18  1  0
 20 19  2  0
 21 20  1  0
 21 22  1  0
 22 23  2  0
 24 25  1  0
 26 24  2  0
M  END
$$$$
