LTH.pdb
     RDKit          3D

 26 26  0  0  1  0  0  0  0  0999 V2000
    7.0637  -11.9469   19.4761 C   0  0  0  0  0  0  0  0  0  0  0  0
    7.5351  -13.3601   19.3705 C   0  0  1  0  0  0  0  0  0  0  0  0
    8.3745  -13.4860   18.1049 C   0  0  0  0  0  0  0  0  0  0  0  0
    8.3261  -13.8116   20.5737 C   0  0  0  0  0  0  0  0  0  0  0  0
    8.6507  -15.2612   20.4355 C   0  0  2  0  0  0  0  0  0  0  0  0
    7.4212  -16.0270   20.5727 N   0  0  0  0  0  0  0  0  0  0  0  0
    9.5630  -15.7509   21.5008 C   0  0  0  0  0  0  0  0  0  0  0  0
    9.1042  -15.8701   22.6850 O   0  0  0  0  0  0  0  0  0  0  0  0
    9.7604  -17.8819   23.3396 C   0  0  0  0  0  0  0  0  0  0  0  0
   11.1350  -18.0600   22.7071 C   0  0  1  0  0  0  0  0  0  0  0  0
   11.0916  -18.8504   21.5839 O   0  0  0  0  0  0  0  0  0  0  0  0
   11.7321  -16.7009   22.3875 C   0  0  2  0  0  0  0  0  0  0  0  0
   10.9199  -16.1015   21.3089 N   0  0  0  0  0  0  0  0  0  0  0  0
   13.1466  -16.7437   22.0146 C   0  0  0  0  0  0  0  0  0  0  0  0
   13.4663  -16.7890   20.7814 O   0  0  0  0  0  0  0  0  0  0  0  0
   14.1659  -16.7356   22.9771 N   0  0  0  0  0  0  0  0  0  0  0  0
   15.5371  -16.2843   22.6618 C   0  0  1  0  0  0  0  0  0  0  0  0
   15.5424  -14.8394   22.2965 C   0  0  0  0  0  0  0  0  0  0  0  0
   15.4734  -14.6689   20.8365 C   0  0  0  0  0  0  0  0  0  0  0  0
   15.1341  -15.6040   19.8902 C   0  0  0  0  0  0  0  0  0  0  0  0
   15.2217  -15.0532   18.6519 N   0  0  0  0  0  0  0  0  0  0  0  0
   15.6097  -13.7932   18.8134 C   0  0  0  0  0  0  0  0  0  0  0  0
   15.7695  -13.5360   20.1354 N   0  0  0  0  0  0  0  0  0  0  0  0
   16.3397  -16.4951   23.8757 C   0  0  0  0  0  0  0  0  0  0  0  0
   17.7263  -16.5312   23.9294 O   0  0  0  0  0  0  0  0  0  0  0  0
   15.7506  -16.6629   24.9758 O   0  0  0  0  0  0  0  0  0  0  0  0
  2  1  1  1
  2  4  1  0
  3  2  1  0
  4  5  1  0
  5  7  1  0
  5  6  1  1
  7  8  2  0
 10 12  1  0
 10  9  1  6
 11 10  1  0
 13  7  1  0
 12 13  1  6
 14 12  1  0
 14 15  2  0
 16 14  1  0
 17 16  1  0
 17 24  1  0
 17 18  1  1
 19 23  1  0
 19 18  1  0
 20 19  2  0
 21 20  1  0
 21 22  1  0
 22 23  2  0
 24 25  1  0
 26 24  2  0
M  END
$$$$
