ERF.pdb
     RDKit          3D

 32 32  0  0  1  0  0  0  0  0999 V2000
   23.9819  -18.7831  -20.3702 N   0  0  0  0  0  0  0  0  0  0  0  0
   24.1593  -19.0539  -18.9750 C   0  0  1  0  0  0  0  0  0  0  0  0
   23.1021  -18.4188  -18.1136 C   0  0  0  0  0  0  0  0  0  0  0  0
   23.2017  -16.9316  -18.1331 C   0  0  0  0  0  0  0  0  0  0  0  0
   22.1840  -16.2941  -17.3002 C   0  0  0  0  0  0  0  0  0  0  0  0
   21.0403  -16.7564  -17.0976 O   0  0  0  0  0  0  0  0  0  0  0  0
   24.2362  -20.5193  -18.7681 C   0  0  0  0  0  0  0  0  0  0  0  0
   23.4076  -21.2638  -19.3274 O   0  0  0  0  0  0  0  0  0  0  0  0
   22.4989  -15.0737  -16.6759 O   0  0  0  0  0  0  0  0  0  0  0  0
   27.3772  -27.3760  -15.7115 N   0  0  0  0  0  0  0  0  0  0  0  0
   28.0321  -27.1931  -16.9532 C   0  0  0  0  0  0  0  0  0  0  0  0
   28.2254  -28.2036  -17.7476 N   0  0  0  0  0  0  0  0  0  0  0  0
   28.4948  -25.8980  -17.3585 N   0  0  0  0  0  0  0  0  0  0  0  0
   28.1645  -24.7228  -16.5749 C   0  0  0  0  0  0  0  0  0  0  0  0
   26.7433  -24.2944  -16.7700 C   0  0  0  0  0  0  0  0  0  0  0  0
   26.6357  -22.8510  -17.1947 C   0  0  0  0  0  0  0  0  0  0  0  0
   25.2302  -22.4495  -17.5590 C   0  0  2  0  0  0  0  0  0  0  0  0
   25.2469  -21.0446  -17.9406 N   0  0  0  0  0  0  0  0  0  0  0  0
   24.3729  -22.6276  -16.3441 C   0  0  0  0  0  0  0  0  0  0  0  0
   24.6729  -22.0936  -15.2371 O   0  0  0  0  0  0  0  0  0  0  0  0
   28.6765  -28.0411  -18.6745 N   0  0  0  0  0  0  0  0  0  0  0  0
   23.2079  -23.4023  -16.4223 C   0  0  1  0  0  0  0  0  0  0  0  0
   22.3233  -23.5871  -15.2620 C   0  0  0  0  0  0  0  0  0  0  0  0
   21.0737  -22.8186  -15.5683 C   0  0  0  0  0  0  0  0  0  0  0  0
   21.2663  -21.3596  -15.4298 C   0  0  0  0  0  0  0  0  0  0  0  0
   21.4319  -20.7992  -14.1757 C   0  0  0  0  0  0  0  0  0  0  0  0
   21.6139  -19.4548  -14.0537 C   0  0  0  0  0  0  0  0  0  0  0  0
   21.6335  -18.6499  -15.1810 C   0  0  0  0  0  0  0  0  0  0  0  0
   21.4701  -19.1921  -16.4411 C   0  0  0  0  0  0  0  0  0  0  0  0
   21.2864  -20.5624  -16.5393 C   0  0  0  0  0  0  0  0  0  0  0  0
   22.1183  -25.0280  -15.0856 O   0  0  0  0  0  0  0  0  0  0  0  0
   21.4910  -25.5091  -14.0989 O   0  0  0  0  0  0  0  0  0  0  0  0
  2  1  1  6
  2  3  1  0
  3  4  1  0
  5  4  1  0
  6  5  2  0
  7  2  1  0
  8  7  2  0
  9  5  1  0
 10 11  1  0
 11 13  1  0
 11 12  2  0
 13 14  1  0
 14 15  1  0
 15 16  1  0
 17 16  1  1
 17 18  1  0
 18  7  1  0
 19 21  1  0
 19 17  1  0
 20 19  2  0
 22 30  1  0
 22 21  1  0
 22 23  1  1
 24 23  1  0
 24 25  2  0
 26 25  1  0
 27 26  2  0
 28 29  2  0
 28 27  1  0
 29 24  1  0
 30 32  1  0
 31 30  2  0
M  END
$$$$
