ERF.pdb
     RDKit          3D

 32 32  0  0  1  0  0  0  0  0999 V2000
   24.4462  -17.3822  -19.7623 N   0  0  0  0  0  0  0  0  0  0  0  0
   24.4600  -17.4288  -18.3308 C   0  0  1  0  0  0  0  0  0  0  0  0
   23.1867  -16.9184  -17.7136 C   0  0  0  0  0  0  0  0  0  0  0  0
   23.0377  -15.4476  -17.9046 C   0  0  0  0  0  0  0  0  0  0  0  0
   21.8613  -14.9135  -17.2215 C   0  0  0  0  0  0  0  0  0  0  0  0
   21.7912  -14.6964  -15.9923 O   0  0  0  0  0  0  0  0  0  0  0  0
   24.7755  -18.8081  -17.8903 C   0  0  0  0  0  0  0  0  0  0  0  0
   23.9649  -19.7271  -18.1181 O   0  0  0  0  0  0  0  0  0  0  0  0
   20.7194  -14.6180  -17.9879 O   0  0  0  0  0  0  0  0  0  0  0  0
   29.8077  -24.8358  -16.2904 N   0  0  0  0  0  0  0  0  0  0  0  0
   28.9106  -24.5201  -17.3391 C   0  0  0  0  0  0  0  0  0  0  0  0
   28.3315  -25.4680  -18.0141 N   0  0  0  0  0  0  0  0  0  0  0  0
   28.6240  -23.1568  -17.6782 N   0  0  0  0  0  0  0  0  0  0  0  0
   29.0919  -22.0763  -16.8309 C   0  0  0  0  0  0  0  0  0  0  0  0
   28.0947  -21.7141  -15.7745 C   0  0  0  0  0  0  0  0  0  0  0  0
   27.5804  -20.3051  -15.9347 C   0  0  0  0  0  0  0  0  0  0  0  0
   26.1511  -20.2522  -16.4078 C   0  0  2  0  0  0  0  0  0  0  0  0
   25.9889  -19.0551  -17.2204 N   0  0  0  0  0  0  0  0  0  0  0  0
   25.2711  -20.1597  -15.1996 C   0  0  0  0  0  0  0  0  0  0  0  0
   25.5351  -19.3708  -14.2464 O   0  0  0  0  0  0  0  0  0  0  0  0
   27.6537  -25.2140  -18.7659 N   0  0  0  0  0  0  0  0  0  0  0  0
   24.1252  -20.9611  -15.1107 C   0  0  2  0  0  0  0  0  0  0  0  0
   23.2867  -20.9793  -13.9025 C   0  0  0  0  0  0  0  0  0  0  0  0
   22.9727  -19.5465  -13.5955 C   0  0  0  0  0  0  0  0  0  0  0  0
   22.0121  -19.4109  -12.4803 C   0  0  0  0  0  0  0  0  0  0  0  0
   22.4399  -19.5728  -11.1745 C   0  0  0  0  0  0  0  0  0  0  0  0
   21.5518  -19.4423  -10.1501 C   0  0  0  0  0  0  0  0  0  0  0  0
   20.2239  -19.1481  -10.4132 C   0  0  0  0  0  0  0  0  0  0  0  0
   19.7790  -18.9828  -11.7106 C   0  0  0  0  0  0  0  0  0  0  0  0
   20.7016  -19.1207  -12.7358 C   0  0  0  0  0  0  0  0  0  0  0  0
   22.1114  -21.8068  -14.1908 O   0  0  0  0  0  0  0  0  0  0  0  0
   21.6820  -21.9911  -15.3656 O   0  0  0  0  0  0  0  0  0  0  0  0
  2  1  1  6
  2  3  1  0
  3  4  1  0
  5  4  1  0
  6  5  2  0
  7  2  1  0
  8  7  2  0
  9  5  1  0
 10 11  1  0
 11 13  1  0
 11 12  2  0
 13 14  1  0
 14 15  1  0
 15 16  1  0
 17 16  1  1
 17 18  1  0
 18  7  1  0
 19 21  1  0
 19 17  1  0
 20 19  2  0
 22 30  1  0
 22 21  1  0
 22 23  1  6
 24 23  1  0
 24 25  2  0
 26 25  1  0
 27 26  2  0
 28 29  2  0
 28 27  1  0
 29 24  1  0
 30 32  1  0
 31 30  2  0
M  END
$$$$
