ERF.pdb
     RDKit          3D

 32 32  0  0  1  0  0  0  0  0999 V2000
   28.6438  -18.9431  -17.1359 N   0  0  0  0  0  0  0  0  0  0  0  0
   28.0066  -19.9596  -16.3534 C   0  0  1  0  0  0  0  0  0  0  0  0
   28.9843  -20.8359  -15.6192 C   0  0  0  0  0  0  0  0  0  0  0  0
   29.6621  -21.7909  -16.5415 C   0  0  0  0  0  0  0  0  0  0  0  0
   28.7619  -22.8388  -17.0184 C   0  0  0  0  0  0  0  0  0  0  0  0
   28.0163  -23.5230  -16.2844 O   0  0  0  0  0  0  0  0  0  0  0  0
   27.0300  -19.3281  -15.4348 C   0  0  0  0  0  0  0  0  0  0  0  0
   27.3282  -18.2652  -14.8562 O   0  0  0  0  0  0  0  0  0  0  0  0
   28.7205  -23.1080  -18.3984 O   0  0  0  0  0  0  0  0  0  0  0  0
   18.8958  -18.3326  -16.9480 N   0  0  0  0  0  0  0  0  0  0  0  0
   19.4951  -19.5437  -16.5256 C   0  0  0  0  0  0  0  0  0  0  0  0
   18.9878  -20.6858  -16.8833 N   0  0  0  0  0  0  0  0  0  0  0  0
   20.6661  -19.5371  -15.6984 N   0  0  0  0  0  0  0  0  0  0  0  0
   21.1775  -18.2905  -15.1609 C   0  0  0  0  0  0  0  0  0  0  0  0
   22.4205  -18.4918  -14.3512 C   0  0  0  0  0  0  0  0  0  0  0  0
   23.5464  -19.0732  -15.1695 C   0  0  0  0  0  0  0  0  0  0  0  0
   24.7900  -19.3291  -14.3587 C   0  0  2  0  0  0  0  0  0  0  0  0
   25.7798  -19.9430  -15.2323 N   0  0  0  0  0  0  0  0  0  0  0  0
   24.4332  -20.2820  -13.2599 C   0  0  0  0  0  0  0  0  0  0  0  0
   24.1720  -21.4973  -13.4954 O   0  0  0  0  0  0  0  0  0  0  0  0
   19.4187  -21.5664  -16.5256 N   0  0  0  0  0  0  0  0  0  0  0  0
   24.3836  -19.8287  -11.9350 C   0  0  1  0  0  0  0  0  0  0  0  0
   24.1452  -20.7481  -10.8120 C   0  0  0  0  0  0  0  0  0  0  0  0
   24.9239  -20.1986   -9.6554 C   0  0  0  0  0  0  0  0  0  0  0  0
   26.3827  -20.2535   -9.8869 C   0  0  0  0  0  0  0  0  0  0  0  0
   26.9537  -21.3857  -10.4405 C   0  0  0  0  0  0  0  0  0  0  0  0
   28.2978  -21.4296  -10.6563 C   0  0  0  0  0  0  0  0  0  0  0  0
   29.0921  -20.3446  -10.3231 C   0  0  0  0  0  0  0  0  0  0  0  0
   28.5393  -19.2058   -9.7698 C   0  0  0  0  0  0  0  0  0  0  0  0
   27.1695  -19.1853   -9.5598 C   0  0  0  0  0  0  0  0  0  0  0  0
   22.6975  -20.8111  -10.5900 O   0  0  0  0  0  0  0  0  0  0  0  0
   21.8836  -20.0590  -11.1986 O   0  0  0  0  0  0  0  0  0  0  0  0
  2  1  1  1
  2  3  1  0
  3  4  1  0
  5  4  1  0
  6  5  2  0
  7  2  1  0
  8  7  2  0
  9  5  1  0
 10 11  1  0
 11 13  1  0
 11 12  2  0
 13 14  1  0
 14 15  1  0
 15 16  1  0
 17 16  1  6
 17 18  1  0
 18  7  1  0
 19 21  1  0
 19 17  1  0
 20 19  2  0
 22 30  1  0
 22 21  1  0
 22 23  1  1
 24 23  1  0
 24 25  2  0
 26 25  1  0
 27 26  2  0
 28 29  2  0
 28 27  1  0
 29 24  1  0
 30 32  1  0
 31 30  2  0
M  END
$$$$
