ERF.pdb
     RDKit          3D

 32 32  0  0  1  0  0  0  0  0999 V2000
   25.9878  -27.3012  -18.3594 N   0  0  0  0  0  0  0  0  0  0  0  0
   26.6542  -26.6355  -17.2804 C   0  0  1  0  0  0  0  0  0  0  0  0
   28.1083  -26.3714  -17.5608 C   0  0  0  0  0  0  0  0  0  0  0  0
   28.7707  -27.5569  -18.1755 C   0  0  0  0  0  0  0  0  0  0  0  0
   29.3005  -28.4805  -17.1744 C   0  0  0  0  0  0  0  0  0  0  0  0
   29.1759  -28.3366  -15.9389 O   0  0  0  0  0  0  0  0  0  0  0  0
   25.9197  -25.3928  -16.9455 C   0  0  0  0  0  0  0  0  0  0  0  0
   26.3469  -24.6509  -16.0396 O   0  0  0  0  0  0  0  0  0  0  0  0
   30.0025  -29.6161  -17.6171 O   0  0  0  0  0  0  0  0  0  0  0  0
   26.5760  -22.1844  -22.1342 N   0  0  0  0  0  0  0  0  0  0  0  0
   25.3253  -22.8171  -22.3339 C   0  0  0  0  0  0  0  0  0  0  0  0
   25.1842  -23.7102  -23.2677 N   0  0  0  0  0  0  0  0  0  0  0  0
   24.1941  -22.4877  -21.5169 N   0  0  0  0  0  0  0  0  0  0  0  0
   24.3559  -21.6512  -20.3430 C   0  0  0  0  0  0  0  0  0  0  0  0
   24.7481  -22.4430  -19.1344 C   0  0  0  0  0  0  0  0  0  0  0  0
   23.5757  -23.1684  -18.5224 C   0  0  0  0  0  0  0  0  0  0  0  0
   23.9412  -23.9249  -17.2721 C   0  0  2  0  0  0  0  0  0  0  0  0
   24.7490  -25.0727  -17.6591 N   0  0  0  0  0  0  0  0  0  0  0  0
   22.6714  -24.3990  -16.6352 C   0  0  0  0  0  0  0  0  0  0  0  0
   21.9021  -25.2163  -17.2190 O   0  0  0  0  0  0  0  0  0  0  0  0
   24.2498  -24.1527  -23.4093 N   0  0  0  0  0  0  0  0  0  0  0  0
   22.3156  -23.9333  -15.3624 C   0  0  1  0  0  0  0  0  0  0  0  0
   21.0945  -24.3941  -14.6843 C   0  0  0  0  0  0  0  0  0  0  0  0
   21.5396  -25.4107  -13.6771 C   0  0  0  0  0  0  0  0  0  0  0  0
   21.7510  -26.7424  -14.2825 C   0  0  0  0  0  0  0  0  0  0  0  0
   23.0218  -27.1363  -14.6623 C   0  0  0  0  0  0  0  0  0  0  0  0
   23.2122  -28.3664  -15.2154 C   0  0  0  0  0  0  0  0  0  0  0  0
   22.1378  -29.2217  -15.3976 C   0  0  0  0  0  0  0  0  0  0  0  0
   20.8620  -28.8453  -15.0241 C   0  0  0  0  0  0  0  0  0  0  0  0
   20.6938  -27.5889  -14.4637 C   0  0  0  0  0  0  0  0  0  0  0  0
   20.4378  -23.2180  -14.1058 O   0  0  0  0  0  0  0  0  0  0  0  0
   19.3303  -23.2876  -13.5000 O   0  0  0  0  0  0  0  0  0  0  0  0
  2  1  1  6
  2  3  1  0
  3  4  1  0
  5  4  1  0
  6  5  2  0
  7  2  1  0
  8  7  2  0
  9  5  1  0
 10 11  1  0
 11 13  1  0
 11 12  2  0
 13 14  1  0
 14 15  1  0
 15 16  1  0
 17 16  1  6
 17 18  1  0
 18  7  1  0
 19 21  1  0
 19 17  1  0
 20 19  2  0
 22 30  1  0
 22 21  1  0
 22 23  1  6
 24 23  1  0
 24 25  2  0
 26 25  1  0
 27 26  2  0
 28 29  2  0
 28 27  1  0
 29 24  1  0
 30 32  1  0
 31 30  2  0
M  END
$$$$
