TGY.pdb
     RDKit          3D

 24 24  0  0  1  0  0  0  0  0999 V2000
    7.4044  -12.3253   19.2871 C   0  0  0  0  0  0  0  0  0  0  0  0
    7.7855  -13.5728   18.4918 C   0  0  1  0  0  0  0  0  0  0  0  0
    8.3701  -13.2202   17.2780 O   0  0  0  0  0  0  0  0  0  0  0  0
    8.7894  -14.3302   19.3449 C   0  0  2  0  0  0  0  0  0  0  0  0
    9.2654  -15.4505   18.5757 N   0  0  0  0  0  0  0  0  0  0  0  0
    8.2251  -14.7468   20.6424 C   0  0  0  0  0  0  0  0  0  0  0  0
    7.8704  -13.8750   21.4665 O   0  0  0  0  0  0  0  0  0  0  0  0
    8.0939  -16.1162   20.9346 N   0  0  0  0  0  0  0  0  0  0  0  0
    7.4787  -16.5421   22.1551 C   0  0  0  0  0  0  0  0  0  0  0  0
    8.4580  -16.2981   23.2748 C   0  0  0  0  0  0  0  0  0  0  0  0
    9.6539  -16.0106   23.0194 O   0  0  0  0  0  0  0  0  0  0  0  0
    6.0455  -10.5871   26.0516 O   0  0  0  0  0  0  0  0  0  0  0  0
    6.6411  -11.8253   26.2643 C   0  0  0  0  0  0  0  0  0  0  0  0
    8.0085  -12.0021   26.2357 C   0  0  0  0  0  0  0  0  0  0  0  0
    8.6154  -13.2183   26.4436 C   0  0  0  0  0  0  0  0  0  0  0  0
    7.8552  -14.3347   26.6947 C   0  0  0  0  0  0  0  0  0  0  0  0
    8.3995  -15.6721   26.9191 C   0  0  0  0  0  0  0  0  0  0  0  0
    9.0797  -16.1744   25.6685 C   0  0  2  0  0  0  0  0  0  0  0  0
    8.0612  -16.3853   24.6274 N   0  0  0  0  0  0  0  0  0  0  0  0
    9.7727  -17.4393   25.9680 C   0  0  0  0  0  0  0  0  0  0  0  0
   10.8941  -17.6008   26.7305 O   0  0  0  0  0  0  0  0  0  0  0  0
    6.4674  -14.1848   26.7297 C   0  0  0  0  0  0  0  0  0  0  0  0
    5.8939  -12.9558   26.5179 C   0  0  0  0  0  0  0  0  0  0  0  0
    9.2832  -18.5129   25.4629 O   0  0  0  0  0  0  0  0  0  0  0  0
  2  1  1  1
  3  2  1  0
  4  2  1  0
  4  6  1  0
  4  5  1  6
  6  7  2  0
  8  9  1  0
  8  6  1  0
  9 10  1  0
 10 19  1  0
 10 11  2  0
 12 13  1  0
 13 23  2  0
 14 13  1  0
 14 15  2  0
 15 16  1  0
 16 22  2  0
 16 17  1  0
 18 17  1  1
 19 18  1  0
 20 18  1  0
 20 21  1  0
 23 22  1  0
 24 20  2  0
M  END
$$$$
