TGY.pdb
     RDKit          3D

 24 24  0  0  1  0  0  0  0  0999 V2000
    8.6356  -12.4631   20.1296 C   0  0  0  0  0  0  0  0  0  0  0  0
    8.1449  -13.0112   18.7907 C   0  0  1  0  0  0  0  0  0  0  0  0
    8.6876  -12.2831   17.7348 O   0  0  0  0  0  0  0  0  0  0  0  0
    8.6232  -14.4520   18.7205 C   0  0  2  0  0  0  0  0  0  0  0  0
    8.3463  -14.9446   17.3962 N   0  0  0  0  0  0  0  0  0  0  0  0
    8.0175  -15.2980   19.7660 C   0  0  0  0  0  0  0  0  0  0  0  0
    7.0065  -15.9824   19.4931 O   0  0  0  0  0  0  0  0  0  0  0  0
    8.5841  -15.3233   21.0529 N   0  0  0  0  0  0  0  0  0  0  0  0
    8.0439  -16.1773   22.0669 C   0  0  0  0  0  0  0  0  0  0  0  0
    8.8603  -15.9804   23.3187 C   0  0  0  0  0  0  0  0  0  0  0  0
   10.0137  -15.4870   23.2521 O   0  0  0  0  0  0  0  0  0  0  0  0
    5.9009  -10.7443   26.0986 O   0  0  0  0  0  0  0  0  0  0  0  0
    6.4841  -11.9903   26.3000 C   0  0  0  0  0  0  0  0  0  0  0  0
    5.7791  -13.1672   26.1607 C   0  0  0  0  0  0  0  0  0  0  0  0
    6.3385  -14.4081   26.3556 C   0  0  0  0  0  0  0  0  0  0  0  0
    7.6617  -14.5208   26.7075 C   0  0  0  0  0  0  0  0  0  0  0  0
    8.3484  -15.7882   26.9470 C   0  0  0  0  0  0  0  0  0  0  0  0
    9.2167  -16.1421   25.7638 C   0  0  2  0  0  0  0  0  0  0  0  0
    8.3555  -16.3418   24.5872 N   0  0  0  0  0  0  0  0  0  0  0  0
    9.9655  -17.3747   26.0632 C   0  0  0  0  0  0  0  0  0  0  0  0
   11.0348  -17.5026   26.9031 O   0  0  0  0  0  0  0  0  0  0  0  0
    8.4000  -13.3449   26.8555 C   0  0  0  0  0  0  0  0  0  0  0  0
    7.8102  -12.1219   26.6531 C   0  0  0  0  0  0  0  0  0  0  0  0
    9.5855  -18.4517   25.4774 O   0  0  0  0  0  0  0  0  0  0  0  0
  2  1  1  1
  3  2  1  0
  4  2  1  0
  4  6  1  0
  4  5  1  6
  6  7  2  0
  8  9  1  0
  8  6  1  0
  9 10  1  0
 10 19  1  0
 10 11  2  0
 12 13  1  0
 13 23  2  0
 14 13  1  0
 14 15  2  0
 15 16  1  0
 16 22  2  0
 16 17  1  0
 18 17  1  1
 19 18  1  0
 20 18  1  0
 20 21  1  0
 23 22  1  0
 24 20  2  0
M  END
$$$$
