TGY.pdb
     RDKit          3D

 24 24  0  0  1  0  0  0  0  0999 V2000
    7.8233  -12.6140   20.8536 C   0  0  0  0  0  0  0  0  0  0  0  0
    8.6259  -13.4616   21.8392 C   0  0  1  0  0  0  0  0  0  0  0  0
    8.3528  -13.0788   23.1501 O   0  0  0  0  0  0  0  0  0  0  0  0
    8.1841  -14.8992   21.6211 C   0  0  2  0  0  0  0  0  0  0  0  0
    6.7444  -14.9216   21.6122 N   0  0  0  0  0  0  0  0  0  0  0  0
    8.7479  -15.8202   22.6258 C   0  0  0  0  0  0  0  0  0  0  0  0
    8.0029  -16.2925   23.5129 O   0  0  0  0  0  0  0  0  0  0  0  0
   10.1130  -16.1540   22.5726 N   0  0  0  0  0  0  0  0  0  0  0  0
   10.6133  -17.2813   23.2995 C   0  0  0  0  0  0  0  0  0  0  0  0
   11.1345  -16.7821   24.6230 C   0  0  0  0  0  0  0  0  0  0  0  0
   12.2192  -17.2185   25.0823 O   0  0  0  0  0  0  0  0  0  0  0  0
    5.0683  -13.2168   25.9350 O   0  0  0  0  0  0  0  0  0  0  0  0
    6.4161  -13.4156   26.2123 C   0  0  0  0  0  0  0  0  0  0  0  0
    7.3707  -12.4506   25.9686 C   0  0  0  0  0  0  0  0  0  0  0  0
    8.7076  -12.6289   26.2362 C   0  0  0  0  0  0  0  0  0  0  0  0
    9.1519  -13.8130   26.7725 C   0  0  0  0  0  0  0  0  0  0  0  0
   10.5490  -14.1067   27.0843 C   0  0  0  0  0  0  0  0  0  0  0  0
   10.8662  -15.5445   26.7508 C   0  0  2  0  0  0  0  0  0  0  0  0
   10.4242  -15.8201   25.3744 N   0  0  0  0  0  0  0  0  0  0  0  0
   10.1652  -16.4281   27.6984 C   0  0  0  0  0  0  0  0  0  0  0  0
   10.4156  -16.5636   29.0341 O   0  0  0  0  0  0  0  0  0  0  0  0
    8.2068  -14.8081   27.0299 C   0  0  0  0  0  0  0  0  0  0  0  0
    6.8794  -14.5970   26.7508 C   0  0  0  0  0  0  0  0  0  0  0  0
    9.2168  -17.1568   27.2328 O   0  0  0  0  0  0  0  0  0  0  0  0
  2  1  1  6
  3  2  1  0
  4  2  1  0
  4  6  1  0
  4  5  1  1
  6  7  2  0
  8  9  1  0
  8  6  1  0
  9 10  1  0
 10 19  1  0
 10 11  2  0
 12 13  1  0
 13 23  2  0
 14 13  1  0
 14 15  2  0
 15 16  1  0
 16 22  2  0
 16 17  1  0
 18 17  1  1
 19 18  1  0
 20 18  1  0
 20 21  1  0
 23 22  1  0
 24 20  2  0
M  END
$$$$
