TGY.pdb
     RDKit          3D

 24 24  0  0  1  0  0  0  0  0999 V2000
    6.6055  -17.4577   16.4756 C   0  0  0  0  0  0  0  0  0  0  0  0
    7.5812  -17.8442   17.5858 C   0  0  1  0  0  0  0  0  0  0  0  0
    8.8241  -18.1758   17.0521 O   0  0  0  0  0  0  0  0  0  0  0  0
    7.7150  -16.6216   18.4784 C   0  0  2  0  0  0  0  0  0  0  0  0
    9.0884  -16.1914   18.4342 N   0  0  0  0  0  0  0  0  0  0  0  0
    7.2572  -16.8779   19.8569 C   0  0  0  0  0  0  0  0  0  0  0  0
    6.0428  -17.0878   20.0720 O   0  0  0  0  0  0  0  0  0  0  0  0
    8.1909  -16.8828   20.9087 N   0  0  0  0  0  0  0  0  0  0  0  0
    7.7829  -17.2168   22.2396 C   0  0  0  0  0  0  0  0  0  0  0  0
    8.7592  -16.5792   23.1948 C   0  0  0  0  0  0  0  0  0  0  0  0
    9.7339  -15.9182   22.7576 O   0  0  0  0  0  0  0  0  0  0  0  0
    5.2259  -11.3612   25.4514 O   0  0  0  0  0  0  0  0  0  0  0  0
    6.1247  -12.3746   25.7650 C   0  0  0  0  0  0  0  0  0  0  0  0
    7.4485  -12.1233   26.0587 C   0  0  0  0  0  0  0  0  0  0  0  0
    8.3517  -13.1119   26.3709 C   0  0  0  0  0  0  0  0  0  0  0  0
    7.9529  -14.4262   26.4014 C   0  0  0  0  0  0  0  0  0  0  0  0
    8.8335  -15.5504   26.7111 C   0  0  0  0  0  0  0  0  0  0  0  0
    9.5584  -16.0028   25.4665 C   0  0  2  0  0  0  0  0  0  0  0  0
    8.6058  -16.7066   24.5930 N   0  0  0  0  0  0  0  0  0  0  0  0
   10.6615  -16.9016   25.8475 C   0  0  0  0  0  0  0  0  0  0  0  0
   10.7748  -18.2314   25.5575 O   0  0  0  0  0  0  0  0  0  0  0  0
    6.6175  -14.7098   26.1082 C   0  0  0  0  0  0  0  0  0  0  0  0
    5.7418  -13.6984   25.8005 C   0  0  0  0  0  0  0  0  0  0  0  0
   11.6255  -16.3956   26.5271 O   0  0  0  0  0  0  0  0  0  0  0  0
  2  1  1  6
  3  2  1  0
  4  2  1  0
  4  6  1  0
  4  5  1  1
  6  7  2  0
  8  9  1  0
  8  6  1  0
  9 10  1  0
 10 19  1  0
 10 11  2  0
 12 13  1  0
 13 23  2  0
 14 13  1  0
 14 15  2  0
 15 16  1  0
 16 22  2  0
 16 17  1  0
 18 17  1  1
 19 18  1  0
 20 18  1  0
 20 21  1  0
 23 22  1  0
 24 20  2  0
M  END
$$$$
