TGY.pdb
     RDKit          3D

 24 24  0  0  1  0  0  0  0  0999 V2000
    8.8333  -12.5263   19.9897 C   0  0  0  0  0  0  0  0  0  0  0  0
    8.2170  -12.9935   18.6721 C   0  0  1  0  0  0  0  0  0  0  0  0
    8.7483  -12.2780   17.6019 O   0  0  0  0  0  0  0  0  0  0  0  0
    8.5735  -14.4643   18.5343 C   0  0  2  0  0  0  0  0  0  0  0  0
    8.1638  -14.8965   17.2234 N   0  0  0  0  0  0  0  0  0  0  0  0
    7.9797  -15.2902   19.6025 C   0  0  0  0  0  0  0  0  0  0  0  0
    6.9531  -15.9628   19.3601 O   0  0  0  0  0  0  0  0  0  0  0  0
    8.5749  -15.3099   20.8765 N   0  0  0  0  0  0  0  0  0  0  0  0
    7.9764  -16.0501   21.9457 C   0  0  0  0  0  0  0  0  0  0  0  0
    8.8159  -15.8384   23.1797 C   0  0  0  0  0  0  0  0  0  0  0  0
    9.9626  -15.3336   23.0872 O   0  0  0  0  0  0  0  0  0  0  0  0
    5.5855  -10.7978   25.8546 O   0  0  0  0  0  0  0  0  0  0  0  0
    6.2586  -11.9931   26.0811 C   0  0  0  0  0  0  0  0  0  0  0  0
    5.6970  -13.2215   25.8027 C   0  0  0  0  0  0  0  0  0  0  0  0
    6.3470  -14.4136   26.0199 C   0  0  0  0  0  0  0  0  0  0  0  0
    7.6190  -14.4213   26.5388 C   0  0  0  0  0  0  0  0  0  0  0  0
    8.3915  -15.6303   26.8158 C   0  0  0  0  0  0  0  0  0  0  0  0
    9.2297  -15.9995   25.6157 C   0  0  2  0  0  0  0  0  0  0  0  0
    8.3406  -16.1982   24.4600 N   0  0  0  0  0  0  0  0  0  0  0  0
    9.9735  -17.2374   25.9060 C   0  0  0  0  0  0  0  0  0  0  0  0
    9.8350  -18.4443   25.2819 O   0  0  0  0  0  0  0  0  0  0  0  0
    8.2124  -13.1914   26.8300 C   0  0  0  0  0  0  0  0  0  0  0  0
    7.5352  -12.0195   26.6008 C   0  0  0  0  0  0  0  0  0  0  0  0
   10.8471  -17.1931   26.8452 O   0  0  0  0  0  0  0  0  0  0  0  0
  2  1  1  1
  3  2  1  0
  4  2  1  0
  4  6  1  0
  4  5  1  6
  6  7  2  0
  8  9  1  0
  8  6  1  0
  9 10  1  0
 10 19  1  0
 10 11  2  0
 12 13  1  0
 13 23  2  0
 14 13  1  0
 14 15  2  0
 15 16  1  0
 16 22  2  0
 16 17  1  0
 18 17  1  1
 19 18  1  0
 20 18  1  0
 20 21  1  0
 23 22  1  0
 24 20  2  0
M  END
$$$$
