TGY.pdb
     RDKit          3D

 24 24  0  0  1  0  0  0  0  0999 V2000
    7.4130  -12.9438   20.4883 C   0  0  0  0  0  0  0  0  0  0  0  0
    8.3570  -14.1266   20.6971 C   0  0  1  0  0  0  0  0  0  0  0  0
    9.5753  -13.6953   21.2161 O   0  0  0  0  0  0  0  0  0  0  0  0
    7.6712  -15.0469   21.6932 C   0  0  2  0  0  0  0  0  0  0  0  0
    7.4096  -14.2870   22.8879 N   0  0  0  0  0  0  0  0  0  0  0  0
    8.4577  -16.2637   21.9697 C   0  0  0  0  0  0  0  0  0  0  0  0
    8.6821  -17.0739   21.0434 O   0  0  0  0  0  0  0  0  0  0  0  0
    8.9436  -16.4956   23.2689 N   0  0  0  0  0  0  0  0  0  0  0  0
   10.0866  -17.3319   23.4777 C   0  0  0  0  0  0  0  0  0  0  0  0
   10.7416  -16.9044   24.7663 C   0  0  0  0  0  0  0  0  0  0  0  0
   11.9361  -17.2130   25.0030 O   0  0  0  0  0  0  0  0  0  0  0  0
    5.2204  -12.7596   25.9989 O   0  0  0  0  0  0  0  0  0  0  0  0
    6.5157  -13.1504   26.3194 C   0  0  0  0  0  0  0  0  0  0  0  0
    6.8333  -13.7353   27.5272 C   0  0  0  0  0  0  0  0  0  0  0  0
    8.1079  -14.1282   27.8618 C   0  0  0  0  0  0  0  0  0  0  0  0
    9.1414  -13.9450   26.9755 C   0  0  0  0  0  0  0  0  0  0  0  0
   10.5301  -14.3174   27.2365 C   0  0  0  0  0  0  0  0  0  0  0  0
   10.7318  -15.7910   26.9780 C   0  0  2  0  0  0  0  0  0  0  0  0
   10.0368  -16.1530   25.7324 N   0  0  0  0  0  0  0  0  0  0  0  0
   10.1860  -16.5610   28.1091 C   0  0  0  0  0  0  0  0  0  0  0  0
   10.5649  -16.4773   29.4185 O   0  0  0  0  0  0  0  0  0  0  0  0
    8.8484  -13.3550   25.7444 C   0  0  0  0  0  0  0  0  0  0  0  0
    7.5645  -12.9745   25.4422 C   0  0  0  0  0  0  0  0  0  0  0  0
    9.2558  -17.4069   27.8514 O   0  0  0  0  0  0  0  0  0  0  0  0
  2  1  1  1
  3  2  1  0
  4  2  1  0
  4  6  1  0
  4  5  1  1
  6  7  2  0
  8  9  1  0
  8  6  1  0
  9 10  1  0
 10 19  1  0
 10 11  2  0
 12 13  1  0
 13 23  2  0
 14 13  1  0
 14 15  2  0
 15 16  1  0
 16 22  2  0
 16 17  1  0
 18 17  1  1
 19 18  1  0
 20 18  1  0
 20 21  1  0
 23 22  1  0
 24 20  2  0
M  END
$$$$
