WWD.pdb
     RDKit          3D

 37 40  0  0  1  0  0  0  0  0999 V2000
   28.3363  -20.2056  -11.1178 N   0  0  0  0  0  0  0  0  0  0  0  0
   27.2257  -21.0786  -11.2551 C   0  0  1  0  0  0  0  0  0  0  0  0
   26.6534  -21.5060   -9.8975 C   0  0  0  0  0  0  0  0  0  0  0  0
   27.5421  -21.1102   -8.7786 C   0  0  0  0  0  0  0  0  0  0  0  0
   27.2591  -20.3354   -7.6635 C   0  0  0  0  0  0  0  0  0  0  0  0
   28.3516  -20.2351   -6.8867 N   0  0  0  0  0  0  0  0  0  0  0  0
   29.3771  -20.9207   -7.4389 C   0  0  0  0  0  0  0  0  0  0  0  0
   30.6911  -21.1357   -7.0704 C   0  0  0  0  0  0  0  0  0  0  0  0
   31.5559  -21.8844   -7.8308 C   0  0  0  0  0  0  0  0  0  0  0  0
   31.0640  -22.4224   -8.9915 C   0  0  0  0  0  0  0  0  0  0  0  0
   29.7444  -22.2159   -9.3765 C   0  0  0  0  0  0  0  0  0  0  0  0
   28.8859  -21.4706   -8.6182 C   0  0  0  0  0  0  0  0  0  0  0  0
   26.1018  -20.5209  -12.0921 C   0  0  0  0  0  0  0  0  0  0  0  0
   25.3510  -19.6855  -11.5026 O   0  0  0  0  0  0  0  0  0  0  0  0
   25.8462  -20.8506  -13.4213 N   0  0  0  0  0  0  0  0  0  0  0  0
   24.8530  -20.3601  -14.3147 C   0  0  1  0  0  0  0  0  0  0  0  0
   25.3744  -19.6794  -15.4823 C   0  0  0  0  0  0  0  0  0  0  0  0
   25.9473  -18.3442  -15.1840 C   0  0  0  0  0  0  0  0  0  0  0  0
   27.2464  -18.0869  -14.7205 C   0  0  0  0  0  0  0  0  0  0  0  0
   27.4222  -16.7681  -14.5878 N   0  0  0  0  0  0  0  0  0  0  0  0
   26.2876  -16.0981  -14.9416 C   0  0  0  0  0  0  0  0  0  0  0  0
   25.9567  -14.7636  -14.9664 C   0  0  0  0  0  0  0  0  0  0  0  0
   24.7169  -14.3434  -15.3555 C   0  0  0  0  0  0  0  0  0  0  0  0
   23.8009  -15.3483  -15.7261 C   0  0  0  0  0  0  0  0  0  0  0  0
   24.1425  -16.6753  -15.6983 C   0  0  0  0  0  0  0  0  0  0  0  0
   25.3865  -17.0889  -15.3081 C   0  0  0  0  0  0  0  0  0  0  0  0
   23.6845  -21.2443  -14.5038 C   0  0  0  0  0  0  0  0  0  0  0  0
   23.8108  -22.4683  -14.3135 O   0  0  0  0  0  0  0  0  0  0  0  0
   22.4073  -20.8012  -14.8949 N   0  0  0  0  0  0  0  0  0  0  0  0
   21.2658  -21.6977  -14.7811 C   0  0  1  0  0  0  0  0  0  0  0  0
   20.8249  -21.8697  -13.3584 C   0  0  0  0  0  0  0  0  0  0  0  0
   19.6658  -22.7737  -13.1891 C   0  0  0  0  0  0  0  0  0  0  0  0
   19.0664  -23.2631  -14.1625 O   0  0  0  0  0  0  0  0  0  0  0  0
   20.1427  -20.9367  -15.4636 C   0  0  0  0  0  0  0  0  0  0  0  0
   19.3105  -21.5817  -16.3608 O   0  0  0  0  0  0  0  0  0  0  0  0
   19.2362  -23.0813  -11.8902 O   0  0  0  0  0  0  0  0  0  0  0  0
   19.9143  -19.7264  -15.2605 O   0  0  0  0  0  0  0  0  0  0  0  0
  2  1  1  1
  3  2  1  0
  3  4  1  0
  4  5  2  0
  5  6  1  0
  7  6  1  0
  8  7  2  0
  9  8  1  0
 10 11  1  0
 10  9  2  0
 11 12  2  0
 12  4  1  0
 12  7  1  0
 13  2  1  0
 13 14  2  0
 15 13  1  0
 16 17  1  6
 16 15  1  0
 18 26  1  0
 18 17  1  0
 19 18  2  0
 20 19  1  0
 20 21  1  0
 21 22  1  0
 21 26  2  0
 22 23  2  0
 23 24  1  0
 25 24  2  0
 26 25  1  0
 27 16  1  0
 28 27  2  0
 29 27  1  0
 30 29  1  0
 30 31  1  1
 32 31  1  0
 33 32  2  0
 34 30  1  0
 34 35  1  0
 36 32  1  0
 37 34  2  0
M  END
$$$$
