WWD.pdb
     RDKit          3D

 37 40  0  0  1  0  0  0  0  0999 V2000
   28.9244  -20.1922  -15.4514 N   0  0  0  0  0  0  0  0  0  0  0  0
   27.7036  -19.8728  -14.8017 C   0  0  1  0  0  0  0  0  0  0  0  0
   26.6298  -19.3960  -15.7881 C   0  0  0  0  0  0  0  0  0  0  0  0
   27.0607  -18.1829  -16.5237 C   0  0  0  0  0  0  0  0  0  0  0  0
   27.4388  -18.0483  -17.8514 C   0  0  0  0  0  0  0  0  0  0  0  0
   27.7408  -16.7649  -18.1135 N   0  0  0  0  0  0  0  0  0  0  0  0
   27.5799  -16.0148  -17.0007 C   0  0  0  0  0  0  0  0  0  0  0  0
   27.7549  -14.6736  -16.7189 C   0  0  0  0  0  0  0  0  0  0  0  0
   27.5250  -14.1474  -15.4711 C   0  0  0  0  0  0  0  0  0  0  0  0
   27.1084  -15.0131  -14.4936 C   0  0  0  0  0  0  0  0  0  0  0  0
   26.9273  -16.3652  -14.7607 C   0  0  0  0  0  0  0  0  0  0  0  0
   27.1565  -16.8863  -16.0030 C   0  0  0  0  0  0  0  0  0  0  0  0
   27.1291  -20.9988  -13.9791 C   0  0  0  0  0  0  0  0  0  0  0  0
   27.2040  -22.1490  -14.5088 O   0  0  0  0  0  0  0  0  0  0  0  0
   26.5453  -20.8621  -12.7216 N   0  0  0  0  0  0  0  0  0  0  0  0
   25.4183  -21.5213  -12.1555 C   0  0  1  0  0  0  0  0  0  0  0  0
   25.6473  -22.0885  -10.8424 C   0  0  0  0  0  0  0  0  0  0  0  0
   26.3978  -21.1907   -9.9310 C   0  0  0  0  0  0  0  0  0  0  0  0
   25.8474  -20.1814   -9.1266 C   0  0  0  0  0  0  0  0  0  0  0  0
   26.8172  -19.5938   -8.4182 N   0  0  0  0  0  0  0  0  0  0  0  0
   28.0256  -20.1589   -8.7041 C   0  0  0  0  0  0  0  0  0  0  0  0
   29.3042  -19.9095   -8.2638 C   0  0  0  0  0  0  0  0  0  0  0  0
   30.3709  -20.6242   -8.7293 C   0  0  0  0  0  0  0  0  0  0  0  0
   30.0891  -21.6242   -9.6817 C   0  0  0  0  0  0  0  0  0  0  0  0
   28.8104  -21.8644  -10.1122 C   0  0  0  0  0  0  0  0  0  0  0  0
   27.7468  -21.1450   -9.6410 C   0  0  0  0  0  0  0  0  0  0  0  0
   24.1172  -20.8651  -12.3993 C   0  0  0  0  0  0  0  0  0  0  0  0
   23.9983  -19.6467  -12.1721 O   0  0  0  0  0  0  0  0  0  0  0  0
   22.9706  -21.5263  -12.8780 N   0  0  0  0  0  0  0  0  0  0  0  0
   21.7340  -20.7815  -13.0674 C   0  0  1  0  0  0  0  0  0  0  0  0
   21.5531  -20.3433  -14.4898 C   0  0  0  0  0  0  0  0  0  0  0  0
   21.9053  -21.3751  -15.4902 C   0  0  0  0  0  0  0  0  0  0  0  0
   22.2240  -22.5304  -15.1586 O   0  0  0  0  0  0  0  0  0  0  0  0
   20.6507  -21.8173  -12.8222 C   0  0  0  0  0  0  0  0  0  0  0  0
   19.3199  -21.4403  -12.8025 O   0  0  0  0  0  0  0  0  0  0  0  0
   21.8780  -21.0316  -16.8495 O   0  0  0  0  0  0  0  0  0  0  0  0
   20.8914  -23.0271  -12.6309 O   0  0  0  0  0  0  0  0  0  0  0  0
  2  1  1  6
  3  2  1  0
  3  4  1  0
  4  5  2  0
  5  6  1  0
  7  6  1  0
  8  7  2  0
  9  8  1  0
 10 11  1  0
 10  9  2  0
 11 12  2  0
 12  4  1  0
 12  7  1  0
 13  2  1  0
 13 14  2  0
 15 13  1  0
 16 17  1  1
 16 15  1  0
 18 26  1  0
 18 17  1  0
 19 18  2  0
 20 19  1  0
 20 21  1  0
 21 22  1  0
 21 26  2  0
 22 23  2  0
 23 24  1  0
 25 24  2  0
 26 25  1  0
 27 16  1  0
 28 27  2  0
 29 27  1  0
 30 29  1  0
 30 31  1  6
 32 31  1  0
 33 32  2  0
 34 30  1  0
 34 35  1  0
 36 32  1  0
 37 34  2  0
M  END
$$$$
