WWD.pdb
     RDKit          3D

 37 40  0  0  1  0  0  0  0  0999 V2000
   27.0990  -20.9622  -17.0818 N   0  0  0  0  0  0  0  0  0  0  0  0
   26.0149  -20.3565  -16.3946 C   0  0  1  0  0  0  0  0  0  0  0  0
   24.7238  -20.3701  -17.2229 C   0  0  0  0  0  0  0  0  0  0  0  0
   24.8269  -19.4924  -18.4135 C   0  0  0  0  0  0  0  0  0  0  0  0
   24.9619  -19.8371  -19.7503 C   0  0  0  0  0  0  0  0  0  0  0  0
   25.0031  -18.7271  -20.5073 N   0  0  0  0  0  0  0  0  0  0  0  0
   24.8998  -17.6293  -19.7256 C   0  0  0  0  0  0  0  0  0  0  0  0
   24.8943  -16.2716  -19.9809 C   0  0  0  0  0  0  0  0  0  0  0  0
   24.7822  -15.3351  -18.9823 C   0  0  0  0  0  0  0  0  0  0  0  0
   24.6743  -15.7998  -17.6975 C   0  0  0  0  0  0  0  0  0  0  0  0
   24.6779  -17.1626  -17.4235 C   0  0  0  0  0  0  0  0  0  0  0  0
   24.7895  -18.0924  -18.4188 C   0  0  0  0  0  0  0  0  0  0  0  0
   25.7222  -20.9642  -15.0456 C   0  0  0  0  0  0  0  0  0  0  0  0
   25.3783  -22.1850  -15.0650 O   0  0  0  0  0  0  0  0  0  0  0  0
   25.8041  -20.2963  -13.8257 N   0  0  0  0  0  0  0  0  0  0  0  0
   25.0996  -20.5164  -12.6090 C   0  0  1  0  0  0  0  0  0  0  0  0
   25.7473  -19.9777  -11.4304 C   0  0  0  0  0  0  0  0  0  0  0  0
   27.1661  -20.3879  -11.2934 C   0  0  0  0  0  0  0  0  0  0  0  0
   28.1463  -20.3210  -12.2950 C   0  0  0  0  0  0  0  0  0  0  0  0
   29.3154  -20.7495  -11.8077 N   0  0  0  0  0  0  0  0  0  0  0  0
   29.1815  -21.1148  -10.5000 C   0  0  0  0  0  0  0  0  0  0  0  0
   30.0621  -21.6234   -9.5744 C   0  0  0  0  0  0  0  0  0  0  0  0
   29.6642  -21.9287   -8.3042 C   0  0  0  0  0  0  0  0  0  0  0  0
   28.3082  -21.6963   -7.9980 C   0  0  0  0  0  0  0  0  0  0  0  0
   27.4400  -21.1879   -8.9286 C   0  0  0  0  0  0  0  0  0  0  0  0
   27.8459  -20.8837  -10.1989 C   0  0  0  0  0  0  0  0  0  0  0  0
   23.6306  -20.3887  -12.7002 C   0  0  0  0  0  0  0  0  0  0  0  0
   23.1308  -19.2749  -12.9454 O   0  0  0  0  0  0  0  0  0  0  0  0
   22.7275  -21.4538  -12.5247 N   0  0  0  0  0  0  0  0  0  0  0  0
   21.2961  -21.2127  -12.6368 C   0  0  1  0  0  0  0  0  0  0  0  0
   20.6706  -22.0335  -13.7245 C   0  0  0  0  0  0  0  0  0  0  0  0
   19.1934  -21.9581  -13.7661 C   0  0  0  0  0  0  0  0  0  0  0  0
   18.5797  -20.9188  -13.4670 O   0  0  0  0  0  0  0  0  0  0  0  0
   20.7363  -21.7674  -11.3386 C   0  0  0  0  0  0  0  0  0  0  0  0
   19.9075  -20.9896  -10.5501 O   0  0  0  0  0  0  0  0  0  0  0  0
   18.4720  -23.0965  -14.1535 O   0  0  0  0  0  0  0  0  0  0  0  0
   20.9840  -22.9182  -10.9232 O   0  0  0  0  0  0  0  0  0  0  0  0
  2  1  1  6
  3  2  1  0
  3  4  1  0
  4  5  2  0
  5  6  1  0
  7  6  1  0
  8  7  2  0
  9  8  1  0
 10 11  1  0
 10  9  2  0
 11 12  2  0
 12  4  1  0
 12  7  1  0
 13  2  1  0
 13 14  2  0
 15 13  1  0
 16 17  1  1
 16 15  1  0
 18 26  1  0
 18 17  1  0
 19 18  2  0
 20 19  1  0
 20 21  1  0
 21 22  1  0
 21 26  2  0
 22 23  2  0
 23 24  1  0
 25 24  2  0
 26 25  1  0
 27 16  1  0
 28 27  2  0
 29 27  1  0
 30 29  1  0
 30 31  1  6
 32 31  1  0
 33 32  2  0
 34 30  1  0
 34 35  1  0
 36 32  1  0
 37 34  2  0
M  END
$$$$
