WWD.pdb
     RDKit          3D

 37 40  0  0  1  0  0  0  0  0999 V2000
   28.2066  -19.6974  -16.1940 N   0  0  0  0  0  0  0  0  0  0  0  0
   27.0194  -19.9715  -15.4662 C   0  0  1  0  0  0  0  0  0  0  0  0
   25.8570  -20.3721  -16.3835 C   0  0  0  0  0  0  0  0  0  0  0  0
   25.5149  -19.2912  -17.3389 C   0  0  0  0  0  0  0  0  0  0  0  0
   25.9100  -19.1271  -18.6584 C   0  0  0  0  0  0  0  0  0  0  0  0
   25.3558  -18.0130  -19.1670 N   0  0  0  0  0  0  0  0  0  0  0  0
   24.5904  -17.4080  -18.2316 C   0  0  0  0  0  0  0  0  0  0  0  0
   23.8231  -16.2592  -18.2219 C   0  0  0  0  0  0  0  0  0  0  0  0
   23.1290  -15.8468  -17.1107 C   0  0  0  0  0  0  0  0  0  0  0  0
   23.2239  -16.6270  -15.9879 C   0  0  0  0  0  0  0  0  0  0  0  0
   23.9914  -17.7860  -15.9811 C   0  0  0  0  0  0  0  0  0  0  0  0
   24.6810  -18.1942  -17.0880 C   0  0  0  0  0  0  0  0  0  0  0  0
   27.1767  -21.0319  -14.4052 C   0  0  0  0  0  0  0  0  0  0  0  0
   27.6925  -22.1211  -14.8008 O   0  0  0  0  0  0  0  0  0  0  0  0
   26.8075  -20.8960  -13.0687 N   0  0  0  0  0  0  0  0  0  0  0  0
   26.0037  -21.7359  -12.2479 C   0  0  1  0  0  0  0  0  0  0  0  0
   26.6154  -22.1161  -10.9910 C   0  0  0  0  0  0  0  0  0  0  0  0
   26.5979  -21.0378   -9.9726 C   0  0  0  0  0  0  0  0  0  0  0  0
   25.5313  -20.1643   -9.7119 C   0  0  0  0  0  0  0  0  0  0  0  0
   25.8603  -19.3411   -8.7109 N   0  0  0  0  0  0  0  0  0  0  0  0
   27.1218  -19.6109   -8.2670 C   0  0  0  0  0  0  0  0  0  0  0  0
   27.9111  -19.0510   -7.2901 C   0  0  0  0  0  0  0  0  0  0  0  0
   29.1761  -19.5052   -7.0479 C   0  0  0  0  0  0  0  0  0  0  0  0
   29.6246  -20.5724   -7.8518 C   0  0  0  0  0  0  0  0  0  0  0  0
   28.8285  -21.1232   -8.8218 C   0  0  0  0  0  0  0  0  0  0  0  0
   27.5622  -20.6634   -9.0584 C   0  0  0  0  0  0  0  0  0  0  0  0
   24.5623  -21.4115  -12.2362 C   0  0  0  0  0  0  0  0  0  0  0  0
   23.9960  -21.1963  -11.1484 O   0  0  0  0  0  0  0  0  0  0  0  0
   23.7570  -21.3270  -13.3874 N   0  0  0  0  0  0  0  0  0  0  0  0
   22.7155  -22.3186  -13.6143 C   0  0  1  0  0  0  0  0  0  0  0  0
   23.1844  -23.7084  -13.3036 C   0  0  0  0  0  0  0  0  0  0  0  0
   23.6081  -24.4836  -14.4906 C   0  0  0  0  0  0  0  0  0  0  0  0
   23.5809  -23.9997  -15.6356 O   0  0  0  0  0  0  0  0  0  0  0  0
   21.6763  -21.9959  -12.5550 C   0  0  0  0  0  0  0  0  0  0  0  0
   21.7460  -22.5913  -11.3083 O   0  0  0  0  0  0  0  0  0  0  0  0
   24.0505  -25.8021  -14.3106 O   0  0  0  0  0  0  0  0  0  0  0  0
   20.7318  -21.2016  -12.7426 O   0  0  0  0  0  0  0  0  0  0  0  0
  2  1  1  6
  3  2  1  0
  3  4  1  0
  4  5  2  0
  5  6  1  0
  7  6  1  0
  8  7  2  0
  9  8  1  0
 10 11  1  0
 10  9  2  0
 11 12  2  0
 12  4  1  0
 12  7  1  0
 13  2  1  0
 13 14  2  0
 15 13  1  0
 16 17  1  1
 16 15  1  0
 18 26  1  0
 18 17  1  0
 19 18  2  0
 20 19  1  0
 20 21  1  0
 21 22  1  0
 21 26  2  0
 22 23  2  0
 23 24  1  0
 25 24  2  0
 26 25  1  0
 27 16  1  0
 28 27  2  0
 29 27  1  0
 30 29  1  0
 30 31  1  1
 32 31  1  0
 33 32  2  0
 34 30  1  0
 34 35  1  0
 36 32  1  0
 37 34  2  0
M  END
$$$$
