WWD.pdb
     RDKit          3D

 37 40  0  0  1  0  0  0  0  0999 V2000
   24.0408  -19.8708   -8.3552 N   0  0  0  0  0  0  0  0  0  0  0  0
   25.3423  -20.0517   -8.8915 C   0  0  1  0  0  0  0  0  0  0  0  0
   26.0732  -21.2385   -8.2507 C   0  0  0  0  0  0  0  0  0  0  0  0
   26.3554  -20.9983   -6.8151 C   0  0  0  0  0  0  0  0  0  0  0  0
   25.5677  -21.2726   -5.7068 C   0  0  0  0  0  0  0  0  0  0  0  0
   26.2131  -20.9087   -4.5852 N   0  0  0  0  0  0  0  0  0  0  0  0
   27.4232  -20.3920   -4.8941 C   0  0  0  0  0  0  0  0  0  0  0  0
   28.4599  -19.8718   -4.1436 C   0  0  0  0  0  0  0  0  0  0  0  0
   29.6128  -19.3906   -4.7144 C   0  0  0  0  0  0  0  0  0  0  0  0
   29.7042  -19.4433   -6.0809 C   0  0  0  0  0  0  0  0  0  0  0  0
   28.6703  -19.9638   -6.8507 C   0  0  0  0  0  0  0  0  0  0  0  0
   27.5242  -20.4421   -6.2803 C   0  0  0  0  0  0  0  0  0  0  0  0
   25.3742  -20.2246  -10.3894 C   0  0  0  0  0  0  0  0  0  0  0  0
   24.3398  -20.7569  -10.8950 O   0  0  0  0  0  0  0  0  0  0  0  0
   26.4264  -19.8496  -11.2220 N   0  0  0  0  0  0  0  0  0  0  0  0
   26.4417  -19.5837  -12.6199 C   0  0  1  0  0  0  0  0  0  0  0  0
   27.6292  -18.9013  -13.0918 C   0  0  0  0  0  0  0  0  0  0  0  0
   27.6403  -18.6747  -14.5576 C   0  0  0  0  0  0  0  0  0  0  0  0
   27.1298  -17.5505  -15.2241 C   0  0  0  0  0  0  0  0  0  0  0  0
   27.3364  -17.6767  -16.5391 N   0  0  0  0  0  0  0  0  0  0  0  0
   27.9721  -18.8528  -16.8110 C   0  0  0  0  0  0  0  0  0  0  0  0
   28.3865  -19.4453  -17.9806 C   0  0  0  0  0  0  0  0  0  0  0  0
   29.0003  -20.6652  -17.9837 C   0  0  0  0  0  0  0  0  0  0  0  0
   29.1823  -21.2796  -16.7284 C   0  0  0  0  0  0  0  0  0  0  0  0
   28.7661  -20.6789  -15.5691 C   0  0  0  0  0  0  0  0  0  0  0  0
   28.1525  -19.4564  -15.5736 C   0  0  0  0  0  0  0  0  0  0  0  0
   25.8859  -20.6560  -13.4708 C   0  0  0  0  0  0  0  0  0  0  0  0
   26.3517  -21.8072  -13.3805 O   0  0  0  0  0  0  0  0  0  0  0  0
   24.8461  -20.4739  -14.4017 N   0  0  0  0  0  0  0  0  0  0  0  0
   24.4002  -21.5963  -15.2148 C   0  0  1  0  0  0  0  0  0  0  0  0
   22.9878  -21.9909  -14.9033 C   0  0  0  0  0  0  0  0  0  0  0  0
   22.0980  -20.8528  -14.5834 C   0  0  0  0  0  0  0  0  0  0  0  0
   22.1796  -19.7662  -15.1824 O   0  0  0  0  0  0  0  0  0  0  0  0
   24.3601  -21.0259  -16.6218 C   0  0  0  0  0  0  0  0  0  0  0  0
   24.2401  -21.8700  -17.7111 O   0  0  0  0  0  0  0  0  0  0  0  0
   21.1387  -21.0117  -13.5730 O   0  0  0  0  0  0  0  0  0  0  0  0
   24.4307  -19.8040  -16.8670 O   0  0  0  0  0  0  0  0  0  0  0  0
  2  1  1  1
  3  2  1  0
  3  4  1  0
  4  5  2  0
  5  6  1  0
  7  6  1  0
  8  7  2  0
  9  8  1  0
 10 11  1  0
 10  9  2  0
 11 12  2  0
 12  4  1  0
 12  7  1  0
 13  2  1  0
 13 14  2  0
 15 13  1  0
 16 17  1  6
 16 15  1  0
 18 26  1  0
 18 17  1  0
 19 18  2  0
 20 19  1  0
 20 21  1  0
 21 22  1  0
 21 26  2  0
 22 23  2  0
 23 24  1  0
 25 24  2  0
 26 25  1  0
 27 16  1  0
 28 27  2  0
 29 27  1  0
 30 29  1  0
 30 31  1  1
 32 31  1  0
 33 32  2  0
 34 30  1  0
 34 35  1  0
 36 32  1  0
 37 34  2  0
M  END
$$$$
