WWD.pdb
     RDKit          3D

 37 40  0  0  1  0  0  0  0  0999 V2000
   28.9254  -21.4210  -14.2786 N   0  0  0  0  0  0  0  0  0  0  0  0
   28.0549  -20.5755  -13.5425 C   0  0  1  0  0  0  0  0  0  0  0  0
   26.8713  -20.0863  -14.3868 C   0  0  0  0  0  0  0  0  0  0  0  0
   27.3240  -19.3404  -15.5855 C   0  0  0  0  0  0  0  0  0  0  0  0
   27.6572  -19.8187  -16.8442 C   0  0  0  0  0  0  0  0  0  0  0  0
   28.0019  -18.7962  -17.6459 N   0  0  0  0  0  0  0  0  0  0  0  0
   27.9140  -17.6285  -16.9709 C   0  0  0  0  0  0  0  0  0  0  0  0
   28.1546  -16.3102  -17.3069 C   0  0  0  0  0  0  0  0  0  0  0  0
   27.9936  -15.2811  -16.4115 C   0  0  0  0  0  0  0  0  0  0  0  0
   27.5786  -15.6102  -15.1474 C   0  0  0  0  0  0  0  0  0  0  0  0
   27.3319  -16.9316  -14.7933 C   0  0  0  0  0  0  0  0  0  0  0  0
   27.4927  -17.9537  -15.6860 C   0  0  0  0  0  0  0  0  0  0  0  0
   27.5147  -21.1960  -12.2784 C   0  0  0  0  0  0  0  0  0  0  0  0
   28.0308  -22.3098  -11.9588 O   0  0  0  0  0  0  0  0  0  0  0  0
   26.5240  -20.6443  -11.4691 N   0  0  0  0  0  0  0  0  0  0  0  0
   26.1969  -20.9069  -10.1092 C   0  0  1  0  0  0  0  0  0  0  0  0
   27.3398  -21.0786   -9.2357 C   0  0  0  0  0  0  0  0  0  0  0  0
   27.3410  -20.1581   -8.0726 C   0  0  0  0  0  0  0  0  0  0  0  0
   26.5892  -18.9798   -7.9502 C   0  0  0  0  0  0  0  0  0  0  0  0
   26.8220  -18.4212   -6.7579 N   0  0  0  0  0  0  0  0  0  0  0  0
   27.7130  -19.1703   -6.0464 C   0  0  0  0  0  0  0  0  0  0  0  0
   28.2783  -19.0221   -4.8017 C   0  0  0  0  0  0  0  0  0  0  0  0
   29.1784  -19.9266   -4.3149 C   0  0  0  0  0  0  0  0  0  0  0  0
   29.4946  -21.0126   -5.1558 C   0  0  0  0  0  0  0  0  0  0  0  0
   28.9239  -21.1503   -6.3941 C   0  0  0  0  0  0  0  0  0  0  0  0
   28.0225  -20.2408   -6.8749 C   0  0  0  0  0  0  0  0  0  0  0  0
   25.0413  -20.1520   -9.5826 C   0  0  0  0  0  0  0  0  0  0  0  0
   25.0356  -18.9098   -9.6691 O   0  0  0  0  0  0  0  0  0  0  0  0
   23.9181  -20.7410   -8.9724 N   0  0  0  0  0  0  0  0  0  0  0  0
   22.6484  -20.7816   -9.6836 C   0  0  1  0  0  0  0  0  0  0  0  0
   22.7485  -21.5439  -10.9708 C   0  0  0  0  0  0  0  0  0  0  0  0
   22.7659  -20.6907  -12.1796 C   0  0  0  0  0  0  0  0  0  0  0  0
   22.9027  -21.1685  -13.3194 O   0  0  0  0  0  0  0  0  0  0  0  0
   21.7601  -21.6225   -8.7834 C   0  0  0  0  0  0  0  0  0  0  0  0
   20.4095  -21.7443   -9.0568 O   0  0  0  0  0  0  0  0  0  0  0  0
   22.6248  -19.3039  -12.0266 O   0  0  0  0  0  0  0  0  0  0  0  0
   22.1839  -22.2311   -7.7794 O   0  0  0  0  0  0  0  0  0  0  0  0
  2  1  1  6
  3  2  1  0
  3  4  1  0
  4  5  2  0
  5  6  1  0
  7  6  1  0
  8  7  2  0
  9  8  1  0
 10 11  1  0
 10  9  2  0
 11 12  2  0
 12  4  1  0
 12  7  1  0
 13  2  1  0
 13 14  2  0
 15 13  1  0
 16 17  1  1
 16 15  1  0
 18 26  1  0
 18 17  1  0
 19 18  2  0
 20 19  1  0
 20 21  1  0
 21 22  1  0
 21 26  2  0
 22 23  2  0
 23 24  1  0
 25 24  2  0
 26 25  1  0
 27 16  1  0
 28 27  2  0
 29 27  1  0
 30 29  1  0
 30 31  1  6
 32 31  1  0
 33 32  2  0
 34 30  1  0
 34 35  1  0
 36 32  1  0
 37 34  2  0
M  END
$$$$
