WWD.pdb
     RDKit          3D

 37 40  0  0  1  0  0  0  0  0999 V2000
   27.8610  -19.0267  -11.9163 N   0  0  0  0  0  0  0  0  0  0  0  0
   27.0247  -20.1058  -12.3044 C   0  0  1  0  0  0  0  0  0  0  0  0
   26.4323  -20.8431  -11.0967 C   0  0  0  0  0  0  0  0  0  0  0  0
   27.4016  -20.9304   -9.9781 C   0  0  0  0  0  0  0  0  0  0  0  0
   27.3364  -20.3657   -8.7128 C   0  0  0  0  0  0  0  0  0  0  0  0
   28.4237  -20.7100   -8.0014 N   0  0  0  0  0  0  0  0  0  0  0  0
   29.2336  -21.4964   -8.7447 C   0  0  0  0  0  0  0  0  0  0  0  0
   30.4506  -22.1069   -8.5103 C   0  0  0  0  0  0  0  0  0  0  0  0
   31.0873  -22.8682   -9.4598 C   0  0  0  0  0  0  0  0  0  0  0  0
   30.4645  -23.0057  -10.6729 C   0  0  0  0  0  0  0  0  0  0  0  0
   29.2398  -22.3982  -10.9249 C   0  0  0  0  0  0  0  0  0  0  0  0
   28.6083  -21.6413   -9.9785 C   0  0  0  0  0  0  0  0  0  0  0  0
   25.8955  -19.7121  -13.2235 C   0  0  0  0  0  0  0  0  0  0  0  0
   24.9426  -19.0826  -12.6713 O   0  0  0  0  0  0  0  0  0  0  0  0
   25.8351  -19.9835  -14.5886 N   0  0  0  0  0  0  0  0  0  0  0  0
   24.7728  -19.7948  -15.5165 C   0  0  1  0  0  0  0  0  0  0  0  0
   25.1950  -19.6311  -16.8925 C   0  0  0  0  0  0  0  0  0  0  0  0
   24.1139  -19.1617  -17.7930 C   0  0  0  0  0  0  0  0  0  0  0  0
   23.5410  -17.8809  -17.7990 C   0  0  0  0  0  0  0  0  0  0  0  0
   22.6153  -17.8083  -18.7611 N   0  0  0  0  0  0  0  0  0  0  0  0
   22.5229  -18.9970  -19.4243 C   0  0  0  0  0  0  0  0  0  0  0  0
   21.7307  -19.4328  -20.4604 C   0  0  0  0  0  0  0  0  0  0  0  0
   21.8244  -20.7071  -20.9425 C   0  0  0  0  0  0  0  0  0  0  0  0
   22.7714  -21.5455  -20.3210 C   0  0  0  0  0  0  0  0  0  0  0  0
   23.5563  -21.0998  -19.2898 C   0  0  0  0  0  0  0  0  0  0  0  0
   23.4575  -19.8217  -18.8124 C   0  0  0  0  0  0  0  0  0  0  0  0
   23.5648  -20.6071  -15.2641 C   0  0  0  0  0  0  0  0  0  0  0  0
   23.6903  -21.8160  -14.9936 O   0  0  0  0  0  0  0  0  0  0  0  0
   22.2488  -20.1102  -15.3092 N   0  0  0  0  0  0  0  0  0  0  0  0
   21.1349  -20.9847  -14.9713 C   0  0  1  0  0  0  0  0  0  0  0  0
   20.9365  -21.0963  -13.4893 C   0  0  0  0  0  0  0  0  0  0  0  0
   20.2543  -22.3379  -13.0620 C   0  0  0  0  0  0  0  0  0  0  0  0
   19.8462  -23.1790  -13.8817 O   0  0  0  0  0  0  0  0  0  0  0  0
   19.9200  -20.2331  -15.4866 C   0  0  0  0  0  0  0  0  0  0  0  0
   18.9350  -20.9026  -16.1902 O   0  0  0  0  0  0  0  0  0  0  0  0
   20.0651  -22.5641  -11.6910 O   0  0  0  0  0  0  0  0  0  0  0  0
   19.7470  -19.0095  -15.3106 O   0  0  0  0  0  0  0  0  0  0  0  0
  2  1  1  1
  3  2  1  0
  3  4  1  0
  4  5  2  0
  5  6  1  0
  7  6  1  0
  8  7  2  0
  9  8  1  0
 10 11  1  0
 10  9  2  0
 11 12  2  0
 12  4  1  0
 12  7  1  0
 13  2  1  0
 13 14  2  0
 15 13  1  0
 16 17  1  6
 16 15  1  0
 18 26  1  0
 18 17  1  0
 19 18  2  0
 20 19  1  0
 20 21  1  0
 21 22  1  0
 21 26  2  0
 22 23  2  0
 23 24  1  0
 25 24  2  0
 26 25  1  0
 27 16  1  0
 28 27  2  0
 29 27  1  0
 30 29  1  0
 30 31  1  1
 32 31  1  0
 33 32  2  0
 34 30  1  0
 34 35  1  0
 36 32  1  0
 37 34  2  0
M  END
$$$$
