WWD.pdb
     RDKit          3D

 37 40  0  0  1  0  0  0  0  0999 V2000
   25.4105  -21.0172  -14.2586 N   0  0  0  0  0  0  0  0  0  0  0  0
   24.5478  -20.4343  -13.2940 C   0  0  1  0  0  0  0  0  0  0  0  0
   23.0678  -20.6480  -13.6360 C   0  0  0  0  0  0  0  0  0  0  0  0
   22.7198  -20.0649  -14.9540 C   0  0  0  0  0  0  0  0  0  0  0  0
   22.9114  -20.5877  -16.2245 C   0  0  0  0  0  0  0  0  0  0  0  0
   22.4337  -19.7348  -17.1472 N   0  0  0  0  0  0  0  0  0  0  0  0
   21.9190  -18.6404  -16.5438 C   0  0  0  0  0  0  0  0  0  0  0  0
   21.3226  -17.4844  -17.0092 C   0  0  0  0  0  0  0  0  0  0  0  0
   20.8809  -16.4933  -16.1669 C   0  0  0  0  0  0  0  0  0  0  0  0
   21.0546  -16.6913  -14.8218 C   0  0  0  0  0  0  0  0  0  0  0  0
   21.6525  -17.8489  -14.3372 C   0  0  0  0  0  0  0  0  0  0  0  0
   22.0910  -18.8335  -15.1773 C   0  0  0  0  0  0  0  0  0  0  0  0
   24.7853  -20.9135  -11.8838 C   0  0  0  0  0  0  0  0  0  0  0  0
   24.4945  -22.1293  -11.6691 O   0  0  0  0  0  0  0  0  0  0  0  0
   25.2865  -20.1362  -10.8419 N   0  0  0  0  0  0  0  0  0  0  0  0
   25.4616  -20.4489   -9.4647 C   0  0  1  0  0  0  0  0  0  0  0  0
   26.5784  -19.7785   -8.8306 C   0  0  0  0  0  0  0  0  0  0  0  0
   26.7926  -20.1868   -7.4208 C   0  0  0  0  0  0  0  0  0  0  0  0
   26.2354  -21.3104   -6.7919 C   0  0  0  0  0  0  0  0  0  0  0  0
   26.6684  -21.3779   -5.5287 N   0  0  0  0  0  0  0  0  0  0  0  0
   27.5073  -20.3372   -5.2561 C   0  0  0  0  0  0  0  0  0  0  0  0
   28.1888  -19.9545   -4.1247 C   0  0  0  0  0  0  0  0  0  0  0  0
   28.9694  -18.8341   -4.1070 C   0  0  0  0  0  0  0  0  0  0  0  0
   29.0352  -18.0957   -5.3056 C   0  0  0  0  0  0  0  0  0  0  0  0
   28.3523  -18.4874   -6.4274 C   0  0  0  0  0  0  0  0  0  0  0  0
   27.5728  -19.6114   -6.4380 C   0  0  0  0  0  0  0  0  0  0  0  0
   24.2133  -20.5830   -8.6859 C   0  0  0  0  0  0  0  0  0  0  0  0
   23.4204  -19.6241   -8.6377 O   0  0  0  0  0  0  0  0  0  0  0  0
   23.8409  -21.7382   -7.9734 N   0  0  0  0  0  0  0  0  0  0  0  0
   22.5510  -21.7866   -7.2999 C   0  0  1  0  0  0  0  0  0  0  0  0
   21.9713  -23.1693   -7.2928 C   0  0  0  0  0  0  0  0  0  0  0  0
   20.6791  -23.2800   -6.5806 C   0  0  0  0  0  0  0  0  0  0  0  0
   20.0187  -22.2772   -6.2575 O   0  0  0  0  0  0  0  0  0  0  0  0
   22.8915  -21.4832   -5.8513 C   0  0  0  0  0  0  0  0  0  0  0  0
   22.1292  -20.5801   -5.1322 O   0  0  0  0  0  0  0  0  0  0  0  0
   20.1927  -24.5564   -6.2632 O   0  0  0  0  0  0  0  0  0  0  0  0
   23.8465  -22.0137   -5.2473 O   0  0  0  0  0  0  0  0  0  0  0  0
  2  1  1  6
  3  2  1  0
  3  4  1  0
  4  5  2  0
  5  6  1  0
  7  6  1  0
  8  7  2  0
  9  8  1  0
 10 11  1  0
 10  9  2  0
 11 12  2  0
 12  4  1  0
 12  7  1  0
 13  2  1  0
 13 14  2  0
 15 13  1  0
 16 17  1  1
 16 15  1  0
 18 26  1  0
 18 17  1  0
 19 18  2  0
 20 19  1  0
 20 21  1  0
 21 22  1  0
 21 26  2  0
 22 23  2  0
 23 24  1  0
 25 24  2  0
 26 25  1  0
 27 16  1  0
 28 27  2  0
 29 27  1  0
 30 29  1  0
 30 31  1  1
 32 31  1  0
 33 32  2  0
 34 30  1  0
 34 35  1  0
 36 32  1  0
 37 34  2  0
M  END
$$$$
