WWD.pdb
     RDKit          3D

 37 40  0  0  1  0  0  0  0  0999 V2000
   25.8661  -20.1120  -14.9315 N   0  0  0  0  0  0  0  0  0  0  0  0
   24.5278  -20.0167  -14.4685 C   0  0  1  0  0  0  0  0  0  0  0  0
   23.5231  -20.5835  -15.4797 C   0  0  0  0  0  0  0  0  0  0  0  0
   23.6458  -19.9250  -16.8025 C   0  0  0  0  0  0  0  0  0  0  0  0
   24.2128  -20.4051  -17.9739 C   0  0  0  0  0  0  0  0  0  0  0  0
   24.0977  -19.4862  -18.9482 N   0  0  0  0  0  0  0  0  0  0  0  0
   23.4664  -18.3879  -18.4768 C   0  0  0  0  0  0  0  0  0  0  0  0
   23.1054  -17.1785  -19.0385 C   0  0  0  0  0  0  0  0  0  0  0  0
   22.4614  -16.1980  -18.3240 C   0  0  0  0  0  0  0  0  0  0  0  0
   22.1828  -16.4626  -17.0084 C   0  0  0  0  0  0  0  0  0  0  0  0
   22.5389  -17.6745  -16.4281 C   0  0  0  0  0  0  0  0  0  0  0  0
   23.1796  -18.6485  -17.1412 C   0  0  0  0  0  0  0  0  0  0  0  0
   24.2871  -20.6789  -13.1350 C   0  0  0  0  0  0  0  0  0  0  0  0
   24.0875  -21.9308  -13.1806 O   0  0  0  0  0  0  0  0  0  0  0  0
   24.2725  -20.0287  -11.9030 N   0  0  0  0  0  0  0  0  0  0  0  0
   23.9172  -20.5132  -10.6129 C   0  0  1  0  0  0  0  0  0  0  0  0
   24.6556  -19.9157   -9.5191 C   0  0  0  0  0  0  0  0  0  0  0  0
   26.0744  -20.3439   -9.4573 C   0  0  0  0  0  0  0  0  0  0  0  0
   26.7543  -21.0943  -10.4285 C   0  0  0  0  0  0  0  0  0  0  0  0
   28.0249  -21.2702  -10.0508 N   0  0  0  0  0  0  0  0  0  0  0  0
   28.2520  -20.6689   -8.8474 C   0  0  0  0  0  0  0  0  0  0  0  0
   29.3622  -20.5752   -8.0414 C   0  0  0  0  0  0  0  0  0  0  0  0
   29.3227  -19.9142   -6.8471 C   0  0  0  0  0  0  0  0  0  0  0  0
   28.0872  -19.3385   -6.4886 C   0  0  0  0  0  0  0  0  0  0  0  0
   26.9876  -19.4374   -7.3006 C   0  0  0  0  0  0  0  0  0  0  0  0
   27.0348  -20.1006   -8.4960 C   0  0  0  0  0  0  0  0  0  0  0  0
   22.4751  -20.7616  -10.4090 C   0  0  0  0  0  0  0  0  0  0  0  0
   21.6946  -19.7937  -10.3423 O   0  0  0  0  0  0  0  0  0  0  0  0
   21.8991  -22.0390  -10.2781 N   0  0  0  0  0  0  0  0  0  0  0  0
   20.4537  -22.1709  -10.1629 C   0  0  1  0  0  0  0  0  0  0  0  0
   19.9440  -23.4001  -10.8537 C   0  0  0  0  0  0  0  0  0  0  0  0
   19.7626  -23.2425  -12.3137 C   0  0  0  0  0  0  0  0  0  0  0  0
   19.9205  -22.1474  -12.8812 O   0  0  0  0  0  0  0  0  0  0  0  0
   20.2333  -22.4189   -8.6809 C   0  0  0  0  0  0  0  0  0  0  0  0
   21.3146  -22.5127   -7.8232 O   0  0  0  0  0  0  0  0  0  0  0  0
   19.4007  -24.3652  -13.0721 O   0  0  0  0  0  0  0  0  0  0  0  0
   19.1019  -22.5477   -8.1696 O   0  0  0  0  0  0  0  0  0  0  0  0
  2  1  1  6
  3  2  1  0
  3  4  1  0
  4  5  2  0
  5  6  1  0
  7  6  1  0
  8  7  2  0
  9  8  1  0
 10 11  1  0
 10  9  2  0
 11 12  2  0
 12  4  1  0
 12  7  1  0
 13  2  1  0
 13 14  2  0
 15 13  1  0
 16 17  1  1
 16 15  1  0
 18 26  1  0
 18 17  1  0
 19 18  2  0
 20 19  1  0
 20 21  1  0
 21 22  1  0
 21 26  2  0
 22 23  2  0
 23 24  1  0
 25 24  2  0
 26 25  1  0
 27 16  1  0
 28 27  2  0
 29 27  1  0
 30 29  1  0
 30 31  1  6
 32 31  1  0
 33 32  2  0
 34 30  1  0
 34 35  1  0
 36 32  1  0
 37 34  2  0
M  END
$$$$
