YPC.pdb
     RDKit          3D

 26 27  0  0  1  0  0  0  0  0999 V2000
   11.5235  -15.0689   29.2932 O   0  0  0  0  0  0  0  0  0  0  0  0
   10.3986  -15.0141   28.4938 C   0  0  0  0  0  0  0  0  0  0  0  0
    9.7640  -16.1741   28.1375 C   0  0  0  0  0  0  0  0  0  0  0  0
    8.6471  -16.1762   27.3482 C   0  0  0  0  0  0  0  0  0  0  0  0
    8.0927  -14.9917   26.8620 C   0  0  0  0  0  0  0  0  0  0  0  0
    6.9033  -15.0214   25.9937 C   0  0  0  0  0  0  0  0  0  0  0  0
    6.5842  -16.4029   25.4296 C   0  0  2  0  0  0  0  0  0  0  0  0
    6.7385  -17.3664   26.4671 N   0  0  0  0  0  0  0  0  0  0  0  0
    7.3466  -16.5986   24.2076 C   0  0  0  0  0  0  0  0  0  0  0  0
    7.7693  -17.8198   24.0581 O   0  0  0  0  0  0  0  0  0  0  0  0
    8.7445  -13.8206   27.2296 C   0  0  0  0  0  0  0  0  0  0  0  0
    9.8683  -13.8326   28.0249 C   0  0  0  0  0  0  0  0  0  0  0  0
    7.6846  -15.6941   23.1932 N   0  0  0  0  0  0  0  0  0  0  0  0
    7.3006  -14.3069   23.1658 C   0  0  0  0  0  0  0  0  0  0  0  0
    7.3171  -13.9302   21.7303 C   0  0  0  0  0  0  0  0  0  0  0  0
    7.7043  -15.1634   20.9503 C   0  0  0  0  0  0  0  0  0  0  0  0
    8.4544  -15.9731   22.0346 C   0  0  1  0  0  0  0  0  0  0  0  0
    9.8152  -15.4357   22.0341 C   0  0  0  0  0  0  0  0  0  0  0  0
   10.0530  -14.3037   22.4931 O   0  0  0  0  0  0  0  0  0  0  0  0
   10.8880  -16.1876   21.5139 N   0  0  0  0  0  0  0  0  0  0  0  0
   12.0839  -16.5194   22.2631 C   0  0  1  0  0  0  0  0  0  0  0  0
   11.6940  -17.2713   23.5445 C   0  0  0  0  0  0  0  0  0  0  0  0
   11.6299  -16.1582   24.9545 S   0  0  0  0  0  0  0  0  0  0  0  0
   13.0255  -17.3364   21.4712 C   0  0  0  0  0  0  0  0  0  0  0  0
   12.6014  -18.1782   20.4547 O   0  0  0  0  0  0  0  0  0  0  0  0
   14.2389  -17.2666   21.7250 O   0  0  0  0  0  0  0  0  0  0  0  0
  1  2  1  0
  2  3  2  0
  3  4  1  0
  5  4  2  0
  5  6  1  0
  7  6  1  0
  7  8  1  1
  9  7  1  0
  9 13  1  0
 10  9  2  0
 11  5  1  0
 12  2  1  0
 12 11  2  0
 13 14  1  0
 14 15  1  0
 16 15  1  0
 17 13  1  0
 17 16  1  0
 17 18  1  1
 19 18  2  0
 20 18  1  0
 21 24  1  0
 21 20  1  0
 22 23  1  0
 21 22  1  1
 24 25  1  0
 26 24  2  0
M  END
$$$$
