YPC.pdb
     RDKit          3D

 26 27  0  0  1  0  0  0  0  0999 V2000
    2.9773  -19.4559   19.4462 O   0  0  0  0  0  0  0  0  0  0  0  0
    3.8153  -18.8045   20.3299 C   0  0  0  0  0  0  0  0  0  0  0  0
    5.1348  -19.1638   20.4017 C   0  0  0  0  0  0  0  0  0  0  0  0
    6.0069  -18.5515   21.2590 C   0  0  0  0  0  0  0  0  0  0  0  0
    5.5970  -17.5241   22.1094 C   0  0  0  0  0  0  0  0  0  0  0  0
    6.5497  -16.8967   23.0410 C   0  0  0  0  0  0  0  0  0  0  0  0
    7.3475  -15.7486   22.4293 C   0  0  2  0  0  0  0  0  0  0  0  0
    8.0075  -16.2236   21.2600 N   0  0  0  0  0  0  0  0  0  0  0  0
    8.1650  -15.1403   23.4660 C   0  0  0  0  0  0  0  0  0  0  0  0
    9.4415  -15.2460   23.2390 O   0  0  0  0  0  0  0  0  0  0  0  0
    4.2562  -17.1675   22.0283 C   0  0  0  0  0  0  0  0  0  0  0  0
    3.3887  -17.7921   21.1607 C   0  0  0  0  0  0  0  0  0  0  0  0
    7.7944  -14.4742   24.6409 N   0  0  0  0  0  0  0  0  0  0  0  0
    6.4380  -14.2615   25.0736 C   0  0  0  0  0  0  0  0  0  0  0  0
    6.4946  -13.0616   25.9453 C   0  0  0  0  0  0  0  0  0  0  0  0
    7.9304  -12.5955   25.9693 C   0  0  0  0  0  0  0  0  0  0  0  0
    8.6699  -13.9035   25.6004 C   0  0  1  0  0  0  0  0  0  0  0  0
    8.7925  -14.6368   26.8605 C   0  0  0  0  0  0  0  0  0  0  0  0
    7.7981  -15.1674   27.3880 O   0  0  0  0  0  0  0  0  0  0  0  0
   10.0397  -14.7590   27.5060 N   0  0  0  0  0  0  0  0  0  0  0  0
   10.3602  -15.8030   28.4595 C   0  0  1  0  0  0  0  0  0  0  0  0
   11.6608  -16.5021   28.0362 C   0  0  0  0  0  0  0  0  0  0  0  0
   11.6436  -16.8955   26.2823 S   0  0  0  0  0  0  0  0  0  0  0  0
   10.4997  -15.2764   29.8323 C   0  0  0  0  0  0  0  0  0  0  0  0
   10.3781  -13.9265   30.1233 O   0  0  0  0  0  0  0  0  0  0  0  0
   10.7340  -16.0705   30.7574 O   0  0  0  0  0  0  0  0  0  0  0  0
  1  2  1  0
  2  3  2  0
  3  4  1  0
  5  4  2  0
  5  6  1  0
  7  6  1  0
  7  8  1  6
  9  7  1  0
  9 13  1  0
 10  9  2  0
 11  5  1  0
 12  2  1  0
 12 11  2  0
 13 14  1  0
 14 15  1  0
 16 15  1  0
 17 13  1  0
 17 16  1  0
 17 18  1  1
 19 18  2  0
 20 18  1  0
 21 24  1  0
 21 20  1  0
 22 23  1  0
 21 22  1  6
 24 25  1  0
 26 24  2  0
M  END
$$$$
