YPC.pdb
     RDKit          3D

 26 27  0  0  1  0  0  0  0  0999 V2000
    5.0039  -10.7791   28.3067 O   0  0  0  0  0  0  0  0  0  0  0  0
    5.7332  -11.6620   27.5347 C   0  0  0  0  0  0  0  0  0  0  0  0
    5.7976  -11.4823   26.1787 C   0  0  0  0  0  0  0  0  0  0  0  0
    6.5053  -12.3269   25.3685 C   0  0  0  0  0  0  0  0  0  0  0  0
    7.2021  -13.4209   25.8827 C   0  0  0  0  0  0  0  0  0  0  0  0
    7.9372  -14.3301   24.9869 C   0  0  0  0  0  0  0  0  0  0  0  0
    7.0550  -15.3703   24.3024 C   0  0  2  0  0  0  0  0  0  0  0  0
    6.7404  -16.3922   25.2432 N   0  0  0  0  0  0  0  0  0  0  0  0
    7.6841  -15.7714   23.0548 C   0  0  0  0  0  0  0  0  0  0  0  0
    7.8827  -17.0543   22.9712 O   0  0  0  0  0  0  0  0  0  0  0  0
    7.1301  -13.5938   27.2597 C   0  0  0  0  0  0  0  0  0  0  0  0
    6.4139  -12.7361   28.0640 C   0  0  0  0  0  0  0  0  0  0  0  0
    8.0965  -15.0045   21.9579 N   0  0  0  0  0  0  0  0  0  0  0  0
    8.1221  -13.5656   21.9226 C   0  0  0  0  0  0  0  0  0  0  0  0
    8.0132  -13.2129   20.4850 C   0  0  0  0  0  0  0  0  0  0  0  0
    7.9042  -14.5072   19.7155 C   0  0  0  0  0  0  0  0  0  0  0  0
    8.5585  -15.4958   20.7097 C   0  0  1  0  0  0  0  0  0  0  0  0
    9.9972  -15.3722   20.4741 C   0  0  0  0  0  0  0  0  0  0  0  0
   10.5617  -14.2655   20.5465 O   0  0  0  0  0  0  0  0  0  0  0  0
   10.7769  -16.5037   20.1598 N   0  0  0  0  0  0  0  0  0  0  0  0
   11.7696  -17.0763   21.0476 C   0  0  1  0  0  0  0  0  0  0  0  0
   11.1386  -17.3333   22.4243 C   0  0  0  0  0  0  0  0  0  0  0  0
   12.3439  -18.0110   23.5729 S   0  0  0  0  0  0  0  0  0  0  0  0
   12.3325  -18.3329   20.5134 C   0  0  0  0  0  0  0  0  0  0  0  0
   13.6970  -18.5306   20.3697 O   0  0  0  0  0  0  0  0  0  0  0  0
   11.5563  -19.2434   20.1815 O   0  0  0  0  0  0  0  0  0  0  0  0
  1  2  1  0
  2  3  2  0
  3  4  1  0
  5  4  2  0
  5  6  1  0
  7  6  1  0
  7  8  1  1
  9  7  1  0
  9 13  1  0
 10  9  2  0
 11  5  1  0
 12  2  1  0
 12 11  2  0
 13 14  1  0
 14 15  1  0
 16 15  1  0
 17 13  1  0
 17 16  1  0
 17 18  1  1
 19 18  2  0
 20 18  1  0
 21 24  1  0
 21 20  1  0
 22 23  1  0
 21 22  1  1
 24 25  1  0
 26 24  2  0
M  END
$$$$
