YPC.pdb
     RDKit          3D

 26 27  0  0  1  0  0  0  0  0999 V2000
    8.4702  -14.6093   15.0054 O   0  0  0  0  0  0  0  0  0  0  0  0
    8.4884  -14.6454   16.3859 C   0  0  0  0  0  0  0  0  0  0  0  0
    8.5614  -13.4749   17.0929 C   0  0  0  0  0  0  0  0  0  0  0  0
    8.5825  -13.4543   18.4603 C   0  0  0  0  0  0  0  0  0  0  0  0
    8.5306  -14.6296   19.2105 C   0  0  0  0  0  0  0  0  0  0  0  0
    8.5792  -14.5827   20.6818 C   0  0  0  0  0  0  0  0  0  0  0  0
    7.2053  -14.5406   21.3447 C   0  0  2  0  0  0  0  0  0  0  0  0
    6.6111  -13.2728   21.0834 N   0  0  0  0  0  0  0  0  0  0  0  0
    7.3412  -14.9494   22.7330 C   0  0  0  0  0  0  0  0  0  0  0  0
    7.3292  -13.9491   23.5645 O   0  0  0  0  0  0  0  0  0  0  0  0
    8.4567  -15.8114   18.4831 C   0  0  0  0  0  0  0  0  0  0  0  0
    8.4362  -15.8181   17.1064 C   0  0  0  0  0  0  0  0  0  0  0  0
    7.4783  -16.2248   23.2950 N   0  0  0  0  0  0  0  0  0  0  0  0
    7.5180  -17.4541   22.5468 C   0  0  0  0  0  0  0  0  0  0  0  0
    7.0583  -18.4985   23.4958 C   0  0  0  0  0  0  0  0  0  0  0  0
    6.7386  -17.8069   24.7992 C   0  0  0  0  0  0  0  0  0  0  0  0
    7.6047  -16.5309   24.6746 C   0  0  1  0  0  0  0  0  0  0  0  0
    8.9403  -16.9361   25.1133 C   0  0  0  0  0  0  0  0  0  0  0  0
    9.8425  -17.1581   24.2854 O   0  0  0  0  0  0  0  0  0  0  0  0
    9.2359  -17.0844   26.4835 N   0  0  0  0  0  0  0  0  0  0  0  0
    9.9310  -16.0886   27.2753 C   0  0  1  0  0  0  0  0  0  0  0  0
    9.0897  -14.8049   27.3380 C   0  0  0  0  0  0  0  0  0  0  0  0
    9.9843  -13.4841   28.1665 S   0  0  0  0  0  0  0  0  0  0  0  0
   10.2149  -16.5673   28.6434 C   0  0  0  0  0  0  0  0  0  0  0  0
    9.3440  -17.3964   29.3332 O   0  0  0  0  0  0  0  0  0  0  0  0
   11.2702  -16.2148   29.1943 O   0  0  0  0  0  0  0  0  0  0  0  0
  1  2  1  0
  2  3  2  0
  3  4  1  0
  5  4  2  0
  5  6  1  0
  7  6  1  0
  7  8  1  1
  9  7  1  0
  9 13  1  0
 10  9  2  0
 11  5  1  0
 12  2  1  0
 12 11  2  0
 13 14  1  0
 14 15  1  0
 16 15  1  0
 17 13  1  0
 17 16  1  0
 17 18  1  6
 19 18  2  0
 20 18  1  0
 21 24  1  0
 21 20  1  0
 22 23  1  0
 21 22  1  1
 24 25  1  0
 26 24  2  0
M  END
$$$$
