YPC.pdb
     RDKit          3D

 26 27  0  0  1  0  0  0  0  0999 V2000
   11.4570  -14.9754   29.1109 O   0  0  0  0  0  0  0  0  0  0  0  0
   10.3171  -15.0114   28.3319 C   0  0  0  0  0  0  0  0  0  0  0  0
    9.7212  -16.2138   28.0590 C   0  0  0  0  0  0  0  0  0  0  0  0
    8.5916  -16.3056   27.2934 C   0  0  0  0  0  0  0  0  0  0  0  0
    7.9839  -15.1744   26.7476 C   0  0  0  0  0  0  0  0  0  0  0  0
    6.7816  -15.3013   25.9062 C   0  0  0  0  0  0  0  0  0  0  0  0
    6.5619  -16.7051   25.3498 C   0  0  2  0  0  0  0  0  0  0  0  0
    6.8873  -17.6533   26.3615 N   0  0  0  0  0  0  0  0  0  0  0  0
    7.2487  -16.8170   24.0735 C   0  0  0  0  0  0  0  0  0  0  0  0
    7.3873  -18.0469   23.6730 O   0  0  0  0  0  0  0  0  0  0  0  0
    8.5967  -13.9596   27.0308 C   0  0  0  0  0  0  0  0  0  0  0  0
    9.7338  -13.8812   27.8030 C   0  0  0  0  0  0  0  0  0  0  0  0
    7.7689  -15.8257   23.2320 N   0  0  0  0  0  0  0  0  0  0  0  0
    7.6408  -14.4088   23.4521 C   0  0  0  0  0  0  0  0  0  0  0  0
    7.7606  -13.7967   22.1053 C   0  0  0  0  0  0  0  0  0  0  0  0
    7.9398  -14.9242   21.1176 C   0  0  0  0  0  0  0  0  0  0  0  0
    8.5049  -16.0329   22.0370 C   0  0  1  0  0  0  0  0  0  0  0  0
    9.9396  -15.7590   22.1217 C   0  0  0  0  0  0  0  0  0  0  0  0
   10.5818  -15.4091   21.1147 O   0  0  0  0  0  0  0  0  0  0  0  0
   10.6275  -15.8852   23.3455 N   0  0  0  0  0  0  0  0  0  0  0  0
   12.0695  -15.8137   23.4761 C   0  0  1  0  0  0  0  0  0  0  0  0
   12.4358  -15.4508   24.9231 C   0  0  0  0  0  0  0  0  0  0  0  0
   11.0812  -14.5965   25.7393 S   0  0  0  0  0  0  0  0  0  0  0  0
   12.7242  -17.0824   23.0980 C   0  0  0  0  0  0  0  0  0  0  0  0
   14.0989  -17.1930   22.9576 O   0  0  0  0  0  0  0  0  0  0  0  0
   12.0186  -18.0844   22.8992 O   0  0  0  0  0  0  0  0  0  0  0  0
  1  2  1  0
  2  3  2  0
  3  4  1  0
  5  4  2  0
  5  6  1  0
  7  6  1  0
  7  8  1  1
  9  7  1  0
  9 13  1  0
 10  9  2  0
 11  5  1  0
 12  2  1  0
 12 11  2  0
 13 14  1  0
 14 15  1  0
 16 15  1  0
 17 13  1  0
 17 16  1  0
 17 18  1  1
 19 18  2  0
 20 18  1  0
 21 24  1  0
 21 20  1  0
 22 23  1  0
 21 22  1  1
 24 25  1  0
 26 24  2  0
M  END
$$$$
