YPC.pdb
     RDKit          3D

 26 27  0  0  1  0  0  0  0  0999 V2000
    9.2696  -23.6421   19.6830 O   0  0  0  0  0  0  0  0  0  0  0  0
    9.3615  -22.4262   20.3314 C   0  0  0  0  0  0  0  0  0  0  0  0
   10.3703  -22.2140   21.2329 C   0  0  0  0  0  0  0  0  0  0  0  0
   10.5068  -21.0292   21.9022 C   0  0  0  0  0  0  0  0  0  0  0  0
    9.6220  -19.9693   21.7012 C   0  0  0  0  0  0  0  0  0  0  0  0
    9.7757  -18.7114   22.4519 C   0  0  0  0  0  0  0  0  0  0  0  0
   10.1852  -17.5220   21.5881 C   0  0  2  0  0  0  0  0  0  0  0  0
   11.5361  -17.7020   21.1744 N   0  0  0  0  0  0  0  0  0  0  0  0
    9.8523  -16.2943   22.2915 C   0  0  0  0  0  0  0  0  0  0  0  0
   10.8565  -15.7928   22.9490 O   0  0  0  0  0  0  0  0  0  0  0  0
    8.6022  -20.1953   20.7845 C   0  0  0  0  0  0  0  0  0  0  0  0
    8.4761  -21.3930   20.1174 C   0  0  0  0  0  0  0  0  0  0  0  0
    8.6450  -15.5883   22.3649 N   0  0  0  0  0  0  0  0  0  0  0  0
    7.4089  -16.0061   21.7569 C   0  0  0  0  0  0  0  0  0  0  0  0
    6.6351  -14.7555   21.5567 C   0  0  0  0  0  0  0  0  0  0  0  0
    7.4915  -13.6168   22.0558 C   0  0  0  0  0  0  0  0  0  0  0  0
    8.4240  -14.3608   23.0411 C   0  0  1  0  0  0  0  0  0  0  0  0
    7.6620  -14.4526   24.2867 C   0  0  0  0  0  0  0  0  0  0  0  0
    7.1959  -15.5412   24.6695 O   0  0  0  0  0  0  0  0  0  0  0  0
    7.4382  -13.3104   25.0818 N   0  0  0  0  0  0  0  0  0  0  0  0
    8.1538  -13.0244   26.3097 C   0  0  1  0  0  0  0  0  0  0  0  0
    7.2798  -12.1491   27.2204 C   0  0  0  0  0  0  0  0  0  0  0  0
    5.7473  -11.6900   26.4009 S   0  0  0  0  0  0  0  0  0  0  0  0
    8.5430  -14.2567   27.0246 C   0  0  0  0  0  0  0  0  0  0  0  0
    8.0620  -15.5056   26.6631 O   0  0  0  0  0  0  0  0  0  0  0  0
    9.3282  -14.1708   27.9825 O   0  0  0  0  0  0  0  0  0  0  0  0
  1  2  1  0
  2  3  2  0
  3  4  1  0
  5  4  2  0
  5  6  1  0
  7  6  1  0
  7  8  1  1
  9  7  1  0
  9 13  1  0
 10  9  2  0
 11  5  1  0
 12  2  1  0
 12 11  2  0
 13 14  1  0
 14 15  1  0
 16 15  1  0
 17 13  1  0
 17 16  1  0
 17 18  1  1
 19 18  2  0
 20 18  1  0
 21 24  1  0
 21 20  1  0
 22 23  1  0
 21 22  1  1
 24 25  1  0
 26 24  2  0
M  END
$$$$
