YPC.pdb
     RDKit          3D

 26 27  0  0  1  0  0  0  0  0999 V2000
   11.7386  -14.8638   28.8078 O   0  0  0  0  0  0  0  0  0  0  0  0
   10.5374  -14.9479   28.1314 C   0  0  0  0  0  0  0  0  0  0  0  0
    9.9979  -13.8230   27.5669 C   0  0  0  0  0  0  0  0  0  0  0  0
    8.8117  -13.8510   26.8867 C   0  0  0  0  0  0  0  0  0  0  0  0
    8.0852  -15.0320   26.7313 C   0  0  0  0  0  0  0  0  0  0  0  0
    6.7981  -15.0320   26.0153 C   0  0  0  0  0  0  0  0  0  0  0  0
    6.4144  -16.3895   25.4333 C   0  0  2  0  0  0  0  0  0  0  0  0
    6.6197  -17.3873   26.4287 N   0  0  0  0  0  0  0  0  0  0  0  0
    7.0884  -16.5604   24.1568 C   0  0  0  0  0  0  0  0  0  0  0  0
    7.1918  -17.8058   23.7955 O   0  0  0  0  0  0  0  0  0  0  0  0
    8.6417  -16.1674   27.3080 C   0  0  0  0  0  0  0  0  0  0  0  0
    9.8368  -16.1254   27.9902 C   0  0  0  0  0  0  0  0  0  0  0  0
    7.6278  -15.6108   23.2801 N   0  0  0  0  0  0  0  0  0  0  0  0
    7.5368  -14.1846   23.4541 C   0  0  0  0  0  0  0  0  0  0  0  0
    7.6633  -13.6203   22.0872 C   0  0  0  0  0  0  0  0  0  0  0  0
    7.8077  -14.7838   21.1362 C   0  0  0  0  0  0  0  0  0  0  0  0
    8.3507  -15.8757   22.0885 C   0  0  1  0  0  0  0  0  0  0  0  0
    9.7924  -15.6356   22.1560 C   0  0  0  0  0  0  0  0  0  0  0  0
   10.2800  -14.5669   21.7451 O   0  0  0  0  0  0  0  0  0  0  0  0
   10.6621  -16.6090   22.6879 N   0  0  0  0  0  0  0  0  0  0  0  0
   12.0498  -16.3590   23.0248 C   0  0  1  0  0  0  0  0  0  0  0  0
   12.3153  -16.8074   24.4698 C   0  0  0  0  0  0  0  0  0  0  0  0
   11.1246  -16.0797   25.6029 S   0  0  0  0  0  0  0  0  0  0  0  0
   12.9767  -17.0529   22.1079 C   0  0  0  0  0  0  0  0  0  0  0  0
   14.3533  -16.9267   22.2117 O   0  0  0  0  0  0  0  0  0  0  0  0
   12.5063  -17.7740   21.2134 O   0  0  0  0  0  0  0  0  0  0  0  0
  1  2  1  0
  2  3  2  0
  3  4  1  0
  5  4  2  0
  5  6  1  0
  7  6  1  0
  7  8  1  1
  9  7  1  0
  9 13  1  0
 10  9  2  0
 11  5  1  0
 12  2  1  0
 12 11  2  0
 13 14  1  0
 14 15  1  0
 16 15  1  0
 17 13  1  0
 17 16  1  0
 17 18  1  1
 19 18  2  0
 20 18  1  0
 21 24  1  0
 21 20  1  0
 22 23  1  0
 21 22  1  1
 24 25  1  0
 26 24  2  0
M  END
$$$$
