YPC.pdb
     RDKit          3D

 26 27  0  0  1  0  0  0  0  0999 V2000
    5.7909  -10.4780   26.9951 O   0  0  0  0  0  0  0  0  0  0  0  0
    6.2197  -11.7164   26.5593 C   0  0  0  0  0  0  0  0  0  0  0  0
    5.4534  -12.8240   26.8067 C   0  0  0  0  0  0  0  0  0  0  0  0
    5.8315  -14.0731   26.3975 C   0  0  0  0  0  0  0  0  0  0  0  0
    7.0229  -14.2860   25.7033 C   0  0  0  0  0  0  0  0  0  0  0  0
    7.4201  -15.6441   25.2943 C   0  0  0  0  0  0  0  0  0  0  0  0
    6.5731  -16.2218   24.1640 C   0  0  2  0  0  0  0  0  0  0  0  0
    5.9421  -17.4111   24.6285 N   0  0  0  0  0  0  0  0  0  0  0  0
    7.3903  -16.3149   22.9655 C   0  0  0  0  0  0  0  0  0  0  0  0
    7.6917  -17.5392   22.6454 O   0  0  0  0  0  0  0  0  0  0  0  0
    7.7928  -13.1554   25.4576 C   0  0  0  0  0  0  0  0  0  0  0  0
    7.4005  -11.9035   25.8752 C   0  0  0  0  0  0  0  0  0  0  0  0
    7.8878  -15.3110   22.1251 N   0  0  0  0  0  0  0  0  0  0  0  0
    7.8019  -13.8985   22.3897 C   0  0  0  0  0  0  0  0  0  0  0  0
    7.8654  -13.2514   21.0556 C   0  0  0  0  0  0  0  0  0  0  0  0
    7.9691  -14.3542   20.0297 C   0  0  0  0  0  0  0  0  0  0  0  0
    8.5567  -15.4994   20.8882 C   0  0  1  0  0  0  0  0  0  0  0  0
    9.9995  -15.2570   20.9055 C   0  0  0  0  0  0  0  0  0  0  0  0
   10.4524  -14.1020   20.8087 O   0  0  0  0  0  0  0  0  0  0  0  0
   10.9095  -16.3260   21.0322 N   0  0  0  0  0  0  0  0  0  0  0  0
   11.7737  -16.5233   22.1793 C   0  0  1  0  0  0  0  0  0  0  0  0
   10.9351  -16.4850   23.4657 C   0  0  0  0  0  0  0  0  0  0  0  0
   11.9527  -16.8069   24.9121 S   0  0  0  0  0  0  0  0  0  0  0  0
   12.5139  -17.7991   22.1031 C   0  0  0  0  0  0  0  0  0  0  0  0
   11.9256  -18.9704   21.6516 O   0  0  0  0  0  0  0  0  0  0  0  0
   13.7041  -17.8230   22.4556 O   0  0  0  0  0  0  0  0  0  0  0  0
  1  2  1  0
  2  3  2  0
  3  4  1  0
  5  4  2  0
  5  6  1  0
  7  6  1  0
  7  8  1  1
  9  7  1  0
  9 13  1  0
 10  9  2  0
 11  5  1  0
 12  2  1  0
 12 11  2  0
 13 14  1  0
 14 15  1  0
 16 15  1  0
 17 13  1  0
 17 16  1  0
 17 18  1  1
 19 18  2  0
 20 18  1  0
 21 24  1  0
 21 20  1  0
 22 23  1  0
 21 22  1  1
 24 25  1  0
 26 24  2  0
M  END
$$$$
