VFM.pdb
     RDKit          3D

 27 27  0  0  1  0  0  0  0  0999 V2000
    9.8347  -19.8975   21.1408 C   0  0  0  0  0  0  0  0  0  0  0  0
   10.2879  -19.2018   19.9067 C   0  0  1  0  0  0  0  0  0  0  0  0
   10.3198  -20.1538   18.7363 C   0  0  0  0  0  0  0  0  0  0  0  0
    9.4759  -17.9787   19.5749 C   0  0  2  0  0  0  0  0  0  0  0  0
    9.9929  -17.3761   18.3220 N   0  0  0  0  0  0  0  0  0  0  0  0
    9.5363  -16.9349   20.6008 C   0  0  0  0  0  0  0  0  0  0  0  0
   10.5701  -16.1802   20.6899 O   0  0  0  0  0  0  0  0  0  0  0  0
    8.5343  -16.6511   21.5474 N   0  0  0  0  0  0  0  0  0  0  0  0
    8.7295  -15.6217   22.5779 C   0  0  1  0  0  0  0  0  0  0  0  0
    7.3641  -14.9917   22.6941 C   0  0  0  0  0  0  0  0  0  0  0  0
    7.0999  -14.1638   23.8394 C   0  0  0  0  0  0  0  0  0  0  0  0
    6.3070  -14.5967   24.8709 C   0  0  0  0  0  0  0  0  0  0  0  0
    6.0713  -13.7978   25.9907 C   0  0  0  0  0  0  0  0  0  0  0  0
    6.6579  -12.5589   26.0329 C   0  0  0  0  0  0  0  0  0  0  0  0
    7.4585  -12.0874   25.0216 C   0  0  0  0  0  0  0  0  0  0  0  0
    7.6637  -12.9131   23.9325 C   0  0  0  0  0  0  0  0  0  0  0  0
    9.1954  -16.2592   23.8481 C   0  0  0  0  0  0  0  0  0  0  0  0
    8.5114  -17.1996   24.2830 O   0  0  0  0  0  0  0  0  0  0  0  0
    9.5243  -12.9635   29.4694 C   0  0  0  0  0  0  0  0  0  0  0  0
   10.9789  -13.9729   29.0706 S   0  0  0  0  0  0  0  0  0  0  0  0
   10.4262  -15.5114   28.2392 C   0  0  0  0  0  0  0  0  0  0  0  0
   10.1099  -15.2477   26.8102 C   0  0  0  0  0  0  0  0  0  0  0  0
   10.8180  -16.0928   25.8132 C   0  0  2  0  0  0  0  0  0  0  0  0
   10.3585  -15.7951   24.4945 N   0  0  0  0  0  0  0  0  0  0  0  0
   10.9885  -17.4899   26.1830 C   0  0  0  0  0  0  0  0  0  0  0  0
   11.6672  -17.8047   27.2110 O   0  0  0  0  0  0  0  0  0  0  0  0
   10.4584  -18.5385   25.4801 O   0  0  0  0  0  0  0  0  0  0  0  0
  2  4  1  0
  2  1  1  1
  3  2  1  0
  4  6  1  0
  4  5  1  6
  6  7  2  0
  8  9  1  0
  8  6  1  0
  9 10  1  1
 10 11  1  0
 11 16  2  0
 12 13  2  0
 12 11  1  0
 13 14  1  0
 14 15  2  0
 16 15  1  0
 17 18  2  0
 17  9  1  0
 20 21  1  0
 20 19  1  0
 21 22  1  0
 23 22  1  1
 23 24  1  0
 23 25  1  0
 24 17  1  0
 25 27  1  0
 26 25  2  0
M  END
$$$$
