VFM.pdb
     RDKit          3D

 27 27  0  0  1  0  0  0  0  0999 V2000
    9.9173  -19.7799   21.0341 C   0  0  0  0  0  0  0  0  0  0  0  0
   10.5809  -19.0535   19.9186 C   0  0  1  0  0  0  0  0  0  0  0  0
   10.6339  -19.9107   18.6778 C   0  0  0  0  0  0  0  0  0  0  0  0
    9.9554  -17.7184   19.6160 C   0  0  2  0  0  0  0  0  0  0  0  0
   10.7359  -17.0456   18.5491 N   0  0  0  0  0  0  0  0  0  0  0  0
    9.9323  -16.8051   20.7609 C   0  0  0  0  0  0  0  0  0  0  0  0
   11.0184  -16.2561   21.1673 O   0  0  0  0  0  0  0  0  0  0  0  0
    8.7925  -16.4420   21.5022 N   0  0  0  0  0  0  0  0  0  0  0  0
    8.8939  -15.5559   22.6702 C   0  0  1  0  0  0  0  0  0  0  0  0
    7.5308  -14.9133   22.7307 C   0  0  0  0  0  0  0  0  0  0  0  0
    7.2358  -14.0645   23.8531 C   0  0  0  0  0  0  0  0  0  0  0  0
    7.6097  -12.7454   23.8735 C   0  0  0  0  0  0  0  0  0  0  0  0
    7.3016  -11.9199   24.9559 C   0  0  0  0  0  0  0  0  0  0  0  0
    6.6101  -12.4664   26.0064 C   0  0  0  0  0  0  0  0  0  0  0  0
    6.2171  -13.7822   26.0256 C   0  0  0  0  0  0  0  0  0  0  0  0
    6.5440  -14.5618   24.9323 C   0  0  0  0  0  0  0  0  0  0  0  0
    9.2221  -16.3597   23.8881 C   0  0  0  0  0  0  0  0  0  0  0  0
    8.5481  -17.3849   24.0773 O   0  0  0  0  0  0  0  0  0  0  0  0
    9.5262  -13.2540   29.5920 C   0  0  0  0  0  0  0  0  0  0  0  0
   10.6299  -14.5947   29.0647 S   0  0  0  0  0  0  0  0  0  0  0  0
   10.7968  -14.5451   27.2389 C   0  0  0  0  0  0  0  0  0  0  0  0
   11.5553  -15.7280   26.7518 C   0  0  0  0  0  0  0  0  0  0  0  0
   10.8179  -16.6601   25.8593 C   0  0  2  0  0  0  0  0  0  0  0  0
   10.2528  -15.9494   24.7573 N   0  0  0  0  0  0  0  0  0  0  0  0
    9.9941  -17.6534   26.5321 C   0  0  0  0  0  0  0  0  0  0  0  0
   10.5218  -18.4961   27.3246 O   0  0  0  0  0  0  0  0  0  0  0  0
    8.6390  -17.7618   26.3698 O   0  0  0  0  0  0  0  0  0  0  0  0
  2  4  1  0
  2  1  1  1
  3  2  1  0
  4  6  1  0
  4  5  1  6
  6  7  2  0
  8  9  1  0
  8  6  1  0
  9 10  1  1
 10 11  1  0
 11 16  2  0
 12 13  2  0
 12 11  1  0
 13 14  1  0
 14 15  2  0
 16 15  1  0
 17 18  2  0
 17  9  1  0
 20 21  1  0
 20 19  1  0
 21 22  1  0
 23 22  1  1
 23 24  1  0
 23 25  1  0
 24 17  1  0
 25 27  1  0
 26 25  2  0
M  END
$$$$
