SHS.pdb
     RDKit          3D

 23 23  0  0  1  0  0  0  0  0999 V2000
    7.1314  -15.5175   18.4703 O   0  0  0  0  0  0  0  0  0  0  0  0
    8.0124  -15.2185   19.5077 C   0  0  0  0  0  0  0  0  0  0  0  0
    7.5228  -14.0165   20.2892 C   0  0  2  0  0  0  0  0  0  0  0  0
    7.6996  -12.8531   19.4868 N   0  0  0  0  0  0  0  0  0  0  0  0
    8.2512  -13.9585   21.5802 C   0  0  0  0  0  0  0  0  0  0  0  0
    9.4197  -13.4953   21.6205 O   0  0  0  0  0  0  0  0  0  0  0  0
    7.6939  -14.4060   22.8046 N   0  0  0  0  0  0  0  0  0  0  0  0
    8.3853  -14.3282   24.0769 C   0  0  1  0  0  0  0  0  0  0  0  0
    7.4085  -14.1319   25.2198 C   0  0  0  0  0  0  0  0  0  0  0  0
    8.0941  -14.0160   26.5243 C   0  0  0  0  0  0  0  0  0  0  0  0
    8.6131  -12.8524   27.0547 C   0  0  0  0  0  0  0  0  0  0  0  0
    9.1693  -13.1143   28.2642 N   0  0  0  0  0  0  0  0  0  0  0  0
    9.0056  -14.4195   28.4952 C   0  0  0  0  0  0  0  0  0  0  0  0
    8.3565  -14.9651   27.4452 N   0  0  0  0  0  0  0  0  0  0  0  0
    9.1137  -15.6108   24.3638 C   0  0  0  0  0  0  0  0  0  0  0  0
    8.5008  -16.6880   24.1479 O   0  0  0  0  0  0  0  0  0  0  0  0
   13.1144  -18.0943   24.5318 O   0  0  0  0  0  0  0  0  0  0  0  0
   12.4866  -16.8635   24.4624 C   0  0  0  0  0  0  0  0  0  0  0  0
   11.0740  -16.9348   25.0522 C   0  0  2  0  0  0  0  0  0  0  0  0
   10.4258  -15.6531   24.8539 N   0  0  0  0  0  0  0  0  0  0  0  0
   11.1005  -17.2958   26.4693 C   0  0  0  0  0  0  0  0  0  0  0  0
   11.5747  -18.5240   26.8767 O   0  0  0  0  0  0  0  0  0  0  0  0
   10.6905  -16.4897   27.3376 O   0  0  0  0  0  0  0  0  0  0  0  0
  1  2  1  0
  2  3  1  0
  3  4  1  6
  5  3  1  0
  6  5  2  0
  7  5  1  0
  8  7  1  0
  8  9  1  1
 10  9  1  0
 10 11  2  0
 12 11  1  0
 13 12  1  0
 14 13  2  0
 14 10  1  0
 15  8  1  0
 16 15  2  0
 19 18  1  1
 18 17  1  0
 19 20  1  0
 20 15  1  0
 21 22  1  0
 21 19  1  0
 23 21  2  0
M  END
$$$$
