SHS.pdb
     RDKit          3D

 23 23  0  0  1  0  0  0  0  0999 V2000
    7.4928  -20.8276   19.6368 O   0  0  0  0  0  0  0  0  0  0  0  0
    6.4175  -19.9764   19.3903 C   0  0  0  0  0  0  0  0  0  0  0  0
    6.8498  -18.8147   18.5192 C   0  0  2  0  0  0  0  0  0  0  0  0
    7.2414  -19.3241   17.2480 N   0  0  0  0  0  0  0  0  0  0  0  0
    7.9296  -18.0730   19.2151 C   0  0  0  0  0  0  0  0  0  0  0  0
    9.1160  -18.1639   18.8077 O   0  0  0  0  0  0  0  0  0  0  0  0
    7.6982  -17.2453   20.3427 N   0  0  0  0  0  0  0  0  0  0  0  0
    8.7372  -16.4769   21.0008 C   0  0  1  0  0  0  0  0  0  0  0  0
    8.2258  -15.1132   21.4224 C   0  0  0  0  0  0  0  0  0  0  0  0
    8.0237  -14.2131   20.2673 C   0  0  0  0  0  0  0  0  0  0  0  0
    6.8013  -13.8570   19.7349 C   0  0  0  0  0  0  0  0  0  0  0  0
    6.9911  -13.0192   18.6848 N   0  0  0  0  0  0  0  0  0  0  0  0
    8.3092  -12.8480   18.5547 C   0  0  0  0  0  0  0  0  0  0  0  0
    8.9338  -13.5685   19.5098 N   0  0  0  0  0  0  0  0  0  0  0  0
    9.1873  -17.1631   22.2596 C   0  0  0  0  0  0  0  0  0  0  0  0
    8.3002  -17.5105   23.0812 O   0  0  0  0  0  0  0  0  0  0  0  0
   12.1051  -20.1347   24.4147 O   0  0  0  0  0  0  0  0  0  0  0  0
   11.6495  -19.4357   23.3112 C   0  0  0  0  0  0  0  0  0  0  0  0
   10.8736  -18.1847   23.7369 C   0  0  2  0  0  0  0  0  0  0  0  0
   10.5329  -17.4264   22.5489 N   0  0  0  0  0  0  0  0  0  0  0  0
   11.6419  -17.3695   24.6773 C   0  0  0  0  0  0  0  0  0  0  0  0
   11.9582  -17.8465   25.9311 O   0  0  0  0  0  0  0  0  0  0  0  0
   12.0254  -16.2201   24.3553 O   0  0  0  0  0  0  0  0  0  0  0  0
  1  2  1  0
  2  3  1  0
  3  4  1  6
  5  3  1  0
  6  5  2  0
  7  5  1  0
  8  7  1  0
  8  9  1  1
 10  9  1  0
 10 11  2  0
 12 11  1  0
 13 12  1  0
 14 13  2  0
 14 10  1  0
 15  8  1  0
 16 15  2  0
 19 18  1  6
 18 17  1  0
 19 20  1  0
 20 15  1  0
 21 22  1  0
 21 19  1  0
 23 21  2  0
M  END
$$$$
