SHS.pdb
     RDKit          3D

 23 23  0  0  1  0  0  0  0  0999 V2000
   11.5097  -18.8281   12.1109 O   0  0  0  0  0  0  0  0  0  0  0  0
   12.8078  -19.2985   11.9228 C   0  0  0  0  0  0  0  0  0  0  0  0
   12.8069  -20.8041   11.7537 C   0  0  2  0  0  0  0  0  0  0  0  0
   11.7219  -21.1628   10.9035 N   0  0  0  0  0  0  0  0  0  0  0  0
   12.7383  -21.4343   13.0947 C   0  0  0  0  0  0  0  0  0  0  0  0
   11.6205  -21.7006   13.6060 O   0  0  0  0  0  0  0  0  0  0  0  0
   13.8885  -21.7636   13.8554 N   0  0  0  0  0  0  0  0  0  0  0  0
   13.8408  -22.4958   15.1062 C   0  0  1  0  0  0  0  0  0  0  0  0
   14.8130  -23.6593   15.0970 C   0  0  0  0  0  0  0  0  0  0  0  0
   14.3417  -24.7718   14.2453 C   0  0  0  0  0  0  0  0  0  0  0  0
   13.4495  -25.7517   14.6305 C   0  0  0  0  0  0  0  0  0  0  0  0
   13.2444  -26.6087   13.5988 N   0  0  0  0  0  0  0  0  0  0  0  0
   13.9927  -26.1793   12.5794 C   0  0  0  0  0  0  0  0  0  0  0  0
   14.6558  -25.0701   12.9686 N   0  0  0  0  0  0  0  0  0  0  0  0
   14.2521  -21.6152   16.2522 C   0  0  0  0  0  0  0  0  0  0  0  0
   15.1101  -20.7245   16.0218 O   0  0  0  0  0  0  0  0  0  0  0  0
   12.9444  -22.0878   20.2433 O   0  0  0  0  0  0  0  0  0  0  0  0
   13.1143  -20.8268   19.7004 C   0  0  0  0  0  0  0  0  0  0  0  0
   14.1715  -20.8456   18.5912 C   0  0  2  0  0  0  0  0  0  0  0  0
   13.7264  -21.7451   17.5446 N   0  0  0  0  0  0  0  0  0  0  0  0
   15.4818  -21.2447   19.1039 C   0  0  0  0  0  0  0  0  0  0  0  0
   16.1268  -20.4889   20.0591 O   0  0  0  0  0  0  0  0  0  0  0  0
   16.0398  -22.2844   18.6801 O   0  0  0  0  0  0  0  0  0  0  0  0
  1  2  1  0
  2  3  1  0
  3  4  1  6
  5  3  1  0
  6  5  2  0
  7  5  1  0
  8  7  1  0
  8  9  1  6
 10  9  1  0
 10 11  2  0
 12 11  1  0
 13 12  1  0
 14 13  2  0
 14 10  1  0
 15  8  1  0
 16 15  2  0
 19 18  1  1
 18 17  1  0
 19 20  1  0
 20 15  1  0
 21 22  1  0
 21 19  1  0
 23 21  2  0
M  END
$$$$
