SHS.pdb
     RDKit          3D

 23 23  0  0  1  0  0  0  0  0999 V2000
    8.5953  -15.4473   18.5270 O   0  0  0  0  0  0  0  0  0  0  0  0
    7.3957  -14.7944   18.8032 C   0  0  0  0  0  0  0  0  0  0  0  0
    7.6433  -13.5713   19.6624 C   0  0  2  0  0  0  0  0  0  0  0  0
    8.3504  -12.6091   18.8860 N   0  0  0  0  0  0  0  0  0  0  0  0
    8.3684  -13.9882   20.8874 C   0  0  0  0  0  0  0  0  0  0  0  0
    9.5906  -13.7204   21.0144 O   0  0  0  0  0  0  0  0  0  0  0  0
    7.7494  -14.6897   21.9527 N   0  0  0  0  0  0  0  0  0  0  0  0
    8.4247  -15.0265   23.1911 C   0  0  1  0  0  0  0  0  0  0  0  0
    7.4307  -15.2434   24.3154 C   0  0  0  0  0  0  0  0  0  0  0  0
    6.9797  -13.9689   24.9131 C   0  0  0  0  0  0  0  0  0  0  0  0
    7.4761  -12.7193   24.6018 C   0  0  0  0  0  0  0  0  0  0  0  0
    6.8331  -11.7796   25.3395 N   0  0  0  0  0  0  0  0  0  0  0  0
    5.9460  -12.4221   26.1037 C   0  0  0  0  0  0  0  0  0  0  0  0
    6.0336  -13.7442   25.8471 N   0  0  0  0  0  0  0  0  0  0  0  0
    9.1830  -16.3159   23.0478 C   0  0  0  0  0  0  0  0  0  0  0  0
    8.6103  -17.2636   22.4506 O   0  0  0  0  0  0  0  0  0  0  0  0
   13.1425  -16.6354   22.7809 O   0  0  0  0  0  0  0  0  0  0  0  0
   12.2791  -17.6458   22.3969 C   0  0  0  0  0  0  0  0  0  0  0  0
   11.1259  -17.7902   23.3957 C   0  0  2  0  0  0  0  0  0  0  0  0
   10.4801  -16.5006   23.5446 N   0  0  0  0  0  0  0  0  0  0  0  0
   11.5924  -18.2956   24.6864 C   0  0  0  0  0  0  0  0  0  0  0  0
   12.2885  -19.4822   24.7708 O   0  0  0  0  0  0  0  0  0  0  0  0
   11.3649  -17.6542   25.7394 O   0  0  0  0  0  0  0  0  0  0  0  0
  1  2  1  0
  2  3  1  0
  3  4  1  6
  5  3  1  0
  6  5  2  0
  7  5  1  0
  8  7  1  0
  8  9  1  1
 10  9  1  0
 10 11  2  0
 12 11  1  0
 13 12  1  0
 14 13  2  0
 14 10  1  0
 15  8  1  0
 16 15  2  0
 19 18  1  6
 18 17  1  0
 19 20  1  0
 20 15  1  0
 21 22  1  0
 21 19  1  0
 23 21  2  0
M  END
$$$$
