SHS.pdb
     RDKit          3D

 23 23  0  0  1  0  0  0  0  0999 V2000
   12.4484  -18.5892   16.8375 O   0  0  0  0  0  0  0  0  0  0  0  0
   11.1503  -18.2756   16.4397 C   0  0  0  0  0  0  0  0  0  0  0  0
   11.0530  -16.8142   16.0523 C   0  0  2  0  0  0  0  0  0  0  0  0
   11.7855  -16.6163   14.8469 N   0  0  0  0  0  0  0  0  0  0  0  0
   11.5434  -15.9878   17.1824 C   0  0  0  0  0  0  0  0  0  0  0  0
   12.6136  -15.3377   17.0657 O   0  0  0  0  0  0  0  0  0  0  0  0
   10.8593  -15.8841   18.4199 N   0  0  0  0  0  0  0  0  0  0  0  0
   11.3132  -15.0563   19.5207 C   0  0  1  0  0  0  0  0  0  0  0  0
   10.1631  -14.6831   20.4356 C   0  0  0  0  0  0  0  0  0  0  0  0
    9.0799  -13.9850   19.7115 C   0  0  0  0  0  0  0  0  0  0  0  0
    9.0073  -12.6231   19.5000 C   0  0  0  0  0  0  0  0  0  0  0  0
    7.8812  -12.3324   18.8013 N   0  0  0  0  0  0  0  0  0  0  0  0
    7.2524  -13.4887   18.5746 C   0  0  0  0  0  0  0  0  0  0  0  0
    7.9753  -14.4873   19.1238 N   0  0  0  0  0  0  0  0  0  0  0  0
   12.3012  -15.8021   20.3726 C   0  0  0  0  0  0  0  0  0  0  0  0
   12.0682  -17.0163   20.6049 O   0  0  0  0  0  0  0  0  0  0  0  0
   16.2381  -14.4992   22.0006 O   0  0  0  0  0  0  0  0  0  0  0  0
   15.8349  -15.5399   21.1832 C   0  0  0  0  0  0  0  0  0  0  0  0
   14.4387  -16.0353   21.5752 C   0  0  2  0  0  0  0  0  0  0  0  0
   13.4516  -15.2083   20.9088 N   0  0  0  0  0  0  0  0  0  0  0  0
   14.2481  -16.0142   23.0252 C   0  0  0  0  0  0  0  0  0  0  0  0
   15.0120  -16.8117   23.8498 O   0  0  0  0  0  0  0  0  0  0  0  0
   13.3834  -15.2674   23.5412 O   0  0  0  0  0  0  0  0  0  0  0  0
  1  2  1  0
  2  3  1  0
  3  4  1  6
  5  3  1  0
  6  5  2  0
  7  5  1  0
  8  7  1  0
  8  9  1  1
 10  9  1  0
 10 11  2  0
 12 11  1  0
 13 12  1  0
 14 13  2  0
 14 10  1  0
 15  8  1  0
 16 15  2  0
 19 18  1  1
 18 17  1  0
 19 20  1  0
 20 15  1  0
 21 22  1  0
 21 19  1  0
 23 21  2  0
M  END
$$$$
