SHS.pdb
     RDKit          3D

 23 23  0  0  1  0  0  0  0  0999 V2000
    8.3807  -12.3578   17.0412 O   0  0  0  0  0  0  0  0  0  0  0  0
    8.4564  -13.3787   17.9865 C   0  0  0  0  0  0  0  0  0  0  0  0
    8.7597  -14.7022   17.3144 C   0  0  2  0  0  0  0  0  0  0  0  0
    7.6401  -15.0700   16.5145 N   0  0  0  0  0  0  0  0  0  0  0  0
    9.0920  -15.7020   18.3586 C   0  0  0  0  0  0  0  0  0  0  0  0
    8.1789  -16.3940   18.8773 O   0  0  0  0  0  0  0  0  0  0  0  0
   10.4131  -15.9304   18.8197 N   0  0  0  0  0  0  0  0  0  0  0  0
   10.7496  -16.9036   19.8407 C   0  0  1  0  0  0  0  0  0  0  0  0
   12.0969  -17.5423   19.5656 C   0  0  0  0  0  0  0  0  0  0  0  0
   12.4393  -18.5733   20.5680 C   0  0  0  0  0  0  0  0  0  0  0  0
   12.0696  -19.9016   20.5080 C   0  0  0  0  0  0  0  0  0  0  0  0
   12.5554  -20.5567   21.5922 N   0  0  0  0  0  0  0  0  0  0  0  0
   13.2203  -19.6600   22.3252 C   0  0  0  0  0  0  0  0  0  0  0  0
   13.1509  -18.4619   21.7077 N   0  0  0  0  0  0  0  0  0  0  0  0
   10.8660  -16.2427   21.1852 C   0  0  0  0  0  0  0  0  0  0  0  0
   11.5151  -15.1670   21.2498 O   0  0  0  0  0  0  0  0  0  0  0  0
    8.1587  -16.5932   24.1717 O   0  0  0  0  0  0  0  0  0  0  0  0
    9.0508  -15.5451   24.0324 C   0  0  0  0  0  0  0  0  0  0  0  0
   10.4310  -16.0536   23.6028 C   0  0  2  0  0  0  0  0  0  0  0  0
   10.2899  -16.7686   22.3493 N   0  0  0  0  0  0  0  0  0  0  0  0
   11.0333  -16.9055   24.6279 C   0  0  0  0  0  0  0  0  0  0  0  0
   11.4580  -16.3752   25.8270 O   0  0  0  0  0  0  0  0  0  0  0  0
   11.1725  -18.1357   24.4298 O   0  0  0  0  0  0  0  0  0  0  0  0
  1  2  1  0
  2  3  1  0
  3  4  1  1
  5  3  1  0
  6  5  2  0
  7  5  1  0
  8  7  1  0
  8  9  1  6
 10  9  1  0
 10 11  2  0
 12 11  1  0
 13 12  1  0
 14 13  2  0
 14 10  1  0
 15  8  1  0
 16 15  2  0
 19 18  1  1
 18 17  1  0
 19 20  1  0
 20 15  1  0
 21 22  1  0
 21 19  1  0
 23 21  2  0
M  END
$$$$
