SHS.pdb
     RDKit          3D

 23 23  0  0  1  0  0  0  0  0999 V2000
    6.6658  -19.7297   20.9708 O   0  0  0  0  0  0  0  0  0  0  0  0
    5.7063  -18.7771   20.6336 C   0  0  0  0  0  0  0  0  0  0  0  0
    6.1034  -18.0508   19.3647 C   0  0  2  0  0  0  0  0  0  0  0  0
    6.1413  -18.9932   18.2974 N   0  0  0  0  0  0  0  0  0  0  0  0
    7.3995  -17.3663   19.5930 C   0  0  0  0  0  0  0  0  0  0  0  0
    8.4456  -17.8082   19.0527 O   0  0  0  0  0  0  0  0  0  0  0  0
    7.5332  -16.2125   20.4059 N   0  0  0  0  0  0  0  0  0  0  0  0
    8.7522  -15.4323   20.4974 C   0  0  1  0  0  0  0  0  0  0  0  0
    8.5138  -13.9933   20.0835 C   0  0  0  0  0  0  0  0  0  0  0  0
    8.2708  -13.8648   18.6311 C   0  0  0  0  0  0  0  0  0  0  0  0
    7.1669  -13.2704   18.0542 C   0  0  0  0  0  0  0  0  0  0  0  0
    7.2740  -13.3306   16.7030 N   0  0  0  0  0  0  0  0  0  0  0  0
    8.4243  -13.9517   16.4295 C   0  0  0  0  0  0  0  0  0  0  0  0
    9.0271  -14.2748   17.5930 N   0  0  0  0  0  0  0  0  0  0  0  0
    9.2455  -15.3841   21.9160 C   0  0  0  0  0  0  0  0  0  0  0  0
    8.3823  -15.3506   22.8306 O   0  0  0  0  0  0  0  0  0  0  0  0
   11.2039  -18.3822   24.2260 O   0  0  0  0  0  0  0  0  0  0  0  0
   10.6960  -17.6011   23.2035 C   0  0  0  0  0  0  0  0  0  0  0  0
   11.0606  -16.1267   23.4072 C   0  0  2  0  0  0  0  0  0  0  0  0
   10.6054  -15.3750   22.2539 N   0  0  0  0  0  0  0  0  0  0  0  0
   12.4979  -15.9517   23.6137 C   0  0  0  0  0  0  0  0  0  0  0  0
   13.0243  -15.8704   24.8848 O   0  0  0  0  0  0  0  0  0  0  0  0
   13.2753  -15.8728   22.6332 O   0  0  0  0  0  0  0  0  0  0  0  0
  1  2  1  0
  2  3  1  0
  3  4  1  6
  5  3  1  0
  6  5  2  0
  7  5  1  0
  8  7  1  0
  8  9  1  1
 10  9  1  0
 10 11  2  0
 12 11  1  0
 13 12  1  0
 14 13  2  0
 14 10  1  0
 15  8  1  0
 16 15  2  0
 19 18  1  6
 18 17  1  0
 19 20  1  0
 20 15  1  0
 21 22  1  0
 21 19  1  0
 23 21  2  0
M  END
$$$$
