SHS.pdb
     RDKit          3D

 23 23  0  0  1  0  0  0  0  0999 V2000
    8.1669  -20.6039   18.9159 O   0  0  0  0  0  0  0  0  0  0  0  0
    6.9649  -19.9127   19.0535 C   0  0  0  0  0  0  0  0  0  0  0  0
    7.0493  -18.5617   18.3729 C   0  0  2  0  0  0  0  0  0  0  0  0
    7.2849  -18.7694   16.9836 N   0  0  0  0  0  0  0  0  0  0  0  0
    8.1055  -17.7589   19.0364 C   0  0  0  0  0  0  0  0  0  0  0  0
    9.1872  -17.5285   18.4375 O   0  0  0  0  0  0  0  0  0  0  0  0
    7.9650  -17.2211   20.3406 N   0  0  0  0  0  0  0  0  0  0  0  0
    8.9619  -16.3791   20.9730 C   0  0  1  0  0  0  0  0  0  0  0  0
    8.3823  -15.0278   21.3433 C   0  0  0  0  0  0  0  0  0  0  0  0
    8.1122  -14.1931   20.1536 C   0  0  0  0  0  0  0  0  0  0  0  0
    6.8654  -13.7708   19.7389 C   0  0  0  0  0  0  0  0  0  0  0  0
    6.9910  -13.0244   18.6130 N   0  0  0  0  0  0  0  0  0  0  0  0
    8.2931  -12.9749   18.3202 C   0  0  0  0  0  0  0  0  0  0  0  0
    8.9711  -13.6803   19.2498 N   0  0  0  0  0  0  0  0  0  0  0  0
    9.4396  -16.9961   22.2572 C   0  0  0  0  0  0  0  0  0  0  0  0
    8.5987  -17.6298   22.9456 O   0  0  0  0  0  0  0  0  0  0  0  0
   13.0490  -18.4685   22.5809 O   0  0  0  0  0  0  0  0  0  0  0  0
   12.6980  -17.8786   23.7820 C   0  0  0  0  0  0  0  0  0  0  0  0
   11.1830  -17.6637   23.8650 C   0  0  2  0  0  0  0  0  0  0  0  0
   10.7620  -16.8950   22.7098 N   0  0  0  0  0  0  0  0  0  0  0  0
   10.8021  -16.9939   25.1081 C   0  0  0  0  0  0  0  0  0  0  0  0
   11.0298  -17.5895   26.3299 O   0  0  0  0  0  0  0  0  0  0  0  0
   10.2606  -15.8634   25.0802 O   0  0  0  0  0  0  0  0  0  0  0  0
  1  2  1  0
  2  3  1  0
  3  4  1  6
  5  3  1  0
  6  5  2  0
  7  5  1  0
  8  7  1  0
  8  9  1  1
 10  9  1  0
 10 11  2  0
 12 11  1  0
 13 12  1  0
 14 13  2  0
 14 10  1  0
 15  8  1  0
 16 15  2  0
 19 18  1  1
 18 17  1  0
 19 20  1  0
 20 15  1  0
 21 22  1  0
 21 19  1  0
 23 21  2  0
M  END
$$$$
