ACQ.pdb
     RDKit          3D

 21 20  0  0  1  0  0  0  0  0999 V2000
    9.4114  -15.4759   20.5210 C   0  0  0  0  0  0  0  0  0  0  0  0
    8.7222  -16.0469   21.7294 C   0  0  2  0  0  0  0  0  0  0  0  0
    7.3020  -16.2770   21.4536 N   0  0  0  0  0  0  0  0  0  0  0  0
    8.8102  -15.1387   22.9028 C   0  0  0  0  0  0  0  0  0  0  0  0
    9.9576  -14.8685   23.3677 O   0  0  0  0  0  0  0  0  0  0  0  0
    7.7031  -14.5556   23.5361 N   0  0  0  0  0  0  0  0  0  0  0  0
    7.8584  -13.6759   24.7185 C   0  0  1  0  0  0  0  0  0  0  0  0
    6.5149  -12.9593   24.8104 C   0  0  0  0  0  0  0  0  0  0  0  0
    6.3424  -12.1388   26.3876 S   0  0  0  0  0  0  0  0  0  0  0  0
    8.1076  -14.5137   25.8910 C   0  0  0  0  0  0  0  0  0  0  0  0
    7.4356  -15.5708   26.0671 O   0  0  0  0  0  0  0  0  0  0  0  0
   12.1161  -18.0295   25.6325 N   0  0  0  0  0  0  0  0  0  0  0  0
   11.8833  -18.1996   27.0172 C   0  0  0  0  0  0  0  0  0  0  0  0
   12.4515  -19.1548   27.5951 O   0  0  0  0  0  0  0  0  0  0  0  0
   11.0072  -17.3098   27.8060 C   0  0  0  0  0  0  0  0  0  0  0  0
   10.3953  -16.1882   27.0545 C   0  0  0  0  0  0  0  0  0  0  0  0
    9.5323  -15.2532   27.8307 C   0  0  2  0  0  0  0  0  0  0  0  0
    9.0759  -14.2250   26.8771 N   0  0  0  0  0  0  0  0  0  0  0  0
   10.2024  -14.6310   28.9803 C   0  0  0  0  0  0  0  0  0  0  0  0
   10.5960  -15.3745   29.9105 O   0  0  0  0  0  0  0  0  0  0  0  0
   10.4344  -13.2743   29.1157 O   0  0  0  0  0  0  0  0  0  0  0  0
  2  1  1  6
  3  2  1  0
  4  2  1  0
  4  5  2  0
  6  4  1  0
  7  6  1  0
  7 10  1  0
  7  8  1  1
  9  8  1  0
 10 18  1  0
 11 10  2  0
 13 12  1  0
 13 15  1  0
 14 13  2  0
 15 16  1  0
 17 16  1  6
 17 19  1  0
 18 17  1  0
 19 20  2  0
 19 21  1  0
M  END
$$$$
