ACQ.pdb
     RDKit          3D

 21 20  0  0  1  0  0  0  0  0999 V2000
   -0.4642  -25.8852   26.8636 C   0  0  0  0  0  0  0  0  0  0  0  0
   -1.8880  -25.9593   26.3859 C   0  0  2  0  0  0  0  0  0  0  0  0
   -1.9384  -26.0594   24.9253 N   0  0  0  0  0  0  0  0  0  0  0  0
   -2.6720  -24.7599   26.7810 C   0  0  0  0  0  0  0  0  0  0  0  0
   -2.7741  -24.4893   28.0147 O   0  0  0  0  0  0  0  0  0  0  0  0
   -3.3115  -23.9001   25.8763 N   0  0  0  0  0  0  0  0  0  0  0  0
   -4.0955  -22.7301   26.3377 C   0  0  1  0  0  0  0  0  0  0  0  0
   -4.0825  -21.7934   25.1338 C   0  0  0  0  0  0  0  0  0  0  0  0
   -3.6795  -20.1266   25.6339 S   0  0  0  0  0  0  0  0  0  0  0  0
   -5.4495  -23.1773   26.6624 C   0  0  0  0  0  0  0  0  0  0  0  0
   -6.1549  -23.7488   25.7815 O   0  0  0  0  0  0  0  0  0  0  0  0
   -7.2782  -27.2868   29.9506 N   0  0  0  0  0  0  0  0  0  0  0  0
   -8.4133  -26.4914   30.2324 C   0  0  0  0  0  0  0  0  0  0  0  0
   -9.4162  -27.0544   30.7287 O   0  0  0  0  0  0  0  0  0  0  0  0
   -8.4696  -25.0391   29.9694 C   0  0  0  0  0  0  0  0  0  0  0  0
   -7.2322  -24.4442   29.4107 C   0  0  0  0  0  0  0  0  0  0  0  0
   -7.3907  -23.5641   28.2183 C   0  0  2  0  0  0  0  0  0  0  0  0
   -6.0524  -23.0164   27.9288 N   0  0  0  0  0  0  0  0  0  0  0  0
   -8.3654  -22.4797   28.3971 C   0  0  0  0  0  0  0  0  0  0  0  0
   -7.9744  -21.4132   28.9289 O   0  0  0  0  0  0  0  0  0  0  0  0
   -9.6942  -22.5465   28.0197 O   0  0  0  0  0  0  0  0  0  0  0  0
  2  1  1  6
  3  2  1  0
  4  2  1  0
  4  5  2  0
  6  4  1  0
  7  6  1  0
  7 10  1  0
  7  8  1  6
  9  8  1  0
 10 18  1  0
 11 10  2  0
 13 12  1  0
 13 15  1  0
 14 13  2  0
 15 16  1  0
 17 16  1  1
 17 19  1  0
 18 17  1  0
 19 20  2  0
 19 21  1  0
M  END
$$$$
