ACQ.pdb
     RDKit          3D

 21 20  0  0  1  0  0  0  0  0999 V2000
    9.7058  -18.4286   20.2752 C   0  0  0  0  0  0  0  0  0  0  0  0
    9.4909  -16.9605   20.0310 C   0  0  2  0  0  0  0  0  0  0  0  0
   10.4865  -16.4421   19.0898 N   0  0  0  0  0  0  0  0  0  0  0  0
    9.5992  -16.1653   21.2822 C   0  0  0  0  0  0  0  0  0  0  0  0
   10.7398  -15.7273   21.6181 O   0  0  0  0  0  0  0  0  0  0  0  0
    8.5183  -15.8637   22.1233 N   0  0  0  0  0  0  0  0  0  0  0  0
    8.6730  -14.9750   23.2992 C   0  0  1  0  0  0  0  0  0  0  0  0
    7.2441  -14.5403   23.6096 C   0  0  0  0  0  0  0  0  0  0  0  0
    6.3926  -15.7948   24.5539 S   0  0  0  0  0  0  0  0  0  0  0  0
    9.2539  -15.7509   24.3943 C   0  0  0  0  0  0  0  0  0  0  0  0
    9.4530  -16.9922   24.2536 O   0  0  0  0  0  0  0  0  0  0  0  0
   11.4298  -15.5248   31.4839 N   0  0  0  0  0  0  0  0  0  0  0  0
   11.0057  -15.0162   30.2341 C   0  0  0  0  0  0  0  0  0  0  0  0
   10.2998  -13.9814   30.2303 O   0  0  0  0  0  0  0  0  0  0  0  0
   11.3539  -15.6452   28.9439 C   0  0  0  0  0  0  0  0  0  0  0  0
   10.6993  -15.0572   27.7510 C   0  0  0  0  0  0  0  0  0  0  0  0
   10.3788  -15.9905   26.6340 C   0  0  2  0  0  0  0  0  0  0  0  0
    9.6247  -15.2026   25.6413 N   0  0  0  0  0  0  0  0  0  0  0  0
    9.6135  -17.1760   27.0422 C   0  0  0  0  0  0  0  0  0  0  0  0
    8.3617  -17.1210   26.9876 O   0  0  0  0  0  0  0  0  0  0  0  0
   10.1743  -18.3596   27.4866 O   0  0  0  0  0  0  0  0  0  0  0  0
  2  1  1  1
  3  2  1  0
  4  2  1  0
  4  5  2  0
  6  4  1  0
  7  6  1  0
  7 10  1  0
  7  8  1  1
  9  8  1  0
 10 18  1  0
 11 10  2  0
 13 12  1  0
 13 15  1  0
 14 13  2  0
 15 16  1  0
 17 16  1  1
 17 19  1  0
 18 17  1  0
 19 20  2  0
 19 21  1  0
M  END
$$$$
