ACQ.pdb
     RDKit          3D

 21 20  0  0  1  0  0  0  0  0999 V2000
    6.7691  -14.8743   20.1773 C   0  0  0  0  0  0  0  0  0  0  0  0
    7.2489  -13.5447   20.6902 C   0  0  2  0  0  0  0  0  0  0  0  0
    8.1931  -12.9379   19.7490 N   0  0  0  0  0  0  0  0  0  0  0  0
    7.9387  -13.6686   22.0011 C   0  0  0  0  0  0  0  0  0  0  0  0
    9.1946  -13.8370   22.0047 O   0  0  0  0  0  0  0  0  0  0  0  0
    7.2913  -13.6115   23.2437 N   0  0  0  0  0  0  0  0  0  0  0  0
    8.0385  -13.7475   24.5163 C   0  0  1  0  0  0  0  0  0  0  0  0
    7.1427  -13.0478   25.5337 C   0  0  0  0  0  0  0  0  0  0  0  0
    5.5490  -13.8486   25.6292 S   0  0  0  0  0  0  0  0  0  0  0  0
    8.1906  -15.1708   24.8157 C   0  0  0  0  0  0  0  0  0  0  0  0
    7.3588  -16.0059   24.3564 O   0  0  0  0  0  0  0  0  0  0  0  0
   13.4032  -17.4967   23.7198 N   0  0  0  0  0  0  0  0  0  0  0  0
   12.0639  -17.9209   23.5562 C   0  0  0  0  0  0  0  0  0  0  0  0
   11.8634  -19.0572   23.0686 O   0  0  0  0  0  0  0  0  0  0  0  0
   10.9006  -17.0914   23.9306 C   0  0  0  0  0  0  0  0  0  0  0  0
    9.8211  -17.7994   24.6592 C   0  0  0  0  0  0  0  0  0  0  0  0
    9.3106  -17.1484   25.8990 C   0  0  2  0  0  0  0  0  0  0  0  0
    9.2319  -15.7054   25.6050 N   0  0  0  0  0  0  0  0  0  0  0  0
   10.1381  -17.3892   27.0886 C   0  0  0  0  0  0  0  0  0  0  0  0
   10.7059  -16.4074   27.6241 O   0  0  0  0  0  0  0  0  0  0  0  0
   10.3403  -18.6285   27.6683 O   0  0  0  0  0  0  0  0  0  0  0  0
  2  1  1  6
  3  2  1  0
  4  2  1  0
  4  5  2  0
  6  4  1  0
  7  6  1  0
  7 10  1  0
  7  8  1  1
  9  8  1  0
 10 18  1  0
 11 10  2  0
 13 12  1  0
 13 15  1  0
 14 13  2  0
 15 16  1  0
 17 16  1  6
 17 19  1  0
 18 17  1  0
 19 20  2  0
 19 21  1  0
M  END
$$$$
