ACQ.pdb
     RDKit          3D

 21 20  0  0  1  0  0  0  0  0999 V2000
    6.3644  -18.7321   23.6232 C   0  0  0  0  0  0  0  0  0  0  0  0
    7.0623  -17.6968   22.7853 C   0  0  2  0  0  0  0  0  0  0  0  0
    8.0276  -18.3280   21.8822 N   0  0  0  0  0  0  0  0  0  0  0  0
    7.8032  -16.7128   23.6175 C   0  0  0  0  0  0  0  0  0  0  0  0
    9.0235  -16.9401   23.8719 O   0  0  0  0  0  0  0  0  0  0  0  0
    7.2411  -15.5411   24.1446 N   0  0  0  0  0  0  0  0  0  0  0  0
    8.0215  -14.6263   25.0109 C   0  0  1  0  0  0  0  0  0  0  0  0
    7.1241  -13.3990   25.1355 C   0  0  0  0  0  0  0  0  0  0  0  0
    7.7981  -12.2401   26.3158 S   0  0  0  0  0  0  0  0  0  0  0  0
    8.2321  -15.2777   26.3033 C   0  0  0  0  0  0  0  0  0  0  0  0
    7.2652  -15.8425   26.8916 O   0  0  0  0  0  0  0  0  0  0  0  0
   12.5054  -19.7155   29.9413 N   0  0  0  0  0  0  0  0  0  0  0  0
   11.5413  -19.2245   29.0303 C   0  0  0  0  0  0  0  0  0  0  0  0
   11.3647  -19.8581   27.9642 O   0  0  0  0  0  0  0  0  0  0  0  0
   10.7403  -18.0083   29.2766 C   0  0  0  0  0  0  0  0  0  0  0  0
   10.4057  -17.2109   28.0726 C   0  0  0  0  0  0  0  0  0  0  0  0
    9.6148  -15.9667   28.2913 C   0  0  2  0  0  0  0  0  0  0  0  0
    9.4760  -15.3282   26.9692 N   0  0  0  0  0  0  0  0  0  0  0  0
   10.2151  -15.0346   29.2549 C   0  0  0  0  0  0  0  0  0  0  0  0
   10.6960  -13.9609   28.8201 O   0  0  0  0  0  0  0  0  0  0  0  0
   10.2909  -15.2535   30.6184 O   0  0  0  0  0  0  0  0  0  0  0  0
  2  1  1  1
  3  2  1  0
  4  2  1  0
  4  5  2  0
  6  4  1  0
  7  6  1  0
  7 10  1  0
  7  8  1  1
  9  8  1  0
 10 18  1  0
 11 10  2  0
 13 12  1  0
 13 15  1  0
 14 13  2  0
 15 16  1  0
 17 16  1  6
 17 19  1  0
 18 17  1  0
 19 20  2  0
 19 21  1  0
M  END
$$$$
