ACQ.pdb
     RDKit          3D

 21 20  0  0  1  0  0  0  0  0999 V2000
    6.8415  -14.7579   20.2506 C   0  0  0  0  0  0  0  0  0  0  0  0
    7.1577  -13.3559   20.6926 C   0  0  2  0  0  0  0  0  0  0  0  0
    8.1265  -12.7346   19.7863 N   0  0  0  0  0  0  0  0  0  0  0  0
    7.7360  -13.3197   22.0614 C   0  0  0  0  0  0  0  0  0  0  0  0
    8.9915  -13.4379   22.1857 O   0  0  0  0  0  0  0  0  0  0  0  0
    6.9830  -13.1625   23.2339 N   0  0  0  0  0  0  0  0  0  0  0  0
    7.6071  -13.2468   24.5755 C   0  0  1  0  0  0  0  0  0  0  0  0
    6.5255  -12.7099   25.5077 C   0  0  0  0  0  0  0  0  0  0  0  0
    7.0110  -12.9014   27.2159 S   0  0  0  0  0  0  0  0  0  0  0  0
    7.9182  -14.6480   24.8557 C   0  0  0  0  0  0  0  0  0  0  0  0
    7.0636  -15.5471   24.6079 O   0  0  0  0  0  0  0  0  0  0  0  0
   12.9666  -19.8116   24.7747 N   0  0  0  0  0  0  0  0  0  0  0  0
   12.3059  -18.5806   24.5543 C   0  0  0  0  0  0  0  0  0  0  0  0
   12.9825  -17.6210   24.1178 O   0  0  0  0  0  0  0  0  0  0  0  0
   10.8663  -18.3767   24.8142 C   0  0  0  0  0  0  0  0  0  0  0  0
   10.3865  -16.9804   24.6826 C   0  0  0  0  0  0  0  0  0  0  0  0
    9.3852  -16.5184   25.6854 C   0  0  2  0  0  0  0  0  0  0  0  0
    9.1430  -15.0920   25.3997 N   0  0  0  0  0  0  0  0  0  0  0  0
    9.8040  -16.7021   27.0814 C   0  0  0  0  0  0  0  0  0  0  0  0
   10.2974  -15.7204   27.6861 O   0  0  0  0  0  0  0  0  0  0  0  0
    9.6941  -17.8871   27.7859 O   0  0  0  0  0  0  0  0  0  0  0  0
  2  1  1  6
  3  2  1  0
  4  2  1  0
  4  5  2  0
  6  4  1  0
  7  6  1  0
  7 10  1  0
  7  8  1  1
  9  8  1  0
 10 18  1  0
 11 10  2  0
 13 12  1  0
 13 15  1  0
 14 13  2  0
 15 16  1  0
 17 16  1  6
 17 19  1  0
 18 17  1  0
 19 20  2  0
 19 21  1  0
M  END
$$$$
