ACQ.pdb
     RDKit          3D

 21 20  0  0  1  0  0  0  0  0999 V2000
    6.6616  -14.9943   20.3640 C   0  0  0  0  0  0  0  0  0  0  0  0
    7.0699  -13.6142   20.7994 C   0  0  2  0  0  0  0  0  0  0  0  0
    7.8717  -12.9611   19.7618 N   0  0  0  0  0  0  0  0  0  0  0  0
    7.8815  -13.6394   22.0444 C   0  0  0  0  0  0  0  0  0  0  0  0
    9.1364  -13.7806   21.9400 O   0  0  0  0  0  0  0  0  0  0  0  0
    7.3509  -13.5169   23.3367 N   0  0  0  0  0  0  0  0  0  0  0  0
    8.2052  -13.6337   24.5420 C   0  0  1  0  0  0  0  0  0  0  0  0
    7.3583  -13.0039   25.6434 C   0  0  0  0  0  0  0  0  0  0  0  0
    5.7839  -13.8357   25.7841 S   0  0  0  0  0  0  0  0  0  0  0  0
    8.4584  -15.0515   24.7961 C   0  0  0  0  0  0  0  0  0  0  0  0
    7.6261  -15.9217   24.4085 O   0  0  0  0  0  0  0  0  0  0  0  0
   12.9433  -18.5458   22.8549 N   0  0  0  0  0  0  0  0  0  0  0  0
   11.7864  -17.8679   22.4052 C   0  0  0  0  0  0  0  0  0  0  0  0
   11.7397  -17.5204   21.2026 O   0  0  0  0  0  0  0  0  0  0  0  0
   10.6404  -17.5529   23.2822 C   0  0  0  0  0  0  0  0  0  0  0  0
   10.9733  -17.3246   24.7085 C   0  0  0  0  0  0  0  0  0  0  0  0
    9.8394  -16.9903   25.6162 C   0  0  2  0  0  0  0  0  0  0  0  0
    9.6014  -15.5429   25.4633 N   0  0  0  0  0  0  0  0  0  0  0  0
   10.0779  -17.3289   27.0256 C   0  0  0  0  0  0  0  0  0  0  0  0
   10.2799  -18.5311   27.3202 O   0  0  0  0  0  0  0  0  0  0  0  0
   10.0967  -16.4134   28.0620 O   0  0  0  0  0  0  0  0  0  0  0  0
  2  1  1  6
  3  2  1  0
  4  2  1  0
  4  5  2  0
  6  4  1  0
  7  6  1  0
  7 10  1  0
  7  8  1  1
  9  8  1  0
 10 18  1  0
 11 10  2  0
 13 12  1  0
 13 15  1  0
 14 13  2  0
 15 16  1  0
 17 16  1  6
 17 19  1  0
 18 17  1  0
 19 20  2  0
 19 21  1  0
M  END
$$$$
