ACQ.pdb
     RDKit          3D

 21 20  0  0  1  0  0  0  0  0999 V2000
    6.1164  -14.1416   20.5647 C   0  0  0  0  0  0  0  0  0  0  0  0
    7.1182  -13.0809   20.9285 C   0  0  2  0  0  0  0  0  0  0  0  0
    8.1373  -12.9527   19.8841 N   0  0  0  0  0  0  0  0  0  0  0  0
    7.8181  -13.3886   22.2033 C   0  0  0  0  0  0  0  0  0  0  0  0
    8.9806  -13.8893   22.1439 O   0  0  0  0  0  0  0  0  0  0  0  0
    7.2772  -13.1614   23.4770 N   0  0  0  0  0  0  0  0  0  0  0  0
    8.0328  -13.4823   24.7108 C   0  0  1  0  0  0  0  0  0  0  0  0
    7.3650  -12.6169   25.7747 C   0  0  0  0  0  0  0  0  0  0  0  0
    5.5981  -12.8786   25.7851 S   0  0  0  0  0  0  0  0  0  0  0  0
    7.8751  -14.9084   24.9941 C   0  0  0  0  0  0  0  0  0  0  0  0
    6.7494  -15.4636   24.8366 O   0  0  0  0  0  0  0  0  0  0  0  0
    6.9005  -17.7457   22.2457 N   0  0  0  0  0  0  0  0  0  0  0  0
    6.9303  -18.5670   23.3969 C   0  0  0  0  0  0  0  0  0  0  0  0
    5.8366  -18.9396   23.8807 O   0  0  0  0  0  0  0  0  0  0  0  0
    8.1822  -19.0011   24.0493 C   0  0  0  0  0  0  0  0  0  0  0  0
    9.0835  -17.9094   24.4890 C   0  0  0  0  0  0  0  0  0  0  0  0
    8.6926  -17.1746   25.7255 C   0  0  2  0  0  0  0  0  0  0  0  0
    8.9194  -15.7447   25.4448 N   0  0  0  0  0  0  0  0  0  0  0  0
    9.4276  -17.5883   26.9281 C   0  0  0  0  0  0  0  0  0  0  0  0
   10.3444  -16.8425   27.3481 O   0  0  0  0  0  0  0  0  0  0  0  0
    9.1829  -18.7490   27.6391 O   0  0  0  0  0  0  0  0  0  0  0  0
  2  1  1  6
  3  2  1  0
  4  2  1  0
  4  5  2  0
  6  4  1  0
  7  6  1  0
  7 10  1  0
  7  8  1  1
  9  8  1  0
 10 18  1  0
 11 10  2  0
 13 12  1  0
 13 15  1  0
 14 13  2  0
 15 16  1  0
 17 16  1  6
 17 19  1  0
 18 17  1  0
 19 20  2  0
 19 21  1  0
M  END
$$$$
