ACQ.pdb
     RDKit          3D

 21 20  0  0  1  0  0  0  0  0999 V2000
    8.0761  -12.1857   20.6262 C   0  0  0  0  0  0  0  0  0  0  0  0
    8.2283  -13.4798   19.8757 C   0  0  2  0  0  0  0  0  0  0  0  0
    7.0463  -13.7407   19.0506 N   0  0  0  0  0  0  0  0  0  0  0  0
    8.4015  -14.6382   20.7909 C   0  0  0  0  0  0  0  0  0  0  0  0
    7.3644  -15.2428   21.1965 O   0  0  0  0  0  0  0  0  0  0  0  0
    9.6425  -15.1122   21.2401 N   0  0  0  0  0  0  0  0  0  0  0  0
    9.7577  -16.3605   22.0305 C   0  0  1  0  0  0  0  0  0  0  0  0
   10.8345  -17.1518   21.2947 C   0  0  0  0  0  0  0  0  0  0  0  0
   11.2423  -18.6449   22.1864 S   0  0  0  0  0  0  0  0  0  0  0  0
   10.1729  -16.0132   23.3891 C   0  0  0  0  0  0  0  0  0  0  0  0
   10.9811  -15.0588   23.5786 O   0  0  0  0  0  0  0  0  0  0  0  0
    9.7602  -13.3371   27.5007 N   0  0  0  0  0  0  0  0  0  0  0  0
    9.8283  -14.3683   28.4664 C   0  0  0  0  0  0  0  0  0  0  0  0
   10.2228  -14.0698   29.6172 O   0  0  0  0  0  0  0  0  0  0  0  0
    9.4590  -15.7697   28.1816 C   0  0  0  0  0  0  0  0  0  0  0  0
    9.1442  -16.0704   26.7647 C   0  0  0  0  0  0  0  0  0  0  0  0
   10.2967  -16.3903   25.8753 C   0  0  2  0  0  0  0  0  0  0  0  0
    9.7247  -16.6835   24.5480 N   0  0  0  0  0  0  0  0  0  0  0  0
   11.1223  -17.5122   26.3416 C   0  0  0  0  0  0  0  0  0  0  0  0
   12.1629  -17.2521   26.9916 O   0  0  0  0  0  0  0  0  0  0  0  0
   10.8362  -18.8463   26.1160 O   0  0  0  0  0  0  0  0  0  0  0  0
  2  1  1  1
  3  2  1  0
  4  2  1  0
  4  5  2  0
  6  4  1  0
  7  6  1  0
  7 10  1  0
  7  8  1  6
  9  8  1  0
 10 18  1  0
 11 10  2  0
 13 12  1  0
 13 15  1  0
 14 13  2  0
 15 16  1  0
 17 16  1  1
 17 19  1  0
 18 17  1  0
 19 20  2  0
 19 21  1  0
M  END
$$$$
