ACQ.pdb
     RDKit          3D

 21 20  0  0  1  0  0  0  0  0999 V2000
    7.2073  -18.8043   18.5584 C   0  0  0  0  0  0  0  0  0  0  0  0
    7.7653  -17.6186   17.8208 C   0  0  2  0  0  0  0  0  0  0  0  0
    8.6951  -18.0515   16.7749 N   0  0  0  0  0  0  0  0  0  0  0  0
    8.5030  -16.6967   18.7238 C   0  0  0  0  0  0  0  0  0  0  0  0
    9.7264  -16.9333   18.9537 O   0  0  0  0  0  0  0  0  0  0  0  0
    7.9347  -15.5746   19.3439 N   0  0  0  0  0  0  0  0  0  0  0  0
    8.7279  -14.6924   20.2320 C   0  0  1  0  0  0  0  0  0  0  0  0
    7.8356  -13.4680   20.4099 C   0  0  0  0  0  0  0  0  0  0  0  0
    7.6907  -12.5631   18.8766 S   0  0  0  0  0  0  0  0  0  0  0  0
    8.9521  -15.3888   21.4983 C   0  0  0  0  0  0  0  0  0  0  0  0
    7.9982  -15.9996   22.0614 O   0  0  0  0  0  0  0  0  0  0  0  0
    9.9566  -20.4841   22.3483 N   0  0  0  0  0  0  0  0  0  0  0  0
   10.9815  -19.7003   21.7687 C   0  0  0  0  0  0  0  0  0  0  0  0
   11.7676  -20.2596   20.9697 O   0  0  0  0  0  0  0  0  0  0  0  0
   11.1657  -18.2643   22.0609 C   0  0  0  0  0  0  0  0  0  0  0  0
   10.1618  -17.6655   22.9725 C   0  0  0  0  0  0  0  0  0  0  0  0
   10.3866  -16.2495   23.3798 C   0  0  2  0  0  0  0  0  0  0  0  0
   10.1956  -15.4354   22.1651 N   0  0  0  0  0  0  0  0  0  0  0  0
   11.7080  -15.9963   23.9694 C   0  0  0  0  0  0  0  0  0  0  0  0
   12.5399  -15.3393   23.2990 O   0  0  0  0  0  0  0  0  0  0  0  0
   12.1079  -16.4317   25.2196 O   0  0  0  0  0  0  0  0  0  0  0  0
  2  1  1  1
  3  2  1  0
  4  2  1  0
  4  5  2  0
  6  4  1  0
  7  6  1  0
  7 10  1  0
  7  8  1  1
  9  8  1  0
 10 18  1  0
 11 10  2  0
 13 12  1  0
 13 15  1  0
 14 13  2  0
 15 16  1  0
 17 16  1  6
 17 19  1  0
 18 17  1  0
 19 20  2  0
 19 21  1  0
M  END
$$$$
