ACQ.pdb
     RDKit          3D

 21 20  0  0  1  0  0  0  0  0999 V2000
    6.4233  -15.2475   20.7882 C   0  0  0  0  0  0  0  0  0  0  0  0
    7.1600  -13.9574   21.0203 C   0  0  2  0  0  0  0  0  0  0  0  0
    8.1411  -13.7241   19.9578 N   0  0  0  0  0  0  0  0  0  0  0  0
    7.8913  -13.9578   22.3144 C   0  0  0  0  0  0  0  0  0  0  0  0
    9.0900  -14.3686   22.3263 O   0  0  0  0  0  0  0  0  0  0  0  0
    7.3427  -13.5317   23.5327 N   0  0  0  0  0  0  0  0  0  0  0  0
    8.1022  -13.6248   24.8019 C   0  0  1  0  0  0  0  0  0  0  0  0
    7.3179  -12.7282   25.7548 C   0  0  0  0  0  0  0  0  0  0  0  0
    5.6555  -13.3427   25.9768 S   0  0  0  0  0  0  0  0  0  0  0  0
    8.0997  -15.0190   25.2433 C   0  0  0  0  0  0  0  0  0  0  0  0
    7.2647  -15.8349   24.7561 O   0  0  0  0  0  0  0  0  0  0  0  0
   11.4236  -17.5820   22.3029 N   0  0  0  0  0  0  0  0  0  0  0  0
   11.4313  -18.5902   23.2948 C   0  0  0  0  0  0  0  0  0  0  0  0
   12.0273  -19.6617   23.0383 O   0  0  0  0  0  0  0  0  0  0  0  0
   10.7733  -18.4385   24.6084 C   0  0  0  0  0  0  0  0  0  0  0  0
   10.1463  -17.1187   24.8584 C   0  0  0  0  0  0  0  0  0  0  0  0
    9.4313  -16.9513   26.1554 C   0  0  2  0  0  0  0  0  0  0  0  0
    8.9897  -15.5451   26.2047 N   0  0  0  0  0  0  0  0  0  0  0  0
   10.2420  -17.2801   27.3354 C   0  0  0  0  0  0  0  0  0  0  0  0
   10.7615  -16.3373   27.9789 O   0  0  0  0  0  0  0  0  0  0  0  0
   10.4781  -18.5631   27.7948 O   0  0  0  0  0  0  0  0  0  0  0  0
  2  1  1  6
  3  2  1  0
  4  2  1  0
  4  5  2  0
  6  4  1  0
  7  6  1  0
  7 10  1  0
  7  8  1  1
  9  8  1  0
 10 18  1  0
 11 10  2  0
 13 12  1  0
 13 15  1  0
 14 13  2  0
 15 16  1  0
 17 16  1  6
 17 19  1  0
 18 17  1  0
 19 20  2  0
 19 21  1  0
M  END
$$$$
