EDS.pdb
     RDKit          3D

 24 23  0  0  1  0  0  0  0  0999 V2000
   17.8530  -12.2273  -18.2084 N   0  0  0  0  0  0  0  0  0  0  0  0
   17.6885  -11.4054  -17.0295 C   0  0  1  0  0  0  0  0  0  0  0  0
   18.6420  -11.9761  -15.9728 C   0  0  0  0  0  0  0  0  0  0  0  0
   18.0687  -13.3087  -15.4857 C   0  0  0  0  0  0  0  0  0  0  0  0
   17.1783  -13.0577  -14.3315 C   0  0  0  0  0  0  0  0  0  0  0  0
   17.3940  -12.1144  -13.5349 O   0  0  0  0  0  0  0  0  0  0  0  0
   18.1616  -10.0392  -17.3167 C   0  0  0  0  0  0  0  0  0  0  0  0
   18.7840   -9.8340  -18.3916 O   0  0  0  0  0  0  0  0  0  0  0  0
   16.0847  -13.8769  -14.1225 O   0  0  0  0  0  0  0  0  0  0  0  0
   17.9470   -8.9442  -16.4358 N   0  0  0  0  0  0  0  0  0  0  0  0
   18.4557   -7.6352  -16.8164 C   0  0  1  0  0  0  0  0  0  0  0  0
   17.2807   -6.7824  -17.1874 C   0  0  0  0  0  0  0  0  0  0  0  0
   17.6477   -5.4131  -17.5232 C   0  0  0  0  0  0  0  0  0  0  0  0
   17.1100   -4.3757  -17.0975 O   0  0  0  0  0  0  0  0  0  0  0  0
   19.1905   -7.0456  -15.6419 C   0  0  0  0  0  0  0  0  0  0  0  0
   18.8182   -7.1084  -14.4576 O   0  0  0  0  0  0  0  0  0  0  0  0
   18.7166   -5.2336  -18.4184 O   0  0  0  0  0  0  0  0  0  0  0  0
   23.4555   -5.2945  -14.0158 O   0  0  0  0  0  0  0  0  0  0  0  0
   22.6759   -5.7080  -15.0836 C   0  0  0  0  0  0  0  0  0  0  0  0
   21.2091   -5.8239  -14.7328 C   0  0  2  0  0  0  0  0  0  0  0  0
   20.4328   -6.3392  -15.8490 N   0  0  0  0  0  0  0  0  0  0  0  0
   20.6923   -4.5331  -14.2801 C   0  0  0  0  0  0  0  0  0  0  0  0
   20.6224   -4.2435  -12.9349 O   0  0  0  0  0  0  0  0  0  0  0  0
   20.3068   -3.6760  -15.1265 O   0  0  0  0  0  0  0  0  0  0  0  0
  2  1  1  6
  2  7  1  0
  2  3  1  0
  3  4  1  0
  4  5  1  0
  5  9  1  0
  6  5  2  0
  7  8  2  0
  7 10  1  0
 10 11  1  0
 11 15  1  0
 12 13  1  0
 11 12  1  1
 13 17  1  0
 14 13  2  0
 15 16  2  0
 15 21  1  0
 18 19  1  0
 20 19  1  6
 20 22  1  0
 21 20  1  0
 22 23  1  0
 24 22  2  0
M  END
$$$$
