EDS.pdb
     RDKit          3D

 24 23  0  0  1  0  0  0  0  0999 V2000
   14.9600  -11.8199  -15.3094 N   0  0  0  0  0  0  0  0  0  0  0  0
   16.1181  -12.0623  -14.4772 C   0  0  1  0  0  0  0  0  0  0  0  0
   16.7180  -13.3904  -14.9541 C   0  0  0  0  0  0  0  0  0  0  0  0
   15.6955  -14.4970  -14.6865 C   0  0  0  0  0  0  0  0  0  0  0  0
   16.2365  -15.7828  -15.1783 C   0  0  0  0  0  0  0  0  0  0  0  0
   15.5952  -16.8519  -15.0490 O   0  0  0  0  0  0  0  0  0  0  0  0
   17.1362  -11.0304  -14.7445 C   0  0  0  0  0  0  0  0  0  0  0  0
   18.1735  -11.0129  -14.0312 O   0  0  0  0  0  0  0  0  0  0  0  0
   17.4739  -15.8118  -15.7937 O   0  0  0  0  0  0  0  0  0  0  0  0
   16.9999  -10.0553  -15.7700 N   0  0  0  0  0  0  0  0  0  0  0  0
   18.0035   -9.0066  -15.8705 C   0  0  1  0  0  0  0  0  0  0  0  0
   18.7707   -9.2332  -17.1376 C   0  0  0  0  0  0  0  0  0  0  0  0
   19.7717   -8.2063  -17.3948 C   0  0  0  0  0  0  0  0  0  0  0  0
   19.7730   -7.3907  -18.3335 O   0  0  0  0  0  0  0  0  0  0  0  0
   17.3036   -7.6739  -15.9041 C   0  0  0  0  0  0  0  0  0  0  0  0
   16.3077   -7.4038  -16.5970 O   0  0  0  0  0  0  0  0  0  0  0  0
   20.8503   -8.1189  -16.4975 O   0  0  0  0  0  0  0  0  0  0  0  0
   16.0595   -3.5894  -13.8053 O   0  0  0  0  0  0  0  0  0  0  0  0
   16.6703   -4.8326  -13.7823 C   0  0  0  0  0  0  0  0  0  0  0  0
   17.1750   -5.2669  -15.1405 C   0  0  2  0  0  0  0  0  0  0  0  0
   17.7850   -6.5856  -15.0862 N   0  0  0  0  0  0  0  0  0  0  0  0
   18.1061   -4.2750  -15.6765 C   0  0  0  0  0  0  0  0  0  0  0  0
   17.6340   -3.1585  -16.3316 O   0  0  0  0  0  0  0  0  0  0  0  0
   19.3525   -4.4407  -15.5393 O   0  0  0  0  0  0  0  0  0  0  0  0
  2  1  1  6
  2  7  1  0
  2  3  1  0
  3  4  1  0
  4  5  1  0
  5  9  1  0
  6  5  2  0
  7  8  2  0
  7 10  1  0
 10 11  1  0
 11 15  1  0
 12 13  1  0
 11 12  1  6
 13 17  1  0
 14 13  2  0
 15 16  2  0
 15 21  1  0
 18 19  1  0
 20 19  1  1
 20 22  1  0
 21 20  1  0
 22 23  1  0
 24 22  2  0
M  END
$$$$
