EDS.pdb
     RDKit          3D

 24 23  0  0  1  0  0  0  0  0999 V2000
   19.9552  -11.0239  -16.0740 N   0  0  0  0  0  0  0  0  0  0  0  0
   19.7808   -9.7230  -16.6820 C   0  0  1  0  0  0  0  0  0  0  0  0
   18.3253   -9.6655  -17.1611 C   0  0  0  0  0  0  0  0  0  0  0  0
   18.1537  -10.6916  -18.2834 C   0  0  0  0  0  0  0  0  0  0  0  0
   16.7828  -10.5850  -18.8288 C   0  0  0  0  0  0  0  0  0  0  0  0
   15.9454   -9.7926  -18.3372 O   0  0  0  0  0  0  0  0  0  0  0  0
   19.9166   -8.6793  -15.6500 C   0  0  0  0  0  0  0  0  0  0  0  0
   19.4576   -8.9098  -14.5005 O   0  0  0  0  0  0  0  0  0  0  0  0
   16.4126  -11.3729  -19.9025 O   0  0  0  0  0  0  0  0  0  0  0  0
   20.5415   -7.4259  -15.8936 N   0  0  0  0  0  0  0  0  0  0  0  0
   20.4917   -6.4099  -14.8533 C   0  0  1  0  0  0  0  0  0  0  0  0
   21.8839   -6.2287  -14.3294 C   0  0  0  0  0  0  0  0  0  0  0  0
   21.9656   -5.2722  -13.2335 C   0  0  0  0  0  0  0  0  0  0  0  0
   22.9523   -4.5815  -12.9242 O   0  0  0  0  0  0  0  0  0  0  0  0
   19.9803   -5.1290  -15.4573 C   0  0  0  0  0  0  0  0  0  0  0  0
   20.4426   -4.5795  -16.4719 O   0  0  0  0  0  0  0  0  0  0  0  0
   20.8188   -5.1044  -12.4379 O   0  0  0  0  0  0  0  0  0  0  0  0
   16.5020   -1.6443  -15.2897 O   0  0  0  0  0  0  0  0  0  0  0  0
   17.0159   -2.8305  -14.7917 C   0  0  0  0  0  0  0  0  0  0  0  0
   18.3525   -3.1951  -15.3990 C   0  0  2  0  0  0  0  0  0  0  0  0
   18.8655   -4.4402  -14.8508 N   0  0  0  0  0  0  0  0  0  0  0  0
   19.3076   -2.1031  -15.2160 C   0  0  0  0  0  0  0  0  0  0  0  0
   19.5051   -1.1753  -16.2153 O   0  0  0  0  0  0  0  0  0  0  0  0
   19.9571   -2.0077  -14.1350 O   0  0  0  0  0  0  0  0  0  0  0  0
  2  1  1  1
  2  7  1  0
  2  3  1  0
  3  4  1  0
  4  5  1  0
  5  9  1  0
  6  5  2  0
  7  8  2  0
  7 10  1  0
 10 11  1  0
 11 15  1  0
 12 13  1  0
 11 12  1  6
 13 17  1  0
 14 13  2  0
 15 16  2  0
 15 21  1  0
 18 19  1  0
 20 19  1  1
 20 22  1  0
 21 20  1  0
 22 23  1  0
 24 22  2  0
M  END
$$$$
