EDS.pdb
     RDKit          3D

 24 23  0  0  1  0  0  0  0  0999 V2000
   20.8811  -11.4277  -15.9221 N   0  0  0  0  0  0  0  0  0  0  0  0
   20.1668  -10.2926  -16.4641 C   0  0  1  0  0  0  0  0  0  0  0  0
   18.6787  -10.6588  -16.4137 C   0  0  0  0  0  0  0  0  0  0  0  0
   18.4084  -11.3670  -15.0844 C   0  0  0  0  0  0  0  0  0  0  0  0
   16.9788  -11.7412  -15.0191 C   0  0  0  0  0  0  0  0  0  0  0  0
   16.5318  -12.7218  -15.6590 O   0  0  0  0  0  0  0  0  0  0  0  0
   20.3370   -9.1349  -15.5677 C   0  0  0  0  0  0  0  0  0  0  0  0
   20.8092   -9.3320  -14.4174 O   0  0  0  0  0  0  0  0  0  0  0  0
   16.1139  -10.9978  -14.2381 O   0  0  0  0  0  0  0  0  0  0  0  0
   19.9925   -7.8077  -15.9428 N   0  0  0  0  0  0  0  0  0  0  0  0
   20.2905   -6.7241  -15.0187 C   0  0  1  0  0  0  0  0  0  0  0  0
   21.7674   -6.7373  -14.7655 C   0  0  0  0  0  0  0  0  0  0  0  0
   22.2082   -5.6680  -13.8796 C   0  0  0  0  0  0  0  0  0  0  0  0
   21.9079   -5.5267  -12.6812 O   0  0  0  0  0  0  0  0  0  0  0  0
   19.8716   -5.4240  -15.6522 C   0  0  0  0  0  0  0  0  0  0  0  0
   20.2549   -5.0091  -16.7594 O   0  0  0  0  0  0  0  0  0  0  0  0
   23.0600   -4.6908  -14.4236 O   0  0  0  0  0  0  0  0  0  0  0  0
   16.7281   -3.1948  -13.8596 O   0  0  0  0  0  0  0  0  0  0  0  0
   16.9259   -3.1939  -15.2307 C   0  0  0  0  0  0  0  0  0  0  0  0
   18.3757   -3.3857  -15.6174 C   0  0  2  0  0  0  0  0  0  0  0  0
   18.9528   -4.5488  -14.9630 N   0  0  0  0  0  0  0  0  0  0  0  0
   19.1437   -2.1770  -15.3219 C   0  0  0  0  0  0  0  0  0  0  0  0
   20.2276   -2.2302  -14.4729 O   0  0  0  0  0  0  0  0  0  0  0  0
   18.8130   -1.0752  -15.8476 O   0  0  0  0  0  0  0  0  0  0  0  0
  2  1  1  1
  2  7  1  0
  2  3  1  0
  3  4  1  0
  4  5  1  0
  5  9  1  0
  6  5  2  0
  7  8  2  0
  7 10  1  0
 10 11  1  0
 11 15  1  0
 12 13  1  0
 11 12  1  6
 13 17  1  0
 14 13  2  0
 15 16  2  0
 15 21  1  0
 18 19  1  0
 20 19  1  1
 20 22  1  0
 21 20  1  0
 22 23  1  0
 24 22  2  0
M  END
$$$$
