EDS.pdb
     RDKit          3D

 24 23  0  0  1  0  0  0  0  0999 V2000
   13.3310  -10.0036   -9.9097 N   0  0  0  0  0  0  0  0  0  0  0  0
   14.6638   -9.7714   -9.3979 C   0  0  1  0  0  0  0  0  0  0  0  0
   15.5507  -10.8688   -9.9981 C   0  0  0  0  0  0  0  0  0  0  0  0
   15.2418  -10.9643  -11.4938 C   0  0  0  0  0  0  0  0  0  0  0  0
   16.1220  -11.9846  -12.1039 C   0  0  0  0  0  0  0  0  0  0  0  0
   15.7435  -13.1710  -12.2462 O   0  0  0  0  0  0  0  0  0  0  0  0
   15.1743   -8.4937   -9.9267 C   0  0  0  0  0  0  0  0  0  0  0  0
   14.7499   -8.0945  -11.0427 O   0  0  0  0  0  0  0  0  0  0  0  0
   17.3885  -11.6280  -12.5276 O   0  0  0  0  0  0  0  0  0  0  0  0
   16.1231   -7.6927   -9.2343 N   0  0  0  0  0  0  0  0  0  0  0  0
   16.5692   -6.4530   -9.8515 C   0  0  1  0  0  0  0  0  0  0  0  0
   16.3552   -5.3501   -8.8598 C   0  0  0  0  0  0  0  0  0  0  0  0
   16.6312   -4.0269   -9.4034 C   0  0  0  0  0  0  0  0  0  0  0  0
   17.0021   -3.7632  -10.5606 O   0  0  0  0  0  0  0  0  0  0  0  0
   18.0298   -6.5849  -10.1925 C   0  0  0  0  0  0  0  0  0  0  0  0
   18.9373   -6.8294   -9.3790 O   0  0  0  0  0  0  0  0  0  0  0  0
   16.4650   -2.9288   -8.5415 O   0  0  0  0  0  0  0  0  0  0  0  0
   21.2818   -8.1001  -13.2538 O   0  0  0  0  0  0  0  0  0  0  0  0
   19.9731   -7.8382  -12.8828 C   0  0  0  0  0  0  0  0  0  0  0  0
   19.8511   -6.6576  -11.9450 C   0  0  2  0  0  0  0  0  0  0  0  0
   18.4689   -6.4240  -11.5586 N   0  0  0  0  0  0  0  0  0  0  0  0
   20.4396   -5.4646  -12.5520 C   0  0  0  0  0  0  0  0  0  0  0  0
   21.8007   -5.2565  -12.5019 O   0  0  0  0  0  0  0  0  0  0  0  0
   19.6969   -4.6176  -13.1270 O   0  0  0  0  0  0  0  0  0  0  0  0
  2  1  1  6
  2  7  1  0
  2  3  1  0
  3  4  1  0
  4  5  1  0
  5  9  1  0
  6  5  2  0
  7  8  2  0
  7 10  1  0
 10 11  1  0
 11 15  1  0
 12 13  1  0
 11 12  1  1
 13 17  1  0
 14 13  2  0
 15 16  2  0
 15 21  1  0
 18 19  1  0
 20 19  1  6
 20 22  1  0
 21 20  1  0
 22 23  1  0
 24 22  2  0
M  END
$$$$
