EDS.pdb
     RDKit          3D

 24 23  0  0  1  0  0  0  0  0999 V2000
   20.0295  -20.3145  -14.2160 N   0  0  0  0  0  0  0  0  0  0  0  0
   20.8135  -19.7479  -13.1404 C   0  0  1  0  0  0  0  0  0  0  0  0
   20.8260  -20.7958  -12.0211 C   0  0  0  0  0  0  0  0  0  0  0  0
   20.2461  -22.0964  -12.5814 C   0  0  0  0  0  0  0  0  0  0  0  0
   18.8008  -21.9103  -12.8353 C   0  0  0  0  0  0  0  0  0  0  0  0
   17.9524  -22.0818  -11.9289 O   0  0  0  0  0  0  0  0  0  0  0  0
   22.2121  -19.5991  -13.5814 C   0  0  0  0  0  0  0  0  0  0  0  0
   23.0342  -19.0592  -12.7955 O   0  0  0  0  0  0  0  0  0  0  0  0
   18.3717  -21.5395  -14.0959 O   0  0  0  0  0  0  0  0  0  0  0  0
   22.6741  -20.0371  -14.8525 N   0  0  0  0  0  0  0  0  0  0  0  0
   24.0320  -19.7010  -15.2528 C   0  0  1  0  0  0  0  0  0  0  0  0
   24.6846  -20.9578  -15.7426 C   0  0  0  0  0  0  0  0  0  0  0  0
   25.5610  -21.5730  -14.7546 C   0  0  0  0  0  0  0  0  0  0  0  0
   26.4937  -21.0210  -14.1448 O   0  0  0  0  0  0  0  0  0  0  0  0
   23.9681  -18.6727  -16.3509 C   0  0  0  0  0  0  0  0  0  0  0  0
   23.0405  -17.8635  -16.5230 O   0  0  0  0  0  0  0  0  0  0  0  0
   25.3395  -22.9277  -14.4516 O   0  0  0  0  0  0  0  0  0  0  0  0
   26.4953  -15.1893  -17.1389 O   0  0  0  0  0  0  0  0  0  0  0  0
   25.9985  -16.4017  -16.6890 C   0  0  0  0  0  0  0  0  0  0  0  0
   25.4995  -17.2868  -17.8095 C   0  0  2  0  0  0  0  0  0  0  0  0
   25.0432  -18.5737  -17.3098 N   0  0  0  0  0  0  0  0  0  0  0  0
   26.5375  -17.4519  -18.8261 C   0  0  0  0  0  0  0  0  0  0  0  0
   26.4608  -16.7653  -20.0182 O   0  0  0  0  0  0  0  0  0  0  0  0
   27.5123  -18.2288  -18.6120 O   0  0  0  0  0  0  0  0  0  0  0  0
  2  1  1  6
  2  7  1  0
  2  3  1  0
  3  4  1  0
  4  5  1  0
  5  9  1  0
  6  5  2  0
  7  8  2  0
  7 10  1  0
 10 11  1  0
 11 15  1  0
 12 13  1  0
 11 12  1  6
 13 17  1  0
 14 13  2  0
 15 16  2  0
 15 21  1  0
 18 19  1  0
 20 19  1  1
 20 22  1  0
 21 20  1  0
 22 23  1  0
 24 22  2  0
M  END
$$$$
