PVT.pdb
     RDKit          3D

 22 22  0  0  1  0  0  0  0  0999 V2000
   19.1667  -11.7518  -19.1771 N   0  0  0  0  0  0  0  0  0  0  0  0
   18.8051  -11.7256  -20.5828 C   0  0  0  0  0  0  0  0  0  0  0  0
   18.3527  -10.2746  -20.7396 C   0  0  0  0  0  0  0  0  0  0  0  0
   19.1833   -9.5171  -19.7226 C   0  0  0  0  0  0  0  0  0  0  0  0
   20.0043  -10.5989  -19.0715 C   0  0  1  0  0  0  0  0  0  0  0  0
   20.3951  -10.2688  -17.6861 C   0  0  0  0  0  0  0  0  0  0  0  0
   19.4827  -10.3167  -16.8138 O   0  0  0  0  0  0  0  0  0  0  0  0
   22.6153  -11.9050  -15.3119 C   0  0  0  0  0  0  0  0  0  0  0  0
   23.0019  -10.4650  -15.2952 C   0  0  2  0  0  0  0  0  0  0  0  0
   23.2921  -10.0295  -13.8868 C   0  0  0  0  0  0  0  0  0  0  0  0
   21.9951   -9.5551  -15.9561 C   0  0  2  0  0  0  0  0  0  0  0  0
   21.7163   -9.9109  -17.3096 N   0  0  0  0  0  0  0  0  0  0  0  0
   22.4165   -8.1169  -15.8306 C   0  0  0  0  0  0  0  0  0  0  0  0
   23.4968   -7.7514  -16.3606 O   0  0  0  0  0  0  0  0  0  0  0  0
   20.9853   -5.1085  -17.2236 C   0  0  0  0  0  0  0  0  0  0  0  0
   21.0137   -4.8678  -15.7421 C   0  0  1  0  0  0  0  0  0  0  0  0
   19.7728   -5.0082  -15.1365 O   0  0  0  0  0  0  0  0  0  0  0  0
   22.0236   -5.7600  -15.0489 C   0  0  2  0  0  0  0  0  0  0  0  0
   21.6510   -7.1537  -15.1415 N   0  0  0  0  0  0  0  0  0  0  0  0
   22.1974   -5.3276  -13.6392 C   0  0  0  0  0  0  0  0  0  0  0  0
   21.8730   -6.1294  -12.7281 O   0  0  0  0  0  0  0  0  0  0  0  0
   22.6968   -4.0907  -13.2613 O   0  0  0  0  0  0  0  0  0  0  0  0
  1  5  1  0
  2  1  1  0
  3  4  1  0
  3  2  1  0
  4  5  1  0
  6  7  2  0
  5  6  1  1
  9  8  1  1
  9 11  1  0
 10  9  1  0
 11 12  1  6
 11 13  1  0
 12  6  1  0
 13 19  1  0
 14 13  2  0
 16 17  1  0
 16 15  1  6
 18 16  1  0
 18 19  1  1
 20 18  1  0
 20 22  1  0
 21 20  2  0
M  END
$$$$
