PVT.pdb
     RDKit          3D

 22 22  0  0  1  0  0  0  0  0999 V2000
   21.4137  -12.0612  -19.3478 N   0  0  0  0  0  0  0  0  0  0  0  0
   20.6654  -13.0520  -20.1000 C   0  0  0  0  0  0  0  0  0  0  0  0
   20.7938  -14.2693  -19.1853 C   0  0  0  0  0  0  0  0  0  0  0  0
   20.8955  -13.6763  -17.7939 C   0  0  0  0  0  0  0  0  0  0  0  0
   20.8410  -12.1924  -18.0454 C   0  0  1  0  0  0  0  0  0  0  0  0
   21.5356  -11.4072  -17.0051 C   0  0  0  0  0  0  0  0  0  0  0  0
   21.0168  -11.4094  -15.8533 O   0  0  0  0  0  0  0  0  0  0  0  0
   25.0745  -11.8323  -15.8160 C   0  0  0  0  0  0  0  0  0  0  0  0
   24.8360  -10.3754  -16.0263 C   0  0  2  0  0  0  0  0  0  0  0  0
   25.5007   -9.5856  -14.9346 C   0  0  0  0  0  0  0  0  0  0  0  0
   23.3781  -10.0089  -16.1610 C   0  0  2  0  0  0  0  0  0  0  0  0
   22.7271  -10.6730  -17.2434 N   0  0  0  0  0  0  0  0  0  0  0  0
   23.2108   -8.5163  -16.2381 C   0  0  0  0  0  0  0  0  0  0  0  0
   23.7419   -7.8934  -17.1928 O   0  0  0  0  0  0  0  0  0  0  0  0
   20.7133   -6.3177  -17.2492 C   0  0  0  0  0  0  0  0  0  0  0  0
   20.9328   -5.9573  -15.8086 C   0  0  1  0  0  0  0  0  0  0  0  0
   19.9834   -6.4991  -14.9534 O   0  0  0  0  0  0  0  0  0  0  0  0
   22.3212   -6.3432  -15.3397 C   0  0  2  0  0  0  0  0  0  0  0  0
   22.4812   -7.7789  -15.2828 N   0  0  0  0  0  0  0  0  0  0  0  0
   22.6098   -5.7033  -14.0315 C   0  0  0  0  0  0  0  0  0  0  0  0
   22.7393   -6.4432  -13.0246 O   0  0  0  0  0  0  0  0  0  0  0  0
   22.7464   -4.3359  -13.8481 O   0  0  0  0  0  0  0  0  0  0  0  0
  1  5  1  0
  2  1  1  0
  3  4  1  0
  3  2  1  0
  4  5  1  0
  6  7  2  0
  5  6  1  1
  9  8  1  1
  9 11  1  0
 10  9  1  0
 11 12  1  6
 11 13  1  0
 12  6  1  0
 13 19  1  0
 14 13  2  0
 16 17  1  0
 16 15  1  6
 18 16  1  0
 18 19  1  1
 20 18  1  0
 20 22  1  0
 21 20  2  0
M  END
$$$$
