PVT.pdb
     RDKit          3D

 22 22  0  0  1  0  0  0  0  0999 V2000
   22.2113  -34.4198  -13.9235 N   0  0  0  0  0  0  0  0  0  0  0  0
   20.9970  -34.2366  -14.6976 C   0  0  0  0  0  0  0  0  0  0  0  0
   19.9657  -34.8919  -13.7801 C   0  0  0  0  0  0  0  0  0  0  0  0
   20.5187  -34.6708  -12.3861 C   0  0  0  0  0  0  0  0  0  0  0  0
   21.8112  -33.9401  -12.6384 C   0  0  1  0  0  0  0  0  0  0  0  0
   22.8144  -34.1637  -11.5779 C   0  0  0  0  0  0  0  0  0  0  0  0
   23.6105  -35.1300  -11.7463 O   0  0  0  0  0  0  0  0  0  0  0  0
   25.8705  -32.6510   -8.1599 C   0  0  0  0  0  0  0  0  0  0  0  0
   24.8251  -32.4156   -9.1969 C   0  0  2  0  0  0  0  0  0  0  0  0
   24.0079  -31.2082   -8.8344 C   0  0  0  0  0  0  0  0  0  0  0  0
   23.9475  -33.6147   -9.4620 C   0  0  2  0  0  0  0  0  0  0  0  0
   22.9147  -33.3588  -10.4128 N   0  0  0  0  0  0  0  0  0  0  0  0
   23.3994  -34.1664   -8.1748 C   0  0  0  0  0  0  0  0  0  0  0  0
   22.3722  -33.6397   -7.6759 O   0  0  0  0  0  0  0  0  0  0  0  0
   23.2112  -38.0326   -5.0594 C   0  0  0  0  0  0  0  0  0  0  0  0
   23.8522  -37.3431   -6.2287 C   0  0  1  0  0  0  0  0  0  0  0  0
   23.6704  -38.0118   -7.4312 O   0  0  0  0  0  0  0  0  0  0  0  0
   23.3761  -35.9108   -6.3644 C   0  0  2  0  0  0  0  0  0  0  0  0
   23.9885  -35.2541   -7.4974 N   0  0  0  0  0  0  0  0  0  0  0  0
   23.6225  -35.1735   -5.0995 C   0  0  0  0  0  0  0  0  0  0  0  0
   24.7687  -34.6979   -4.9033 O   0  0  0  0  0  0  0  0  0  0  0  0
   22.6655  -34.9748   -4.1163 O   0  0  0  0  0  0  0  0  0  0  0  0
  1  5  1  0
  2  1  1  0
  3  4  1  0
  3  2  1  0
  4  5  1  0
  6  7  2  0
  5  6  1  1
  9  8  1  1
  9 11  1  0
 10  9  1  0
 11 12  1  6
 11 13  1  0
 12  6  1  0
 13 19  1  0
 14 13  2  0
 16 17  1  0
 16 15  1  1
 18 16  1  0
 18 19  1  6
 20 18  1  0
 20 22  1  0
 21 20  2  0
M  END
$$$$
