PVT.pdb
     RDKit          3D

 22 22  0  0  1  0  0  0  0  0999 V2000
   26.4622    2.8047  -10.9626 N   0  0  0  0  0  0  0  0  0  0  0  0
   26.1240    2.8208  -12.3743 C   0  0  0  0  0  0  0  0  0  0  0  0
   24.7169    2.2258  -12.3430 C   0  0  0  0  0  0  0  0  0  0  0  0
   24.1673    2.6489  -10.9950 C   0  0  0  0  0  0  0  0  0  0  0  0
   25.3089    3.4158  -10.3811 C   0  0  1  0  0  0  0  0  0  0  0  0
   25.2954    3.3829   -8.9047 C   0  0  0  0  0  0  0  0  0  0  0  0
   24.3686    4.0230   -8.3326 O   0  0  0  0  0  0  0  0  0  0  0  0
   26.7560    0.2190   -6.4593 C   0  0  0  0  0  0  0  0  0  0  0  0
   25.7416    1.2766   -6.1836 C   0  0  2  0  0  0  0  0  0  0  0  0
   24.3993    0.8458   -6.7030 C   0  0  0  0  0  0  0  0  0  0  0  0
   26.1230    2.6396   -6.7081 C   0  0  2  0  0  0  0  0  0  0  0  0
   26.2546    2.6810   -8.1284 N   0  0  0  0  0  0  0  0  0  0  0  0
   27.3577    3.1482   -6.0163 C   0  0  0  0  0  0  0  0  0  0  0  0
   28.4852    2.8401   -6.4803 O   0  0  0  0  0  0  0  0  0  0  0  0
   28.8533    6.4721   -5.7557 C   0  0  0  0  0  0  0  0  0  0  0  0
   28.5067    6.0345   -4.3621 C   0  0  1  0  0  0  0  0  0  0  0  0
   27.3076    6.5597   -3.9010 O   0  0  0  0  0  0  0  0  0  0  0  0
   28.4832    4.5243   -4.2386 C   0  0  2  0  0  0  0  0  0  0  0  0
   27.3085    3.9598   -4.8641 N   0  0  0  0  0  0  0  0  0  0  0  0
   28.5912    4.1315   -2.8109 C   0  0  0  0  0  0  0  0  0  0  0  0
   27.6206    3.5316   -2.2853 O   0  0  0  0  0  0  0  0  0  0  0  0
   29.6988    4.3848   -2.0164 O   0  0  0  0  0  0  0  0  0  0  0  0
  1  5  1  0
  2  1  1  0
  3  4  1  0
  3  2  1  0
  4  5  1  0
  6  7  2  0
  5  6  1  1
  9  8  1  6
  9 11  1  0
 10  9  1  0
 11 12  1  6
 11 13  1  0
 12  6  1  0
 13 19  1  0
 14 13  2  0
 16 17  1  0
 16 15  1  6
 18 16  1  0
 18 19  1  1
 20 18  1  0
 20 22  1  0
 21 20  2  0
M  END
$$$$
