PVT.pdb
     RDKit          3D

 22 22  0  0  1  0  0  0  0  0999 V2000
   28.0118  -23.2142  -16.8314 N   0  0  0  0  0  0  0  0  0  0  0  0
   29.2974  -23.6820  -17.3169 C   0  0  0  0  0  0  0  0  0  0  0  0
   29.8275  -22.4209  -17.9976 C   0  0  0  0  0  0  0  0  0  0  0  0
   29.2095  -21.2861  -17.2048 C   0  0  0  0  0  0  0  0  0  0  0  0
   28.3748  -21.9989  -16.1735 C   0  0  1  0  0  0  0  0  0  0  0  0
   27.2208  -21.1993  -15.7155 C   0  0  0  0  0  0  0  0  0  0  0  0
   27.4780  -20.1989  -14.9883 O   0  0  0  0  0  0  0  0  0  0  0  0
   24.4466  -19.4642  -17.7632 C   0  0  0  0  0  0  0  0  0  0  0  0
   23.8432  -20.2744  -16.6665 C   0  0  2  0  0  0  0  0  0  0  0  0
   22.6519  -19.5575  -16.0969 C   0  0  0  0  0  0  0  0  0  0  0  0
   24.8216  -20.6615  -15.5843 C   0  0  2  0  0  0  0  0  0  0  0  0
   25.8752  -21.5031  -16.0511 N   0  0  0  0  0  0  0  0  0  0  0  0
   24.1024  -21.2643  -14.4091 C   0  0  0  0  0  0  0  0  0  0  0  0
   23.5684  -22.3955  -14.5380 O   0  0  0  0  0  0  0  0  0  0  0  0
   25.2320  -21.6157  -10.6329 C   0  0  0  0  0  0  0  0  0  0  0  0
   23.9260  -20.8818  -10.7294 C   0  0  1  0  0  0  0  0  0  0  0  0
   24.0450  -19.5144  -10.5239 O   0  0  0  0  0  0  0  0  0  0  0  0
   23.2345  -21.1405  -12.0529 C   0  0  2  0  0  0  0  0  0  0  0  0
   23.9987  -20.6149  -13.1617 N   0  0  0  0  0  0  0  0  0  0  0  0
   21.8568  -20.5879  -12.0207 C   0  0  0  0  0  0  0  0  0  0  0  0
   21.6015  -19.5881  -12.7372 O   0  0  0  0  0  0  0  0  0  0  0  0
   20.8292  -21.1060  -11.2477 O   0  0  0  0  0  0  0  0  0  0  0  0
  1  5  1  0
  2  1  1  0
  3  4  1  0
  3  2  1  0
  4  5  1  0
  6  7  2  0
  5  6  1  6
  9  8  1  6
  9 11  1  0
 10  9  1  0
 11 12  1  6
 11 13  1  0
 12  6  1  0
 13 19  1  0
 14 13  2  0
 16 17  1  0
 16 15  1  6
 18 16  1  0
 18 19  1  6
 20 18  1  0
 20 22  1  0
 21 20  2  0
M  END
$$$$
