PVT.pdb
     RDKit          3D

 22 22  0  0  1  0  0  0  0  0999 V2000
   19.1373  -11.3505  -18.6569 N   0  0  0  0  0  0  0  0  0  0  0  0
   18.0780  -12.0596  -19.3514 C   0  0  0  0  0  0  0  0  0  0  0  0
   17.6214  -13.0346  -18.2672 C   0  0  0  0  0  0  0  0  0  0  0  0
   17.8924  -12.2978  -16.9704 C   0  0  0  0  0  0  0  0  0  0  0  0
   18.4942  -10.9964  -17.4311 C   0  0  1  0  0  0  0  0  0  0  0  0
   19.4012  -10.3968  -16.4316 C   0  0  0  0  0  0  0  0  0  0  0  0
   18.8815  -10.0421  -15.3362 O   0  0  0  0  0  0  0  0  0  0  0  0
   22.6572  -11.9386  -15.0597 C   0  0  0  0  0  0  0  0  0  0  0  0
   22.8844  -10.5056  -15.4035 C   0  0  2  0  0  0  0  0  0  0  0  0
   23.7785   -9.8690  -14.3775 C   0  0  0  0  0  0  0  0  0  0  0  0
   21.6130   -9.7143  -15.5924 C   0  0  2  0  0  0  0  0  0  0  0  0
   20.7917  -10.2099  -16.6487 N   0  0  0  0  0  0  0  0  0  0  0  0
   21.9182   -8.2512  -15.7598 C   0  0  0  0  0  0  0  0  0  0  0  0
   22.6075   -7.8827  -16.7449 O   0  0  0  0  0  0  0  0  0  0  0  0
   20.1744   -5.4409  -16.8761 C   0  0  0  0  0  0  0  0  0  0  0  0
   20.5540   -5.0794  -15.4694 C   0  0  1  0  0  0  0  0  0  0  0  0
   19.5158   -5.2318  -14.5612 O   0  0  0  0  0  0  0  0  0  0  0  0
   21.7638   -5.8605  -14.9973 C   0  0  2  0  0  0  0  0  0  0  0  0
   21.4640   -7.2678  -14.8569 N   0  0  0  0  0  0  0  0  0  0  0  0
   22.2810   -5.2775  -13.7336 C   0  0  0  0  0  0  0  0  0  0  0  0
   22.2407   -5.9825  -12.6946 O   0  0  0  0  0  0  0  0  0  0  0  0
   22.8081   -3.9998  -13.6253 O   0  0  0  0  0  0  0  0  0  0  0  0
  1  5  1  0
  2  1  1  0
  3  4  1  0
  3  2  1  0
  4  5  1  0
  6  7  2  0
  5  6  1  1
  9  8  1  1
  9 11  1  0
 10  9  1  0
 11 12  1  6
 11 13  1  0
 12  6  1  0
 13 19  1  0
 14 13  2  0
 16 17  1  0
 16 15  1  6
 18 16  1  0
 18 19  1  1
 20 18  1  0
 20 22  1  0
 21 20  2  0
M  END
$$$$
