PVT.pdb
     RDKit          3D

 22 22  0  0  1  0  0  0  0  0999 V2000
   28.3909  -20.4517  -15.8972 N   0  0  0  0  0  0  0  0  0  0  0  0
   29.1588  -19.4406  -16.6011 C   0  0  0  0  0  0  0  0  0  0  0  0
   28.1732  -18.2729  -16.5983 C   0  0  0  0  0  0  0  0  0  0  0  0
   27.3709  -18.4702  -15.3274 C   0  0  0  0  0  0  0  0  0  0  0  0
   27.9512  -19.7315  -14.7440 C   0  0  1  0  0  0  0  0  0  0  0  0
   26.9875  -20.4742  -13.9070 C   0  0  0  0  0  0  0  0  0  0  0  0
   26.5342  -21.5517  -14.3860 O   0  0  0  0  0  0  0  0  0  0  0  0
   26.7287  -20.9476   -9.7964 C   0  0  0  0  0  0  0  0  0  0  0  0
   25.4788  -20.4971  -10.4734 C   0  0  2  0  0  0  0  0  0  0  0  0
   24.2869  -21.1534   -9.8362 C   0  0  0  0  0  0  0  0  0  0  0  0
   25.4865  -20.7030  -11.9687 C   0  0  2  0  0  0  0  0  0  0  0  0
   26.5644  -20.0365  -12.6244 N   0  0  0  0  0  0  0  0  0  0  0  0
   24.1552  -20.3328  -12.5623 C   0  0  0  0  0  0  0  0  0  0  0  0
   23.8232  -19.1205  -12.6022 O   0  0  0  0  0  0  0  0  0  0  0  0
   20.4919  -21.4678  -15.6451 C   0  0  0  0  0  0  0  0  0  0  0  0
   21.8193  -21.7548  -15.0052 C   0  0  1  0  0  0  0  0  0  0  0  0
   22.8962  -21.5656  -15.8599 O   0  0  0  0  0  0  0  0  0  0  0  0
   22.0205  -20.9407  -13.7430 C   0  0  2  0  0  0  0  0  0  0  0  0
   23.2568  -21.2888  -13.0795 N   0  0  0  0  0  0  0  0  0  0  0  0
   20.8484  -21.1002  -12.8456 C   0  0  0  0  0  0  0  0  0  0  0  0
   20.8349  -22.0763  -12.0549 O   0  0  0  0  0  0  0  0  0  0  0  0
   19.7631  -20.2379  -12.8235 O   0  0  0  0  0  0  0  0  0  0  0  0
  1  5  1  0
  2  1  1  0
  3  4  1  0
  3  2  1  0
  4  5  1  0
  6  7  2  0
  5  6  1  6
  9  8  1  1
  9 11  1  0
 10  9  1  0
 11 12  1  6
 11 13  1  0
 12  6  1  0
 13 19  1  0
 14 13  2  0
 16 17  1  0
 16 15  1  6
 18 16  1  0
 18 19  1  1
 20 18  1  0
 20 22  1  0
 21 20  2  0
M  END
$$$$
