VKF.pdb
     RDKit          3D

 28 28  0  0  1  0  0  0  0  0999 V2000
    8.3059  -12.5687   18.3095 C   0  0  0  0  0  0  0  0  0  0  0  0
    7.7633  -13.3064   19.5144 C   0  0  2  0  0  0  0  0  0  0  0  0
    7.1665  -12.2917   20.4490 C   0  0  0  0  0  0  0  0  0  0  0  0
    8.9172  -14.0689   20.1466 C   0  0  2  0  0  0  0  0  0  0  0  0
    9.3777  -15.0206   19.1620 N   0  0  0  0  0  0  0  0  0  0  0  0
    8.4818  -14.8040   21.3542 C   0  0  0  0  0  0  0  0  0  0  0  0
    7.9198  -14.2010   22.3299 O   0  0  0  0  0  0  0  0  0  0  0  0
    8.6625  -16.1830   21.4859 N   0  0  0  0  0  0  0  0  0  0  0  0
    8.2304  -16.9690   22.6200 C   0  0  1  0  0  0  0  0  0  0  0  0
    8.4127  -18.4268   22.2616 C   0  0  0  0  0  0  0  0  0  0  0  0
    7.5078  -18.8955   21.1864 C   0  0  0  0  0  0  0  0  0  0  0  0
    7.7631  -20.3476   20.8960 C   0  0  0  0  0  0  0  0  0  0  0  0
    6.8973  -20.8110   19.7562 C   0  0  0  0  0  0  0  0  0  0  0  0
    7.2263  -22.1766   19.3621 N   0  0  0  0  0  0  0  0  0  0  0  0
    8.8848  -16.5812   23.8722 C   0  0  0  0  0  0  0  0  0  0  0  0
   10.1132  -16.2538   23.9445 O   0  0  0  0  0  0  0  0  0  0  0  0
    8.1631  -16.5509   25.0968 N   0  0  0  0  0  0  0  0  0  0  0  0
    8.8377  -16.2046   26.3635 C   0  0  1  0  0  0  0  0  0  0  0  0
    7.8361  -15.6162   27.3011 C   0  0  0  0  0  0  0  0  0  0  0  0
    7.3654  -14.2974   26.8171 C   0  0  0  0  0  0  0  0  0  0  0  0
    8.2090  -13.1834   26.8608 C   0  0  0  0  0  0  0  0  0  0  0  0
    7.7909  -11.9545   26.4027 C   0  0  0  0  0  0  0  0  0  0  0  0
    6.5144  -11.7862   25.8822 C   0  0  0  0  0  0  0  0  0  0  0  0
    5.6864  -12.8774   25.8387 C   0  0  0  0  0  0  0  0  0  0  0  0
    6.1100  -14.1001   26.2972 C   0  0  0  0  0  0  0  0  0  0  0  0
    9.5250  -17.3958   26.8765 C   0  0  0  0  0  0  0  0  0  0  0  0
    9.3448  -18.6580   26.3223 O   0  0  0  0  0  0  0  0  0  0  0  0
   10.3075  -17.3028   27.8467 O   0  0  0  0  0  0  0  0  0  0  0  0
  2  1  1  6
  2  3  1  0
  4  2  1  0
  4  5  1  6
  6  8  1  0
  6  4  1  0
  7  6  2  0
  9  8  1  0
  9 10  1  6
 11 10  1  0
 12 11  1  0
 13 12  1  0
 14 13  1  0
 15  9  1  0
 15 16  2  0
 17 15  1  0
 18 17  1  0
 18 26  1  0
 19 20  1  0
 18 19  1  1
 20 25  2  0
 21 20  1  0
 22 21  2  0
 22 23  1  0
 23 24  2  0
 24 25  1  0
 26 28  2  0
 26 27  1  0
M  END
$$$$
