VKF.pdb
     RDKit          3D

 28 28  0  0  1  0  0  0  0  0999 V2000
    7.5229  -12.8390   20.8062 C   0  0  0  0  0  0  0  0  0  0  0  0
    8.5818  -13.2103   19.7907 C   0  0  2  0  0  0  0  0  0  0  0  0
    8.4505  -12.2753   18.6212 C   0  0  0  0  0  0  0  0  0  0  0  0
    8.3569  -14.6626   19.3999 C   0  0  2  0  0  0  0  0  0  0  0  0
    7.0750  -14.7224   18.7362 N   0  0  0  0  0  0  0  0  0  0  0  0
    8.3207  -15.5426   20.5884 C   0  0  0  0  0  0  0  0  0  0  0  0
    7.2377  -15.7340   21.2380 O   0  0  0  0  0  0  0  0  0  0  0  0
    9.4603  -16.2023   21.0552 N   0  0  0  0  0  0  0  0  0  0  0  0
    9.5016  -17.0575   22.2203 C   0  0  1  0  0  0  0  0  0  0  0  0
   10.1658  -18.3534   21.8125 C   0  0  0  0  0  0  0  0  0  0  0  0
   10.2243  -19.3618   22.8962 C   0  0  0  0  0  0  0  0  0  0  0  0
   10.7632  -20.6592   22.3629 C   0  0  0  0  0  0  0  0  0  0  0  0
   10.7490  -21.7108   23.4387 C   0  0  0  0  0  0  0  0  0  0  0  0
    9.5601  -22.5509   23.3428 N   0  0  0  0  0  0  0  0  0  0  0  0
   10.1198  -16.4163   23.3836 C   0  0  0  0  0  0  0  0  0  0  0  0
   11.1772  -15.7108   23.3107 O   0  0  0  0  0  0  0  0  0  0  0  0
    9.5557  -16.5539   24.6815 N   0  0  0  0  0  0  0  0  0  0  0  0
   10.1932  -15.9221   25.8536 C   0  0  1  0  0  0  0  0  0  0  0  0
   10.1236  -14.4385   25.7024 C   0  0  0  0  0  0  0  0  0  0  0  0
    8.7424  -13.9467   25.9155 C   0  0  0  0  0  0  0  0  0  0  0  0
    8.4419  -13.1270   27.0075 C   0  0  0  0  0  0  0  0  0  0  0  0
    7.1664  -12.6513   27.2118 C   0  0  0  0  0  0  0  0  0  0  0  0
    6.1383  -12.9734   26.3353 C   0  0  0  0  0  0  0  0  0  0  0  0
    6.4316  -13.7768   25.2644 C   0  0  0  0  0  0  0  0  0  0  0  0
    7.7059  -14.2476   25.0668 C   0  0  0  0  0  0  0  0  0  0  0  0
    9.5622  -16.4395   27.0737 C   0  0  0  0  0  0  0  0  0  0  0  0
   10.0394  -16.1408   28.3449 O   0  0  0  0  0  0  0  0  0  0  0  0
    8.5571  -17.1787   26.9985 O   0  0  0  0  0  0  0  0  0  0  0  0
  2  1  1  1
  2  3  1  0
  4  2  1  0
  4  5  1  1
  6  8  1  0
  6  4  1  0
  7  6  2  0
  9  8  1  0
  9 10  1  6
 11 10  1  0
 12 11  1  0
 13 12  1  0
 14 13  1  0
 15  9  1  0
 15 16  2  0
 17 15  1  0
 18 17  1  0
 18 26  1  0
 19 20  1  0
 18 19  1  6
 20 25  2  0
 21 20  1  0
 22 21  2  0
 22 23  1  0
 23 24  2  0
 24 25  1  0
 26 28  2  0
 26 27  1  0
M  END
$$$$
