VKF.pdb
     RDKit          3D

 28 28  0  0  1  0  0  0  0  0999 V2000
    4.4467  -17.8583   21.7393 C   0  0  0  0  0  0  0  0  0  0  0  0
    5.1672  -19.1404   22.0964 C   0  0  2  0  0  0  0  0  0  0  0  0
    4.2218  -19.9975   22.8905 C   0  0  0  0  0  0  0  0  0  0  0  0
    6.4118  -18.7655   22.8857 C   0  0  2  0  0  0  0  0  0  0  0  0
    5.9594  -18.1227   24.0978 N   0  0  0  0  0  0  0  0  0  0  0  0
    7.2643  -17.8193   22.1330 C   0  0  0  0  0  0  0  0  0  0  0  0
    7.9020  -18.1884   21.0897 O   0  0  0  0  0  0  0  0  0  0  0  0
    7.4126  -16.4861   22.5233 N   0  0  0  0  0  0  0  0  0  0  0  0
    8.5363  -15.6439   22.1788 C   0  0  1  0  0  0  0  0  0  0  0  0
    7.9984  -14.4536   21.4169 C   0  0  0  0  0  0  0  0  0  0  0  0
    7.9448  -14.6573   19.9505 C   0  0  0  0  0  0  0  0  0  0  0  0
    8.3243  -13.3883   19.2408 C   0  0  0  0  0  0  0  0  0  0  0  0
    8.1885  -13.5629   17.7526 C   0  0  0  0  0  0  0  0  0  0  0  0
    8.6539  -12.3807   17.0357 N   0  0  0  0  0  0  0  0  0  0  0  0
    9.3610  -15.2829   23.3348 C   0  0  0  0  0  0  0  0  0  0  0  0
   10.2235  -14.3466   23.3105 O   0  0  0  0  0  0  0  0  0  0  0  0
    9.2354  -15.9770   24.5692 N   0  0  0  0  0  0  0  0  0  0  0  0
   10.1884  -15.7383   25.6711 C   0  0  1  0  0  0  0  0  0  0  0  0
   10.1493  -14.2926   26.0413 C   0  0  0  0  0  0  0  0  0  0  0  0
    8.7536  -13.8236   26.2058 C   0  0  0  0  0  0  0  0  0  0  0  0
    8.1842  -12.9505   25.2742 C   0  0  0  0  0  0  0  0  0  0  0  0
    6.8845  -12.5163   25.4061 C   0  0  0  0  0  0  0  0  0  0  0  0
    6.0996  -12.9351   26.4725 C   0  0  0  0  0  0  0  0  0  0  0  0
    6.6565  -13.7911   27.3864 C   0  0  0  0  0  0  0  0  0  0  0  0
    7.9532  -14.2201   27.2486 C   0  0  0  0  0  0  0  0  0  0  0  0
    9.8798  -16.6572   26.7733 C   0  0  0  0  0  0  0  0  0  0  0  0
   10.6029  -16.6677   27.9607 O   0  0  0  0  0  0  0  0  0  0  0  0
    8.9376  -17.4718   26.6695 O   0  0  0  0  0  0  0  0  0  0  0  0
  2  1  1  1
  2  3  1  0
  4  2  1  0
  4  5  1  1
  6  8  1  0
  6  4  1  0
  7  6  2  0
  9  8  1  0
  9 10  1  1
 11 10  1  0
 12 11  1  0
 13 12  1  0
 14 13  1  0
 15  9  1  0
 15 16  2  0
 17 15  1  0
 18 17  1  0
 18 26  1  0
 19 20  1  0
 18 19  1  1
 20 25  2  0
 21 20  1  0
 22 21  2  0
 22 23  1  0
 23 24  2  0
 24 25  1  0
 26 28  2  0
 26 27  1  0
M  END
$$$$
