VKF.pdb
     RDKit          3D

 28 28  0  0  1  0  0  0  0  0999 V2000
    6.8108  -14.4367   19.0167 C   0  0  0  0  0  0  0  0  0  0  0  0
    7.4054  -13.1609   19.5727 C   0  0  2  0  0  0  0  0  0  0  0  0
    7.7322  -12.2592   18.4153 C   0  0  0  0  0  0  0  0  0  0  0  0
    8.6381  -13.5396   20.3786 C   0  0  2  0  0  0  0  0  0  0  0  0
    9.5971  -14.0823   19.4443 N   0  0  0  0  0  0  0  0  0  0  0  0
    8.3248  -14.5693   21.3934 C   0  0  0  0  0  0  0  0  0  0  0  0
    7.4210  -14.3767   22.2752 O   0  0  0  0  0  0  0  0  0  0  0  0
    8.9967  -15.7934   21.4368 N   0  0  0  0  0  0  0  0  0  0  0  0
    8.7368  -16.8457   22.3938 C   0  0  1  0  0  0  0  0  0  0  0  0
    9.4006  -18.1039   21.8808 C   0  0  0  0  0  0  0  0  0  0  0  0
    9.1043  -19.3086   22.6903 C   0  0  0  0  0  0  0  0  0  0  0  0
    9.7675  -20.5124   22.0828 C   0  0  0  0  0  0  0  0  0  0  0  0
   10.1782  -21.4799   23.1593 C   0  0  0  0  0  0  0  0  0  0  0  0
    9.0169  -22.1208   23.7668 N   0  0  0  0  0  0  0  0  0  0  0  0
    9.1226  -16.4886   23.7614 C   0  0  0  0  0  0  0  0  0  0  0  0
   10.2680  -16.0216   24.0630 O   0  0  0  0  0  0  0  0  0  0  0  0
    8.2152  -16.6501   24.8440 N   0  0  0  0  0  0  0  0  0  0  0  0
    8.6231  -16.3303   26.2263 C   0  0  1  0  0  0  0  0  0  0  0  0
    7.4703  -15.7053   26.9397 C   0  0  0  0  0  0  0  0  0  0  0  0
    7.3800  -14.2577   26.6380 C   0  0  0  0  0  0  0  0  0  0  0  0
    8.5272  -13.4585   26.6457 C   0  0  0  0  0  0  0  0  0  0  0  0
    8.4615  -12.1147   26.3545 C   0  0  0  0  0  0  0  0  0  0  0  0
    7.2491  -11.5128   26.0436 C   0  0  0  0  0  0  0  0  0  0  0  0
    6.1238  -12.2951   26.0356 C   0  0  0  0  0  0  0  0  0  0  0  0
    6.1967  -13.6346   26.3269 C   0  0  0  0  0  0  0  0  0  0  0  0
    9.1444  -17.5469   26.8611 C   0  0  0  0  0  0  0  0  0  0  0  0
    9.8123  -17.5249   28.0802 O   0  0  0  0  0  0  0  0  0  0  0  0
    8.9973  -18.6583   26.3086 O   0  0  0  0  0  0  0  0  0  0  0  0
  2  1  1  6
  2  3  1  0
  4  2  1  0
  4  5  1  6
  6  8  1  0
  6  4  1  0
  7  6  2  0
  9  8  1  0
  9 10  1  6
 11 10  1  0
 12 11  1  0
 13 12  1  0
 14 13  1  0
 15  9  1  0
 15 16  2  0
 17 15  1  0
 18 17  1  0
 18 26  1  0
 19 20  1  0
 18 19  1  1
 20 25  2  0
 21 20  1  0
 22 21  2  0
 22 23  1  0
 23 24  2  0
 24 25  1  0
 26 28  2  0
 26 27  1  0
M  END
$$$$
