VKF.pdb
     RDKit          3D

 28 28  0  0  1  0  0  0  0  0999 V2000
    7.2086  -12.6931   20.6420 C   0  0  0  0  0  0  0  0  0  0  0  0
    8.4634  -13.2541   20.0087 C   0  0  2  0  0  0  0  0  0  0  0  0
    8.7826  -12.4231   18.7976 C   0  0  0  0  0  0  0  0  0  0  0  0
    8.1926  -14.7089   19.6586 C   0  0  2  0  0  0  0  0  0  0  0  0
    7.1986  -14.7077   18.6101 N   0  0  0  0  0  0  0  0  0  0  0  0
    7.6602  -15.4541   20.8203 C   0  0  0  0  0  0  0  0  0  0  0  0
    6.4638  -15.2751   21.2302 O   0  0  0  0  0  0  0  0  0  0  0  0
    8.4338  -16.3830   21.5207 N   0  0  0  0  0  0  0  0  0  0  0  0
    7.9667  -17.1729   22.6381 C   0  0  1  0  0  0  0  0  0  0  0  0
    8.1989  -18.6279   22.2977 C   0  0  0  0  0  0  0  0  0  0  0  0
    7.7678  -19.5663   23.3598 C   0  0  0  0  0  0  0  0  0  0  0  0
    8.1460  -20.9724   22.9884 C   0  0  0  0  0  0  0  0  0  0  0  0
    7.6499  -21.9379   24.0302 C   0  0  0  0  0  0  0  0  0  0  0  0
    8.0362  -23.3077   23.7098 N   0  0  0  0  0  0  0  0  0  0  0  0
    8.5525  -16.7638   23.9173 C   0  0  0  0  0  0  0  0  0  0  0  0
    9.7852  -16.4787   24.0600 O   0  0  0  0  0  0  0  0  0  0  0  0
    7.7540  -16.6628   25.0893 N   0  0  0  0  0  0  0  0  0  0  0  0
    8.3646  -16.3422   26.3946 C   0  0  1  0  0  0  0  0  0  0  0  0
    7.3759  -15.5874   27.2200 C   0  0  0  0  0  0  0  0  0  0  0  0
    7.3385  -14.1586   26.8299 C   0  0  0  0  0  0  0  0  0  0  0  0
    6.1782  -13.6028   26.2826 C   0  0  0  0  0  0  0  0  0  0  0  0
    6.1236  -12.2739   25.9275 C   0  0  0  0  0  0  0  0  0  0  0  0
    7.2238  -11.4449   26.1036 C   0  0  0  0  0  0  0  0  0  0  0  0
    8.3618  -11.9884   26.6401 C   0  0  0  0  0  0  0  0  0  0  0  0
    8.4092  -13.3145   26.9920 C   0  0  0  0  0  0  0  0  0  0  0  0
    8.8491  -17.5837   27.0100 C   0  0  0  0  0  0  0  0  0  0  0  0
    8.4954  -18.8406   26.5326 O   0  0  0  0  0  0  0  0  0  0  0  0
    9.6091  -17.5407   28.0013 O   0  0  0  0  0  0  0  0  0  0  0  0
  2  1  1  6
  2  3  1  0
  4  2  1  0
  4  5  1  6
  6  8  1  0
  6  4  1  0
  7  6  2  0
  9  8  1  0
  9 10  1  6
 11 10  1  0
 12 11  1  0
 13 12  1  0
 14 13  1  0
 15  9  1  0
 15 16  2  0
 17 15  1  0
 18 17  1  0
 18 26  1  0
 19 20  1  0
 18 19  1  1
 20 25  2  0
 21 20  1  0
 22 21  2  0
 22 23  1  0
 23 24  2  0
 24 25  1  0
 26 28  2  0
 26 27  1  0
M  END
$$$$
