VKF.pdb
     RDKit          3D

 28 28  0  0  1  0  0  0  0  0999 V2000
    7.0106  -14.2745   18.7227 C   0  0  0  0  0  0  0  0  0  0  0  0
    7.9624  -13.2588   19.3165 C   0  0  2  0  0  0  0  0  0  0  0  0
    8.4509  -12.3752   18.2030 C   0  0  0  0  0  0  0  0  0  0  0  0
    9.0925  -14.0232   19.9882 C   0  0  2  0  0  0  0  0  0  0  0  0
    9.7401  -14.8015   18.9576 N   0  0  0  0  0  0  0  0  0  0  0  0
    8.5800  -14.9412   21.0288 C   0  0  0  0  0  0  0  0  0  0  0  0
    7.9807  -14.4980   22.0661 O   0  0  0  0  0  0  0  0  0  0  0  0
    8.7250  -16.3271   20.9290 N   0  0  0  0  0  0  0  0  0  0  0  0
    8.3350  -17.2748   21.9491 C   0  0  1  0  0  0  0  0  0  0  0  0
    8.5182  -18.6627   21.3772 C   0  0  0  0  0  0  0  0  0  0  0  0
    8.0913  -19.7470   22.2917 C   0  0  0  0  0  0  0  0  0  0  0  0
    8.2750  -21.0823   21.6274 C   0  0  0  0  0  0  0  0  0  0  0  0
    7.8172  -22.1864   22.5412 C   0  0  0  0  0  0  0  0  0  0  0  0
    7.8594  -23.4812   21.8704 N   0  0  0  0  0  0  0  0  0  0  0  0
    9.0248  -17.0646   23.2244 C   0  0  0  0  0  0  0  0  0  0  0  0
   10.2522  -16.7361   23.3072 O   0  0  0  0  0  0  0  0  0  0  0  0
    8.3411  -17.2209   24.4612 N   0  0  0  0  0  0  0  0  0  0  0  0
    8.3130  -16.1275   25.4528 C   0  0  1  0  0  0  0  0  0  0  0  0
    7.6395  -14.9409   24.8471 C   0  0  0  0  0  0  0  0  0  0  0  0
    7.4806  -13.8546   25.8419 C   0  0  0  0  0  0  0  0  0  0  0  0
    8.5921  -13.3456   26.5202 C   0  0  0  0  0  0  0  0  0  0  0  0
    8.4624  -12.3275   27.4376 C   0  0  0  0  0  0  0  0  0  0  0  0
    7.2189  -11.7752   27.7161 C   0  0  0  0  0  0  0  0  0  0  0  0
    6.1285  -12.2732   27.0518 C   0  0  0  0  0  0  0  0  0  0  0  0
    6.2652  -13.2886   26.1381 C   0  0  0  0  0  0  0  0  0  0  0  0
    7.6855  -16.6201   26.6850 C   0  0  0  0  0  0  0  0  0  0  0  0
    8.2190  -16.3721   27.9447 O   0  0  0  0  0  0  0  0  0  0  0  0
    6.6318  -17.2901   26.6312 O   0  0  0  0  0  0  0  0  0  0  0  0
  2  1  1  6
  2  3  1  0
  4  2  1  0
  4  5  1  6
  6  8  1  0
  6  4  1  0
  7  6  2  0
  9  8  1  0
  9 10  1  6
 11 10  1  0
 12 11  1  0
 13 12  1  0
 14 13  1  0
 15  9  1  0
 15 16  2  0
 17 15  1  0
 18 17  1  0
 18 26  1  0
 19 20  1  0
 18 19  1  6
 20 25  2  0
 21 20  1  0
 22 21  2  0
 22 23  1  0
 23 24  2  0
 24 25  1  0
 26 28  2  0
 26 27  1  0
M  END
$$$$
