VKF.pdb
     RDKit          3D

 28 28  0  0  1  0  0  0  0  0999 V2000
    7.8062  -12.4290   18.1386 C   0  0  0  0  0  0  0  0  0  0  0  0
    7.7781  -13.3959   19.3025 C   0  0  2  0  0  0  0  0  0  0  0  0
    8.5513  -12.7805   20.4350 C   0  0  0  0  0  0  0  0  0  0  0  0
    8.3879  -14.7060   18.8286 C   0  0  2  0  0  0  0  0  0  0  0  0
    7.5567  -15.1868   17.7492 N   0  0  0  0  0  0  0  0  0  0  0  0
    8.4012  -15.7174   19.9081 C   0  0  0  0  0  0  0  0  0  0  0  0
    7.3173  -16.1252   20.4468 O   0  0  0  0  0  0  0  0  0  0  0  0
    9.5905  -16.2718   20.3875 N   0  0  0  0  0  0  0  0  0  0  0  0
    9.6872  -17.1746   21.5128 C   0  0  1  0  0  0  0  0  0  0  0  0
   10.4823  -18.3802   21.0643 C   0  0  0  0  0  0  0  0  0  0  0  0
   10.6842  -19.3921   22.1272 C   0  0  0  0  0  0  0  0  0  0  0  0
   10.4325  -20.7691   21.5808 C   0  0  0  0  0  0  0  0  0  0  0  0
   10.4569  -21.7831   22.6920 C   0  0  0  0  0  0  0  0  0  0  0  0
   10.2649  -23.1354   22.1796 N   0  0  0  0  0  0  0  0  0  0  0  0
   10.2138  -16.5345   22.7210 C   0  0  0  0  0  0  0  0  0  0  0  0
   11.2295  -15.7668   22.7168 O   0  0  0  0  0  0  0  0  0  0  0  0
    9.6018  -16.7445   23.9870 N   0  0  0  0  0  0  0  0  0  0  0  0
   10.1272  -16.0856   25.1991 C   0  0  1  0  0  0  0  0  0  0  0  0
    8.9844  -15.7293   26.0912 C   0  0  0  0  0  0  0  0  0  0  0  0
    9.4636  -15.0939   27.3408 C   0  0  0  0  0  0  0  0  0  0  0  0
    9.8817  -15.8779   28.4202 C   0  0  0  0  0  0  0  0  0  0  0  0
   10.3420  -15.3024   29.5830 C   0  0  0  0  0  0  0  0  0  0  0  0
   10.4041  -13.9215   29.7169 C   0  0  0  0  0  0  0  0  0  0  0  0
    9.9947  -13.1518   28.6595 C   0  0  0  0  0  0  0  0  0  0  0  0
    9.5368  -13.7324   27.5029 C   0  0  0  0  0  0  0  0  0  0  0  0
   11.1319  -16.9593   25.8170 C   0  0  0  0  0  0  0  0  0  0  0  0
   12.3479  -16.4797   26.2904 O   0  0  0  0  0  0  0  0  0  0  0  0
   10.9142  -18.1843   25.9357 O   0  0  0  0  0  0  0  0  0  0  0  0
  2  1  1  6
  2  3  1  0
  4  2  1  0
  4  5  1  6
  6  8  1  0
  6  4  1  0
  7  6  2  0
  9  8  1  0
  9 10  1  6
 11 10  1  0
 12 11  1  0
 13 12  1  0
 14 13  1  0
 15  9  1  0
 15 16  2  0
 17 15  1  0
 18 17  1  0
 18 26  1  0
 19 20  1  0
 18 19  1  1
 20 25  2  0
 21 20  1  0
 22 21  2  0
 22 23  1  0
 23 24  2  0
 24 25  1  0
 26 28  2  0
 26 27  1  0
M  END
$$$$
