VGQ.pdb
     RDKit          3D

 21 20  0  0  1  0  0  0  0  0999 V2000
   24.3171  -32.8819   -7.4037 C   0  0  0  0  0  0  0  0  0  0  0  0
   25.5855  -32.7560   -8.1968 C   0  0  2  0  0  0  0  0  0  0  0  0
   25.4590  -31.8122   -9.3487 C   0  0  0  0  0  0  0  0  0  0  0  0
   26.1580  -34.0971   -8.6010 C   0  0  2  0  0  0  0  0  0  0  0  0
   25.2406  -34.5994   -9.6410 N   0  0  0  0  0  0  0  0  0  0  0  0
   26.2099  -35.0867   -7.5244 C   0  0  0  0  0  0  0  0  0  0  0  0
   25.2806  -35.9634   -7.4653 O   0  0  0  0  0  0  0  0  0  0  0  0
   27.2077  -35.1702   -6.5238 N   0  0  0  0  0  0  0  0  0  0  0  0
   27.0637  -36.0783   -5.4450 C   0  0  0  0  0  0  0  0  0  0  0  0
   26.4784  -35.5706   -4.2115 C   0  0  0  0  0  0  0  0  0  0  0  0
   26.0545  -34.3645   -4.2574 O   0  0  0  0  0  0  0  0  0  0  0  0
   21.7053  -35.9458   -0.8562 N   0  0  0  0  0  0  0  0  0  0  0  0
   22.7798  -36.7308   -0.3966 C   0  0  0  0  0  0  0  0  0  0  0  0
   22.7736  -37.0217    0.8474 O   0  0  0  0  0  0  0  0  0  0  0  0
   23.8758  -37.2118   -1.2776 C   0  0  0  0  0  0  0  0  0  0  0  0
   25.2215  -36.6522   -0.8223 C   0  0  0  0  0  0  0  0  0  0  0  0
   25.7482  -35.6375   -1.8000 C   0  0  2  0  0  0  0  0  0  0  0  0
   26.3182  -36.2233   -2.9803 N   0  0  0  0  0  0  0  0  0  0  0  0
   26.6741  -34.6809   -1.1479 C   0  0  0  0  0  0  0  0  0  0  0  0
   27.8690  -34.6508   -1.5308 O   0  0  0  0  0  0  0  0  0  0  0  0
   26.3054  -33.8117   -0.1366 O   0  0  0  0  0  0  0  0  0  0  0  0
  2  1  1  6
  2  3  1  0
  4  2  1  0
  4  5  1  6
  6  4  1  0
  6  7  2  0
  8  6  1  0
  9  8  1  0
  9 10  1  0
 10 18  1  0
 11 10  2  0
 13 15  1  0
 13 12  1  0
 14 13  2  0
 17 16  1  1
 16 15  1  0
 17 19  1  0
 18 17  1  0
 19 20  2  0
 19 21  1  0
M  END
$$$$
