VGQ.pdb
     RDKit          3D

 21 20  0  0  1  0  0  0  0  0999 V2000
   23.5481  -13.6333  -14.2179 C   0  0  0  0  0  0  0  0  0  0  0  0
   23.0353  -14.2558  -15.4840 C   0  0  2  0  0  0  0  0  0  0  0  0
   23.9199  -15.3469  -15.9946 C   0  0  0  0  0  0  0  0  0  0  0  0
   22.7004  -13.2308  -16.5457 C   0  0  2  0  0  0  0  0  0  0  0  0
   23.9971  -12.6294  -16.9098 N   0  0  0  0  0  0  0  0  0  0  0  0
   21.8117  -12.1580  -16.0979 C   0  0  0  0  0  0  0  0  0  0  0  0
   20.5635  -12.4143  -15.9892 O   0  0  0  0  0  0  0  0  0  0  0  0
   22.2068  -10.8398  -15.7664 N   0  0  0  0  0  0  0  0  0  0  0  0
   21.2378   -9.8777  -15.3859 C   0  0  0  0  0  0  0  0  0  0  0  0
   21.7093   -8.5363  -15.0695 C   0  0  0  0  0  0  0  0  0  0  0  0
   22.8952   -8.4659  -14.5948 O   0  0  0  0  0  0  0  0  0  0  0  0
   19.3844   -2.5811  -16.2540 N   0  0  0  0  0  0  0  0  0  0  0  0
   20.6138   -2.4084  -15.5901 C   0  0  0  0  0  0  0  0  0  0  0  0
   21.0106   -1.2029  -15.4435 O   0  0  0  0  0  0  0  0  0  0  0  0
   21.4306   -3.5385  -15.0759 C   0  0  0  0  0  0  0  0  0  0  0  0
   20.7667   -4.8758  -15.3955 C   0  0  0  0  0  0  0  0  0  0  0  0
   21.5807   -6.0270  -14.8707 C   0  0  2  0  0  0  0  0  0  0  0  0
   21.0398   -7.3121  -15.2126 N   0  0  0  0  0  0  0  0  0  0  0  0
   21.8353   -5.8968  -13.4161 C   0  0  0  0  0  0  0  0  0  0  0  0
   21.1052   -6.5386  -12.6222 O   0  0  0  0  0  0  0  0  0  0  0  0
   22.8329   -5.1082  -12.8710 O   0  0  0  0  0  0  0  0  0  0  0  0
  2  1  1  1
  2  3  1  0
  4  2  1  0
  4  5  1  1
  6  4  1  0
  6  7  2  0
  8  6  1  0
  9  8  1  0
  9 10  1  0
 10 18  1  0
 11 10  2  0
 13 15  1  0
 13 12  1  0
 14 13  2  0
 17 16  1  1
 16 15  1  0
 17 19  1  0
 18 17  1  0
 19 20  2  0
 19 21  1  0
M  END
$$$$
