VGQ.pdb
     RDKit          3D

 21 20  0  0  1  0  0  0  0  0999 V2000
   24.3658  -14.9641  -15.9460 C   0  0  0  0  0  0  0  0  0  0  0  0
   25.7044  -14.2986  -16.0825 C   0  0  2  0  0  0  0  0  0  0  0  0
   26.4861  -14.2994  -14.8087 C   0  0  0  0  0  0  0  0  0  0  0  0
   25.6132  -12.9248  -16.7105 C   0  0  2  0  0  0  0  0  0  0  0  0
   27.0129  -12.5302  -16.9565 N   0  0  0  0  0  0  0  0  0  0  0  0
   24.9965  -11.9061  -15.8603 C   0  0  0  0  0  0  0  0  0  0  0  0
   25.7622  -11.1721  -15.1458 O   0  0  0  0  0  0  0  0  0  0  0  0
   23.6089  -11.6485  -15.7504 N   0  0  0  0  0  0  0  0  0  0  0  0
   23.1355  -10.6509  -14.8615 C   0  0  0  0  0  0  0  0  0  0  0  0
   22.3655   -9.5531  -15.4305 C   0  0  0  0  0  0  0  0  0  0  0  0
   22.0573   -9.6773  -16.6659 O   0  0  0  0  0  0  0  0  0  0  0  0
   17.8235   -8.8762  -17.4248 N   0  0  0  0  0  0  0  0  0  0  0  0
   17.8281   -7.4917  -17.1698 C   0  0  0  0  0  0  0  0  0  0  0  0
   17.0071   -6.7901  -17.8524 O   0  0  0  0  0  0  0  0  0  0  0  0
   18.7217   -6.8476  -16.1720 C   0  0  0  0  0  0  0  0  0  0  0  0
   19.6066   -7.8865  -15.4873 C   0  0  0  0  0  0  0  0  0  0  0  0
   21.0321   -7.4144  -15.3989 C   0  0  2  0  0  0  0  0  0  0  0  0
   21.9178   -8.3780  -14.8090 N   0  0  0  0  0  0  0  0  0  0  0  0
   21.1284   -6.0899  -14.7400 C   0  0  0  0  0  0  0  0  0  0  0  0
   21.2944   -6.0521  -13.4965 O   0  0  0  0  0  0  0  0  0  0  0  0
   21.0466   -4.8824  -15.4105 O   0  0  0  0  0  0  0  0  0  0  0  0
  2  1  1  1
  2  3  1  0
  4  2  1  0
  4  5  1  1
  6  4  1  0
  6  7  2  0
  8  6  1  0
  9  8  1  0
  9 10  1  0
 10 18  1  0
 11 10  2  0
 13 15  1  0
 13 12  1  0
 14 13  2  0
 17 16  1  1
 16 15  1  0
 17 19  1  0
 18 17  1  0
 19 20  2  0
 19 21  1  0
M  END
$$$$
