VGQ.pdb
     RDKit          3D

 21 20  0  0  1  0  0  0  0  0999 V2000
   16.4682  -11.6939  -17.5241 C   0  0  0  0  0  0  0  0  0  0  0  0
   17.2416  -12.9549  -17.2686 C   0  0  2  0  0  0  0  0  0  0  0  0
   16.4260  -14.0099  -16.5938 C   0  0  0  0  0  0  0  0  0  0  0  0
   18.5602  -12.7010  -16.5710 C   0  0  2  0  0  0  0  0  0  0  0  0
   18.1917  -12.3537  -15.1856 N   0  0  0  0  0  0  0  0  0  0  0  0
   19.3393  -11.5934  -17.1253 C   0  0  0  0  0  0  0  0  0  0  0  0
   19.9640  -11.7856  -18.2246 O   0  0  0  0  0  0  0  0  0  0  0  0
   19.4706  -10.3055  -16.5528 N   0  0  0  0  0  0  0  0  0  0  0  0
   20.2029   -9.2955  -17.2259 C   0  0  0  0  0  0  0  0  0  0  0  0
   20.1704   -7.9523  -16.6631 C   0  0  0  0  0  0  0  0  0  0  0  0
   19.1792   -7.6997  -15.8948 O   0  0  0  0  0  0  0  0  0  0  0  0
   21.5587   -6.7421  -12.5508 N   0  0  0  0  0  0  0  0  0  0  0  0
   22.2686   -5.7821  -13.2967 C   0  0  0  0  0  0  0  0  0  0  0  0
   22.3602   -4.6190  -12.7763 O   0  0  0  0  0  0  0  0  0  0  0  0
   22.8891   -6.0682  -14.6165 C   0  0  0  0  0  0  0  0  0  0  0  0
   22.3348   -5.1339  -15.6894 C   0  0  0  0  0  0  0  0  0  0  0  0
   21.0061   -5.6198  -16.2010 C   0  0  2  0  0  0  0  0  0  0  0  0
   21.0766   -6.8981  -16.8505 N   0  0  0  0  0  0  0  0  0  0  0  0
   20.3406   -4.5995  -17.0458 C   0  0  0  0  0  0  0  0  0  0  0  0
   20.1913   -4.8414  -18.2684 O   0  0  0  0  0  0  0  0  0  0  0  0
   19.8691   -3.3881  -16.5722 O   0  0  0  0  0  0  0  0  0  0  0  0
  2  1  1  1
  2  3  1  0
  4  2  1  0
  4  5  1  1
  6  4  1  0
  6  7  2  0
  8  6  1  0
  9  8  1  0
  9 10  1  0
 10 18  1  0
 11 10  2  0
 13 15  1  0
 13 12  1  0
 14 13  2  0
 17 16  1  6
 16 15  1  0
 17 19  1  0
 18 17  1  0
 19 20  2  0
 19 21  1  0
M  END
$$$$
