VGQ.pdb
     RDKit          3D

 21 20  0  0  1  0  0  0  0  0999 V2000
   23.7255  -18.1137  -17.3864 C   0  0  0  0  0  0  0  0  0  0  0  0
   23.8080  -18.7554  -16.0318 C   0  0  2  0  0  0  0  0  0  0  0  0
   25.2106  -19.0695  -15.6223 C   0  0  0  0  0  0  0  0  0  0  0  0
   22.8787  -19.9412  -15.8890 C   0  0  2  0  0  0  0  0  0  0  0  0
   21.6730  -19.5679  -16.6523 N   0  0  0  0  0  0  0  0  0  0  0  0
   22.4732  -20.2352  -14.5142 C   0  0  0  0  0  0  0  0  0  0  0  0
   23.3738  -20.6072  -13.6858 O   0  0  0  0  0  0  0  0  0  0  0  0
   21.1566  -20.1455  -14.0021 N   0  0  0  0  0  0  0  0  0  0  0  0
   20.8577  -20.6413  -12.7082 C   0  0  0  0  0  0  0  0  0  0  0  0
   19.9569  -21.7823  -12.6162 C   0  0  0  0  0  0  0  0  0  0  0  0
   19.8886  -22.5171  -13.6612 O   0  0  0  0  0  0  0  0  0  0  0  0
   19.0631  -25.0517   -6.9214 N   0  0  0  0  0  0  0  0  0  0  0  0
   18.4638  -24.1363   -7.8075 C   0  0  0  0  0  0  0  0  0  0  0  0
   17.4412  -23.5110   -7.3654 O   0  0  0  0  0  0  0  0  0  0  0  0
   18.9636  -23.8853   -9.1844 C   0  0  0  0  0  0  0  0  0  0  0  0
   17.8012  -23.7025  -10.1574 C   0  0  0  0  0  0  0  0  0  0  0  0
   18.2930  -23.3330  -11.5302 C   0  0  2  0  0  0  0  0  0  0  0  0
   19.1532  -22.1837  -11.5389 N   0  0  0  0  0  0  0  0  0  0  0  0
   17.1740  -23.2009  -12.4934 C   0  0  0  0  0  0  0  0  0  0  0  0
   16.7244  -22.0538  -12.7331 O   0  0  0  0  0  0  0  0  0  0  0  0
   16.5871  -24.2672  -13.1514 O   0  0  0  0  0  0  0  0  0  0  0  0
  2  1  1  6
  2  3  1  0
  4  2  1  0
  4  5  1  6
  6  4  1  0
  6  7  2  0
  8  6  1  0
  9  8  1  0
  9 10  1  0
 10 18  1  0
 11 10  2  0
 13 15  1  0
 13 12  1  0
 14 13  2  0
 17 16  1  1
 16 15  1  0
 17 19  1  0
 18 17  1  0
 19 20  2  0
 19 21  1  0
M  END
$$$$
