VGQ.pdb
     RDKit          3D

 21 20  0  0  1  0  0  0  0  0999 V2000
   23.4784  -22.1964  -12.9311 C   0  0  0  0  0  0  0  0  0  0  0  0
   24.5706  -21.3436  -12.3535 C   0  0  2  0  0  0  0  0  0  0  0  0
   24.3227  -19.8809  -12.5348 C   0  0  0  0  0  0  0  0  0  0  0  0
   25.9481  -21.7643  -12.8174 C   0  0  2  0  0  0  0  0  0  0  0  0
   26.8805  -20.9750  -11.9907 N   0  0  0  0  0  0  0  0  0  0  0  0
   26.2319  -21.4758  -14.2236 C   0  0  0  0  0  0  0  0  0  0  0  0
   25.9938  -22.3889  -15.0869 O   0  0  0  0  0  0  0  0  0  0  0  0
   26.7531  -20.2615  -14.7309 N   0  0  0  0  0  0  0  0  0  0  0  0
   26.8652  -20.0609  -16.1297 C   0  0  0  0  0  0  0  0  0  0  0  0
   25.6694  -19.6405  -16.8472 C   0  0  0  0  0  0  0  0  0  0  0  0
   25.6287  -19.9581  -18.0858 O   0  0  0  0  0  0  0  0  0  0  0  0
   20.7644  -21.4250  -14.0104 N   0  0  0  0  0  0  0  0  0  0  0  0
   20.2200  -20.9943  -15.2352 C   0  0  0  0  0  0  0  0  0  0  0  0
   19.0088  -21.3310  -15.4631 O   0  0  0  0  0  0  0  0  0  0  0  0
   20.9794  -20.1930  -16.2302 C   0  0  0  0  0  0  0  0  0  0  0  0
   22.3876  -19.8927  -15.7223 C   0  0  0  0  0  0  0  0  0  0  0  0
   23.1962  -19.1622  -16.7594 C   0  0  2  0  0  0  0  0  0  0  0  0
   24.5577  -18.9334  -16.3657 N   0  0  0  0  0  0  0  0  0  0  0  0
   22.5240  -17.9154  -17.1968 C   0  0  0  0  0  0  0  0  0  0  0  0
   22.8565  -16.8347  -16.6519 O   0  0  0  0  0  0  0  0  0  0  0  0
   21.5460  -17.8635  -18.1741 O   0  0  0  0  0  0  0  0  0  0  0  0
  2  1  1  6
  2  3  1  0
  4  2  1  0
  4  5  1  1
  6  4  1  0
  6  7  2  0
  8  6  1  0
  9  8  1  0
  9 10  1  0
 10 18  1  0
 11 10  2  0
 13 15  1  0
 13 12  1  0
 14 13  2  0
 17 16  1  1
 16 15  1  0
 17 19  1  0
 18 17  1  0
 19 20  2  0
 19 21  1  0
M  END
$$$$
