VGQ.pdb
     RDKit          3D

 21 20  0  0  1  0  0  0  0  0999 V2000
   18.5422  -14.0546  -14.8881 C   0  0  0  0  0  0  0  0  0  0  0  0
   17.7588  -13.5678  -16.0726 C   0  0  2  0  0  0  0  0  0  0  0  0
   17.5148  -14.6379  -17.0871 C   0  0  0  0  0  0  0  0  0  0  0  0
   18.3386  -12.3089  -16.6798 C   0  0  2  0  0  0  0  0  0  0  0  0
   19.5615  -12.7548  -17.3736 N   0  0  0  0  0  0  0  0  0  0  0  0
   18.7163  -11.2820  -15.7082 C   0  0  0  0  0  0  0  0  0  0  0  0
   19.9493  -11.1831  -15.3831 O   0  0  0  0  0  0  0  0  0  0  0  0
   17.8333  -10.3698  -15.0821 N   0  0  0  0  0  0  0  0  0  0  0  0
   18.3264   -9.4254  -14.1470 C   0  0  0  0  0  0  0  0  0  0  0  0
   17.3629   -8.5252  -13.5281 C   0  0  0  0  0  0  0  0  0  0  0  0
   16.2354   -9.0477  -13.2244 O   0  0  0  0  0  0  0  0  0  0  0  0
   16.0388   -7.5108   -8.3323 N   0  0  0  0  0  0  0  0  0  0  0  0
   15.2139   -6.5192   -8.8965 C   0  0  0  0  0  0  0  0  0  0  0  0
   14.3543   -5.9889   -8.1141 O   0  0  0  0  0  0  0  0  0  0  0  0
   15.3083   -6.0880  -10.3156 C   0  0  0  0  0  0  0  0  0  0  0  0
   16.3439   -6.9212  -11.0670 C   0  0  0  0  0  0  0  0  0  0  0  0
   16.5696   -6.3869  -12.4550 C   0  0  2  0  0  0  0  0  0  0  0  0
   17.5025   -7.1635  -13.2216 N   0  0  0  0  0  0  0  0  0  0  0  0
   16.9244   -4.9477  -12.4346 C   0  0  0  0  0  0  0  0  0  0  0  0
   18.1389   -4.6322  -12.4100 O   0  0  0  0  0  0  0  0  0  0  0  0
   15.9976   -3.9204  -12.4410 O   0  0  0  0  0  0  0  0  0  0  0  0
  2  1  1  1
  2  3  1  0
  4  2  1  0
  4  5  1  1
  6  4  1  0
  6  7  2  0
  8  6  1  0
  9  8  1  0
  9 10  1  0
 10 18  1  0
 11 10  2  0
 13 15  1  0
 13 12  1  0
 14 13  2  0
 17 16  1  1
 16 15  1  0
 17 19  1  0
 18 17  1  0
 19 20  2  0
 19 21  1  0
M  END
$$$$
