VGQ.pdb
     RDKit          3D

 21 20  0  0  1  0  0  0  0  0999 V2000
   22.5315  -17.4843  -17.8724 C   0  0  0  0  0  0  0  0  0  0  0  0
   22.7291  -18.0860  -16.5114 C   0  0  2  0  0  0  0  0  0  0  0  0
   24.1470  -18.4804  -16.2509 C   0  0  0  0  0  0  0  0  0  0  0  0
   21.7495  -19.2012  -16.2172 C   0  0  2  0  0  0  0  0  0  0  0  0
   20.4352  -18.6609  -16.6123 N   0  0  0  0  0  0  0  0  0  0  0  0
   21.6756  -19.5914  -14.8088 C   0  0  0  0  0  0  0  0  0  0  0  0
   22.6969  -20.1550  -14.2844 O   0  0  0  0  0  0  0  0  0  0  0  0
   20.5633  -19.4013  -13.9543 N   0  0  0  0  0  0  0  0  0  0  0  0
   20.6021  -19.8677  -12.6162 C   0  0  0  0  0  0  0  0  0  0  0  0
   19.8258  -21.0578  -12.2956 C   0  0  0  0  0  0  0  0  0  0  0  0
   19.2651  -21.6354  -13.2899 O   0  0  0  0  0  0  0  0  0  0  0  0
   19.0815  -24.5710   -6.8682 N   0  0  0  0  0  0  0  0  0  0  0  0
   18.3693  -25.2383   -7.8828 C   0  0  0  0  0  0  0  0  0  0  0  0
   17.7717  -26.3136   -7.5380 O   0  0  0  0  0  0  0  0  0  0  0  0
   18.2942  -24.7507   -9.2847 C   0  0  0  0  0  0  0  0  0  0  0  0
   19.0212  -23.4163   -9.4335 C   0  0  0  0  0  0  0  0  0  0  0  0
   18.8603  -22.8604  -10.8220 C   0  0  2  0  0  0  0  0  0  0  0  0
   19.6080  -21.6554  -11.0454 N   0  0  0  0  0  0  0  0  0  0  0  0
   17.4315  -22.7071  -11.1862 C   0  0  0  0  0  0  0  0  0  0  0  0
   16.8612  -21.6205  -10.9227 O   0  0  0  0  0  0  0  0  0  0  0  0
   16.6784  -23.6906  -11.8024 O   0  0  0  0  0  0  0  0  0  0  0  0
  2  1  1  6
  2  3  1  0
  4  2  1  0
  4  5  1  1
  6  4  1  0
  6  7  2  0
  8  6  1  0
  9  8  1  0
  9 10  1  0
 10 18  1  0
 11 10  2  0
 13 15  1  0
 13 12  1  0
 14 13  2  0
 17 16  1  1
 16 15  1  0
 17 19  1  0
 18 17  1  0
 19 20  2  0
 19 21  1  0
M  END
$$$$
