VGQ.pdb
     RDKit          3D

 21 20  0  0  1  0  0  0  0  0999 V2000
   27.0721  -26.0408  -17.3634 C   0  0  0  0  0  0  0  0  0  0  0  0
   26.1413  -25.0562  -16.7172 C   0  0  2  0  0  0  0  0  0  0  0  0
   26.8381  -24.1332  -15.7704 C   0  0  0  0  0  0  0  0  0  0  0  0
   24.9271  -25.7167  -16.1012 C   0  0  2  0  0  0  0  0  0  0  0  0
   24.1762  -26.2651  -17.2462 N   0  0  0  0  0  0  0  0  0  0  0  0
   24.0431  -24.8071  -15.3718 C   0  0  0  0  0  0  0  0  0  0  0  0
   23.2809  -24.0345  -16.0483 O   0  0  0  0  0  0  0  0  0  0  0  0
   23.9471  -24.6977  -13.9637 N   0  0  0  0  0  0  0  0  0  0  0  0
   23.0771  -23.7435  -13.3788 C   0  0  0  0  0  0  0  0  0  0  0  0
   21.7478  -24.1945  -12.9894 C   0  0  0  0  0  0  0  0  0  0  0  0
   21.4324  -25.3748  -13.3688 O   0  0  0  0  0  0  0  0  0  0  0  0
   17.2398  -25.7500   -7.6061 N   0  0  0  0  0  0  0  0  0  0  0  0
   18.2811  -25.1296   -8.3222 C   0  0  0  0  0  0  0  0  0  0  0  0
   19.2647  -24.7011   -7.6287 O   0  0  0  0  0  0  0  0  0  0  0  0
   18.2718  -24.9646   -9.7992 C   0  0  0  0  0  0  0  0  0  0  0  0
   19.4875  -24.1655  -10.2624 C   0  0  0  0  0  0  0  0  0  0  0  0
   19.5481  -24.0875  -11.7635 C   0  0  2  0  0  0  0  0  0  0  0  0
   20.7664  -23.5103  -12.2571 N   0  0  0  0  0  0  0  0  0  0  0  0
   18.3475  -23.4228  -12.3243 C   0  0  0  0  0  0  0  0  0  0  0  0
   18.4013  -22.1909  -12.5581 O   0  0  0  0  0  0  0  0  0  0  0  0
   17.1616  -24.0759  -12.6094 O   0  0  0  0  0  0  0  0  0  0  0  0
  2  1  1  1
  2  3  1  0
  4  2  1  0
  4  5  1  6
  6  4  1  0
  6  7  2  0
  8  6  1  0
  9  8  1  0
  9 10  1  0
 10 18  1  0
 11 10  2  0
 13 15  1  0
 13 12  1  0
 14 13  2  0
 17 16  1  1
 16 15  1  0
 17 19  1  0
 18 17  1  0
 19 20  2  0
 19 21  1  0
M  END
$$$$
