VGQ.pdb
     RDKit          3D

 21 20  0  0  1  0  0  0  0  0999 V2000
   23.5218  -21.7715  -16.5065 C   0  0  0  0  0  0  0  0  0  0  0  0
   24.1569  -21.1313  -17.7067 C   0  0  2  0  0  0  0  0  0  0  0  0
   23.6414  -21.6791  -18.9981 C   0  0  0  0  0  0  0  0  0  0  0  0
   25.6684  -21.1271  -17.6361 C   0  0  2  0  0  0  0  0  0  0  0  0
   26.0565  -22.5402  -17.8039 N   0  0  0  0  0  0  0  0  0  0  0  0
   26.2176  -20.6529  -16.3654 C   0  0  0  0  0  0  0  0  0  0  0  0
   25.9935  -19.4404  -16.0261 O   0  0  0  0  0  0  0  0  0  0  0  0
   26.9865  -21.4203  -15.4579 N   0  0  0  0  0  0  0  0  0  0  0  0
   27.3919  -20.8658  -14.2178 C   0  0  0  0  0  0  0  0  0  0  0  0
   26.6472  -21.2590  -13.0293 C   0  0  0  0  0  0  0  0  0  0  0  0
   25.4768  -21.7296  -13.2420 O   0  0  0  0  0  0  0  0  0  0  0  0
   27.5458  -19.1020   -7.0292 N   0  0  0  0  0  0  0  0  0  0  0  0
   26.3416  -19.8301   -6.9897 C   0  0  0  0  0  0  0  0  0  0  0  0
   25.7566  -19.8909   -5.8556 O   0  0  0  0  0  0  0  0  0  0  0  0
   25.7540  -20.5026   -8.1777 C   0  0  0  0  0  0  0  0  0  0  0  0
   26.7215  -20.4593   -9.3581 C   0  0  0  0  0  0  0  0  0  0  0  0
   26.1428  -21.1509  -10.5622 C   0  0  2  0  0  0  0  0  0  0  0  0
   27.0379  -21.1902  -11.6838 N   0  0  0  0  0  0  0  0  0  0  0  0
   24.8165  -20.5967  -10.9247 C   0  0  0  0  0  0  0  0  0  0  0  0
   23.7894  -21.1758  -10.4945 O   0  0  0  0  0  0  0  0  0  0  0  0
   24.6341  -19.4740  -11.7124 O   0  0  0  0  0  0  0  0  0  0  0  0
  2  1  1  1
  2  3  1  0
  4  2  1  0
  4  5  1  1
  6  4  1  0
  6  7  2  0
  8  6  1  0
  9  8  1  0
  9 10  1  0
 10 18  1  0
 11 10  2  0
 13 15  1  0
 13 12  1  0
 14 13  2  0
 17 16  1  1
 16 15  1  0
 17 19  1  0
 18 17  1  0
 19 20  2  0
 19 21  1  0
M  END
$$$$
