GRF.pdb
     RDKit          3D

 27 27  0  0  1  0  0  0  0  0999 V2000
    7.6148  -12.3642   18.4689 N   0  0  0  0  0  0  0  0  0  0  0  0
    8.5888  -13.0224   19.2786 C   0  0  0  0  0  0  0  0  0  0  0  0
    7.9507  -13.9277   20.2939 C   0  0  0  0  0  0  0  0  0  0  0  0
    6.8464  -14.4245   20.0464 O   0  0  0  0  0  0  0  0  0  0  0  0
   12.0847  -19.2525   22.9587 N   0  0  0  0  0  0  0  0  0  0  0  0
   11.3423  -20.3424   22.4125 C   0  0  0  0  0  0  0  0  0  0  0  0
   11.4154  -21.5278   22.9281 N   0  0  0  0  0  0  0  0  0  0  0  0
   10.5008  -20.1596   21.2860 N   0  0  0  0  0  0  0  0  0  0  0  0
   10.4087  -18.8300   20.6441 C   0  0  0  0  0  0  0  0  0  0  0  0
    9.7351  -17.8645   21.5447 C   0  0  0  0  0  0  0  0  0  0  0  0
    9.5236  -16.4835   21.0867 C   0  0  0  0  0  0  0  0  0  0  0  0
    8.8044  -15.5448   22.0119 C   0  0  2  0  0  0  0  0  0  0  0  0
    8.5933  -14.2183   21.5245 N   0  0  0  0  0  0  0  0  0  0  0  0
    9.3699  -15.6144   23.3691 C   0  0  0  0  0  0  0  0  0  0  0  0
   10.5856  -15.4013   23.5373 O   0  0  0  0  0  0  0  0  0  0  0  0
   10.8613  -22.2925   22.4851 N   0  0  0  0  0  0  0  0  0  0  0  0
    8.5416  -15.9189   24.4668 C   0  0  2  0  0  0  0  0  0  0  0  0
    9.0633  -15.8669   25.8390 C   0  0  0  0  0  0  0  0  0  0  0  0
    8.0117  -15.2942   26.7681 C   0  0  0  0  0  0  0  0  0  0  0  0
    7.7396  -13.8635   26.5378 C   0  0  0  0  0  0  0  0  0  0  0  0
    8.6866  -12.8769   26.7466 C   0  0  0  0  0  0  0  0  0  0  0  0
    8.4177  -11.5669   26.5212 C   0  0  0  0  0  0  0  0  0  0  0  0
    7.1655  -11.2137   26.0717 C   0  0  0  0  0  0  0  0  0  0  0  0
    6.2044  -12.1898   25.8570 C   0  0  0  0  0  0  0  0  0  0  0  0
    6.4842  -13.5112   26.0871 C   0  0  0  0  0  0  0  0  0  0  0  0
    9.5004  -17.2159   26.2212 O   0  0  0  0  0  0  0  0  0  0  0  0
    9.9872  -17.4475   27.3811 O   0  0  0  0  0  0  0  0  0  0  0  0
  2  1  1  0
  3  2  1  0
  3 13  1  0
  4  3  2  0
  5  6  1  0
  6  8  1  0
  6  7  2  0
  8  9  1  0
  9 10  1  0
 12 11  1  6
 11 10  1  0
 13 12  1  0
 14 15  2  0
 14 12  1  0
 16 14  1  0
 17 16  1  0
 17 25  1  0
 17 18  1  6
 19 18  1  0
 20 19  2  0
 21 20  1  0
 22 23  1  0
 22 21  2  0
 23 24  2  0
 24 19  1  0
 25 26  2  0
 25 27  1  0
M  END
$$$$
