GRF.pdb
     RDKit          3D

 27 27  0  0  1  0  0  0  0  0999 V2000
    7.3636  -21.2261   21.9960 N   0  0  0  0  0  0  0  0  0  0  0  0
    6.6499  -20.0268   22.2958 C   0  0  0  0  0  0  0  0  0  0  0  0
    7.5214  -18.8104   22.1603 C   0  0  0  0  0  0  0  0  0  0  0  0
    8.7361  -18.9156   22.3624 O   0  0  0  0  0  0  0  0  0  0  0  0
    8.3995  -12.1752   17.4661 N   0  0  0  0  0  0  0  0  0  0  0  0
    8.3552  -13.5726   17.7539 C   0  0  0  0  0  0  0  0  0  0  0  0
    8.6085  -14.4532   16.8393 N   0  0  0  0  0  0  0  0  0  0  0  0
    8.0313  -14.0395   19.0530 N   0  0  0  0  0  0  0  0  0  0  0  0
    8.2202  -13.1530   20.2221 C   0  0  0  0  0  0  0  0  0  0  0  0
    7.8471  -13.8564   21.4724 C   0  0  0  0  0  0  0  0  0  0  0  0
    7.0673  -15.1001   21.3904 C   0  0  0  0  0  0  0  0  0  0  0  0
    7.5951  -16.3027   22.1183 C   0  0  2  0  0  0  0  0  0  0  0  0
    6.9734  -17.5509   21.8064 N   0  0  0  0  0  0  0  0  0  0  0  0
    7.7227  -16.0266   23.5584 C   0  0  0  0  0  0  0  0  0  0  0  0
    6.7287  -16.1584   24.2975 O   0  0  0  0  0  0  0  0  0  0  0  0
    8.6290  -15.4588   17.1160 N   0  0  0  0  0  0  0  0  0  0  0  0
    8.9594  -15.6176   24.0942 C   0  0  1  0  0  0  0  0  0  0  0  0
    9.1526  -15.5175   25.5470 C   0  0  0  0  0  0  0  0  0  0  0  0
    7.8081  -15.4171   26.2394 C   0  0  0  0  0  0  0  0  0  0  0  0
    7.3343  -14.0309   26.4059 C   0  0  0  0  0  0  0  0  0  0  0  0
    8.1909  -12.9454   26.4471 C   0  0  0  0  0  0  0  0  0  0  0  0
    7.7333  -11.6772   26.5934 C   0  0  0  0  0  0  0  0  0  0  0  0
    6.3771  -11.4690   26.7036 C   0  0  0  0  0  0  0  0  0  0  0  0
    5.5043  -12.5457   26.6641 C   0  0  0  0  0  0  0  0  0  0  0  0
    5.9747  -13.8240   26.5159 C   0  0  0  0  0  0  0  0  0  0  0  0
    9.9472  -16.6703   25.9904 O   0  0  0  0  0  0  0  0  0  0  0  0
   10.2667  -17.6035   25.1761 O   0  0  0  0  0  0  0  0  0  0  0  0
  2  1  1  0
  3  2  1  0
  3 13  1  0
  4  3  2  0
  5  6  1  0
  6  8  1  0
  6  7  2  0
  8  9  1  0
  9 10  1  0
 12 11  1  6
 11 10  1  0
 13 12  1  0
 14 15  2  0
 14 12  1  0
 16 14  1  0
 17 16  1  0
 17 25  1  0
 17 18  1  6
 19 18  1  0
 20 19  2  0
 21 20  1  0
 22 23  1  0
 22 21  2  0
 23 24  2  0
 24 19  1  0
 25 26  2  0
 25 27  1  0
M  END
$$$$
