GRF.pdb
     RDKit          3D

 27 27  0  0  1  0  0  0  0  0999 V2000
    3.3842  -18.6982   20.9581 N   0  0  0  0  0  0  0  0  0  0  0  0
    3.9221  -17.3987   21.2020 C   0  0  0  0  0  0  0  0  0  0  0  0
    5.3823  -17.4558   21.5514 C   0  0  0  0  0  0  0  0  0  0  0  0
    5.9086  -18.5550   21.7572 O   0  0  0  0  0  0  0  0  0  0  0  0
    8.5757  -12.6607   17.0863 N   0  0  0  0  0  0  0  0  0  0  0  0
    8.1830  -13.8687   16.4351 C   0  0  0  0  0  0  0  0  0  0  0  0
    7.9982  -13.9098   15.1544 N   0  0  0  0  0  0  0  0  0  0  0  0
    7.9825  -15.0628   17.1731 N   0  0  0  0  0  0  0  0  0  0  0  0
    8.7785  -15.3161   18.3939 C   0  0  0  0  0  0  0  0  0  0  0  0
    7.8885  -15.5020   19.5646 C   0  0  0  0  0  0  0  0  0  0  0  0
    8.4802  -15.8220   20.8718 C   0  0  0  0  0  0  0  0  0  0  0  0
    7.5535  -16.2685   21.9657 C   0  0  2  0  0  0  0  0  0  0  0  0
    6.1604  -16.2738   21.6481 N   0  0  0  0  0  0  0  0  0  0  0  0
    7.8881  -15.6051   23.2363 C   0  0  0  0  0  0  0  0  0  0  0  0
    7.4876  -14.4441   23.4447 O   0  0  0  0  0  0  0  0  0  0  0  0
    7.7141  -14.8178   14.7266 N   0  0  0  0  0  0  0  0  0  0  0  0
    8.6541  -16.2793   24.2070 C   0  0  1  0  0  0  0  0  0  0  0  0
    8.7914  -15.7373   25.5654 C   0  0  0  0  0  0  0  0  0  0  0  0
    7.4217  -15.5578   26.1889 C   0  0  0  0  0  0  0  0  0  0  0  0
    7.0822  -14.1504   26.4678 C   0  0  0  0  0  0  0  0  0  0  0  0
    5.8186  -13.6280   26.2582 C   0  0  0  0  0  0  0  0  0  0  0  0
    5.5255  -12.3318   26.5286 C   0  0  0  0  0  0  0  0  0  0  0  0
    6.5169  -11.5166   27.0258 C   0  0  0  0  0  0  0  0  0  0  0  0
    7.7891  -12.0238   27.2421 C   0  0  0  0  0  0  0  0  0  0  0  0
    8.0770  -13.3346   26.9663 C   0  0  0  0  0  0  0  0  0  0  0  0
    9.6655  -16.6312   26.3360 O   0  0  0  0  0  0  0  0  0  0  0  0
    9.6390  -17.8970   26.1546 O   0  0  0  0  0  0  0  0  0  0  0  0
  2  1  1  0
  3  2  1  0
  3 13  1  0
  4  3  2  0
  5  6  1  0
  6  8  1  0
  6  7  2  0
  8  9  1  0
  9 10  1  0
 12 11  1  6
 11 10  1  0
 13 12  1  0
 14 15  2  0
 14 12  1  0
 16 14  1  0
 17 16  1  0
 17 25  1  0
 17 18  1  6
 19 18  1  0
 20 19  2  0
 21 20  1  0
 22 23  1  0
 22 21  2  0
 23 24  2  0
 24 19  1  0
 25 26  2  0
 25 27  1  0
M  END
$$$$
