GRF.pdb
     RDKit          3D

 27 27  0  0  1  0  0  0  0  0999 V2000
    7.4717  -12.1243   19.3094 N   0  0  0  0  0  0  0  0  0  0  0  0
    8.5597  -12.7637   19.9765 C   0  0  0  0  0  0  0  0  0  0  0  0
    8.0843  -13.8218   20.9314 C   0  0  0  0  0  0  0  0  0  0  0  0
    7.1290  -13.5746   21.6757 O   0  0  0  0  0  0  0  0  0  0  0  0
    9.9536  -17.9526   17.6365 N   0  0  0  0  0  0  0  0  0  0  0  0
    9.0364  -19.0175   17.3870 C   0  0  0  0  0  0  0  0  0  0  0  0
    8.9759  -19.5919   16.2283 N   0  0  0  0  0  0  0  0  0  0  0  0
    8.1616  -19.4793   18.4030 N   0  0  0  0  0  0  0  0  0  0  0  0
    8.5282  -19.3044   19.8255 C   0  0  0  0  0  0  0  0  0  0  0  0
    8.4273  -17.8780   20.2157 C   0  0  0  0  0  0  0  0  0  0  0  0
    8.6626  -17.4993   21.6167 C   0  0  0  0  0  0  0  0  0  0  0  0
    8.4330  -16.0655   21.9990 C   0  0  2  0  0  0  0  0  0  0  0  0
    8.7123  -15.0922   20.9908 N   0  0  0  0  0  0  0  0  0  0  0  0
    9.0299  -15.7735   23.3124 C   0  0  0  0  0  0  0  0  0  0  0  0
   10.1739  -15.2838   23.3696 O   0  0  0  0  0  0  0  0  0  0  0  0
    8.3593  -20.4268   16.1241 N   0  0  0  0  0  0  0  0  0  0  0  0
    8.3119  -16.0458   24.4930 C   0  0  1  0  0  0  0  0  0  0  0  0
    8.8881  -15.7428   25.8098 C   0  0  0  0  0  0  0  0  0  0  0  0
    7.8001  -15.2640   26.7500 C   0  0  0  0  0  0  0  0  0  0  0  0
    7.2623  -13.9366   26.3999 C   0  0  0  0  0  0  0  0  0  0  0  0
    5.9595  -13.7429   25.9769 C   0  0  0  0  0  0  0  0  0  0  0  0
    5.4827  -12.5117   25.6670 C   0  0  0  0  0  0  0  0  0  0  0  0
    6.3227  -11.4269   25.7783 C   0  0  0  0  0  0  0  0  0  0  0  0
    7.6315  -11.6029   26.2009 C   0  0  0  0  0  0  0  0  0  0  0  0
    8.1054  -12.8503   26.5122 C   0  0  0  0  0  0  0  0  0  0  0  0
    9.5888  -16.9382   26.2965 O   0  0  0  0  0  0  0  0  0  0  0  0
    9.4006  -18.0803   25.7522 O   0  0  0  0  0  0  0  0  0  0  0  0
  2  1  1  0
  3  2  1  0
  3 13  1  0
  4  3  2  0
  5  6  1  0
  6  8  1  0
  6  7  2  0
  8  9  1  0
  9 10  1  0
 12 11  1  6
 11 10  1  0
 13 12  1  0
 14 15  2  0
 14 12  1  0
 16 14  1  0
 17 16  1  0
 17 25  1  0
 17 18  1  6
 19 18  1  0
 20 19  2  0
 21 20  1  0
 22 23  1  0
 22 21  2  0
 23 24  2  0
 24 19  1  0
 25 26  2  0
 25 27  1  0
M  END
$$$$
