GRF.pdb
     RDKit          3D

 27 27  0  0  1  0  0  0  0  0999 V2000
    6.5876  -21.2759   24.1157 N   0  0  0  0  0  0  0  0  0  0  0  0
    6.1174  -19.9386   24.2838 C   0  0  0  0  0  0  0  0  0  0  0  0
    6.9911  -18.9462   23.5701 C   0  0  0  0  0  0  0  0  0  0  0  0
    8.0829  -19.3172   23.1252 O   0  0  0  0  0  0  0  0  0  0  0  0
    8.3243  -14.4082   18.2364 N   0  0  0  0  0  0  0  0  0  0  0  0
    8.6417  -13.1352   18.7987 C   0  0  0  0  0  0  0  0  0  0  0  0
    9.6159  -12.4211   18.3326 N   0  0  0  0  0  0  0  0  0  0  0  0
    7.8982  -12.6133   19.8875 N   0  0  0  0  0  0  0  0  0  0  0  0
    6.8874  -13.4579   20.5608 C   0  0  0  0  0  0  0  0  0  0  0  0
    7.5461  -14.5223   21.3546 C   0  0  0  0  0  0  0  0  0  0  0  0
    6.7152  -15.4945   22.0798 C   0  0  0  0  0  0  0  0  0  0  0  0
    7.4179  -16.5854   22.8353 C   0  0  2  0  0  0  0  0  0  0  0  0
    6.5836  -17.5982   23.4010 N   0  0  0  0  0  0  0  0  0  0  0  0
    8.4098  -16.0210   23.7649 C   0  0  0  0  0  0  0  0  0  0  0  0
    9.3951  -15.4088   23.3112 O   0  0  0  0  0  0  0  0  0  0  0  0
    9.7758  -11.4767   18.7458 N   0  0  0  0  0  0  0  0  0  0  0  0
    8.2439  -16.1728   25.1553 C   0  0  1  0  0  0  0  0  0  0  0  0
    9.2515  -15.6590   26.0927 C   0  0  0  0  0  0  0  0  0  0  0  0
    8.5818  -14.8071   27.1523 C   0  0  0  0  0  0  0  0  0  0  0  0
    7.9257  -13.6029   26.6108 C   0  0  0  0  0  0  0  0  0  0  0  0
    6.5812  -13.5623   26.2878 C   0  0  0  0  0  0  0  0  0  0  0  0
    5.9957  -12.4414   25.7978 C   0  0  0  0  0  0  0  0  0  0  0  0
    6.7654  -11.3144   25.6186 C   0  0  0  0  0  0  0  0  0  0  0  0
    8.1146  -11.3374   25.9373 C   0  0  0  0  0  0  0  0  0  0  0  0
    8.6984  -12.4740   26.4320 C   0  0  0  0  0  0  0  0  0  0  0  0
    9.9919  -16.7987   26.6493 O   0  0  0  0  0  0  0  0  0  0  0  0
   10.9755  -16.6200   27.4471 O   0  0  0  0  0  0  0  0  0  0  0  0
  2  1  1  0
  3  2  1  0
  3 13  1  0
  4  3  2  0
  5  6  1  0
  6  8  1  0
  6  7  2  0
  8  9  1  0
  9 10  1  0
 12 11  1  1
 11 10  1  0
 13 12  1  0
 14 15  2  0
 14 12  1  0
 16 14  1  0
 17 16  1  0
 17 25  1  0
 17 18  1  1
 19 18  1  0
 20 19  2  0
 21 20  1  0
 22 23  1  0
 22 21  2  0
 23 24  2  0
 24 19  1  0
 25 26  2  0
 25 27  1  0
M  END
$$$$
