IMD.pdb
     RDKit          3D

 25 24  0  0  1  0  0  0  0  0999 V2000
   27.4797  -14.9903  -17.7149 C   0  0  0  0  0  0  0  0  0  0  0  0
   28.0927  -16.1915  -17.0935 C   0  0  0  0  0  0  0  0  0  0  0  0
   27.1182  -17.1198  -16.4388 C   0  0  2  0  0  0  0  0  0  0  0  0
   26.3722  -16.3667  -15.3313 C   0  0  0  0  0  0  0  0  0  0  0  0
   27.6838  -18.4001  -15.8991 C   0  0  2  0  0  0  0  0  0  0  0  0
   28.2690  -19.0909  -17.0837 N   0  0  0  0  0  0  0  0  0  0  0  0
   26.7623  -19.2949  -15.2141 C   0  0  0  0  0  0  0  0  0  0  0  0
   25.9230  -20.0237  -15.8711 O   0  0  0  0  0  0  0  0  0  0  0  0
   26.2176  -19.8159   -8.6972 C   0  0  0  0  0  0  0  0  0  0  0  0
   25.7810  -21.4850   -9.2577 S   0  0  0  0  0  0  0  0  0  0  0  0
   25.1404  -21.3273  -10.9771 C   0  0  0  0  0  0  0  0  0  0  0  0
   26.1356  -20.5461  -11.7711 C   0  0  0  0  0  0  0  0  0  0  0  0
   25.6876  -20.3858  -13.2193 C   0  0  2  0  0  0  0  0  0  0  0  0
   26.6875  -19.4647  -13.8126 N   0  0  0  0  0  0  0  0  0  0  0  0
   24.3183  -19.9443  -13.3896 C   0  0  0  0  0  0  0  0  0  0  0  0
   23.9523  -18.7735  -13.1199 O   0  0  0  0  0  0  0  0  0  0  0  0
   23.3032  -20.8119  -13.8749 N   0  0  0  0  0  0  0  0  0  0  0  0
   21.9132  -20.3487  -14.0071 C   0  0  1  0  0  0  0  0  0  0  0  0
   21.5234  -20.3871  -15.4585 C   0  0  0  0  0  0  0  0  0  0  0  0
   20.1431  -19.9909  -15.7389 C   0  0  0  0  0  0  0  0  0  0  0  0
   19.3669  -19.6948  -14.7965 O   0  0  0  0  0  0  0  0  0  0  0  0
   21.0110  -21.1191  -13.1421 C   0  0  0  0  0  0  0  0  0  0  0  0
   21.3842  -22.3956  -12.7517 O   0  0  0  0  0  0  0  0  0  0  0  0
   19.6460  -19.9274  -17.0297 O   0  0  0  0  0  0  0  0  0  0  0  0
   19.9172  -20.6800  -12.7375 O   0  0  0  0  0  0  0  0  0  0  0  0
  1  2  1  0
  2  3  1  0
  3  4  1  1
  3  5  1  0
  5  7  1  0
  5  6  1  6
  7  8  2  0
  9 10  1  0
 10 11  1  0
 11 12  1  0
 13 12  1  1
 14 13  1  0
 14  7  1  0
 15 13  1  0
 16 15  2  0
 17 15  1  0
 18 19  1  6
 18 17  1  0
 19 20  1  0
 20 21  2  0
 20 24  1  0
 22 23  1  0
 22 18  1  0
 25 22  2  0
M  END
$$$$
