IMD.pdb
     RDKit          3D

 25 24  0  0  1  0  0  0  0  0999 V2000
   15.1615  -10.6144  -17.1401 C   0  0  0  0  0  0  0  0  0  0  0  0
   16.4143  -11.3775  -17.3698 C   0  0  0  0  0  0  0  0  0  0  0  0
   17.6135  -10.8346  -16.6576 C   0  0  2  0  0  0  0  0  0  0  0  0
   17.8279   -9.3748  -17.0741 C   0  0  0  0  0  0  0  0  0  0  0  0
   18.8878  -11.6088  -16.8220 C   0  0  2  0  0  0  0  0  0  0  0  0
   18.5884  -12.9622  -16.2727 N   0  0  0  0  0  0  0  0  0  0  0  0
   20.0781  -11.0703  -16.1799 C   0  0  0  0  0  0  0  0  0  0  0  0
   20.2535  -11.1674  -14.9043 O   0  0  0  0  0  0  0  0  0  0  0  0
   24.6297  -14.3002  -15.3837 C   0  0  0  0  0  0  0  0  0  0  0  0
   24.5498  -12.4889  -15.3270 S   0  0  0  0  0  0  0  0  0  0  0  0
   23.4913  -11.9503  -16.7344 C   0  0  0  0  0  0  0  0  0  0  0  0
   23.5081  -10.4574  -16.7802 C   0  0  0  0  0  0  0  0  0  0  0  0
   22.2844   -9.8670  -16.0890 C   0  0  2  0  0  0  0  0  0  0  0  0
   21.1343  -10.4123  -16.8507 N   0  0  0  0  0  0  0  0  0  0  0  0
   22.2795   -8.4219  -15.9853 C   0  0  0  0  0  0  0  0  0  0  0  0
   21.7567   -7.6881  -16.8603 O   0  0  0  0  0  0  0  0  0  0  0  0
   22.8670   -7.7450  -14.8829 N   0  0  0  0  0  0  0  0  0  0  0  0
   22.7194   -6.2899  -14.7241 C   0  0  1  0  0  0  0  0  0  0  0  0
   22.0649   -5.7299  -15.9561 C   0  0  0  0  0  0  0  0  0  0  0  0
   21.7185   -4.3103  -15.8814 C   0  0  0  0  0  0  0  0  0  0  0  0
   22.5242   -3.4890  -15.3767 O   0  0  0  0  0  0  0  0  0  0  0  0
   22.0048   -5.9597  -13.4847 C   0  0  0  0  0  0  0  0  0  0  0  0
   21.5868   -6.9899  -12.6569 O   0  0  0  0  0  0  0  0  0  0  0  0
   20.5117   -3.8238  -16.3549 O   0  0  0  0  0  0  0  0  0  0  0  0
   21.7527   -4.7902  -13.1360 O   0  0  0  0  0  0  0  0  0  0  0  0
  1  2  1  0
  2  3  1  0
  3  4  1  6
  3  5  1  0
  5  7  1  0
  5  6  1  1
  7  8  2  0
  9 10  1  0
 10 11  1  0
 11 12  1  0
 13 12  1  6
 14 13  1  0
 14  7  1  0
 15 13  1  0
 16 15  2  0
 17 15  1  0
 18 19  1  6
 18 17  1  0
 19 20  1  0
 20 21  2  0
 20 24  1  0
 22 23  1  0
 22 18  1  0
 25 22  2  0
M  END
$$$$
