IMD.pdb
     RDKit          3D

 25 24  0  0  1  0  0  0  0  0999 V2000
   29.1657  -17.4297  -19.4526 C   0  0  0  0  0  0  0  0  0  0  0  0
   27.8536  -17.4119  -18.7577 C   0  0  0  0  0  0  0  0  0  0  0  0
   27.6739  -18.4933  -17.7388 C   0  0  2  0  0  0  0  0  0  0  0  0
   28.0037  -19.8470  -18.3784 C   0  0  0  0  0  0  0  0  0  0  0  0
   26.3337  -18.5545  -17.0676 C   0  0  2  0  0  0  0  0  0  0  0  0
   26.1547  -17.2119  -16.4445 N   0  0  0  0  0  0  0  0  0  0  0  0
   26.1417  -19.5914  -16.0642 C   0  0  0  0  0  0  0  0  0  0  0  0
   25.9948  -20.8296  -16.3997 O   0  0  0  0  0  0  0  0  0  0  0  0
   28.5739  -21.5755  -10.4081 C   0  0  0  0  0  0  0  0  0  0  0  0
   29.3145  -20.5930  -11.7410 S   0  0  0  0  0  0  0  0  0  0  0  0
   28.1435  -20.6398  -13.1616 C   0  0  0  0  0  0  0  0  0  0  0  0
   26.7669  -20.4004  -12.6336 C   0  0  0  0  0  0  0  0  0  0  0  0
   25.7261  -20.4707  -13.7451 C   0  0  2  0  0  0  0  0  0  0  0  0
   26.1007  -19.3718  -14.6683 N   0  0  0  0  0  0  0  0  0  0  0  0
   24.3496  -20.4091  -13.2974 C   0  0  0  0  0  0  0  0  0  0  0  0
   23.9547  -19.5644  -12.4560 O   0  0  0  0  0  0  0  0  0  0  0  0
   23.3591  -21.3031  -13.7858 N   0  0  0  0  0  0  0  0  0  0  0  0
   21.9386  -21.1103  -13.4557 C   0  0  1  0  0  0  0  0  0  0  0  0
   21.5381  -19.7101  -13.8286 C   0  0  0  0  0  0  0  0  0  0  0  0
   20.1209  -19.4005  -13.6373 C   0  0  0  0  0  0  0  0  0  0  0  0
   19.5658  -19.6362  -12.5352 O   0  0  0  0  0  0  0  0  0  0  0  0
   21.1019  -22.1410  -14.0827 C   0  0  0  0  0  0  0  0  0  0  0  0
   19.7621  -22.2195  -13.7359 O   0  0  0  0  0  0  0  0  0  0  0  0
   19.3489  -18.8458  -14.6441 O   0  0  0  0  0  0  0  0  0  0  0  0
   21.5386  -22.9561  -14.9180 O   0  0  0  0  0  0  0  0  0  0  0  0
  1  2  1  0
  2  3  1  0
  3  4  1  6
  3  5  1  0
  5  7  1  0
  5  6  1  1
  7  8  2  0
  9 10  1  0
 10 11  1  0
 11 12  1  0
 13 12  1  1
 14 13  1  0
 14  7  1  0
 15 13  1  0
 16 15  2  0
 17 15  1  0
 18 19  1  6
 18 17  1  0
 19 20  1  0
 20 21  2  0
 20 24  1  0
 22 23  1  0
 22 18  1  0
 25 22  2  0
M  END
$$$$
