IMD.pdb
     RDKit          3D

 25 24  0  0  1  0  0  0  0  0999 V2000
   29.4690  -19.3513   -3.8485 C   0  0  0  0  0  0  0  0  0  0  0  0
   29.0006  -18.7542   -5.1247 C   0  0  0  0  0  0  0  0  0  0  0  0
   28.3012  -19.7102   -6.0396 C   0  0  2  0  0  0  0  0  0  0  0  0
   29.2021  -20.9270   -6.2800 C   0  0  0  0  0  0  0  0  0  0  0  0
   27.8331  -19.1499   -7.3501 C   0  0  2  0  0  0  0  0  0  0  0  0
   27.0773  -17.9156   -6.9920 N   0  0  0  0  0  0  0  0  0  0  0  0
   27.0033  -20.0107   -8.1804 C   0  0  0  0  0  0  0  0  0  0  0  0
   27.5127  -20.9924   -8.8467 O   0  0  0  0  0  0  0  0  0  0  0  0
   21.2547  -22.1208   -7.2240 C   0  0  0  0  0  0  0  0  0  0  0  0
   22.6999  -22.3653   -6.1554 S   0  0  0  0  0  0  0  0  0  0  0  0
   24.1711  -21.7742   -7.0923 C   0  0  0  0  0  0  0  0  0  0  0  0
   23.7073  -21.3048   -8.4324 C   0  0  0  0  0  0  0  0  0  0  0  0
   24.8673  -20.7736   -9.2666 C   0  0  2  0  0  0  0  0  0  0  0  0
   25.6050  -19.8792   -8.3414 N   0  0  0  0  0  0  0  0  0  0  0  0
   24.4838  -20.1351  -10.5092 C   0  0  0  0  0  0  0  0  0  0  0  0
   24.0187  -18.9690  -10.5488 O   0  0  0  0  0  0  0  0  0  0  0  0
   24.6121  -20.7912  -11.7629 N   0  0  0  0  0  0  0  0  0  0  0  0
   24.1395  -20.1531  -13.0013 C   0  0  1  0  0  0  0  0  0  0  0  0
   25.0824  -20.5022  -14.1189 C   0  0  0  0  0  0  0  0  0  0  0  0
   24.6525  -20.0689  -15.4487 C   0  0  0  0  0  0  0  0  0  0  0  0
   23.5659  -19.4549  -15.5926 O   0  0  0  0  0  0  0  0  0  0  0  0
   22.7439  -20.5102  -13.2848 C   0  0  0  0  0  0  0  0  0  0  0  0
   21.8572  -19.5102  -13.6521 O   0  0  0  0  0  0  0  0  0  0  0  0
   25.4115  -20.3131  -16.5808 O   0  0  0  0  0  0  0  0  0  0  0  0
   22.3121  -21.6769  -13.2114 O   0  0  0  0  0  0  0  0  0  0  0  0
  1  2  1  0
  2  3  1  0
  3  4  1  6
  3  5  1  0
  5  7  1  0
  5  6  1  1
  7  8  2  0
  9 10  1  0
 10 11  1  0
 11 12  1  0
 13 12  1  1
 14 13  1  0
 14  7  1  0
 15 13  1  0
 16 15  2  0
 17 15  1  0
 18 19  1  6
 18 17  1  0
 19 20  1  0
 20 21  2  0
 20 24  1  0
 22 23  1  0
 22 18  1  0
 25 22  2  0
M  END
$$$$
