IMD.pdb
     RDKit          3D

 25 24  0  0  1  0  0  0  0  0999 V2000
   20.5455  -19.9936  -16.4523 C   0  0  0  0  0  0  0  0  0  0  0  0
   21.0862  -18.8195  -17.1830 C   0  0  0  0  0  0  0  0  0  0  0  0
   21.4501  -17.6578  -16.3123 C   0  0  2  0  0  0  0  0  0  0  0  0
   20.2307  -17.2554  -15.4748 C   0  0  0  0  0  0  0  0  0  0  0  0
   22.0122  -16.4562  -17.0126 C   0  0  2  0  0  0  0  0  0  0  0  0
   23.1014  -16.9911  -17.8788 N   0  0  0  0  0  0  0  0  0  0  0  0
   22.5316  -15.3842  -16.1759 C   0  0  0  0  0  0  0  0  0  0  0  0
   21.8139  -14.8555  -15.2417 O   0  0  0  0  0  0  0  0  0  0  0  0
   28.3978  -13.5006  -16.5811 C   0  0  0  0  0  0  0  0  0  0  0  0
   28.1172  -14.8261  -15.3749 S   0  0  0  0  0  0  0  0  0  0  0  0
   26.3165  -14.8332  -14.9890 C   0  0  0  0  0  0  0  0  0  0  0  0
   25.7177  -13.5874  -15.5553 C   0  0  0  0  0  0  0  0  0  0  0  0
   24.1950  -13.6258  -15.4939 C   0  0  2  0  0  0  0  0  0  0  0  0
   23.8264  -14.8268  -16.2825 N   0  0  0  0  0  0  0  0  0  0  0  0
   23.5354  -12.4146  -15.9378 C   0  0  0  0  0  0  0  0  0  0  0  0
   23.6489  -11.3249  -15.3236 O   0  0  0  0  0  0  0  0  0  0  0  0
   22.7181  -12.3859  -17.0996 N   0  0  0  0  0  0  0  0  0  0  0  0
   22.0249  -11.1533  -17.5053 C   0  0  1  0  0  0  0  0  0  0  0  0
   22.5986  -10.6799  -18.8117 C   0  0  0  0  0  0  0  0  0  0  0  0
   21.9333   -9.5135  -19.3929 C   0  0  0  0  0  0  0  0  0  0  0  0
   20.9993   -8.9453  -18.7739 O   0  0  0  0  0  0  0  0  0  0  0  0
   20.5705  -11.3495  -17.5458 C   0  0  0  0  0  0  0  0  0  0  0  0
   19.7416  -10.2429  -17.4476 O   0  0  0  0  0  0  0  0  0  0  0  0
   22.2992   -8.9985  -20.6250 O   0  0  0  0  0  0  0  0  0  0  0  0
   20.0384  -12.4701  -17.6649 O   0  0  0  0  0  0  0  0  0  0  0  0
  1  2  1  0
  2  3  1  0
  3  4  1  6
  3  5  1  0
  5  7  1  0
  5  6  1  6
  7  8  2  0
  9 10  1  0
 10 11  1  0
 11 12  1  0
 13 12  1  6
 14 13  1  0
 14  7  1  0
 15 13  1  0
 16 15  2  0
 17 15  1  0
 18 19  1  6
 18 17  1  0
 19 20  1  0
 20 21  2  0
 20 24  1  0
 22 23  1  0
 22 18  1  0
 25 22  2  0
M  END
$$$$
