IMD.pdb
     RDKit          3D

 25 24  0  0  1  0  0  0  0  0999 V2000
   26.5074  -18.9533  -17.8497 C   0  0  0  0  0  0  0  0  0  0  0  0
   27.3160  -19.2797  -16.6479 C   0  0  0  0  0  0  0  0  0  0  0  0
   26.5319  -19.8422  -15.5038 C   0  0  2  0  0  0  0  0  0  0  0  0
   25.4331  -18.8483  -15.1100 C   0  0  0  0  0  0  0  0  0  0  0  0
   27.3219  -20.2420  -14.2929 C   0  0  2  0  0  0  0  0  0  0  0  0
   28.2374  -21.3178  -14.7697 N   0  0  0  0  0  0  0  0  0  0  0  0
   26.5715  -20.7118  -13.1374 C   0  0  0  0  0  0  0  0  0  0  0  0
   26.1014  -21.9134  -13.0870 O   0  0  0  0  0  0  0  0  0  0  0  0
   25.9007  -20.5970   -5.4314 C   0  0  0  0  0  0  0  0  0  0  0  0
   26.6046  -19.8573   -6.9306 S   0  0  0  0  0  0  0  0  0  0  0  0
   25.6157  -20.4778   -8.3549 C   0  0  0  0  0  0  0  0  0  0  0  0
   26.2688  -20.0041   -9.6120 C   0  0  0  0  0  0  0  0  0  0  0  0
   25.5501  -20.5375  -10.8460 C   0  0  2  0  0  0  0  0  0  0  0  0
   26.2880  -19.9415  -11.9864 N   0  0  0  0  0  0  0  0  0  0  0  0
   24.1243  -20.2827  -10.8801 C   0  0  0  0  0  0  0  0  0  0  0  0
   23.6521  -19.1355  -11.0764 O   0  0  0  0  0  0  0  0  0  0  0  0
   23.1704  -21.3190  -10.6940 N   0  0  0  0  0  0  0  0  0  0  0  0
   21.7277  -21.0382  -10.7576 C   0  0  1  0  0  0  0  0  0  0  0  0
   21.0745  -22.0491  -11.6584 C   0  0  0  0  0  0  0  0  0  0  0  0
   19.6146  -21.9718  -11.7185 C   0  0  0  0  0  0  0  0  0  0  0  0
   19.0033  -21.0701  -11.0928 O   0  0  0  0  0  0  0  0  0  0  0  0
   21.1358  -20.9873   -9.4150 C   0  0  0  0  0  0  0  0  0  0  0  0
   19.8156  -20.5873   -9.2790 O   0  0  0  0  0  0  0  0  0  0  0  0
   18.8620  -22.8722  -12.4536 O   0  0  0  0  0  0  0  0  0  0  0  0
   21.7653  -21.2878   -8.3824 O   0  0  0  0  0  0  0  0  0  0  0  0
  1  2  1  0
  2  3  1  0
  3  4  1  1
  3  5  1  0
  5  7  1  0
  5  6  1  6
  7  8  2  0
  9 10  1  0
 10 11  1  0
 11 12  1  0
 13 12  1  1
 14 13  1  0
 14  7  1  0
 15 13  1  0
 16 15  2  0
 17 15  1  0
 18 19  1  6
 18 17  1  0
 19 20  1  0
 20 21  2  0
 20 24  1  0
 22 23  1  0
 22 18  1  0
 25 22  2  0
M  END
$$$$
