IMD.pdb
     RDKit          3D

 25 24  0  0  1  0  0  0  0  0999 V2000
   22.8843   -8.6284  -24.0359 C   0  0  0  0  0  0  0  0  0  0  0  0
   23.2389   -9.6943  -23.0649 C   0  0  0  0  0  0  0  0  0  0  0  0
   22.7803   -9.4377  -21.6636 C   0  0  2  0  0  0  0  0  0  0  0  0
   23.3812   -8.1158  -21.1717 C   0  0  0  0  0  0  0  0  0  0  0  0
   23.0507  -10.5272  -20.6686 C   0  0  2  0  0  0  0  0  0  0  0  0
   22.2898  -11.7058  -21.1735 N   0  0  0  0  0  0  0  0  0  0  0  0
   22.6878  -10.2649  -19.2835 C   0  0  0  0  0  0  0  0  0  0  0  0
   21.4549  -10.2757  -18.9001 O   0  0  0  0  0  0  0  0  0  0  0  0
   25.9050  -13.0369  -14.5858 C   0  0  0  0  0  0  0  0  0  0  0  0
   25.2191  -12.9458  -16.2626 S   0  0  0  0  0  0  0  0  0  0  0  0
   23.6379  -12.0084  -16.1495 C   0  0  0  0  0  0  0  0  0  0  0  0
   23.9696  -10.5632  -15.9692 C   0  0  0  0  0  0  0  0  0  0  0  0
   23.1188   -9.6811  -16.8757 C   0  0  2  0  0  0  0  0  0  0  0  0
   23.6041   -9.9853  -18.2439 N   0  0  0  0  0  0  0  0  0  0  0  0
   23.1430   -8.2693  -16.5514 C   0  0  0  0  0  0  0  0  0  0  0  0
   24.0885   -7.5177  -16.8960 O   0  0  0  0  0  0  0  0  0  0  0  0
   22.0943   -7.6469  -15.8223 N   0  0  0  0  0  0  0  0  0  0  0  0
   22.2070   -6.2476  -15.3825 C   0  0  1  0  0  0  0  0  0  0  0  0
   21.2500   -5.4078  -16.1817 C   0  0  0  0  0  0  0  0  0  0  0  0
   21.3069   -3.9722  -15.9046 C   0  0  0  0  0  0  0  0  0  0  0  0
   22.1158   -3.5245  -15.0539 O   0  0  0  0  0  0  0  0  0  0  0  0
   22.0137   -6.1285  -13.9319 C   0  0  0  0  0  0  0  0  0  0  0  0
   21.6604   -7.2563  -13.2077 O   0  0  0  0  0  0  0  0  0  0  0  0
   20.4872   -3.0663  -16.5562 O   0  0  0  0  0  0  0  0  0  0  0  0
   22.1523   -5.0557  -13.3132 O   0  0  0  0  0  0  0  0  0  0  0  0
  1  2  1  0
  2  3  1  0
  3  4  1  1
  3  5  1  0
  5  7  1  0
  5  6  1  6
  7  8  2  0
  9 10  1  0
 10 11  1  0
 11 12  1  0
 13 12  1  1
 14 13  1  0
 14  7  1  0
 15 13  1  0
 16 15  2  0
 17 15  1  0
 18 19  1  6
 18 17  1  0
 19 20  1  0
 20 21  2  0
 20 24  1  0
 22 23  1  0
 22 18  1  0
 25 22  2  0
M  END
$$$$
