IMD.pdb
     RDKit          3D

 25 24  0  0  1  0  0  0  0  0999 V2000
   18.3067  -14.3067  -19.0783 C   0  0  0  0  0  0  0  0  0  0  0  0
   19.1904  -13.1825  -19.4784 C   0  0  0  0  0  0  0  0  0  0  0  0
   19.8763  -12.4942  -18.3400 C   0  0  2  0  0  0  0  0  0  0  0  0
   18.8242  -12.0229  -17.3295 C   0  0  0  0  0  0  0  0  0  0  0  0
   20.7847  -11.3574  -18.7045 C   0  0  2  0  0  0  0  0  0  0  0  0
   21.7468  -11.9344  -19.6866 N   0  0  0  0  0  0  0  0  0  0  0  0
   21.5145  -10.7181  -17.6193 C   0  0  0  0  0  0  0  0  0  0  0  0
   20.8965  -10.1860  -16.6182 O   0  0  0  0  0  0  0  0  0  0  0  0
   27.1520  -12.4623  -15.0034 C   0  0  0  0  0  0  0  0  0  0  0  0
   27.4210  -10.6804  -15.2102 S   0  0  0  0  0  0  0  0  0  0  0  0
   25.7615   -9.8820  -15.2297 C   0  0  0  0  0  0  0  0  0  0  0  0
   24.9712  -10.4864  -16.3438 C   0  0  0  0  0  0  0  0  0  0  0  0
   23.5602   -9.9121  -16.3988 C   0  0  2  0  0  0  0  0  0  0  0  0
   22.9221  -10.6154  -17.5382 N   0  0  0  0  0  0  0  0  0  0  0  0
   23.4920   -8.4682  -16.4958 C   0  0  0  0  0  0  0  0  0  0  0  0
   23.8576   -7.8468  -17.5243 O   0  0  0  0  0  0  0  0  0  0  0  0
   23.0046   -7.6649  -15.4301 N   0  0  0  0  0  0  0  0  0  0  0  0
   22.8329   -6.2132  -15.5957 C   0  0  1  0  0  0  0  0  0  0  0  0
   21.8909   -5.9621  -16.7400 C   0  0  0  0  0  0  0  0  0  0  0  0
   21.6908   -4.5527  -17.0785 C   0  0  0  0  0  0  0  0  0  0  0  0
   22.3590   -3.6621  -16.4964 O   0  0  0  0  0  0  0  0  0  0  0  0
   22.4055   -5.5814  -14.3412 C   0  0  0  0  0  0  0  0  0  0  0  0
   22.1776   -6.3804  -13.2317 O   0  0  0  0  0  0  0  0  0  0  0  0
   20.7747   -4.1511  -18.0358 O   0  0  0  0  0  0  0  0  0  0  0  0
   22.2357   -4.3526  -14.2220 O   0  0  0  0  0  0  0  0  0  0  0  0
  1  2  1  0
  2  3  1  0
  3  4  1  1
  3  5  1  0
  5  7  1  0
  5  6  1  6
  7  8  2  0
  9 10  1  0
 10 11  1  0
 11 12  1  0
 13 12  1  6
 14 13  1  0
 14  7  1  0
 15 13  1  0
 16 15  2  0
 17 15  1  0
 18 19  1  6
 18 17  1  0
 19 20  1  0
 20 21  2  0
 20 24  1  0
 22 23  1  0
 22 18  1  0
 25 22  2  0
M  END
$$$$
