LYL.pdb
     RDKit          3D

 29 29  0  0  1  0  0  0  0  0999 V2000
    7.0780  -20.8203   19.7542 C   0  0  0  0  0  0  0  0  0  0  0  0
    6.8552  -19.4415   19.1800 C   0  0  2  0  0  0  0  0  0  0  0  0
    6.8167  -19.4568   17.6747 C   0  0  0  0  0  0  0  0  0  0  0  0
    7.8670  -18.4405   19.6411 C   0  0  0  0  0  0  0  0  0  0  0  0
    7.9798  -18.3106   21.1246 C   0  0  2  0  0  0  0  0  0  0  0  0
    6.6590  -18.0671   21.6817 N   0  0  0  0  0  0  0  0  0  0  0  0
    8.9080  -17.1927   21.4322 C   0  0  0  0  0  0  0  0  0  0  0  0
   10.1011  -17.2791   21.0425 O   0  0  0  0  0  0  0  0  0  0  0  0
    8.1309  -13.4727   16.2888 O   0  0  0  0  0  0  0  0  0  0  0  0
    8.2382  -13.5288   17.6778 C   0  0  0  0  0  0  0  0  0  0  0  0
    9.4622  -13.4788   18.3096 C   0  0  0  0  0  0  0  0  0  0  0  0
    9.5615  -13.5346   19.6842 C   0  0  0  0  0  0  0  0  0  0  0  0
    8.4507  -13.6427   20.4997 C   0  0  0  0  0  0  0  0  0  0  0  0
    8.6049  -13.7034   21.9686 C   0  0  0  0  0  0  0  0  0  0  0  0
    9.3035  -14.9340   22.4758 C   0  0  2  0  0  0  0  0  0  0  0  0
    8.4517  -16.0580   22.1491 N   0  0  0  0  0  0  0  0  0  0  0  0
    9.5185  -14.9175   23.9460 C   0  0  0  0  0  0  0  0  0  0  0  0
   10.4908  -14.2856   24.4150 O   0  0  0  0  0  0  0  0  0  0  0  0
    7.2255  -13.6929   19.8672 C   0  0  0  0  0  0  0  0  0  0  0  0
    7.1207  -13.6367   18.4787 C   0  0  0  0  0  0  0  0  0  0  0  0
    5.8861  -12.8077   26.5146 C   0  0  0  0  0  0  0  0  0  0  0  0
    7.2769  -13.2756   26.3029 C   0  0  1  0  0  0  0  0  0  0  0  0
    8.2984  -12.3380   26.9487 C   0  0  0  0  0  0  0  0  0  0  0  0
    7.5334  -14.6715   26.6602 C   0  0  0  0  0  0  0  0  0  0  0  0
    8.7922  -15.3548   26.2847 C   0  0  2  0  0  0  0  0  0  0  0  0
    8.6541  -15.5957   24.8195 N   0  0  0  0  0  0  0  0  0  0  0  0
    9.0768  -16.6715   26.8414 C   0  0  0  0  0  0  0  0  0  0  0  0
    9.2456  -17.7855   26.0499 O   0  0  0  0  0  0  0  0  0  0  0  0
    9.1826  -16.8866   28.0990 O   0  0  0  0  0  0  0  0  0  0  0  0
  2  1  1  6
  2  4  1  0
  3  2  1  0
  5  4  1  0
  5  6  1  1
  7  5  1  0
  7  8  2  0
  9 10  1  0
 10 20  2  0
 10 11  1  0
 11 12  2  0
 12 13  1  0
 13 14  1  0
 15 14  1  1
 15 16  1  0
 15 17  1  0
 16  7  1  0
 17 18  2  0
 19 13  2  0
 20 19  1  0
 22 21  1  1
 22 24  1  0
 23 22  1  0
 25 24  1  1
 25 27  1  0
 26 17  1  0
 26 25  1  0
 27 29  2  0
 27 28  1  0
M  END
$$$$
