LYL.pdb
     RDKit          3D

 29 29  0  0  1  0  0  0  0  0999 V2000
    9.6296  -13.6236   18.5831 C   0  0  0  0  0  0  0  0  0  0  0  0
    8.1994  -13.4944   19.0503 C   0  0  2  0  0  0  0  0  0  0  0  0
    7.7785  -12.0550   19.1872 C   0  0  0  0  0  0  0  0  0  0  0  0
    7.9314  -14.2148   20.3339 C   0  0  0  0  0  0  0  0  0  0  0  0
    8.3402  -15.6512   20.3362 C   0  0  2  0  0  0  0  0  0  0  0  0
    7.3825  -16.4187   19.5564 N   0  0  0  0  0  0  0  0  0  0  0  0
    8.3922  -16.1257   21.7427 C   0  0  0  0  0  0  0  0  0  0  0  0
    7.3082  -16.3173   22.3517 O   0  0  0  0  0  0  0  0  0  0  0  0
   12.0602  -20.3104   28.7067 O   0  0  0  0  0  0  0  0  0  0  0  0
   11.8123  -19.6693   27.4937 C   0  0  0  0  0  0  0  0  0  0  0  0
   10.7894  -20.0704   26.6613 C   0  0  0  0  0  0  0  0  0  0  0  0
   10.5494  -19.4318   25.4625 C   0  0  0  0  0  0  0  0  0  0  0  0
   11.3127  -18.3634   25.0306 C   0  0  0  0  0  0  0  0  0  0  0  0
   11.0217  -17.7118   23.7361 C   0  0  0  0  0  0  0  0  0  0  0  0
    9.7587  -16.8969   23.7138 C   0  0  2  0  0  0  0  0  0  0  0  0
    9.6393  -16.3549   22.3768 N   0  0  0  0  0  0  0  0  0  0  0  0
    9.7766  -15.7682   24.6800 C   0  0  0  0  0  0  0  0  0  0  0  0
   10.5554  -14.8088   24.4857 O   0  0  0  0  0  0  0  0  0  0  0  0
   12.3367  -17.9621   25.8638 C   0  0  0  0  0  0  0  0  0  0  0  0
   12.5826  -18.6044   27.0759 C   0  0  0  0  0  0  0  0  0  0  0  0
    5.6497  -12.8762   26.5077 C   0  0  0  0  0  0  0  0  0  0  0  0
    7.0516  -13.2095   26.1588 C   0  0  1  0  0  0  0  0  0  0  0  0
    7.9096  -11.9552   25.9850 C   0  0  0  0  0  0  0  0  0  0  0  0
    7.7037  -14.1851   27.0335 C   0  0  0  0  0  0  0  0  0  0  0  0
    9.0897  -14.6467   26.7915 C   0  0  2  0  0  0  0  0  0  0  0  0
    8.9386  -15.7556   25.8059 N   0  0  0  0  0  0  0  0  0  0  0  0
    9.8405  -15.2409   27.8906 C   0  0  0  0  0  0  0  0  0  0  0  0
   10.6146  -14.4890   28.7457 O   0  0  0  0  0  0  0  0  0  0  0  0
    9.8394  -16.4978   28.1338 O   0  0  0  0  0  0  0  0  0  0  0  0
  2  1  1  1
  2  4  1  0
  3  2  1  0
  5  4  1  0
  5  6  1  6
  7  5  1  0
  7  8  2  0
  9 10  1  0
 10 20  2  0
 10 11  1  0
 11 12  2  0
 12 13  1  0
 13 14  1  0
 15 14  1  6
 15 16  1  0
 15 17  1  0
 16  7  1  0
 17 18  2  0
 19 13  2  0
 20 19  1  0
 22 21  1  1
 22 24  1  0
 23 22  1  0
 25 24  1  1
 25 27  1  0
 26 17  1  0
 26 25  1  0
 27 29  2  0
 27 28  1  0
M  END
$$$$
