LYL.pdb
     RDKit          3D

 29 29  0  0  1  0  0  0  0  0999 V2000
    7.6875  -13.3826   19.0037 C   0  0  0  0  0  0  0  0  0  0  0  0
    9.1239  -13.4685   19.4618 C   0  0  2  0  0  0  0  0  0  0  0  0
   10.0804  -12.9541   18.4186 C   0  0  0  0  0  0  0  0  0  0  0  0
    9.5304  -14.8489   19.8713 C   0  0  0  0  0  0  0  0  0  0  0  0
    8.6707  -15.4609   20.9281 C   0  0  2  0  0  0  0  0  0  0  0  0
    7.7104  -14.4719   21.3906 N   0  0  0  0  0  0  0  0  0  0  0  0
    9.5429  -15.9240   22.0375 C   0  0  0  0  0  0  0  0  0  0  0  0
   10.3012  -16.9071   21.8342 O   0  0  0  0  0  0  0  0  0  0  0  0
   12.2486  -15.8116   30.5996 O   0  0  0  0  0  0  0  0  0  0  0  0
   11.9440  -15.5964   29.2561 C   0  0  0  0  0  0  0  0  0  0  0  0
   11.3069  -14.4487   28.8356 C   0  0  0  0  0  0  0  0  0  0  0  0
   11.0085  -14.2418   27.5049 C   0  0  0  0  0  0  0  0  0  0  0  0
   11.3278  -15.1639   26.5258 C   0  0  0  0  0  0  0  0  0  0  0  0
   10.9849  -14.9019   25.1121 C   0  0  0  0  0  0  0  0  0  0  0  0
   10.0062  -15.8732   24.5134 C   0  0  2  0  0  0  0  0  0  0  0  0
    9.5152  -15.2675   23.2938 N   0  0  0  0  0  0  0  0  0  0  0  0
    8.8472  -16.1532   25.4001 C   0  0  0  0  0  0  0  0  0  0  0  0
    9.0088  -16.8756   26.4085 O   0  0  0  0  0  0  0  0  0  0  0  0
   11.9654  -16.3127   26.9470 C   0  0  0  0  0  0  0  0  0  0  0  0
   12.2688  -16.5257   28.2904 C   0  0  0  0  0  0  0  0  0  0  0  0
    7.5579  -13.4620   27.0922 C   0  0  0  0  0  0  0  0  0  0  0  0
    6.0897  -13.6294   26.9723 C   0  0  1  0  0  0  0  0  0  0  0  0
    5.3994  -12.3289   26.5579 C   0  0  0  0  0  0  0  0  0  0  0  0
    5.6492  -14.7542   26.1458 C   0  0  0  0  0  0  0  0  0  0  0  0
    6.4458  -15.9970   26.0303 C   0  0  2  0  0  0  0  0  0  0  0  0
    7.5751  -15.6247   25.1303 N   0  0  0  0  0  0  0  0  0  0  0  0
    5.8482  -17.1649   25.3949 C   0  0  0  0  0  0  0  0  0  0  0  0
    4.9393  -17.9717   26.0421 O   0  0  0  0  0  0  0  0  0  0  0  0
    6.1294  -17.5260   24.1993 O   0  0  0  0  0  0  0  0  0  0  0  0
  2  1  1  6
  2  4  1  0
  3  2  1  0
  5  4  1  0
  5  6  1  1
  7  5  1  0
  7  8  2  0
  9 10  1  0
 10 20  2  0
 10 11  1  0
 11 12  2  0
 12 13  1  0
 13 14  1  0
 15 14  1  1
 15 16  1  0
 15 17  1  0
 16  7  1  0
 17 18  2  0
 19 13  2  0
 20 19  1  0
 22 21  1  6
 22 24  1  0
 23 22  1  0
 25 24  1  6
 25 27  1  0
 26 17  1  0
 26 25  1  0
 27 29  2  0
 27 28  1  0
M  END
$$$$
