LYL.pdb
     RDKit          3D

 29 29  0  0  1  0  0  0  0  0999 V2000
    8.6786  -13.3189   18.5519 C   0  0  0  0  0  0  0  0  0  0  0  0
    7.5735  -13.7027   19.5068 C   0  0  2  0  0  0  0  0  0  0  0  0
    6.9023  -12.4957   20.1072 C   0  0  0  0  0  0  0  0  0  0  0  0
    8.0309  -14.6133   20.6022 C   0  0  0  0  0  0  0  0  0  0  0  0
    8.7616  -15.8287   20.1340 C   0  0  2  0  0  0  0  0  0  0  0  0
    7.8826  -16.6120   19.2808 N   0  0  0  0  0  0  0  0  0  0  0  0
    9.1928  -16.6083   21.3225 C   0  0  0  0  0  0  0  0  0  0  0  0
    8.5374  -17.6352   21.6364 O   0  0  0  0  0  0  0  0  0  0  0  0
   14.5958  -20.1302   18.9971 O   0  0  0  0  0  0  0  0  0  0  0  0
   14.0379  -19.3482   20.0077 C   0  0  0  0  0  0  0  0  0  0  0  0
   14.0602  -17.9712   19.9501 C   0  0  0  0  0  0  0  0  0  0  0  0
   13.5064  -17.2033   20.9532 C   0  0  0  0  0  0  0  0  0  0  0  0
   12.9030  -17.7642   22.0631 C   0  0  0  0  0  0  0  0  0  0  0  0
   12.3260  -16.9020   23.1160 C   0  0  0  0  0  0  0  0  0  0  0  0
   10.8264  -16.9455   23.2106 C   0  0  2  0  0  0  0  0  0  0  0  0
   10.3184  -16.1974   22.0802 N   0  0  0  0  0  0  0  0  0  0  0  0
   10.3033  -16.3287   24.4572 C   0  0  0  0  0  0  0  0  0  0  0  0
   10.7823  -16.6761   25.5593 O   0  0  0  0  0  0  0  0  0  0  0  0
   12.8808  -19.1427   22.1207 C   0  0  0  0  0  0  0  0  0  0  0  0
   13.4391  -19.9222   21.1095 C   0  0  0  0  0  0  0  0  0  0  0  0
    8.0782  -12.2488   27.3356 C   0  0  0  0  0  0  0  0  0  0  0  0
    7.1873  -12.9422   26.3746 C   0  0  1  0  0  0  0  0  0  0  0  0
    6.1737  -11.9857   25.7444 C   0  0  0  0  0  0  0  0  0  0  0  0
    7.8637  -13.7488   25.3577 C   0  0  0  0  0  0  0  0  0  0  0  0
    8.6622  -14.9440   25.7133 C   0  0  2  0  0  0  0  0  0  0  0  0
    9.2833  -15.3650   24.4245 N   0  0  0  0  0  0  0  0  0  0  0  0
    7.9759  -16.1383   26.1900 C   0  0  0  0  0  0  0  0  0  0  0  0
    8.1005  -16.5929   27.4837 O   0  0  0  0  0  0  0  0  0  0  0  0
    7.2183  -16.8498   25.4424 O   0  0  0  0  0  0  0  0  0  0  0  0
  2  1  1  1
  2  4  1  0
  3  2  1  0
  5  4  1  0
  5  6  1  6
  7  5  1  0
  7  8  2  0
  9 10  1  0
 10 20  2  0
 10 11  1  0
 11 12  2  0
 12 13  1  0
 13 14  1  0
 15 14  1  1
 15 16  1  0
 15 17  1  0
 16  7  1  0
 17 18  2  0
 19 13  2  0
 20 19  1  0
 22 21  1  6
 22 24  1  0
 23 22  1  0
 25 24  1  6
 25 27  1  0
 26 17  1  0
 26 25  1  0
 27 29  2  0
 27 28  1  0
M  END
$$$$
