LYL.pdb
     RDKit          3D

 29 29  0  0  1  0  0  0  0  0999 V2000
    5.1856  -20.6783   23.2716 C   0  0  0  0  0  0  0  0  0  0  0  0
    6.5059  -20.6797   24.0045 C   0  0  2  0  0  0  0  0  0  0  0  0
    6.3261  -20.8456   25.4904 C   0  0  0  0  0  0  0  0  0  0  0  0
    7.3299  -19.4599   23.7367 C   0  0  0  0  0  0  0  0  0  0  0  0
    7.4638  -19.1066   22.2919 C   0  0  2  0  0  0  0  0  0  0  0  0
    8.0323  -20.2381   21.5772 N   0  0  0  0  0  0  0  0  0  0  0  0
    8.3314  -17.9066   22.1770 C   0  0  0  0  0  0  0  0  0  0  0  0
    9.5785  -18.0690   22.1425 O   0  0  0  0  0  0  0  0  0  0  0  0
    7.9831  -14.2877   15.6582 O   0  0  0  0  0  0  0  0  0  0  0  0
    7.9128  -14.3163   17.0505 C   0  0  0  0  0  0  0  0  0  0  0  0
    7.6629  -13.1762   17.7838 C   0  0  0  0  0  0  0  0  0  0  0  0
    7.5946  -13.2112   19.1610 C   0  0  0  0  0  0  0  0  0  0  0  0
    7.7709  -14.3796   19.8784 C   0  0  0  0  0  0  0  0  0  0  0  0
    7.6931  -14.3693   21.3545 C   0  0  0  0  0  0  0  0  0  0  0  0
    8.5490  -15.4007   22.0351 C   0  0  2  0  0  0  0  0  0  0  0  0
    7.7590  -16.6114   22.1084 N   0  0  0  0  0  0  0  0  0  0  0  0
    8.9443  -15.0118   23.4137 C   0  0  0  0  0  0  0  0  0  0  0  0
   10.1085  -14.6058   23.6249 O   0  0  0  0  0  0  0  0  0  0  0  0
    8.0212  -15.5206   19.1442 C   0  0  0  0  0  0  0  0  0  0  0  0
    8.0910  -15.4897   17.7527 C   0  0  0  0  0  0  0  0  0  0  0  0
    8.2755  -12.4203   27.8778 C   0  0  0  0  0  0  0  0  0  0  0  0
    6.9816  -12.8285   27.2802 C   0  0  1  0  0  0  0  0  0  0  0  0
    6.1120  -11.6217   26.9239 C   0  0  0  0  0  0  0  0  0  0  0  0
    7.0726  -13.7692   26.1626 C   0  0  0  0  0  0  0  0  0  0  0  0
    8.3637  -14.3607   25.7434 C   0  0  2  0  0  0  0  0  0  0  0  0
    8.0394  -15.0904   24.4839 N   0  0  0  0  0  0  0  0  0  0  0  0
    8.9907  -15.3666   26.5917 C   0  0  0  0  0  0  0  0  0  0  0  0
   10.0389  -15.0707   27.4341 O   0  0  0  0  0  0  0  0  0  0  0  0
    8.6186  -16.5915   26.6089 O   0  0  0  0  0  0  0  0  0  0  0  0
  2  1  1  6
  2  4  1  0
  3  2  1  0
  5  4  1  0
  5  6  1  6
  7  5  1  0
  7  8  2  0
  9 10  1  0
 10 20  2  0
 10 11  1  0
 11 12  2  0
 12 13  1  0
 13 14  1  0
 15 14  1  1
 15 16  1  0
 15 17  1  0
 16  7  1  0
 17 18  2  0
 19 13  2  0
 20 19  1  0
 22 21  1  6
 22 24  1  0
 23 22  1  0
 25 24  1  1
 25 27  1  0
 26 17  1  0
 26 25  1  0
 27 29  2  0
 27 28  1  0
M  END
$$$$
