LYL.pdb
     RDKit          3D

 29 29  0  0  1  0  0  0  0  0999 V2000
    9.6588  -13.4801   18.8973 C   0  0  0  0  0  0  0  0  0  0  0  0
    8.1824  -13.5329   19.2103 C   0  0  2  0  0  0  0  0  0  0  0  0
    7.5883  -12.1574   19.3615 C   0  0  0  0  0  0  0  0  0  0  0  0
    7.8662  -14.3471   20.4250 C   0  0  0  0  0  0  0  0  0  0  0  0
    8.5107  -15.6940   20.4540 C   0  0  2  0  0  0  0  0  0  0  0  0
    7.8125  -16.5744   19.5312 N   0  0  0  0  0  0  0  0  0  0  0  0
    8.4530  -16.2159   21.8434 C   0  0  0  0  0  0  0  0  0  0  0  0
    7.3425  -16.5963   22.2958 O   0  0  0  0  0  0  0  0  0  0  0  0
   11.8870  -19.4477   29.4575 O   0  0  0  0  0  0  0  0  0  0  0  0
   11.6243  -19.0078   28.1608 C   0  0  0  0  0  0  0  0  0  0  0  0
   12.5432  -18.2654   27.4506 C   0  0  0  0  0  0  0  0  0  0  0  0
   12.2772  -17.8333   26.1680 C   0  0  0  0  0  0  0  0  0  0  0  0
   11.0858  -18.1169   25.5268 C   0  0  0  0  0  0  0  0  0  0  0  0
   10.8421  -17.6296   24.1527 C   0  0  0  0  0  0  0  0  0  0  0  0
    9.6332  -16.7485   24.0046 C   0  0  2  0  0  0  0  0  0  0  0  0
    9.6275  -16.2802   22.6349 N   0  0  0  0  0  0  0  0  0  0  0  0
    9.6592  -15.5676   24.9062 C   0  0  0  0  0  0  0  0  0  0  0  0
   10.4998  -14.6632   24.7058 O   0  0  0  0  0  0  0  0  0  0  0  0
   10.1660  -18.8599   26.2379 C   0  0  0  0  0  0  0  0  0  0  0  0
   10.4308  -19.2985   27.5339 C   0  0  0  0  0  0  0  0  0  0  0  0
    5.4841  -12.6674   26.6880 C   0  0  0  0  0  0  0  0  0  0  0  0
    6.8684  -13.0200   26.2913 C   0  0  1  0  0  0  0  0  0  0  0  0
    7.6755  -11.7872   25.8811 C   0  0  0  0  0  0  0  0  0  0  0  0
    7.6064  -13.8471   27.2470 C   0  0  0  0  0  0  0  0  0  0  0  0
    8.9718  -14.3427   26.9593 C   0  0  2  0  0  0  0  0  0  0  0  0
    8.7608  -15.4454   25.9777 N   0  0  0  0  0  0  0  0  0  0  0  0
    9.7429  -14.9577   28.0324 C   0  0  0  0  0  0  0  0  0  0  0  0
   10.5977  -14.2344   28.8337 O   0  0  0  0  0  0  0  0  0  0  0  0
    9.6863  -16.2083   28.3007 O   0  0  0  0  0  0  0  0  0  0  0  0
  2  1  1  1
  2  4  1  0
  3  2  1  0
  5  4  1  0
  5  6  1  6
  7  5  1  0
  7  8  2  0
  9 10  1  0
 10 20  2  0
 10 11  1  0
 11 12  2  0
 12 13  1  0
 13 14  1  0
 15 14  1  6
 15 16  1  0
 15 17  1  0
 16  7  1  0
 17 18  2  0
 19 13  2  0
 20 19  1  0
 22 21  1  1
 22 24  1  0
 23 22  1  0
 25 24  1  1
 25 27  1  0
 26 17  1  0
 26 25  1  0
 27 29  2  0
 27 28  1  0
M  END
$$$$
