LYL.pdb
     RDKit          3D

 29 29  0  0  1  0  0  0  0  0999 V2000
    9.6781  -13.0781   18.7368 C   0  0  0  0  0  0  0  0  0  0  0  0
    8.1998  -13.2742   18.9752 C   0  0  2  0  0  0  0  0  0  0  0  0
    7.4914  -11.9698   19.2288 C   0  0  0  0  0  0  0  0  0  0  0  0
    7.9040  -14.2256   20.0914 C   0  0  0  0  0  0  0  0  0  0  0  0
    8.6504  -15.5171   20.0199 C   0  0  2  0  0  0  0  0  0  0  0  0
    8.0524  -16.3548   18.9928 N   0  0  0  0  0  0  0  0  0  0  0  0
    8.5899  -16.1725   21.3514 C   0  0  0  0  0  0  0  0  0  0  0  0
    7.5147  -16.7249   21.6999 O   0  0  0  0  0  0  0  0  0  0  0  0
   10.8307  -22.2359   19.9674 O   0  0  0  0  0  0  0  0  0  0  0  0
   10.8683  -21.1356   20.8230 C   0  0  0  0  0  0  0  0  0  0  0  0
   11.6079  -20.0122   20.5216 C   0  0  0  0  0  0  0  0  0  0  0  0
   11.6408  -18.9269   21.3723 C   0  0  0  0  0  0  0  0  0  0  0  0
   10.9413  -18.9031   22.5643 C   0  0  0  0  0  0  0  0  0  0  0  0
   11.0091  -17.7196   23.4473 C   0  0  0  0  0  0  0  0  0  0  0  0
    9.7634  -16.8785   23.4660 C   0  0  2  0  0  0  0  0  0  0  0  0
    9.7226  -16.1708   22.2040 N   0  0  0  0  0  0  0  0  0  0  0  0
    9.7510  -15.8803   24.5667 C   0  0  0  0  0  0  0  0  0  0  0  0
   10.7560  -15.1581   24.7489 O   0  0  0  0  0  0  0  0  0  0  0  0
   10.2011  -20.0278   22.8659 C   0  0  0  0  0  0  0  0  0  0  0  0
   10.1650  -21.1264   22.0092 C   0  0  0  0  0  0  0  0  0  0  0  0
    5.6364  -12.5806   26.1691 C   0  0  0  0  0  0  0  0  0  0  0  0
    7.0099  -13.0809   25.9218 C   0  0  1  0  0  0  0  0  0  0  0  0
    8.0460  -11.9575   25.9851 C   0  0  0  0  0  0  0  0  0  0  0  0
    7.4177  -14.2292   26.7326 C   0  0  0  0  0  0  0  0  0  0  0  0
    8.7585  -14.8429   26.5982 C   0  0  2  0  0  0  0  0  0  0  0  0
    8.6361  -15.7306   25.4061 N   0  0  0  0  0  0  0  0  0  0  0  0
    9.2442  -15.7223   27.6544 C   0  0  0  0  0  0  0  0  0  0  0  0
    9.9061  -15.2458   28.7637 O   0  0  0  0  0  0  0  0  0  0  0  0
    9.0970  -16.9937   27.6229 O   0  0  0  0  0  0  0  0  0  0  0  0
  2  1  1  1
  2  4  1  0
  3  2  1  0
  5  4  1  0
  5  6  1  6
  7  5  1  0
  7  8  2  0
  9 10  1  0
 10 20  2  0
 10 11  1  0
 11 12  2  0
 12 13  1  0
 13 14  1  0
 15 14  1  6
 15 16  1  0
 15 17  1  0
 16  7  1  0
 17 18  2  0
 19 13  2  0
 20 19  1  0
 22 21  1  1
 22 24  1  0
 23 22  1  0
 25 24  1  1
 25 27  1  0
 26 17  1  0
 26 25  1  0
 27 29  2  0
 27 28  1  0
M  END
$$$$
