LYL.pdb
     RDKit          3D

 29 29  0  0  1  0  0  0  0  0999 V2000
    9.5905  -12.6031   19.3392 C   0  0  0  0  0  0  0  0  0  0  0  0
    8.1287  -12.9198   19.1310 C   0  0  2  0  0  0  0  0  0  0  0  0
    7.2481  -11.7319   19.4155 C   0  0  0  0  0  0  0  0  0  0  0  0
    7.6590  -14.0907   19.9352 C   0  0  0  0  0  0  0  0  0  0  0  0
    8.5429  -15.2919   19.8567 C   0  0  2  0  0  0  0  0  0  0  0  0
    8.1163  -16.1232   18.7426 N   0  0  0  0  0  0  0  0  0  0  0  0
    8.4542  -16.0291   21.1431 C   0  0  0  0  0  0  0  0  0  0  0  0
    7.3491  -16.5336   21.4704 O   0  0  0  0  0  0  0  0  0  0  0  0
   11.4991  -21.3000   27.6031 O   0  0  0  0  0  0  0  0  0  0  0  0
   11.3016  -20.4798   26.4930 C   0  0  0  0  0  0  0  0  0  0  0  0
   12.2602  -19.5787   26.0819 C   0  0  0  0  0  0  0  0  0  0  0  0
   12.0586  -18.7702   24.9827 C   0  0  0  0  0  0  0  0  0  0  0  0
   10.8954  -18.8160   24.2373 C   0  0  0  0  0  0  0  0  0  0  0  0
   10.7210  -17.9276   23.0689 C   0  0  0  0  0  0  0  0  0  0  0  0
    9.5977  -16.9367   23.1963 C   0  0  2  0  0  0  0  0  0  0  0  0
    9.5936  -16.1565   21.9769 N   0  0  0  0  0  0  0  0  0  0  0  0
    9.7648  -16.0116   24.3470 C   0  0  0  0  0  0  0  0  0  0  0  0
   10.7630  -15.2588   24.3869 O   0  0  0  0  0  0  0  0  0  0  0  0
    9.9359  -19.7179   24.6490 C   0  0  0  0  0  0  0  0  0  0  0  0
   10.1355  -20.5367   25.7589 C   0  0  0  0  0  0  0  0  0  0  0  0
    6.0513  -12.8201   26.6730 C   0  0  0  0  0  0  0  0  0  0  0  0
    7.3725  -13.3292   26.2332 C   0  0  1  0  0  0  0  0  0  0  0  0
    8.4246  -12.2199   26.1876 C   0  0  0  0  0  0  0  0  0  0  0  0
    7.8664  -14.5039   26.9530 C   0  0  0  0  0  0  0  0  0  0  0  0
    9.1491  -15.1538   26.5994 C   0  0  2  0  0  0  0  0  0  0  0  0
    8.8266  -15.9645   25.3900 N   0  0  0  0  0  0  0  0  0  0  0  0
    9.7383  -16.1102   27.5282 C   0  0  0  0  0  0  0  0  0  0  0  0
   10.7542  -15.7682   28.3924 O   0  0  0  0  0  0  0  0  0  0  0  0
    9.3605  -17.3313   27.6016 O   0  0  0  0  0  0  0  0  0  0  0  0
  2  1  1  1
  2  4  1  0
  3  2  1  0
  5  4  1  0
  5  6  1  6
  7  5  1  0
  7  8  2  0
  9 10  1  0
 10 20  2  0
 10 11  1  0
 11 12  2  0
 12 13  1  0
 13 14  1  0
 15 14  1  6
 15 16  1  0
 15 17  1  0
 16  7  1  0
 17 18  2  0
 19 13  2  0
 20 19  1  0
 22 21  1  1
 22 24  1  0
 23 22  1  0
 25 24  1  1
 25 27  1  0
 26 17  1  0
 26 25  1  0
 27 29  2  0
 27 28  1  0
M  END
$$$$
