RLF.pdb
     RDKit          3D

 31 31  0  0  1  0  0  0  0  0999 V2000
   18.4793  -19.5002  -17.6556 N   0  0  0  0  0  0  0  0  0  0  0  0
   18.9329  -20.1495  -18.8283 C   0  0  0  0  0  0  0  0  0  0  0  0
   18.1504  -20.2335  -19.8379 N   0  0  0  0  0  0  0  0  0  0  0  0
   20.2549  -20.7162  -18.9012 N   0  0  0  0  0  0  0  0  0  0  0  0
   21.1371  -20.6183  -17.7758 C   0  0  0  0  0  0  0  0  0  0  0  0
   22.2615  -19.6184  -18.0742 C   0  0  0  0  0  0  0  0  0  0  0  0
   23.6004  -20.2281  -17.7940 C   0  0  0  0  0  0  0  0  0  0  0  0
   23.6997  -20.8812  -16.4420 C   0  0  2  0  0  0  0  0  0  0  0  0
   22.9858  -19.9849  -15.5131 N   0  0  0  0  0  0  0  0  0  0  0  0
   25.1121  -21.0338  -16.0021 C   0  0  0  0  0  0  0  0  0  0  0  0
   25.9824  -21.4982  -16.7522 O   0  0  0  0  0  0  0  0  0  0  0  0
   18.4836  -20.6588  -20.7120 C   0  0  0  0  0  0  0  0  0  0  0  0
   28.1286  -17.4982  -16.0789 C   0  0  2  0  0  0  0  0  0  0  0  0
   27.1224  -18.2156  -15.1192 C   0  0  0  0  0  0  0  0  0  0  0  0
   25.7725  -17.9749  -15.8120 C   0  0  0  0  0  0  0  0  0  0  0  0
   27.5343  -19.6373  -15.1057 C   0  0  1  0  0  0  0  0  0  0  0  0
   26.8685  -20.6143  -14.2261 N   0  0  0  0  0  0  0  0  0  0  0  0
   25.4507  -20.6324  -14.6908 C   0  0  0  0  0  0  0  0  0  0  0  0
   26.8370  -20.3742  -12.7833 O   0  0  0  0  0  0  0  0  0  0  0  0
   27.8918  -20.2843  -12.1257 N   0  0  0  0  0  0  0  0  0  0  0  0
   25.6039  -20.2316  -12.0504 C   0  0  1  0  0  0  0  0  0  0  0  0
   25.6836  -20.0213  -10.6382 C   0  0  0  0  0  0  0  0  0  0  0  0
   24.6858  -19.0474  -10.1058 C   0  0  0  0  0  0  0  0  0  0  0  0
   23.2808  -19.4449  -10.2255 C   0  0  0  0  0  0  0  0  0  0  0  0
   22.6669  -20.1924   -9.2513 C   0  0  0  0  0  0  0  0  0  0  0  0
   21.3339  -20.5834   -9.3236 C   0  0  0  0  0  0  0  0  0  0  0  0
   20.6154  -20.1870  -10.4387 C   0  0  0  0  0  0  0  0  0  0  0  0
   21.1816  -19.4496  -11.4224 C   0  0  0  0  0  0  0  0  0  0  0  0
   22.5263  -19.0710  -11.3226 C   0  0  0  0  0  0  0  0  0  0  0  0
   25.3506  -21.3380   -9.9755 O   0  0  0  0  0  0  0  0  0  0  0  0
   25.3751  -21.4226   -8.7143 O   0  0  0  0  0  0  0  0  0  0  0  0
  2  1  1  0
  2  3  2  0
  4  2  1  0
  5  4  1  0
  6  5  1  0
  7  6  1  0
  8  7  1  0
  8  9  1  1
 10  8  1  0
 10 11  2  0
 13 14  1  6
 13 12  1  0
 16 15  1  6
 15 13  1  0
 16 17  1  0
 17 10  1  0
 18 16  1  0
 19 18  2  0
 20 18  1  0
 21 22  1  1
 21 20  1  0
 22 23  1  0
 23 28  2  0
 24 25  2  0
 24 23  1  0
 25 26  1  0
 26 27  2  0
 28 27  1  0
 29 21  1  0
 30 29  2  0
 31 29  1  0
M  END
$$$$
