RLF.pdb
     RDKit          3D

 31 31  0  0  1  0  0  0  0  0999 V2000
   20.9581  -18.0635  -17.5563 N   0  0  0  0  0  0  0  0  0  0  0  0
   20.0689  -18.7345  -18.4292 C   0  0  0  0  0  0  0  0  0  0  0  0
   19.0021  -18.1395  -18.8120 N   0  0  0  0  0  0  0  0  0  0  0  0
   20.3444  -20.0712  -18.8888 N   0  0  0  0  0  0  0  0  0  0  0  0
   21.4122  -20.8236  -18.2987 C   0  0  0  0  0  0  0  0  0  0  0  0
   22.7617  -20.3364  -18.8415 C   0  0  0  0  0  0  0  0  0  0  0  0
   23.8702  -21.2363  -18.3897 C   0  0  0  0  0  0  0  0  0  0  0  0
   23.9271  -21.4288  -16.8984 C   0  0  2  0  0  0  0  0  0  0  0  0
   23.0223  -20.4114  -16.3306 N   0  0  0  0  0  0  0  0  0  0  0  0
   25.3009  -21.2285  -16.3652 C   0  0  0  0  0  0  0  0  0  0  0  0
   26.2337  -21.9876  -16.6643 O   0  0  0  0  0  0  0  0  0  0  0  0
   18.3420  -18.6198  -19.4361 C   0  0  0  0  0  0  0  0  0  0  0  0
   27.3484  -16.1134  -15.7198 C   0  0  1  0  0  0  0  0  0  0  0  0
   27.2617  -17.6098  -16.1685 C   0  0  0  0  0  0  0  0  0  0  0  0
   28.6656  -17.8692  -16.7356 C   0  0  0  0  0  0  0  0  0  0  0  0
   26.9717  -18.3759  -14.9355 C   0  0  2  0  0  0  0  0  0  0  0  0
   26.8880  -19.8469  -14.9555 N   0  0  0  0  0  0  0  0  0  0  0  0
   25.5283  -20.1380  -15.4968 C   0  0  0  0  0  0  0  0  0  0  0  0
   27.0104  -20.5885  -13.7003 O   0  0  0  0  0  0  0  0  0  0  0  0
   28.0662  -21.1825  -13.4077 N   0  0  0  0  0  0  0  0  0  0  0  0
   25.9339  -20.6750  -12.7456 C   0  0  1  0  0  0  0  0  0  0  0  0
   26.2696  -20.9115  -11.3758 C   0  0  0  0  0  0  0  0  0  0  0  0
   27.1139  -19.8467  -10.7585 C   0  0  0  0  0  0  0  0  0  0  0  0
   27.4683  -20.0503   -9.3515 C   0  0  0  0  0  0  0  0  0  0  0  0
   26.6125  -19.6857   -8.3419 C   0  0  0  0  0  0  0  0  0  0  0  0
   26.9080  -19.8690   -6.9950 C   0  0  0  0  0  0  0  0  0  0  0  0
   28.1268  -20.4482   -6.6854 C   0  0  0  0  0  0  0  0  0  0  0  0
   29.0000  -20.8224   -7.6495 C   0  0  0  0  0  0  0  0  0  0  0  0
   28.6754  -20.6249   -8.9975 C   0  0  0  0  0  0  0  0  0  0  0  0
   24.9758  -20.8994  -10.5949 O   0  0  0  0  0  0  0  0  0  0  0  0
   23.9822  -20.2626  -11.0485 O   0  0  0  0  0  0  0  0  0  0  0  0
  2  1  1  0
  2  3  2  0
  4  2  1  0
  5  4  1  0
  6  5  1  0
  7  6  1  0
  8  7  1  0
  8  9  1  1
 10  8  1  0
 10 11  2  0
 13 14  1  1
 13 12  1  0
 16 15  1  6
 15 13  1  0
 16 17  1  0
 17 10  1  0
 18 16  1  0
 19 18  2  0
 20 18  1  0
 21 22  1  1
 21 20  1  0
 22 23  1  0
 23 28  2  0
 24 25  2  0
 24 23  1  0
 25 26  1  0
 26 27  2  0
 28 27  1  0
 29 21  1  0
 30 29  2  0
 31 29  1  0
M  END
$$$$
