RLF.pdb
     RDKit          3D

 31 31  0  0  1  0  0  0  0  0999 V2000
   19.0737  -17.4995  -19.0615 N   0  0  0  0  0  0  0  0  0  0  0  0
   18.7963  -18.7728  -19.6132 C   0  0  0  0  0  0  0  0  0  0  0  0
   17.8749  -18.8840  -20.4948 N   0  0  0  0  0  0  0  0  0  0  0  0
   19.5304  -19.9400  -19.1974 N   0  0  0  0  0  0  0  0  0  0  0  0
   20.5718  -19.8181  -18.2201 C   0  0  0  0  0  0  0  0  0  0  0  0
   21.9278  -19.6422  -18.9154 C   0  0  0  0  0  0  0  0  0  0  0  0
   22.9955  -20.4060  -18.1946 C   0  0  0  0  0  0  0  0  0  0  0  0
   23.0211  -20.1608  -16.7102 C   0  0  2  0  0  0  0  0  0  0  0  0
   23.2551  -18.7133  -16.5494 N   0  0  0  0  0  0  0  0  0  0  0  0
   24.1110  -20.9200  -16.0413 C   0  0  0  0  0  0  0  0  0  0  0  0
   24.1970  -22.1531  -16.1308 O   0  0  0  0  0  0  0  0  0  0  0  0
   17.6472  -19.8065  -20.8862 C   0  0  0  0  0  0  0  0  0  0  0  0
   29.2248  -21.4860  -14.8069 C   0  0  2  0  0  0  0  0  0  0  0  0
   28.5657  -20.3821  -13.9153 C   0  0  0  0  0  0  0  0  0  0  0  0
   29.6124  -19.2581  -13.9491 C   0  0  0  0  0  0  0  0  0  0  0  0
   27.2985  -20.0299  -14.5945 C   0  0  1  0  0  0  0  0  0  0  0  0
   26.1115  -20.8966  -14.4881 N   0  0  0  0  0  0  0  0  0  0  0  0
   25.0641  -20.1982  -15.2891 C   0  0  0  0  0  0  0  0  0  0  0  0
   25.5313  -21.1582  -13.1708 O   0  0  0  0  0  0  0  0  0  0  0  0
   26.0157  -22.0257  -12.4184 N   0  0  0  0  0  0  0  0  0  0  0  0
   24.3836  -20.4405  -12.6755 C   0  0  1  0  0  0  0  0  0  0  0  0
   23.9651  -20.6904  -11.3311 C   0  0  0  0  0  0  0  0  0  0  0  0
   24.2403  -19.5696  -10.3847 C   0  0  0  0  0  0  0  0  0  0  0  0
   25.1562  -19.8762   -9.2830 C   0  0  0  0  0  0  0  0  0  0  0  0
   24.7207  -20.5268   -8.1553 C   0  0  0  0  0  0  0  0  0  0  0  0
   25.5594  -20.8430   -7.0914 C   0  0  0  0  0  0  0  0  0  0  0  0
   26.8895  -20.4743   -7.2001 C   0  0  0  0  0  0  0  0  0  0  0  0
   27.3606  -19.8315   -8.2941 C   0  0  0  0  0  0  0  0  0  0  0  0
   26.4924  -19.5257   -9.3497 C   0  0  0  0  0  0  0  0  0  0  0  0
   22.4609  -20.8335  -11.3554 O   0  0  0  0  0  0  0  0  0  0  0  0
   21.8413  -21.0649  -10.2780 O   0  0  0  0  0  0  0  0  0  0  0  0
  2  1  1  0
  2  3  2  0
  4  2  1  0
  5  4  1  0
  6  5  1  0
  7  6  1  0
  8  7  1  0
  8  9  1  6
 10  8  1  0
 10 11  2  0
 13 14  1  6
 13 12  1  0
 16 15  1  6
 15 13  1  0
 16 17  1  0
 17 10  1  0
 18 16  1  0
 19 18  2  0
 20 18  1  0
 21 22  1  1
 21 20  1  0
 22 23  1  0
 23 28  2  0
 24 25  2  0
 24 23  1  0
 25 26  1  0
 26 27  2  0
 28 27  1  0
 29 21  1  0
 30 29  2  0
 31 29  1  0
M  END
$$$$
