RLF.pdb
     RDKit          3D

 31 31  0  0  1  0  0  0  0  0999 V2000
   27.4957  -35.8385  -16.6807 N   0  0  0  0  0  0  0  0  0  0  0  0
   27.8052  -34.5000  -17.0203 C   0  0  0  0  0  0  0  0  0  0  0  0
   27.3563  -34.0141  -18.1162 N   0  0  0  0  0  0  0  0  0  0  0  0
   28.6157  -33.6813  -16.1561 N   0  0  0  0  0  0  0  0  0  0  0  0
   28.9920  -34.1652  -14.8604 C   0  0  0  0  0  0  0  0  0  0  0  0
   27.7401  -34.4488  -14.0207 C   0  0  0  0  0  0  0  0  0  0  0  0
   27.6577  -33.5079  -12.8584 C   0  0  0  0  0  0  0  0  0  0  0  0
   26.4276  -33.6941  -12.0120 C   0  0  2  0  0  0  0  0  0  0  0  0
   25.2960  -33.2588  -12.8522 N   0  0  0  0  0  0  0  0  0  0  0  0
   26.4761  -32.8708  -10.7744 C   0  0  0  0  0  0  0  0  0  0  0  0
   25.9716  -31.7400  -10.7231 O   0  0  0  0  0  0  0  0  0  0  0  0
   27.5393  -33.0317  -18.3556 C   0  0  0  0  0  0  0  0  0  0  0  0
   24.8912  -33.8986   -6.4827 C   0  0  1  0  0  0  0  0  0  0  0  0
   24.7125  -33.3323   -7.9302 C   0  0  0  0  0  0  0  0  0  0  0  0
   23.2870  -32.7608   -7.8904 C   0  0  0  0  0  0  0  0  0  0  0  0
   25.7598  -32.2974   -8.0819 C   0  0  1  0  0  0  0  0  0  0  0  0
   27.1620  -32.6663   -8.3449 N   0  0  0  0  0  0  0  0  0  0  0  0
   27.1181  -33.4101   -9.6377 C   0  0  0  0  0  0  0  0  0  0  0  0
   27.8692  -33.5202   -7.3903 O   0  0  0  0  0  0  0  0  0  0  0  0
   27.9140  -34.7557   -7.5471 N   0  0  0  0  0  0  0  0  0  0  0  0
   28.5428  -32.9905   -6.2312 C   0  0  1  0  0  0  0  0  0  0  0  0
   29.3523  -33.8823   -5.4601 C   0  0  0  0  0  0  0  0  0  0  0  0
   30.6377  -33.2896   -4.9865 C   0  0  0  0  0  0  0  0  0  0  0  0
   31.6689  -33.1034   -6.0104 C   0  0  0  0  0  0  0  0  0  0  0  0
   32.6207  -34.0644   -6.2452 C   0  0  0  0  0  0  0  0  0  0  0  0
   33.6113  -33.9294   -7.2126 C   0  0  0  0  0  0  0  0  0  0  0  0
   33.6148  -32.7636   -7.9594 C   0  0  0  0  0  0  0  0  0  0  0  0
   32.6951  -31.7906   -7.7606 C   0  0  0  0  0  0  0  0  0  0  0  0
   31.7097  -31.9542   -6.7788 C   0  0  0  0  0  0  0  0  0  0  0  0
   28.5767  -34.2107   -4.2054 O   0  0  0  0  0  0  0  0  0  0  0  0
   29.0471  -35.0509   -3.3862 O   0  0  0  0  0  0  0  0  0  0  0  0
  2  1  1  0
  2  3  2  0
  4  2  1  0
  5  4  1  0
  6  5  1  0
  7  6  1  0
  8  7  1  0
  8  9  1  6
 10  8  1  0
 10 11  2  0
 13 14  1  1
 13 12  1  0
 16 15  1  6
 15 13  1  0
 16 17  1  0
 17 10  1  0
 18 16  1  0
 19 18  2  0
 20 18  1  0
 21 22  1  1
 21 20  1  0
 22 23  1  0
 23 28  2  0
 24 25  2  0
 24 23  1  0
 25 26  1  0
 26 27  2  0
 28 27  1  0
 29 21  1  0
 30 29  2  0
 31 29  1  0
M  END
$$$$
