RLF.pdb
     RDKit          3D

 31 31  0  0  1  0  0  0  0  0999 V2000
   28.1706  -19.1162  -18.1928 N   0  0  0  0  0  0  0  0  0  0  0  0
   27.2273  -18.0846  -17.9721 C   0  0  0  0  0  0  0  0  0  0  0  0
   26.8223  -17.3860  -18.9652 N   0  0  0  0  0  0  0  0  0  0  0  0
   26.7207  -17.8094  -16.6523 N   0  0  0  0  0  0  0  0  0  0  0  0
   27.0146  -18.7057  -15.5731 C   0  0  0  0  0  0  0  0  0  0  0  0
   26.1481  -19.9665  -15.6855 C   0  0  0  0  0  0  0  0  0  0  0  0
   25.5533  -20.3204  -14.3574 C   0  0  0  0  0  0  0  0  0  0  0  0
   26.5752  -20.5803  -13.2839 C   0  0  2  0  0  0  0  0  0  0  0  0
   27.5304  -21.5412  -13.8672 N   0  0  0  0  0  0  0  0  0  0  0  0
   25.9605  -21.1662  -12.0630 C   0  0  0  0  0  0  0  0  0  0  0  0
   25.6565  -22.3658  -11.9973 O   0  0  0  0  0  0  0  0  0  0  0  0
   26.2232  -16.5664  -18.8063 C   0  0  0  0  0  0  0  0  0  0  0  0
   27.1025  -18.7525   -7.1945 C   0  0  1  0  0  0  0  0  0  0  0  0
   27.0010  -19.8202   -8.3337 C   0  0  0  0  0  0  0  0  0  0  0  0
   27.5702  -21.0790   -7.6618 C   0  0  0  0  0  0  0  0  0  0  0  0
   25.5591  -19.9216   -8.6530 C   0  0  2  0  0  0  0  0  0  0  0  0
   25.0762  -20.8221   -9.7147 N   0  0  0  0  0  0  0  0  0  0  0  0
   25.7254  -20.3165  -10.9595 C   0  0  0  0  0  0  0  0  0  0  0  0
   23.6414  -20.9014   -9.9890 O   0  0  0  0  0  0  0  0  0  0  0  0
   22.8428  -21.2915   -9.1153 N   0  0  0  0  0  0  0  0  0  0  0  0
   23.0776  -20.5403  -11.2655 C   0  0  2  0  0  0  0  0  0  0  0  0
   21.6529  -20.4948  -11.3808 C   0  0  0  0  0  0  0  0  0  0  0  0
   21.1423  -19.3906  -12.2455 C   0  0  0  0  0  0  0  0  0  0  0  0
   21.5734  -19.4262  -13.6453 C   0  0  0  0  0  0  0  0  0  0  0  0
   22.6362  -18.6750  -14.0822 C   0  0  0  0  0  0  0  0  0  0  0  0
   23.0812  -18.6865  -15.4001 C   0  0  0  0  0  0  0  0  0  0  0  0
   22.4049  -19.5017  -16.2917 C   0  0  0  0  0  0  0  0  0  0  0  0
   21.3521  -20.2585  -15.9031 C   0  0  0  0  0  0  0  0  0  0  0  0
   20.9260  -20.2260  -14.5693 C   0  0  0  0  0  0  0  0  0  0  0  0
   21.2237  -21.7713  -12.0665 O   0  0  0  0  0  0  0  0  0  0  0  0
   22.1027  -22.5624  -12.5136 O   0  0  0  0  0  0  0  0  0  0  0  0
  2  1  1  0
  2  3  2  0
  4  2  1  0
  5  4  1  0
  6  5  1  0
  7  6  1  0
  8  7  1  0
  8  9  1  6
 10  8  1  0
 10 11  2  0
 13 14  1  1
 13 12  1  0
 16 15  1  1
 15 13  1  0
 16 17  1  0
 17 10  1  0
 18 16  1  0
 19 18  2  0
 20 18  1  0
 21 22  1  6
 21 20  1  0
 22 23  1  0
 23 28  2  0
 24 25  2  0
 24 23  1  0
 25 26  1  0
 26 27  2  0
 28 27  1  0
 29 21  1  0
 30 29  2  0
 31 29  1  0
M  END
$$$$
