RLF.pdb
     RDKit          3D

 31 31  0  0  1  0  0  0  0  0999 V2000
   24.3523  -23.7804  -13.8978 N   0  0  0  0  0  0  0  0  0  0  0  0
   23.7924  -25.0097  -14.3198 C   0  0  0  0  0  0  0  0  0  0  0  0
   24.5409  -26.0458  -14.3889 N   0  0  0  0  0  0  0  0  0  0  0  0
   22.3999  -25.1108  -14.6730 N   0  0  0  0  0  0  0  0  0  0  0  0
   21.5067  -24.0306  -14.3733 C   0  0  0  0  0  0  0  0  0  0  0  0
   21.3195  -23.9083  -12.8557 C   0  0  0  0  0  0  0  0  0  0  0  0
   19.8647  -23.8570  -12.5040 C   0  0  0  0  0  0  0  0  0  0  0  0
   19.3828  -25.0577  -11.7356 C   0  0  2  0  0  0  0  0  0  0  0  0
   19.4422  -26.1871  -12.6828 N   0  0  0  0  0  0  0  0  0  0  0  0
   17.9868  -24.8838  -11.2532 C   0  0  0  0  0  0  0  0  0  0  0  0
   17.3172  -25.8393  -10.8357 O   0  0  0  0  0  0  0  0  0  0  0  0
   24.1446  -26.9471  -14.6828 C   0  0  0  0  0  0  0  0  0  0  0  0
   14.1660  -25.0309   -8.7092 C   0  0  2  0  0  0  0  0  0  0  0  0
   14.8892  -23.6595   -8.4986 C   0  0  0  0  0  0  0  0  0  0  0  0
   15.1972  -23.6732   -6.9936 C   0  0  0  0  0  0  0  0  0  0  0  0
   16.0990  -23.7159   -9.3497 C   0  0  1  0  0  0  0  0  0  0  0  0
   16.0495  -23.3255  -10.7697 N   0  0  0  0  0  0  0  0  0  0  0  0
   17.4275  -23.5870  -11.2790 C   0  0  0  0  0  0  0  0  0  0  0  0
   15.7245  -21.9432  -11.1217 O   0  0  0  0  0  0  0  0  0  0  0  0
   14.6168  -21.4517  -10.8308 N   0  0  0  0  0  0  0  0  0  0  0  0
   16.6510  -21.0841  -11.8155 C   0  0  1  0  0  0  0  0  0  0  0  0
   16.2431  -19.7415  -12.0913 C   0  0  0  0  0  0  0  0  0  0  0  0
   17.0731  -18.6982  -11.4204 C   0  0  0  0  0  0  0  0  0  0  0  0
   18.5154  -18.9540  -11.3891 C   0  0  0  0  0  0  0  0  0  0  0  0
   19.3382  -18.5149  -12.3964 C   0  0  0  0  0  0  0  0  0  0  0  0
   20.7125  -18.7304  -12.4004 C   0  0  0  0  0  0  0  0  0  0  0  0
   21.2500  -19.4212  -11.3276 C   0  0  0  0  0  0  0  0  0  0  0  0
   20.4750  -19.8719  -10.3135 C   0  0  0  0  0  0  0  0  0  0  0  0
   19.0939  -19.6404  -10.3370 C   0  0  0  0  0  0  0  0  0  0  0  0
   16.4373  -19.5158  -13.5729 O   0  0  0  0  0  0  0  0  0  0  0  0
   17.0283  -20.3948  -14.2631 O   0  0  0  0  0  0  0  0  0  0  0  0
  2  1  1  0
  2  3  2  0
  4  2  1  0
  5  4  1  0
  6  5  1  0
  7  6  1  0
  8  7  1  0
  8  9  1  6
 10  8  1  0
 10 11  2  0
 13 14  1  1
 13 12  1  0
 16 15  1  6
 15 13  1  0
 16 17  1  0
 17 10  1  0
 18 16  1  0
 19 18  2  0
 20 18  1  0
 21 22  1  6
 21 20  1  0
 22 23  1  0
 23 28  2  0
 24 25  2  0
 24 23  1  0
 25 26  1  0
 26 27  2  0
 28 27  1  0
 29 21  1  0
 30 29  2  0
 31 29  1  0
M  END
$$$$
