RLF.pdb
     RDKit          3D

 31 31  0  0  1  0  0  0  0  0999 V2000
   26.1745  -22.4278  -15.8438 N   0  0  0  0  0  0  0  0  0  0  0  0
   24.9915  -22.5883  -16.6036 C   0  0  0  0  0  0  0  0  0  0  0  0
   25.0447  -23.2193  -17.7161 N   0  0  0  0  0  0  0  0  0  0  0  0
   23.7351  -22.0527  -16.1466 N   0  0  0  0  0  0  0  0  0  0  0  0
   23.5968  -21.6151  -14.7887 C   0  0  0  0  0  0  0  0  0  0  0  0
   24.9503  -21.1339  -14.2506 C   0  0  0  0  0  0  0  0  0  0  0  0
   25.3287  -21.8914  -13.0154 C   0  0  0  0  0  0  0  0  0  0  0  0
   25.4338  -21.0325  -11.7843 C   0  0  2  0  0  0  0  0  0  0  0  0
   25.9777  -19.7409  -12.2447 N   0  0  0  0  0  0  0  0  0  0  0  0
   26.3462  -21.6255  -10.7705 C   0  0  0  0  0  0  0  0  0  0  0  0
   26.1344  -22.7419  -10.2760 O   0  0  0  0  0  0  0  0  0  0  0  0
   24.2146  -23.2666  -18.3200 C   0  0  0  0  0  0  0  0  0  0  0  0
   31.9333  -21.3941  -10.8832 C   0  0  1  0  0  0  0  0  0  0  0  0
   30.6081  -22.1188  -10.4747 C   0  0  0  0  0  0  0  0  0  0  0  0
   31.1014  -23.1760   -9.4752 C   0  0  0  0  0  0  0  0  0  0  0  0
   29.7598  -21.0738   -9.8588 C   0  0  2  0  0  0  0  0  0  0  0  0
   28.4198  -21.3923   -9.3349 N   0  0  0  0  0  0  0  0  0  0  0  0
   27.4793  -20.8810  -10.3744 C   0  0  0  0  0  0  0  0  0  0  0  0
   27.9936  -20.8158   -8.0596 O   0  0  0  0  0  0  0  0  0  0  0  0
   28.7109  -20.9056   -7.0445 N   0  0  0  0  0  0  0  0  0  0  0  0
   26.7389  -20.1230   -7.9056 C   0  0  2  0  0  0  0  0  0  0  0  0
   26.4285  -19.5752   -6.6216 C   0  0  0  0  0  0  0  0  0  0  0  0
   26.8155  -20.4464   -5.4732 C   0  0  0  0  0  0  0  0  0  0  0  0
   28.1119  -20.1509   -4.8579 C   0  0  0  0  0  0  0  0  0  0  0  0
   28.5013  -18.8593   -4.6035 C   0  0  0  0  0  0  0  0  0  0  0  0
   29.7196  -18.5373   -4.0142 C   0  0  0  0  0  0  0  0  0  0  0  0
   30.5590  -19.5857   -3.6777 C   0  0  0  0  0  0  0  0  0  0  0  0
   30.2144  -20.8737   -3.9109 C   0  0  0  0  0  0  0  0  0  0  0  0
   28.9812  -21.1675   -4.5063 C   0  0  0  0  0  0  0  0  0  0  0  0
   27.2527  -18.3181   -6.4660 O   0  0  0  0  0  0  0  0  0  0  0  0
   27.1112  -17.6065   -5.4306 O   0  0  0  0  0  0  0  0  0  0  0  0
  2  1  1  0
  2  3  2  0
  4  2  1  0
  5  4  1  0
  6  5  1  0
  7  6  1  0
  8  7  1  0
  8  9  1  6
 10  8  1  0
 10 11  2  0
 13 14  1  1
 13 12  1  0
 16 15  1  6
 15 13  1  0
 16 17  1  0
 17 10  1  0
 18 16  1  0
 19 18  2  0
 20 18  1  0
 21 22  1  6
 21 20  1  0
 22 23  1  0
 23 28  2  0
 24 25  2  0
 24 23  1  0
 25 26  1  0
 26 27  2  0
 28 27  1  0
 29 21  1  0
 30 29  2  0
 31 29  1  0
M  END
$$$$
