RLF.pdb
     RDKit          3D

 31 31  0  0  1  0  0  0  0  0999 V2000
   27.2249  -17.7357  -18.1027 N   0  0  0  0  0  0  0  0  0  0  0  0
   26.0827  -17.1460  -17.5108 C   0  0  0  0  0  0  0  0  0  0  0  0
   25.0768  -16.8563  -18.2476 N   0  0  0  0  0  0  0  0  0  0  0  0
   26.0369  -16.8664  -16.0988 N   0  0  0  0  0  0  0  0  0  0  0  0
   27.1527  -17.2078  -15.2664 C   0  0  0  0  0  0  0  0  0  0  0  0
   27.2262  -18.7290  -15.0829 C   0  0  0  0  0  0  0  0  0  0  0  0
   26.8936  -19.1090  -13.6730 C   0  0  0  0  0  0  0  0  0  0  0  0
   27.8109  -20.1508  -13.0920 C   0  0  2  0  0  0  0  0  0  0  0  0
   27.9502  -21.1851  -14.1345 N   0  0  0  0  0  0  0  0  0  0  0  0
   27.2479  -20.7592  -11.8573 C   0  0  0  0  0  0  0  0  0  0  0  0
   26.5049  -21.7502  -11.8988 O   0  0  0  0  0  0  0  0  0  0  0  0
   24.2460  -16.4165  -17.8326 C   0  0  0  0  0  0  0  0  0  0  0  0
   27.5571  -21.2045   -6.3072 C   0  0  2  0  0  0  0  0  0  0  0  0
   27.0654  -19.8425   -6.8999 C   0  0  0  0  0  0  0  0  0  0  0  0
   27.7543  -18.8150   -5.9890 C   0  0  0  0  0  0  0  0  0  0  0  0
   27.5575  -19.8182   -8.2958 C   0  0  1  0  0  0  0  0  0  0  0  0
   26.8441  -20.5360   -9.3669 N   0  0  0  0  0  0  0  0  0  0  0  0
   27.5810  -20.1778  -10.6139 C   0  0  0  0  0  0  0  0  0  0  0  0
   25.4323  -20.2396   -9.6108 O   0  0  0  0  0  0  0  0  0  0  0  0
   25.0749  -19.1183  -10.0209 N   0  0  0  0  0  0  0  0  0  0  0  0
   24.3899  -21.2110   -9.3930 C   0  0  1  0  0  0  0  0  0  0  0  0
   23.0419  -20.8215   -9.6689 C   0  0  0  0  0  0  0  0  0  0  0  0
   22.4244  -21.5284  -10.8294 C   0  0  0  0  0  0  0  0  0  0  0  0
   22.5826  -20.8749  -12.1311 C   0  0  0  0  0  0  0  0  0  0  0  0
   23.5407  -21.2882  -13.0233 C   0  0  0  0  0  0  0  0  0  0  0  0
   23.7180  -20.6998  -14.2713 C   0  0  0  0  0  0  0  0  0  0  0  0
   22.8766  -19.6521  -14.6048 C   0  0  0  0  0  0  0  0  0  0  0  0
   21.9188  -19.2130  -13.7550 C   0  0  0  0  0  0  0  0  0  0  0  0
   21.7640  -19.8246  -12.5046 C   0  0  0  0  0  0  0  0  0  0  0  0
   22.2122  -21.2196   -8.4701 O   0  0  0  0  0  0  0  0  0  0  0  0
   22.7586  -21.8438   -7.5160 O   0  0  0  0  0  0  0  0  0  0  0  0
  2  1  1  0
  2  3  2  0
  4  2  1  0
  5  4  1  0
  6  5  1  0
  7  6  1  0
  8  7  1  0
  8  9  1  6
 10  8  1  0
 10 11  2  0
 13 14  1  6
 13 12  1  0
 16 15  1  1
 15 13  1  0
 16 17  1  0
 17 10  1  0
 18 16  1  0
 19 18  2  0
 20 18  1  0
 21 22  1  1
 21 20  1  0
 22 23  1  0
 23 28  2  0
 24 25  2  0
 24 23  1  0
 25 26  1  0
 26 27  2  0
 28 27  1  0
 29 21  1  0
 30 29  2  0
 31 29  1  0
M  END
$$$$
