RLF.pdb
     RDKit          3D

 31 31  0  0  1  0  0  0  0  0999 V2000
   23.0298  -17.7149  -17.3733 N   0  0  0  0  0  0  0  0  0  0  0  0
   22.9882  -18.9471  -18.0679 C   0  0  0  0  0  0  0  0  0  0  0  0
   21.8645  -19.5411  -18.2191 N   0  0  0  0  0  0  0  0  0  0  0  0
   24.1865  -19.5407  -18.6026 N   0  0  0  0  0  0  0  0  0  0  0  0
   25.4511  -18.8936  -18.4110 C   0  0  0  0  0  0  0  0  0  0  0  0
   25.8535  -18.9526  -16.9319 C   0  0  0  0  0  0  0  0  0  0  0  0
   26.1651  -20.3594  -16.5237 C   0  0  0  0  0  0  0  0  0  0  0  0
   27.5212  -20.5226  -15.8923 C   0  0  2  0  0  0  0  0  0  0  0  0
   28.3300  -21.2707  -16.8734 N   0  0  0  0  0  0  0  0  0  0  0  0
   27.4514  -21.2855  -14.6176 C   0  0  0  0  0  0  0  0  0  0  0  0
   27.3702  -22.5220  -14.6011 O   0  0  0  0  0  0  0  0  0  0  0  0
   21.8136  -20.4146  -18.7579 C   0  0  0  0  0  0  0  0  0  0  0  0
   30.7095  -19.9198  -10.5146 C   0  0  2  0  0  0  0  0  0  0  0  0
   29.9478  -20.7715  -11.5835 C   0  0  0  0  0  0  0  0  0  0  0  0
   30.4406  -22.1960  -11.2869 C   0  0  0  0  0  0  0  0  0  0  0  0
   28.5095  -20.5720  -11.2960 C   0  0  2  0  0  0  0  0  0  0  0  0
   27.4730  -21.2608  -12.0850 N   0  0  0  0  0  0  0  0  0  0  0  0
   27.4803  -20.5632  -13.4041 C   0  0  0  0  0  0  0  0  0  0  0  0
   26.0889  -21.2533  -11.6111 O   0  0  0  0  0  0  0  0  0  0  0  0
   25.7664  -21.8510  -10.5661 N   0  0  0  0  0  0  0  0  0  0  0  0
   25.0348  -20.5666  -12.3149 C   0  0  1  0  0  0  0  0  0  0  0  0
   23.7093  -20.6503  -11.7848 C   0  0  0  0  0  0  0  0  0  0  0  0
   23.0975  -19.3304  -11.4513 C   0  0  0  0  0  0  0  0  0  0  0  0
   21.6975  -19.3675  -11.0210 C   0  0  0  0  0  0  0  0  0  0  0  0
   20.6764  -19.0901  -11.8957 C   0  0  0  0  0  0  0  0  0  0  0  0
   19.3348  -19.1220  -11.5288 C   0  0  0  0  0  0  0  0  0  0  0  0
   19.0431  -19.4521  -10.2163 C   0  0  0  0  0  0  0  0  0  0  0  0
   20.0191  -19.7325   -9.3213 C   0  0  0  0  0  0  0  0  0  0  0  0
   21.3613  -19.6919   -9.7193 C   0  0  0  0  0  0  0  0  0  0  0  0
   22.8348  -21.2339  -12.8705 O   0  0  0  0  0  0  0  0  0  0  0  0
   21.6614  -21.6101  -12.5880 O   0  0  0  0  0  0  0  0  0  0  0  0
  2  1  1  0
  2  3  2  0
  4  2  1  0
  5  4  1  0
  6  5  1  0
  7  6  1  0
  8  7  1  0
  8  9  1  6
 10  8  1  0
 10 11  2  0
 13 14  1  1
 13 12  1  0
 16 15  1  6
 15 13  1  0
 16 17  1  0
 17 10  1  0
 18 16  1  0
 19 18  2  0
 20 18  1  0
 21 22  1  6
 21 20  1  0
 22 23  1  0
 23 28  2  0
 24 25  2  0
 24 23  1  0
 25 26  1  0
 26 27  2  0
 28 27  1  0
 29 21  1  0
 30 29  2  0
 31 29  1  0
M  END
$$$$
