RPS.pdb
     RDKit          3D

 25 25  0  0  1  0  0  0  0  0999 V2000
   10.4643  -17.1397   -0.0498 N   0  0  0  0  0  0  0  0  0  0  0  0
   10.4552  -18.4652   -0.5398 C   0  0  0  0  0  0  0  0  0  0  0  0
    9.3171  -18.9495   -0.9278 N   0  0  0  0  0  0  0  0  0  0  0  0
   11.6538  -19.2255   -0.5981 N   0  0  0  0  0  0  0  0  0  0  0  0
   12.0215  -20.1076    0.4571 C   0  0  0  0  0  0  0  0  0  0  0  0
   13.2876  -19.6930    1.1680 C   0  0  0  0  0  0  0  0  0  0  0  0
   14.4998  -19.7772    0.3140 C   0  0  0  0  0  0  0  0  0  0  0  0
   15.5547  -20.7520    0.7914 C   0  0  2  0  0  0  0  0  0  0  0  0
   14.9515  -22.0493    0.9263 N   0  0  0  0  0  0  0  0  0  0  0  0
   16.1904  -20.3612    2.0509 C   0  0  0  0  0  0  0  0  0  0  0  0
   16.2136  -21.1837    3.0114 O   0  0  0  0  0  0  0  0  0  0  0  0
    9.1983  -19.9107   -1.3022 N   0  0  0  0  0  0  0  0  0  0  0  0
   16.7907  -19.0828    2.2489 C   0  0  0  0  0  0  0  0  0  0  0  0
   16.8358  -18.0264    1.3114 C   0  0  0  0  0  0  0  0  0  0  0  0
   17.6505  -16.9208    1.9126 C   0  0  0  0  0  0  0  0  0  0  0  0
   18.3380  -17.5615    3.0664 C   0  0  2  0  0  0  0  0  0  0  0  0
   17.4417  -18.7022    3.4743 C   0  0  0  0  0  0  0  0  0  0  0  0
   16.4766  -18.2887    4.5235 O   0  0  0  0  0  0  0  0  0  0  0  0
   15.3723  -17.8221    4.1553 O   0  0  0  0  0  0  0  0  0  0  0  0
   17.0750  -19.6216    8.1991 C   0  0  0  0  0  0  0  0  0  0  0  0
   15.7758  -19.1487    8.0280 C   0  0  1  0  0  0  0  0  0  0  0  0
   15.8185  -18.0726    6.9605 N   0  0  0  0  0  0  0  0  0  0  0  0
   16.7540  -18.4009    5.9065 C   0  0  0  0  0  0  0  0  0  0  0  0
   16.2612  -16.8141    7.6121 O   0  0  0  0  0  0  0  0  0  0  0  0
   17.3295  -16.2202    7.3128 O   0  0  0  0  0  0  0  0  0  0  0  0
  1  2  1  0
  2  3  2  0
  4  5  1  0
  4  2  1  0
  6  7  1  0
  6  5  1  0
  7  8  1  0
  8  9  1  1
 10 12  1  0
 10  8  1  0
 11 10  2  0
 12 16  1  0
 13 12  1  0
 13 14  1  0
 14 15  1  0
 16 15  1  0
 16 17  1  1
 17 18  2  0
 19 20  1  0
 21 20  1  6
 22 21  1  0
 22 17  1  0
 23 25  1  0
 23 21  1  0
 24 23  2  0
M  END
$$$$
