RPS.pdb
     RDKit          3D

 25 25  0  0  1  0  0  0  0  0999 V2000
   15.0529  -12.2501  -16.0740 N   0  0  0  0  0  0  0  0  0  0  0  0
   16.2352  -12.7558  -15.4880 C   0  0  0  0  0  0  0  0  0  0  0  0
   16.1065  -13.5098  -14.4415 N   0  0  0  0  0  0  0  0  0  0  0  0
   17.5082  -12.4407  -16.0345 N   0  0  0  0  0  0  0  0  0  0  0  0
   17.6450  -11.9931  -17.3789 C   0  0  0  0  0  0  0  0  0  0  0  0
   19.0822  -11.8008  -17.8007 C   0  0  0  0  0  0  0  0  0  0  0  0
   19.2274  -11.2642  -19.1780 C   0  0  0  0  0  0  0  0  0  0  0  0
   20.6525  -11.0138  -19.6222 C   0  0  2  0  0  0  0  0  0  0  0  0
   21.3602  -12.2644  -19.6161 N   0  0  0  0  0  0  0  0  0  0  0  0
   21.3616  -10.0323  -18.7996 C   0  0  0  0  0  0  0  0  0  0  0  0
   22.0514  -10.4331  -17.8181 O   0  0  0  0  0  0  0  0  0  0  0  0
   16.9076  -13.9400  -13.9401 N   0  0  0  0  0  0  0  0  0  0  0  0
   21.3105   -8.6300  -19.0542 C   0  0  0  0  0  0  0  0  0  0  0  0
   20.5947   -7.9950  -20.0940 C   0  0  0  0  0  0  0  0  0  0  0  0
   20.9136   -6.5313  -20.0362 C   0  0  0  0  0  0  0  0  0  0  0  0
   22.1040   -6.4532  -19.1467 C   0  0  2  0  0  0  0  0  0  0  0  0
   22.0044   -7.6598  -18.2495 C   0  0  0  0  0  0  0  0  0  0  0  0
   21.2811   -7.3458  -16.9919 O   0  0  0  0  0  0  0  0  0  0  0  0
   20.0421   -7.5378  -16.9629 O   0  0  0  0  0  0  0  0  0  0  0  0
   20.8629   -7.5430  -12.4308 C   0  0  0  0  0  0  0  0  0  0  0  0
   21.5671   -7.7929  -13.6066 C   0  0  2  0  0  0  0  0  0  0  0  0
   21.2901   -6.6446  -14.5574 N   0  0  0  0  0  0  0  0  0  0  0  0
   21.9309   -6.8444  -15.8393 C   0  0  0  0  0  0  0  0  0  0  0  0
   21.8392   -5.4109  -13.9402 O   0  0  0  0  0  0  0  0  0  0  0  0
   22.9141   -4.8724  -14.3116 O   0  0  0  0  0  0  0  0  0  0  0  0
  1  2  1  0
  2  3  2  0
  4  5  1  0
  4  2  1  0
  6  7  1  0
  6  5  1  0
  7  8  1  0
  8  9  1  1
 10 12  1  0
 10  8  1  0
 11 10  2  0
 12 16  1  0
 13 12  1  0
 13 14  1  0
 14 15  1  0
 16 15  1  0
 16 17  1  1
 17 18  2  0
 19 20  1  0
 21 20  1  6
 22 21  1  0
 22 17  1  0
 23 25  1  0
 23 21  1  0
 24 23  2  0
M  END
$$$$
