RPS.pdb
     RDKit          3D

 25 25  0  0  1  0  0  0  0  0999 V2000
   25.8261  -19.9095   -9.1004 N   0  0  0  0  0  0  0  0  0  0  0  0
   24.8534  -20.4579   -9.9665 C   0  0  0  0  0  0  0  0  0  0  0  0
   23.6172  -20.1270   -9.7603 N   0  0  0  0  0  0  0  0  0  0  0  0
   25.2302  -21.3370  -11.0169 N   0  0  0  0  0  0  0  0  0  0  0  0
   26.5853  -21.7339  -11.1982 C   0  0  0  0  0  0  0  0  0  0  0  0
   27.1581  -21.3113  -12.5300 C   0  0  0  0  0  0  0  0  0  0  0  0
   26.1231  -20.9293  -13.5243 C   0  0  0  0  0  0  0  0  0  0  0  0
   26.3762  -21.4181  -14.9342 C   0  0  2  0  0  0  0  0  0  0  0  0
   27.6199  -20.8643  -15.3942 N   0  0  0  0  0  0  0  0  0  0  0  0
   25.3026  -21.0882  -15.8732 C   0  0  0  0  0  0  0  0  0  0  0  0
   25.4049  -20.0489  -16.5868 O   0  0  0  0  0  0  0  0  0  0  0  0
   22.8203  -20.5110  -10.3041 N   0  0  0  0  0  0  0  0  0  0  0  0
   24.1336  -21.8912  -16.0228 C   0  0  0  0  0  0  0  0  0  0  0  0
   23.8848  -23.1308  -15.3918 C   0  0  0  0  0  0  0  0  0  0  0  0
   22.5843  -23.6563  -15.9209 C   0  0  0  0  0  0  0  0  0  0  0  0
   22.3164  -22.8209  -17.1228 C   0  0  2  0  0  0  0  0  0  0  0  0
   23.0262  -21.5174  -16.8620 C   0  0  0  0  0  0  0  0  0  0  0  0
   22.1301  -20.5297  -16.2104 O   0  0  0  0  0  0  0  0  0  0  0  0
   22.0530  -20.5421  -14.9587 O   0  0  0  0  0  0  0  0  0  0  0  0
   19.8443  -18.0235  -18.5179 C   0  0  0  0  0  0  0  0  0  0  0  0
   20.2727  -17.4278  -17.3337 C   0  0  1  0  0  0  0  0  0  0  0  0
   20.5691  -18.5387  -16.3451 N   0  0  0  0  0  0  0  0  0  0  0  0
   21.3696  -19.5864  -16.9412 C   0  0  0  0  0  0  0  0  0  0  0  0
   19.2696  -19.1183  -15.9212 O   0  0  0  0  0  0  0  0  0  0  0  0
   18.9291  -20.3043  -16.1677 O   0  0  0  0  0  0  0  0  0  0  0  0
  1  2  1  0
  2  3  2  0
  4  5  1  0
  4  2  1  0
  6  7  1  0
  6  5  1  0
  7  8  1  0
  8  9  1  6
 10 12  1  0
 10  8  1  0
 11 10  2  0
 12 16  1  0
 13 12  1  0
 13 14  1  0
 14 15  1  0
 16 15  1  0
 16 17  1  1
 17 18  2  0
 19 20  1  0
 21 20  1  1
 22 21  1  0
 22 17  1  0
 23 25  1  0
 23 21  1  0
 24 23  2  0
M  END
$$$$
