MNF.pdb
     RDKit          3D

 28 28  0  0  1  0  0  0  0  0999 V2000
    9.2539  -11.3879   20.5857 C   0  0  0  0  0  0  0  0  0  0  0  0
    7.6158  -11.9055   19.9746 S   0  0  0  0  0  0  0  0  0  0  0  0
    7.5414  -13.7210   19.8195 C   0  0  0  0  0  0  0  0  0  0  0  0
    7.9336  -14.3023   21.1601 C   0  0  0  0  0  0  0  0  0  0  0  0
    8.0504  -15.8149   21.0950 C   0  0  2  0  0  0  0  0  0  0  0  0
    6.6697  -16.2728   20.8554 N   0  0  0  0  0  0  0  0  0  0  0  0
    8.5068  -16.4040   22.3456 C   0  0  0  0  0  0  0  0  0  0  0  0
    7.6560  -16.7172   23.2458 O   0  0  0  0  0  0  0  0  0  0  0  0
   12.2609  -19.0854   21.6959 N   0  0  0  0  0  0  0  0  0  0  0  0
   11.5733  -19.1478   22.9357 C   0  0  0  0  0  0  0  0  0  0  0  0
   10.9916  -20.1949   23.2776 O   0  0  0  0  0  0  0  0  0  0  0  0
   11.5731  -17.9590   23.7833 C   0  0  0  0  0  0  0  0  0  0  0  0
   10.2182  -17.3108   23.9601 C   0  0  2  0  0  0  0  0  0  0  0  0
    9.8528  -16.6920   22.7164 N   0  0  0  0  0  0  0  0  0  0  0  0
   10.3849  -16.3130   25.0612 C   0  0  0  0  0  0  0  0  0  0  0  0
   11.1335  -15.3359   24.8077 O   0  0  0  0  0  0  0  0  0  0  0  0
    9.7674  -16.4111   26.3211 N   0  0  0  0  0  0  0  0  0  0  0  0
   10.0900  -15.5016   27.4258 C   0  0  1  0  0  0  0  0  0  0  0  0
    8.8224  -14.9977   28.0817 C   0  0  0  0  0  0  0  0  0  0  0  0
    7.9831  -14.1760   27.1799 C   0  0  0  0  0  0  0  0  0  0  0  0
    8.2272  -12.8292   27.0200 C   0  0  0  0  0  0  0  0  0  0  0  0
    7.4556  -12.0532   26.1789 C   0  0  0  0  0  0  0  0  0  0  0  0
    6.3991  -12.6021   25.4580 C   0  0  0  0  0  0  0  0  0  0  0  0
    6.1601  -13.9497   25.6220 C   0  0  0  0  0  0  0  0  0  0  0  0
    6.9332  -14.7233   26.4640 C   0  0  0  0  0  0  0  0  0  0  0  0
   11.0245  -16.1227   28.3679 C   0  0  0  0  0  0  0  0  0  0  0  0
   11.4599  -17.4131   28.3368 O   0  0  0  0  0  0  0  0  0  0  0  0
   11.4783  -15.3926   29.3108 O   0  0  0  0  0  0  0  0  0  0  0  0
  1  2  1  0
  3  2  1  0
  4  3  1  0
  5  6  1  1
  5  4  1  0
  7  5  1  0
  8  7  2  0
  9 10  1  0
 10 12  1  0
 10 11  2  0
 13 12  1  6
 13 15  1  0
 13 14  1  0
 14  7  1  0
 15 16  2  0
 17 18  1  0
 17 15  1  0
 18 19  1  1
 20 19  1  0
 21 20  2  0
 22 21  1  0
 23 24  1  0
 23 22  2  0
 24 25  2  0
 25 20  1  0
 26 18  1  0
 27 26  1  0
 28 26  2  0
M  END
$$$$
