MNF.pdb
     RDKit          3D

 28 28  0  0  1  0  0  0  0  0999 V2000
    8.3755  -11.8520   20.7709 C   0  0  0  0  0  0  0  0  0  0  0  0
    7.5228  -12.7081   19.4054 S   0  0  0  0  0  0  0  0  0  0  0  0
    6.4190  -14.0036   20.0601 C   0  0  0  0  0  0  0  0  0  0  0  0
    7.1491  -14.6822   21.1983 C   0  0  0  0  0  0  0  0  0  0  0  0
    7.8922  -15.9174   20.7213 C   0  0  2  0  0  0  0  0  0  0  0  0
    6.8220  -16.8536   20.3319 N   0  0  0  0  0  0  0  0  0  0  0  0
    8.6788  -16.5484   21.7713 C   0  0  0  0  0  0  0  0  0  0  0  0
    8.1241  -17.3836   22.5632 O   0  0  0  0  0  0  0  0  0  0  0  0
   11.7728  -18.6878   21.0942 N   0  0  0  0  0  0  0  0  0  0  0  0
   12.7101  -17.7986   21.6813 C   0  0  0  0  0  0  0  0  0  0  0  0
   13.8833  -17.7599   21.2643 O   0  0  0  0  0  0  0  0  0  0  0  0
   12.2564  -16.9435   22.7743 C   0  0  0  0  0  0  0  0  0  0  0  0
   10.7781  -17.0401   23.0786 C   0  0  2  0  0  0  0  0  0  0  0  0
   10.0626  -16.3437   22.0460 N   0  0  0  0  0  0  0  0  0  0  0  0
   10.5963  -16.4051   24.4199 C   0  0  0  0  0  0  0  0  0  0  0  0
   10.9934  -15.2171   24.5232 O   0  0  0  0  0  0  0  0  0  0  0  0
   10.0236  -17.0488   25.5316 N   0  0  0  0  0  0  0  0  0  0  0  0
    9.7072  -16.3361   26.7740 C   0  0  1  0  0  0  0  0  0  0  0  0
    8.2121  -16.1383   26.9027 C   0  0  0  0  0  0  0  0  0  0  0  0
    7.7959  -14.7226   26.7786 C   0  0  0  0  0  0  0  0  0  0  0  0
    6.5520  -14.3928   26.2855 C   0  0  0  0  0  0  0  0  0  0  0  0
    6.1499  -13.0775   26.1692 C   0  0  0  0  0  0  0  0  0  0  0  0
    6.9868  -12.0315   26.5465 C   0  0  0  0  0  0  0  0  0  0  0  0
    8.2295  -12.3677   27.0391 C   0  0  0  0  0  0  0  0  0  0  0  0
    8.6290  -13.6839   27.1541 C   0  0  0  0  0  0  0  0  0  0  0  0
   10.3075  -17.0005   27.9337 C   0  0  0  0  0  0  0  0  0  0  0  0
   10.6732  -16.4042   29.1026 O   0  0  0  0  0  0  0  0  0  0  0  0
   10.5111  -18.2573   27.8490 O   0  0  0  0  0  0  0  0  0  0  0  0
  1  2  1  0
  3  2  1  0
  4  3  1  0
  5  6  1  1
  5  4  1  0
  7  5  1  0
  8  7  2  0
  9 10  1  0
 10 12  1  0
 10 11  2  0
 13 12  1  6
 13 15  1  0
 13 14  1  0
 14  7  1  0
 15 16  2  0
 17 18  1  0
 17 15  1  0
 18 19  1  1
 20 19  1  0
 21 20  2  0
 22 21  1  0
 23 24  1  0
 23 22  2  0
 24 25  2  0
 25 20  1  0
 26 18  1  0
 27 26  1  0
 28 26  2  0
M  END
$$$$
