MNF.pdb
     RDKit          3D

 28 28  0  0  1  0  0  0  0  0999 V2000
    9.0098  -11.5173   20.6792 C   0  0  0  0  0  0  0  0  0  0  0  0
    8.5459  -12.6154   19.2995 S   0  0  0  0  0  0  0  0  0  0  0  0
    6.9788  -13.4714   19.6696 C   0  0  0  0  0  0  0  0  0  0  0  0
    7.2203  -14.3462   20.8802 C   0  0  0  0  0  0  0  0  0  0  0  0
    7.8548  -15.6693   20.4895 C   0  0  2  0  0  0  0  0  0  0  0  0
    6.7624  -16.4139   19.8371 N   0  0  0  0  0  0  0  0  0  0  0  0
    8.3028  -16.4455   21.6368 C   0  0  0  0  0  0  0  0  0  0  0  0
    7.4617  -17.1480   22.2937 O   0  0  0  0  0  0  0  0  0  0  0  0
   12.0731  -18.6133   20.6921 N   0  0  0  0  0  0  0  0  0  0  0  0
   11.3932  -18.9411   21.8939 C   0  0  0  0  0  0  0  0  0  0  0  0
   10.8383  -20.0495   22.0176 O   0  0  0  0  0  0  0  0  0  0  0  0
   11.3689  -17.9480   22.9638 C   0  0  0  0  0  0  0  0  0  0  0  0
   10.0030  -17.3675   23.2545 C   0  0  2  0  0  0  0  0  0  0  0  0
    9.6299  -16.5275   22.1507 N   0  0  0  0  0  0  0  0  0  0  0  0
   10.1506  -16.5970   24.5273 C   0  0  0  0  0  0  0  0  0  0  0  0
   10.9898  -15.6616   24.5085 O   0  0  0  0  0  0  0  0  0  0  0  0
    9.4228  -16.8584   25.7022 N   0  0  0  0  0  0  0  0  0  0  0  0
    9.6866  -16.1542   26.9616 C   0  0  1  0  0  0  0  0  0  0  0  0
    8.3864  -15.7497   27.6224 C   0  0  0  0  0  0  0  0  0  0  0  0
    7.6601  -14.6899   26.8860 C   0  0  0  0  0  0  0  0  0  0  0  0
    6.5209  -14.9827   26.1681 C   0  0  0  0  0  0  0  0  0  0  0  0
    5.8318  -14.0034   25.4815 C   0  0  0  0  0  0  0  0  0  0  0  0
    6.2618  -12.6797   25.4880 C   0  0  0  0  0  0  0  0  0  0  0  0
    7.4017  -12.3932   26.2081 C   0  0  0  0  0  0  0  0  0  0  0  0
    8.0888  -13.3746   26.8936 C   0  0  0  0  0  0  0  0  0  0  0  0
   10.5625  -16.9399   27.8347 C   0  0  0  0  0  0  0  0  0  0  0  0
   10.9759  -18.2198   27.6186 O   0  0  0  0  0  0  0  0  0  0  0  0
   10.9823  -16.3796   28.9014 O   0  0  0  0  0  0  0  0  0  0  0  0
  1  2  1  0
  3  2  1  0
  4  3  1  0
  5  6  1  1
  5  4  1  0
  7  5  1  0
  8  7  2  0
  9 10  1  0
 10 12  1  0
 10 11  2  0
 13 12  1  6
 13 15  1  0
 13 14  1  0
 14  7  1  0
 15 16  2  0
 17 18  1  0
 17 15  1  0
 18 19  1  1
 20 19  1  0
 21 20  2  0
 22 21  1  0
 23 24  1  0
 23 22  2  0
 24 25  2  0
 25 20  1  0
 26 18  1  0
 27 26  1  0
 28 26  2  0
M  END
$$$$
