MNF.pdb
     RDKit          3D

 28 28  0  0  1  0  0  0  0  0999 V2000
    8.8973  -12.0162   20.0854 C   0  0  0  0  0  0  0  0  0  0  0  0
    8.3810  -13.2943   18.8920 S   0  0  0  0  0  0  0  0  0  0  0  0
    6.9903  -14.2642   19.5635 C   0  0  0  0  0  0  0  0  0  0  0  0
    7.4371  -14.8266   20.8951 C   0  0  0  0  0  0  0  0  0  0  0  0
    8.3773  -16.0048   20.7111 C   0  0  2  0  0  0  0  0  0  0  0  0
    7.5433  -17.0332   20.0628 N   0  0  0  0  0  0  0  0  0  0  0  0
    8.8596  -16.5492   21.9722 C   0  0  0  0  0  0  0  0  0  0  0  0
    8.0544  -17.1766   22.7405 O   0  0  0  0  0  0  0  0  0  0  0  0
   12.4133  -18.9713   21.3044 N   0  0  0  0  0  0  0  0  0  0  0  0
   11.7149  -18.9991   22.5395 C   0  0  0  0  0  0  0  0  0  0  0  0
   10.9931  -19.9721   22.8294 O   0  0  0  0  0  0  0  0  0  0  0  0
   11.8715  -17.8642   23.4445 C   0  0  0  0  0  0  0  0  0  0  0  0
   10.5989  -17.0931   23.7149 C   0  0  2  0  0  0  0  0  0  0  0  0
   10.1856  -16.4683   22.4893 N   0  0  0  0  0  0  0  0  0  0  0  0
   10.9455  -16.0931   24.7710 C   0  0  0  0  0  0  0  0  0  0  0  0
   11.9395  -15.3626   24.5302 O   0  0  0  0  0  0  0  0  0  0  0  0
   10.2394  -15.9357   25.9772 N   0  0  0  0  0  0  0  0  0  0  0  0
   10.8178  -15.2576   27.1422 C   0  0  1  0  0  0  0  0  0  0  0  0
   10.3513  -13.8189   27.2007 C   0  0  0  0  0  0  0  0  0  0  0  0
    8.8975  -13.6645   26.9654 C   0  0  0  0  0  0  0  0  0  0  0  0
    8.0807  -13.1130   27.9285 C   0  0  0  0  0  0  0  0  0  0  0  0
    6.7250  -12.9590   27.7199 C   0  0  0  0  0  0  0  0  0  0  0  0
    6.1294  -13.3554   26.5261 C   0  0  0  0  0  0  0  0  0  0  0  0
    6.9516  -13.9061   25.5666 C   0  0  0  0  0  0  0  0  0  0  0  0
    8.3069  -14.0591   25.7781 C   0  0  0  0  0  0  0  0  0  0  0  0
   10.5545  -16.0045   28.3749 C   0  0  0  0  0  0  0  0  0  0  0  0
   11.0070  -15.6874   29.6201 O   0  0  0  0  0  0  0  0  0  0  0  0
    9.8339  -17.0534   28.2822 O   0  0  0  0  0  0  0  0  0  0  0  0
  1  2  1  0
  3  2  1  0
  4  3  1  0
  5  6  1  1
  5  4  1  0
  7  5  1  0
  8  7  2  0
  9 10  1  0
 10 12  1  0
 10 11  2  0
 13 12  1  6
 13 15  1  0
 13 14  1  0
 14  7  1  0
 15 16  2  0
 17 18  1  0
 17 15  1  0
 18 19  1  1
 20 19  1  0
 21 20  2  0
 22 21  1  0
 23 24  1  0
 23 22  2  0
 24 25  2  0
 25 20  1  0
 26 18  1  0
 27 26  1  0
 28 26  2  0
M  END
$$$$
