MNF.pdb
     RDKit          3D

 28 28  0  0  1  0  0  0  0  0999 V2000
    7.8281  -12.4472   20.1623 C   0  0  0  0  0  0  0  0  0  0  0  0
    7.9605  -12.9298   18.4090 S   0  0  0  0  0  0  0  0  0  0  0  0
    7.3728  -14.6404   18.1760 C   0  0  0  0  0  0  0  0  0  0  0  0
    8.3806  -15.5550   18.8370 C   0  0  0  0  0  0  0  0  0  0  0  0
    7.8189  -16.1734   20.1050 C   0  0  2  0  0  0  0  0  0  0  0  0
    7.3578  -15.0178   20.8957 N   0  0  0  0  0  0  0  0  0  0  0  0
    8.8243  -16.8784   20.8870 C   0  0  0  0  0  0  0  0  0  0  0  0
    8.5085  -17.9512   21.5049 O   0  0  0  0  0  0  0  0  0  0  0  0
   13.1415  -16.7504   19.2525 N   0  0  0  0  0  0  0  0  0  0  0  0
   12.7575  -17.5740   20.3426 C   0  0  0  0  0  0  0  0  0  0  0  0
   12.6723  -18.8081   20.1958 O   0  0  0  0  0  0  0  0  0  0  0  0
   12.4714  -16.9326   21.6225 C   0  0  0  0  0  0  0  0  0  0  0  0
   11.0364  -17.0576   22.0837 C   0  0  2  0  0  0  0  0  0  0  0  0
   10.1892  -16.5067   21.0629 N   0  0  0  0  0  0  0  0  0  0  0  0
   10.9521  -16.2902   23.3641 C   0  0  0  0  0  0  0  0  0  0  0  0
   11.5270  -15.1726   23.3732 O   0  0  0  0  0  0  0  0  0  0  0  0
   10.2852  -16.7416   24.5173 N   0  0  0  0  0  0  0  0  0  0  0  0
    9.6554  -15.8213   25.4702 C   0  0  1  0  0  0  0  0  0  0  0  0
    8.6827  -14.9071   24.7566 C   0  0  0  0  0  0  0  0  0  0  0  0
    7.9611  -13.9921   25.6702 C   0  0  0  0  0  0  0  0  0  0  0  0
    8.6501  -13.1630   26.5287 C   0  0  0  0  0  0  0  0  0  0  0  0
    7.9897  -12.3019   27.3818 C   0  0  0  0  0  0  0  0  0  0  0  0
    6.5997  -12.2375   27.4077 C   0  0  0  0  0  0  0  0  0  0  0  0
    5.9163  -13.0690   26.5466 C   0  0  0  0  0  0  0  0  0  0  0  0
    6.5792  -13.9292   25.6948 C   0  0  0  0  0  0  0  0  0  0  0  0
    9.0539  -16.5486   26.5909 C   0  0  0  0  0  0  0  0  0  0  0  0
    8.4243  -17.7547   26.5223 O   0  0  0  0  0  0  0  0  0  0  0  0
    9.1215  -16.0078   27.7445 O   0  0  0  0  0  0  0  0  0  0  0  0
  1  2  1  0
  3  2  1  0
  4  3  1  0
  5  6  1  1
  5  4  1  0
  7  5  1  0
  8  7  2  0
  9 10  1  0
 10 12  1  0
 10 11  2  0
 13 12  1  6
 13 15  1  0
 13 14  1  0
 14  7  1  0
 15 16  2  0
 17 18  1  0
 17 15  1  0
 18 19  1  6
 20 19  1  0
 21 20  2  0
 22 21  1  0
 23 24  1  0
 23 22  2  0
 24 25  2  0
 25 20  1  0
 26 18  1  0
 27 26  1  0
 28 26  2  0
M  END
$$$$
