MNF.pdb
     RDKit          3D

 28 28  0  0  1  0  0  0  0  0999 V2000
    2.2871  -20.6843   21.9844 C   0  0  0  0  0  0  0  0  0  0  0  0
    2.6775  -18.9068   21.8713 S   0  0  0  0  0  0  0  0  0  0  0  0
    3.9007  -18.6088   20.5520 C   0  0  0  0  0  0  0  0  0  0  0  0
    5.2552  -19.0038   21.0984 C   0  0  0  0  0  0  0  0  0  0  0  0
    5.6463  -18.1416   22.2856 C   0  0  2  0  0  0  0  0  0  0  0  0
    5.0668  -16.8213   21.9782 N   0  0  0  0  0  0  0  0  0  0  0  0
    7.0867  -17.9781   22.4194 C   0  0  0  0  0  0  0  0  0  0  0  0
    7.8076  -18.9741   22.7668 O   0  0  0  0  0  0  0  0  0  0  0  0
    9.5738  -16.7998   19.8054 N   0  0  0  0  0  0  0  0  0  0  0  0
    9.8701  -15.5431   20.3944 C   0  0  0  0  0  0  0  0  0  0  0  0
   10.2084  -14.5804   19.6799 O   0  0  0  0  0  0  0  0  0  0  0  0
    9.7646  -15.4211   21.8455 C   0  0  0  0  0  0  0  0  0  0  0  0
    9.2261  -16.6496   22.5441 C   0  0  2  0  0  0  0  0  0  0  0  0
    7.8379  -16.7863   22.2017 N   0  0  0  0  0  0  0  0  0  0  0  0
    9.4273  -16.4077   24.0058 C   0  0  0  0  0  0  0  0  0  0  0  0
   10.5854  -16.0618   24.3506 O   0  0  0  0  0  0  0  0  0  0  0  0
    8.4206  -16.5435   24.9785 N   0  0  0  0  0  0  0  0  0  0  0  0
    8.7024  -16.4631   26.4158 C   0  0  1  0  0  0  0  0  0  0  0  0
    7.5635  -15.7771   27.1393 C   0  0  0  0  0  0  0  0  0  0  0  0
    7.4381  -14.3401   26.8045 C   0  0  0  0  0  0  0  0  0  0  0  0
    8.4527  -13.4552   27.0985 C   0  0  0  0  0  0  0  0  0  0  0  0
    8.3504  -12.1144   26.7873 C   0  0  0  0  0  0  0  0  0  0  0  0
    7.2163  -11.6033   26.1630 C   0  0  0  0  0  0  0  0  0  0  0  0
    6.2051  -12.4934   25.8714 C   0  0  0  0  0  0  0  0  0  0  0  0
    6.3100  -13.8337   26.1839 C   0  0  0  0  0  0  0  0  0  0  0  0
    9.0305  -17.7808   26.9660 C   0  0  0  0  0  0  0  0  0  0  0  0
    8.9547  -18.9701   26.3060 O   0  0  0  0  0  0  0  0  0  0  0  0
    9.4254  -17.8281   28.1784 O   0  0  0  0  0  0  0  0  0  0  0  0
  1  2  1  0
  3  2  1  0
  4  3  1  0
  5  6  1  6
  5  4  1  0
  7  5  1  0
  8  7  2  0
  9 10  1  0
 10 12  1  0
 10 11  2  0
 13 12  1  6
 13 15  1  0
 13 14  1  0
 14  7  1  0
 15 16  2  0
 17 18  1  0
 17 15  1  0
 18 19  1  1
 20 19  1  0
 21 20  2  0
 22 21  1  0
 23 24  1  0
 23 22  2  0
 24 25  2  0
 25 20  1  0
 26 18  1  0
 27 26  1  0
 28 26  2  0
M  END
$$$$
