MNF.pdb
     RDKit          3D

 28 28  0  0  1  0  0  0  0  0999 V2000
    8.1211  -11.6017   20.7662 C   0  0  0  0  0  0  0  0  0  0  0  0
    7.2097  -12.1214   19.2751 S   0  0  0  0  0  0  0  0  0  0  0  0
    7.6980  -13.8101   18.7897 C   0  0  0  0  0  0  0  0  0  0  0  0
    8.0809  -14.5473   20.0542 C   0  0  0  0  0  0  0  0  0  0  0  0
    8.4629  -15.9875   19.7614 C   0  0  2  0  0  0  0  0  0  0  0  0
    7.2266  -16.5863   19.2262 N   0  0  0  0  0  0  0  0  0  0  0  0
    8.8392  -16.7298   20.9559 C   0  0  0  0  0  0  0  0  0  0  0  0
    7.9527  -17.3896   21.5971 O   0  0  0  0  0  0  0  0  0  0  0  0
   11.3316  -19.4566   24.5378 N   0  0  0  0  0  0  0  0  0  0  0  0
   12.3314  -18.8643   23.7233 C   0  0  0  0  0  0  0  0  0  0  0  0
   13.5265  -19.1862   23.8644 O   0  0  0  0  0  0  0  0  0  0  0  0
   11.9150  -17.8797   22.7289 C   0  0  0  0  0  0  0  0  0  0  0  0
   10.4309  -17.5886   22.7127 C   0  0  2  0  0  0  0  0  0  0  0  0
   10.1387  -16.8204   21.5347 N   0  0  0  0  0  0  0  0  0  0  0  0
   10.1518  -16.8269   23.9687 C   0  0  0  0  0  0  0  0  0  0  0  0
   10.8651  -15.8108   24.1644 O   0  0  0  0  0  0  0  0  0  0  0  0
    9.1659  -17.1792   24.9079 N   0  0  0  0  0  0  0  0  0  0  0  0
    8.9800  -16.4440   26.1635 C   0  0  1  0  0  0  0  0  0  0  0  0
    7.5432  -15.9881   26.3003 C   0  0  0  0  0  0  0  0  0  0  0  0
    7.3809  -14.5207   26.1855 C   0  0  0  0  0  0  0  0  0  0  0  0
    6.1718  -13.9704   25.8191 C   0  0  0  0  0  0  0  0  0  0  0  0
    6.0058  -12.6042   25.7132 C   0  0  0  0  0  0  0  0  0  0  0  0
    7.0553  -11.7279   25.9732 C   0  0  0  0  0  0  0  0  0  0  0  0
    8.2620  -12.2844   26.3394 C   0  0  0  0  0  0  0  0  0  0  0  0
    8.4252  -13.6509   26.4442 C   0  0  0  0  0  0  0  0  0  0  0  0
    9.4538  -17.2241   27.3096 C   0  0  0  0  0  0  0  0  0  0  0  0
    9.9995  -16.7239   28.4532 O   0  0  0  0  0  0  0  0  0  0  0  0
    9.3496  -18.4937   27.2379 O   0  0  0  0  0  0  0  0  0  0  0  0
  1  2  1  0
  3  2  1  0
  4  3  1  0
  5  6  1  1
  5  4  1  0
  7  5  1  0
  8  7  2  0
  9 10  1  0
 10 12  1  0
 10 11  2  0
 13 12  1  6
 13 15  1  0
 13 14  1  0
 14  7  1  0
 15 16  2  0
 17 18  1  0
 17 15  1  0
 18 19  1  1
 20 19  1  0
 21 20  2  0
 22 21  1  0
 23 24  1  0
 23 22  2  0
 24 25  2  0
 25 20  1  0
 26 18  1  0
 27 26  1  0
 28 26  2  0
M  END
$$$$
