MNF.pdb
     RDKit          3D

 28 28  0  0  1  0  0  0  0  0999 V2000
    7.7355  -11.2628   19.6094 C   0  0  0  0  0  0  0  0  0  0  0  0
    8.0390  -12.8104   20.5244 S   0  0  0  0  0  0  0  0  0  0  0  0
    6.4842  -13.7409   20.7301 C   0  0  0  0  0  0  0  0  0  0  0  0
    6.7823  -14.9193   21.6310 C   0  0  0  0  0  0  0  0  0  0  0  0
    7.8295  -15.8330   21.0194 C   0  0  2  0  0  0  0  0  0  0  0  0
    7.0534  -16.7471   20.1619 N   0  0  0  0  0  0  0  0  0  0  0  0
    8.5313  -16.6363   22.0102 C   0  0  0  0  0  0  0  0  0  0  0  0
    7.9337  -17.6180   22.5682 O   0  0  0  0  0  0  0  0  0  0  0  0
   12.6178  -17.6629   20.8078 N   0  0  0  0  0  0  0  0  0  0  0  0
   12.2065  -18.2819   22.0168 C   0  0  0  0  0  0  0  0  0  0  0  0
   12.0843  -19.5201   22.0767 O   0  0  0  0  0  0  0  0  0  0  0  0
   11.9367  -17.4281   23.1700 C   0  0  0  0  0  0  0  0  0  0  0  0
   10.4704  -17.2561   23.4980 C   0  0  2  0  0  0  0  0  0  0  0  0
    9.8712  -16.4597   22.4636 N   0  0  0  0  0  0  0  0  0  0  0  0
   10.4281  -16.5783   24.8301 C   0  0  0  0  0  0  0  0  0  0  0  0
   11.1938  -15.5914   24.9683 O   0  0  0  0  0  0  0  0  0  0  0  0
    9.6032  -16.9769   25.8974 N   0  0  0  0  0  0  0  0  0  0  0  0
    9.7132  -16.3878   27.2362 C   0  0  1  0  0  0  0  0  0  0  0  0
    8.3795  -15.8224   27.6750 C   0  0  0  0  0  0  0  0  0  0  0  0
    7.9619  -14.6346   26.8956 C   0  0  0  0  0  0  0  0  0  0  0  0
    8.5756  -13.4151   27.0835 C   0  0  0  0  0  0  0  0  0  0  0  0
    8.1993  -12.3014   26.3601 C   0  0  0  0  0  0  0  0  0  0  0  0
    7.1836  -12.3673   25.4108 C   0  0  0  0  0  0  0  0  0  0  0  0
    6.5739  -13.5898   25.2273 C   0  0  0  0  0  0  0  0  0  0  0  0
    6.9521  -14.7018   25.9523 C   0  0  0  0  0  0  0  0  0  0  0  0
   10.2817  -17.3433   28.1905 C   0  0  0  0  0  0  0  0  0  0  0  0
   10.7058  -17.0626   29.4543 O   0  0  0  0  0  0  0  0  0  0  0  0
   10.3941  -18.5558   27.8096 O   0  0  0  0  0  0  0  0  0  0  0  0
  1  2  1  0
  3  2  1  0
  4  3  1  0
  5  6  1  6
  5  4  1  0
  7  5  1  0
  8  7  2  0
  9 10  1  0
 10 12  1  0
 10 11  2  0
 13 12  1  6
 13 15  1  0
 13 14  1  0
 14  7  1  0
 15 16  2  0
 17 18  1  0
 17 15  1  0
 18 19  1  1
 20 19  1  0
 21 20  2  0
 22 21  1  0
 23 24  1  0
 23 22  2  0
 24 25  2  0
 25 20  1  0
 26 18  1  0
 27 26  1  0
 28 26  2  0
M  END
$$$$
