MNF.pdb
     RDKit          3D

 28 28  0  0  1  0  0  0  0  0999 V2000
    7.4801  -11.3522   18.9308 C   0  0  0  0  0  0  0  0  0  0  0  0
    7.9365  -12.9523   19.6762 S   0  0  0  0  0  0  0  0  0  0  0  0
    6.4698  -13.7532   20.4063 C   0  0  0  0  0  0  0  0  0  0  0  0
    6.9367  -15.0366   21.0573 C   0  0  0  0  0  0  0  0  0  0  0  0
    8.3796  -14.9306   21.5184 C   0  0  2  0  0  0  0  0  0  0  0  0
    9.1655  -15.3311   20.3371 N   0  0  0  0  0  0  0  0  0  0  0  0
    8.6992  -15.8496   22.6013 C   0  0  0  0  0  0  0  0  0  0  0  0
    7.8733  -16.0064   23.5634 O   0  0  0  0  0  0  0  0  0  0  0  0
   12.1026  -19.2600   21.3403 N   0  0  0  0  0  0  0  0  0  0  0  0
   11.1864  -19.3189   22.4225 C   0  0  0  0  0  0  0  0  0  0  0  0
   10.2791  -20.1724   22.4296 O   0  0  0  0  0  0  0  0  0  0  0  0
   11.3439  -18.3582   23.5106 C   0  0  0  0  0  0  0  0  0  0  0  0
   10.1041  -17.5502   23.8228 C   0  0  2  0  0  0  0  0  0  0  0  0
    9.8782  -16.6396   22.7351 N   0  0  0  0  0  0  0  0  0  0  0  0
   10.3942  -16.8388   25.1054 C   0  0  0  0  0  0  0  0  0  0  0  0
   11.3335  -16.0044   25.0701 O   0  0  0  0  0  0  0  0  0  0  0  0
    9.6929  -17.0500   26.3062 N   0  0  0  0  0  0  0  0  0  0  0  0
   10.0376  -16.3518   27.5493 C   0  0  1  0  0  0  0  0  0  0  0  0
    8.8018  -15.7343   28.1678 C   0  0  0  0  0  0  0  0  0  0  0  0
    8.2517  -14.6089   27.3781 C   0  0  0  0  0  0  0  0  0  0  0  0
    8.9076  -13.3982   27.3222 C   0  0  0  0  0  0  0  0  0  0  0  0
    8.4082  -12.3428   26.5861 C   0  0  0  0  0  0  0  0  0  0  0  0
    7.2206  -12.4610   25.8701 C   0  0  0  0  0  0  0  0  0  0  0  0
    6.5693  -13.6744   25.9298 C   0  0  0  0  0  0  0  0  0  0  0  0
    7.0709  -14.7280   26.6670 C   0  0  0  0  0  0  0  0  0  0  0  0
   10.7688  -17.2308   28.4656 C   0  0  0  0  0  0  0  0  0  0  0  0
   11.4196  -16.8486   29.5996 O   0  0  0  0  0  0  0  0  0  0  0  0
   10.8046  -18.4742   28.1816 O   0  0  0  0  0  0  0  0  0  0  0  0
  1  2  1  0
  3  2  1  0
  4  3  1  0
  5  6  1  6
  5  4  1  0
  7  5  1  0
  8  7  2  0
  9 10  1  0
 10 12  1  0
 10 11  2  0
 13 12  1  6
 13 15  1  0
 13 14  1  0
 14  7  1  0
 15 16  2  0
 17 18  1  0
 17 15  1  0
 18 19  1  1
 20 19  1  0
 21 20  2  0
 22 21  1  0
 23 24  1  0
 23 22  2  0
 24 25  2  0
 25 20  1  0
 26 18  1  0
 27 26  1  0
 28 26  2  0
M  END
$$$$
