EMW.pdb
     RDKit          3D

 32 33  0  0  1  0  0  0  0  0999 V2000
    9.7320  -18.6588   20.3219 N   0  0  0  0  0  0  0  0  0  0  0  0
   11.0005  -17.9301   20.1651 C   0  0  1  0  0  0  0  0  0  0  0  0
   11.3963  -17.8509   18.7327 C   0  0  0  0  0  0  0  0  0  0  0  0
   10.2571  -18.2608   17.8474 C   0  0  0  0  0  0  0  0  0  0  0  0
   10.6960  -18.1116   16.4290 C   0  0  0  0  0  0  0  0  0  0  0  0
    9.9738  -17.5348   15.6089 O   0  0  0  0  0  0  0  0  0  0  0  0
   10.8504  -16.6585   20.8741 C   0  0  0  0  0  0  0  0  0  0  0  0
   11.6863  -15.6927   20.8267 O   0  0  0  0  0  0  0  0  0  0  0  0
   11.9309  -18.6298   16.0356 O   0  0  0  0  0  0  0  0  0  0  0  0
    8.0530  -12.4309   18.9335 C   0  0  0  0  0  0  0  0  0  0  0  0
    6.8496  -13.5000   19.7859 S   0  0  0  0  0  0  0  0  0  0  0  0
    7.7582  -14.7832   20.7272 C   0  0  0  0  0  0  0  0  0  0  0  0
    8.7429  -14.1394   21.6503 C   0  0  0  0  0  0  0  0  0  0  0  0
    9.5890  -15.0920   22.4269 C   0  0  2  0  0  0  0  0  0  0  0  0
    9.7150  -16.3762   21.7110 N   0  0  0  0  0  0  0  0  0  0  0  0
    8.9288  -15.3839   23.6990 C   0  0  0  0  0  0  0  0  0  0  0  0
    7.9908  -14.6973   24.1636 O   0  0  0  0  0  0  0  0  0  0  0  0
    9.3578  -16.4967   24.4611 N   0  0  0  0  0  0  0  0  0  0  0  0
   10.0510  -16.3160   25.7295 C   0  0  1  0  0  0  0  0  0  0  0  0
    9.0857  -16.3693   26.8897 C   0  0  0  0  0  0  0  0  0  0  0  0
    7.8544  -15.6472   26.5048 C   0  0  0  0  0  0  0  0  0  0  0  0
    6.7049  -16.1505   25.9462 C   0  0  0  0  0  0  0  0  0  0  0  0
    5.8252  -15.1361   25.7438 N   0  0  0  0  0  0  0  0  0  0  0  0
    6.3677  -13.9828   26.1546 C   0  0  0  0  0  0  0  0  0  0  0  0
    5.9372  -12.6856   26.1844 C   0  0  0  0  0  0  0  0  0  0  0  0
    6.7316  -11.6508   26.6810 C   0  0  0  0  0  0  0  0  0  0  0  0
    7.9897  -11.9556   27.1547 C   0  0  0  0  0  0  0  0  0  0  0  0
    8.4265  -13.2594   27.1265 C   0  0  0  0  0  0  0  0  0  0  0  0
    7.6225  -14.2846   26.6275 C   0  0  0  0  0  0  0  0  0  0  0  0
   11.0271  -17.4216   25.9061 C   0  0  0  0  0  0  0  0  0  0  0  0
   11.1398  -18.3203   25.0024 O   0  0  0  0  0  0  0  0  0  0  0  0
   11.8496  -17.5687   26.9935 O   0  0  0  0  0  0  0  0  0  0  0  0
  2  1  1  6
  2  7  1  0
  3  4  1  0
  3  2  1  0
  5  9  1  0
  5  4  1  0
  6  5  2  0
  7  8  2  0
  7 15  1  0
 11 10  1  0
 12 11  1  0
 13 12  1  0
 14 13  1  6
 14 16  1  0
 15 14  1  0
 16 17  2  0
 18 16  1  0
 18 19  1  0
 19 20  1  1
 21 20  1  0
 22 21  2  0
 23 22  1  0
 24 23  1  0
 24 29  2  0
 25 26  2  0
 25 24  1  0
 26 27  1  0
 27 28  2  0
 29 28  1  0
 29 21  1  0
 30 32  1  0
 30 19  1  0
 31 30  2  0
M  END
$$$$
