EMW.pdb
     RDKit          3D

 32 33  0  0  1  0  0  0  0  0999 V2000
   11.9040  -19.6582   20.0577 N   0  0  0  0  0  0  0  0  0  0  0  0
   12.5512  -18.3392   19.9787 C   0  0  1  0  0  0  0  0  0  0  0  0
   12.7848  -17.9439   18.5632 C   0  0  0  0  0  0  0  0  0  0  0  0
   11.6919  -18.4707   17.6814 C   0  0  0  0  0  0  0  0  0  0  0  0
   11.9492  -17.9949   16.2907 C   0  0  0  0  0  0  0  0  0  0  0  0
   11.8888  -18.7818   15.3398 O   0  0  0  0  0  0  0  0  0  0  0  0
   11.7489  -17.4230   20.7905 C   0  0  0  0  0  0  0  0  0  0  0  0
   12.0924  -16.2321   21.1029 O   0  0  0  0  0  0  0  0  0  0  0  0
   12.2592  -16.6516   16.0722 O   0  0  0  0  0  0  0  0  0  0  0  0
    6.8652  -13.0876   22.5038 C   0  0  0  0  0  0  0  0  0  0  0  0
    7.4778  -14.4854   21.5094 S   0  0  0  0  0  0  0  0  0  0  0  0
    7.3178  -16.0257   22.4892 C   0  0  0  0  0  0  0  0  0  0  0  0
    8.2097  -17.0855   21.9256 C   0  0  0  0  0  0  0  0  0  0  0  0
    9.6686  -16.8519   22.1332 C   0  0  2  0  0  0  0  0  0  0  0  0
   10.4653  -17.7938   21.3235 N   0  0  0  0  0  0  0  0  0  0  0  0
    9.9973  -17.1200   23.5330 C   0  0  0  0  0  0  0  0  0  0  0  0
   10.4694  -18.2074   23.9353 O   0  0  0  0  0  0  0  0  0  0  0  0
    9.7777  -16.1104   24.5003 N   0  0  0  0  0  0  0  0  0  0  0  0
   10.0817  -16.3387   25.9065 C   0  0  1  0  0  0  0  0  0  0  0  0
    9.5710  -15.2059   26.7647 C   0  0  0  0  0  0  0  0  0  0  0  0
    8.2165  -14.8415   26.2974 C   0  0  0  0  0  0  0  0  0  0  0  0
    7.2059  -15.6683   25.8710 C   0  0  0  0  0  0  0  0  0  0  0  0
    6.1308  -14.9161   25.5215 N   0  0  0  0  0  0  0  0  0  0  0  0
    6.4104  -13.6197   25.7073 C   0  0  0  0  0  0  0  0  0  0  0  0
    5.7117  -12.4592   25.5230 C   0  0  0  0  0  0  0  0  0  0  0  0
    6.2621  -11.2082   25.8063 C   0  0  0  0  0  0  0  0  0  0  0  0
    7.5526  -11.1500   26.2871 C   0  0  0  0  0  0  0  0  0  0  0  0
    8.2589  -12.3152   26.4740 C   0  0  0  0  0  0  0  0  0  0  0  0
    7.6971  -13.5596   26.1869 C   0  0  0  0  0  0  0  0  0  0  0  0
    9.3997  -17.5814   26.3505 C   0  0  0  0  0  0  0  0  0  0  0  0
    8.4746  -18.0913   25.6286 O   0  0  0  0  0  0  0  0  0  0  0  0
    9.6860  -18.2557   27.5097 O   0  0  0  0  0  0  0  0  0  0  0  0
  2  1  1  6
  2  7  1  0
  3  4  1  0
  3  2  1  0
  5  9  1  0
  5  4  1  0
  6  5  2  0
  7  8  2  0
  7 15  1  0
 11 10  1  0
 12 11  1  0
 13 12  1  0
 14 13  1  1
 14 16  1  0
 15 14  1  0
 16 17  2  0
 18 16  1  0
 18 19  1  0
 19 20  1  1
 21 20  1  0
 22 21  2  0
 23 22  1  0
 24 23  1  0
 24 29  2  0
 25 26  2  0
 25 24  1  0
 26 27  1  0
 27 28  2  0
 29 28  1  0
 29 21  1  0
 30 32  1  0
 30 19  1  0
 31 30  2  0
M  END
$$$$
