EMW.pdb
     RDKit          3D

 32 33  0  0  1  0  0  0  0  0999 V2000
   10.9446  -18.9921   19.4138 N   0  0  0  0  0  0  0  0  0  0  0  0
   12.0751  -18.0607   19.5524 C   0  0  1  0  0  0  0  0  0  0  0  0
   12.4681  -17.4989   18.2316 C   0  0  0  0  0  0  0  0  0  0  0  0
   13.1379  -18.5455   17.3917 C   0  0  0  0  0  0  0  0  0  0  0  0
   13.5248  -17.9196   16.0934 C   0  0  0  0  0  0  0  0  0  0  0  0
   12.6579  -17.5000   15.3192 O   0  0  0  0  0  0  0  0  0  0  0  0
   11.7065  -17.0968   20.5903 C   0  0  0  0  0  0  0  0  0  0  0  0
   12.4827  -16.1964   21.0598 O   0  0  0  0  0  0  0  0  0  0  0  0
   14.8759  -17.8120   15.7602 O   0  0  0  0  0  0  0  0  0  0  0  0
    6.6089  -12.7182   20.8213 C   0  0  0  0  0  0  0  0  0  0  0  0
    6.6032  -14.5007   20.4462 S   0  0  0  0  0  0  0  0  0  0  0  0
    8.3198  -15.1340   20.5482 C   0  0  0  0  0  0  0  0  0  0  0  0
    8.6131  -15.5949   21.9402 C   0  0  0  0  0  0  0  0  0  0  0  0
   10.0183  -16.0414   22.1691 C   0  0  2  0  0  0  0  0  0  0  0  0
   10.3993  -17.0780   21.1904 N   0  0  0  0  0  0  0  0  0  0  0  0
   10.1100  -16.6591   23.4918 C   0  0  0  0  0  0  0  0  0  0  0  0
   10.3746  -17.8694   23.6716 O   0  0  0  0  0  0  0  0  0  0  0  0
    9.8916  -15.8646   24.6425 N   0  0  0  0  0  0  0  0  0  0  0  0
   10.0252  -16.4269   25.9797 C   0  0  1  0  0  0  0  0  0  0  0  0
    9.6122  -15.4276   27.0340 C   0  0  0  0  0  0  0  0  0  0  0  0
    8.2812  -14.8941   26.6741 C   0  0  0  0  0  0  0  0  0  0  0  0
    7.1300  -15.5858   26.3858 C   0  0  0  0  0  0  0  0  0  0  0  0
    6.1391  -14.7034   26.0971 N   0  0  0  0  0  0  0  0  0  0  0  0
    6.6104  -13.4533   26.1885 C   0  0  0  0  0  0  0  0  0  0  0  0
    6.0625  -12.2138   26.0084 C   0  0  0  0  0  0  0  0  0  0  0  0
    6.8041  -11.0430   26.1743 C   0  0  0  0  0  0  0  0  0  0  0  0
    8.1313  -11.1490   26.5314 C   0  0  0  0  0  0  0  0  0  0  0  0
    8.6862  -12.3941   26.7136 C   0  0  0  0  0  0  0  0  0  0  0  0
    7.9339  -13.5569   26.5447 C   0  0  0  0  0  0  0  0  0  0  0  0
    9.1262  -17.6033   26.0990 C   0  0  0  0  0  0  0  0  0  0  0  0
    8.1976  -17.7835   25.2375 O   0  0  0  0  0  0  0  0  0  0  0  0
    9.2078  -18.5492   27.0885 O   0  0  0  0  0  0  0  0  0  0  0  0
  2  1  1  6
  2  7  1  0
  3  4  1  0
  3  2  1  0
  5  9  1  0
  5  4  1  0
  6  5  2  0
  7  8  2  0
  7 15  1  0
 11 10  1  0
 12 11  1  0
 13 12  1  0
 14 13  1  6
 14 16  1  0
 15 14  1  0
 16 17  2  0
 18 16  1  0
 18 19  1  0
 19 20  1  1
 21 20  1  0
 22 21  2  0
 23 22  1  0
 24 23  1  0
 24 29  2  0
 25 26  2  0
 25 24  1  0
 26 27  1  0
 27 28  2  0
 29 28  1  0
 29 21  1  0
 30 32  1  0
 30 19  1  0
 31 30  2  0
M  END
$$$$
