EMW.pdb
     RDKit          3D

 32 33  0  0  1  0  0  0  0  0999 V2000
    8.7802  -19.7378   20.7789 N   0  0  0  0  0  0  0  0  0  0  0  0
   10.1361  -19.3587   20.3515 C   0  0  1  0  0  0  0  0  0  0  0  0
   10.3480  -19.6703   18.9119 C   0  0  0  0  0  0  0  0  0  0  0  0
    9.6036  -18.6972   18.0467 C   0  0  0  0  0  0  0  0  0  0  0  0
    9.9683  -18.9683   16.6253 C   0  0  0  0  0  0  0  0  0  0  0  0
    9.2860  -19.7386   15.9411 O   0  0  0  0  0  0  0  0  0  0  0  0
   10.3353  -17.9662   20.7561 C   0  0  0  0  0  0  0  0  0  0  0  0
   11.2806  -17.2129   20.3407 O   0  0  0  0  0  0  0  0  0  0  0  0
   11.0881  -18.3437   16.0740 O   0  0  0  0  0  0  0  0  0  0  0  0
    7.0170  -12.2696   19.8568 C   0  0  0  0  0  0  0  0  0  0  0  0
    6.8394  -12.8737   21.5661 S   0  0  0  0  0  0  0  0  0  0  0  0
    8.4073  -13.6714   22.0794 C   0  0  0  0  0  0  0  0  0  0  0  0
    8.3307  -15.1467   21.8470 C   0  0  0  0  0  0  0  0  0  0  0  0
    9.6230  -15.8745   22.0106 C   0  0  2  0  0  0  0  0  0  0  0  0
    9.4581  -17.3042   21.6844 N   0  0  0  0  0  0  0  0  0  0  0  0
   10.0299  -15.8086   23.4140 C   0  0  0  0  0  0  0  0  0  0  0  0
   10.6787  -14.8551   23.9007 O   0  0  0  0  0  0  0  0  0  0  0  0
    9.6819  -16.8685   24.2851 N   0  0  0  0  0  0  0  0  0  0  0  0
   10.2332  -16.9459   25.6313 C   0  0  1  0  0  0  0  0  0  0  0  0
    9.9248  -15.6945   26.4184 C   0  0  0  0  0  0  0  0  0  0  0  0
    8.4931  -15.3725   26.2392 C   0  0  0  0  0  0  0  0  0  0  0  0
    7.4462  -16.2279   25.9960 C   0  0  0  0  0  0  0  0  0  0  0  0
    6.2985  -15.5103   25.8887 N   0  0  0  0  0  0  0  0  0  0  0  0
    6.5657  -14.2086   26.0551 C   0  0  0  0  0  0  0  0  0  0  0  0
    5.8057  -13.0723   26.0478 C   0  0  0  0  0  0  0  0  0  0  0  0
    6.3590  -11.8076   26.2548 C   0  0  0  0  0  0  0  0  0  0  0  0
    7.7166  -11.7104   26.4727 C   0  0  0  0  0  0  0  0  0  0  0  0
    8.4847  -12.8512   26.4808 C   0  0  0  0  0  0  0  0  0  0  0  0
    7.9192  -14.1095   26.2727 C   0  0  0  0  0  0  0  0  0  0  0  0
    9.6071  -18.0897   26.3426 C   0  0  0  0  0  0  0  0  0  0  0  0
    8.6357  -18.7210   25.7995 O   0  0  0  0  0  0  0  0  0  0  0  0
    9.9940  -18.5461   27.5765 O   0  0  0  0  0  0  0  0  0  0  0  0
  2  1  1  6
  2  7  1  0
  3  4  1  0
  3  2  1  0
  5  9  1  0
  5  4  1  0
  6  5  2  0
  7  8  2  0
  7 15  1  0
 11 10  1  0
 12 11  1  0
 13 12  1  0
 14 13  1  1
 14 16  1  0
 15 14  1  0
 16 17  2  0
 18 16  1  0
 18 19  1  0
 19 20  1  1
 21 20  1  0
 22 21  2  0
 23 22  1  0
 24 23  1  0
 24 29  2  0
 25 26  2  0
 25 24  1  0
 26 27  1  0
 27 28  2  0
 29 28  1  0
 29 21  1  0
 30 32  1  0
 30 19  1  0
 31 30  2  0
M  END
$$$$
