EMW.pdb
     RDKit          3D

 32 33  0  0  1  0  0  0  0  0999 V2000
   10.1404  -17.4075   17.8689 N   0  0  0  0  0  0  0  0  0  0  0  0
   10.5291  -18.3168   18.9582 C   0  0  1  0  0  0  0  0  0  0  0  0
   12.0004  -18.5403   18.9668 C   0  0  0  0  0  0  0  0  0  0  0  0
   12.7306  -17.2530   18.7237 C   0  0  0  0  0  0  0  0  0  0  0  0
   14.1142  -17.3962   19.2641 C   0  0  0  0  0  0  0  0  0  0  0  0
   14.9536  -16.5092   19.0756 O   0  0  0  0  0  0  0  0  0  0  0  0
    9.9409  -17.7830   20.1875 C   0  0  0  0  0  0  0  0  0  0  0  0
   10.0237  -16.5656   20.5682 O   0  0  0  0  0  0  0  0  0  0  0  0
   14.4530  -18.5421   19.9855 O   0  0  0  0  0  0  0  0  0  0  0  0
    6.6313  -21.1791   25.3012 C   0  0  0  0  0  0  0  0  0  0  0  0
    5.6321  -19.8108   24.6324 S   0  0  0  0  0  0  0  0  0  0  0  0
    6.7562  -18.5008   24.0172 C   0  0  0  0  0  0  0  0  0  0  0  0
    7.5436  -19.0082   22.8515 C   0  0  0  0  0  0  0  0  0  0  0  0
    8.5040  -18.0260   22.2691 C   0  0  2  0  0  0  0  0  0  0  0  0
    9.1957  -18.6064   21.1018 N   0  0  0  0  0  0  0  0  0  0  0  0
    9.5357  -17.7260   23.2616 C   0  0  0  0  0  0  0  0  0  0  0  0
   10.5748  -18.4091   23.4055 O   0  0  0  0  0  0  0  0  0  0  0  0
    9.3702  -16.6088   24.1147 N   0  0  0  0  0  0  0  0  0  0  0  0
   10.3115  -16.3421   25.1940 C   0  0  1  0  0  0  0  0  0  0  0  0
   10.0834  -14.9731   25.7892 C   0  0  0  0  0  0  0  0  0  0  0  0
    8.6261  -14.7386   25.8732 C   0  0  0  0  0  0  0  0  0  0  0  0
    7.6194  -15.6559   26.0521 C   0  0  0  0  0  0  0  0  0  0  0  0
    6.4241  -15.0117   26.0597 N   0  0  0  0  0  0  0  0  0  0  0  0
    6.6211  -13.6980   25.8905 C   0  0  0  0  0  0  0  0  0  0  0  0
    5.7930  -12.6125   25.8202 C   0  0  0  0  0  0  0  0  0  0  0  0
    6.2801  -11.3179   25.6331 C   0  0  0  0  0  0  0  0  0  0  0  0
    7.6416  -11.1370   25.5164 C   0  0  0  0  0  0  0  0  0  0  0  0
    8.4781  -12.2264   25.5866 C   0  0  0  0  0  0  0  0  0  0  0  0
    7.9784  -13.5155   25.7739 C   0  0  0  0  0  0  0  0  0  0  0  0
   10.1022  -17.3416   26.2728 C   0  0  0  0  0  0  0  0  0  0  0  0
    9.0654  -18.0909   26.2524 O   0  0  0  0  0  0  0  0  0  0  0  0
   10.9554  -17.5394   27.3280 O   0  0  0  0  0  0  0  0  0  0  0  0
  2  1  1  6
  2  7  1  0
  3  4  1  0
  3  2  1  0
  5  9  1  0
  5  4  1  0
  6  5  2  0
  7  8  2  0
  7 15  1  0
 11 10  1  0
 12 11  1  0
 13 12  1  0
 14 13  1  1
 14 16  1  0
 15 14  1  0
 16 17  2  0
 18 16  1  0
 18 19  1  0
 19 20  1  1
 21 20  1  0
 22 21  2  0
 23 22  1  0
 24 23  1  0
 24 29  2  0
 25 26  2  0
 25 24  1  0
 26 27  1  0
 27 28  2  0
 29 28  1  0
 29 21  1  0
 30 32  1  0
 30 19  1  0
 31 30  2  0
M  END
$$$$
