EMW.pdb
     RDKit          3D

 32 33  0  0  1  0  0  0  0  0999 V2000
   10.6630  -19.1332   19.0030 N   0  0  0  0  0  0  0  0  0  0  0  0
   11.6647  -18.0775   19.2193 C   0  0  1  0  0  0  0  0  0  0  0  0
   12.1192  -17.5005   17.9251 C   0  0  0  0  0  0  0  0  0  0  0  0
   10.9881  -17.4566   16.9411 C   0  0  0  0  0  0  0  0  0  0  0  0
   11.4567  -16.7228   15.7292 C   0  0  0  0  0  0  0  0  0  0  0  0
   12.3285  -17.2104   15.0018 O   0  0  0  0  0  0  0  0  0  0  0  0
   11.0929  -17.1415   20.1885 C   0  0  0  0  0  0  0  0  0  0  0  0
   11.6459  -16.0531   20.5667 O   0  0  0  0  0  0  0  0  0  0  0  0
   10.9013  -15.4793   15.4235 O   0  0  0  0  0  0  0  0  0  0  0  0
    6.9726  -12.8321   19.4472 C   0  0  0  0  0  0  0  0  0  0  0  0
    7.8409  -13.8491   20.6841 S   0  0  0  0  0  0  0  0  0  0  0  0
    7.2280  -15.5725   20.5711 C   0  0  0  0  0  0  0  0  0  0  0  0
    7.7723  -16.3842   21.7030 C   0  0  0  0  0  0  0  0  0  0  0  0
    9.2614  -16.4146   21.7927 C   0  0  2  0  0  0  0  0  0  0  0  0
    9.8204  -17.3718   20.8186 N   0  0  0  0  0  0  0  0  0  0  0  0
    9.6467  -16.8935   23.1200 C   0  0  0  0  0  0  0  0  0  0  0  0
   10.0746  -18.0493   23.3396 O   0  0  0  0  0  0  0  0  0  0  0  0
    9.5379  -16.0203   24.2285 N   0  0  0  0  0  0  0  0  0  0  0  0
    9.9363  -16.4475   25.5630 C   0  0  1  0  0  0  0  0  0  0  0  0
    9.6776  -15.3629   26.5815 C   0  0  0  0  0  0  0  0  0  0  0  0
    8.2796  -14.9062   26.4308 C   0  0  0  0  0  0  0  0  0  0  0  0
    7.1464  -15.6609   26.2491 C   0  0  0  0  0  0  0  0  0  0  0  0
    6.0721  -14.8366   26.1475 N   0  0  0  0  0  0  0  0  0  0  0  0
    6.4714  -13.5631   26.2578 C   0  0  0  0  0  0  0  0  0  0  0  0
    5.8273  -12.3576   26.2296 C   0  0  0  0  0  0  0  0  0  0  0  0
    6.5088  -11.1480   26.3736 C   0  0  0  0  0  0  0  0  0  0  0  0
    7.8756  -11.1792   26.5495 C   0  0  0  0  0  0  0  0  0  0  0  0
    8.5274  -12.3898   26.5785 C   0  0  0  0  0  0  0  0  0  0  0  0
    7.8344  -13.5920   26.4333 C   0  0  0  0  0  0  0  0  0  0  0  0
    9.1263  -17.6307   25.9512 C   0  0  0  0  0  0  0  0  0  0  0  0
    8.0661  -17.9180   25.2952 O   0  0  0  0  0  0  0  0  0  0  0  0
    9.4272  -18.4742   26.9896 O   0  0  0  0  0  0  0  0  0  0  0  0
  2  1  1  6
  2  7  1  0
  3  4  1  0
  3  2  1  0
  5  9  1  0
  5  4  1  0
  6  5  2  0
  7  8  2  0
  7 15  1  0
 11 10  1  0
 12 11  1  0
 13 12  1  0
 14 13  1  1
 14 16  1  0
 15 14  1  0
 16 17  2  0
 18 16  1  0
 18 19  1  0
 19 20  1  1
 21 20  1  0
 22 21  2  0
 23 22  1  0
 24 23  1  0
 24 29  2  0
 25 26  2  0
 25 24  1  0
 26 27  1  0
 27 28  2  0
 29 28  1  0
 29 21  1  0
 30 32  1  0
 30 19  1  0
 31 30  2  0
M  END
$$$$
