EMW.pdb
     RDKit          3D

 32 33  0  0  1  0  0  0  0  0999 V2000
   10.0910  -17.8583   17.0466 N   0  0  0  0  0  0  0  0  0  0  0  0
   10.7393  -18.3933   18.2542 C   0  0  1  0  0  0  0  0  0  0  0  0
   12.1914  -18.6226   18.0226 C   0  0  0  0  0  0  0  0  0  0  0  0
   12.7969  -17.4655   17.2850 C   0  0  0  0  0  0  0  0  0  0  0  0
   14.2445  -17.7584   17.0722 C   0  0  0  0  0  0  0  0  0  0  0  0
   15.1021  -16.9204   17.3708 O   0  0  0  0  0  0  0  0  0  0  0  0
   10.3855  -17.4993   19.3577 C   0  0  0  0  0  0  0  0  0  0  0  0
   11.1992  -16.7096   19.9477 O   0  0  0  0  0  0  0  0  0  0  0  0
   14.6226  -18.9887   16.5321 O   0  0  0  0  0  0  0  0  0  0  0  0
    9.1015  -12.9179   19.6185 C   0  0  0  0  0  0  0  0  0  0  0  0
    7.3389  -13.3549   19.4752 S   0  0  0  0  0  0  0  0  0  0  0  0
    7.1935  -15.1678   19.2505 C   0  0  0  0  0  0  0  0  0  0  0  0
    7.3133  -15.8583   20.5716 C   0  0  0  0  0  0  0  0  0  0  0  0
    8.6706  -16.3983   20.8754 C   0  0  2  0  0  0  0  0  0  0  0  0
    9.0512  -17.4292   19.8905 N   0  0  0  0  0  0  0  0  0  0  0  0
    8.6376  -17.0571   22.1809 C   0  0  0  0  0  0  0  0  0  0  0  0
    8.8079  -18.2873   22.3379 O   0  0  0  0  0  0  0  0  0  0  0  0
    8.4019  -16.2812   23.3410 N   0  0  0  0  0  0  0  0  0  0  0  0
    9.1940  -16.4754   24.5480 C   0  0  1  0  0  0  0  0  0  0  0  0
    9.4616  -15.1605   25.2408 C   0  0  0  0  0  0  0  0  0  0  0  0
    8.1700  -14.4707   25.4457 C   0  0  0  0  0  0  0  0  0  0  0  0
    6.9540  -14.7387   24.8660 C   0  0  0  0  0  0  0  0  0  0  0  0
    6.0337  -13.8540   25.3289 N   0  0  0  0  0  0  0  0  0  0  0  0
    6.6144  -13.0144   26.1956 C   0  0  0  0  0  0  0  0  0  0  0  0
    6.1699  -11.9580   26.9409 C   0  0  0  0  0  0  0  0  0  0  0  0
    7.0155  -11.2381   27.7865 C   0  0  0  0  0  0  0  0  0  0  0  0
    8.3401  -11.6110   27.8667 C   0  0  0  0  0  0  0  0  0  0  0  0
    8.7911  -12.6732   27.1186 C   0  0  0  0  0  0  0  0  0  0  0  0
    7.9355  -13.3848   26.2771 C   0  0  0  0  0  0  0  0  0  0  0  0
    8.4315  -17.3331   25.4911 C   0  0  0  0  0  0  0  0  0  0  0  0
    7.2179  -17.6424   25.2294 O   0  0  0  0  0  0  0  0  0  0  0  0
    8.9334  -17.8421   26.6613 O   0  0  0  0  0  0  0  0  0  0  0  0
  2  1  1  6
  2  7  1  0
  3  4  1  0
  3  2  1  0
  5  9  1  0
  5  4  1  0
  6  5  2  0
  7  8  2  0
  7 15  1  0
 11 10  1  0
 12 11  1  0
 13 12  1  0
 14 13  1  6
 14 16  1  0
 15 14  1  0
 16 17  2  0
 18 16  1  0
 18 19  1  0
 19 20  1  1
 21 20  1  0
 22 21  2  0
 23 22  1  0
 24 23  1  0
 24 29  2  0
 25 26  2  0
 25 24  1  0
 26 27  1  0
 27 28  2  0
 29 28  1  0
 29 21  1  0
 30 32  1  0
 30 19  1  0
 31 30  2  0
M  END
$$$$
