WTV.pdb
     RDKit          3D

 29 30  0  0  1  0  0  0  0  0999 V2000
    6.2928  -17.2544   24.3446 N   0  0  0  0  0  0  0  0  0  0  0  0
    7.4553  -16.4734   24.0956 C   0  0  1  0  0  0  0  0  0  0  0  0
    7.7534  -15.5285   25.2245 C   0  0  0  0  0  0  0  0  0  0  0  0
    6.6862  -14.5757   25.5394 C   0  0  0  0  0  0  0  0  0  0  0  0
    5.3850  -14.9026   25.9382 C   0  0  0  0  0  0  0  0  0  0  0  0
    4.6811  -13.7901   26.1671 N   0  0  0  0  0  0  0  0  0  0  0  0
    5.4711  -12.7250   25.9333 C   0  0  0  0  0  0  0  0  0  0  0  0
    5.2283  -11.3717   26.0165 C   0  0  0  0  0  0  0  0  0  0  0  0
    6.2528  -10.5095   25.7017 C   0  0  0  0  0  0  0  0  0  0  0  0
    7.4949  -10.9547   25.3117 C   0  0  0  0  0  0  0  0  0  0  0  0
    7.7426  -12.3217   25.2272 C   0  0  0  0  0  0  0  0  0  0  0  0
    6.7199  -13.1884   25.5422 C   0  0  0  0  0  0  0  0  0  0  0  0
    8.6491  -17.3370   23.8998 C   0  0  0  0  0  0  0  0  0  0  0  0
    8.6154  -18.4745   24.4661 O   0  0  0  0  0  0  0  0  0  0  0  0
   11.3407  -17.8507   21.0019 C   0  0  0  0  0  0  0  0  0  0  0  0
   11.9468  -17.3209   22.2564 C   0  0  1  0  0  0  0  0  0  0  0  0
   12.2237  -15.9506   22.0535 O   0  0  0  0  0  0  0  0  0  0  0  0
   11.0614  -17.5224   23.4682 C   0  0  2  0  0  0  0  0  0  0  0  0
    9.7772  -16.9449   23.1319 N   0  0  0  0  0  0  0  0  0  0  0  0
   11.6417  -16.9005   24.6829 C   0  0  0  0  0  0  0  0  0  0  0  0
   12.4515  -15.9524   24.5440 O   0  0  0  0  0  0  0  0  0  0  0  0
    9.7769  -15.3255   27.5916 C   0  0  0  0  0  0  0  0  0  0  0  0
   11.2699  -15.2744   27.3841 C   0  0  1  0  0  0  0  0  0  0  0  0
   11.8987  -14.6542   28.6115 C   0  0  0  0  0  0  0  0  0  0  0  0
   11.8811  -16.6268   27.1722 C   0  0  2  0  0  0  0  0  0  0  0  0
   11.3424  -17.3062   26.0073 N   0  0  0  0  0  0  0  0  0  0  0  0
   11.5906  -17.4542   28.3715 C   0  0  0  0  0  0  0  0  0  0  0  0
   12.1286  -17.1008   29.6215 O   0  0  0  0  0  0  0  0  0  0  0  0
   10.8681  -18.4711   28.2900 O   0  0  0  0  0  0  0  0  0  0  0  0
  2  1  1  1
  2 13  1  0
  2  3  1  0
  3  4  1  0
  4  5  2  0
  4 12  1  0
  5  6  1  0
  6  7  1  0
  7  8  2  0
  9  8  1  0
 10  9  2  0
 11 12  2  0
 11 10  1  0
 12  7  1  0
 13 14  2  0
 13 19  1  0
 16 15  1  6
 16 17  1  0
 18 16  1  0
 18 19  1  6
 20 21  2  0
 20 18  1  0
 23 22  1  1
 23 25  1  0
 24 23  1  0
 25 26  1  6
 26 20  1  0
 27 25  1  0
 28 27  1  0
 29 27  2  0
M  END
$$$$
