WTV.pdb
     RDKit          3D

 29 30  0  0  1  0  0  0  0  0999 V2000
    6.0832  -17.2245   24.2654 N   0  0  0  0  0  0  0  0  0  0  0  0
    7.2838  -16.4937   24.0469 C   0  0  1  0  0  0  0  0  0  0  0  0
    7.6369  -15.6239   25.2194 C   0  0  0  0  0  0  0  0  0  0  0  0
    6.6723  -14.5642   25.5234 C   0  0  0  0  0  0  0  0  0  0  0  0
    5.3530  -14.7529   25.9511 C   0  0  0  0  0  0  0  0  0  0  0  0
    4.7637  -13.5717   26.1592 N   0  0  0  0  0  0  0  0  0  0  0  0
    5.6485  -12.5947   25.8834 C   0  0  0  0  0  0  0  0  0  0  0  0
    5.5387  -11.2225   25.9320 C   0  0  0  0  0  0  0  0  0  0  0  0
    6.6357  -10.4723   25.5774 C   0  0  0  0  0  0  0  0  0  0  0  0
    7.8219  -11.0459   25.1812 C   0  0  0  0  0  0  0  0  0  0  0  0
    7.9352  -12.4322   25.1316 C   0  0  0  0  0  0  0  0  0  0  0  0
    6.8396  -13.1870   25.4865 C   0  0  0  0  0  0  0  0  0  0  0  0
    8.4295  -17.4074   23.7986 C   0  0  0  0  0  0  0  0  0  0  0  0
    8.3708  -18.5444   24.3639 O   0  0  0  0  0  0  0  0  0  0  0  0
   11.1222  -17.9777   20.9460 C   0  0  0  0  0  0  0  0  0  0  0  0
   11.7405  -17.4000   22.1731 C   0  0  1  0  0  0  0  0  0  0  0  0
   12.0492  -16.0485   21.9023 O   0  0  0  0  0  0  0  0  0  0  0  0
   10.8508  -17.5201   23.3925 C   0  0  2  0  0  0  0  0  0  0  0  0
    9.5398  -17.0618   22.9838 N   0  0  0  0  0  0  0  0  0  0  0  0
   11.3752  -16.7344   24.5356 C   0  0  0  0  0  0  0  0  0  0  0  0
   11.8637  -15.6007   24.3115 O   0  0  0  0  0  0  0  0  0  0  0  0
    9.5545  -15.5345   27.6162 C   0  0  0  0  0  0  0  0  0  0  0  0
   10.9633  -15.1637   27.2258 C   0  0  1  0  0  0  0  0  0  0  0  0
   11.5689  -14.3518   28.3486 C   0  0  0  0  0  0  0  0  0  0  0  0
   11.8385  -16.3556   26.9791 C   0  0  2  0  0  0  0  0  0  0  0  0
   11.3635  -17.1789   25.8811 N   0  0  0  0  0  0  0  0  0  0  0  0
   11.8460  -17.1821   28.2136 C   0  0  0  0  0  0  0  0  0  0  0  0
   11.4036  -18.5161   28.1742 O   0  0  0  0  0  0  0  0  0  0  0  0
   12.2431  -16.7088   29.3004 O   0  0  0  0  0  0  0  0  0  0  0  0
  2  1  1  1
  2 13  1  0
  2  3  1  0
  3  4  1  0
  4  5  2  0
  4 12  1  0
  5  6  1  0
  6  7  1  0
  7  8  2  0
  9  8  1  0
 10  9  2  0
 11 12  2  0
 11 10  1  0
 12  7  1  0
 13 14  2  0
 13 19  1  0
 16 15  1  6
 16 17  1  0
 18 16  1  0
 18 19  1  6
 20 21  2  0
 20 18  1  0
 23 22  1  1
 23 25  1  0
 24 23  1  0
 25 26  1  6
 26 20  1  0
 27 25  1  0
 28 27  1  0
 29 27  2  0
M  END
$$$$
