WTV.pdb
     RDKit          3D

 29 30  0  0  1  0  0  0  0  0999 V2000
    6.2335  -17.4884   24.2337 N   0  0  0  0  0  0  0  0  0  0  0  0
    7.1060  -16.5143   23.6739 C   0  0  1  0  0  0  0  0  0  0  0  0
    7.7993  -15.7030   24.7309 C   0  0  0  0  0  0  0  0  0  0  0  0
    6.9384  -14.7790   25.4733 C   0  0  0  0  0  0  0  0  0  0  0  0
    5.8238  -15.1335   26.2419 C   0  0  0  0  0  0  0  0  0  0  0  0
    5.2856  -14.0453   26.8006 N   0  0  0  0  0  0  0  0  0  0  0  0
    6.0059  -12.9699   26.4293 C   0  0  0  0  0  0  0  0  0  0  0  0
    5.8672  -11.6314   26.7240 C   0  0  0  0  0  0  0  0  0  0  0  0
    6.7731  -10.7513   26.1792 C   0  0  0  0  0  0  0  0  0  0  0  0
    7.7985  -11.1645   25.3601 C   0  0  0  0  0  0  0  0  0  0  0  0
    7.9407  -12.5164   25.0612 C   0  0  0  0  0  0  0  0  0  0  0  0
    7.0364  -13.4010   25.6051 C   0  0  0  0  0  0  0  0  0  0  0  0
    8.1524  -17.1525   22.8330 C   0  0  0  0  0  0  0  0  0  0  0  0
    8.4860  -18.3354   23.1572 O   0  0  0  0  0  0  0  0  0  0  0  0
    8.8498  -16.5833   19.0048 C   0  0  0  0  0  0  0  0  0  0  0  0
   10.1200  -16.5327   19.7831 C   0  0  1  0  0  0  0  0  0  0  0  0
   10.5511  -15.1879   19.8136 O   0  0  0  0  0  0  0  0  0  0  0  0
    9.9738  -17.0880   21.1843 C   0  0  2  0  0  0  0  0  0  0  0  0
    8.7637  -16.5067   21.7260 N   0  0  0  0  0  0  0  0  0  0  0  0
   11.1556  -16.7782   22.0248 C   0  0  0  0  0  0  0  0  0  0  0  0
   11.2924  -15.6101   22.4616 O   0  0  0  0  0  0  0  0  0  0  0  0
   12.4344  -18.0197   25.4221 C   0  0  0  0  0  0  0  0  0  0  0  0
   13.4888  -18.2464   24.3678 C   0  0  1  0  0  0  0  0  0  0  0  0
   13.4073  -19.6876   23.9172 C   0  0  0  0  0  0  0  0  0  0  0  0
   13.3189  -17.3654   23.1667 C   0  0  2  0  0  0  0  0  0  0  0  0
   12.1546  -17.7204   22.3747 N   0  0  0  0  0  0  0  0  0  0  0  0
   14.5268  -17.5143   22.3146 C   0  0  0  0  0  0  0  0  0  0  0  0
   15.7765  -17.0633   22.7745 O   0  0  0  0  0  0  0  0  0  0  0  0
   14.4527  -18.0394   21.1825 O   0  0  0  0  0  0  0  0  0  0  0  0
  2  1  1  1
  2 13  1  0
  2  3  1  0
  3  4  1  0
  4  5  2  0
  4 12  1  0
  5  6  1  0
  6  7  1  0
  7  8  2  0
  9  8  1  0
 10  9  2  0
 11 12  2  0
 11 10  1  0
 12  7  1  0
 13 14  2  0
 13 19  1  0
 16 15  1  1
 16 17  1  0
 18 16  1  0
 18 19  1  1
 20 21  2  0
 20 18  1  0
 23 22  1  1
 23 25  1  0
 24 23  1  0
 25 26  1  6
 26 20  1  0
 27 25  1  0
 28 27  1  0
 29 27  2  0
M  END
$$$$
