WTV.pdb
     RDKit          3D

 29 30  0  0  1  0  0  0  0  0999 V2000
    6.3906  -17.1615   25.0004 N   0  0  0  0  0  0  0  0  0  0  0  0
    7.5144  -16.5097   24.4212 C   0  0  1  0  0  0  0  0  0  0  0  0
    7.9212  -15.2893   25.1966 C   0  0  0  0  0  0  0  0  0  0  0  0
    6.8309  -14.3694   25.5298 C   0  0  0  0  0  0  0  0  0  0  0  0
    5.5237  -14.7350   25.8712 C   0  0  0  0  0  0  0  0  0  0  0  0
    4.7965  -13.6462   26.1382 N   0  0  0  0  0  0  0  0  0  0  0  0
    5.5769  -12.5594   25.9858 C   0  0  0  0  0  0  0  0  0  0  0  0
    5.3112  -11.2159   26.1341 C   0  0  0  0  0  0  0  0  0  0  0  0
    6.3314  -10.3243   25.8970 C   0  0  0  0  0  0  0  0  0  0  0  0
    7.5909  -10.7308   25.5212 C   0  0  0  0  0  0  0  0  0  0  0  0
    7.8617  -12.0878   25.3709 C   0  0  0  0  0  0  0  0  0  0  0  0
    6.8435  -12.9839   25.6081 C   0  0  0  0  0  0  0  0  0  0  0  0
    8.6882  -17.4196   24.3592 C   0  0  0  0  0  0  0  0  0  0  0  0
    8.6511  -18.4333   25.1252 O   0  0  0  0  0  0  0  0  0  0  0  0
   11.2775  -18.2195   21.4035 C   0  0  0  0  0  0  0  0  0  0  0  0
   11.9448  -17.7138   22.6368 C   0  0  1  0  0  0  0  0  0  0  0  0
   12.3338  -16.3773   22.3967 O   0  0  0  0  0  0  0  0  0  0  0  0
   11.0635  -17.8108   23.8643 C   0  0  2  0  0  0  0  0  0  0  0  0
    9.8015  -17.1986   23.5061 N   0  0  0  0  0  0  0  0  0  0  0  0
   11.6811  -17.1484   25.0386 C   0  0  0  0  0  0  0  0  0  0  0  0
   12.4585  -16.1832   24.8438 O   0  0  0  0  0  0  0  0  0  0  0  0
   10.6269  -14.8609   27.4518 C   0  0  0  0  0  0  0  0  0  0  0  0
   11.1857  -15.9930   28.2768 C   0  0  1  0  0  0  0  0  0  0  0  0
   10.0303  -16.8279   28.7814 C   0  0  0  0  0  0  0  0  0  0  0  0
   12.1104  -16.8841   27.5033 C   0  0  2  0  0  0  0  0  0  0  0  0
   11.4524  -17.5331   26.3831 N   0  0  0  0  0  0  0  0  0  0  0  0
   12.6104  -17.9365   28.4251 C   0  0  0  0  0  0  0  0  0  0  0  0
   13.4391  -17.5928   29.5077 O   0  0  0  0  0  0  0  0  0  0  0  0
   12.3048  -19.1367   28.2549 O   0  0  0  0  0  0  0  0  0  0  0  0
  2  1  1  1
  2 13  1  0
  2  3  1  0
  3  4  1  0
  4  5  2  0
  4 12  1  0
  5  6  1  0
  6  7  1  0
  7  8  2  0
  9  8  1  0
 10  9  2  0
 11 12  2  0
 11 10  1  0
 12  7  1  0
 13 14  2  0
 13 19  1  0
 16 15  1  6
 16 17  1  0
 18 16  1  0
 18 19  1  6
 20 21  2  0
 20 18  1  0
 23 22  1  6
 23 25  1  0
 24 23  1  0
 25 26  1  6
 26 20  1  0
 27 25  1  0
 28 27  1  0
 29 27  2  0
M  END
$$$$
