WTV.pdb
     RDKit          3D

 29 30  0  0  1  0  0  0  0  0999 V2000
    7.0641  -16.7674   23.0986 N   0  0  0  0  0  0  0  0  0  0  0  0
    8.1747  -16.0404   23.6096 C   0  0  1  0  0  0  0  0  0  0  0  0
    7.9839  -15.6553   25.0489 C   0  0  0  0  0  0  0  0  0  0  0  0
    6.8382  -14.7820   25.3148 C   0  0  0  0  0  0  0  0  0  0  0  0
    5.5813  -15.1933   25.7731 C   0  0  0  0  0  0  0  0  0  0  0  0
    4.7806  -14.1351   25.9308 N   0  0  0  0  0  0  0  0  0  0  0  0
    5.4627  -13.0248   25.5915 C   0  0  0  0  0  0  0  0  0  0  0  0
    5.0956  -11.6973   25.5724 C   0  0  0  0  0  0  0  0  0  0  0  0
    6.0285  -10.7734   25.1623 C   0  0  0  0  0  0  0  0  0  0  0  0
    7.2992  -11.1331   24.7762 C   0  0  0  0  0  0  0  0  0  0  0  0
    7.6724  -12.4738   24.7949 C   0  0  0  0  0  0  0  0  0  0  0  0
    6.7417  -13.4019   25.2055 C   0  0  0  0  0  0  0  0  0  0  0  0
    9.4259  -16.8373   23.5155 C   0  0  0  0  0  0  0  0  0  0  0  0
    9.4730  -17.6957   22.5792 O   0  0  0  0  0  0  0  0  0  0  0  0
   11.3175  -17.1973   21.6857 C   0  0  0  0  0  0  0  0  0  0  0  0
   12.2591  -16.9503   22.8146 C   0  0  1  0  0  0  0  0  0  0  0  0
   12.5264  -15.5639   22.8546 O   0  0  0  0  0  0  0  0  0  0  0  0
   11.7243  -17.4389   24.1443 C   0  0  2  0  0  0  0  0  0  0  0  0
   10.5223  -16.6745   24.4028 N   0  0  0  0  0  0  0  0  0  0  0  0
   12.7210  -17.2784   25.2305 C   0  0  0  0  0  0  0  0  0  0  0  0
   13.7547  -16.6050   25.0026 O   0  0  0  0  0  0  0  0  0  0  0  0
   10.0716  -16.5526   28.5220 C   0  0  0  0  0  0  0  0  0  0  0  0
   11.1998  -16.1307   27.6145 C   0  0  1  0  0  0  0  0  0  0  0  0
   11.6175  -14.7285   27.9967 C   0  0  0  0  0  0  0  0  0  0  0  0
   12.3995  -17.0244   27.7126 C   0  0  2  0  0  0  0  0  0  0  0  0
   12.5870  -17.8390   26.5251 N   0  0  0  0  0  0  0  0  0  0  0  0
   12.2027  -17.9298   28.8740 C   0  0  0  0  0  0  0  0  0  0  0  0
   11.7913  -19.2591   28.6727 O   0  0  0  0  0  0  0  0  0  0  0  0
   12.3983  -17.5278   30.0415 O   0  0  0  0  0  0  0  0  0  0  0  0
  2  1  1  1
  2 13  1  0
  2  3  1  0
  3  4  1  0
  4  5  2  0
  4 12  1  0
  5  6  1  0
  6  7  1  0
  7  8  2  0
  9  8  1  0
 10  9  2  0
 11 12  2  0
 11 10  1  0
 12  7  1  0
 13 14  2  0
 13 19  1  0
 16 15  1  6
 16 17  1  0
 18 16  1  0
 18 19  1  1
 20 21  2  0
 20 18  1  0
 23 22  1  1
 23 25  1  0
 24 23  1  0
 25 26  1  6
 26 20  1  0
 27 25  1  0
 28 27  1  0
 29 27  2  0
M  END
$$$$
