WTV.pdb
     RDKit          3D

 29 30  0  0  1  0  0  0  0  0999 V2000
    6.2120  -17.0474   23.9352 N   0  0  0  0  0  0  0  0  0  0  0  0
    7.4584  -16.3630   23.9739 C   0  0  1  0  0  0  0  0  0  0  0  0
    7.6928  -15.6907   25.2964 C   0  0  0  0  0  0  0  0  0  0  0  0
    6.7484  -14.6213   25.6291 C   0  0  0  0  0  0  0  0  0  0  0  0
    5.5282  -14.7816   26.2957 C   0  0  0  0  0  0  0  0  0  0  0  0
    4.9324  -13.5962   26.4556 N   0  0  0  0  0  0  0  0  0  0  0  0
    5.7165  -12.6440   25.9154 C   0  0  0  0  0  0  0  0  0  0  0  0
    5.5584  -11.2794   25.8141 C   0  0  0  0  0  0  0  0  0  0  0  0
    6.5480  -10.5577   25.1883 C   0  0  0  0  0  0  0  0  0  0  0  0
    7.6747  -11.1520   24.6683 C   0  0  0  0  0  0  0  0  0  0  0  0
    7.8367  -12.5307   24.7698 C   0  0  0  0  0  0  0  0  0  0  0  0
    6.8487  -13.2570   25.3962 C   0  0  0  0  0  0  0  0  0  0  0  0
    8.5898  -17.2963   23.7328 C   0  0  0  0  0  0  0  0  0  0  0  0
    8.3703  -18.5207   23.9946 O   0  0  0  0  0  0  0  0  0  0  0  0
   11.4951  -18.1288   21.3397 C   0  0  0  0  0  0  0  0  0  0  0  0
   12.0363  -17.5419   22.5984 C   0  0  1  0  0  0  0  0  0  0  0  0
   12.4565  -16.2242   22.3112 O   0  0  0  0  0  0  0  0  0  0  0  0
   11.0336  -17.5570   23.7331 C   0  0  2  0  0  0  0  0  0  0  0  0
    9.8540  -16.8778   23.2400 N   0  0  0  0  0  0  0  0  0  0  0  0
   11.5724  -16.9063   24.9519 C   0  0  0  0  0  0  0  0  0  0  0  0
   12.2503  -15.8585   24.8237 O   0  0  0  0  0  0  0  0  0  0  0  0
   10.9273  -14.5972   27.3836 C   0  0  0  0  0  0  0  0  0  0  0  0
   11.2258  -15.8471   28.1731 C   0  0  1  0  0  0  0  0  0  0  0  0
    9.9134  -16.5098   28.5269 C   0  0  0  0  0  0  0  0  0  0  0  0
   12.0648  -16.8337   27.4179 C   0  0  2  0  0  0  0  0  0  0  0  0
   11.3729  -17.3903   26.2688 N   0  0  0  0  0  0  0  0  0  0  0  0
   12.4069  -17.9461   28.3413 C   0  0  0  0  0  0  0  0  0  0  0  0
   13.2320  -17.7121   29.4554 O   0  0  0  0  0  0  0  0  0  0  0  0
   11.9698  -19.1008   28.1447 O   0  0  0  0  0  0  0  0  0  0  0  0
  2  1  1  1
  2 13  1  0
  2  3  1  0
  3  4  1  0
  4  5  2  0
  4 12  1  0
  5  6  1  0
  6  7  1  0
  7  8  2  0
  9  8  1  0
 10  9  2  0
 11 12  2  0
 11 10  1  0
 12  7  1  0
 13 14  2  0
 13 19  1  0
 16 15  1  6
 16 17  1  0
 18 16  1  0
 18 19  1  6
 20 21  2  0
 20 18  1  0
 23 22  1  6
 23 25  1  0
 24 23  1  0
 25 26  1  6
 26 20  1  0
 27 25  1  0
 28 27  1  0
 29 27  2  0
M  END
$$$$
