WTV.pdb
     RDKit          3D

 29 30  0  0  1  0  0  0  0  0999 V2000
    7.3407  -17.3414   20.5168 N   0  0  0  0  0  0  0  0  0  0  0  0
    7.8035  -16.3639   21.4407 C   0  0  1  0  0  0  0  0  0  0  0  0
    6.7924  -15.2762   21.6660 C   0  0  0  0  0  0  0  0  0  0  0  0
    7.2447  -14.1689   22.5118 C   0  0  0  0  0  0  0  0  0  0  0  0
    8.1917  -13.2005   22.1595 C   0  0  0  0  0  0  0  0  0  0  0  0
    8.3481  -12.3258   23.1577 N   0  0  0  0  0  0  0  0  0  0  0  0
    7.5341  -12.6787   24.1706 C   0  0  0  0  0  0  0  0  0  0  0  0
    7.3232  -12.1177   25.4110 C   0  0  0  0  0  0  0  0  0  0  0  0
    6.4142  -12.7213   26.2484 C   0  0  0  0  0  0  0  0  0  0  0  0
    5.7200  -13.8530   25.8872 C   0  0  0  0  0  0  0  0  0  0  0  0
    5.9313  -14.4213   24.6344 C   0  0  0  0  0  0  0  0  0  0  0  0
    6.8399  -13.8199   23.7925 C   0  0  0  0  0  0  0  0  0  0  0  0
    8.1118  -16.9766   22.7594 C   0  0  0  0  0  0  0  0  0  0  0  0
    7.4292  -18.0020   23.0729 O   0  0  0  0  0  0  0  0  0  0  0  0
    9.0755  -19.3296   23.4725 C   0  0  0  0  0  0  0  0  0  0  0  0
   10.0194  -18.5481   24.3211 C   0  0  1  0  0  0  0  0  0  0  0  0
   11.1856  -18.3120   23.5599 O   0  0  0  0  0  0  0  0  0  0  0  0
    9.4239  -17.2482   24.8197 C   0  0  2  0  0  0  0  0  0  0  0  0
    9.1036  -16.4712   23.6409 N   0  0  0  0  0  0  0  0  0  0  0  0
   10.3563  -16.5245   25.7174 C   0  0  0  0  0  0  0  0  0  0  0  0
   11.2707  -15.8355   25.2044 O   0  0  0  0  0  0  0  0  0  0  0  0
   10.2177  -13.5672   27.5523 C   0  0  0  0  0  0  0  0  0  0  0  0
   10.6100  -14.5991   28.5798 C   0  0  1  0  0  0  0  0  0  0  0  0
    9.3688  -15.0065   29.3413 C   0  0  0  0  0  0  0  0  0  0  0  0
   11.2188  -15.8289   27.9759 C   0  0  2  0  0  0  0  0  0  0  0  0
   10.2869  -16.5562   27.1324 N   0  0  0  0  0  0  0  0  0  0  0  0
   11.6412  -16.7230   29.0847 C   0  0  0  0  0  0  0  0  0  0  0  0
   12.7280  -16.3691   29.9035 O   0  0  0  0  0  0  0  0  0  0  0  0
   11.0417  -17.7973   29.3066 O   0  0  0  0  0  0  0  0  0  0  0  0
  2  1  1  6
  2 13  1  0
  2  3  1  0
  3  4  1  0
  4  5  2  0
  4 12  1  0
  5  6  1  0
  6  7  1  0
  7  8  2  0
  9  8  1  0
 10  9  2  0
 11 12  2  0
 11 10  1  0
 12  7  1  0
 13 14  2  0
 13 19  1  0
 16 15  1  6
 16 17  1  0
 18 16  1  0
 18 19  1  6
 20 21  2  0
 20 18  1  0
 23 22  1  6
 23 25  1  0
 24 23  1  0
 25 26  1  6
 26 20  1  0
 27 25  1  0
 28 27  1  0
 29 27  2  0
M  END
$$$$
