WTV.pdb
     RDKit          3D

 29 30  0  0  1  0  0  0  0  0999 V2000
    6.0048  -17.1459   24.5069 N   0  0  0  0  0  0  0  0  0  0  0  0
    7.2187  -16.4285   24.3200 C   0  0  1  0  0  0  0  0  0  0  0  0
    7.5338  -15.5375   25.4874 C   0  0  0  0  0  0  0  0  0  0  0  0
    6.6264  -14.4018   25.6686 C   0  0  0  0  0  0  0  0  0  0  0  0
    5.3364  -14.4596   26.2083 C   0  0  0  0  0  0  0  0  0  0  0  0
    4.8000  -13.2364   26.2497 N   0  0  0  0  0  0  0  0  0  0  0  0
    5.6919  -12.3583   25.7531 C   0  0  0  0  0  0  0  0  0  0  0  0
    5.6279  -10.9941   25.5733 C   0  0  0  0  0  0  0  0  0  0  0  0
    6.7188  -10.3616   25.0240 C   0  0  0  0  0  0  0  0  0  0  0  0
    7.8553  -11.0434   24.6545 C   0  0  0  0  0  0  0  0  0  0  0  0
    7.9223  -12.4218   24.8354 C   0  0  0  0  0  0  0  0  0  0  0  0
    6.8326  -13.0590   25.3857 C   0  0  0  0  0  0  0  0  0  0  0  0
    8.3657  -17.3555   24.1344 C   0  0  0  0  0  0  0  0  0  0  0  0
    8.2810  -18.4761   24.7284 O   0  0  0  0  0  0  0  0  0  0  0  0
   10.9868  -18.0994   21.2658 C   0  0  0  0  0  0  0  0  0  0  0  0
   11.6500  -17.5563   22.4853 C   0  0  1  0  0  0  0  0  0  0  0  0
   12.0235  -16.2217   22.2120 O   0  0  0  0  0  0  0  0  0  0  0  0
   10.7716  -17.6333   23.7163 C   0  0  2  0  0  0  0  0  0  0  0  0
    9.5042  -17.0390   23.3471 N   0  0  0  0  0  0  0  0  0  0  0  0
   11.3859  -16.9404   24.8746 C   0  0  0  0  0  0  0  0  0  0  0  0
   11.7822  -15.7593   24.7269 O   0  0  0  0  0  0  0  0  0  0  0  0
   10.2969  -15.2157   27.6231 C   0  0  0  0  0  0  0  0  0  0  0  0
   11.1956  -16.2644   28.2289 C   0  0  1  0  0  0  0  0  0  0  0  0
   10.3307  -17.4002   28.7274 C   0  0  0  0  0  0  0  0  0  0  0  0
   12.1906  -16.8204   27.2551 C   0  0  2  0  0  0  0  0  0  0  0  0
   11.5593  -17.5254   26.1536 N   0  0  0  0  0  0  0  0  0  0  0  0
   13.0608  -17.7779   27.9853 C   0  0  0  0  0  0  0  0  0  0  0  0
   13.9155  -17.3215   29.0041 O   0  0  0  0  0  0  0  0  0  0  0  0
   13.0477  -18.9969   27.7081 O   0  0  0  0  0  0  0  0  0  0  0  0
  2  1  1  1
  2 13  1  0
  2  3  1  0
  3  4  1  0
  4  5  2  0
  4 12  1  0
  5  6  1  0
  6  7  1  0
  7  8  2  0
  9  8  1  0
 10  9  2  0
 11 12  2  0
 11 10  1  0
 12  7  1  0
 13 14  2  0
 13 19  1  0
 16 15  1  6
 16 17  1  0
 18 16  1  0
 18 19  1  6
 20 21  2  0
 20 18  1  0
 23 22  1  6
 23 25  1  0
 24 23  1  0
 25 26  1  6
 26 20  1  0
 27 25  1  0
 28 27  1  0
 29 27  2  0
M  END
$$$$
