WTV.pdb
     RDKit          3D

 29 30  0  0  1  0  0  0  0  0999 V2000
    6.3373  -17.0141   24.4549 N   0  0  0  0  0  0  0  0  0  0  0  0
    7.4904  -16.2016   24.2721 C   0  0  1  0  0  0  0  0  0  0  0  0
    7.7376  -15.2992   25.4472 C   0  0  0  0  0  0  0  0  0  0  0  0
    6.6984  -14.2966   25.6938 C   0  0  0  0  0  0  0  0  0  0  0  0
    5.3997  -14.5548   26.1475 C   0  0  0  0  0  0  0  0  0  0  0  0
    4.7251  -13.4097   26.2865 N   0  0  0  0  0  0  0  0  0  0  0  0
    5.5325  -12.3895   25.9389 C   0  0  0  0  0  0  0  0  0  0  0  0
    5.3206  -11.0290   25.9011 C   0  0  0  0  0  0  0  0  0  0  0  0
    6.3561  -10.2238   25.4869 C   0  0  0  0  0  0  0  0  0  0  0  0
    7.5793  -10.7321   25.1148 C   0  0  0  0  0  0  0  0  0  0  0  0
    7.7957  -12.1065   25.1525 C   0  0  0  0  0  0  0  0  0  0  0  0
    6.7620  -12.9161   25.5672 C   0  0  0  0  0  0  0  0  0  0  0  0
    8.7064  -17.0334   24.0754 C   0  0  0  0  0  0  0  0  0  0  0  0
    8.7394  -18.1344   24.7099 O   0  0  0  0  0  0  0  0  0  0  0  0
   13.2432  -17.6421   22.2802 C   0  0  0  0  0  0  0  0  0  0  0  0
   11.9194  -16.9576   22.2527 C   0  0  1  0  0  0  0  0  0  0  0  0
   11.2519  -17.3617   21.0752 O   0  0  0  0  0  0  0  0  0  0  0  0
   11.0809  -17.2488   23.4795 C   0  0  2  0  0  0  0  0  0  0  0  0
    9.7854  -16.6503   23.2359 N   0  0  0  0  0  0  0  0  0  0  0  0
   11.7081  -16.7167   24.7134 C   0  0  0  0  0  0  0  0  0  0  0  0
   12.4521  -15.7106   24.6233 O   0  0  0  0  0  0  0  0  0  0  0  0
   10.8849  -14.6838   27.4149 C   0  0  0  0  0  0  0  0  0  0  0  0
   11.3712  -15.9522   28.0700 C   0  0  1  0  0  0  0  0  0  0  0  0
   10.1655  -16.7750   28.4649 C   0  0  0  0  0  0  0  0  0  0  0  0
   12.2371  -16.7837   27.1719 C   0  0  2  0  0  0  0  0  0  0  0  0
   11.5241  -17.2712   26.0045 N   0  0  0  0  0  0  0  0  0  0  0  0
   12.7139  -17.9553   27.9512 C   0  0  0  0  0  0  0  0  0  0  0  0
   13.5858  -17.7736   29.0391 O   0  0  0  0  0  0  0  0  0  0  0  0
   12.3503  -19.1141   27.6549 O   0  0  0  0  0  0  0  0  0  0  0  0
  2  1  1  1
  2 13  1  0
  2  3  1  0
  3  4  1  0
  4  5  2  0
  4 12  1  0
  5  6  1  0
  6  7  1  0
  7  8  2  0
  9  8  1  0
 10  9  2  0
 11 12  2  0
 11 10  1  0
 12  7  1  0
 13 14  2  0
 13 19  1  0
 16 15  1  1
 16 17  1  0
 18 16  1  0
 18 19  1  6
 20 21  2  0
 20 18  1  0
 23 22  1  6
 23 25  1  0
 24 23  1  0
 25 26  1  6
 26 20  1  0
 27 25  1  0
 28 27  1  0
 29 27  2  0
M  END
$$$$
