SIP.pdb
     RDKit          3D

 22 22  0  0  1  0  0  0  0  0999 V2000
   26.3675  -15.8255  -16.0818 O   0  0  0  0  0  0  0  0  0  0  0  0
   26.1725  -17.1941  -15.9225 C   0  0  0  0  0  0  0  0  0  0  0  0
   27.3303  -17.7229  -15.1276 C   0  0  2  0  0  0  0  0  0  0  0  0
   28.4872  -17.8303  -16.0093 N   0  0  0  0  0  0  0  0  0  0  0  0
   27.0831  -19.0113  -14.4582 C   0  0  0  0  0  0  0  0  0  0  0  0
   27.1395  -20.0656  -15.1339 O   0  0  0  0  0  0  0  0  0  0  0  0
   25.8696  -21.4295   -8.8937 C   0  0  0  0  0  0  0  0  0  0  0  0
   25.5717  -21.5103  -10.3952 C   0  0  0  0  0  0  0  0  0  0  0  0
   26.2055  -20.3132  -11.0088 C   0  0  2  0  0  0  0  0  0  0  0  0
   25.6095  -19.0778  -10.4099 C   0  0  0  0  0  0  0  0  0  0  0  0
   26.0429  -20.2169  -12.5139 C   0  0  2  0  0  0  0  0  0  0  0  0
   26.7831  -19.1448  -13.0784 N   0  0  0  0  0  0  0  0  0  0  0  0
   24.6510  -20.3916  -12.9208 C   0  0  0  0  0  0  0  0  0  0  0  0
   23.9572  -19.3095  -12.9209 O   0  0  0  0  0  0  0  0  0  0  0  0
   24.0083  -21.5682  -13.2994 N   0  0  0  0  0  0  0  0  0  0  0  0
   24.5631  -22.9109  -13.0578 C   0  0  0  0  0  0  0  0  0  0  0  0
   23.8343  -23.8376  -13.9755 C   0  0  0  0  0  0  0  0  0  0  0  0
   23.0868  -22.9170  -14.9350 C   0  0  0  0  0  0  0  0  0  0  0  0
   22.7458  -21.7883  -13.9444 C   0  0  1  0  0  0  0  0  0  0  0  0
   21.7178  -22.2474  -12.9959 C   0  0  0  0  0  0  0  0  0  0  0  0
   20.3769  -22.3073  -13.2907 O   0  0  0  0  0  0  0  0  0  0  0  0
   22.0813  -22.6076  -11.8461 O   0  0  0  0  0  0  0  0  0  0  0  0
  2  3  1  0
  2  1  1  0
  3  4  1  6
  5  3  1  0
  6  5  2  0
  8  9  1  0
  8  7  1  0
  9 11  1  0
  9 10  1  1
 11 13  1  0
 11 12  1  1
 12  5  1  0
 13 15  1  0
 14 13  2  0
 15 19  1  0
 15 16  1  0
 16 17  1  0
 18 17  1  0
 19 20  1  1
 19 18  1  0
 20 22  2  0
 20 21  1  0
M  END
$$$$
