SIP.pdb
     RDKit          3D

 22 22  0  0  1  0  0  0  0  0999 V2000
   28.1586  -17.3314  -15.5717 O   0  0  0  0  0  0  0  0  0  0  0  0
   27.5682  -18.5782  -15.7545 C   0  0  0  0  0  0  0  0  0  0  0  0
   28.3116  -19.5573  -14.8939 C   0  0  2  0  0  0  0  0  0  0  0  0
   29.2149  -20.3271  -15.7418 N   0  0  0  0  0  0  0  0  0  0  0  0
   27.4563  -20.4652  -14.1107 C   0  0  0  0  0  0  0  0  0  0  0  0
   27.1382  -21.5731  -14.6033 O   0  0  0  0  0  0  0  0  0  0  0  0
   26.6569  -20.3022   -8.5803 C   0  0  0  0  0  0  0  0  0  0  0  0
   26.8063  -20.9419   -9.9654 C   0  0  0  0  0  0  0  0  0  0  0  0
   25.6514  -20.4628  -10.7703 C   0  0  2  0  0  0  0  0  0  0  0  0
   24.4045  -21.1419  -10.2969 C   0  0  0  0  0  0  0  0  0  0  0  0
   25.7742  -20.7175  -12.2606 C   0  0  2  0  0  0  0  0  0  0  0  0
   26.9609  -20.1693  -12.8151 N   0  0  0  0  0  0  0  0  0  0  0  0
   24.5104  -20.4866  -12.9556 C   0  0  0  0  0  0  0  0  0  0  0  0
   24.1651  -19.2511  -13.0349 O   0  0  0  0  0  0  0  0  0  0  0  0
   23.6602  -21.4305  -13.5275 N   0  0  0  0  0  0  0  0  0  0  0  0
   23.8468  -22.8843  -13.3845 C   0  0  0  0  0  0  0  0  0  0  0  0
   23.0403  -23.5199  -14.4697 C   0  0  0  0  0  0  0  0  0  0  0  0
   22.6583  -22.3645  -15.3896 C   0  0  0  0  0  0  0  0  0  0  0  0
   22.4726  -21.2749  -14.3173 C   0  0  1  0  0  0  0  0  0  0  0  0
   21.2547  -21.5435  -13.5353 C   0  0  0  0  0  0  0  0  0  0  0  0
   21.2623  -22.0362  -12.2523 O   0  0  0  0  0  0  0  0  0  0  0  0
   20.1377  -21.3107  -14.0665 O   0  0  0  0  0  0  0  0  0  0  0  0
  2  3  1  0
  2  1  1  0
  3  4  1  6
  5  3  1  0
  6  5  2  0
  8  9  1  0
  8  7  1  0
  9 11  1  0
  9 10  1  1
 11 13  1  0
 11 12  1  6
 12  5  1  0
 13 15  1  0
 14 13  2  0
 15 19  1  0
 15 16  1  0
 16 17  1  0
 18 17  1  0
 19 20  1  1
 19 18  1  0
 20 22  2  0
 20 21  1  0
M  END
$$$$
