SIP.pdb
     RDKit          3D

 22 22  0  0  1  0  0  0  0  0999 V2000
   24.2956  -27.1146  -16.9618 O   0  0  0  0  0  0  0  0  0  0  0  0
   24.6480  -26.1273  -16.0466 C   0  0  0  0  0  0  0  0  0  0  0  0
   24.7419  -24.8317  -16.7980 C   0  0  2  0  0  0  0  0  0  0  0  0
   25.9322  -24.8698  -17.6403 N   0  0  0  0  0  0  0  0  0  0  0  0
   24.7595  -23.6265  -15.9517 C   0  0  0  0  0  0  0  0  0  0  0  0
   25.8196  -22.9633  -15.8640 O   0  0  0  0  0  0  0  0  0  0  0  0
   20.8167  -19.9932  -16.0567 C   0  0  0  0  0  0  0  0  0  0  0  0
   22.1238  -20.7941  -16.0542 C   0  0  0  0  0  0  0  0  0  0  0  0
   22.4029  -21.1283  -14.6323 C   0  0  2  0  0  0  0  0  0  0  0  0
   22.5874  -19.8626  -13.8551 C   0  0  0  0  0  0  0  0  0  0  0  0
   23.6380  -21.9822  -14.4173 C   0  0  2  0  0  0  0  0  0  0  0  0
   23.6409  -23.1545  -15.2184 N   0  0  0  0  0  0  0  0  0  0  0  0
   23.9703  -22.1070  -13.0004 C   0  0  0  0  0  0  0  0  0  0  0  0
   23.1910  -22.8853  -12.3379 O   0  0  0  0  0  0  0  0  0  0  0  0
   25.0103  -21.4938  -12.3053 N   0  0  0  0  0  0  0  0  0  0  0  0
   25.8875  -20.4680  -12.8945 C   0  0  0  0  0  0  0  0  0  0  0  0
   27.1002  -20.4024  -12.0242 C   0  0  0  0  0  0  0  0  0  0  0  0
   26.9938  -21.6307  -11.1261 C   0  0  0  0  0  0  0  0  0  0  0  0
   25.4637  -21.6516  -10.9533 C   0  0  1  0  0  0  0  0  0  0  0  0
   25.0405  -20.5303  -10.0984 C   0  0  0  0  0  0  0  0  0  0  0  0
   25.2383  -20.4875   -8.7391 O   0  0  0  0  0  0  0  0  0  0  0  0
   24.4631  -19.5504  -10.6373 O   0  0  0  0  0  0  0  0  0  0  0  0
  2  3  1  0
  2  1  1  0
  3  4  1  1
  5  3  1  0
  6  5  2  0
  8  9  1  0
  8  7  1  0
  9 11  1  0
  9 10  1  1
 11 13  1  0
 11 12  1  1
 12  5  1  0
 13 15  1  0
 14 13  2  0
 15 19  1  0
 15 16  1  0
 16 17  1  0
 18 17  1  0
 19 20  1  1
 19 18  1  0
 20 22  2  0
 20 21  1  0
M  END
$$$$
