SIP.pdb
     RDKit          3D

 22 22  0  0  1  0  0  0  0  0999 V2000
   18.6101  -11.4086  -19.7530 O   0  0  0  0  0  0  0  0  0  0  0  0
   19.0069  -10.5473  -18.7346 C   0  0  0  0  0  0  0  0  0  0  0  0
   19.9673  -11.2989  -17.8601 C   0  0  2  0  0  0  0  0  0  0  0  0
   19.2371  -12.3587  -17.1737 N   0  0  0  0  0  0  0  0  0  0  0  0
   20.6919  -10.4691  -16.8826 C   0  0  0  0  0  0  0  0  0  0  0  0
   20.0976  -10.1000  -15.8425 O   0  0  0  0  0  0  0  0  0  0  0  0
   25.9365  -11.1388  -15.4327 C   0  0  0  0  0  0  0  0  0  0  0  0
   24.4160  -10.9573  -15.5033 C   0  0  0  0  0  0  0  0  0  0  0  0
   24.1858   -9.5650  -15.9721 C   0  0  2  0  0  0  0  0  0  0  0  0
   24.7859   -8.6081  -14.9901 C   0  0  0  0  0  0  0  0  0  0  0  0
   22.7254   -9.1916  -16.1418 C   0  0  2  0  0  0  0  0  0  0  0  0
   22.0391  -10.0533  -17.0376 N   0  0  0  0  0  0  0  0  0  0  0  0
   22.5489   -7.7493  -16.2913 C   0  0  0  0  0  0  0  0  0  0  0  0
   22.9971   -7.2704  -17.3967 O   0  0  0  0  0  0  0  0  0  0  0  0
   21.9641   -6.8584  -15.3941 N   0  0  0  0  0  0  0  0  0  0  0  0
   21.4620   -7.2538  -14.0673 C   0  0  0  0  0  0  0  0  0  0  0  0
   20.5401   -6.1643  -13.6254 C   0  0  0  0  0  0  0  0  0  0  0  0
   20.3196   -5.3188  -14.8758 C   0  0  0  0  0  0  0  0  0  0  0  0
   21.7281   -5.4461  -15.4852 C   0  0  1  0  0  0  0  0  0  0  0  0
   22.6927   -4.6759  -14.6831 C   0  0  0  0  0  0  0  0  0  0  0  0
   22.8221   -3.3092  -14.7469 O   0  0  0  0  0  0  0  0  0  0  0  0
   23.4461   -5.2990  -13.8906 O   0  0  0  0  0  0  0  0  0  0  0  0
  2  3  1  0
  2  1  1  0
  3  4  1  1
  5  3  1  0
  6  5  2  0
  8  9  1  0
  8  7  1  0
  9 11  1  0
  9 10  1  1
 11 13  1  0
 11 12  1  6
 12  5  1  0
 13 15  1  0
 14 13  2  0
 15 19  1  0
 15 16  1  0
 16 17  1  0
 18 17  1  0
 19 20  1  1
 19 18  1  0
 20 22  2  0
 20 21  1  0
M  END
$$$$
