SIP.pdb
     RDKit          3D

 22 22  0  0  1  0  0  0  0  0999 V2000
   20.3273  -11.5025  -21.1652 O   0  0  0  0  0  0  0  0  0  0  0  0
   20.3173  -11.0160  -19.8614 C   0  0  0  0  0  0  0  0  0  0  0  0
   21.3549  -11.7780  -19.0902 C   0  0  2  0  0  0  0  0  0  0  0  0
   20.8321  -13.1084  -18.7996 N   0  0  0  0  0  0  0  0  0  0  0  0
   21.8019  -11.1275  -17.8468 C   0  0  0  0  0  0  0  0  0  0  0  0
   21.0947  -11.2371  -16.8176 O   0  0  0  0  0  0  0  0  0  0  0  0
   26.9684  -11.0793  -16.1526 C   0  0  0  0  0  0  0  0  0  0  0  0
   25.4549  -11.2001  -16.3642 C   0  0  0  0  0  0  0  0  0  0  0  0
   24.9183   -9.8139  -16.3223 C   0  0  2  0  0  0  0  0  0  0  0  0
   25.2163   -9.2096  -14.9858 C   0  0  0  0  0  0  0  0  0  0  0  0
   23.4219   -9.7114  -16.5482 C   0  0  2  0  0  0  0  0  0  0  0  0
   22.9984  -10.3749  -17.7299 N   0  0  0  0  0  0  0  0  0  0  0  0
   22.9268   -8.3610  -16.2931 C   0  0  0  0  0  0  0  0  0  0  0  0
   23.2408   -7.5003  -17.1946 O   0  0  0  0  0  0  0  0  0  0  0  0
   22.1718   -7.9135  -15.2112 N   0  0  0  0  0  0  0  0  0  0  0  0
   21.8901   -8.7351  -14.0218 C   0  0  0  0  0  0  0  0  0  0  0  0
   20.7267   -8.0961  -13.3360 C   0  0  0  0  0  0  0  0  0  0  0  0
   20.1940   -7.0857  -14.3471 C   0  0  0  0  0  0  0  0  0  0  0  0
   21.5379   -6.6510  -14.9607 C   0  0  1  0  0  0  0  0  0  0  0  0
   22.2931   -5.8409  -13.9908 C   0  0  0  0  0  0  0  0  0  0  0  0
   23.4433   -6.2658  -13.3702 O   0  0  0  0  0  0  0  0  0  0  0  0
   21.8660   -4.6911  -13.7088 O   0  0  0  0  0  0  0  0  0  0  0  0
  2  3  1  0
  2  1  1  0
  3  4  1  1
  5  3  1  0
  6  5  2  0
  8  9  1  0
  8  7  1  0
  9 11  1  0
  9 10  1  1
 11 13  1  0
 11 12  1  6
 12  5  1  0
 13 15  1  0
 14 13  2  0
 15 19  1  0
 15 16  1  0
 16 17  1  0
 18 17  1  0
 19 20  1  1
 19 18  1  0
 20 22  2  0
 20 21  1  0
M  END
$$$$
