SIP.pdb
     RDKit          3D

 22 22  0  0  1  0  0  0  0  0999 V2000
   18.6285  -11.2447  -20.5034 O   0  0  0  0  0  0  0  0  0  0  0  0
   18.5392  -10.2609  -19.5233 C   0  0  0  0  0  0  0  0  0  0  0  0
   19.0190  -10.8649  -18.2362 C   0  0  2  0  0  0  0  0  0  0  0  0
   18.0220  -11.8243  -17.7744 N   0  0  0  0  0  0  0  0  0  0  0  0
   19.3170   -9.8927  -17.1707 C   0  0  0  0  0  0  0  0  0  0  0  0
   18.4085   -9.5782  -16.3664 O   0  0  0  0  0  0  0  0  0  0  0  0
   23.1952  -10.4039  -13.7497 C   0  0  0  0  0  0  0  0  0  0  0  0
   21.9282  -10.1562  -14.5763 C   0  0  0  0  0  0  0  0  0  0  0  0
   22.0303   -8.7624  -15.0844 C   0  0  2  0  0  0  0  0  0  0  0  0
   22.0862   -7.8174  -13.9251 C   0  0  0  0  0  0  0  0  0  0  0  0
   20.8789   -8.3305  -15.9726 C   0  0  2  0  0  0  0  0  0  0  0  0
   20.5823   -9.2790  -16.9867 N   0  0  0  0  0  0  0  0  0  0  0  0
   20.9815   -6.9221  -16.3458 C   0  0  0  0  0  0  0  0  0  0  0  0
   21.9778   -6.6453  -17.1092 O   0  0  0  0  0  0  0  0  0  0  0  0
   20.1422   -5.8729  -15.9773 N   0  0  0  0  0  0  0  0  0  0  0  0
   19.0685   -6.0041  -14.9779 C   0  0  0  0  0  0  0  0  0  0  0  0
   18.1496   -4.8461  -15.1944 C   0  0  0  0  0  0  0  0  0  0  0  0
   18.5864   -4.2555  -16.5313 C   0  0  0  0  0  0  0  0  0  0  0  0
   20.1008   -4.5035  -16.4031 C   0  0  1  0  0  0  0  0  0  0  0  0
   20.6734   -3.5977  -15.3937 C   0  0  0  0  0  0  0  0  0  0  0  0
   20.9369   -2.2680  -15.6204 O   0  0  0  0  0  0  0  0  0  0  0  0
   20.9394   -4.0613  -14.2542 O   0  0  0  0  0  0  0  0  0  0  0  0
  2  3  1  0
  2  1  1  0
  3  4  1  1
  5  3  1  0
  6  5  2  0
  8  9  1  0
  8  7  1  0
  9 11  1  0
  9 10  1  1
 11 13  1  0
 11 12  1  6
 12  5  1  0
 13 15  1  0
 14 13  2  0
 15 19  1  0
 15 16  1  0
 16 17  1  0
 18 17  1  0
 19 20  1  1
 19 18  1  0
 20 22  2  0
 20 21  1  0
M  END
$$$$
