SIP.pdb
     RDKit          3D

 22 22  0  0  1  0  0  0  0  0999 V2000
   21.5939  -22.6127  -14.8219 O   0  0  0  0  0  0  0  0  0  0  0  0
   20.8689  -21.4251  -14.8011 C   0  0  0  0  0  0  0  0  0  0  0  0
   21.1404  -20.7566  -13.4853 C   0  0  2  0  0  0  0  0  0  0  0  0
   20.2233  -19.6319  -13.3390 N   0  0  0  0  0  0  0  0  0  0  0  0
   22.5294  -20.3044  -13.2971 C   0  0  0  0  0  0  0  0  0  0  0  0
   22.9195  -19.2780  -13.9017 O   0  0  0  0  0  0  0  0  0  0  0  0
   25.6681  -20.8082   -8.7151 C   0  0  0  0  0  0  0  0  0  0  0  0
   25.0070  -20.2192   -9.9664 C   0  0  0  0  0  0  0  0  0  0  0  0
   25.5124  -21.0151  -11.1163 C   0  0  2  0  0  0  0  0  0  0  0  0
   26.9850  -20.7909  -11.2623 C   0  0  0  0  0  0  0  0  0  0  0  0
   24.8640  -20.6810  -12.4463 C   0  0  2  0  0  0  0  0  0  0  0  0
   23.4717  -20.9591  -12.4633 N   0  0  0  0  0  0  0  0  0  0  0  0
   25.6771  -21.1304  -13.5735 C   0  0  0  0  0  0  0  0  0  0  0  0
   25.5307  -22.3717  -13.8733 O   0  0  0  0  0  0  0  0  0  0  0  0
   26.5693  -20.3840  -14.3401 N   0  0  0  0  0  0  0  0  0  0  0  0
   27.3178  -19.2276  -13.8194 C   0  0  0  0  0  0  0  0  0  0  0  0
   27.7875  -18.4599  -15.0119 C   0  0  0  0  0  0  0  0  0  0  0  0
   27.0164  -19.0615  -16.1825 C   0  0  0  0  0  0  0  0  0  0  0  0
   26.9880  -20.5253  -15.7051 C   0  0  1  0  0  0  0  0  0  0  0  0
   28.3341  -21.1123  -15.8079 C   0  0  0  0  0  0  0  0  0  0  0  0
   28.9814  -21.3379  -16.9991 O   0  0  0  0  0  0  0  0  0  0  0  0
   28.9329  -21.4283  -14.7470 O   0  0  0  0  0  0  0  0  0  0  0  0
  2  3  1  0
  2  1  1  0
  3  4  1  6
  5  3  1  0
  6  5  2  0
  8  9  1  0
  8  7  1  0
  9 11  1  0
  9 10  1  6
 11 13  1  0
 11 12  1  1
 12  5  1  0
 13 15  1  0
 14 13  2  0
 15 19  1  0
 15 16  1  0
 16 17  1  0
 18 17  1  0
 19 20  1  1
 19 18  1  0
 20 22  2  0
 20 21  1  0
M  END
$$$$
