SIP.pdb
     RDKit          3D

 22 22  0  0  1  0  0  0  0  0999 V2000
   21.7946  -22.1066  -15.4124 O   0  0  0  0  0  0  0  0  0  0  0  0
   21.0526  -22.1137  -14.2352 C   0  0  0  0  0  0  0  0  0  0  0  0
   21.2227  -20.7699  -13.5894 C   0  0  2  0  0  0  0  0  0  0  0  0
   20.4555  -19.7898  -14.3498 N   0  0  0  0  0  0  0  0  0  0  0  0
   22.6193  -20.3228  -13.4520 C   0  0  0  0  0  0  0  0  0  0  0  0
   23.0290  -19.3847  -14.1755 O   0  0  0  0  0  0  0  0  0  0  0  0
   25.6418  -20.7734   -8.7720 C   0  0  0  0  0  0  0  0  0  0  0  0
   25.0260  -20.1525  -10.0310 C   0  0  0  0  0  0  0  0  0  0  0  0
   25.5818  -20.9119  -11.1824 C   0  0  2  0  0  0  0  0  0  0  0  0
   27.0446  -20.6204  -11.3058 C   0  0  0  0  0  0  0  0  0  0  0  0
   24.9366  -20.5920  -12.5175 C   0  0  2  0  0  0  0  0  0  0  0  0
   23.5480  -20.8876  -12.5409 N   0  0  0  0  0  0  0  0  0  0  0  0
   25.7615  -21.0365  -13.6380 C   0  0  0  0  0  0  0  0  0  0  0  0
   25.6136  -22.2749  -13.9490 O   0  0  0  0  0  0  0  0  0  0  0  0
   26.6660  -20.2882  -14.3881 N   0  0  0  0  0  0  0  0  0  0  0  0
   27.3277  -19.0721  -13.8859 C   0  0  0  0  0  0  0  0  0  0  0  0
   27.8369  -18.3445  -15.0874 C   0  0  0  0  0  0  0  0  0  0  0  0
   27.1689  -19.0413  -16.2686 C   0  0  0  0  0  0  0  0  0  0  0  0
   27.1760  -20.4785  -15.7156 C   0  0  1  0  0  0  0  0  0  0  0  0
   28.5508  -21.0047  -15.7049 C   0  0  0  0  0  0  0  0  0  0  0  0
   29.2130  -21.4381  -16.8284 O   0  0  0  0  0  0  0  0  0  0  0  0
   29.1614  -21.0640  -14.6059 O   0  0  0  0  0  0  0  0  0  0  0  0
  2  3  1  0
  2  1  1  0
  3  4  1  6
  5  3  1  0
  6  5  2  0
  8  9  1  0
  8  7  1  0
  9 11  1  0
  9 10  1  6
 11 13  1  0
 11 12  1  1
 12  5  1  0
 13 15  1  0
 14 13  2  0
 15 19  1  0
 15 16  1  0
 16 17  1  0
 18 17  1  0
 19 20  1  1
 19 18  1  0
 20 22  2  0
 20 21  1  0
M  END
$$$$
