WQI.pdb
     RDKit          3D

 32 33  0  0  1  0  0  0  0  0999 V2000
    6.4045  -18.5461   23.6835 N   0  0  0  0  0  0  0  0  0  0  0  0
    7.0191  -17.2244   23.8885 C   0  0  1  0  0  0  0  0  0  0  0  0
    6.9290  -16.8309   25.3070 C   0  0  0  0  0  0  0  0  0  0  0  0
    6.3074  -15.5806   25.6526 C   0  0  0  0  0  0  0  0  0  0  0  0
    5.0769  -15.4775   26.2742 C   0  0  0  0  0  0  0  0  0  0  0  0
    4.7863  -14.1931   26.4509 N   0  0  0  0  0  0  0  0  0  0  0  0
    5.7699  -13.4101   25.9744 C   0  0  0  0  0  0  0  0  0  0  0  0
    5.9864  -12.0522   25.8974 C   0  0  0  0  0  0  0  0  0  0  0  0
    7.1429  -11.5823   25.3264 C   0  0  0  0  0  0  0  0  0  0  0  0
    8.1086  -12.4426   24.8201 C   0  0  0  0  0  0  0  0  0  0  0  0
    7.8926  -13.7930   24.8969 C   0  0  0  0  0  0  0  0  0  0  0  0
    6.7351  -14.2779   25.4681 C   0  0  0  0  0  0  0  0  0  0  0  0
    8.4752  -17.4314   23.6120 C   0  0  0  0  0  0  0  0  0  0  0  0
    8.9283  -18.5806   23.8440 O   0  0  0  0  0  0  0  0  0  0  0  0
   12.3240  -16.4839   19.6309 N   0  0  0  0  0  0  0  0  0  0  0  0
   13.2782  -16.2973   20.6666 C   0  0  0  0  0  0  0  0  0  0  0  0
   14.4810  -16.5232   20.4016 O   0  0  0  0  0  0  0  0  0  0  0  0
   12.9173  -15.8529   22.0283 C   0  0  0  0  0  0  0  0  0  0  0  0
   11.4435  -15.6948   22.1208 C   0  0  0  0  0  0  0  0  0  0  0  0
   10.7822  -16.6787   23.0534 C   0  0  2  0  0  0  0  0  0  0  0  0
    9.3389  -16.4534   23.1255 N   0  0  0  0  0  0  0  0  0  0  0  0
   11.3714  -16.6269   24.4174 C   0  0  0  0  0  0  0  0  0  0  0  0
   12.5893  -16.9528   24.6052 O   0  0  0  0  0  0  0  0  0  0  0  0
   10.3004  -12.4303   27.4331 C   0  0  0  0  0  0  0  0  0  0  0  0
   10.9593  -13.6288   26.8249 C   0  0  0  0  0  0  0  0  0  0  0  0
   10.6226  -14.9073   27.5645 C   0  0  2  0  0  0  0  0  0  0  0  0
   11.1057  -14.8778   28.9864 C   0  0  0  0  0  0  0  0  0  0  0  0
   11.2223  -16.1146   26.8770 C   0  0  2  0  0  0  0  0  0  0  0  0
   10.6242  -16.2234   25.5408 N   0  0  0  0  0  0  0  0  0  0  0  0
   11.0388  -17.3507   27.6428 C   0  0  0  0  0  0  0  0  0  0  0  0
   10.2182  -18.2093   27.2403 O   0  0  0  0  0  0  0  0  0  0  0  0
   11.7497  -17.5820   28.7900 O   0  0  0  0  0  0  0  0  0  0  0  0
  2  1  1  1
  2  3  1  0
  3  4  1  0
  4  5  2  0
  5  6  1  0
  7  6  1  0
  8  7  2  0
  9  8  1  0
 10 11  1  0
 10  9  2  0
 11 12  2  0
 12  4  1  0
 12  7  1  0
 13  2  1  0
 13 21  1  0
 14 13  2  0
 16 18  1  0
 16 15  1  0
 17 16  2  0
 19 18  1  0
 20 21  1  0
 20 19  1  6
 22 20  1  0
 23 22  2  0
 24 25  1  0
 26 25  1  0
 26 27  1  1
 26 28  1  0
 28 29  1  6
 29 22  1  0
 30 32  1  0
 30 28  1  0
 31 30  2  0
M  END
$$$$
