WQI.pdb
     RDKit          3D

 32 33  0  0  1  0  0  0  0  0999 V2000
    6.4216  -17.5634   24.8202 N   0  0  0  0  0  0  0  0  0  0  0  0
    7.3417  -16.5347   24.3081 C   0  0  1  0  0  0  0  0  0  0  0  0
    7.6630  -15.5603   25.3676 C   0  0  0  0  0  0  0  0  0  0  0  0
    6.7047  -14.5403   25.7000 C   0  0  0  0  0  0  0  0  0  0  0  0
    5.6511  -14.7285   26.5749 C   0  0  0  0  0  0  0  0  0  0  0  0
    4.9537  -13.6010   26.6632 N   0  0  0  0  0  0  0  0  0  0  0  0
    5.4879  -12.6458   25.8823 C   0  0  0  0  0  0  0  0  0  0  0  0
    5.1834  -11.3329   25.5987 C   0  0  0  0  0  0  0  0  0  0  0  0
    5.9718  -10.6289   24.7228 C   0  0  0  0  0  0  0  0  0  0  0  0
    7.0761  -11.2062   24.1094 C   0  0  0  0  0  0  0  0  0  0  0  0
    7.3784  -12.5119   24.3918 C   0  0  0  0  0  0  0  0  0  0  0  0
    6.5944  -13.2301   25.2698 C   0  0  0  0  0  0  0  0  0  0  0  0
    8.6156  -17.2668   24.0241 C   0  0  0  0  0  0  0  0  0  0  0  0
    8.7983  -18.3347   24.6613 O   0  0  0  0  0  0  0  0  0  0  0  0
   13.0921  -16.9062   19.6670 N   0  0  0  0  0  0  0  0  0  0  0  0
   13.8572  -16.9976   20.8604 C   0  0  0  0  0  0  0  0  0  0  0  0
   15.1047  -16.9549   20.7604 O   0  0  0  0  0  0  0  0  0  0  0  0
   13.2518  -17.1393   22.2003 C   0  0  0  0  0  0  0  0  0  0  0  0
   11.8360  -16.6937   22.1512 C   0  0  0  0  0  0  0  0  0  0  0  0
   10.9956  -17.2060   23.2941 C   0  0  2  0  0  0  0  0  0  0  0  0
    9.5883  -16.8484   23.1197 N   0  0  0  0  0  0  0  0  0  0  0  0
   11.4859  -16.7068   24.6059 C   0  0  0  0  0  0  0  0  0  0  0  0
   12.3450  -15.7665   24.6565 O   0  0  0  0  0  0  0  0  0  0  0  0
    9.7508  -13.8753   28.0815 C   0  0  0  0  0  0  0  0  0  0  0  0
   10.7990  -14.7021   27.4048 C   0  0  0  0  0  0  0  0  0  0  0  0
   10.8627  -16.1123   27.9546 C   0  0  2  0  0  0  0  0  0  0  0  0
   11.3898  -16.1440   29.3608 C   0  0  0  0  0  0  0  0  0  0  0  0
   11.7347  -16.9996   27.0933 C   0  0  2  0  0  0  0  0  0  0  0  0
   11.0317  -17.2407   25.8273 N   0  0  0  0  0  0  0  0  0  0  0  0
   12.0860  -18.2601   27.7536 C   0  0  0  0  0  0  0  0  0  0  0  0
   11.5563  -19.3282   27.3648 O   0  0  0  0  0  0  0  0  0  0  0  0
   12.9831  -18.2887   28.7876 O   0  0  0  0  0  0  0  0  0  0  0  0
  2  1  1  1
  2  3  1  0
  3  4  1  0
  4  5  2  0
  5  6  1  0
  7  6  1  0
  8  7  2  0
  9  8  1  0
 10 11  1  0
 10  9  2  0
 11 12  2  0
 12  4  1  0
 12  7  1  0
 13  2  1  0
 13 21  1  0
 14 13  2  0
 16 18  1  0
 16 15  1  0
 17 16  2  0
 19 18  1  0
 20 21  1  0
 20 19  1  6
 22 20  1  0
 23 22  2  0
 24 25  1  0
 26 25  1  0
 26 27  1  1
 26 28  1  0
 28 29  1  6
 29 22  1  0
 30 32  1  0
 30 28  1  0
 31 30  2  0
M  END
$$$$
