WQI.pdb
     RDKit          3D

 32 33  0  0  1  0  0  0  0  0999 V2000
    6.2497  -18.6908   24.7788 N   0  0  0  0  0  0  0  0  0  0  0  0
    6.4292  -17.2411   24.5972 C   0  0  1  0  0  0  0  0  0  0  0  0
    6.6662  -16.5864   25.8974 C   0  0  0  0  0  0  0  0  0  0  0  0
    5.9812  -15.3589   26.2027 C   0  0  0  0  0  0  0  0  0  0  0  0
    4.6923  -15.2984   26.6988 C   0  0  0  0  0  0  0  0  0  0  0  0
    4.3526  -14.0254   26.8702 N   0  0  0  0  0  0  0  0  0  0  0  0
    5.3588  -13.2093   26.5108 C   0  0  0  0  0  0  0  0  0  0  0  0
    5.5471  -11.8453   26.4825 C   0  0  0  0  0  0  0  0  0  0  0  0
    6.7428  -11.3359   26.0403 C   0  0  0  0  0  0  0  0  0  0  0  0
    7.7761  -12.1620   25.6175 C   0  0  0  0  0  0  0  0  0  0  0  0
    7.5881  -13.5184   25.6459 C   0  0  0  0  0  0  0  0  0  0  0  0
    6.3918  -14.0428   26.0877 C   0  0  0  0  0  0  0  0  0  0  0  0
    7.7075  -17.1059   23.8310 C   0  0  0  0  0  0  0  0  0  0  0  0
    8.5266  -18.0527   23.9426 O   0  0  0  0  0  0  0  0  0  0  0  0
    8.9863  -12.9960   19.1812 N   0  0  0  0  0  0  0  0  0  0  0  0
   10.1066  -13.8694   19.1838 C   0  0  0  0  0  0  0  0  0  0  0  0
   11.0131  -13.6608   18.3455 O   0  0  0  0  0  0  0  0  0  0  0  0
   10.2475  -15.0013   20.1224 C   0  0  0  0  0  0  0  0  0  0  0  0
    9.1919  -14.9129   21.1633 C   0  0  0  0  0  0  0  0  0  0  0  0
    9.2149  -16.0506   22.1532 C   0  0  2  0  0  0  0  0  0  0  0  0
    8.0384  -16.0222   23.0215 N   0  0  0  0  0  0  0  0  0  0  0  0
   10.4524  -16.0396   22.9770 C   0  0  0  0  0  0  0  0  0  0  0  0
   11.5914  -16.2080   22.4300 O   0  0  0  0  0  0  0  0  0  0  0  0
   10.0490  -15.4246   28.6526 C   0  0  0  0  0  0  0  0  0  0  0  0
   10.4246  -16.0704   27.3556 C   0  0  0  0  0  0  0  0  0  0  0  0
   11.3219  -15.1878   26.5124 C   0  0  2  0  0  0  0  0  0  0  0  0
   10.7020  -13.8452   26.2486 C   0  0  0  0  0  0  0  0  0  0  0  0
   11.6437  -15.8389   25.1850 C   0  0  2  0  0  0  0  0  0  0  0  0
   10.4217  -15.8464   24.3716 N   0  0  0  0  0  0  0  0  0  0  0  0
   12.1892  -17.1909   25.3357 C   0  0  0  0  0  0  0  0  0  0  0  0
   11.5455  -18.1690   24.8866 O   0  0  0  0  0  0  0  0  0  0  0  0
   13.3901  -17.4017   25.9587 O   0  0  0  0  0  0  0  0  0  0  0  0
  2  1  1  1
  2  3  1  0
  3  4  1  0
  4  5  2  0
  5  6  1  0
  7  6  1  0
  8  7  2  0
  9  8  1  0
 10 11  1  0
 10  9  2  0
 11 12  2  0
 12  4  1  0
 12  7  1  0
 13  2  1  0
 13 21  1  0
 14 13  2  0
 16 18  1  0
 16 15  1  0
 17 16  2  0
 19 18  1  0
 20 21  1  0
 20 19  1  6
 22 20  1  0
 23 22  2  0
 24 25  1  0
 26 25  1  0
 26 27  1  6
 26 28  1  0
 28 29  1  6
 29 22  1  0
 30 32  1  0
 30 28  1  0
 31 30  2  0
M  END
$$$$
