WQI.pdb
     RDKit          3D

 32 33  0  0  1  0  0  0  0  0999 V2000
    6.0830  -18.3148   24.8093 N   0  0  0  0  0  0  0  0  0  0  0  0
    6.8989  -17.1651   24.3857 C   0  0  1  0  0  0  0  0  0  0  0  0
    6.7487  -16.0500   25.3392 C   0  0  0  0  0  0  0  0  0  0  0  0
    6.5260  -14.7203   24.8377 C   0  0  0  0  0  0  0  0  0  0  0  0
    5.7406  -13.7778   25.4749 C   0  0  0  0  0  0  0  0  0  0  0  0
    5.7366  -12.6595   24.7574 N   0  0  0  0  0  0  0  0  0  0  0  0
    6.4891  -12.7979   23.6518 C   0  0  0  0  0  0  0  0  0  0  0  0
    6.8254  -11.9858   22.5916 C   0  0  0  0  0  0  0  0  0  0  0  0
    7.6451  -12.4688   21.6021 C   0  0  0  0  0  0  0  0  0  0  0  0
    8.1492  -13.7624   21.6390 C   0  0  0  0  0  0  0  0  0  0  0  0
    7.8143  -14.5696   22.6937 C   0  0  0  0  0  0  0  0  0  0  0  0
    6.9917  -14.0966   23.6940 C   0  0  0  0  0  0  0  0  0  0  0  0
    8.3150  -17.6303   24.5185 C   0  0  0  0  0  0  0  0  0  0  0  0
    8.5849  -18.3087   25.5416 O   0  0  0  0  0  0  0  0  0  0  0  0
   13.0589  -17.8374   20.2719 N   0  0  0  0  0  0  0  0  0  0  0  0
   13.6872  -18.0169   21.5332 C   0  0  0  0  0  0  0  0  0  0  0  0
   14.9389  -18.0273   21.5673 O   0  0  0  0  0  0  0  0  0  0  0  0
   12.9363  -18.1899   22.7935 C   0  0  0  0  0  0  0  0  0  0  0  0
   11.5500  -17.6882   22.6141 C   0  0  0  0  0  0  0  0  0  0  0  0
   10.7172  -17.7353   23.8708 C   0  0  2  0  0  0  0  0  0  0  0  0
    9.3285  -17.3645   23.6011 N   0  0  0  0  0  0  0  0  0  0  0  0
   11.2767  -16.8618   24.9359 C   0  0  0  0  0  0  0  0  0  0  0  0
   12.0393  -15.8862   24.6337 O   0  0  0  0  0  0  0  0  0  0  0  0
    9.0626  -13.8777   28.5171 C   0  0  0  0  0  0  0  0  0  0  0  0
    9.6629  -15.1854   28.1051 C   0  0  0  0  0  0  0  0  0  0  0  0
   11.0790  -15.0310   27.5894 C   0  0  2  0  0  0  0  0  0  0  0  0
   11.1274  -14.2543   26.3045 C   0  0  0  0  0  0  0  0  0  0  0  0
   11.7319  -16.3771   27.3633 C   0  0  2  0  0  0  0  0  0  0  0  0
   10.9944  -17.0698   26.2998 N   0  0  0  0  0  0  0  0  0  0  0  0
   11.7922  -17.1884   28.5825 C   0  0  0  0  0  0  0  0  0  0  0  0
   12.4740  -16.7885   29.5561 O   0  0  0  0  0  0  0  0  0  0  0  0
   11.1156  -18.3753   28.6742 O   0  0  0  0  0  0  0  0  0  0  0  0
  2  1  1  1
  2  3  1  0
  3  4  1  0
  4  5  2  0
  5  6  1  0
  7  6  1  0
  8  7  2  0
  9  8  1  0
 10 11  1  0
 10  9  2  0
 11 12  2  0
 12  4  1  0
 12  7  1  0
 13  2  1  0
 13 21  1  0
 14 13  2  0
 16 18  1  0
 16 15  1  0
 17 16  2  0
 19 18  1  0
 20 21  1  0
 20 19  1  6
 22 20  1  0
 23 22  2  0
 24 25  1  0
 26 25  1  0
 26 27  1  6
 26 28  1  0
 28 29  1  6
 29 22  1  0
 30 32  1  0
 30 28  1  0
 31 30  2  0
M  END
$$$$
