WQI.pdb
     RDKit          3D

 32 33  0  0  1  0  0  0  0  0999 V2000
    5.7233  -16.6648   21.6403 N   0  0  0  0  0  0  0  0  0  0  0  0
    7.1031  -16.1542   21.5939 C   0  0  1  0  0  0  0  0  0  0  0  0
    7.1059  -14.6796   21.6241 C   0  0  0  0  0  0  0  0  0  0  0  0
    7.4401  -13.9518   20.4292 C   0  0  0  0  0  0  0  0  0  0  0  0
    7.3877  -12.5742   20.3259 C   0  0  0  0  0  0  0  0  0  0  0  0
    7.7518  -12.2169   19.0991 N   0  0  0  0  0  0  0  0  0  0  0  0
    8.0522  -13.2963   18.3558 C   0  0  0  0  0  0  0  0  0  0  0  0
    8.4724  -13.5040   17.0608 C   0  0  0  0  0  0  0  0  0  0  0  0
    8.6909  -14.7845   16.6170 C   0  0  0  0  0  0  0  0  0  0  0  0
    8.4991  -15.8853   17.4419 C   0  0  0  0  0  0  0  0  0  0  0  0
    8.0812  -15.6780   18.7297 C   0  0  0  0  0  0  0  0  0  0  0  0
    7.8581  -14.3968   19.1878 C   0  0  0  0  0  0  0  0  0  0  0  0
    7.7176  -16.5920   22.8862 C   0  0  0  0  0  0  0  0  0  0  0  0
    6.9849  -16.5182   23.9048 O   0  0  0  0  0  0  0  0  0  0  0  0
   12.6147  -20.6510   24.8438 N   0  0  0  0  0  0  0  0  0  0  0  0
   12.6735  -19.3161   25.3259 C   0  0  0  0  0  0  0  0  0  0  0  0
   13.8016  -18.8327   25.5740 O   0  0  0  0  0  0  0  0  0  0  0  0
   11.4743  -18.4818   25.5449 C   0  0  0  0  0  0  0  0  0  0  0  0
   10.8429  -18.1731   24.2366 C   0  0  0  0  0  0  0  0  0  0  0  0
    9.5944  -17.3337   24.3452 C   0  0  2  0  0  0  0  0  0  0  0  0
    9.0199  -17.0646   23.0274 N   0  0  0  0  0  0  0  0  0  0  0  0
    9.8508  -16.0537   25.0566 C   0  0  0  0  0  0  0  0  0  0  0  0
   10.6716  -15.2042   24.5775 O   0  0  0  0  0  0  0  0  0  0  0  0
    6.1698  -13.0205   27.7459 C   0  0  0  0  0  0  0  0  0  0  0  0
    7.2379  -14.0661   27.6673 C   0  0  0  0  0  0  0  0  0  0  0  0
    8.5048  -13.5465   27.0192 C   0  0  2  0  0  0  0  0  0  0  0  0
    8.2848  -13.1626   25.5837 C   0  0  0  0  0  0  0  0  0  0  0  0
    9.6142  -14.5737   27.0785 C   0  0  2  0  0  0  0  0  0  0  0  0
    9.2107  -15.7294   26.2682 N   0  0  0  0  0  0  0  0  0  0  0  0
    9.9408  -14.9751   28.4498 C   0  0  0  0  0  0  0  0  0  0  0  0
   10.3949  -14.1229   29.2500 O   0  0  0  0  0  0  0  0  0  0  0  0
    9.7574  -16.2653   28.8699 O   0  0  0  0  0  0  0  0  0  0  0  0
  2  1  1  1
  2  3  1  0
  3  4  1  0
  4  5  2  0
  5  6  1  0
  7  6  1  0
  8  7  2  0
  9  8  1  0
 10 11  1  0
 10  9  2  0
 11 12  2  0
 12  4  1  0
 12  7  1  0
 13  2  1  0
 13 21  1  0
 14 13  2  0
 16 18  1  0
 16 15  1  0
 17 16  2  0
 19 18  1  0
 20 21  1  0
 20 19  1  6
 22 20  1  0
 23 22  2  0
 24 25  1  0
 26 25  1  0
 26 27  1  6
 26 28  1  0
 28 29  1  6
 29 22  1  0
 30 32  1  0
 30 28  1  0
 31 30  2  0
M  END
$$$$
