NAI.pdb
     RDKit          3D

 22 21  0  0  1  0  0  0  0  0999 V2000
   17.8147  -11.7639  -19.2394 N   0  0  0  0  0  0  0  0  0  0  0  0
   17.1223  -10.5276  -18.9900 C   0  0  0  0  0  0  0  0  0  0  0  0
   16.3223  -10.1311  -19.8473 O   0  0  0  0  0  0  0  0  0  0  0  0
   17.3661   -9.7629  -17.7638 C   0  0  0  0  0  0  0  0  0  0  0  0
   18.3002  -10.4681  -16.8528 C   0  0  2  0  0  0  0  0  0  0  0  0
   17.5917  -11.3991  -16.0311 N   0  0  0  0  0  0  0  0  0  0  0  0
   19.1424   -9.5694  -16.0267 C   0  0  0  0  0  0  0  0  0  0  0  0
   18.5806   -8.7091  -15.2886 O   0  0  0  0  0  0  0  0  0  0  0  0
   22.8636   -9.3331  -15.1894 C   0  0  0  0  0  0  0  0  0  0  0  0
   21.4494   -8.8176  -15.2661 C   0  0  2  0  0  0  0  0  0  0  0  0
   20.5484   -9.6383  -16.0136 N   0  0  0  0  0  0  0  0  0  0  0  0
   21.3750   -7.3722  -15.5787 C   0  0  0  0  0  0  0  0  0  0  0  0
   21.0878   -6.8804  -16.6856 O   0  0  0  0  0  0  0  0  0  0  0  0
   19.1553   -2.2812  -15.9717 C   0  0  0  0  0  0  0  0  0  0  0  0
   20.4109   -2.8929  -15.4144 C   0  0  0  0  0  0  0  0  0  0  0  0
   20.3708   -4.3661  -15.1941 C   0  0  2  0  0  0  0  0  0  0  0  0
   19.2694   -4.5921  -14.1103 C   0  0  0  0  0  0  0  0  0  0  0  0
   21.5959   -5.0383  -14.7786 C   0  0  2  0  0  0  0  0  0  0  0  0
   21.6480   -6.4232  -14.4984 N   0  0  0  0  0  0  0  0  0  0  0  0
   22.2758   -4.2456  -13.6450 C   0  0  0  0  0  0  0  0  0  0  0  0
   22.8115   -3.1516  -13.8173 O   0  0  0  0  0  0  0  0  0  0  0  0
   22.2748   -4.7942  -12.3494 O   0  0  0  0  0  0  0  0  0  0  0  0
  1  2  1  0
  2  3  2  0
  4  2  1  0
  4  5  1  0
  5  6  1  1
  7  5  1  0
  7 11  1  0
  8  7  2  0
 10  9  1  6
 10 11  1  0
 10 12  1  0
 12 19  1  0
 13 12  2  0
 15 16  1  0
 15 14  1  0
 16 18  1  0
 16 17  1  1
 18 20  1  0
 18 19  1  1
 20 22  1  0
 21 20  2  0
M  END
$$$$
