NAI.pdb
     RDKit          3D

 22 21  0  0  1  0  0  0  0  0999 V2000
   29.3658  -22.6837  -17.2821 N   0  0  0  0  0  0  0  0  0  0  0  0
   29.1986  -21.2565  -17.3548 C   0  0  0  0  0  0  0  0  0  0  0  0
   29.8043  -20.6492  -18.2473 O   0  0  0  0  0  0  0  0  0  0  0  0
   28.3449  -20.5493  -16.3963 C   0  0  0  0  0  0  0  0  0  0  0  0
   27.8075  -21.4638  -15.3597 C   0  0  2  0  0  0  0  0  0  0  0  0
   26.8505  -22.3602  -15.9295 N   0  0  0  0  0  0  0  0  0  0  0  0
   27.2453  -20.7770  -14.1716 C   0  0  0  0  0  0  0  0  0  0  0  0
   27.9722  -19.9619  -13.5331 O   0  0  0  0  0  0  0  0  0  0  0  0
   23.8263  -19.9588  -12.8987 C   0  0  0  0  0  0  0  0  0  0  0  0
   25.2665  -20.3206  -12.6412 C   0  0  2  0  0  0  0  0  0  0  0  0
   25.9256  -20.9797  -13.7253 N   0  0  0  0  0  0  0  0  0  0  0  0
   25.4798  -20.9445  -11.3154 C   0  0  0  0  0  0  0  0  0  0  0  0
   25.5129  -22.1669  -11.0826 O   0  0  0  0  0  0  0  0  0  0  0  0
   28.4419  -18.7785   -6.9038 C   0  0  0  0  0  0  0  0  0  0  0  0
   27.8469  -19.7182   -7.9159 C   0  0  0  0  0  0  0  0  0  0  0  0
   26.3956  -20.0128   -7.7510 C   0  0  2  0  0  0  0  0  0  0  0  0
   26.3040  -20.9585   -6.5117 C   0  0  0  0  0  0  0  0  0  0  0  0
   25.6799  -20.6174   -8.8681 C   0  0  2  0  0  0  0  0  0  0  0  0
   25.6842  -20.0598  -10.1674 N   0  0  0  0  0  0  0  0  0  0  0  0
   24.2378  -20.9626   -8.4477 C   0  0  0  0  0  0  0  0  0  0  0  0
   23.2543  -20.3392   -8.8451 O   0  0  0  0  0  0  0  0  0  0  0  0
   24.0353  -22.0485   -7.5764 O   0  0  0  0  0  0  0  0  0  0  0  0
  1  2  1  0
  2  3  2  0
  4  2  1  0
  4  5  1  0
  5  6  1  6
  7  5  1  0
  7 11  1  0
  8  7  2  0
 10  9  1  6
 10 11  1  0
 10 12  1  0
 12 19  1  0
 13 12  2  0
 15 16  1  0
 15 14  1  0
 16 18  1  0
 16 17  1  1
 18 20  1  0
 18 19  1  6
 20 22  1  0
 21 20  2  0
M  END
$$$$
