NAI.pdb
     RDKit          3D

 22 21  0  0  1  0  0  0  0  0999 V2000
   26.9744  -22.4541  -15.4420 N   0  0  0  0  0  0  0  0  0  0  0  0
   28.0596  -21.6682  -14.9175 C   0  0  0  0  0  0  0  0  0  0  0  0
   29.1667  -21.7782  -15.4601 O   0  0  0  0  0  0  0  0  0  0  0  0
   27.8572  -20.7748  -13.7735 C   0  0  0  0  0  0  0  0  0  0  0  0
   26.4966  -20.9154  -13.2003 C   0  0  2  0  0  0  0  0  0  0  0  0
   25.5089  -20.4951  -14.1446 N   0  0  0  0  0  0  0  0  0  0  0  0
   26.3084  -20.2293  -11.8990 C   0  0  0  0  0  0  0  0  0  0  0  0
   26.6891  -19.0289  -11.7778 O   0  0  0  0  0  0  0  0  0  0  0  0
   24.0117  -20.2448   -9.0882 C   0  0  0  0  0  0  0  0  0  0  0  0
   25.4607  -20.2756   -9.5021 C   0  0  2  0  0  0  0  0  0  0  0  0
   25.7083  -20.8506  -10.7874 N   0  0  0  0  0  0  0  0  0  0  0  0
   26.3610  -20.7509   -8.4270 C   0  0  0  0  0  0  0  0  0  0  0  0
   26.7762  -21.9160   -8.2869 O   0  0  0  0  0  0  0  0  0  0  0  0
   30.4926  -17.9949   -5.4098 C   0  0  0  0  0  0  0  0  0  0  0  0
   29.6458  -18.9646   -6.1868 C   0  0  0  0  0  0  0  0  0  0  0  0
   28.4028  -19.4273   -5.5077 C   0  0  2  0  0  0  0  0  0  0  0  0
   28.8883  -20.2341   -4.2619 C   0  0  0  0  0  0  0  0  0  0  0  0
   27.4601  -20.2404   -6.2666 C   0  0  2  0  0  0  0  0  0  0  0  0
   26.8240  -19.7742   -7.4401 N   0  0  0  0  0  0  0  0  0  0  0  0
   26.4205  -20.8689   -5.3180 C   0  0  0  0  0  0  0  0  0  0  0  0
   25.2504  -20.4933   -5.2593 O   0  0  0  0  0  0  0  0  0  0  0  0
   26.8261  -21.9294   -4.4870 O   0  0  0  0  0  0  0  0  0  0  0  0
  1  2  1  0
  2  3  2  0
  4  2  1  0
  4  5  1  0
  5  6  1  6
  7  5  1  0
  7 11  1  0
  8  7  2  0
 10  9  1  1
 10 11  1  0
 10 12  1  0
 12 19  1  0
 13 12  2  0
 15 16  1  0
 15 14  1  0
 16 18  1  0
 16 17  1  1
 18 20  1  0
 18 19  1  6
 20 22  1  0
 21 20  2  0
M  END
$$$$
