NAI.pdb
     RDKit          3D

 22 21  0  0  1  0  0  0  0  0999 V2000
   25.8552  -17.3265  -19.6063 N   0  0  0  0  0  0  0  0  0  0  0  0
   25.1006  -16.9524  -18.4397 C   0  0  0  0  0  0  0  0  0  0  0  0
   24.5294  -15.8543  -18.4496 O   0  0  0  0  0  0  0  0  0  0  0  0
   25.0211  -17.8421  -17.2779 C   0  0  0  0  0  0  0  0  0  0  0  0
   25.8341  -19.0679  -17.4676 C   0  0  2  0  0  0  0  0  0  0  0  0
   25.2185  -19.9348  -18.4235 N   0  0  0  0  0  0  0  0  0  0  0  0
   26.1401  -19.7978  -16.2134 C   0  0  0  0  0  0  0  0  0  0  0  0
   25.2788  -20.5959  -15.7423 O   0  0  0  0  0  0  0  0  0  0  0  0
   29.0761  -19.8333  -13.7485 C   0  0  0  0  0  0  0  0  0  0  0  0
   27.6590  -20.0868  -14.1947 C   0  0  2  0  0  0  0  0  0  0  0  0
   27.3592  -19.6547  -15.5241 N   0  0  0  0  0  0  0  0  0  0  0  0
   26.6533  -19.7043  -13.1774 C   0  0  0  0  0  0  0  0  0  0  0  0
   26.0343  -18.6252  -13.1352 O   0  0  0  0  0  0  0  0  0  0  0  0
   21.5352  -19.8563  -10.7939 C   0  0  0  0  0  0  0  0  0  0  0  0
   22.9886  -19.8717  -10.4081 C   0  0  0  0  0  0  0  0  0  0  0  0
   23.9306  -20.3628  -11.4530 C   0  0  2  0  0  0  0  0  0  0  0  0
   23.4901  -21.8314  -11.7493 C   0  0  0  0  0  0  0  0  0  0  0  0
   25.3593  -20.3411  -11.1634 C   0  0  2  0  0  0  0  0  0  0  0  0
   26.3377  -20.6747  -12.1281 N   0  0  0  0  0  0  0  0  0  0  0  0
   25.6432  -21.0877   -9.8452 C   0  0  0  0  0  0  0  0  0  0  0  0
   24.8679  -21.0839   -8.8900 O   0  0  0  0  0  0  0  0  0  0  0  0
   26.8412  -21.8169   -9.7325 O   0  0  0  0  0  0  0  0  0  0  0  0
  1  2  1  0
  2  3  2  0
  4  2  1  0
  4  5  1  0
  5  6  1  6
  7  5  1  0
  7 11  1  0
  8  7  2  0
 10  9  1  1
 10 11  1  0
 10 12  1  0
 12 19  1  0
 13 12  2  0
 15 16  1  0
 15 14  1  0
 16 18  1  0
 16 17  1  1
 18 20  1  0
 18 19  1  6
 20 22  1  0
 21 20  2  0
M  END
$$$$
