NAI.pdb
     RDKit          3D

 22 21  0  0  1  0  0  0  0  0999 V2000
   18.0360  -16.0983  -16.2467 N   0  0  0  0  0  0  0  0  0  0  0  0
   18.3649  -14.8939  -16.9618 C   0  0  0  0  0  0  0  0  0  0  0  0
   18.4941  -14.9694  -18.1905 O   0  0  0  0  0  0  0  0  0  0  0  0
   18.5478  -13.6243  -16.2530 C   0  0  0  0  0  0  0  0  0  0  0  0
   19.4139  -12.6904  -17.0128 C   0  0  2  0  0  0  0  0  0  0  0  0
   20.7295  -13.2312  -17.1564 N   0  0  0  0  0  0  0  0  0  0  0  0
   19.4658  -11.3165  -16.4568 C   0  0  0  0  0  0  0  0  0  0  0  0
   18.3866  -10.6729  -16.3099 O   0  0  0  0  0  0  0  0  0  0  0  0
   22.2272   -9.0555  -15.0615 C   0  0  0  0  0  0  0  0  0  0  0  0
   20.8245   -9.3932  -15.4973 C   0  0  2  0  0  0  0  0  0  0  0  0
   20.6674  -10.6946  -16.0678 N   0  0  0  0  0  0  0  0  0  0  0  0
   20.1745   -8.3012  -16.2572 C   0  0  0  0  0  0  0  0  0  0  0  0
   20.0358   -8.2566  -17.4935 O   0  0  0  0  0  0  0  0  0  0  0  0
   15.6760   -5.2722  -18.0130 C   0  0  0  0  0  0  0  0  0  0  0  0
   17.0079   -5.0447  -17.3529 C   0  0  0  0  0  0  0  0  0  0  0  0
   17.6313   -6.2426  -16.7231 C   0  0  2  0  0  0  0  0  0  0  0  0
   16.6727   -6.6426  -15.5569 C   0  0  0  0  0  0  0  0  0  0  0  0
   18.9898   -6.1263  -16.2070 C   0  0  2  0  0  0  0  0  0  0  0  0
   19.6296   -7.1719  -15.5023 N   0  0  0  0  0  0  0  0  0  0  0  0
   19.1531   -4.7983  -15.4418 C   0  0  0  0  0  0  0  0  0  0  0  0
   19.0671   -3.6963  -15.9819 O   0  0  0  0  0  0  0  0  0  0  0  0
   19.4019   -4.8484  -14.0579 O   0  0  0  0  0  0  0  0  0  0  0  0
  1  2  1  0
  2  3  2  0
  4  2  1  0
  4  5  1  0
  5  6  1  1
  7  5  1  0
  7 11  1  0
  8  7  2  0
 10  9  1  6
 10 11  1  0
 10 12  1  0
 12 19  1  0
 13 12  2  0
 15 16  1  0
 15 14  1  0
 16 18  1  0
 16 17  1  1
 18 20  1  0
 18 19  1  1
 20 22  1  0
 21 20  2  0
M  END
$$$$
