NAI.pdb
     RDKit          3D

 22 21  0  0  1  0  0  0  0  0999 V2000
   29.4911  -23.0096  -16.4688 N   0  0  0  0  0  0  0  0  0  0  0  0
   29.1451  -21.6130  -16.4748 C   0  0  0  0  0  0  0  0  0  0  0  0
   29.3586  -20.9700  -17.5107 O   0  0  0  0  0  0  0  0  0  0  0  0
   28.5671  -20.9761  -15.2882 C   0  0  0  0  0  0  0  0  0  0  0  0
   27.1061  -20.7662  -15.4336 C   0  0  2  0  0  0  0  0  0  0  0  0
   26.8366  -19.8150  -16.4664 N   0  0  0  0  0  0  0  0  0  0  0  0
   26.4151  -20.3903  -14.1764 C   0  0  0  0  0  0  0  0  0  0  0  0
   26.9607  -19.5495  -13.4044 O   0  0  0  0  0  0  0  0  0  0  0  0
   22.9951  -21.0734  -12.6197 C   0  0  0  0  0  0  0  0  0  0  0  0
   24.4503  -20.6819  -12.5889 C   0  0  2  0  0  0  0  0  0  0  0  0
   25.1638  -20.9178  -13.8051 N   0  0  0  0  0  0  0  0  0  0  0  0
   25.1472  -21.1359  -11.3638 C   0  0  0  0  0  0  0  0  0  0  0  0
   25.6314  -22.2675  -11.1784 O   0  0  0  0  0  0  0  0  0  0  0  0
   28.3112  -19.6279   -6.2489 C   0  0  0  0  0  0  0  0  0  0  0  0
   27.3069  -20.4625   -6.9946 C   0  0  0  0  0  0  0  0  0  0  0  0
   26.7462  -19.8491   -8.2314 C   0  0  2  0  0  0  0  0  0  0  0  0
   26.0419  -18.5375   -7.7596 C   0  0  0  0  0  0  0  0  0  0  0  0
   25.8122  -20.6324   -9.0313 C   0  0  2  0  0  0  0  0  0  0  0  0
   25.3005  -20.1774  -10.2684 N   0  0  0  0  0  0  0  0  0  0  0  0
   24.6633  -21.1522   -8.1451 C   0  0  0  0  0  0  0  0  0  0  0  0
   24.8230  -21.9957   -7.2638 O   0  0  0  0  0  0  0  0  0  0  0  0
   23.3725  -20.6299   -8.3464 O   0  0  0  0  0  0  0  0  0  0  0  0
  1  2  1  0
  2  3  2  0
  4  2  1  0
  4  5  1  0
  5  6  1  6
  7  5  1  0
  7 11  1  0
  8  7  2  0
 10  9  1  6
 10 11  1  0
 10 12  1  0
 12 19  1  0
 13 12  2  0
 15 16  1  0
 15 14  1  0
 16 18  1  0
 16 17  1  1
 18 20  1  0
 18 19  1  6
 20 22  1  0
 21 20  2  0
M  END
$$$$
