NAI.pdb
     RDKit          3D

 22 21  0  0  1  0  0  0  0  0999 V2000
   16.1554  -14.9096  -16.2961 N   0  0  0  0  0  0  0  0  0  0  0  0
   16.8779  -14.6468  -17.5123 C   0  0  0  0  0  0  0  0  0  0  0  0
   17.0307  -15.5838  -18.3067 O   0  0  0  0  0  0  0  0  0  0  0  0
   17.4199  -13.3144  -17.7924 C   0  0  0  0  0  0  0  0  0  0  0  0
   17.1167  -12.3570  -16.7011 C   0  0  2  0  0  0  0  0  0  0  0  0
   15.7135  -12.0882  -16.6455 N   0  0  0  0  0  0  0  0  0  0  0  0
   17.8937  -11.0953  -16.7623 C   0  0  0  0  0  0  0  0  0  0  0  0
   19.1573  -11.1512  -16.7373 O   0  0  0  0  0  0  0  0  0  0  0  0
   17.0262   -7.3877  -17.1880 C   0  0  0  0  0  0  0  0  0  0  0  0
   17.9399   -8.5585  -16.9307 C   0  0  2  0  0  0  0  0  0  0  0  0
   17.2874   -9.8287  -16.8621 N   0  0  0  0  0  0  0  0  0  0  0  0
   18.9169   -8.3047  -15.8473 C   0  0  0  0  0  0  0  0  0  0  0  0
   18.7229   -8.4950  -14.6326 O   0  0  0  0  0  0  0  0  0  0  0  0
   23.3883  -10.8371  -15.0347 C   0  0  0  0  0  0  0  0  0  0  0  0
   22.1516   -9.9872  -15.1326 C   0  0  0  0  0  0  0  0  0  0  0  0
   22.3737   -8.5143  -15.0951 C   0  0  2  0  0  0  0  0  0  0  0  0
   23.0885   -8.2386  -13.7342 C   0  0  0  0  0  0  0  0  0  0  0  0
   21.2163   -7.6357  -15.2140 C   0  0  2  0  0  0  0  0  0  0  0  0
   20.2375   -7.7967  -16.2216 N   0  0  0  0  0  0  0  0  0  0  0  0
   21.6615   -6.1618  -15.1429 C   0  0  0  0  0  0  0  0  0  0  0  0
   21.6121   -5.3974  -16.1056 O   0  0  0  0  0  0  0  0  0  0  0  0
   22.1373   -5.6638  -13.9160 O   0  0  0  0  0  0  0  0  0  0  0  0
  1  2  1  0
  2  3  2  0
  4  2  1  0
  4  5  1  0
  5  6  1  6
  7  5  1  0
  7 11  1  0
  8  7  2  0
 10  9  1  1
 10 11  1  0
 10 12  1  0
 12 19  1  0
 13 12  2  0
 15 16  1  0
 15 14  1  0
 16 18  1  0
 16 17  1  1
 18 20  1  0
 18 19  1  6
 20 22  1  0
 21 20  2  0
M  END
$$$$
