NAI.pdb
     RDKit          3D

 22 21  0  0  1  0  0  0  0  0999 V2000
   24.2388  -18.7450  -16.0700 N   0  0  0  0  0  0  0  0  0  0  0  0
   25.4271  -19.0393  -15.3138 C   0  0  0  0  0  0  0  0  0  0  0  0
   26.3512  -19.6226  -15.8949 O   0  0  0  0  0  0  0  0  0  0  0  0
   25.5310  -18.6657  -13.9005 C   0  0  0  0  0  0  0  0  0  0  0  0
   25.8293  -19.8381  -13.0425 C   0  0  2  0  0  0  0  0  0  0  0  0
   24.9468  -20.9206  -13.3484 N   0  0  0  0  0  0  0  0  0  0  0  0
   25.8239  -19.5477  -11.5883 C   0  0  0  0  0  0  0  0  0  0  0  0
   26.4508  -18.5345  -11.1627 O   0  0  0  0  0  0  0  0  0  0  0  0
   23.8464  -20.7425   -8.5768 C   0  0  0  0  0  0  0  0  0  0  0  0
   25.0657  -20.1524   -9.2376 C   0  0  2  0  0  0  0  0  0  0  0  0
   25.1367  -20.3440  -10.6526 N   0  0  0  0  0  0  0  0  0  0  0  0
   26.3205  -20.4475   -8.5089 C   0  0  0  0  0  0  0  0  0  0  0  0
   27.2231  -21.2135   -8.8936 O   0  0  0  0  0  0  0  0  0  0  0  0
   29.4386  -16.9569   -5.2326 C   0  0  0  0  0  0  0  0  0  0  0  0
   28.9766  -18.0180   -6.1927 C   0  0  0  0  0  0  0  0  0  0  0  0
   28.3623  -19.2269   -5.5750 C   0  0  2  0  0  0  0  0  0  0  0  0
   29.5387  -19.9743   -4.8706 C   0  0  0  0  0  0  0  0  0  0  0  0
   27.6512  -20.1613   -6.4392 C   0  0  2  0  0  0  0  0  0  0  0  0
   26.5411  -19.7776   -7.2264 N   0  0  0  0  0  0  0  0  0  0  0  0
   27.3269  -21.4547   -5.6663 C   0  0  0  0  0  0  0  0  0  0  0  0
   26.1881  -21.7603   -5.3150 O   0  0  0  0  0  0  0  0  0  0  0  0
   28.3816  -22.3329   -5.3566 O   0  0  0  0  0  0  0  0  0  0  0  0
  1  2  1  0
  2  3  2  0
  4  2  1  0
  4  5  1  0
  5  6  1  1
  7  5  1  0
  7 11  1  0
  8  7  2  0
 10  9  1  1
 10 11  1  0
 10 12  1  0
 12 19  1  0
 13 12  2  0
 15 16  1  0
 15 14  1  0
 16 18  1  0
 16 17  1  6
 18 20  1  0
 18 19  1  1
 20 22  1  0
 21 20  2  0
M  END
$$$$
