NAI.pdb
     RDKit          3D

 22 21  0  0  1  0  0  0  0  0999 V2000
   28.6426  -21.2200  -19.7041 N   0  0  0  0  0  0  0  0  0  0  0  0
   29.1560  -20.9811  -18.3814 C   0  0  0  0  0  0  0  0  0  0  0  0
   30.2779  -21.4270  -18.1085 O   0  0  0  0  0  0  0  0  0  0  0  0
   28.3689  -20.2408  -17.3913 C   0  0  0  0  0  0  0  0  0  0  0  0
   27.9093  -21.1178  -16.2872 C   0  0  2  0  0  0  0  0  0  0  0  0
   27.1048  -22.1845  -16.7960 N   0  0  0  0  0  0  0  0  0  0  0  0
   27.2086  -20.4044  -15.1920 C   0  0  0  0  0  0  0  0  0  0  0  0
   27.8032  -19.4602  -14.5959 O   0  0  0  0  0  0  0  0  0  0  0  0
   23.7789  -19.5682  -14.2266 C   0  0  0  0  0  0  0  0  0  0  0  0
   25.1229  -20.0788  -13.7743 C   0  0  2  0  0  0  0  0  0  0  0  0
   25.8969  -20.7208  -14.7905 N   0  0  0  0  0  0  0  0  0  0  0  0
   25.0631  -20.8086  -12.4873 C   0  0  0  0  0  0  0  0  0  0  0  0
   24.9275  -22.0387  -12.3534 O   0  0  0  0  0  0  0  0  0  0  0  0
   27.2962  -18.9635   -7.5633 C   0  0  0  0  0  0  0  0  0  0  0  0
   26.8809  -19.8737   -8.6860 C   0  0  0  0  0  0  0  0  0  0  0  0
   25.4285  -20.2000   -8.7513 C   0  0  2  0  0  0  0  0  0  0  0  0
   25.2041  -21.3051   -7.6710 C   0  0  0  0  0  0  0  0  0  0  0  0
   24.8767  -20.6542  -10.0220 C   0  0  2  0  0  0  0  0  0  0  0  0
   25.1855  -20.0313  -11.2532 N   0  0  0  0  0  0  0  0  0  0  0  0
   23.3528  -20.8488   -9.8977 C   0  0  0  0  0  0  0  0  0  0  0  0
   22.5363  -19.9902  -10.2290 O   0  0  0  0  0  0  0  0  0  0  0  0
   22.8722  -22.0701   -9.3909 O   0  0  0  0  0  0  0  0  0  0  0  0
  1  2  1  0
  2  3  2  0
  4  2  1  0
  4  5  1  0
  5  6  1  6
  7  5  1  0
  7 11  1  0
  8  7  2  0
 10  9  1  6
 10 11  1  0
 10 12  1  0
 12 19  1  0
 13 12  2  0
 15 16  1  0
 15 14  1  0
 16 18  1  0
 16 17  1  1
 18 20  1  0
 18 19  1  6
 20 22  1  0
 21 20  2  0
M  END
$$$$
