QTP.pdb
     RDKit          3D

 24 24  0  0  1  0  0  0  0  0999 V2000
    8.9085  -11.9635   19.0015 N   0  0  0  0  0  0  0  0  0  0  0  0
    8.7769  -12.8870   17.9175 C   0  0  0  0  0  0  0  0  0  0  0  0
    9.3593  -12.7415   16.8196 O   0  0  0  0  0  0  0  0  0  0  0  0
    7.9028  -14.0607   18.1384 C   0  0  0  0  0  0  0  0  0  0  0  0
    7.3406  -14.0995   19.5367 C   0  0  0  0  0  0  0  0  0  0  0  0
    7.7377  -15.3997   20.1890 C   0  0  2  0  0  0  0  0  0  0  0  0
    7.2494  -16.4659   19.3091 N   0  0  0  0  0  0  0  0  0  0  0  0
    7.1856  -15.5559   21.5574 C   0  0  0  0  0  0  0  0  0  0  0  0
    5.9348  -15.5887   21.7367 O   0  0  0  0  0  0  0  0  0  0  0  0
    6.7621  -17.3826   25.8252 C   0  0  0  0  0  0  0  0  0  0  0  0
    7.2791  -17.2227   24.4289 C   0  0  1  0  0  0  0  0  0  0  0  0
    6.2834  -17.7828   23.5906 O   0  0  0  0  0  0  0  0  0  0  0  0
    7.4352  -15.7678   24.0760 C   0  0  2  0  0  0  0  0  0  0  0  0
    7.9819  -15.6744   22.7123 N   0  0  0  0  0  0  0  0  0  0  0  0
    8.3540  -15.1123   25.0087 C   0  0  0  0  0  0  0  0  0  0  0  0
    9.6048  -15.1805   24.6659 O   0  0  0  0  0  0  0  0  0  0  0  0
    8.0731  -14.4295   26.1954 N   0  0  0  0  0  0  0  0  0  0  0  0
    6.7930  -14.1466   26.7758 C   0  0  0  0  0  0  0  0  0  0  0  0
    6.9552  -12.6557   27.1120 C   0  0  0  0  0  0  0  0  0  0  0  0
    8.4463  -12.4339   27.2671 C   0  0  0  0  0  0  0  0  0  0  0  0
    9.0508  -13.8052   27.0538 C   0  0  1  0  0  0  0  0  0  0  0  0
    9.1523  -14.4686   28.3876 C   0  0  0  0  0  0  0  0  0  0  0  0
    8.3203  -15.5381   28.6710 O   0  0  0  0  0  0  0  0  0  0  0  0
    9.9600  -14.1104   29.2848 O   0  0  0  0  0  0  0  0  0  0  0  0
  2  3  2  0
  2  1  1  0
  4  2  1  0
  5  4  1  0
  6  8  1  0
  6  5  1  0
  6  7  1  6
  8 14  1  0
  8  9  2  0
 11 10  1  1
 11 12  1  0
 13 11  1  0
 13 14  1  6
 15 17  1  0
 15 13  1  0
 16 15  2  0
 17 21  1  0
 18 17  1  0
 18 19  1  0
 19 20  1  0
 21 20  1  0
 22 23  1  0
 21 22  1  1
 24 22  2  0
M  END
$$$$
