QTP.pdb
     RDKit          3D

 24 24  0  0  1  0  0  0  0  0999 V2000
    7.4522  -12.8156   18.1331 N   0  0  0  0  0  0  0  0  0  0  0  0
    8.2561  -13.8988   17.6581 C   0  0  0  0  0  0  0  0  0  0  0  0
    8.4618  -14.1173   16.4434 O   0  0  0  0  0  0  0  0  0  0  0  0
    8.8592  -14.7846   18.6789 C   0  0  0  0  0  0  0  0  0  0  0  0
    8.5113  -14.3587   20.0826 C   0  0  0  0  0  0  0  0  0  0  0  0
    9.3966  -15.0989   21.0533 C   0  0  2  0  0  0  0  0  0  0  0  0
    9.2867  -16.5194   20.7074 N   0  0  0  0  0  0  0  0  0  0  0  0
    9.0202  -14.8743   22.4709 C   0  0  0  0  0  0  0  0  0  0  0  0
    8.8941  -13.6975   22.9147 O   0  0  0  0  0  0  0  0  0  0  0  0
    6.0586  -16.4563   24.2828 C   0  0  0  0  0  0  0  0  0  0  0  0
    7.2812  -16.6900   25.1154 C   0  0  1  0  0  0  0  0  0  0  0  0
    7.7408  -17.9818   24.7578 O   0  0  0  0  0  0  0  0  0  0  0  0
    8.3580  -15.6925   24.7823 C   0  0  2  0  0  0  0  0  0  0  0  0
    8.7849  -15.9136   23.3907 N   0  0  0  0  0  0  0  0  0  0  0  0
    9.5078  -15.8669   25.6717 C   0  0  0  0  0  0  0  0  0  0  0  0
   10.5605  -16.3636   25.0959 O   0  0  0  0  0  0  0  0  0  0  0  0
    9.6273  -15.5714   27.0327 N   0  0  0  0  0  0  0  0  0  0  0  0
    8.6481  -14.9920   27.9051 C   0  0  0  0  0  0  0  0  0  0  0  0
    9.4915  -13.9145   28.6049 C   0  0  0  0  0  0  0  0  0  0  0  0
   10.9238  -14.4032   28.5241 C   0  0  0  0  0  0  0  0  0  0  0  0
   10.8214  -15.7418   27.8247 C   0  0  1  0  0  0  0  0  0  0  0  0
   10.6697  -16.7919   28.8754 C   0  0  0  0  0  0  0  0  0  0  0  0
    9.4665  -17.4683   28.9803 O   0  0  0  0  0  0  0  0  0  0  0  0
   11.5822  -17.1056   29.6845 O   0  0  0  0  0  0  0  0  0  0  0  0
  2  3  2  0
  2  1  1  0
  4  2  1  0
  5  4  1  0
  6  8  1  0
  6  5  1  0
  6  7  1  6
  8 14  1  0
  8  9  2  0
 11 10  1  6
 11 12  1  0
 13 11  1  0
 13 14  1  6
 15 17  1  0
 15 13  1  0
 16 15  2  0
 17 21  1  0
 18 17  1  0
 18 19  1  0
 19 20  1  0
 21 20  1  0
 22 23  1  0
 21 22  1  1
 24 22  2  0
M  END
$$$$
