QTP.pdb
     RDKit          3D

 24 24  0  0  1  0  0  0  0  0999 V2000
   12.4731  -20.3203   23.6503 N   0  0  0  0  0  0  0  0  0  0  0  0
   13.4265  -19.2702   23.4670 C   0  0  0  0  0  0  0  0  0  0  0  0
   14.5074  -19.2097   24.0944 O   0  0  0  0  0  0  0  0  0  0  0  0
   13.0876  -18.2211   22.4797 C   0  0  0  0  0  0  0  0  0  0  0  0
   11.7578  -18.4704   21.8145 C   0  0  0  0  0  0  0  0  0  0  0  0
   11.4625  -17.3346   20.8677 C   0  0  2  0  0  0  0  0  0  0  0  0
   12.7584  -16.8843   20.3506 N   0  0  0  0  0  0  0  0  0  0  0  0
   10.7379  -16.2126   21.5140 C   0  0  0  0  0  0  0  0  0  0  0  0
   11.3644  -15.1736   21.8686 O   0  0  0  0  0  0  0  0  0  0  0  0
    6.4083  -14.2068   22.9311 C   0  0  0  0  0  0  0  0  0  0  0  0
    7.1713  -15.3360   22.3106 C   0  0  1  0  0  0  0  0  0  0  0  0
    6.8929  -15.2630   20.9231 O   0  0  0  0  0  0  0  0  0  0  0  0
    8.6527  -15.1578   22.5089 C   0  0  2  0  0  0  0  0  0  0  0  0
    9.3537  -16.2210   21.7703 N   0  0  0  0  0  0  0  0  0  0  0  0
    8.9925  -15.2546   23.9298 C   0  0  0  0  0  0  0  0  0  0  0  0
    9.8840  -16.1572   24.2074 O   0  0  0  0  0  0  0  0  0  0  0  0
    8.5005  -14.5167   25.0101 N   0  0  0  0  0  0  0  0  0  0  0  0
    7.4597  -13.5306   25.0118 C   0  0  0  0  0  0  0  0  0  0  0  0
    8.1305  -12.4091   25.8205 C   0  0  0  0  0  0  0  0  0  0  0  0
    9.1681  -13.0962   26.6854 C   0  0  0  0  0  0  0  0  0  0  0  0
    9.0103  -14.5659   26.3591 C   0  0  1  0  0  0  0  0  0  0  0  0
    8.0276  -15.1418   27.3247 C   0  0  0  0  0  0  0  0  0  0  0  0
    6.7711  -15.5028   26.8694 O   0  0  0  0  0  0  0  0  0  0  0  0
    8.2742  -15.3225   28.5462 O   0  0  0  0  0  0  0  0  0  0  0  0
  2  3  2  0
  2  1  1  0
  4  2  1  0
  5  4  1  0
  6  8  1  0
  6  5  1  0
  6  7  1  1
  8 14  1  0
  8  9  2  0
 11 10  1  1
 11 12  1  0
 13 11  1  0
 13 14  1  6
 15 17  1  0
 15 13  1  0
 16 15  2  0
 17 21  1  0
 18 17  1  0
 18 19  1  0
 19 20  1  0
 21 20  1  0
 22 23  1  0
 21 22  1  1
 24 22  2  0
M  END
$$$$
