QTP.pdb
     RDKit          3D

 24 24  0  0  1  0  0  0  0  0999 V2000
    7.8776  -12.7298   17.8391 N   0  0  0  0  0  0  0  0  0  0  0  0
    8.3348  -14.0217   17.4301 C   0  0  0  0  0  0  0  0  0  0  0  0
    8.7994  -14.2547   16.2919 O   0  0  0  0  0  0  0  0  0  0  0  0
    8.2403  -15.1129   18.4253 C   0  0  0  0  0  0  0  0  0  0  0  0
    7.7438  -14.6253   19.7627 C   0  0  0  0  0  0  0  0  0  0  0  0
    8.8440  -14.7835   20.7817 C   0  0  2  0  0  0  0  0  0  0  0  0
    9.4024  -16.1237   20.5776 N   0  0  0  0  0  0  0  0  0  0  0  0
    8.3706  -14.6204   22.1784 C   0  0  0  0  0  0  0  0  0  0  0  0
    7.7499  -13.5734   22.5195 O   0  0  0  0  0  0  0  0  0  0  0  0
    5.8589  -16.2065   24.1683 C   0  0  0  0  0  0  0  0  0  0  0  0
    7.1284  -16.4378   24.9281 C   0  0  1  0  0  0  0  0  0  0  0  0
    7.6075  -17.6971   24.4894 O   0  0  0  0  0  0  0  0  0  0  0  0
    8.1570  -15.3926   24.5885 C   0  0  2  0  0  0  0  0  0  0  0  0
    8.5694  -15.5813   23.1879 N   0  0  0  0  0  0  0  0  0  0  0  0
    9.3278  -15.5278   25.4572 C   0  0  0  0  0  0  0  0  0  0  0  0
   10.3882  -15.9819   24.8607 O   0  0  0  0  0  0  0  0  0  0  0  0
    9.4597  -15.2344   26.8174 N   0  0  0  0  0  0  0  0  0  0  0  0
    8.4838  -14.6696   27.7030 C   0  0  0  0  0  0  0  0  0  0  0  0
    9.3218  -13.5834   28.3957 C   0  0  0  0  0  0  0  0  0  0  0  0
   10.7590  -14.0538   28.2966 C   0  0  0  0  0  0  0  0  0  0  0  0
   10.6652  -15.3918   27.5948 C   0  0  1  0  0  0  0  0  0  0  0  0
   10.5392  -16.4465   28.6443 C   0  0  0  0  0  0  0  0  0  0  0  0
   11.6532  -16.7858   29.3927 O   0  0  0  0  0  0  0  0  0  0  0  0
    9.4662  -17.0560   28.8949 O   0  0  0  0  0  0  0  0  0  0  0  0
  2  3  2  0
  2  1  1  0
  4  2  1  0
  5  4  1  0
  6  8  1  0
  6  5  1  0
  6  7  1  1
  8 14  1  0
  8  9  2  0
 11 10  1  6
 11 12  1  0
 13 11  1  0
 13 14  1  6
 15 17  1  0
 15 13  1  0
 16 15  2  0
 17 21  1  0
 18 17  1  0
 18 19  1  0
 19 20  1  0
 21 20  1  0
 22 23  1  0
 21 22  1  1
 24 22  2  0
M  END
$$$$
