QTP.pdb
     RDKit          3D

 24 24  0  0  1  0  0  0  0  0999 V2000
   14.9572  -13.5933   19.4216 N   0  0  0  0  0  0  0  0  0  0  0  0
   14.3249  -14.8544   19.6559 C   0  0  0  0  0  0  0  0  0  0  0  0
   14.1992  -15.3560   20.7953 O   0  0  0  0  0  0  0  0  0  0  0  0
   13.8045  -15.5743   18.4722 C   0  0  0  0  0  0  0  0  0  0  0  0
   12.5007  -14.9986   17.9806 C   0  0  0  0  0  0  0  0  0  0  0  0
   11.3612  -15.7117   18.6639 C   0  0  2  0  0  0  0  0  0  0  0  0
   10.5869  -16.3600   17.6010 N   0  0  0  0  0  0  0  0  0  0  0  0
   10.4998  -14.8022   19.4593 C   0  0  0  0  0  0  0  0  0  0  0  0
   10.1465  -13.6858   18.9832 O   0  0  0  0  0  0  0  0  0  0  0  0
    7.9764  -13.5273   19.3855 C   0  0  0  0  0  0  0  0  0  0  0  0
    7.7774  -14.2319   20.6917 C   0  0  1  0  0  0  0  0  0  0  0  0
    7.4168  -15.5599   20.3539 O   0  0  0  0  0  0  0  0  0  0  0  0
    9.0579  -14.2727   21.4819 C   0  0  2  0  0  0  0  0  0  0  0  0
   10.0305  -15.1027   20.7520 N   0  0  0  0  0  0  0  0  0  0  0  0
    8.8233  -14.8567   22.8038 C   0  0  0  0  0  0  0  0  0  0  0  0
    9.7256  -15.7116   23.1800 O   0  0  0  0  0  0  0  0  0  0  0  0
    7.7808  -14.6196   23.7042 N   0  0  0  0  0  0  0  0  0  0  0  0
    6.6501  -13.7523   23.5456 C   0  0  0  0  0  0  0  0  0  0  0  0
    6.6664  -13.0131   24.8929 C   0  0  0  0  0  0  0  0  0  0  0  0
    7.3691  -13.9450   25.8596 C   0  0  0  0  0  0  0  0  0  0  0  0
    7.6792  -15.1744   25.0324 C   0  0  1  0  0  0  0  0  0  0  0  0
    6.5311  -16.1185   25.1751 C   0  0  0  0  0  0  0  0  0  0  0  0
    5.7412  -16.3873   24.0706 O   0  0  0  0  0  0  0  0  0  0  0  0
    6.2320  -16.6943   26.2543 O   0  0  0  0  0  0  0  0  0  0  0  0
  2  3  2  0
  2  1  1  0
  4  2  1  0
  5  4  1  0
  6  8  1  0
  6  5  1  0
  6  7  1  6
  8 14  1  0
  8  9  2  0
 11 10  1  6
 11 12  1  0
 13 11  1  0
 13 14  1  6
 15 17  1  0
 15 13  1  0
 16 15  2  0
 17 21  1  0
 18 17  1  0
 18 19  1  0
 19 20  1  0
 21 20  1  0
 22 23  1  0
 21 22  1  6
 24 22  2  0
M  END
$$$$
