QTP.pdb
     RDKit          3D

 24 24  0  0  1  0  0  0  0  0999 V2000
    7.8801  -12.6640   17.4470 N   0  0  0  0  0  0  0  0  0  0  0  0
    8.3364  -13.9097   16.9129 C   0  0  0  0  0  0  0  0  0  0  0  0
    8.5839  -14.0844   15.6989 O   0  0  0  0  0  0  0  0  0  0  0  0
    8.5146  -15.0248   17.8695 C   0  0  0  0  0  0  0  0  0  0  0  0
    8.2022  -14.6173   19.2869 C   0  0  0  0  0  0  0  0  0  0  0  0
    8.2474  -15.8390   20.1697 C   0  0  2  0  0  0  0  0  0  0  0  0
    7.5725  -16.9073   19.4262 N   0  0  0  0  0  0  0  0  0  0  0  0
    7.5994  -15.6280   21.4878 C   0  0  0  0  0  0  0  0  0  0  0  0
    6.3389  -15.6013   21.5777 O   0  0  0  0  0  0  0  0  0  0  0  0
    5.9627  -17.0157   23.2602 C   0  0  0  0  0  0  0  0  0  0  0  0
    7.0204  -16.7284   24.2806 C   0  0  1  0  0  0  0  0  0  0  0  0
    7.9907  -17.7480   24.1168 O   0  0  0  0  0  0  0  0  0  0  0  0
    7.6767  -15.3999   24.0161 C   0  0  2  0  0  0  0  0  0  0  0  0
    8.3117  -15.4490   22.6887 N   0  0  0  0  0  0  0  0  0  0  0  0
    8.6983  -15.1250   25.0283 C   0  0  0  0  0  0  0  0  0  0  0  0
    9.9132  -15.3799   24.6467 O   0  0  0  0  0  0  0  0  0  0  0  0
    8.5478  -14.6286   26.3262 N   0  0  0  0  0  0  0  0  0  0  0  0
    7.3335  -14.3810   27.0472 C   0  0  0  0  0  0  0  0  0  0  0  0
    7.6105  -12.9730   27.5974 C   0  0  0  0  0  0  0  0  0  0  0  0
    9.1197  -12.8512   27.6617 C   0  0  0  0  0  0  0  0  0  0  0  0
    9.6223  -14.1981   27.1878 C   0  0  1  0  0  0  0  0  0  0  0  0
    9.7814  -15.0710   28.3888 C   0  0  0  0  0  0  0  0  0  0  0  0
   10.8432  -14.8449   29.2477 O   0  0  0  0  0  0  0  0  0  0  0  0
    8.9978  -16.0147   28.6736 O   0  0  0  0  0  0  0  0  0  0  0  0
  2  3  2  0
  2  1  1  0
  4  2  1  0
  5  4  1  0
  6  8  1  0
  6  5  1  0
  6  7  1  6
  8 14  1  0
  8  9  2  0
 11 10  1  6
 11 12  1  0
 13 11  1  0
 13 14  1  6
 15 17  1  0
 15 13  1  0
 16 15  2  0
 17 21  1  0
 18 17  1  0
 18 19  1  0
 19 20  1  0
 21 20  1  0
 22 23  1  0
 21 22  1  1
 24 22  2  0
M  END
$$$$
