QTP.pdb
     RDKit          3D

 24 24  0  0  1  0  0  0  0  0999 V2000
   12.9622  -18.3620   16.6392 N   0  0  0  0  0  0  0  0  0  0  0  0
   11.7873  -18.1923   17.4366 C   0  0  0  0  0  0  0  0  0  0  0  0
   10.7206  -18.8110   17.2243 O   0  0  0  0  0  0  0  0  0  0  0  0
   11.8713  -17.2318   18.5593 C   0  0  0  0  0  0  0  0  0  0  0  0
   10.5531  -17.0696   19.2726 C   0  0  0  0  0  0  0  0  0  0  0  0
   10.8083  -16.9525   20.7542 C   0  0  2  0  0  0  0  0  0  0  0  0
   10.6549  -18.3027   21.3047 N   0  0  0  0  0  0  0  0  0  0  0  0
    9.8884  -16.0040   21.4293 C   0  0  0  0  0  0  0  0  0  0  0  0
    9.9267  -14.7728   21.1455 O   0  0  0  0  0  0  0  0  0  0  0  0
    5.6883  -15.1641   23.8054 C   0  0  0  0  0  0  0  0  0  0  0  0
    6.7063  -16.1259   23.2753 C   0  0  1  0  0  0  0  0  0  0  0  0
    6.2161  -16.5365   22.0109 O   0  0  0  0  0  0  0  0  0  0  0  0
    8.0344  -15.4470   23.0734 C   0  0  2  0  0  0  0  0  0  0  0  0
    8.9422  -16.3889   22.3978 N   0  0  0  0  0  0  0  0  0  0  0  0
    8.6123  -15.0628   24.3626 C   0  0  0  0  0  0  0  0  0  0  0  0
    9.8348  -15.4624   24.5426 O   0  0  0  0  0  0  0  0  0  0  0  0
    8.0392  -14.3318   25.4071 N   0  0  0  0  0  0  0  0  0  0  0  0
    6.7448  -13.7171   25.4555 C   0  0  0  0  0  0  0  0  0  0  0  0
    7.1100  -12.3250   25.9945 C   0  0  0  0  0  0  0  0  0  0  0  0
    8.4066  -12.5114   26.7566 C   0  0  0  0  0  0  0  0  0  0  0  0
    8.6916  -13.9942   26.6492 C   0  0  1  0  0  0  0  0  0  0  0  0
    8.0653  -14.6630   27.8282 C   0  0  0  0  0  0  0  0  0  0  0  0
    8.7338  -14.6520   29.0403 O   0  0  0  0  0  0  0  0  0  0  0  0
    6.9495  -15.2454   27.7881 O   0  0  0  0  0  0  0  0  0  0  0  0
  2  3  2  0
  2  1  1  0
  4  2  1  0
  5  4  1  0
  6  8  1  0
  6  5  1  0
  6  7  1  1
  8 14  1  0
  8  9  2  0
 11 10  1  6
 11 12  1  0
 13 11  1  0
 13 14  1  1
 15 17  1  0
 15 13  1  0
 16 15  2  0
 17 21  1  0
 18 17  1  0
 18 19  1  0
 19 20  1  0
 21 20  1  0
 22 23  1  0
 21 22  1  1
 24 22  2  0
M  END
$$$$
