QTP.pdb
     RDKit          3D

 24 24  0  0  1  0  0  0  0  0999 V2000
   12.3496  -19.8101   24.5060 N   0  0  0  0  0  0  0  0  0  0  0  0
   12.9368  -18.5063   24.4882 C   0  0  0  0  0  0  0  0  0  0  0  0
   13.7086  -18.0909   25.3811 O   0  0  0  0  0  0  0  0  0  0  0  0
   12.5946  -17.6319   23.3442 C   0  0  0  0  0  0  0  0  0  0  0  0
   11.5883  -18.2683   22.4194 C   0  0  0  0  0  0  0  0  0  0  0  0
   11.1474  -17.2496   21.3988 C   0  0  2  0  0  0  0  0  0  0  0  0
   12.3464  -16.8867   20.6371 N   0  0  0  0  0  0  0  0  0  0  0  0
   10.5297  -16.0460   22.0082 C   0  0  0  0  0  0  0  0  0  0  0  0
   11.2411  -15.0374   22.2812 O   0  0  0  0  0  0  0  0  0  0  0  0
    7.2320  -14.2324   20.8622 C   0  0  0  0  0  0  0  0  0  0  0  0
    7.1631  -14.5810   22.3169 C   0  0  1  0  0  0  0  0  0  0  0  0
    6.5064  -15.8352   22.3745 O   0  0  0  0  0  0  0  0  0  0  0  0
    8.5425  -14.7388   22.8985 C   0  0  2  0  0  0  0  0  0  0  0  0
    9.1599  -15.9415   22.3157 N   0  0  0  0  0  0  0  0  0  0  0  0
    8.4685  -14.8924   24.3527 C   0  0  0  0  0  0  0  0  0  0  0  0
    9.2579  -15.8031   24.8363 O   0  0  0  0  0  0  0  0  0  0  0  0
    7.6812  -14.2003   25.2772 N   0  0  0  0  0  0  0  0  0  0  0  0
    6.7835  -13.1083   25.0381 C   0  0  0  0  0  0  0  0  0  0  0  0
    7.2045  -12.1425   26.1570 C   0  0  0  0  0  0  0  0  0  0  0  0
    7.8140  -13.0130   27.2375 C   0  0  0  0  0  0  0  0  0  0  0  0
    7.6740  -14.4223   26.7030 C   0  0  1  0  0  0  0  0  0  0  0  0
    6.3730  -14.9664   27.1938 C   0  0  0  0  0  0  0  0  0  0  0  0
    6.3058  -15.4979   28.4703 O   0  0  0  0  0  0  0  0  0  0  0  0
    5.3166  -14.9719   26.5085 O   0  0  0  0  0  0  0  0  0  0  0  0
  2  3  2  0
  2  1  1  0
  4  2  1  0
  5  4  1  0
  6  8  1  0
  6  5  1  0
  6  7  1  1
  8 14  1  0
  8  9  2  0
 11 10  1  6
 11 12  1  0
 13 11  1  0
 13 14  1  6
 15 17  1  0
 15 13  1  0
 16 15  2  0
 17 21  1  0
 18 17  1  0
 18 19  1  0
 19 20  1  0
 21 20  1  0
 22 23  1  0
 21 22  1  1
 24 22  2  0
M  END
$$$$
