QTP.pdb
     RDKit          3D

 24 24  0  0  1  0  0  0  0  0999 V2000
    8.2171  -12.5751   17.8318 N   0  0  0  0  0  0  0  0  0  0  0  0
    8.4293  -13.9842   17.7112 C   0  0  0  0  0  0  0  0  0  0  0  0
    8.3051  -14.6052   16.6320 O   0  0  0  0  0  0  0  0  0  0  0  0
    8.8140  -14.7124   18.9407 C   0  0  0  0  0  0  0  0  0  0  0  0
   10.2938  -14.9952   18.9982 C   0  0  0  0  0  0  0  0  0  0  0  0
   10.6007  -15.7455   20.2696 C   0  0  2  0  0  0  0  0  0  0  0  0
    9.9639  -17.0592   20.1344 N   0  0  0  0  0  0  0  0  0  0  0  0
   10.1140  -15.0503   21.4868 C   0  0  0  0  0  0  0  0  0  0  0  0
   10.4518  -13.8531   21.7111 O   0  0  0  0  0  0  0  0  0  0  0  0
    6.4971  -14.7261   22.6604 C   0  0  0  0  0  0  0  0  0  0  0  0
    7.3022  -15.2831   23.7936 C   0  0  1  0  0  0  0  0  0  0  0  0
    7.1539  -16.6896   23.7073 O   0  0  0  0  0  0  0  0  0  0  0  0
    8.7608  -14.9475   23.6336 C   0  0  2  0  0  0  0  0  0  0  0  0
    9.2732  -15.6482   22.4445 N   0  0  0  0  0  0  0  0  0  0  0  0
    9.5162  -15.3811   24.8104 C   0  0  0  0  0  0  0  0  0  0  0  0
   10.5158  -16.1668   24.5462 O   0  0  0  0  0  0  0  0  0  0  0  0
    9.3151  -15.0658   26.1572 N   0  0  0  0  0  0  0  0  0  0  0  0
    8.2247  -14.3461   26.7478 C   0  0  0  0  0  0  0  0  0  0  0  0
    8.9872  -13.3626   27.6496 C   0  0  0  0  0  0  0  0  0  0  0  0
   10.3177  -14.0267   27.9419 C   0  0  0  0  0  0  0  0  0  0  0  0
   10.2315  -15.3610   27.2321 C   0  0  1  0  0  0  0  0  0  0  0  0
    9.6810  -16.3553   28.2006 C   0  0  0  0  0  0  0  0  0  0  0  0
   10.4857  -16.8027   29.2343 O   0  0  0  0  0  0  0  0  0  0  0  0
    8.5123  -16.8194   28.1347 O   0  0  0  0  0  0  0  0  0  0  0  0
  2  3  2  0
  2  1  1  0
  4  2  1  0
  5  4  1  0
  6  8  1  0
  6  5  1  0
  6  7  1  6
  8 14  1  0
  8  9  2  0
 11 10  1  6
 11 12  1  0
 13 11  1  0
 13 14  1  6
 15 17  1  0
 15 13  1  0
 16 15  2  0
 17 21  1  0
 18 17  1  0
 18 19  1  0
 19 20  1  0
 21 20  1  0
 22 23  1  0
 21 22  1  1
 24 22  2  0
M  END
$$$$
