QTP.pdb
     RDKit          3D

 24 24  0  0  1  0  0  0  0  0999 V2000
   15.2503  -15.6267   20.4108 N   0  0  0  0  0  0  0  0  0  0  0  0
   14.6729  -14.7040   19.4833 C   0  0  0  0  0  0  0  0  0  0  0  0
   15.2940  -13.7227   19.0174 O   0  0  0  0  0  0  0  0  0  0  0  0
   13.2719  -14.9509   19.0752 C   0  0  0  0  0  0  0  0  0  0  0  0
   12.3290  -14.9703   20.2515 C   0  0  0  0  0  0  0  0  0  0  0  0
   10.9242  -15.1917   19.7502 C   0  0  2  0  0  0  0  0  0  0  0  0
   10.9127  -14.7481   18.3528 N   0  0  0  0  0  0  0  0  0  0  0  0
    9.9031  -14.4604   20.5403 C   0  0  0  0  0  0  0  0  0  0  0  0
    9.5201  -13.3128   20.1741 O   0  0  0  0  0  0  0  0  0  0  0  0
    6.5682  -14.6954   20.7954 C   0  0  0  0  0  0  0  0  0  0  0  0
    6.9526  -14.8511   22.2343 C   0  0  1  0  0  0  0  0  0  0  0  0
    7.0421  -16.2482   22.4527 O   0  0  0  0  0  0  0  0  0  0  0  0
    8.3024  -14.2403   22.4999 C   0  0  2  0  0  0  0  0  0  0  0  0
    9.3083  -14.9697   21.7102 N   0  0  0  0  0  0  0  0  0  0  0  0
    8.6387  -14.3441   23.9211 C   0  0  0  0  0  0  0  0  0  0  0  0
    9.8251  -14.8162   24.1581 O   0  0  0  0  0  0  0  0  0  0  0  0
    7.8719  -14.0049   25.0394 N   0  0  0  0  0  0  0  0  0  0  0  0
    6.5456  -13.4617   25.0754 C   0  0  0  0  0  0  0  0  0  0  0  0
    6.7334  -12.3168   26.0833 C   0  0  0  0  0  0  0  0  0  0  0  0
    7.9153  -12.7205   26.9416 C   0  0  0  0  0  0  0  0  0  0  0  0
    8.3127  -14.0815   26.4113 C   0  0  1  0  0  0  0  0  0  0  0  0
    7.5687  -15.1097   27.1979 C   0  0  0  0  0  0  0  0  0  0  0  0
    8.0329  -15.4602   28.4541 O   0  0  0  0  0  0  0  0  0  0  0  0
    6.5290  -15.6869   26.7836 O   0  0  0  0  0  0  0  0  0  0  0  0
  2  3  2  0
  2  1  1  0
  4  2  1  0
  5  4  1  0
  6  8  1  0
  6  5  1  0
  6  7  1  6
  8 14  1  0
  8  9  2  0
 11 10  1  6
 11 12  1  0
 13 11  1  0
 13 14  1  6
 15 17  1  0
 15 13  1  0
 16 15  2  0
 17 21  1  0
 18 17  1  0
 18 19  1  0
 19 20  1  0
 21 20  1  0
 22 23  1  0
 21 22  1  1
 24 22  2  0
M  END
$$$$
