QTP.pdb
     RDKit          3D

 24 24  0  0  1  0  0  0  0  0999 V2000
    8.6611  -12.5789   17.8470 N   0  0  0  0  0  0  0  0  0  0  0  0
    8.5008  -13.8152   17.1463 C   0  0  0  0  0  0  0  0  0  0  0  0
    8.4901  -13.8981   15.8978 O   0  0  0  0  0  0  0  0  0  0  0  0
    8.3431  -15.0363   17.9675 C   0  0  0  0  0  0  0  0  0  0  0  0
    8.4157  -14.7447   19.4449 C   0  0  0  0  0  0  0  0  0  0  0  0
    8.2216  -16.0304   20.2085 C   0  0  2  0  0  0  0  0  0  0  0  0
    7.4485  -16.9154   19.3318 N   0  0  0  0  0  0  0  0  0  0  0  0
    7.5248  -15.8374   21.5042 C   0  0  0  0  0  0  0  0  0  0  0  0
    6.2662  -15.9352   21.5681 O   0  0  0  0  0  0  0  0  0  0  0  0
    5.9965  -17.3000   23.3633 C   0  0  0  0  0  0  0  0  0  0  0  0
    6.9891  -16.8195   24.3763 C   0  0  1  0  0  0  0  0  0  0  0  0
    8.0656  -17.7390   24.3167 O   0  0  0  0  0  0  0  0  0  0  0  0
    7.5089  -15.4539   24.0149 C   0  0  2  0  0  0  0  0  0  0  0  0
    8.1870  -15.5427   22.7110 N   0  0  0  0  0  0  0  0  0  0  0  0
    8.4633  -14.9880   25.0227 C   0  0  0  0  0  0  0  0  0  0  0  0
    9.7049  -15.2510   24.7473 O   0  0  0  0  0  0  0  0  0  0  0  0
    8.2251  -14.3052   26.2188 N   0  0  0  0  0  0  0  0  0  0  0  0
    6.9650  -13.9837   26.8223 C   0  0  0  0  0  0  0  0  0  0  0  0
    7.1831  -12.5018   27.1663 C   0  0  0  0  0  0  0  0  0  0  0  0
    8.6832  -12.3315   27.2982 C   0  0  0  0  0  0  0  0  0  0  0  0
    9.2373  -13.7208   27.0651 C   0  0  1  0  0  0  0  0  0  0  0  0
    9.3381  -14.3974   28.3924 C   0  0  0  0  0  0  0  0  0  0  0  0
    8.4687  -15.4339   28.6858 O   0  0  0  0  0  0  0  0  0  0  0  0
   10.1776  -14.0791   29.2754 O   0  0  0  0  0  0  0  0  0  0  0  0
  2  3  2  0
  2  1  1  0
  4  2  1  0
  5  4  1  0
  6  8  1  0
  6  5  1  0
  6  7  1  6
  8 14  1  0
  8  9  2  0
 11 10  1  6
 11 12  1  0
 13 11  1  0
 13 14  1  6
 15 17  1  0
 15 13  1  0
 16 15  2  0
 17 21  1  0
 18 17  1  0
 18 19  1  0
 19 20  1  0
 21 20  1  0
 22 23  1  0
 21 22  1  1
 24 22  2  0
M  END
$$$$
