TIY.pdb
     RDKit          3D

 28 28  0  0  1  0  0  0  0  0999 V2000
    5.0696  -20.5431   22.8187 C   0  0  0  0  0  0  0  0  0  0  0  0
    6.2053  -19.5527   22.6891 C   0  0  1  0  0  0  0  0  0  0  0  0
    7.4019  -20.1361   23.0195 O   0  0  0  0  0  0  0  0  0  0  0  0
    6.1872  -18.9142   21.3143 C   0  0  2  0  0  0  0  0  0  0  0  0
    6.2805  -20.0127   20.3618 N   0  0  0  0  0  0  0  0  0  0  0  0
    7.2813  -17.9403   21.1280 C   0  0  0  0  0  0  0  0  0  0  0  0
    8.4789  -18.2979   20.8660 O   0  0  0  0  0  0  0  0  0  0  0  0
    8.0954  -12.0101   19.5556 C   0  0  0  0  0  0  0  0  0  0  0  0
    8.4970  -13.1734   20.3948 C   0  0  0  0  0  0  0  0  0  0  0  0
    7.5477  -14.3109   20.4552 C   0  0  2  0  0  0  0  0  0  0  0  0
    6.2111  -13.7734   20.9581 C   0  0  0  0  0  0  0  0  0  0  0  0
    7.9913  -15.5100   21.2241 C   0  0  2  0  0  0  0  0  0  0  0  0
    6.9907  -16.5592   21.2437 N   0  0  0  0  0  0  0  0  0  0  0  0
    8.5104  -15.2064   22.5684 C   0  0  0  0  0  0  0  0  0  0  0  0
    7.8080  -14.5459   23.3631 O   0  0  0  0  0  0  0  0  0  0  0  0
   10.5383  -14.9025   30.7534 O   0  0  0  0  0  0  0  0  0  0  0  0
   10.2113  -15.1450   29.4154 C   0  0  0  0  0  0  0  0  0  0  0  0
    9.8800  -14.1040   28.5838 C   0  0  0  0  0  0  0  0  0  0  0  0
    9.5559  -14.3337   27.2622 C   0  0  0  0  0  0  0  0  0  0  0  0
    9.5503  -15.6089   26.7215 C   0  0  0  0  0  0  0  0  0  0  0  0
    9.1934  -15.8223   25.2995 C   0  0  0  0  0  0  0  0  0  0  0  0
   10.2339  -15.2803   24.3368 C   0  0  2  0  0  0  0  0  0  0  0  0
    9.7871  -15.6413   22.9985 N   0  0  0  0  0  0  0  0  0  0  0  0
   11.5630  -15.8833   24.5442 C   0  0  0  0  0  0  0  0  0  0  0  0
   12.5798  -15.3104   25.2939 O   0  0  0  0  0  0  0  0  0  0  0  0
    9.8814  -16.6549   27.5507 C   0  0  0  0  0  0  0  0  0  0  0  0
   10.2090  -16.4190   28.8883 C   0  0  0  0  0  0  0  0  0  0  0  0
   11.8159  -16.9940   24.0139 O   0  0  0  0  0  0  0  0  0  0  0  0
  2  1  1  6
  2  3  1  0
  4  5  1  6
  4  2  1  0
  6  4  1  0
  7  6  2  0
  9  8  1  0
 10  9  1  0
 10 11  1  1
 12 10  1  0
 12 13  1  1
 13  6  1  0
 14 12  1  0
 15 14  2  0
 16 17  1  0
 17 18  2  0
 18 19  1  0
 20 21  1  0
 20 19  2  0
 22 21  1  1
 22 24  1  0
 22 23  1  0
 23 14  1  0
 24 25  1  0
 26 20  1  0
 27 26  2  0
 27 17  1  0
 28 24  2  0
M  END
$$$$
