TIY.pdb
     RDKit          3D

 28 28  0  0  1  0  0  0  0  0999 V2000
    9.4983  -20.4163   18.3746 C   0  0  0  0  0  0  0  0  0  0  0  0
    9.5655  -19.3500   19.4451 C   0  0  1  0  0  0  0  0  0  0  0  0
   10.3645  -19.7518   20.4849 O   0  0  0  0  0  0  0  0  0  0  0  0
    9.9662  -18.0215   18.8346 C   0  0  2  0  0  0  0  0  0  0  0  0
   11.2716  -18.2388   18.2252 N   0  0  0  0  0  0  0  0  0  0  0  0
   10.0066  -16.9307   19.8290 C   0  0  0  0  0  0  0  0  0  0  0  0
   11.0821  -16.5886   20.4265 O   0  0  0  0  0  0  0  0  0  0  0  0
    6.6928  -12.4681   19.0832 C   0  0  0  0  0  0  0  0  0  0  0  0
    7.8120  -13.3712   19.4713 C   0  0  0  0  0  0  0  0  0  0  0  0
    7.6224  -14.1765   20.7019 C   0  0  2  0  0  0  0  0  0  0  0  0
    7.3134  -13.2128   21.8438 C   0  0  0  0  0  0  0  0  0  0  0  0
    8.7186  -15.1251   21.0540 C   0  0  2  0  0  0  0  0  0  0  0  0
    8.8082  -16.2389   20.1300 N   0  0  0  0  0  0  0  0  0  0  0  0
    8.7085  -15.5635   22.4598 C   0  0  0  0  0  0  0  0  0  0  0  0
    7.9709  -16.5123   22.8018 O   0  0  0  0  0  0  0  0  0  0  0  0
   10.6615  -16.0923   31.1146 O   0  0  0  0  0  0  0  0  0  0  0  0
   10.5913  -15.7273   29.7663 C   0  0  0  0  0  0  0  0  0  0  0  0
   10.0784  -14.5060   29.4053 C   0  0  0  0  0  0  0  0  0  0  0  0
   10.0052  -14.1372   28.0775 C   0  0  0  0  0  0  0  0  0  0  0  0
   10.4403  -14.9720   27.0615 C   0  0  0  0  0  0  0  0  0  0  0  0
   10.3439  -14.5479   25.6452 C   0  0  0  0  0  0  0  0  0  0  0  0
    9.4720  -15.4647   24.8072 C   0  0  2  0  0  0  0  0  0  0  0  0
    9.5129  -14.9454   23.4473 N   0  0  0  0  0  0  0  0  0  0  0  0
    8.0647  -15.4620   25.2466 C   0  0  0  0  0  0  0  0  0  0  0  0
    7.1587  -14.4456   24.9818 O   0  0  0  0  0  0  0  0  0  0  0  0
   10.9547  -16.1965   27.4183 C   0  0  0  0  0  0  0  0  0  0  0  0
   11.0276  -16.5669   28.7635 C   0  0  0  0  0  0  0  0  0  0  0  0
    7.6331  -16.4384   25.9092 O   0  0  0  0  0  0  0  0  0  0  0  0
  2  1  1  6
  2  3  1  0
  4  5  1  1
  4  2  1  0
  6  4  1  0
  7  6  2  0
  9  8  1  0
 10  9  1  0
 10 11  1  1
 12 10  1  0
 12 13  1  6
 13  6  1  0
 14 12  1  0
 15 14  2  0
 16 17  1  0
 17 18  2  0
 18 19  1  0
 20 21  1  0
 20 19  2  0
 22 21  1  1
 22 24  1  0
 22 23  1  0
 23 14  1  0
 24 25  1  0
 26 20  1  0
 27 26  2  0
 27 17  1  0
 28 24  2  0
M  END
$$$$
