TIY.pdb
     RDKit          3D

 28 28  0  0  1  0  0  0  0  0999 V2000
    5.7745  -16.1904   19.2087 C   0  0  0  0  0  0  0  0  0  0  0  0
    6.7535  -15.9372   20.3334 C   0  0  1  0  0  0  0  0  0  0  0  0
    7.9870  -16.4560   20.0329 O   0  0  0  0  0  0  0  0  0  0  0  0
    6.7718  -14.4634   20.6879 C   0  0  2  0  0  0  0  0  0  0  0  0
    7.1185  -13.7608   19.4595 N   0  0  0  0  0  0  0  0  0  0  0  0
    7.7213  -14.1546   21.7758 C   0  0  0  0  0  0  0  0  0  0  0  0
    8.9390  -13.8412   21.5532 O   0  0  0  0  0  0  0  0  0  0  0  0
    5.7648  -11.5780   26.2813 C   0  0  0  0  0  0  0  0  0  0  0  0
    6.5691  -12.1252   25.1533 C   0  0  0  0  0  0  0  0  0  0  0  0
    7.3193  -13.3770   25.4155 C   0  0  2  0  0  0  0  0  0  0  0  0
    8.1985  -13.1430   26.6405 C   0  0  0  0  0  0  0  0  0  0  0  0
    8.0943  -13.9422   24.2729 C   0  0  2  0  0  0  0  0  0  0  0  0
    7.2633  -14.2078   23.1147 N   0  0  0  0  0  0  0  0  0  0  0  0
    8.9419  -15.0926   24.6293 C   0  0  0  0  0  0  0  0  0  0  0  0
    8.4136  -16.2088   24.8195 O   0  0  0  0  0  0  0  0  0  0  0  0
   10.6727  -14.8628   31.5196 O   0  0  0  0  0  0  0  0  0  0  0  0
   10.5543  -15.3408   30.2106 C   0  0  0  0  0  0  0  0  0  0  0  0
   10.8999  -16.6356   29.9121 C   0  0  0  0  0  0  0  0  0  0  0  0
   10.7864  -17.1159   28.6234 C   0  0  0  0  0  0  0  0  0  0  0  0
   10.3243  -16.3235   27.5855 C   0  0  0  0  0  0  0  0  0  0  0  0
   10.2183  -16.8682   26.2119 C   0  0  0  0  0  0  0  0  0  0  0  0
   11.1007  -16.1419   25.2136 C   0  0  2  0  0  0  0  0  0  0  0  0
   10.3467  -14.9802   24.7634 N   0  0  0  0  0  0  0  0  0  0  0  0
   11.4080  -16.9641   24.0291 C   0  0  0  0  0  0  0  0  0  0  0  0
   12.5386  -17.7559   23.8914 O   0  0  0  0  0  0  0  0  0  0  0  0
    9.9770  -15.0257   27.8797 C   0  0  0  0  0  0  0  0  0  0  0  0
   10.0930  -14.5424   29.1854 C   0  0  0  0  0  0  0  0  0  0  0  0
   10.6040  -16.9632   23.0635 O   0  0  0  0  0  0  0  0  0  0  0  0
  2  1  1  6
  2  3  1  0
  4  5  1  6
  4  2  1  0
  6  4  1  0
  7  6  2  0
  9  8  1  0
 10  9  1  0
 10 11  1  1
 12 10  1  0
 12 13  1  6
 13  6  1  0
 14 12  1  0
 15 14  2  0
 16 17  1  0
 17 18  2  0
 18 19  1  0
 20 21  1  0
 20 19  2  0
 22 21  1  1
 22 24  1  0
 22 23  1  0
 23 14  1  0
 24 25  1  0
 26 20  1  0
 27 26  2  0
 27 17  1  0
 28 24  2  0
M  END
$$$$
