TIY.pdb
     RDKit          3D

 28 28  0  0  1  0  0  0  0  0999 V2000
    5.5817  -17.8861   20.5087 C   0  0  0  0  0  0  0  0  0  0  0  0
    6.6608  -17.2096   21.3244 C   0  0  1  0  0  0  0  0  0  0  0  0
    7.9046  -17.6475   20.9472 O   0  0  0  0  0  0  0  0  0  0  0  0
    6.4915  -15.7042   21.2683 C   0  0  2  0  0  0  0  0  0  0  0  0
    6.5480  -15.3477   19.8567 N   0  0  0  0  0  0  0  0  0  0  0  0
    7.5203  -14.9893   22.0498 C   0  0  0  0  0  0  0  0  0  0  0  0
    8.6400  -14.6369   21.5469 O   0  0  0  0  0  0  0  0  0  0  0  0
    5.8567  -11.6292   26.1527 C   0  0  0  0  0  0  0  0  0  0  0  0
    6.6033  -12.2888   25.0453 C   0  0  0  0  0  0  0  0  0  0  0  0
    7.5708  -13.3445   25.4301 C   0  0  2  0  0  0  0  0  0  0  0  0
    8.5979  -12.7137   26.3657 C   0  0  0  0  0  0  0  0  0  0  0  0
    8.2189  -14.0941   24.3148 C   0  0  2  0  0  0  0  0  0  0  0  0
    7.2544  -14.6833   23.4066 N   0  0  0  0  0  0  0  0  0  0  0  0
    9.2399  -15.0614   24.7515 C   0  0  0  0  0  0  0  0  0  0  0  0
    8.8832  -16.1809   25.1764 O   0  0  0  0  0  0  0  0  0  0  0  0
   10.3453  -15.2054   31.5108 O   0  0  0  0  0  0  0  0  0  0  0  0
   10.4467  -15.5977   30.1722 C   0  0  0  0  0  0  0  0  0  0  0  0
   10.4207  -14.6581   29.1713 C   0  0  0  0  0  0  0  0  0  0  0  0
   10.5202  -15.0357   27.8477 C   0  0  0  0  0  0  0  0  0  0  0  0
   10.6491  -16.3632   27.4735 C   0  0  0  0  0  0  0  0  0  0  0  0
   10.7493  -16.7359   26.0432 C   0  0  0  0  0  0  0  0  0  0  0  0
   11.5644  -15.7500   25.2267 C   0  0  2  0  0  0  0  0  0  0  0  0
   10.6241  -14.7679   24.7050 N   0  0  0  0  0  0  0  0  0  0  0  0
   12.2328  -16.3862   24.0769 C   0  0  0  0  0  0  0  0  0  0  0  0
   11.8762  -16.1901   22.7508 O   0  0  0  0  0  0  0  0  0  0  0  0
   10.6755  -17.3079   28.4726 C   0  0  0  0  0  0  0  0  0  0  0  0
   10.5747  -16.9223   29.8117 C   0  0  0  0  0  0  0  0  0  0  0  0
   13.1957  -17.1652   24.2885 O   0  0  0  0  0  0  0  0  0  0  0  0
  2  1  1  6
  2  3  1  0
  4  5  1  6
  4  2  1  0
  6  4  1  0
  7  6  2  0
  9  8  1  0
 10  9  1  0
 10 11  1  6
 12 10  1  0
 12 13  1  1
 13  6  1  0
 14 12  1  0
 15 14  2  0
 16 17  1  0
 17 18  2  0
 18 19  1  0
 20 21  1  0
 20 19  2  0
 22 21  1  6
 22 24  1  0
 22 23  1  0
 23 14  1  0
 24 25  1  0
 26 20  1  0
 27 26  2  0
 27 17  1  0
 28 24  2  0
M  END
$$$$
