TIY.pdb
     RDKit          3D

 28 28  0  0  1  0  0  0  0  0999 V2000
   10.0128  -19.7998   20.7042 C   0  0  0  0  0  0  0  0  0  0  0  0
   10.8944  -19.3656   19.5545 C   0  0  1  0  0  0  0  0  0  0  0  0
   11.0989  -20.4007   18.6782 O   0  0  0  0  0  0  0  0  0  0  0  0
   10.3346  -18.1121   18.9115 C   0  0  2  0  0  0  0  0  0  0  0  0
   11.1207  -17.8968   17.7038 N   0  0  0  0  0  0  0  0  0  0  0  0
   10.3897  -16.9418   19.8103 C   0  0  0  0  0  0  0  0  0  0  0  0
   11.4924  -16.4309   20.2023 O   0  0  0  0  0  0  0  0  0  0  0  0
    6.4834  -12.9455   19.4892 C   0  0  0  0  0  0  0  0  0  0  0  0
    7.7464  -13.7011   19.7188 C   0  0  0  0  0  0  0  0  0  0  0  0
    7.8557  -14.4436   20.9977 C   0  0  2  0  0  0  0  0  0  0  0  0
    7.6518  -13.4446   22.1329 C   0  0  0  0  0  0  0  0  0  0  0  0
    9.0875  -15.2628   21.1905 C   0  0  2  0  0  0  0  0  0  0  0  0
    9.1743  -16.3654   20.2529 N   0  0  0  0  0  0  0  0  0  0  0  0
    9.3155  -15.6911   22.5809 C   0  0  0  0  0  0  0  0  0  0  0  0
    8.6721  -16.6595   23.0384 O   0  0  0  0  0  0  0  0  0  0  0  0
   10.4637  -15.5684   31.2482 O   0  0  0  0  0  0  0  0  0  0  0  0
   10.3017  -15.3188   29.8816 C   0  0  0  0  0  0  0  0  0  0  0  0
   10.2333  -14.0288   29.4166 C   0  0  0  0  0  0  0  0  0  0  0  0
   10.0736  -13.7727   28.0700 C   0  0  0  0  0  0  0  0  0  0  0  0
    9.9764  -14.7929   27.1381 C   0  0  0  0  0  0  0  0  0  0  0  0
    9.8010  -14.4845   25.6996 C   0  0  0  0  0  0  0  0  0  0  0  0
   10.4150  -15.5303   24.7874 C   0  0  2  0  0  0  0  0  0  0  0  0
   10.2473  -15.0414   23.4259 N   0  0  0  0  0  0  0  0  0  0  0  0
    9.7326  -16.8336   24.8834 C   0  0  0  0  0  0  0  0  0  0  0  0
   10.3242  -18.0006   25.3441 O   0  0  0  0  0  0  0  0  0  0  0  0
   10.0443  -16.0867   27.5992 C   0  0  0  0  0  0  0  0  0  0  0  0
   10.2060  -16.3426   28.9631 C   0  0  0  0  0  0  0  0  0  0  0  0
    8.5302  -16.9176   24.5284 O   0  0  0  0  0  0  0  0  0  0  0  0
  2  1  1  1
  2  3  1  0
  4  5  1  6
  4  2  1  0
  6  4  1  0
  7  6  2  0
  9  8  1  0
 10  9  1  0
 10 11  1  1
 12 10  1  0
 12 13  1  6
 13  6  1  0
 14 12  1  0
 15 14  2  0
 16 17  1  0
 17 18  2  0
 18 19  1  0
 20 21  1  0
 20 19  2  0
 22 21  1  1
 22 24  1  0
 22 23  1  0
 23 14  1  0
 24 25  1  0
 26 20  1  0
 27 26  2  0
 27 17  1  0
 28 24  2  0
M  END
$$$$
