TIY.pdb
     RDKit          3D

 28 28  0  0  1  0  0  0  0  0999 V2000
    9.0684  -19.8371   21.2545 C   0  0  0  0  0  0  0  0  0  0  0  0
    9.9962  -19.6330   20.0775 C   0  0  1  0  0  0  0  0  0  0  0  0
    9.9995  -20.7355   19.2616 O   0  0  0  0  0  0  0  0  0  0  0  0
    9.6596  -18.3376   19.3657 C   0  0  2  0  0  0  0  0  0  0  0  0
   10.5075  -18.2999   18.1815 N   0  0  0  0  0  0  0  0  0  0  0  0
    9.8682  -17.1515   20.2201 C   0  0  0  0  0  0  0  0  0  0  0  0
   11.0305  -16.6900   20.4788 O   0  0  0  0  0  0  0  0  0  0  0  0
    6.9413  -12.7245   19.4548 C   0  0  0  0  0  0  0  0  0  0  0  0
    7.9403  -13.7516   19.8620 C   0  0  0  0  0  0  0  0  0  0  0  0
    7.8274  -14.2803   21.2428 C   0  0  2  0  0  0  0  0  0  0  0  0
    7.8613  -13.0915   22.1988 C   0  0  0  0  0  0  0  0  0  0  0  0
    8.8037  -15.3383   21.6340 C   0  0  2  0  0  0  0  0  0  0  0  0
    8.7372  -16.5023   20.7720 N   0  0  0  0  0  0  0  0  0  0  0  0
    8.7652  -15.6964   23.0620 C   0  0  0  0  0  0  0  0  0  0  0  0
    7.8131  -16.3775   23.4987 O   0  0  0  0  0  0  0  0  0  0  0  0
    6.2629  -10.7207   27.4824 O   0  0  0  0  0  0  0  0  0  0  0  0
    6.7233  -11.9649   27.0396 C   0  0  0  0  0  0  0  0  0  0  0  0
    8.0629  -12.2627   27.0818 C   0  0  0  0  0  0  0  0  0  0  0  0
    8.5264  -13.4877   26.6471 C   0  0  0  0  0  0  0  0  0  0  0  0
    7.6718  -14.4602   26.1546 C   0  0  0  0  0  0  0  0  0  0  0  0
    8.2018  -15.7639   25.6917 C   0  0  0  0  0  0  0  0  0  0  0  0
    9.6812  -15.7200   25.3562 C   0  0  2  0  0  0  0  0  0  0  0  0
    9.7778  -15.2955   23.9665 N   0  0  0  0  0  0  0  0  0  0  0  0
   10.3246  -17.0417   25.4676 C   0  0  0  0  0  0  0  0  0  0  0  0
   10.8595  -17.7499   24.4015 O   0  0  0  0  0  0  0  0  0  0  0  0
    6.3290  -14.1664   26.1104 C   0  0  0  0  0  0  0  0  0  0  0  0
    5.8630  -12.9253   26.5513 C   0  0  0  0  0  0  0  0  0  0  0  0
   10.4054  -17.5849   26.5977 O   0  0  0  0  0  0  0  0  0  0  0  0
  2  1  1  1
  2  3  1  0
  4  5  1  6
  4  2  1  0
  6  4  1  0
  7  6  2  0
  9  8  1  0
 10  9  1  0
 10 11  1  1
 12 10  1  0
 12 13  1  6
 13  6  1  0
 14 12  1  0
 15 14  2  0
 16 17  1  0
 17 18  2  0
 18 19  1  0
 20 21  1  0
 20 19  2  0
 22 21  1  6
 22 24  1  0
 22 23  1  0
 23 14  1  0
 24 25  1  0
 26 20  1  0
 27 26  2  0
 27 17  1  0
 28 24  2  0
M  END
$$$$
