TIY.pdb
     RDKit          3D

 28 28  0  0  1  0  0  0  0  0999 V2000
    6.0706  -20.0252   18.4473 C   0  0  0  0  0  0  0  0  0  0  0  0
    6.7660  -19.2357   19.5339 C   0  0  1  0  0  0  0  0  0  0  0  0
    7.5168  -20.0606   20.3322 O   0  0  0  0  0  0  0  0  0  0  0  0
    7.5450  -18.0856   18.9268 C   0  0  2  0  0  0  0  0  0  0  0  0
    8.5132  -18.6916   18.0223 N   0  0  0  0  0  0  0  0  0  0  0  0
    8.2064  -17.2485   19.9476 C   0  0  0  0  0  0  0  0  0  0  0  0
    9.4196  -17.4314   20.3017 O   0  0  0  0  0  0  0  0  0  0  0  0
    7.3339  -11.9001   19.8347 C   0  0  0  0  0  0  0  0  0  0  0  0
    7.9627  -13.2184   20.1271 C   0  0  0  0  0  0  0  0  0  0  0  0
    7.5345  -13.8993   21.3728 C   0  0  2  0  0  0  0  0  0  0  0  0
    7.9272  -13.0078   22.5472 C   0  0  0  0  0  0  0  0  0  0  0  0
    8.0004  -15.3043   21.5592 C   0  0  2  0  0  0  0  0  0  0  0  0
    7.4674  -16.2045   20.5553 N   0  0  0  0  0  0  0  0  0  0  0  0
    7.8228  -15.8222   22.9263 C   0  0  0  0  0  0  0  0  0  0  0  0
    6.6686  -15.9971   23.3715 O   0  0  0  0  0  0  0  0  0  0  0  0
    7.6836  -21.6149   29.1987 O   0  0  0  0  0  0  0  0  0  0  0  0
    7.7670  -20.7598   28.0952 C   0  0  0  0  0  0  0  0  0  0  0  0
    8.8149  -20.8658   27.2144 C   0  0  0  0  0  0  0  0  0  0  0  0
    8.9054  -20.0265   26.1227 C   0  0  0  0  0  0  0  0  0  0  0  0
    7.9551  -19.0511   25.8693 C   0  0  0  0  0  0  0  0  0  0  0  0
    8.0836  -18.1629   24.6906 C   0  0  0  0  0  0  0  0  0  0  0  0
    8.6676  -16.8039   25.0300 C   0  0  2  0  0  0  0  0  0  0  0  0
    8.9221  -16.1345   23.7619 N   0  0  0  0  0  0  0  0  0  0  0  0
    9.9503  -16.9047   25.7496 C   0  0  0  0  0  0  0  0  0  0  0  0
   10.0739  -17.0362   27.1250 O   0  0  0  0  0  0  0  0  0  0  0  0
    6.9036  -18.9411   26.7489 C   0  0  0  0  0  0  0  0  0  0  0  0
    6.8148  -19.7924   27.8531 C   0  0  0  0  0  0  0  0  0  0  0  0
   11.0204  -16.8710   25.0919 O   0  0  0  0  0  0  0  0  0  0  0  0
  2  1  1  6
  2  3  1  0
  4  5  1  6
  4  2  1  0
  6  4  1  0
  7  6  2  0
  9  8  1  0
 10  9  1  0
 10 11  1  1
 12 10  1  0
 12 13  1  6
 13  6  1  0
 14 12  1  0
 15 14  2  0
 16 17  1  0
 17 18  2  0
 18 19  1  0
 20 21  1  0
 20 19  2  0
 22 21  1  6
 22 24  1  0
 22 23  1  0
 23 14  1  0
 24 25  1  0
 26 20  1  0
 27 26  2  0
 27 17  1  0
 28 24  2  0
M  END
$$$$
