TIY.pdb
     RDKit          3D

 28 28  0  0  1  0  0  0  0  0999 V2000
   10.2101  -20.3058   18.2118 C   0  0  0  0  0  0  0  0  0  0  0  0
   10.1215  -19.2156   19.2563 C   0  0  1  0  0  0  0  0  0  0  0  0
   10.9601  -19.4790   20.3091 O   0  0  0  0  0  0  0  0  0  0  0  0
   10.3402  -17.8593   18.6155 C   0  0  2  0  0  0  0  0  0  0  0  0
   11.6463  -17.9262   17.9734 N   0  0  0  0  0  0  0  0  0  0  0  0
   10.2719  -16.7540   19.5923 C   0  0  0  0  0  0  0  0  0  0  0  0
   11.3170  -16.1946   20.0671 O   0  0  0  0  0  0  0  0  0  0  0  0
    6.5391  -12.7182   19.0749 C   0  0  0  0  0  0  0  0  0  0  0  0
    7.7457  -13.5003   19.4637 C   0  0  0  0  0  0  0  0  0  0  0  0
    7.6147  -14.3829   20.6481 C   0  0  2  0  0  0  0  0  0  0  0  0
    7.1878  -13.5149   21.8283 C   0  0  0  0  0  0  0  0  0  0  0  0
    8.7942  -15.2339   20.9798 C   0  0  2  0  0  0  0  0  0  0  0  0
    9.0002  -16.2982   20.0169 N   0  0  0  0  0  0  0  0  0  0  0  0
    8.8130  -15.7240   22.3684 C   0  0  0  0  0  0  0  0  0  0  0  0
    8.2263  -16.7902   22.6512 O   0  0  0  0  0  0  0  0  0  0  0  0
   10.4582  -16.3152   31.0581 O   0  0  0  0  0  0  0  0  0  0  0  0
   10.4049  -15.8892   29.7271 C   0  0  0  0  0  0  0  0  0  0  0  0
   10.7528  -16.7452   28.7115 C   0  0  0  0  0  0  0  0  0  0  0  0
   10.7033  -16.3338   27.3952 C   0  0  0  0  0  0  0  0  0  0  0  0
   10.3052  -15.0546   27.0432 C   0  0  0  0  0  0  0  0  0  0  0  0
   10.2670  -14.6425   25.6207 C   0  0  0  0  0  0  0  0  0  0  0  0
    9.4466  -15.5779   24.7517 C   0  0  2  0  0  0  0  0  0  0  0  0
    9.4796  -15.0263   23.4043 N   0  0  0  0  0  0  0  0  0  0  0  0
    8.0358  -15.6479   25.1736 C   0  0  0  0  0  0  0  0  0  0  0  0
    7.0562  -14.7389   24.8016 O   0  0  0  0  0  0  0  0  0  0  0  0
    9.9558  -14.1936   28.0571 C   0  0  0  0  0  0  0  0  0  0  0  0
   10.0070  -14.6132   29.3888 C   0  0  0  0  0  0  0  0  0  0  0  0
    7.6716  -16.5881   25.9233 O   0  0  0  0  0  0  0  0  0  0  0  0
  2  1  1  6
  2  3  1  0
  4  5  1  1
  4  2  1  0
  6  4  1  0
  7  6  2  0
  9  8  1  0
 10  9  1  0
 10 11  1  1
 12 10  1  0
 12 13  1  6
 13  6  1  0
 14 12  1  0
 15 14  2  0
 16 17  1  0
 17 18  2  0
 18 19  1  0
 20 21  1  0
 20 19  2  0
 22 21  1  1
 22 24  1  0
 22 23  1  0
 23 14  1  0
 24 25  1  0
 26 20  1  0
 27 26  2  0
 27 17  1  0
 28 24  2  0
M  END
$$$$
