TIY.pdb
     RDKit          3D

 28 28  0  0  1  0  0  0  0  0999 V2000
    9.4827  -20.5987   18.6354 C   0  0  0  0  0  0  0  0  0  0  0  0
    9.5668  -19.4345   19.5972 C   0  0  1  0  0  0  0  0  0  0  0  0
   10.4212  -19.7170   20.6322 O   0  0  0  0  0  0  0  0  0  0  0  0
    9.9034  -18.1608   18.8472 C   0  0  2  0  0  0  0  0  0  0  0  0
   11.1690  -18.4166   18.1722 N   0  0  0  0  0  0  0  0  0  0  0  0
    9.9913  -16.9860   19.7375 C   0  0  0  0  0  0  0  0  0  0  0  0
   11.0986  -16.5785   20.2258 O   0  0  0  0  0  0  0  0  0  0  0  0
    6.7601  -12.5545   18.9120 C   0  0  0  0  0  0  0  0  0  0  0  0
    7.8673  -13.4559   19.3367 C   0  0  0  0  0  0  0  0  0  0  0  0
    7.6808  -14.1840   20.6150 C   0  0  2  0  0  0  0  0  0  0  0  0
    7.4618  -13.1463   21.7121 C   0  0  0  0  0  0  0  0  0  0  0  0
    8.7393  -15.1688   20.9825 C   0  0  2  0  0  0  0  0  0  0  0  0
    8.8035  -16.2861   20.0605 N   0  0  0  0  0  0  0  0  0  0  0  0
    8.6954  -15.6052   22.3884 C   0  0  0  0  0  0  0  0  0  0  0  0
    7.9657  -16.5670   22.7102 O   0  0  0  0  0  0  0  0  0  0  0  0
   10.2771  -15.9743   31.1214 O   0  0  0  0  0  0  0  0  0  0  0  0
   10.3134  -15.6753   29.7556 C   0  0  0  0  0  0  0  0  0  0  0  0
    9.7839  -14.4971   29.2903 C   0  0  0  0  0  0  0  0  0  0  0  0
    9.8153  -14.1935   27.9445 C   0  0  0  0  0  0  0  0  0  0  0  0
   10.3753  -15.0529   27.0137 C   0  0  0  0  0  0  0  0  0  0  0  0
   10.3892  -14.6993   25.5750 C   0  0  0  0  0  0  0  0  0  0  0  0
    9.3697  -15.4749   24.7614 C   0  0  2  0  0  0  0  0  0  0  0  0
    9.4582  -14.9706   23.3981 N   0  0  0  0  0  0  0  0  0  0  0  0
    7.9894  -15.2577   25.2315 C   0  0  0  0  0  0  0  0  0  0  0  0
    7.2667  -14.0892   25.0405 O   0  0  0  0  0  0  0  0  0  0  0  0
   10.9069  -16.2344   27.4751 C   0  0  0  0  0  0  0  0  0  0  0  0
   10.8736  -16.5388   28.8382 C   0  0  0  0  0  0  0  0  0  0  0  0
    7.4061  -16.1819   25.8515 O   0  0  0  0  0  0  0  0  0  0  0  0
  2  1  1  6
  2  3  1  0
  4  5  1  1
  4  2  1  0
  6  4  1  0
  7  6  2  0
  9  8  1  0
 10  9  1  0
 10 11  1  1
 12 10  1  0
 12 13  1  6
 13  6  1  0
 14 12  1  0
 15 14  2  0
 16 17  1  0
 17 18  2  0
 18 19  1  0
 20 21  1  0
 20 19  2  0
 22 21  1  1
 22 24  1  0
 22 23  1  0
 23 14  1  0
 24 25  1  0
 26 20  1  0
 27 26  2  0
 27 17  1  0
 28 24  2  0
M  END
$$$$
