TIY.pdb
     RDKit          3D

 28 28  0  0  1  0  0  0  0  0999 V2000
    7.7884  -17.9809   20.2486 C   0  0  0  0  0  0  0  0  0  0  0  0
    8.3125  -17.3869   21.5371 C   0  0  1  0  0  0  0  0  0  0  0  0
    9.4956  -17.9775   21.9011 O   0  0  0  0  0  0  0  0  0  0  0  0
    8.3836  -15.8768   21.4250 C   0  0  2  0  0  0  0  0  0  0  0  0
    9.2459  -15.6005   20.2836 N   0  0  0  0  0  0  0  0  0  0  0  0
    8.8934  -15.2411   22.6564 C   0  0  0  0  0  0  0  0  0  0  0  0
   10.1382  -15.0392   22.8576 O   0  0  0  0  0  0  0  0  0  0  0  0
    6.5100  -11.6580   27.1836 C   0  0  0  0  0  0  0  0  0  0  0  0
    7.5794  -12.5515   26.6574 C   0  0  0  0  0  0  0  0  0  0  0  0
    7.2510  -13.3424   25.4468 C   0  0  2  0  0  0  0  0  0  0  0  0
    5.9798  -14.1336   25.7404 C   0  0  0  0  0  0  0  0  0  0  0  0
    8.3352  -14.2110   24.9029 C   0  0  2  0  0  0  0  0  0  0  0  0
    7.9671  -14.8406   23.6497 N   0  0  0  0  0  0  0  0  0  0  0  0
    8.8808  -15.1741   25.8742 C   0  0  0  0  0  0  0  0  0  0  0  0
    8.3578  -16.3040   25.9784 O   0  0  0  0  0  0  0  0  0  0  0  0
   13.2341  -18.5521   22.3816 O   0  0  0  0  0  0  0  0  0  0  0  0
   12.9334  -17.9046   23.5842 C   0  0  0  0  0  0  0  0  0  0  0  0
   12.7793  -18.6283   24.7408 C   0  0  0  0  0  0  0  0  0  0  0  0
   12.4826  -17.9980   25.9321 C   0  0  0  0  0  0  0  0  0  0  0  0
   12.3287  -16.6239   26.0140 C   0  0  0  0  0  0  0  0  0  0  0  0
   12.0059  -15.9782   27.3077 C   0  0  0  0  0  0  0  0  0  0  0  0
   10.5148  -15.9005   27.5787 C   0  0  2  0  0  0  0  0  0  0  0  0
    9.9880  -14.8651   26.7005 N   0  0  0  0  0  0  0  0  0  0  0  0
   10.2132  -15.5074   28.9672 C   0  0  0  0  0  0  0  0  0  0  0  0
   10.3672  -16.3333   30.0710 O   0  0  0  0  0  0  0  0  0  0  0  0
   12.4821  -15.8947   24.8581 C   0  0  0  0  0  0  0  0  0  0  0  0
   12.7825  -16.5358   23.6536 C   0  0  0  0  0  0  0  0  0  0  0  0
    9.7850  -14.3475   29.1910 O   0  0  0  0  0  0  0  0  0  0  0  0
  2  1  1  6
  2  3  1  0
  4  5  1  6
  4  2  1  0
  6  4  1  0
  7  6  2  0
  9  8  1  0
 10  9  1  0
 10 11  1  1
 12 10  1  0
 12 13  1  6
 13  6  1  0
 14 12  1  0
 15 14  2  0
 16 17  1  0
 17 18  2  0
 18 19  1  0
 20 21  1  0
 20 19  2  0
 22 21  1  1
 22 24  1  0
 22 23  1  0
 23 14  1  0
 24 25  1  0
 26 20  1  0
 27 26  2  0
 27 17  1  0
 28 24  2  0
M  END
$$$$
