WGC.pdb
     RDKit          3D

 25 26  0  0  1  0  0  0  0  0999 V2000
   25.2886  -20.1109  -10.4293 N   0  0  0  0  0  0  0  0  0  0  0  0
   26.7524  -20.1214  -10.2667 C   0  0  1  0  0  0  0  0  0  0  0  0
   27.0966  -21.2154   -9.3179 C   0  0  0  0  0  0  0  0  0  0  0  0
   26.7756  -20.7860   -7.9320 C   0  0  0  0  0  0  0  0  0  0  0  0
   25.5262  -20.9090   -7.3194 C   0  0  0  0  0  0  0  0  0  0  0  0
   25.5591  -20.4332   -6.0790 N   0  0  0  0  0  0  0  0  0  0  0  0
   26.8120  -19.9961   -5.8591 C   0  0  0  0  0  0  0  0  0  0  0  0
   27.4154  -19.4109   -4.7545 C   0  0  0  0  0  0  0  0  0  0  0  0
   28.7460  -19.0549   -4.8070 C   0  0  0  0  0  0  0  0  0  0  0  0
   29.5124  -19.2647   -5.9415 C   0  0  0  0  0  0  0  0  0  0  0  0
   28.9227  -19.8482   -7.0515 C   0  0  0  0  0  0  0  0  0  0  0  0
   27.5880  -20.2015   -6.9890 C   0  0  0  0  0  0  0  0  0  0  0  0
   27.3243  -20.2391  -11.6001 C   0  0  0  0  0  0  0  0  0  0  0  0
   28.0986  -21.2254  -11.8236 O   0  0  0  0  0  0  0  0  0  0  0  0
   27.1060  -19.3579  -12.6933 N   0  0  0  0  0  0  0  0  0  0  0  0
   26.0285  -19.4830  -13.6265 C   0  0  0  0  0  0  0  0  0  0  0  0
   26.1380  -20.7544  -14.4260 C   0  0  0  0  0  0  0  0  0  0  0  0
   26.4605  -20.7779  -15.6290 O   0  0  0  0  0  0  0  0  0  0  0  0
   25.8606  -21.9865  -13.7766 N   0  0  0  0  0  0  0  0  0  0  0  0
   24.8338  -22.8450  -14.3151 C   0  0  1  0  0  0  0  0  0  0  0  0
   24.8861  -24.1718  -13.5854 C   0  0  0  0  0  0  0  0  0  0  0  0
   23.7242  -25.3577  -14.3207 S   0  0  0  0  0  0  0  0  0  0  0  0
   23.5220  -22.1880  -14.1240 C   0  0  0  0  0  0  0  0  0  0  0  0
   23.3770  -21.4034  -13.1486 O   0  0  0  0  0  0  0  0  0  0  0  0
   22.4270  -22.3772  -14.9537 O   0  0  0  0  0  0  0  0  0  0  0  0
  2  1  1  6
  2 13  1  0
  3  2  1  0
  4  3  1  0
  5  4  2  0
  6  5  1  0
  7  6  1  0
  7 12  2  0
  8  7  1  0
  9  8  2  0
  9 10  1  0
 10 11  2  0
 11 12  1  0
 12  4  1  0
 13 14  2  0
 15 13  1  0
 15 16  1  0
 17 19  1  0
 17 16  1  0
 18 17  2  0
 20 19  1  0
 20 21  1  1
 21 22  1  0
 23 20  1  0
 24 23  2  0
 25 23  1  0
M  END
$$$$
