WGC.pdb
     RDKit          3D

 25 26  0  0  1  0  0  0  0  0999 V2000
   25.0389  -18.5191  -16.8659 N   0  0  0  0  0  0  0  0  0  0  0  0
   25.6960  -18.0650  -15.6284 C   0  0  1  0  0  0  0  0  0  0  0  0
   24.6484  -17.4871  -14.7431 C   0  0  0  0  0  0  0  0  0  0  0  0
   24.1839  -16.1932  -15.3072 C   0  0  0  0  0  0  0  0  0  0  0  0
   24.8689  -14.9797  -15.2099 C   0  0  0  0  0  0  0  0  0  0  0  0
   24.1951  -14.0068  -15.8145 N   0  0  0  0  0  0  0  0  0  0  0  0
   23.0728  -14.5568  -16.3118 C   0  0  0  0  0  0  0  0  0  0  0  0
   22.0117  -14.0231  -17.0303 C   0  0  0  0  0  0  0  0  0  0  0  0
   20.9697  -14.8361  -17.4217 C   0  0  0  0  0  0  0  0  0  0  0  0
   20.9454  -16.1872  -17.1178 C   0  0  0  0  0  0  0  0  0  0  0  0
   21.9983  -16.7330  -16.4011 C   0  0  0  0  0  0  0  0  0  0  0  0
   23.0384  -15.9098  -16.0131 C   0  0  0  0  0  0  0  0  0  0  0  0
   26.4174  -19.2087  -15.0895 C   0  0  0  0  0  0  0  0  0  0  0  0
   25.7366  -20.2364  -14.7690 O   0  0  0  0  0  0  0  0  0  0  0  0
   27.8201  -19.3006  -14.8812 N   0  0  0  0  0  0  0  0  0  0  0  0
   28.4390  -19.3993  -13.5948 C   0  0  0  0  0  0  0  0  0  0  0  0
   27.7539  -20.4262  -12.7322 C   0  0  0  0  0  0  0  0  0  0  0  0
   27.9420  -21.6518  -12.8512 O   0  0  0  0  0  0  0  0  0  0  0  0
   26.8499  -19.9749  -11.7342 N   0  0  0  0  0  0  0  0  0  0  0  0
   26.1944  -20.9470  -10.8936 C   0  0  1  0  0  0  0  0  0  0  0  0
   26.4560  -20.5840   -9.4461 C   0  0  0  0  0  0  0  0  0  0  0  0
   25.2310  -21.3627   -8.3551 S   0  0  0  0  0  0  0  0  0  0  0  0
   24.7450  -20.9257  -11.1903 C   0  0  0  0  0  0  0  0  0  0  0  0
   24.2413  -19.8706  -11.6605 O   0  0  0  0  0  0  0  0  0  0  0  0
   23.8912  -21.9991  -10.9849 O   0  0  0  0  0  0  0  0  0  0  0  0
  2  1  1  6
  2 13  1  0
  3  2  1  0
  4  3  1  0
  5  4  2  0
  6  5  1  0
  7  6  1  0
  7 12  2  0
  8  7  1  0
  9  8  2  0
  9 10  1  0
 10 11  2  0
 11 12  1  0
 12  4  1  0
 13 14  2  0
 15 13  1  0
 15 16  1  0
 17 19  1  0
 17 16  1  0
 18 17  2  0
 20 19  1  0
 20 21  1  1
 21 22  1  0
 23 20  1  0
 24 23  2  0
 25 23  1  0
M  END
$$$$
