WGC.pdb
     RDKit          3D

 25 26  0  0  1  0  0  0  0  0999 V2000
   25.3915  -20.9628  -10.3732 N   0  0  0  0  0  0  0  0  0  0  0  0
   26.7167  -20.3201  -10.3627 C   0  0  1  0  0  0  0  0  0  0  0  0
   27.5485  -21.0099   -9.3392 C   0  0  0  0  0  0  0  0  0  0  0  0
   27.0546  -20.6579   -7.9826 C   0  0  0  0  0  0  0  0  0  0  0  0
   25.7124  -20.6278   -7.5967 C   0  0  0  0  0  0  0  0  0  0  0  0
   25.5953  -20.2754   -6.3207 N   0  0  0  0  0  0  0  0  0  0  0  0
   26.8402  -20.0711   -5.8539 C   0  0  0  0  0  0  0  0  0  0  0  0
   27.3185  -19.6929   -4.6069 C   0  0  0  0  0  0  0  0  0  0  0  0
   28.6751  -19.5570   -4.4040 C   0  0  0  0  0  0  0  0  0  0  0  0
   29.5904  -19.7886   -5.4175 C   0  0  0  0  0  0  0  0  0  0  0  0
   29.1267  -20.1669   -6.6672 C   0  0  0  0  0  0  0  0  0  0  0  0
   27.7648  -20.3004   -6.8607 C   0  0  0  0  0  0  0  0  0  0  0  0
   27.2220  -20.3727  -11.7268 C   0  0  0  0  0  0  0  0  0  0  0  0
   27.4315  -21.5225  -12.2331 O   0  0  0  0  0  0  0  0  0  0  0  0
   27.5094  -19.2612  -12.5643 N   0  0  0  0  0  0  0  0  0  0  0  0
   28.1898  -19.3528  -13.8198 C   0  0  0  0  0  0  0  0  0  0  0  0
   27.3038  -19.9451  -14.8837 C   0  0  0  0  0  0  0  0  0  0  0  0
   27.6371  -20.0266  -16.0812 O   0  0  0  0  0  0  0  0  0  0  0  0
   26.0264  -20.4349  -14.5029 N   0  0  0  0  0  0  0  0  0  0  0  0
   25.1604  -20.9900  -15.5144 C   0  0  1  0  0  0  0  0  0  0  0  0
   24.8223  -22.4153  -15.1274 C   0  0  0  0  0  0  0  0  0  0  0  0
   23.3872  -23.0143  -16.0649 S   0  0  0  0  0  0  0  0  0  0  0  0
   23.9382  -20.1602  -15.5957 C   0  0  0  0  0  0  0  0  0  0  0  0
   23.6231  -19.4520  -14.6021 O   0  0  0  0  0  0  0  0  0  0  0  0
   23.1046  -20.1061  -16.7027 O   0  0  0  0  0  0  0  0  0  0  0  0
  2  1  1  6
  2 13  1  0
  3  2  1  0
  4  3  1  0
  5  4  2  0
  6  5  1  0
  7  6  1  0
  7 12  2  0
  8  7  1  0
  9  8  2  0
  9 10  1  0
 10 11  2  0
 11 12  1  0
 12  4  1  0
 13 14  2  0
 15 13  1  0
 15 16  1  0
 17 19  1  0
 17 16  1  0
 18 17  2  0
 20 19  1  0
 20 21  1  1
 21 22  1  0
 23 20  1  0
 24 23  2  0
 25 23  1  0
M  END
$$$$
