WGC.pdb
     RDKit          3D

 25 26  0  0  1  0  0  0  0  0999 V2000
   26.9366  -22.8001  -11.9344 N   0  0  0  0  0  0  0  0  0  0  0  0
   26.1458  -21.5747  -11.7285 C   0  0  1  0  0  0  0  0  0  0  0  0
   27.0957  -20.4350  -11.6105 C   0  0  0  0  0  0  0  0  0  0  0  0
   28.0042  -20.6668  -10.4577 C   0  0  0  0  0  0  0  0  0  0  0  0
   29.3086  -21.1588  -10.5461 C   0  0  0  0  0  0  0  0  0  0  0  0
   29.8603  -21.2545   -9.3408 N   0  0  0  0  0  0  0  0  0  0  0  0
   28.9412  -20.8334   -8.4536 C   0  0  0  0  0  0  0  0  0  0  0  0
   28.9647  -20.7163   -7.0707 C   0  0  0  0  0  0  0  0  0  0  0  0
   27.8555  -20.2437   -6.4026 C   0  0  0  0  0  0  0  0  0  0  0  0
   26.7014  -19.8764   -7.0747 C   0  0  0  0  0  0  0  0  0  0  0  0
   26.6643  -19.9882   -8.4554 C   0  0  0  0  0  0  0  0  0  0  0  0
   27.7815  -20.4630   -9.1161 C   0  0  0  0  0  0  0  0  0  0  0  0
   25.1973  -21.4946  -12.8298 C   0  0  0  0  0  0  0  0  0  0  0  0
   25.5930  -21.8819  -13.9768 O   0  0  0  0  0  0  0  0  0  0  0  0
   23.8584  -21.0239  -12.7586 N   0  0  0  0  0  0  0  0  0  0  0  0
   23.2978  -20.0512  -13.6458 C   0  0  0  0  0  0  0  0  0  0  0  0
   21.8768  -19.7206  -13.2726 C   0  0  0  0  0  0  0  0  0  0  0  0
   21.5481  -19.2951  -12.1490 O   0  0  0  0  0  0  0  0  0  0  0  0
   20.8623  -19.9026  -14.2497 N   0  0  0  0  0  0  0  0  0  0  0  0
   19.5263  -19.4385  -13.9651 C   0  0  1  0  0  0  0  0  0  0  0  0
   19.0553  -18.5894  -15.1281 C   0  0  0  0  0  0  0  0  0  0  0  0
   17.9250  -17.2872  -14.5589 S   0  0  0  0  0  0  0  0  0  0  0  0
   18.6483  -20.6148  -13.7796 C   0  0  0  0  0  0  0  0  0  0  0  0
   18.8581  -21.6404  -14.4812 O   0  0  0  0  0  0  0  0  0  0  0  0
   17.5975  -20.6687  -12.8762 O   0  0  0  0  0  0  0  0  0  0  0  0
  2  1  1  6
  2 13  1  0
  3  2  1  0
  4  3  1  0
  5  4  2  0
  6  5  1  0
  7  6  1  0
  7 12  2  0
  8  7  1  0
  9  8  2  0
  9 10  1  0
 10 11  2  0
 11 12  1  0
 12  4  1  0
 13 14  2  0
 15 13  1  0
 15 16  1  0
 17 19  1  0
 17 16  1  0
 18 17  2  0
 20 19  1  0
 20 21  1  6
 21 22  1  0
 23 20  1  0
 24 23  2  0
 25 23  1  0
M  END
$$$$
