WGC.pdb
     RDKit          3D

 25 26  0  0  1  0  0  0  0  0999 V2000
   28.4183  -22.0331  -10.2353 N   0  0  0  0  0  0  0  0  0  0  0  0
   27.3078  -21.1950   -9.7518 C   0  0  1  0  0  0  0  0  0  0  0  0
   27.8917  -19.9474   -9.1880 C   0  0  0  0  0  0  0  0  0  0  0  0
   28.7146  -20.2820   -7.9968 C   0  0  0  0  0  0  0  0  0  0  0  0
   29.8876  -21.0404   -8.0151 C   0  0  0  0  0  0  0  0  0  0  0  0
   30.3895  -21.1641   -6.7908 N   0  0  0  0  0  0  0  0  0  0  0  0
   29.5670  -20.4989   -5.9601 C   0  0  0  0  0  0  0  0  0  0  0  0
   29.5949  -20.2921   -4.5877 C   0  0  0  0  0  0  0  0  0  0  0  0
   28.6004  -19.5526   -3.9844 C   0  0  0  0  0  0  0  0  0  0  0  0
   27.5590  -19.0007   -4.7121 C   0  0  0  0  0  0  0  0  0  0  0  0
   27.5190  -19.1993   -6.0829 C   0  0  0  0  0  0  0  0  0  0  0  0
   28.5206  -19.9422   -6.6785 C   0  0  0  0  0  0  0  0  0  0  0  0
   26.3961  -21.0150  -10.8723 C   0  0  0  0  0  0  0  0  0  0  0  0
   26.9068  -20.8854  -12.0318 O   0  0  0  0  0  0  0  0  0  0  0  0
   24.9773  -20.9687  -10.8074 N   0  0  0  0  0  0  0  0  0  0  0  0
   24.1167  -21.0066  -11.9500 C   0  0  0  0  0  0  0  0  0  0  0  0
   22.7214  -20.5593  -11.6027 C   0  0  0  0  0  0  0  0  0  0  0  0
   22.3897  -20.1834  -10.4624 O   0  0  0  0  0  0  0  0  0  0  0  0
   21.7359  -20.5660  -12.6253 N   0  0  0  0  0  0  0  0  0  0  0  0
   20.3931  -20.1470  -12.3050 C   0  0  1  0  0  0  0  0  0  0  0  0
   20.3434  -18.6330  -12.3321 C   0  0  0  0  0  0  0  0  0  0  0  0
   21.1086  -17.9902  -13.8482 S   0  0  0  0  0  0  0  0  0  0  0  0
   19.4681  -20.7243  -13.3051 C   0  0  0  0  0  0  0  0  0  0  0  0
   19.9528  -21.2391  -14.3483 O   0  0  0  0  0  0  0  0  0  0  0  0
   18.0876  -20.7390  -13.1733 O   0  0  0  0  0  0  0  0  0  0  0  0
  2  1  1  6
  2 13  1  0
  3  2  1  0
  4  3  1  0
  5  4  2  0
  6  5  1  0
  7  6  1  0
  7 12  2  0
  8  7  1  0
  9  8  2  0
  9 10  1  0
 10 11  2  0
 11 12  1  0
 12  4  1  0
 13 14  2  0
 15 13  1  0
 15 16  1  0
 17 19  1  0
 17 16  1  0
 18 17  2  0
 20 19  1  0
 20 21  1  6
 21 22  1  0
 23 20  1  0
 24 23  2  0
 25 23  1  0
M  END
$$$$
