WGC.pdb
     RDKit          3D

 25 26  0  0  1  0  0  0  0  0999 V2000
   27.8407  -21.0520   -9.4314 N   0  0  0  0  0  0  0  0  0  0  0  0
   26.3703  -21.1179   -9.4845 C   0  0  1  0  0  0  0  0  0  0  0  0
   25.8453  -20.6118   -8.1870 C   0  0  0  0  0  0  0  0  0  0  0  0
   26.9143  -19.8575   -7.4824 C   0  0  0  0  0  0  0  0  0  0  0  0
   27.6438  -18.7971   -8.0254 C   0  0  0  0  0  0  0  0  0  0  0  0
   28.5271  -18.3327   -7.1477 N   0  0  0  0  0  0  0  0  0  0  0  0
   28.3947  -19.0694   -6.0301 C   0  0  0  0  0  0  0  0  0  0  0  0
   29.0476  -19.0323   -4.8057 C   0  0  0  0  0  0  0  0  0  0  0  0
   28.7010  -19.9262   -3.8154 C   0  0  0  0  0  0  0  0  0  0  0  0
   27.7087  -20.8740   -4.0036 C   0  0  0  0  0  0  0  0  0  0  0  0
   27.0487  -20.9221   -5.2211 C   0  0  0  0  0  0  0  0  0  0  0  0
   27.4034  -20.0216   -6.2077 C   0  0  0  0  0  0  0  0  0  0  0  0
   25.9569  -20.3745  -10.6658 C   0  0  0  0  0  0  0  0  0  0  0  0
   26.4051  -19.1901  -10.8027 O   0  0  0  0  0  0  0  0  0  0  0  0
   25.0950  -20.8377  -11.6962 N   0  0  0  0  0  0  0  0  0  0  0  0
   24.3947  -19.9833  -12.6059 C   0  0  0  0  0  0  0  0  0  0  0  0
   23.3979  -20.7556  -13.4291 C   0  0  0  0  0  0  0  0  0  0  0  0
   22.6328  -20.2196  -14.2531 O   0  0  0  0  0  0  0  0  0  0  0  0
   23.3272  -22.1637  -13.2578 N   0  0  0  0  0  0  0  0  0  0  0  0
   22.3985  -22.9200  -14.0619 C   0  0  1  0  0  0  0  0  0  0  0  0
   22.8243  -24.3740  -14.0471 C   0  0  0  0  0  0  0  0  0  0  0  0
   24.5972  -24.5298  -14.4077 S   0  0  0  0  0  0  0  0  0  0  0  0
   21.0427  -22.7604  -13.4917 C   0  0  0  0  0  0  0  0  0  0  0  0
   20.9330  -22.4343  -12.2793 O   0  0  0  0  0  0  0  0  0  0  0  0
   19.8691  -22.9467  -14.2068 O   0  0  0  0  0  0  0  0  0  0  0  0
  2  1  1  1
  2 13  1  0
  3  2  1  0
  4  3  1  0
  5  4  2  0
  6  5  1  0
  7  6  1  0
  7 12  2  0
  8  7  1  0
  9  8  2  0
  9 10  1  0
 10 11  2  0
 11 12  1  0
 12  4  1  0
 13 14  2  0
 15 13  1  0
 15 16  1  0
 17 19  1  0
 17 16  1  0
 18 17  2  0
 20 19  1  0
 20 21  1  1
 21 22  1  0
 23 20  1  0
 24 23  2  0
 25 23  1  0
M  END
$$$$
