WGC.pdb
     RDKit          3D

 25 26  0  0  1  0  0  0  0  0999 V2000
   24.4610  -20.4618   -9.4431 N   0  0  0  0  0  0  0  0  0  0  0  0
   25.8835  -20.1384   -9.6458 C   0  0  1  0  0  0  0  0  0  0  0  0
   26.6865  -21.0851   -8.8245 C   0  0  0  0  0  0  0  0  0  0  0  0
   26.5452  -20.7343   -7.3875 C   0  0  0  0  0  0  0  0  0  0  0  0
   25.4210  -20.9965   -6.6009 C   0  0  0  0  0  0  0  0  0  0  0  0
   25.6014  -20.5609   -5.3585 N   0  0  0  0  0  0  0  0  0  0  0  0
   26.8290  -20.0133   -5.3087 C   0  0  0  0  0  0  0  0  0  0  0  0
   27.5401  -19.4098   -4.2806 C   0  0  0  0  0  0  0  0  0  0  0  0
   28.8096  -18.9266   -4.5153 C   0  0  0  0  0  0  0  0  0  0  0  0
   29.4081  -19.0245   -5.7606 C   0  0  0  0  0  0  0  0  0  0  0  0
   28.7094  -19.6248   -6.7958 C   0  0  0  0  0  0  0  0  0  0  0  0
   27.4373  -20.1061   -6.5506 C   0  0  0  0  0  0  0  0  0  0  0  0
   26.1265  -20.1844  -11.0803 C   0  0  0  0  0  0  0  0  0  0  0  0
   25.6775  -21.1891  -11.7216 O   0  0  0  0  0  0  0  0  0  0  0  0
   26.8207  -19.2128  -11.8507 N   0  0  0  0  0  0  0  0  0  0  0  0
   27.0717  -19.3268  -13.2548 C   0  0  0  0  0  0  0  0  0  0  0  0
   25.8740  -18.9039  -14.0638 C   0  0  0  0  0  0  0  0  0  0  0  0
   24.9854  -18.1500  -13.6236 O   0  0  0  0  0  0  0  0  0  0  0  0
   25.7521  -19.3879  -15.3934 N   0  0  0  0  0  0  0  0  0  0  0  0
   24.6499  -18.9322  -16.2050 C   0  0  1  0  0  0  0  0  0  0  0  0
   25.1630  -18.6657  -17.6054 C   0  0  0  0  0  0  0  0  0  0  0  0
   23.8909  -17.8519  -18.6137 S   0  0  0  0  0  0  0  0  0  0  0  0
   23.6066  -19.9812  -16.2150 C   0  0  0  0  0  0  0  0  0  0  0  0
   23.9638  -21.1875  -16.1401 O   0  0  0  0  0  0  0  0  0  0  0  0
   22.2461  -19.7270  -16.3019 O   0  0  0  0  0  0  0  0  0  0  0  0
  2  1  1  6
  2 13  1  0
  3  2  1  0
  4  3  1  0
  5  4  2  0
  6  5  1  0
  7  6  1  0
  7 12  2  0
  8  7  1  0
  9  8  2  0
  9 10  1  0
 10 11  2  0
 11 12  1  0
 12  4  1  0
 13 14  2  0
 15 13  1  0
 15 16  1  0
 17 19  1  0
 17 16  1  0
 18 17  2  0
 20 19  1  0
 20 21  1  6
 21 22  1  0
 23 20  1  0
 24 23  2  0
 25 23  1  0
M  END
$$$$
