WGC.pdb
     RDKit          3D

 25 26  0  0  1  0  0  0  0  0999 V2000
   26.7828  -21.5530  -11.8657 N   0  0  0  0  0  0  0  0  0  0  0  0
   25.5497  -21.0283  -11.2547 C   0  0  1  0  0  0  0  0  0  0  0  0
   25.9415  -20.0089  -10.2433 C   0  0  0  0  0  0  0  0  0  0  0  0
   27.1751  -20.4550   -9.5452 C   0  0  0  0  0  0  0  0  0  0  0  0
   28.1543  -21.2874  -10.0925 C   0  0  0  0  0  0  0  0  0  0  0  0
   29.1327  -21.5036   -9.2195 N   0  0  0  0  0  0  0  0  0  0  0  0
   28.8173  -20.8269   -8.1006 C   0  0  0  0  0  0  0  0  0  0  0  0
   29.4638  -20.6897   -6.8800 C   0  0  0  0  0  0  0  0  0  0  0  0
   28.9005  -19.9164   -5.8877 C   0  0  0  0  0  0  0  0  0  0  0  0
   27.6934  -19.2621   -6.0703 C   0  0  0  0  0  0  0  0  0  0  0  0
   27.0374  -19.3903   -7.2841 C   0  0  0  0  0  0  0  0  0  0  0  0
   27.6102  -20.1679   -8.2727 C   0  0  0  0  0  0  0  0  0  0  0  0
   24.7109  -20.5478  -12.3430 C   0  0  0  0  0  0  0  0  0  0  0  0
   25.1168  -19.5315  -12.9946 O   0  0  0  0  0  0  0  0  0  0  0  0
   23.4705  -21.1011  -12.7607 N   0  0  0  0  0  0  0  0  0  0  0  0
   22.6824  -20.5894  -13.8399 C   0  0  0  0  0  0  0  0  0  0  0  0
   21.4349  -21.4074  -14.0461 C   0  0  0  0  0  0  0  0  0  0  0  0
   20.4960  -21.0460  -14.7806 O   0  0  0  0  0  0  0  0  0  0  0  0
   21.3240  -22.6516  -13.3705 N   0  0  0  0  0  0  0  0  0  0  0  0
   20.1603  -23.4721  -13.6029 C   0  0  1  0  0  0  0  0  0  0  0  0
   20.5781  -24.9270  -13.5379 C   0  0  0  0  0  0  0  0  0  0  0  0
   22.2317  -25.1550  -14.2527 S   0  0  0  0  0  0  0  0  0  0  0  0
   19.1520  -23.1648  -12.5647 C   0  0  0  0  0  0  0  0  0  0  0  0
   19.4556  -22.3513  -11.6514 O   0  0  0  0  0  0  0  0  0  0  0  0
   17.8799  -23.7160  -12.5259 O   0  0  0  0  0  0  0  0  0  0  0  0
  2  1  1  6
  2 13  1  0
  3  2  1  0
  4  3  1  0
  5  4  2  0
  6  5  1  0
  7  6  1  0
  7 12  2  0
  8  7  1  0
  9  8  2  0
  9 10  1  0
 10 11  2  0
 11 12  1  0
 12  4  1  0
 13 14  2  0
 15 13  1  0
 15 16  1  0
 17 19  1  0
 17 16  1  0
 18 17  2  0
 20 19  1  0
 20 21  1  1
 21 22  1  0
 23 20  1  0
 24 23  2  0
 25 23  1  0
M  END
$$$$
