FTM.pdb
     RDKit          3D

 27 27  0  0  1  0  0  0  0  0999 V2000
    8.0830  -17.2448   20.1547 N   0  0  0  0  0  0  0  0  0  0  0  0
    8.3344  -16.3505   21.2650 C   0  0  1  0  0  0  0  0  0  0  0  0
    7.2095  -15.3460   21.3377 C   0  0  0  0  0  0  0  0  0  0  0  0
    7.4513  -14.1744   20.4637 C   0  0  0  0  0  0  0  0  0  0  0  0
    7.2175  -14.3331   19.0947 C   0  0  0  0  0  0  0  0  0  0  0  0
    7.4140  -13.3141   18.2149 C   0  0  0  0  0  0  0  0  0  0  0  0
    7.8575  -12.0807   18.6740 C   0  0  0  0  0  0  0  0  0  0  0  0
    8.0895  -11.9227   20.0311 C   0  0  0  0  0  0  0  0  0  0  0  0
    7.8935  -12.9492   20.9314 C   0  0  0  0  0  0  0  0  0  0  0  0
    8.5082  -17.0952   22.5197 C   0  0  0  0  0  0  0  0  0  0  0  0
    8.0872  -18.2599   22.7134 O   0  0  0  0  0  0  0  0  0  0  0  0
    9.4576  -19.3597   23.7478 C   0  0  0  0  0  0  0  0  0  0  0  0
   10.2119  -18.4158   24.6530 C   0  0  1  0  0  0  0  0  0  0  0  0
   11.3766  -18.0821   23.9154 O   0  0  0  0  0  0  0  0  0  0  0  0
    9.3724  -17.1859   24.8764 C   0  0  2  0  0  0  0  0  0  0  0  0
    9.1925  -16.4795   23.5957 N   0  0  0  0  0  0  0  0  0  0  0  0
   10.0795  -16.2550   25.7670 C   0  0  0  0  0  0  0  0  0  0  0  0
   11.0982  -15.6022   25.3216 O   0  0  0  0  0  0  0  0  0  0  0  0
    7.3274  -12.0279   25.3507 C   0  0  0  0  0  0  0  0  0  0  0  0
    7.8073  -13.3700   26.4324 S   0  0  0  0  0  0  0  0  0  0  0  0
    9.2177  -13.0276   27.4498 C   0  0  0  0  0  0  0  0  0  0  0  0
    9.6586  -14.0452   28.4147 C   0  0  0  0  0  0  0  0  0  0  0  0
   10.5994  -15.0929   27.9182 C   0  0  2  0  0  0  0  0  0  0  0  0
    9.7297  -16.0045   27.0987 N   0  0  0  0  0  0  0  0  0  0  0  0
   11.1883  -15.8714   29.0072 C   0  0  0  0  0  0  0  0  0  0  0  0
   10.6904  -16.8689   29.5471 O   0  0  0  0  0  0  0  0  0  0  0  0
   12.4389  -15.4718   29.5082 O   0  0  0  0  0  0  0  0  0  0  0  0
  2  1  1  6
  2 10  1  0
  3  2  1  0
  3  4  1  0
  4  9  2  0
  5  4  1  0
  5  6  2  0
  6  7  1  0
  7  8  2  0
  9  8  1  0
 10 16  1  0
 11 10  2  0
 13 12  1  6
 13 14  1  0
 15 17  1  0
 15 13  1  0
 15 16  1  6
 17 24  1  0
 18 17  2  0
 19 20  1  0
 20 21  1  0
 23 22  1  1
 22 21  1  0
 23 25  1  0
 24 23  1  0
 25 26  2  0
 25 27  1  0
M  END
$$$$
