FTM.pdb
     RDKit          3D

 27 27  0  0  1  0  0  0  0  0999 V2000
    6.2482  -16.3377   25.6425 N   0  0  0  0  0  0  0  0  0  0  0  0
    6.2494  -16.3082   24.1952 C   0  0  1  0  0  0  0  0  0  0  0  0
    6.2263  -14.8676   23.7436 C   0  0  0  0  0  0  0  0  0  0  0  0
    6.6832  -13.9428   24.8071 C   0  0  0  0  0  0  0  0  0  0  0  0
    5.8758  -13.8164   25.9412 C   0  0  0  0  0  0  0  0  0  0  0  0
    6.2128  -12.9899   26.9679 C   0  0  0  0  0  0  0  0  0  0  0  0
    7.3846  -12.2475   26.9013 C   0  0  0  0  0  0  0  0  0  0  0  0
    8.1855  -12.3722   25.7771 C   0  0  0  0  0  0  0  0  0  0  0  0
    7.8531  -13.2072   24.7308 C   0  0  0  0  0  0  0  0  0  0  0  0
    7.3920  -17.0529   23.6484 C   0  0  0  0  0  0  0  0  0  0  0  0
    7.2897  -18.0760   22.9314 O   0  0  0  0  0  0  0  0  0  0  0  0
    9.7086  -15.9857   21.3905 C   0  0  0  0  0  0  0  0  0  0  0  0
    9.8164  -17.3943   21.9229 C   0  0  1  0  0  0  0  0  0  0  0  0
   11.0475  -17.8699   21.4034 O   0  0  0  0  0  0  0  0  0  0  0  0
    9.8774  -17.3395   23.4265 C   0  0  2  0  0  0  0  0  0  0  0  0
    8.7048  -16.6065   23.9353 N   0  0  0  0  0  0  0  0  0  0  0  0
   11.0592  -16.5752   23.8496 C   0  0  0  0  0  0  0  0  0  0  0  0
   11.1599  -15.3318   23.5233 O   0  0  0  0  0  0  0  0  0  0  0  0
   10.1896  -13.5718   28.1574 C   0  0  0  0  0  0  0  0  0  0  0  0
   10.9624  -15.1183   28.6186 S   0  0  0  0  0  0  0  0  0  0  0  0
   11.6143  -16.0501   27.2590 C   0  0  0  0  0  0  0  0  0  0  0  0
   12.2847  -15.3322   26.1653 C   0  0  0  0  0  0  0  0  0  0  0  0
   13.1056  -16.1447   25.2191 C   0  0  2  0  0  0  0  0  0  0  0  0
   12.1173  -17.0952   24.6035 N   0  0  0  0  0  0  0  0  0  0  0  0
   14.1331  -16.9267   25.9058 C   0  0  0  0  0  0  0  0  0  0  0  0
   14.1144  -18.1497   26.1013 O   0  0  0  0  0  0  0  0  0  0  0  0
   15.2611  -16.2509   26.4014 O   0  0  0  0  0  0  0  0  0  0  0  0
  2  1  1  1
  2 10  1  0
  3  2  1  0
  3  4  1  0
  4  9  2  0
  5  4  1  0
  5  6  2  0
  6  7  1  0
  7  8  2  0
  9  8  1  0
 10 16  1  0
 11 10  2  0
 13 12  1  6
 13 14  1  0
 15 17  1  0
 15 13  1  0
 15 16  1  6
 17 24  1  0
 18 17  2  0
 19 20  1  0
 20 21  1  0
 23 22  1  1
 22 21  1  0
 23 25  1  0
 24 23  1  0
 25 26  2  0
 25 27  1  0
M  END
$$$$
