FTM.pdb
     RDKit          3D

 27 27  0  0  1  0  0  0  0  0999 V2000
    7.7973  -17.7285   18.3121 N   0  0  0  0  0  0  0  0  0  0  0  0
    8.1267  -16.6912   19.2666 C   0  0  1  0  0  0  0  0  0  0  0  0
    7.2273  -15.5044   19.0166 C   0  0  0  0  0  0  0  0  0  0  0  0
    7.5687  -14.3538   19.8852 C   0  0  0  0  0  0  0  0  0  0  0  0
    6.9910  -14.3136   21.1575 C   0  0  0  0  0  0  0  0  0  0  0  0
    7.2440  -13.2954   22.0236 C   0  0  0  0  0  0  0  0  0  0  0  0
    8.0949  -12.2641   21.6482 C   0  0  0  0  0  0  0  0  0  0  0  0
    8.6679  -12.3032   20.3869 C   0  0  0  0  0  0  0  0  0  0  0  0
    8.4181  -13.3307   19.5012 C   0  0  0  0  0  0  0  0  0  0  0  0
    8.0349  -17.1883   20.6463 C   0  0  0  0  0  0  0  0  0  0  0  0
    7.0012  -17.6884   21.1489 O   0  0  0  0  0  0  0  0  0  0  0  0
    9.6186  -19.9040   22.1064 C   0  0  0  0  0  0  0  0  0  0  0  0
   10.0919  -18.7775   22.9931 C   0  0  1  0  0  0  0  0  0  0  0  0
   11.3562  -18.4208   22.4582 O   0  0  0  0  0  0  0  0  0  0  0  0
    9.1324  -17.6242   22.8631 C   0  0  2  0  0  0  0  0  0  0  0  0
    9.1742  -17.1088   21.4833 N   0  0  0  0  0  0  0  0  0  0  0  0
    9.5615  -16.5188   23.7313 C   0  0  0  0  0  0  0  0  0  0  0  0
   10.3660  -15.6243   23.2675 O   0  0  0  0  0  0  0  0  0  0  0  0
    6.0358  -12.3203   26.4485 C   0  0  0  0  0  0  0  0  0  0  0  0
    7.4626  -12.1608   27.5164 S   0  0  0  0  0  0  0  0  0  0  0  0
    8.8215  -13.2170   27.0925 C   0  0  0  0  0  0  0  0  0  0  0  0
    8.5783  -14.3603   26.2009 C   0  0  0  0  0  0  0  0  0  0  0  0
    9.7511  -15.2183   25.8576 C   0  0  2  0  0  0  0  0  0  0  0  0
    9.1568  -16.3449   25.0596 N   0  0  0  0  0  0  0  0  0  0  0  0
   10.3935  -15.7813   27.0447 C   0  0  0  0  0  0  0  0  0  0  0  0
   10.1880  -16.9040   27.5261 O   0  0  0  0  0  0  0  0  0  0  0  0
   11.3394  -14.9946   27.7238 O   0  0  0  0  0  0  0  0  0  0  0  0
  2  1  1  6
  2 10  1  0
  3  2  1  0
  3  4  1  0
  4  9  2  0
  5  4  1  0
  5  6  2  0
  6  7  1  0
  7  8  2  0
  9  8  1  0
 10 16  1  0
 11 10  2  0
 13 12  1  6
 13 14  1  0
 15 17  1  0
 15 13  1  0
 15 16  1  6
 17 24  1  0
 18 17  2  0
 19 20  1  0
 20 21  1  0
 23 22  1  1
 22 21  1  0
 23 25  1  0
 24 23  1  0
 25 26  2  0
 25 27  1  0
M  END
$$$$
