FTM.pdb
     RDKit          3D

 27 27  0  0  1  0  0  0  0  0999 V2000
    7.6794  -15.6491   18.8391 N   0  0  0  0  0  0  0  0  0  0  0  0
    8.0318  -15.0780   20.1217 C   0  0  1  0  0  0  0  0  0  0  0  0
    6.9749  -14.0706   20.5063 C   0  0  0  0  0  0  0  0  0  0  0  0
    7.1424  -13.5911   21.8981 C   0  0  0  0  0  0  0  0  0  0  0  0
    7.7448  -12.3429   22.0810 C   0  0  0  0  0  0  0  0  0  0  0  0
    7.9426  -11.8217   23.3220 C   0  0  0  0  0  0  0  0  0  0  0  0
    7.5413  -12.5357   24.4435 C   0  0  0  0  0  0  0  0  0  0  0  0
    6.9442  -13.7733   24.2628 C   0  0  0  0  0  0  0  0  0  0  0  0
    6.7390  -14.3108   23.0092 C   0  0  0  0  0  0  0  0  0  0  0  0
    8.2121  -16.1232   21.1386 C   0  0  0  0  0  0  0  0  0  0  0  0
    7.4701  -17.1264   21.2588 O   0  0  0  0  0  0  0  0  0  0  0  0
   11.6130  -17.6694   21.6251 C   0  0  0  0  0  0  0  0  0  0  0  0
   10.3128  -18.2138   22.1658 C   0  0  1  0  0  0  0  0  0  0  0  0
   10.7084  -19.2671   23.0294 O   0  0  0  0  0  0  0  0  0  0  0  0
    9.6257  -17.1303   22.9541 C   0  0  2  0  0  0  0  0  0  0  0  0
    9.2864  -16.0137   22.0545 N   0  0  0  0  0  0  0  0  0  0  0  0
   10.5476  -16.5858   23.9608 C   0  0  0  0  0  0  0  0  0  0  0  0
   10.9567  -15.3678   23.8524 O   0  0  0  0  0  0  0  0  0  0  0  0
    9.4123  -12.7418   28.9836 C   0  0  0  0  0  0  0  0  0  0  0  0
   10.0052  -13.8636   27.7220 S   0  0  0  0  0  0  0  0  0  0  0  0
    9.0812  -15.3698   27.5825 C   0  0  0  0  0  0  0  0  0  0  0  0
    9.4613  -16.3402   26.5456 C   0  0  0  0  0  0  0  0  0  0  0  0
   10.9098  -16.6840   26.4322 C   0  0  2  0  0  0  0  0  0  0  0  0
   11.0327  -17.2958   25.0648 N   0  0  0  0  0  0  0  0  0  0  0  0
   11.3238  -17.6776   27.4222 C   0  0  0  0  0  0  0  0  0  0  0  0
   10.9171  -18.8448   27.5031 O   0  0  0  0  0  0  0  0  0  0  0  0
   12.2736  -17.2986   28.3860 O   0  0  0  0  0  0  0  0  0  0  0  0
  2  1  1  6
  2 10  1  0
  3  2  1  0
  3  4  1  0
  4  9  2  0
  5  4  1  0
  5  6  2  0
  6  7  1  0
  7  8  2  0
  9  8  1  0
 10 16  1  0
 11 10  2  0
 13 12  1  1
 13 14  1  0
 15 17  1  0
 15 13  1  0
 15 16  1  6
 17 24  1  0
 18 17  2  0
 19 20  1  0
 20 21  1  0
 23 22  1  1
 22 21  1  0
 23 25  1  0
 24 23  1  0
 25 26  2  0
 25 27  1  0
M  END
$$$$
