ISM.pdb
     RDKit          3D

 23 22  0  0  1  0  0  0  0  0999 V2000
    7.4257  -12.0740   18.8223 C   0  0  0  0  0  0  0  0  0  0  0  0
    7.8233  -13.5240   18.5451 C   0  0  0  0  0  0  0  0  0  0  0  0
    8.0992  -14.2087   19.8471 C   0  0  2  0  0  0  0  0  0  0  0  0
    9.0773  -13.4504   20.7075 C   0  0  0  0  0  0  0  0  0  0  0  0
    8.4274  -15.6804   19.7208 C   0  0  2  0  0  0  0  0  0  0  0  0
    7.3932  -16.2489   18.8828 N   0  0  0  0  0  0  0  0  0  0  0  0
    8.4754  -16.2723   21.0566 C   0  0  0  0  0  0  0  0  0  0  0  0
    7.4383  -16.3627   21.7579 O   0  0  0  0  0  0  0  0  0  0  0  0
   10.7231  -19.3673   22.2499 O   0  0  0  0  0  0  0  0  0  0  0  0
   10.9891  -18.2373   23.0371 C   0  0  0  0  0  0  0  0  0  0  0  0
    9.7541  -17.3585   22.9585 C   0  0  2  0  0  0  0  0  0  0  0  0
    9.6723  -16.7841   21.6617 N   0  0  0  0  0  0  0  0  0  0  0  0
    9.8433  -16.3662   24.0560 C   0  0  0  0  0  0  0  0  0  0  0  0
   10.7672  -15.5186   23.9486 O   0  0  0  0  0  0  0  0  0  0  0  0
    7.0437  -11.4151   25.8267 C   0  0  0  0  0  0  0  0  0  0  0  0
    7.0052  -12.1617   27.4972 S   0  0  0  0  0  0  0  0  0  0  0  0
    8.3632  -13.4078   27.5094 C   0  0  0  0  0  0  0  0  0  0  0  0
    8.1635  -14.3596   26.3745 C   0  0  0  0  0  0  0  0  0  0  0  0
    9.2309  -15.3859   26.2710 C   0  0  2  0  0  0  0  0  0  0  0  0
    8.9977  -16.3134   25.1630 N   0  0  0  0  0  0  0  0  0  0  0  0
    9.5118  -16.1348   27.5239 C   0  0  0  0  0  0  0  0  0  0  0  0
    9.1866  -17.3085   27.7561 O   0  0  0  0  0  0  0  0  0  0  0  0
   10.2073  -15.4940   28.5737 O   0  0  0  0  0  0  0  0  0  0  0  0
  2  1  1  0
  3  4  1  6
  3  2  1  0
  5  6  1  6
  5  3  1  0
  7  5  1  0
  8  7  2  0
  9 10  1  0
 11 10  1  6
 11 12  1  0
 12  7  1  0
 13 11  1  0
 13 20  1  0
 14 13  2  0
 15 16  1  0
 17 16  1  0
 18 17  1  0
 19 20  1  0
 19 18  1  1
 19 21  1  0
 21 23  1  0
 22 21  2  0
M  END
$$$$
