ISM.pdb
     RDKit          3D

 23 22  0  0  1  0  0  0  0  0999 V2000
    7.4485  -11.9507   19.5867 C   0  0  0  0  0  0  0  0  0  0  0  0
    7.7065  -13.4242   19.2709 C   0  0  0  0  0  0  0  0  0  0  0  0
    8.0686  -14.1354   20.5371 C   0  0  2  0  0  0  0  0  0  0  0  0
    9.1887  -13.4585   21.2848 C   0  0  0  0  0  0  0  0  0  0  0  0
    8.2684  -15.6270   20.3796 C   0  0  2  0  0  0  0  0  0  0  0  0
    7.1317  -16.1035   19.6207 N   0  0  0  0  0  0  0  0  0  0  0  0
    8.3706  -16.2348   21.7051 C   0  0  0  0  0  0  0  0  0  0  0  0
    7.4046  -16.1985   22.5058 O   0  0  0  0  0  0  0  0  0  0  0  0
   11.9274  -17.9425   22.9776 O   0  0  0  0  0  0  0  0  0  0  0  0
   10.7518  -18.5412   23.4539 C   0  0  0  0  0  0  0  0  0  0  0  0
    9.6987  -17.4488   23.4924 C   0  0  2  0  0  0  0  0  0  0  0  0
    9.5449  -16.9031   22.1898 N   0  0  0  0  0  0  0  0  0  0  0  0
   10.1177  -16.4627   24.5167 C   0  0  0  0  0  0  0  0  0  0  0  0
   10.7898  -15.4881   24.0902 O   0  0  0  0  0  0  0  0  0  0  0  0
    6.8243  -12.7459   26.8418 C   0  0  0  0  0  0  0  0  0  0  0  0
    8.2036  -12.0419   27.8172 S   0  0  0  0  0  0  0  0  0  0  0  0
    9.4612  -13.3845   27.9290 C   0  0  0  0  0  0  0  0  0  0  0  0
    9.2012  -14.3888   26.8531 C   0  0  0  0  0  0  0  0  0  0  0  0
   10.2030  -15.4834   26.8137 C   0  0  2  0  0  0  0  0  0  0  0  0
    9.8247  -16.5429   25.8773 N   0  0  0  0  0  0  0  0  0  0  0  0
   10.5593  -16.0624   28.1355 C   0  0  0  0  0  0  0  0  0  0  0  0
   10.2783  -17.2048   28.5268 O   0  0  0  0  0  0  0  0  0  0  0  0
   11.2812  -15.2791   29.0638 O   0  0  0  0  0  0  0  0  0  0  0  0
  2  1  1  0
  3  4  1  6
  3  2  1  0
  5  6  1  1
  5  3  1  0
  7  5  1  0
  8  7  2  0
  9 10  1  0
 11 10  1  6
 11 12  1  0
 12  7  1  0
 13 11  1  0
 13 20  1  0
 14 13  2  0
 15 16  1  0
 17 16  1  0
 18 17  1  0
 19 20  1  0
 19 18  1  1
 19 21  1  0
 21 23  1  0
 22 21  2  0
M  END
$$$$
