ISM.pdb
     RDKit          3D

 23 22  0  0  1  0  0  0  0  0999 V2000
    6.3689  -11.4243   26.2716 C   0  0  0  0  0  0  0  0  0  0  0  0
    5.8251  -12.7724   25.7980 C   0  0  0  0  0  0  0  0  0  0  0  0
    6.9627  -13.6045   25.2946 C   0  0  2  0  0  0  0  0  0  0  0  0
    7.8164  -12.8755   24.2888 C   0  0  0  0  0  0  0  0  0  0  0  0
    6.5688  -14.9962   24.8500 C   0  0  2  0  0  0  0  0  0  0  0  0
    5.7916  -15.5562   25.9351 N   0  0  0  0  0  0  0  0  0  0  0  0
    7.7794  -15.7608   24.5553 C   0  0  0  0  0  0  0  0  0  0  0  0
    8.5165  -16.1806   25.4806 O   0  0  0  0  0  0  0  0  0  0  0  0
    9.6422  -15.4420   21.0422 O   0  0  0  0  0  0  0  0  0  0  0  0
    9.5997  -16.7961   21.4054 C   0  0  0  0  0  0  0  0  0  0  0  0
    9.3823  -16.8315   22.9071 C   0  0  2  0  0  0  0  0  0  0  0  0
    8.2156  -16.0867   23.2271 N   0  0  0  0  0  0  0  0  0  0  0  0
   10.6191  -16.3248   23.5479 C   0  0  0  0  0  0  0  0  0  0  0  0
   10.8041  -15.0828   23.4662 O   0  0  0  0  0  0  0  0  0  0  0  0
   10.3895  -13.6909   28.9115 C   0  0  0  0  0  0  0  0  0  0  0  0
   10.4985  -15.5152   29.0074 S   0  0  0  0  0  0  0  0  0  0  0  0
   11.8255  -15.9909   27.8202 C   0  0  0  0  0  0  0  0  0  0  0  0
   11.2063  -16.3153   26.4991 C   0  0  0  0  0  0  0  0  0  0  0  0
   12.1992  -16.6663   25.4529 C   0  0  2  0  0  0  0  0  0  0  0  0
   11.5596  -17.1097   24.2133 N   0  0  0  0  0  0  0  0  0  0  0  0
   13.2442  -17.6363   25.8730 C   0  0  0  0  0  0  0  0  0  0  0  0
   14.3144  -17.3533   26.4316 O   0  0  0  0  0  0  0  0  0  0  0  0
   13.0469  -19.0149   25.6345 O   0  0  0  0  0  0  0  0  0  0  0  0
  2  1  1  0
  3  4  1  6
  3  2  1  0
  5  6  1  1
  5  3  1  0
  7  5  1  0
  8  7  2  0
  9 10  1  0
 11 10  1  6
 11 12  1  0
 12  7  1  0
 13 11  1  0
 13 20  1  0
 14 13  2  0
 15 16  1  0
 17 16  1  0
 18 17  1  0
 19 20  1  0
 19 18  1  1
 19 21  1  0
 21 23  1  0
 22 21  2  0
M  END
$$$$
