ISM.pdb
     RDKit          3D

 23 22  0  0  1  0  0  0  0  0999 V2000
    7.4077  -11.7947   19.8220 C   0  0  0  0  0  0  0  0  0  0  0  0
    7.6203  -13.2602   19.4416 C   0  0  0  0  0  0  0  0  0  0  0  0
    7.9724  -14.0347   20.6729 C   0  0  2  0  0  0  0  0  0  0  0  0
    9.1073  -13.4136   21.4464 C   0  0  0  0  0  0  0  0  0  0  0  0
    8.1434  -15.5212   20.4473 C   0  0  2  0  0  0  0  0  0  0  0  0
    6.9646  -15.9532   19.7271 N   0  0  0  0  0  0  0  0  0  0  0  0
    8.3015  -16.1825   21.7414 C   0  0  0  0  0  0  0  0  0  0  0  0
    7.3437  -16.2519   22.5497 O   0  0  0  0  0  0  0  0  0  0  0  0
   11.9091  -17.8692   22.7594 O   0  0  0  0  0  0  0  0  0  0  0  0
   10.7826  -18.4660   23.3441 C   0  0  0  0  0  0  0  0  0  0  0  0
    9.7317  -17.3771   23.4616 C   0  0  2  0  0  0  0  0  0  0  0  0
    9.5244  -16.7894   22.1850 N   0  0  0  0  0  0  0  0  0  0  0  0
   10.1924  -16.4242   24.4995 C   0  0  0  0  0  0  0  0  0  0  0  0
   11.0706  -15.6018   24.1309 O   0  0  0  0  0  0  0  0  0  0  0  0
    6.0226  -12.1770   26.4780 C   0  0  0  0  0  0  0  0  0  0  0  0
    7.8515  -12.1920   26.5445 S   0  0  0  0  0  0  0  0  0  0  0  0
    8.3255  -13.9715   26.6187 C   0  0  0  0  0  0  0  0  0  0  0  0
    9.8161  -14.0801   26.6353 C   0  0  0  0  0  0  0  0  0  0  0  0
   10.3040  -15.4716   26.8064 C   0  0  2  0  0  0  0  0  0  0  0  0
    9.7307  -16.3822   25.8142 N   0  0  0  0  0  0  0  0  0  0  0  0
   10.1500  -16.0319   28.1746 C   0  0  0  0  0  0  0  0  0  0  0  0
    9.5192  -17.0570   28.4721 O   0  0  0  0  0  0  0  0  0  0  0  0
   10.7571  -15.3720   29.2666 O   0  0  0  0  0  0  0  0  0  0  0  0
  2  1  1  0
  3  4  1  6
  3  2  1  0
  5  6  1  1
  5  3  1  0
  7  5  1  0
  8  7  2  0
  9 10  1  0
 11 10  1  6
 11 12  1  0
 12  7  1  0
 13 11  1  0
 13 20  1  0
 14 13  2  0
 15 16  1  0
 17 16  1  0
 18 17  1  0
 19 20  1  0
 19 18  1  1
 19 21  1  0
 21 23  1  0
 22 21  2  0
M  END
$$$$
