ISM.pdb
     RDKit          3D

 23 22  0  0  1  0  0  0  0  0999 V2000
    7.7841  -11.7699   19.0394 C   0  0  0  0  0  0  0  0  0  0  0  0
    7.9248  -13.2686   18.7720 C   0  0  0  0  0  0  0  0  0  0  0  0
    7.9905  -13.9908   20.0813 C   0  0  2  0  0  0  0  0  0  0  0  0
    8.9637  -13.3614   21.0449 C   0  0  0  0  0  0  0  0  0  0  0  0
    8.1527  -15.4903   19.9592 C   0  0  2  0  0  0  0  0  0  0  0  0
    7.1347  -15.9268   19.0274 N   0  0  0  0  0  0  0  0  0  0  0  0
    8.0155  -16.0920   21.2844 C   0  0  0  0  0  0  0  0  0  0  0  0
    6.9318  -16.0214   21.9140 O   0  0  0  0  0  0  0  0  0  0  0  0
   11.2363  -17.9637   23.0551 O   0  0  0  0  0  0  0  0  0  0  0  0
    9.9767  -18.4665   23.4126 C   0  0  0  0  0  0  0  0  0  0  0  0
    8.9995  -17.3128   23.2777 C   0  0  2  0  0  0  0  0  0  0  0  0
    9.0723  -16.7920   21.9580 N   0  0  0  0  0  0  0  0  0  0  0  0
    9.3251  -16.3278   24.3364 C   0  0  0  0  0  0  0  0  0  0  0  0
   10.3079  -15.5789   24.0984 O   0  0  0  0  0  0  0  0  0  0  0  0
    6.8212  -11.1296   27.0751 C   0  0  0  0  0  0  0  0  0  0  0  0
    5.9308  -12.5534   26.3476 S   0  0  0  0  0  0  0  0  0  0  0  0
    7.2439  -13.7010   25.7515 C   0  0  0  0  0  0  0  0  0  0  0  0
    7.9488  -14.2916   26.9297 C   0  0  0  0  0  0  0  0  0  0  0  0
    9.0495  -15.2150   26.5563 C   0  0  2  0  0  0  0  0  0  0  0  0
    8.6354  -16.1826   25.5392 N   0  0  0  0  0  0  0  0  0  0  0  0
    9.7068  -15.9085   27.6949 C   0  0  0  0  0  0  0  0  0  0  0  0
    9.6704  -17.1270   27.9209 O   0  0  0  0  0  0  0  0  0  0  0  0
   10.4494  -15.1543   28.6309 O   0  0  0  0  0  0  0  0  0  0  0  0
  2  1  1  0
  3  4  1  1
  3  2  1  0
  5  6  1  6
  5  3  1  0
  7  5  1  0
  8  7  2  0
  9 10  1  0
 11 10  1  6
 11 12  1  0
 12  7  1  0
 13 11  1  0
 13 20  1  0
 14 13  2  0
 15 16  1  0
 17 16  1  0
 18 17  1  0
 19 20  1  0
 19 18  1  1
 19 21  1  0
 21 23  1  0
 22 21  2  0
M  END
$$$$
