ISM.pdb
     RDKit          3D

 23 22  0  0  1  0  0  0  0  0999 V2000
    7.8724  -12.0903   19.4470 C   0  0  0  0  0  0  0  0  0  0  0  0
    7.6864  -13.6077   19.4644 C   0  0  0  0  0  0  0  0  0  0  0  0
    8.0061  -14.1198   20.8339 C   0  0  2  0  0  0  0  0  0  0  0  0
    9.3404  -13.6345   21.3399 C   0  0  0  0  0  0  0  0  0  0  0  0
    7.8059  -15.6099   21.0052 C   0  0  2  0  0  0  0  0  0  0  0  0
    6.4807  -15.8949   20.4976 N   0  0  0  0  0  0  0  0  0  0  0  0
    7.9666  -15.9510   22.4176 C   0  0  0  0  0  0  0  0  0  0  0  0
    7.1191  -15.5853   23.2683 O   0  0  0  0  0  0  0  0  0  0  0  0
   11.2895  -17.9892   23.6396 O   0  0  0  0  0  0  0  0  0  0  0  0
   10.1199  -18.3578   24.3204 C   0  0  0  0  0  0  0  0  0  0  0  0
    9.2009  -17.1504   24.2804 C   0  0  2  0  0  0  0  0  0  0  0  0
    9.0701  -16.7083   22.9366 N   0  0  0  0  0  0  0  0  0  0  0  0
    9.7624  -16.1331   25.2008 C   0  0  0  0  0  0  0  0  0  0  0  0
   10.7029  -15.4388   24.7350 O   0  0  0  0  0  0  0  0  0  0  0  0
    5.4910  -12.1292   26.5286 C   0  0  0  0  0  0  0  0  0  0  0  0
    6.8478  -12.3793   27.7310 S   0  0  0  0  0  0  0  0  0  0  0  0
    7.9837  -13.5981   26.9430 C   0  0  0  0  0  0  0  0  0  0  0  0
    9.1112  -13.8918   27.8791 C   0  0  0  0  0  0  0  0  0  0  0  0
   10.0159  -14.9642   27.3943 C   0  0  2  0  0  0  0  0  0  0  0  0
    9.3299  -15.9037   26.5060 N   0  0  0  0  0  0  0  0  0  0  0  0
   10.7526  -15.6982   28.4563 C   0  0  0  0  0  0  0  0  0  0  0  0
   10.6552  -16.9095   28.7023 O   0  0  0  0  0  0  0  0  0  0  0  0
   11.6546  -14.9958   29.2867 O   0  0  0  0  0  0  0  0  0  0  0  0
  2  1  1  0
  3  4  1  6
  3  2  1  0
  5  6  1  1
  5  3  1  0
  7  5  1  0
  8  7  2  0
  9 10  1  0
 11 10  1  6
 11 12  1  0
 12  7  1  0
 13 11  1  0
 13 20  1  0
 14 13  2  0
 15 16  1  0
 17 16  1  0
 18 17  1  0
 19 20  1  0
 19 18  1  1
 19 21  1  0
 21 23  1  0
 22 21  2  0
M  END
$$$$
