ISM.pdb
     RDKit          3D

 23 22  0  0  1  0  0  0  0  0999 V2000
   10.7137  -13.9474   29.5241 C   0  0  0  0  0  0  0  0  0  0  0  0
   10.5897  -15.4608   29.7021 C   0  0  0  0  0  0  0  0  0  0  0  0
   10.1200  -16.0636   28.4152 C   0  0  2  0  0  0  0  0  0  0  0  0
    8.9606  -15.3140   27.8105 C   0  0  0  0  0  0  0  0  0  0  0  0
    9.9032  -17.5602   28.4698 C   0  0  2  0  0  0  0  0  0  0  0  0
   11.0857  -18.1115   29.0966 N   0  0  0  0  0  0  0  0  0  0  0  0
    9.6864  -18.0581   27.1126 C   0  0  0  0  0  0  0  0  0  0  0  0
   10.6449  -18.1807   26.3114 O   0  0  0  0  0  0  0  0  0  0  0  0
    5.9137  -18.3067   25.6635 O   0  0  0  0  0  0  0  0  0  0  0  0
    6.7106  -19.3474   25.1645 C   0  0  0  0  0  0  0  0  0  0  0  0
    8.1492  -18.8745   25.2680 C   0  0  2  0  0  0  0  0  0  0  0  0
    8.4019  -18.4372   26.5958 N   0  0  0  0  0  0  0  0  0  0  0  0
    8.3488  -17.8280   24.2373 C   0  0  0  0  0  0  0  0  0  0  0  0
    8.1640  -18.1945   23.0477 O   0  0  0  0  0  0  0  0  0  0  0  0
    6.7417  -11.5669   25.0702 C   0  0  0  0  0  0  0  0  0  0  0  0
    6.4525  -13.3057   25.5622 S   0  0  0  0  0  0  0  0  0  0  0  0
    6.8133  -14.3080   24.0582 C   0  0  0  0  0  0  0  0  0  0  0  0
    8.2733  -14.2198   23.7506 C   0  0  0  0  0  0  0  0  0  0  0  0
    8.8856  -15.5301   23.4165 C   0  0  2  0  0  0  0  0  0  0  0  0
    8.7161  -16.5077   24.4926 N   0  0  0  0  0  0  0  0  0  0  0  0
   10.3075  -15.4726   22.9873 C   0  0  0  0  0  0  0  0  0  0  0  0
   11.2680  -15.9754   23.5889 O   0  0  0  0  0  0  0  0  0  0  0  0
   10.6450  -14.7942   21.7946 O   0  0  0  0  0  0  0  0  0  0  0  0
  2  1  1  0
  3  4  1  1
  3  2  1  0
  5  6  1  6
  5  3  1  0
  7  5  1  0
  8  7  2  0
  9 10  1  0
 11 10  1  1
 11 12  1  0
 12  7  1  0
 13 11  1  0
 13 20  1  0
 14 13  2  0
 15 16  1  0
 17 16  1  0
 18 17  1  0
 19 20  1  0
 19 18  1  1
 19 21  1  0
 21 23  1  0
 22 21  2  0
M  END
$$$$
