WDE.pdb
     RDKit          3D

 32 33  0  0  1  0  0  0  0  0999 V2000
    6.1892  -18.0597   24.5281 N   0  0  0  0  0  0  0  0  0  0  0  0
    6.8745  -17.4247   23.4447 C   0  0  1  0  0  0  0  0  0  0  0  0
    6.6520  -15.9165   23.4640 C   0  0  0  0  0  0  0  0  0  0  0  0
    6.7935  -15.3377   24.8173 C   0  0  0  0  0  0  0  0  0  0  0  0
    6.7322  -16.0142   26.0049 C   0  0  0  0  0  0  0  0  0  0  0  0
    6.8864  -15.0952   26.9730 N   0  0  0  0  0  0  0  0  0  0  0  0
    7.0437  -13.8669   26.4382 C   0  0  0  0  0  0  0  0  0  0  0  0
    7.2334  -12.6292   27.0165 C   0  0  0  0  0  0  0  0  0  0  0  0
    7.3679  -11.5308   26.2235 C   0  0  0  0  0  0  0  0  0  0  0  0
    7.3223  -11.6008   24.8297 C   0  0  0  0  0  0  0  0  0  0  0  0
    7.1305  -12.8494   24.2848 C   0  0  0  0  0  0  0  0  0  0  0  0
    6.9908  -13.9776   25.0627 C   0  0  0  0  0  0  0  0  0  0  0  0
    8.3526  -17.6574   23.4484 C   0  0  0  0  0  0  0  0  0  0  0  0
    8.9506  -18.3283   24.2883 O   0  0  0  0  0  0  0  0  0  0  0  0
    9.0738  -17.0467   22.3976 N   0  0  0  0  0  0  0  0  0  0  0  0
   10.5081  -17.1487   22.1924 C   0  0  1  0  0  0  0  0  0  0  0  0
   10.8869  -16.5011   20.9288 C   0  0  0  0  0  0  0  0  0  0  0  0
   12.2315  -16.8215   20.4191 C   0  0  0  0  0  0  0  0  0  0  0  0
   12.5918  -17.9934   20.2028 O   0  0  0  0  0  0  0  0  0  0  0  0
   11.2703  -16.7652   23.3763 C   0  0  0  0  0  0  0  0  0  0  0  0
   11.3297  -15.5605   23.7093 O   0  0  0  0  0  0  0  0  0  0  0  0
   13.1339  -15.7978   20.1662 O   0  0  0  0  0  0  0  0  0  0  0  0
   11.9344  -17.7401   24.1412 N   0  0  0  0  0  0  0  0  0  0  0  0
   12.8314  -17.4220   25.2388 C   0  0  1  0  0  0  0  0  0  0  0  0
   12.4972  -18.3499   26.4071 C   0  0  0  0  0  0  0  0  0  0  0  0
   11.2502  -17.9426   27.1159 C   0  0  0  0  0  0  0  0  0  0  0  0
   10.9784  -18.9538   28.1727 C   0  0  0  0  0  0  0  0  0  0  0  0
   11.7077  -19.0827   29.1807 O   0  0  0  0  0  0  0  0  0  0  0  0
   14.2158  -17.7031   24.7561 C   0  0  0  0  0  0  0  0  0  0  0  0
   15.2945  -17.3230   25.5268 O   0  0  0  0  0  0  0  0  0  0  0  0
    9.8759  -19.8040   28.0556 O   0  0  0  0  0  0  0  0  0  0  0  0
   14.4421  -18.2799   23.6624 O   0  0  0  0  0  0  0  0  0  0  0  0
  2  3  1  0
  2  1  1  1
  3  4  1  0
  4  5  2  0
  5  6  1  0
  7  6  1  0
  8  7  2  0
  9  8  1  0
 10 11  1  0
 10  9  2  0
 11 12  2  0
 12  4  1  0
 12  7  1  0
 13 14  2  0
 13  2  1  0
 15 13  1  0
 16 15  1  0
 16 17  1  6
 18 17  1  0
 19 18  2  0
 20 16  1  0
 20 21  2  0
 22 18  1  0
 23 20  1  0
 24 23  1  0
 24 25  1  1
 26 27  1  0
 26 25  1  0
 27 31  1  0
 28 27  2  0
 29 24  1  0
 30 29  1  0
 32 29  2  0
M  END
$$$$
