WDE.pdb
     RDKit          3D

 32 33  0  0  1  0  0  0  0  0999 V2000
    7.9934  -17.9790   21.9178 N   0  0  0  0  0  0  0  0  0  0  0  0
    9.1643  -17.3207   21.4254 C   0  0  1  0  0  0  0  0  0  0  0  0
    9.5954  -16.1965   22.3609 C   0  0  0  0  0  0  0  0  0  0  0  0
    8.6837  -15.0335   22.3108 C   0  0  0  0  0  0  0  0  0  0  0  0
    7.8066  -14.6413   23.2848 C   0  0  0  0  0  0  0  0  0  0  0  0
    7.1694  -13.5588   22.8076 N   0  0  0  0  0  0  0  0  0  0  0  0
    7.6142  -13.2554   21.5707 C   0  0  0  0  0  0  0  0  0  0  0  0
    7.2712  -12.2502   20.6908 C   0  0  0  0  0  0  0  0  0  0  0  0
    7.8936  -12.1743   19.4823 C   0  0  0  0  0  0  0  0  0  0  0  0
    8.8790  -13.0810   19.0868 C   0  0  0  0  0  0  0  0  0  0  0  0
    9.1967  -14.0719   19.9868 C   0  0  0  0  0  0  0  0  0  0  0  0
    8.5829  -14.1734   21.2158 C   0  0  0  0  0  0  0  0  0  0  0  0
   10.3387  -18.2314   21.2518 C   0  0  0  0  0  0  0  0  0  0  0  0
   10.4502  -19.3348   21.7841 O   0  0  0  0  0  0  0  0  0  0  0  0
   11.3686  -17.7529   20.4105 N   0  0  0  0  0  0  0  0  0  0  0  0
   12.7537  -18.1887   20.4464 C   0  0  1  0  0  0  0  0  0  0  0  0
   13.4576  -17.7417   19.2363 C   0  0  0  0  0  0  0  0  0  0  0  0
   14.6923  -18.4728   18.9027 C   0  0  0  0  0  0  0  0  0  0  0  0
   15.0885  -19.4396   19.5797 O   0  0  0  0  0  0  0  0  0  0  0  0
   13.3986  -17.8952   21.7223 C   0  0  0  0  0  0  0  0  0  0  0  0
   13.5130  -16.7071   22.0977 O   0  0  0  0  0  0  0  0  0  0  0  0
   15.4461  -18.0855   17.8035 O   0  0  0  0  0  0  0  0  0  0  0  0
   13.8887  -18.9380   22.5279 N   0  0  0  0  0  0  0  0  0  0  0  0
   14.3210  -18.7519   23.9023 C   0  0  1  0  0  0  0  0  0  0  0  0
   13.2001  -19.2393   24.8209 C   0  0  0  0  0  0  0  0  0  0  0  0
   13.5693  -19.1492   26.2627 C   0  0  0  0  0  0  0  0  0  0  0  0
   12.4259  -19.6735   27.0571 C   0  0  0  0  0  0  0  0  0  0  0  0
   11.3605  -20.0573   26.5259 O   0  0  0  0  0  0  0  0  0  0  0  0
   15.5302  -19.6068   24.0908 C   0  0  0  0  0  0  0  0  0  0  0  0
   15.7893  -20.6242   23.1966 O   0  0  0  0  0  0  0  0  0  0  0  0
   12.5208  -19.7466   28.4492 O   0  0  0  0  0  0  0  0  0  0  0  0
   16.3328  -19.4352   25.0429 O   0  0  0  0  0  0  0  0  0  0  0  0
  2  3  1  0
  2  1  1  1
  3  4  1  0
  4  5  2  0
  5  6  1  0
  7  6  1  0
  8  7  2  0
  9  8  1  0
 10 11  1  0
 10  9  2  0
 11 12  2  0
 12  4  1  0
 12  7  1  0
 13 14  2  0
 13  2  1  0
 15 13  1  0
 16 15  1  0
 16 17  1  6
 18 17  1  0
 19 18  2  0
 20 16  1  0
 20 21  2  0
 22 18  1  0
 23 20  1  0
 24 23  1  0
 24 25  1  1
 26 27  1  0
 26 25  1  0
 27 31  1  0
 28 27  2  0
 29 24  1  0
 30 29  1  0
 32 29  2  0
M  END
$$$$
