WDE.pdb
     RDKit          3D

 32 33  0  0  1  0  0  0  0  0999 V2000
    6.2090  -17.7581   24.4946 N   0  0  0  0  0  0  0  0  0  0  0  0
    7.3925  -17.0985   24.0353 C   0  0  1  0  0  0  0  0  0  0  0  0
    8.0172  -16.2584   25.1438 C   0  0  0  0  0  0  0  0  0  0  0  0
    7.1333  -15.1613   25.5931 C   0  0  0  0  0  0  0  0  0  0  0  0
    5.8719  -15.2880   26.1073 C   0  0  0  0  0  0  0  0  0  0  0  0
    5.4361  -14.0410   26.3538 N   0  0  0  0  0  0  0  0  0  0  0  0
    6.3770  -13.1357   26.0149 C   0  0  0  0  0  0  0  0  0  0  0  0
    6.3950  -11.7583   26.0830 C   0  0  0  0  0  0  0  0  0  0  0  0
    7.4995  -11.0796   25.6670 C   0  0  0  0  0  0  0  0  0  0  0  0
    8.6329  -11.7241   25.1672 C   0  0  0  0  0  0  0  0  0  0  0  0
    8.5820  -13.0978   25.1113 C   0  0  0  0  0  0  0  0  0  0  0  0
    7.4778  -13.8101   25.5246 C   0  0  0  0  0  0  0  0  0  0  0  0
    8.4481  -18.0342   23.5364 C   0  0  0  0  0  0  0  0  0  0  0  0
    8.5733  -19.2024   23.9011 O   0  0  0  0  0  0  0  0  0  0  0  0
    9.3424  -17.4994   22.5816 N   0  0  0  0  0  0  0  0  0  0  0  0
   10.6866  -17.9858   22.3241 C   0  0  1  0  0  0  0  0  0  0  0  0
   11.0986  -17.6379   20.9571 C   0  0  0  0  0  0  0  0  0  0  0  0
   11.2507  -16.1996   20.6770 C   0  0  0  0  0  0  0  0  0  0  0  0
   12.3289  -15.6039   20.8574 O   0  0  0  0  0  0  0  0  0  0  0  0
   11.6187  -17.6436   23.3935 C   0  0  0  0  0  0  0  0  0  0  0  0
   11.9348  -16.4471   23.5781 O   0  0  0  0  0  0  0  0  0  0  0  0
   10.1698  -15.4738   20.1959 O   0  0  0  0  0  0  0  0  0  0  0  0
   12.1596  -18.6489   24.2142 N   0  0  0  0  0  0  0  0  0  0  0  0
   13.0492  -18.3782   25.3304 C   0  0  1  0  0  0  0  0  0  0  0  0
   12.4910  -19.0892   26.5635 C   0  0  0  0  0  0  0  0  0  0  0  0
   11.1885  -18.5151   27.0077 C   0  0  0  0  0  0  0  0  0  0  0  0
   10.7177  -19.3088   28.1747 C   0  0  0  0  0  0  0  0  0  0  0  0
   11.5001  -19.9569   28.9043 O   0  0  0  0  0  0  0  0  0  0  0  0
   14.3755  -18.9627   24.9729 C   0  0  0  0  0  0  0  0  0  0  0  0
   15.4574  -18.7500   25.8013 O   0  0  0  0  0  0  0  0  0  0  0  0
    9.3561  -19.3495   28.4851 O   0  0  0  0  0  0  0  0  0  0  0  0
   14.5493  -19.6501   23.9349 O   0  0  0  0  0  0  0  0  0  0  0  0
  2  3  1  0
  2  1  1  1
  3  4  1  0
  4  5  2  0
  5  6  1  0
  7  6  1  0
  8  7  2  0
  9  8  1  0
 10 11  1  0
 10  9  2  0
 11 12  2  0
 12  4  1  0
 12  7  1  0
 13 14  2  0
 13  2  1  0
 15 13  1  0
 16 15  1  0
 16 17  1  6
 18 17  1  0
 19 18  2  0
 20 16  1  0
 20 21  2  0
 22 18  1  0
 23 20  1  0
 24 23  1  0
 24 25  1  1
 26 27  1  0
 26 25  1  0
 27 31  1  0
 28 27  2  0
 29 24  1  0
 30 29  1  0
 32 29  2  0
M  END
$$$$
