WDE.pdb
     RDKit          3D

 32 33  0  0  1  0  0  0  0  0999 V2000
    6.4933  -17.7476   24.4932 N   0  0  0  0  0  0  0  0  0  0  0  0
    7.3410  -16.7950   23.8447 C   0  0  1  0  0  0  0  0  0  0  0  0
    8.0683  -15.9251   24.8641 C   0  0  0  0  0  0  0  0  0  0  0  0
    7.1663  -14.9716   25.5451 C   0  0  0  0  0  0  0  0  0  0  0  0
    6.0516  -15.2818   26.2752 C   0  0  0  0  0  0  0  0  0  0  0  0
    5.5294  -14.1133   26.6845 N   0  0  0  0  0  0  0  0  0  0  0  0
    6.2750  -13.0807   26.2401 C   0  0  0  0  0  0  0  0  0  0  0  0
    6.1450  -11.7168   26.3991 C   0  0  0  0  0  0  0  0  0  0  0  0
    7.0615  -10.8843   25.8329 C   0  0  0  0  0  0  0  0  0  0  0  0
    8.1441  -11.3552   25.0872 C   0  0  0  0  0  0  0  0  0  0  0  0
    8.2438  -12.7201   24.9465 C   0  0  0  0  0  0  0  0  0  0  0  0
    7.3311  -13.5858   25.5077 C   0  0  0  0  0  0  0  0  0  0  0  0
    8.3806  -17.4149   22.9651 C   0  0  0  0  0  0  0  0  0  0  0  0
    8.9388  -18.4869   23.1942 O   0  0  0  0  0  0  0  0  0  0  0  0
    8.7152  -16.6862   21.8012 N   0  0  0  0  0  0  0  0  0  0  0  0
    9.8856  -16.9170   20.9726 C   0  0  1  0  0  0  0  0  0  0  0  0
    9.6440  -16.4313   19.6069 C   0  0  0  0  0  0  0  0  0  0  0  0
    8.4852  -17.0173   18.9109 C   0  0  0  0  0  0  0  0  0  0  0  0
    8.3103  -18.2481   18.8444 O   0  0  0  0  0  0  0  0  0  0  0  0
   11.1198  -16.4745   21.6137 C   0  0  0  0  0  0  0  0  0  0  0  0
   11.5116  -15.2971   21.4528 O   0  0  0  0  0  0  0  0  0  0  0  0
    7.5515  -16.1858   18.3082 O   0  0  0  0  0  0  0  0  0  0  0  0
   11.8662  -17.3621   22.4085 N   0  0  0  0  0  0  0  0  0  0  0  0
   13.0329  -16.9614   23.1758 C   0  0  1  0  0  0  0  0  0  0  0  0
   13.2049  -17.9522   24.3275 C   0  0  0  0  0  0  0  0  0  0  0  0
   12.0862  -17.8783   25.3106 C   0  0  0  0  0  0  0  0  0  0  0  0
   12.3097  -18.9366   26.3321 C   0  0  0  0  0  0  0  0  0  0  0  0
   13.2415  -19.7666   26.2447 O   0  0  0  0  0  0  0  0  0  0  0  0
   14.2043  -17.0555   22.2551 C   0  0  0  0  0  0  0  0  0  0  0  0
   15.3994  -16.4683   22.6138 O   0  0  0  0  0  0  0  0  0  0  0  0
   11.4590  -19.0289   27.4366 O   0  0  0  0  0  0  0  0  0  0  0  0
   14.1459  -17.6561   21.1524 O   0  0  0  0  0  0  0  0  0  0  0  0
  2  3  1  0
  2  1  1  1
  3  4  1  0
  4  5  2  0
  5  6  1  0
  7  6  1  0
  8  7  2  0
  9  8  1  0
 10 11  1  0
 10  9  2  0
 11 12  2  0
 12  4  1  0
 12  7  1  0
 13 14  2  0
 13  2  1  0
 15 13  1  0
 16 15  1  0
 16 17  1  6
 18 17  1  0
 19 18  2  0
 20 16  1  0
 20 21  2  0
 22 18  1  0
 23 20  1  0
 24 23  1  0
 24 25  1  1
 26 27  1  0
 26 25  1  0
 27 31  1  0
 28 27  2  0
 29 24  1  0
 30 29  1  0
 32 29  2  0
M  END
$$$$
