WDE.pdb
     RDKit          3D

 32 33  0  0  1  0  0  0  0  0999 V2000
    7.1956  -17.5307   23.8973 N   0  0  0  0  0  0  0  0  0  0  0  0
    8.0820  -16.5295   23.3887 C   0  0  1  0  0  0  0  0  0  0  0  0
    8.5058  -15.5626   24.4888 C   0  0  0  0  0  0  0  0  0  0  0  0
    7.3586  -14.8567   25.0989 C   0  0  0  0  0  0  0  0  0  0  0  0
    6.2133  -15.4270   25.5834 C   0  0  0  0  0  0  0  0  0  0  0  0
    5.4412  -14.4167   26.0177 N   0  0  0  0  0  0  0  0  0  0  0  0
    6.0590  -13.2331   25.8255 C   0  0  0  0  0  0  0  0  0  0  0  0
    5.6742  -11.9384   26.1051 C   0  0  0  0  0  0  0  0  0  0  0  0
    6.5116  -10.9086   25.8022 C   0  0  0  0  0  0  0  0  0  0  0  0
    7.7619  -11.1059   25.2127 C   0  0  0  0  0  0  0  0  0  0  0  0
    8.1147  -12.4086   24.9456 C   0  0  0  0  0  0  0  0  0  0  0  0
    7.2874  -13.4697   25.2406 C   0  0  0  0  0  0  0  0  0  0  0  0
    9.3300  -17.0847   22.7779 C   0  0  0  0  0  0  0  0  0  0  0  0
    9.7454  -18.2285   22.9580 O   0  0  0  0  0  0  0  0  0  0  0  0
   10.0517  -16.2012   21.9435 N   0  0  0  0  0  0  0  0  0  0  0  0
   11.4376  -16.3680   21.5420 C   0  0  1  0  0  0  0  0  0  0  0  0
   11.7709  -15.4245   20.4659 C   0  0  0  0  0  0  0  0  0  0  0  0
   13.1208  -15.5552   19.8904 C   0  0  0  0  0  0  0  0  0  0  0  0
   13.5747  -16.6533   19.5187 O   0  0  0  0  0  0  0  0  0  0  0  0
   12.3485  -16.4062   22.6816 C   0  0  0  0  0  0  0  0  0  0  0  0
   13.5783  -16.5281   22.4855 O   0  0  0  0  0  0  0  0  0  0  0  0
   13.9214  -14.4301   19.7504 O   0  0  0  0  0  0  0  0  0  0  0  0
   11.8516  -16.3059   23.9930 N   0  0  0  0  0  0  0  0  0  0  0  0
   12.6940  -16.3677   25.1748 C   0  0  1  0  0  0  0  0  0  0  0  0
   11.7854  -16.5030   26.3970 C   0  0  0  0  0  0  0  0  0  0  0  0
   12.5565  -16.5823   27.6708 C   0  0  0  0  0  0  0  0  0  0  0  0
   11.5785  -16.6807   28.7875 C   0  0  0  0  0  0  0  0  0  0  0  0
   10.6100  -17.4719   28.7627 O   0  0  0  0  0  0  0  0  0  0  0  0
   13.5351  -17.5935   25.0380 C   0  0  0  0  0  0  0  0  0  0  0  0
   12.9543  -18.7732   24.6223 O   0  0  0  0  0  0  0  0  0  0  0  0
   11.7244  -15.8676   29.9143 O   0  0  0  0  0  0  0  0  0  0  0  0
   14.7668  -17.5949   25.2890 O   0  0  0  0  0  0  0  0  0  0  0  0
  2  3  1  0
  2  1  1  1
  3  4  1  0
  4  5  2  0
  5  6  1  0
  7  6  1  0
  8  7  2  0
  9  8  1  0
 10 11  1  0
 10  9  2  0
 11 12  2  0
 12  4  1  0
 12  7  1  0
 13 14  2  0
 13  2  1  0
 15 13  1  0
 16 15  1  0
 16 17  1  6
 18 17  1  0
 19 18  2  0
 20 16  1  0
 20 21  2  0
 22 18  1  0
 23 20  1  0
 24 23  1  0
 24 25  1  1
 26 27  1  0
 26 25  1  0
 27 31  1  0
 28 27  2  0
 29 24  1  0
 30 29  1  0
 32 29  2  0
M  END
$$$$
