WDE.pdb
     RDKit          3D

 32 33  0  0  1  0  0  0  0  0999 V2000
    6.6673  -17.6875   24.5567 N   0  0  0  0  0  0  0  0  0  0  0  0
    7.5952  -16.9065   23.7979 C   0  0  1  0  0  0  0  0  0  0  0  0
    8.2196  -15.8111   24.6552 C   0  0  0  0  0  0  0  0  0  0  0  0
    7.2082  -14.9336   25.2825 C   0  0  0  0  0  0  0  0  0  0  0  0
    6.0383  -15.3280   25.8720 C   0  0  0  0  0  0  0  0  0  0  0  0
    5.4229  -14.2057   26.2812 N   0  0  0  0  0  0  0  0  0  0  0  0
    6.1629  -13.1211   25.9721 C   0  0  0  0  0  0  0  0  0  0  0  0
    5.9546  -11.7743   26.1847 C   0  0  0  0  0  0  0  0  0  0  0  0
    6.8864  -10.8758   25.7628 C   0  0  0  0  0  0  0  0  0  0  0  0
    8.0619  -11.2610   25.1151 C   0  0  0  0  0  0  0  0  0  0  0  0
    8.2384  -12.6111   24.9174 C   0  0  0  0  0  0  0  0  0  0  0  0
    7.3123  -13.5423   25.3329 C   0  0  0  0  0  0  0  0  0  0  0  0
    8.7153  -17.7057   23.2102 C   0  0  0  0  0  0  0  0  0  0  0  0
    9.1452  -18.7566   23.6836 O   0  0  0  0  0  0  0  0  0  0  0  0
    9.2913  -17.1821   22.0306 N   0  0  0  0  0  0  0  0  0  0  0  0
   10.6046  -17.5242   21.5130 C   0  0  1  0  0  0  0  0  0  0  0  0
   10.7596  -17.0120   20.1444 C   0  0  0  0  0  0  0  0  0  0  0  0
   11.9479  -17.4826   19.4117 C   0  0  0  0  0  0  0  0  0  0  0  0
   12.6213  -18.4537   19.8033 O   0  0  0  0  0  0  0  0  0  0  0  0
   11.6751  -17.2082   22.4531 C   0  0  0  0  0  0  0  0  0  0  0  0
   12.0857  -16.0301   22.5484 O   0  0  0  0  0  0  0  0  0  0  0  0
   12.3400  -16.8357   18.2479 O   0  0  0  0  0  0  0  0  0  0  0  0
   12.2436  -18.2180   23.2493 N   0  0  0  0  0  0  0  0  0  0  0  0
   13.3074  -17.9768   24.2087 C   0  0  1  0  0  0  0  0  0  0  0  0
   13.0595  -18.8700   25.4246 C   0  0  0  0  0  0  0  0  0  0  0  0
   11.7539  -18.5803   26.0840 C   0  0  0  0  0  0  0  0  0  0  0  0
   11.5591  -19.5843   27.1645 C   0  0  0  0  0  0  0  0  0  0  0  0
   10.9249  -20.6474   26.9854 O   0  0  0  0  0  0  0  0  0  0  0  0
   14.5827  -18.3779   23.5444 C   0  0  0  0  0  0  0  0  0  0  0  0
   15.7865  -18.0772   24.1465 O   0  0  0  0  0  0  0  0  0  0  0  0
   12.0920  -19.3520   28.4350 O   0  0  0  0  0  0  0  0  0  0  0  0
   14.6052  -18.9868   22.4449 O   0  0  0  0  0  0  0  0  0  0  0  0
  2  3  1  0
  2  1  1  1
  3  4  1  0
  4  5  2  0
  5  6  1  0
  7  6  1  0
  8  7  2  0
  9  8  1  0
 10 11  1  0
 10  9  2  0
 11 12  2  0
 12  4  1  0
 12  7  1  0
 13 14  2  0
 13  2  1  0
 15 13  1  0
 16 15  1  0
 16 17  1  6
 18 17  1  0
 19 18  2  0
 20 16  1  0
 20 21  2  0
 22 18  1  0
 23 20  1  0
 24 23  1  0
 24 25  1  1
 26 27  1  0
 26 25  1  0
 27 31  1  0
 28 27  2  0
 29 24  1  0
 30 29  1  0
 32 29  2  0
M  END
$$$$
