WDE.pdb
     RDKit          3D

 32 33  0  0  1  0  0  0  0  0999 V2000
    6.8213  -17.6229   24.3538 N   0  0  0  0  0  0  0  0  0  0  0  0
    7.9143  -16.7942   23.9473 C   0  0  1  0  0  0  0  0  0  0  0  0
    8.3783  -15.8988   25.0909 C   0  0  0  0  0  0  0  0  0  0  0  0
    7.3204  -14.9768   25.5569 C   0  0  0  0  0  0  0  0  0  0  0  0
    6.0513  -15.3168   25.9384 C   0  0  0  0  0  0  0  0  0  0  0  0
    5.4314  -14.1684   26.2588 N   0  0  0  0  0  0  0  0  0  0  0  0
    6.2639  -13.1199   26.0941 C   0  0  0  0  0  0  0  0  0  0  0  0
    6.0884  -11.7662   26.2917 C   0  0  0  0  0  0  0  0  0  0  0  0
    7.1195  -10.9121   26.0445 C   0  0  0  0  0  0  0  0  0  0  0  0
    8.3661  -11.3506   25.5936 C   0  0  0  0  0  0  0  0  0  0  0  0
    8.5076  -12.7061   25.4055 C   0  0  0  0  0  0  0  0  0  0  0  0
    7.4817  -13.5930   25.6468 C   0  0  0  0  0  0  0  0  0  0  0  0
    9.1067  -17.5619   23.4701 C   0  0  0  0  0  0  0  0  0  0  0  0
    9.4244  -18.6792   23.8751 O   0  0  0  0  0  0  0  0  0  0  0  0
    9.8955  -16.9236   22.4864 N   0  0  0  0  0  0  0  0  0  0  0  0
   11.2720  -17.2581   22.1656 C   0  0  1  0  0  0  0  0  0  0  0  0
   11.6640  -16.6302   20.8961 C   0  0  0  0  0  0  0  0  0  0  0  0
   12.9718  -17.0371   20.3534 C   0  0  0  0  0  0  0  0  0  0  0  0
   14.0337  -16.8301   20.9694 O   0  0  0  0  0  0  0  0  0  0  0  0
   12.1729  -17.0607   23.2966 C   0  0  0  0  0  0  0  0  0  0  0  0
   12.5972  -15.9124   23.5553 O   0  0  0  0  0  0  0  0  0  0  0  0
   13.0383  -17.6724   19.1212 O   0  0  0  0  0  0  0  0  0  0  0  0
   12.5631  -18.1511   24.0938 N   0  0  0  0  0  0  0  0  0  0  0  0
   13.4913  -18.0379   25.2056 C   0  0  1  0  0  0  0  0  0  0  0  0
   12.7069  -18.2518   26.5004 C   0  0  0  0  0  0  0  0  0  0  0  0
   11.6138  -19.2535   26.3422 C   0  0  0  0  0  0  0  0  0  0  0  0
   11.0108  -19.4822   27.6828 C   0  0  0  0  0  0  0  0  0  0  0  0
   11.6993  -19.7638   28.6884 O   0  0  0  0  0  0  0  0  0  0  0  0
   14.4933  -19.1322   25.0405 C   0  0  0  0  0  0  0  0  0  0  0  0
   15.5775  -19.1948   25.8906 O   0  0  0  0  0  0  0  0  0  0  0  0
    9.6268  -19.3875   27.8490 O   0  0  0  0  0  0  0  0  0  0  0  0
   14.3882  -20.0107   24.1475 O   0  0  0  0  0  0  0  0  0  0  0  0
  2  3  1  0
  2  1  1  1
  3  4  1  0
  4  5  2  0
  5  6  1  0
  7  6  1  0
  8  7  2  0
  9  8  1  0
 10 11  1  0
 10  9  2  0
 11 12  2  0
 12  4  1  0
 12  7  1  0
 13 14  2  0
 13  2  1  0
 15 13  1  0
 16 15  1  0
 16 17  1  6
 18 17  1  0
 19 18  2  0
 20 16  1  0
 20 21  2  0
 22 18  1  0
 23 20  1  0
 24 23  1  0
 24 25  1  1
 26 27  1  0
 26 25  1  0
 27 31  1  0
 28 27  2  0
 29 24  1  0
 30 29  1  0
 32 29  2  0
M  END
$$$$
