WDE.pdb
     RDKit          3D

 32 33  0  0  1  0  0  0  0  0999 V2000
    7.7000  -17.2779   23.8218 N   0  0  0  0  0  0  0  0  0  0  0  0
    7.4879  -16.6234   22.5675 C   0  0  1  0  0  0  0  0  0  0  0  0
    7.0189  -15.1869   22.7711 C   0  0  0  0  0  0  0  0  0  0  0  0
    6.7813  -14.8622   24.1939 C   0  0  0  0  0  0  0  0  0  0  0  0
    6.2630  -15.6967   25.1461 C   0  0  0  0  0  0  0  0  0  0  0  0
    6.2007  -14.9826   26.2826 N   0  0  0  0  0  0  0  0  0  0  0  0
    6.6616  -13.7310   26.0806 C   0  0  0  0  0  0  0  0  0  0  0  0
    6.7949  -12.6517   26.9288 C   0  0  0  0  0  0  0  0  0  0  0  0
    7.3029  -11.4818   26.4525 C   0  0  0  0  0  0  0  0  0  0  0  0
    7.7019  -11.3221   25.1240 C   0  0  0  0  0  0  0  0  0  0  0  0
    7.5546  -12.4171   24.3041 C   0  0  0  0  0  0  0  0  0  0  0  0
    7.0431  -13.6126   24.7586 C   0  0  0  0  0  0  0  0  0  0  0  0
    8.7059  -16.5760   21.6997 C   0  0  0  0  0  0  0  0  0  0  0  0
    8.7207  -16.1637   20.5408 O   0  0  0  0  0  0  0  0  0  0  0  0
    9.9004  -17.0468   22.2904 N   0  0  0  0  0  0  0  0  0  0  0  0
   11.2239  -16.9529   21.6996 C   0  0  1  0  0  0  0  0  0  0  0  0
   11.1995  -16.0483   20.5418 C   0  0  0  0  0  0  0  0  0  0  0  0
   11.1999  -16.6961   19.2187 C   0  0  0  0  0  0  0  0  0  0  0  0
   12.2303  -16.7751   18.5244 O   0  0  0  0  0  0  0  0  0  0  0  0
   12.2638  -16.7113   22.6946 C   0  0  0  0  0  0  0  0  0  0  0  0
   13.4465  -16.5414   22.3232 O   0  0  0  0  0  0  0  0  0  0  0  0
   10.0253  -17.2405   18.7183 O   0  0  0  0  0  0  0  0  0  0  0  0
   11.9428  -16.6680   24.0627 N   0  0  0  0  0  0  0  0  0  0  0  0
   12.8182  -17.1730   25.1064 C   0  0  1  0  0  0  0  0  0  0  0  0
   11.9635  -17.9578   26.1021 C   0  0  0  0  0  0  0  0  0  0  0  0
   12.7901  -18.7336   27.0706 C   0  0  0  0  0  0  0  0  0  0  0  0
   11.8622  -19.4705   27.9703 C   0  0  0  0  0  0  0  0  0  0  0  0
   10.8877  -18.9178   28.5265 O   0  0  0  0  0  0  0  0  0  0  0  0
   13.7880  -18.0943   24.4438 C   0  0  0  0  0  0  0  0  0  0  0  0
   13.3204  -19.0866   23.6079 O   0  0  0  0  0  0  0  0  0  0  0  0
   12.0681  -20.8295   28.2207 O   0  0  0  0  0  0  0  0  0  0  0  0
   15.0295  -18.0019   24.6180 O   0  0  0  0  0  0  0  0  0  0  0  0
  2  3  1  0
  2  1  1  1
  3  4  1  0
  4  5  2  0
  5  6  1  0
  7  6  1  0
  8  7  2  0
  9  8  1  0
 10 11  1  0
 10  9  2  0
 11 12  2  0
 12  4  1  0
 12  7  1  0
 13 14  2  0
 13  2  1  0
 15 13  1  0
 16 15  1  0
 16 17  1  6
 18 17  1  0
 19 18  2  0
 20 16  1  0
 20 21  2  0
 22 18  1  0
 23 20  1  0
 24 23  1  0
 24 25  1  1
 26 27  1  0
 26 25  1  0
 27 31  1  0
 28 27  2  0
 29 24  1  0
 30 29  1  0
 32 29  2  0
M  END
$$$$
