WDE.pdb
     RDKit          3D

 32 33  0  0  1  0  0  0  0  0999 V2000
    6.7474  -17.7901   24.8415 N   0  0  0  0  0  0  0  0  0  0  0  0
    7.6203  -16.9893   24.0394 C   0  0  1  0  0  0  0  0  0  0  0  0
    8.3787  -15.9802   24.8945 C   0  0  0  0  0  0  0  0  0  0  0  0
    7.4778  -15.0921   25.6602 C   0  0  0  0  0  0  0  0  0  0  0  0
    6.2929  -15.4419   26.2479 C   0  0  0  0  0  0  0  0  0  0  0  0
    5.8035  -14.3233   26.8090 N   0  0  0  0  0  0  0  0  0  0  0  0
    6.6370  -13.2842   26.5969 C   0  0  0  0  0  0  0  0  0  0  0  0
    6.5687  -11.9587   26.9721 C   0  0  0  0  0  0  0  0  0  0  0  0
    7.5713  -11.1081   26.6187 C   0  0  0  0  0  0  0  0  0  0  0  0
    8.6832  -11.5226   25.8828 C   0  0  0  0  0  0  0  0  0  0  0  0
    8.7200  -12.8501   25.5234 C   0  0  0  0  0  0  0  0  0  0  0  0
    7.7197  -13.7328   25.8665 C   0  0  0  0  0  0  0  0  0  0  0  0
    8.6362  -17.7825   23.2794 C   0  0  0  0  0  0  0  0  0  0  0  0
    8.8933  -18.9675   23.4871 O   0  0  0  0  0  0  0  0  0  0  0  0
    9.3255  -17.0847   22.2619 N   0  0  0  0  0  0  0  0  0  0  0  0
   10.3458  -17.6512   21.3972 C   0  0  1  0  0  0  0  0  0  0  0  0
   10.3370  -16.9756   20.0922 C   0  0  0  0  0  0  0  0  0  0  0  0
    9.3592  -17.4803   19.1127 C   0  0  0  0  0  0  0  0  0  0  0  0
    8.6725  -18.4956   19.3308 O   0  0  0  0  0  0  0  0  0  0  0  0
   11.6395  -17.7685   22.0624 C   0  0  0  0  0  0  0  0  0  0  0  0
   12.5890  -18.3302   21.4720 O   0  0  0  0  0  0  0  0  0  0  0  0
    9.1859  -16.8145   17.9072 O   0  0  0  0  0  0  0  0  0  0  0  0
   11.8222  -17.2540   23.3580 N   0  0  0  0  0  0  0  0  0  0  0  0
   13.0654  -17.3766   24.0997 C   0  0  1  0  0  0  0  0  0  0  0  0
   13.8520  -16.0775   23.9225 C   0  0  0  0  0  0  0  0  0  0  0  0
   14.3512  -15.9027   22.5284 C   0  0  0  0  0  0  0  0  0  0  0  0
   15.6725  -15.2228   22.6018 C   0  0  0  0  0  0  0  0  0  0  0  0
   16.5352  -15.5247   23.4557 O   0  0  0  0  0  0  0  0  0  0  0  0
   12.6930  -17.5446   25.5355 C   0  0  0  0  0  0  0  0  0  0  0  0
   11.3737  -17.4137   25.9153 O   0  0  0  0  0  0  0  0  0  0  0  0
   15.9827  -14.2047   21.6967 O   0  0  0  0  0  0  0  0  0  0  0  0
   13.5431  -17.8042   26.4244 O   0  0  0  0  0  0  0  0  0  0  0  0
  2  3  1  0
  2  1  1  1
  3  4  1  0
  4  5  2  0
  5  6  1  0
  7  6  1  0
  8  7  2  0
  9  8  1  0
 10 11  1  0
 10  9  2  0
 11 12  2  0
 12  4  1  0
 12  7  1  0
 13 14  2  0
 13  2  1  0
 15 13  1  0
 16 15  1  0
 16 17  1  6
 18 17  1  0
 19 18  2  0
 20 16  1  0
 20 21  2  0
 22 18  1  0
 23 20  1  0
 24 23  1  0
 24 25  1  1
 26 27  1  0
 26 25  1  0
 27 31  1  0
 28 27  2  0
 29 24  1  0
 30 29  1  0
 32 29  2  0
M  END
$$$$
