WDE.pdb
     RDKit          3D

 32 33  0  0  1  0  0  0  0  0999 V2000
    6.2140  -17.4038   23.7160 N   0  0  0  0  0  0  0  0  0  0  0  0
    7.2554  -16.6337   23.1083 C   0  0  1  0  0  0  0  0  0  0  0  0
    8.0946  -15.9189   24.1617 C   0  0  0  0  0  0  0  0  0  0  0  0
    7.2690  -15.1907   25.1489 C   0  0  0  0  0  0  0  0  0  0  0  0
    6.3742  -15.7384   26.0271 C   0  0  0  0  0  0  0  0  0  0  0  0
    5.8375  -14.7131   26.7101 N   0  0  0  0  0  0  0  0  0  0  0  0
    6.3625  -13.5420   26.2948 C   0  0  0  0  0  0  0  0  0  0  0  0
    6.1335  -12.2402   26.6887 C   0  0  0  0  0  0  0  0  0  0  0  0
    6.8184  -11.2271   26.0903 C   0  0  0  0  0  0  0  0  0  0  0  0
    7.7571  -11.4489   25.0807 C   0  0  0  0  0  0  0  0  0  0  0  0
    7.9609  -12.7582   24.7103 C   0  0  0  0  0  0  0  0  0  0  0  0
    7.2818  -13.8027   25.2978 C   0  0  0  0  0  0  0  0  0  0  0  0
    8.1909  -17.4441   22.2675 C   0  0  0  0  0  0  0  0  0  0  0  0
    7.8777  -18.4721   21.6689 O   0  0  0  0  0  0  0  0  0  0  0  0
    9.5161  -16.9604   22.1817 N   0  0  0  0  0  0  0  0  0  0  0  0
   10.1977  -16.5898   20.9538 C   0  0  1  0  0  0  0  0  0  0  0  0
    9.2750  -15.8825   20.0551 C   0  0  0  0  0  0  0  0  0  0  0  0
    8.7794  -16.6554   18.9029 C   0  0  0  0  0  0  0  0  0  0  0  0
    9.5220  -17.4096   18.2474 O   0  0  0  0  0  0  0  0  0  0  0  0
   11.4860  -15.9503   21.2012 C   0  0  0  0  0  0  0  0  0  0  0  0
   11.6502  -14.7502   20.8876 O   0  0  0  0  0  0  0  0  0  0  0  0
    7.4477  -16.5518   18.5258 O   0  0  0  0  0  0  0  0  0  0  0  0
   12.5381  -16.6743   21.7890 N   0  0  0  0  0  0  0  0  0  0  0  0
   12.9465  -16.5106   23.1736 C   0  0  1  0  0  0  0  0  0  0  0  0
   11.8313  -17.0599   24.0638 C   0  0  0  0  0  0  0  0  0  0  0  0
   12.1472  -16.9273   25.5150 C   0  0  0  0  0  0  0  0  0  0  0  0
   11.0218  -17.5278   26.2806 C   0  0  0  0  0  0  0  0  0  0  0  0
   10.1761  -18.2809   25.7496 O   0  0  0  0  0  0  0  0  0  0  0  0
   14.1816  -17.3290   23.3557 C   0  0  0  0  0  0  0  0  0  0  0  0
   14.2059  -18.6323   22.9052 O   0  0  0  0  0  0  0  0  0  0  0  0
   10.8819  -17.2526   27.6433 O   0  0  0  0  0  0  0  0  0  0  0  0
   15.2140  -16.8736   23.9096 O   0  0  0  0  0  0  0  0  0  0  0  0
  2  3  1  0
  2  1  1  1
  3  4  1  0
  4  5  2  0
  5  6  1  0
  7  6  1  0
  8  7  2  0
  9  8  1  0
 10 11  1  0
 10  9  2  0
 11 12  2  0
 12  4  1  0
 12  7  1  0
 13 14  2  0
 13  2  1  0
 15 13  1  0
 16 15  1  0
 16 17  1  1
 18 17  1  0
 19 18  2  0
 20 16  1  0
 20 21  2  0
 22 18  1  0
 23 20  1  0
 24 23  1  0
 24 25  1  1
 26 27  1  0
 26 25  1  0
 27 31  1  0
 28 27  2  0
 29 24  1  0
 30 29  1  0
 32 29  2  0
M  END
$$$$
