WDE.pdb
     RDKit          3D

 32 33  0  0  1  0  0  0  0  0999 V2000
    7.1042  -16.7477   22.9437 N   0  0  0  0  0  0  0  0  0  0  0  0
    8.4069  -16.5202   23.4895 C   0  0  1  0  0  0  0  0  0  0  0  0
    8.3358  -16.2697   24.9918 C   0  0  0  0  0  0  0  0  0  0  0  0
    7.3177  -15.2599   25.3527 C   0  0  0  0  0  0  0  0  0  0  0  0
    6.0002  -15.4946   25.6369 C   0  0  0  0  0  0  0  0  0  0  0  0
    5.4463  -14.2955   25.8837 N   0  0  0  0  0  0  0  0  0  0  0  0
    6.3667  -13.3163   25.7664 C   0  0  0  0  0  0  0  0  0  0  0  0
    6.2798  -11.9487   25.9227 C   0  0  0  0  0  0  0  0  0  0  0  0
    7.3893  -11.1804   25.7431 C   0  0  0  0  0  0  0  0  0  0  0  0
    8.6306  -11.7218   25.4030 C   0  0  0  0  0  0  0  0  0  0  0  0
    8.6829  -13.0884   25.2534 C   0  0  0  0  0  0  0  0  0  0  0  0
    7.5764  -13.8901   25.4283 C   0  0  0  0  0  0  0  0  0  0  0  0
    9.3576  -17.6549   23.2712 C   0  0  0  0  0  0  0  0  0  0  0  0
    9.1112  -18.6499   22.5910 O   0  0  0  0  0  0  0  0  0  0  0  0
   10.6137  -17.5358   23.9079 N   0  0  0  0  0  0  0  0  0  0  0  0
   11.9032  -17.7075   23.2617 C   0  0  1  0  0  0  0  0  0  0  0  0
   11.9589  -16.9185   22.0232 C   0  0  0  0  0  0  0  0  0  0  0  0
   13.1753  -17.0839   21.2087 C   0  0  0  0  0  0  0  0  0  0  0  0
   13.5154  -18.1902   20.7502 O   0  0  0  0  0  0  0  0  0  0  0  0
   13.0185  -17.5459   24.1889 C   0  0  0  0  0  0  0  0  0  0  0  0
   14.1908  -17.6896   23.7759 O   0  0  0  0  0  0  0  0  0  0  0  0
   13.9751  -15.9832   20.9345 O   0  0  0  0  0  0  0  0  0  0  0  0
   12.7815  -17.2297   25.5382 N   0  0  0  0  0  0  0  0  0  0  0  0
   13.6547  -17.6446   26.6225 C   0  0  1  0  0  0  0  0  0  0  0  0
   12.7955  -18.3273   27.6871 C   0  0  0  0  0  0  0  0  0  0  0  0
   12.2287  -19.6225   27.2132 C   0  0  0  0  0  0  0  0  0  0  0  0
   11.4991  -20.2420   28.3521 C   0  0  0  0  0  0  0  0  0  0  0  0
   10.9094  -21.3405   28.2526 O   0  0  0  0  0  0  0  0  0  0  0  0
   14.6152  -18.6312   26.0458 C   0  0  0  0  0  0  0  0  0  0  0  0
   14.1634  -19.5727   25.1450 O   0  0  0  0  0  0  0  0  0  0  0  0
   11.4544  -19.5902   29.5872 O   0  0  0  0  0  0  0  0  0  0  0  0
   15.8346  -18.6394   26.3508 O   0  0  0  0  0  0  0  0  0  0  0  0
  2  3  1  0
  2  1  1  1
  3  4  1  0
  4  5  2  0
  5  6  1  0
  7  6  1  0
  8  7  2  0
  9  8  1  0
 10 11  1  0
 10  9  2  0
 11 12  2  0
 12  4  1  0
 12  7  1  0
 13 14  2  0
 13  2  1  0
 15 13  1  0
 16 15  1  0
 16 17  1  6
 18 17  1  0
 19 18  2  0
 20 16  1  0
 20 21  2  0
 22 18  1  0
 23 20  1  0
 24 23  1  0
 24 25  1  1
 26 27  1  0
 26 25  1  0
 27 31  1  0
 28 27  2  0
 29 24  1  0
 30 29  1  0
 32 29  2  0
M  END
$$$$
