WDE.pdb
     RDKit          3D

 32 33  0  0  1  0  0  0  0  0999 V2000
    6.6756  -18.4284   24.7152 N   0  0  0  0  0  0  0  0  0  0  0  0
    7.3652  -17.3132   24.1430 C   0  0  1  0  0  0  0  0  0  0  0  0
    7.9684  -16.4268   25.2271 C   0  0  0  0  0  0  0  0  0  0  0  0
    7.0354  -15.3761   25.6875 C   0  0  0  0  0  0  0  0  0  0  0  0
    5.8327  -15.5686   26.3106 C   0  0  0  0  0  0  0  0  0  0  0  0
    5.3166  -14.3464   26.5240 N   0  0  0  0  0  0  0  0  0  0  0  0
    6.1505  -13.3933   26.0594 C   0  0  0  0  0  0  0  0  0  0  0  0
    6.0605  -12.0170   26.0505 C   0  0  0  0  0  0  0  0  0  0  0  0
    7.0695  -11.2815   25.5079 C   0  0  0  0  0  0  0  0  0  0  0  0
    8.2094  -11.8655   24.9517 C   0  0  0  0  0  0  0  0  0  0  0  0
    8.2673  -13.2399   24.9753 C   0  0  0  0  0  0  0  0  0  0  0  0
    7.2612  -14.0091   25.5170 C   0  0  0  0  0  0  0  0  0  0  0  0
    8.4741  -17.7020   23.2167 C   0  0  0  0  0  0  0  0  0  0  0  0
    9.0720  -18.7763   23.2571 O   0  0  0  0  0  0  0  0  0  0  0  0
    8.8280  -16.7401   22.2435 N   0  0  0  0  0  0  0  0  0  0  0  0
    9.9393  -16.8534   21.3151 C   0  0  1  0  0  0  0  0  0  0  0  0
    9.6607  -16.0844   20.0943 C   0  0  0  0  0  0  0  0  0  0  0  0
   10.6511  -16.2145   19.0115 C   0  0  0  0  0  0  0  0  0  0  0  0
   11.5592  -17.0653   19.0483 O   0  0  0  0  0  0  0  0  0  0  0  0
   11.2288  -16.6157   21.9559 C   0  0  0  0  0  0  0  0  0  0  0  0
   12.2688  -16.5909   21.2606 O   0  0  0  0  0  0  0  0  0  0  0  0
   10.5820  -15.3722   17.9104 O   0  0  0  0  0  0  0  0  0  0  0  0
   11.3063  -16.4144   23.3452 N   0  0  0  0  0  0  0  0  0  0  0  0
   12.5537  -16.1779   24.0511 C   0  0  1  0  0  0  0  0  0  0  0  0
   12.2626  -16.2152   25.5517 C   0  0  0  0  0  0  0  0  0  0  0  0
   11.7361  -17.5382   25.9943 C   0  0  0  0  0  0  0  0  0  0  0  0
   11.5645  -17.4868   27.4711 C   0  0  0  0  0  0  0  0  0  0  0  0
   11.8696  -18.4447   28.2153 O   0  0  0  0  0  0  0  0  0  0  0  0
   13.4696  -17.3003   23.6907 C   0  0  0  0  0  0  0  0  0  0  0  0
   12.9506  -18.4462   23.1255 O   0  0  0  0  0  0  0  0  0  0  0  0
   11.0423  -16.3384   28.0717 O   0  0  0  0  0  0  0  0  0  0  0  0
   14.7105  -17.2434   23.8831 O   0  0  0  0  0  0  0  0  0  0  0  0
  2  3  1  0
  2  1  1  1
  3  4  1  0
  4  5  2  0
  5  6  1  0
  7  6  1  0
  8  7  2  0
  9  8  1  0
 10 11  1  0
 10  9  2  0
 11 12  2  0
 12  4  1  0
 12  7  1  0
 13 14  2  0
 13  2  1  0
 15 13  1  0
 16 15  1  0
 16 17  1  6
 18 17  1  0
 19 18  2  0
 20 16  1  0
 20 21  2  0
 22 18  1  0
 23 20  1  0
 24 23  1  0
 24 25  1  1
 26 27  1  0
 26 25  1  0
 27 31  1  0
 28 27  2  0
 29 24  1  0
 30 29  1  0
 32 29  2  0
M  END
$$$$
