EDA.pdb
     RDKit          3D

 23 22  0  0  1  0  0  0  0  0999 V2000
   18.0168  -12.6761  -16.8037 N   0  0  0  0  0  0  0  0  0  0  0  0
   19.2557  -11.9901  -16.3616 C   0  0  1  0  0  0  0  0  0  0  0  0
   20.3472  -12.5566  -17.1714 C   0  0  0  0  0  0  0  0  0  0  0  0
   20.0731  -13.7574  -18.0082 C   0  0  0  0  0  0  0  0  0  0  0  0
   20.8978  -14.9361  -17.7322 C   0  0  0  0  0  0  0  0  0  0  0  0
   22.1404  -14.9203  -17.6015 O   0  0  0  0  0  0  0  0  0  0  0  0
   19.0060  -10.5768  -16.3113 C   0  0  0  0  0  0  0  0  0  0  0  0
   18.4117   -9.9613  -17.2670 O   0  0  0  0  0  0  0  0  0  0  0  0
   20.2182  -16.1692  -17.6087 O   0  0  0  0  0  0  0  0  0  0  0  0
   19.3767   -9.7119  -15.2135 N   0  0  0  0  0  0  0  0  0  0  0  0
   19.1473   -8.2925  -15.2526 C   0  0  1  0  0  0  0  0  0  0  0  0
   18.2115   -7.9350  -14.1209 C   0  0  0  0  0  0  0  0  0  0  0  0
   16.8604   -8.4677  -14.2480 C   0  0  0  0  0  0  0  0  0  0  0  0
   16.2813   -8.8951  -13.2193 O   0  0  0  0  0  0  0  0  0  0  0  0
   20.4076   -7.5125  -15.1047 C   0  0  0  0  0  0  0  0  0  0  0  0
   21.3472   -7.9716  -14.4058 O   0  0  0  0  0  0  0  0  0  0  0  0
   16.1661   -8.5339  -15.4438 O   0  0  0  0  0  0  0  0  0  0  0  0
   21.8940   -4.3757  -16.6402 C   0  0  0  0  0  0  0  0  0  0  0  0
   21.8129   -5.4875  -15.6557 C   0  0  2  0  0  0  0  0  0  0  0  0
   20.6108   -6.2572  -15.7193 N   0  0  0  0  0  0  0  0  0  0  0  0
   22.0653   -5.0486  -14.2659 C   0  0  0  0  0  0  0  0  0  0  0  0
   23.3247   -4.6107  -13.9163 O   0  0  0  0  0  0  0  0  0  0  0  0
   21.1317   -5.0817  -13.4290 O   0  0  0  0  0  0  0  0  0  0  0  0
  2  1  1  6
  2  3  1  0
  3  4  1  0
  4  5  1  0
  5  6  2  0
  5  9  1  0
  7 10  1  0
  7  2  1  0
  8  7  2  0
 11 10  1  0
 11 15  1  0
 11 12  1  1
 13 14  2  0
 13 12  1  0
 15 20  1  0
 16 15  2  0
 17 13  1  0
 19 18  1  6
 19 21  1  0
 20 19  1  0
 21 23  2  0
 21 22  1  0
M  END
$$$$
