EDA.pdb
     RDKit          3D

 23 22  0  0  1  0  0  0  0  0999 V2000
   18.3356  -11.5002  -14.9382 N   0  0  0  0  0  0  0  0  0  0  0  0
   18.2796  -10.3331  -15.8523 C   0  0  1  0  0  0  0  0  0  0  0  0
   17.0176  -10.4605  -16.6002 C   0  0  0  0  0  0  0  0  0  0  0  0
   16.8290  -11.6336  -17.4977 C   0  0  0  0  0  0  0  0  0  0  0  0
   15.5369  -11.7192  -18.1822 C   0  0  0  0  0  0  0  0  0  0  0  0
   15.2967  -11.2407  -19.3113 O   0  0  0  0  0  0  0  0  0  0  0  0
   18.6006   -9.1487  -15.1064 C   0  0  0  0  0  0  0  0  0  0  0  0
   18.0914   -8.9187  -13.9519 O   0  0  0  0  0  0  0  0  0  0  0  0
   14.5018  -12.3962  -17.4981 O   0  0  0  0  0  0  0  0  0  0  0  0
   19.5085   -8.1146  -15.5505 N   0  0  0  0  0  0  0  0  0  0  0  0
   19.7420   -6.9242  -14.7776 C   0  0  1  0  0  0  0  0  0  0  0  0
   21.2143   -6.8614  -14.4421 C   0  0  0  0  0  0  0  0  0  0  0  0
   21.6200   -5.6944  -13.6682 C   0  0  0  0  0  0  0  0  0  0  0  0
   21.1148   -4.5797  -13.9482 O   0  0  0  0  0  0  0  0  0  0  0  0
   19.3593   -5.6881  -15.5151 C   0  0  0  0  0  0  0  0  0  0  0  0
   19.8936   -5.4329  -16.6248 O   0  0  0  0  0  0  0  0  0  0  0  0
   22.5374   -5.7359  -12.6323 O   0  0  0  0  0  0  0  0  0  0  0  0
   16.6198   -3.0990  -15.2699 C   0  0  0  0  0  0  0  0  0  0  0  0
   17.9420   -3.6079  -15.7224 C   0  0  2  0  0  0  0  0  0  0  0  0
   18.4083   -4.7652  -15.0263 N   0  0  0  0  0  0  0  0  0  0  0  0
   18.9894   -2.5636  -15.7364 C   0  0  0  0  0  0  0  0  0  0  0  0
   19.9848   -2.5954  -14.7835 O   0  0  0  0  0  0  0  0  0  0  0  0
   18.9555   -1.6671  -16.6130 O   0  0  0  0  0  0  0  0  0  0  0  0
  2  1  1  1
  2  3  1  0
  3  4  1  0
  4  5  1  0
  5  6  2  0
  5  9  1  0
  7 10  1  0
  7  2  1  0
  8  7  2  0
 11 10  1  0
 11 15  1  0
 11 12  1  6
 13 14  2  0
 13 12  1  0
 15 20  1  0
 16 15  2  0
 17 13  1  0
 19 18  1  1
 19 21  1  0
 20 19  1  0
 21 23  2  0
 21 22  1  0
M  END
$$$$
