EDA.pdb
     RDKit          3D

 23 22  0  0  1  0  0  0  0  0999 V2000
   20.5471  -10.1251  -16.5355 N   0  0  0  0  0  0  0  0  0  0  0  0
   19.2967   -9.6822  -15.8712 C   0  0  1  0  0  0  0  0  0  0  0  0
   18.9683  -10.7235  -14.8833 C   0  0  0  0  0  0  0  0  0  0  0  0
   18.6119  -12.0861  -15.3665 C   0  0  0  0  0  0  0  0  0  0  0  0
   17.1812  -12.3612  -15.5188 C   0  0  0  0  0  0  0  0  0  0  0  0
   16.5375  -13.1826  -14.8314 O   0  0  0  0  0  0  0  0  0  0  0  0
   19.4380   -8.3027  -15.4978 C   0  0  0  0  0  0  0  0  0  0  0  0
   18.5093   -7.6724  -14.8769 O   0  0  0  0  0  0  0  0  0  0  0  0
   16.5000  -11.6339  -16.5210 O   0  0  0  0  0  0  0  0  0  0  0  0
   20.6052   -7.4914  -15.7629 N   0  0  0  0  0  0  0  0  0  0  0  0
   20.6396   -6.0861  -15.4585 C   0  0  1  0  0  0  0  0  0  0  0  0
   22.0159   -5.7519  -14.9307 C   0  0  0  0  0  0  0  0  0  0  0  0
   22.2253   -6.0576  -13.5207 C   0  0  0  0  0  0  0  0  0  0  0  0
   22.7129   -7.1724  -13.2113 O   0  0  0  0  0  0  0  0  0  0  0  0
   20.3603   -5.2424  -16.6537 C   0  0  0  0  0  0  0  0  0  0  0  0
   20.9631   -5.4713  -17.7337 O   0  0  0  0  0  0  0  0  0  0  0  0
   21.9176   -5.1882  -12.4884 O   0  0  0  0  0  0  0  0  0  0  0  0
   17.8093   -2.6108  -17.6129 C   0  0  0  0  0  0  0  0  0  0  0  0
   19.0731   -3.3787  -17.7711 C   0  0  2  0  0  0  0  0  0  0  0  0
   19.4353   -4.1750  -16.6416 N   0  0  0  0  0  0  0  0  0  0  0  0
   20.2139   -2.5346  -18.1880 C   0  0  0  0  0  0  0  0  0  0  0  0
   20.4603   -2.3513  -19.5317 O   0  0  0  0  0  0  0  0  0  0  0  0
   20.9380   -2.0002  -17.3143 O   0  0  0  0  0  0  0  0  0  0  0  0
  2  1  1  1
  2  3  1  0
  3  4  1  0
  4  5  1  0
  5  6  2  0
  5  9  1  0
  7 10  1  0
  7  2  1  0
  8  7  2  0
 11 10  1  0
 11 15  1  0
 11 12  1  6
 13 14  2  0
 13 12  1  0
 15 20  1  0
 16 15  2  0
 17 13  1  0
 19 18  1  1
 19 21  1  0
 20 19  1  0
 21 23  2  0
 21 22  1  0
M  END
$$$$
