EDA.pdb
     RDKit          3D

 23 22  0  0  1  0  0  0  0  0999 V2000
   18.7441  -10.9889  -16.6244 N   0  0  0  0  0  0  0  0  0  0  0  0
   18.8102   -9.7290  -17.4048 C   0  0  1  0  0  0  0  0  0  0  0  0
   17.6248   -9.7270  -18.2782 C   0  0  0  0  0  0  0  0  0  0  0  0
   17.5147  -10.7620  -19.3432 C   0  0  0  0  0  0  0  0  0  0  0  0
   16.3525  -10.6539  -20.2281 C   0  0  0  0  0  0  0  0  0  0  0  0
   15.4442   -9.8040  -20.1091 O   0  0  0  0  0  0  0  0  0  0  0  0
   19.0888   -8.6447  -16.5053 C   0  0  0  0  0  0  0  0  0  0  0  0
   18.4268   -8.4811  -15.4190 O   0  0  0  0  0  0  0  0  0  0  0  0
   16.2733  -11.5879  -21.2859 O   0  0  0  0  0  0  0  0  0  0  0  0
   20.1164   -7.6478  -16.7079 N   0  0  0  0  0  0  0  0  0  0  0  0
   20.3537   -6.5959  -15.7561 C   0  0  1  0  0  0  0  0  0  0  0  0
   21.7023   -6.8343  -15.1167 C   0  0  0  0  0  0  0  0  0  0  0  0
   21.7585   -7.9694  -14.2036 C   0  0  0  0  0  0  0  0  0  0  0  0
   21.0778   -7.9297  -13.1494 O   0  0  0  0  0  0  0  0  0  0  0  0
   20.3491   -5.2484  -16.3907 C   0  0  0  0  0  0  0  0  0  0  0  0
   20.9273   -5.0766  -17.4945 O   0  0  0  0  0  0  0  0  0  0  0  0
   22.5231   -9.1017  -14.4259 O   0  0  0  0  0  0  0  0  0  0  0  0
   18.5127   -1.9868  -15.8519 C   0  0  0  0  0  0  0  0  0  0  0  0
   19.5965   -2.8376  -16.4118 C   0  0  2  0  0  0  0  0  0  0  0  0
   19.7174   -4.1272  -15.8087 N   0  0  0  0  0  0  0  0  0  0  0  0
   20.9106   -2.1591  -16.4344 C   0  0  0  0  0  0  0  0  0  0  0  0
   21.1172   -1.1206  -17.3168 O   0  0  0  0  0  0  0  0  0  0  0  0
   21.8147   -2.5386  -15.6521 O   0  0  0  0  0  0  0  0  0  0  0  0
  2  1  1  1
  2  3  1  0
  3  4  1  0
  4  5  1  0
  5  6  2  0
  5  9  1  0
  7 10  1  0
  7  2  1  0
  8  7  2  0
 11 10  1  0
 11 15  1  0
 11 12  1  6
 13 14  2  0
 13 12  1  0
 15 20  1  0
 16 15  2  0
 17 13  1  0
 19 18  1  1
 19 21  1  0
 20 19  1  0
 21 23  2  0
 21 22  1  0
M  END
$$$$
