EDA.pdb
     RDKit          3D

 23 22  0  0  1  0  0  0  0  0999 V2000
   19.4056  -12.1803  -16.2031 N   0  0  0  0  0  0  0  0  0  0  0  0
   18.9528  -10.8853  -16.7677 C   0  0  1  0  0  0  0  0  0  0  0  0
   17.5651  -10.7032  -16.3102 C   0  0  0  0  0  0  0  0  0  0  0  0
   16.7876  -11.8978  -15.8793 C   0  0  0  0  0  0  0  0  0  0  0  0
   16.0982  -11.7870  -14.5917 C   0  0  0  0  0  0  0  0  0  0  0  0
   15.7933  -12.7546  -13.8622 O   0  0  0  0  0  0  0  0  0  0  0  0
   19.9658   -9.8973  -16.5227 C   0  0  0  0  0  0  0  0  0  0  0  0
   20.8193  -10.0257  -15.5739 O   0  0  0  0  0  0  0  0  0  0  0  0
   15.7636  -10.4824  -14.1630 O   0  0  0  0  0  0  0  0  0  0  0  0
   20.1411   -8.6864  -17.2934 N   0  0  0  0  0  0  0  0  0  0  0  0
   21.2162   -7.7673  -17.0318 C   0  0  1  0  0  0  0  0  0  0  0  0
   21.6663   -7.1813  -18.3503 C   0  0  0  0  0  0  0  0  0  0  0  0
   22.7926   -6.2598  -18.2617 C   0  0  0  0  0  0  0  0  0  0  0  0
   23.6714   -6.4637  -17.3887 O   0  0  0  0  0  0  0  0  0  0  0  0
   20.8046   -6.6604  -16.1242 C   0  0  0  0  0  0  0  0  0  0  0  0
   19.7490   -6.0188  -16.3614 O   0  0  0  0  0  0  0  0  0  0  0  0
   22.9577   -5.1611  -19.0875 O   0  0  0  0  0  0  0  0  0  0  0  0
   21.7162   -5.4374  -12.6855 C   0  0  0  0  0  0  0  0  0  0  0  0
   21.1929   -5.2505  -14.0650 C   0  0  2  0  0  0  0  0  0  0  0  0
   21.5509   -6.2823  -14.9862 N   0  0  0  0  0  0  0  0  0  0  0  0
   21.5189   -3.9239  -14.6321 C   0  0  0  0  0  0  0  0  0  0  0  0
   22.2160   -3.8517  -15.8190 O   0  0  0  0  0  0  0  0  0  0  0  0
   21.1570   -2.8874  -14.0254 O   0  0  0  0  0  0  0  0  0  0  0  0
  2  1  1  1
  2  3  1  0
  3  4  1  0
  4  5  1  0
  5  6  2  0
  5  9  1  0
  7 10  1  0
  7  2  1  0
  8  7  2  0
 11 10  1  0
 11 15  1  0
 11 12  1  6
 13 14  2  0
 13 12  1  0
 15 20  1  0
 16 15  2  0
 17 13  1  0
 19 18  1  1
 19 21  1  0
 20 19  1  0
 21 23  2  0
 21 22  1  0
M  END
$$$$
