YRQ.pdb
     RDKit          3D

 33 33  0  0  1  0  0  0  0  0999 V2000
    5.7492  -10.3399   27.8739 O   0  0  0  0  0  0  0  0  0  0  0  0
    6.2212  -11.5475   27.3885 C   0  0  0  0  0  0  0  0  0  0  0  0
    6.8579  -12.4224   28.2149 C   0  0  0  0  0  0  0  0  0  0  0  0
    7.3277  -13.6242   27.7322 C   0  0  0  0  0  0  0  0  0  0  0  0
    7.1759  -13.9917   26.4031 C   0  0  0  0  0  0  0  0  0  0  0  0
    7.7107  -15.2780   25.9839 C   0  0  0  0  0  0  0  0  0  0  0  0
    6.9479  -16.0258   24.9479 C   0  0  2  0  0  0  0  0  0  0  0  0
    6.5900  -17.3071   25.5366 N   0  0  0  0  0  0  0  0  0  0  0  0
    7.6523  -16.2146   23.6609 C   0  0  0  0  0  0  0  0  0  0  0  0
    8.3374  -17.2461   23.4488 O   0  0  0  0  0  0  0  0  0  0  0  0
    6.5262  -13.0789   25.5992 C   0  0  0  0  0  0  0  0  0  0  0  0
    6.0433  -11.8679   26.0480 C   0  0  0  0  0  0  0  0  0  0  0  0
    6.7945  -14.3805   15.5401 N   0  0  0  0  0  0  0  0  0  0  0  0
    8.1904  -14.1276   15.5989 C   0  0  0  0  0  0  0  0  0  0  0  0
    9.0227  -14.4059   14.6575 N   0  0  0  0  0  0  0  0  0  0  0  0
    8.8019  -13.5299   16.7321 N   0  0  0  0  0  0  0  0  0  0  0  0
    8.2299  -13.5126   18.0250 C   0  0  0  0  0  0  0  0  0  0  0  0
    8.7004  -14.4350   19.0428 C   0  0  0  0  0  0  0  0  0  0  0  0
    7.9734  -14.4421   20.3441 C   0  0  0  0  0  0  0  0  0  0  0  0
    8.3643  -15.3549   21.4080 C   0  0  2  0  0  0  0  0  0  0  0  0
    7.5882  -15.2476   22.6193 N   0  0  0  0  0  0  0  0  0  0  0  0
    9.7911  -15.3141   21.7968 C   0  0  0  0  0  0  0  0  0  0  0  0
   10.0886  -14.8131   22.8988 O   0  0  0  0  0  0  0  0  0  0  0  0
   10.0445  -14.2727   14.8827 N   0  0  0  0  0  0  0  0  0  0  0  0
   11.3164  -20.2043   23.5709 C   0  0  0  0  0  0  0  0  0  0  0  0
   12.2558  -19.2472   24.0330 O   0  0  0  0  0  0  0  0  0  0  0  0
   12.6298  -19.2338   25.2286 C   0  0  0  0  0  0  0  0  0  0  0  0
   12.7809  -18.2565   23.0371 C   0  0  0  0  0  0  0  0  0  0  0  0
   11.6388  -17.4815   22.4765 C   0  0  1  0  0  0  0  0  0  0  0  0
   12.0485  -16.3589   21.5734 N   0  0  0  0  0  0  0  0  0  0  0  0
   10.8131  -15.8140   20.9760 C   0  0  0  0  0  0  0  0  0  0  0  0
   12.9222  -16.8465   20.5061 O   0  0  0  0  0  0  0  0  0  0  0  0
   12.5245  -17.6816   19.6501 O   0  0  0  0  0  0  0  0  0  0  0  0
  2  1  1  0
  3  2  2  0
  4  3  1  0
  5 11  1  0
  5  4  2  0
  6  5  1  0
  7  8  1  1
  7  9  1  0
  7  6  1  0
  9 21  1  0
 10  9  2  0
 11 12  2  0
 12  2  1  0
 13 14  1  0
 14 16  1  0
 14 15  2  0
 16 17  1  0
 18 17  1  0
 19 18  1  0
 20 19  1  6
 21 20  1  0
 22 30  1  0
 22 20  1  0
 23 22  2  0
 25 24  1  0
 26 25  2  0
 27 25  1  0
 28 27  1  0
 29 28  1  1
 29 30  1  0
 29 31  1  0
 31 33  1  0
 32 31  2  0
M  END
$$$$
