YRQ.pdb
     RDKit          3D

 33 33  0  0  1  0  0  0  0  0999 V2000
    5.1851  -10.4711   28.1770 O   0  0  0  0  0  0  0  0  0  0  0  0
    5.8838  -11.4595   27.5050 C   0  0  0  0  0  0  0  0  0  0  0  0
    6.4275  -11.2108   26.2818 C   0  0  0  0  0  0  0  0  0  0  0  0
    7.1229  -12.1942   25.6129 C   0  0  0  0  0  0  0  0  0  0  0  0
    7.2978  -13.4626   26.1468 C   0  0  0  0  0  0  0  0  0  0  0  0
    8.0411  -14.4377   25.3638 C   0  0  0  0  0  0  0  0  0  0  0  0
    7.2688  -15.2623   24.3954 C   0  0  2  0  0  0  0  0  0  0  0  0
    6.6068  -16.3025   25.1675 N   0  0  0  0  0  0  0  0  0  0  0  0
    8.0626  -15.8476   23.2930 C   0  0  0  0  0  0  0  0  0  0  0  0
    8.5469  -17.0026   23.3930 O   0  0  0  0  0  0  0  0  0  0  0  0
    6.7323  -13.6744   27.3866 C   0  0  0  0  0  0  0  0  0  0  0  0
    6.0305  -12.7143   28.0841 C   0  0  0  0  0  0  0  0  0  0  0  0
    6.8467  -13.5675   15.1430 N   0  0  0  0  0  0  0  0  0  0  0  0
    8.0639  -14.1147   15.6276 C   0  0  0  0  0  0  0  0  0  0  0  0
    9.0383  -14.5017   14.8812 N   0  0  0  0  0  0  0  0  0  0  0  0
    8.3152  -14.2854   17.0144 N   0  0  0  0  0  0  0  0  0  0  0  0
    7.4055  -13.9258   18.0353 C   0  0  0  0  0  0  0  0  0  0  0  0
    7.7805  -14.0712   19.4304 C   0  0  0  0  0  0  0  0  0  0  0  0
    8.9489  -14.9457   19.7340 C   0  0  0  0  0  0  0  0  0  0  0  0
    8.9911  -15.7296   20.9594 C   0  0  2  0  0  0  0  0  0  0  0  0
    8.3122  -15.1371   22.0859 N   0  0  0  0  0  0  0  0  0  0  0  0
   10.3392  -16.1281   21.4204 C   0  0  0  0  0  0  0  0  0  0  0  0
   10.9294  -15.3864   22.2300 O   0  0  0  0  0  0  0  0  0  0  0  0
    9.8195  -15.0204   15.3642 N   0  0  0  0  0  0  0  0  0  0  0  0
   13.3657  -20.9393   24.3224 C   0  0  0  0  0  0  0  0  0  0  0  0
   13.4407  -20.9326   22.9059 O   0  0  0  0  0  0  0  0  0  0  0  0
   13.3284  -21.9927   22.2479 C   0  0  0  0  0  0  0  0  0  0  0  0
   13.6586  -19.6112   22.2310 C   0  0  0  0  0  0  0  0  0  0  0  0
   12.3529  -19.1065   21.7212 C   0  0  2  0  0  0  0  0  0  0  0  0
   12.3319  -17.6332   21.4519 N   0  0  0  0  0  0  0  0  0  0  0  0
   10.9723  -17.3007   20.9819 C   0  0  0  0  0  0  0  0  0  0  0  0
   13.2978  -17.2841   20.4101 O   0  0  0  0  0  0  0  0  0  0  0  0
   12.9401  -17.0370   19.2272 O   0  0  0  0  0  0  0  0  0  0  0  0
  2  1  1  0
  3  2  2  0
  4  3  1  0
  5 11  1  0
  5  4  2  0
  6  5  1  0
  7  8  1  1
  7  9  1  0
  7  6  1  0
  9 21  1  0
 10  9  2  0
 11 12  2  0
 12  2  1  0
 13 14  1  0
 14 16  1  0
 14 15  2  0
 16 17  1  0
 18 17  1  0
 19 18  1  0
 20 19  1  6
 21 20  1  0
 22 30  1  0
 22 20  1  0
 23 22  2  0
 25 24  1  0
 26 25  2  0
 27 25  1  0
 28 27  1  0
 29 28  1  1
 29 30  1  0
 29 31  1  0
 31 33  1  0
 32 31  2  0
M  END
$$$$
