YRQ.pdb
     RDKit          3D

 33 33  0  0  1  0  0  0  0  0999 V2000
    5.0223  -10.7552   28.6333 O   0  0  0  0  0  0  0  0  0  0  0  0
    5.7237  -11.6371   27.8290 C   0  0  0  0  0  0  0  0  0  0  0  0
    5.4930  -11.6814   26.4879 C   0  0  0  0  0  0  0  0  0  0  0  0
    6.1908  -12.5589   25.6871 C   0  0  0  0  0  0  0  0  0  0  0  0
    7.1452  -13.4236   26.2028 C   0  0  0  0  0  0  0  0  0  0  0  0
    7.8263  -14.3190   25.2805 C   0  0  0  0  0  0  0  0  0  0  0  0
    7.0148  -15.4013   24.6605 C   0  0  2  0  0  0  0  0  0  0  0  0
    6.6579  -16.3206   25.7300 N   0  0  0  0  0  0  0  0  0  0  0  0
    7.6690  -16.1184   23.5444 C   0  0  0  0  0  0  0  0  0  0  0  0
    8.1891  -17.2479   23.7236 O   0  0  0  0  0  0  0  0  0  0  0  0
    7.3494  -13.3479   27.5645 C   0  0  0  0  0  0  0  0  0  0  0  0
    6.6699  -12.4827   28.3955 C   0  0  0  0  0  0  0  0  0  0  0  0
    8.9165  -14.6936   14.7601 N   0  0  0  0  0  0  0  0  0  0  0  0
    8.3706  -14.1991   15.9739 C   0  0  0  0  0  0  0  0  0  0  0  0
    8.4110  -12.9670   16.3437 N   0  0  0  0  0  0  0  0  0  0  0  0
    7.7162  -15.0455   16.9071 N   0  0  0  0  0  0  0  0  0  0  0  0
    8.2711  -16.2414   17.4179 C   0  0  0  0  0  0  0  0  0  0  0  0
    8.9940  -16.2300   18.6770 C   0  0  0  0  0  0  0  0  0  0  0  0
    8.2987  -15.6405   19.8564 C   0  0  0  0  0  0  0  0  0  0  0  0
    8.5799  -16.1212   21.2009 C   0  0  2  0  0  0  0  0  0  0  0  0
    7.7399  -15.5673   22.2347 N   0  0  0  0  0  0  0  0  0  0  0  0
    9.9815  -15.9801   21.6529 C   0  0  0  0  0  0  0  0  0  0  0  0
   10.2812  -14.9884   22.3462 O   0  0  0  0  0  0  0  0  0  0  0  0
    7.9874  -12.7474   17.2844 N   0  0  0  0  0  0  0  0  0  0  0  0
   12.6437  -17.1779   25.9638 C   0  0  0  0  0  0  0  0  0  0  0  0
   11.8406  -18.1770   25.3564 O   0  0  0  0  0  0  0  0  0  0  0  0
   11.2808  -19.0623   26.0438 C   0  0  0  0  0  0  0  0  0  0  0  0
   11.6893  -18.1310   23.8651 C   0  0  0  0  0  0  0  0  0  0  0  0
   12.2348  -16.8390   23.3626 C   0  0  1  0  0  0  0  0  0  0  0  0
   12.3434  -16.7620   21.8707 N   0  0  0  0  0  0  0  0  0  0  0  0
   10.9774  -16.9142   21.3311 C   0  0  0  0  0  0  0  0  0  0  0  0
   13.1846  -17.8431   21.3571 O   0  0  0  0  0  0  0  0  0  0  0  0
   14.4219  -17.8920   21.5917 O   0  0  0  0  0  0  0  0  0  0  0  0
  2  1  1  0
  3  2  2  0
  4  3  1  0
  5 11  1  0
  5  4  2  0
  6  5  1  0
  7  8  1  1
  7  9  1  0
  7  6  1  0
  9 21  1  0
 10  9  2  0
 11 12  2  0
 12  2  1  0
 13 14  1  0
 14 16  1  0
 14 15  2  0
 16 17  1  0
 18 17  1  0
 19 18  1  0
 20 19  1  6
 21 20  1  0
 22 30  1  0
 22 20  1  0
 23 22  2  0
 25 24  1  0
 26 25  2  0
 27 25  1  0
 28 27  1  0
 29 28  1  1
 29 30  1  0
 29 31  1  0
 31 33  1  0
 32 31  2  0
M  END
$$$$
