YRQ.pdb
     RDKit          3D

 33 33  0  0  1  0  0  0  0  0999 V2000
    7.1207  -10.6791   26.3635 O   0  0  0  0  0  0  0  0  0  0  0  0
    6.8349  -12.0320   26.2957 C   0  0  0  0  0  0  0  0  0  0  0  0
    7.7989  -12.9557   26.5625 C   0  0  0  0  0  0  0  0  0  0  0  0
    7.5148  -14.3021   26.4952 C   0  0  0  0  0  0  0  0  0  0  0  0
    6.2534  -14.7706   26.1577 C   0  0  0  0  0  0  0  0  0  0  0  0
    6.0498  -16.2100   26.1058 C   0  0  0  0  0  0  0  0  0  0  0  0
    7.2524  -17.0588   25.8877 C   0  0  2  0  0  0  0  0  0  0  0  0
    8.3171  -16.4911   26.7004 N   0  0  0  0  0  0  0  0  0  0  0  0
    7.6798  -17.1953   24.4781 C   0  0  0  0  0  0  0  0  0  0  0  0
    7.1380  -18.0392   23.7214 O   0  0  0  0  0  0  0  0  0  0  0  0
    5.3055  -13.8041   25.8949 C   0  0  0  0  0  0  0  0  0  0  0  0
    5.5544  -12.4492   25.9527 C   0  0  0  0  0  0  0  0  0  0  0  0
    9.7257  -12.1256   19.5225 N   0  0  0  0  0  0  0  0  0  0  0  0
    8.5859  -12.7477   18.9483 C   0  0  0  0  0  0  0  0  0  0  0  0
    8.3830  -12.8742   17.6837 N   0  0  0  0  0  0  0  0  0  0  0  0
    7.5458  -13.2976   19.7428 N   0  0  0  0  0  0  0  0  0  0  0  0
    7.4934  -14.6489   20.1558 C   0  0  0  0  0  0  0  0  0  0  0  0
    8.0447  -15.0404   21.4405 C   0  0  0  0  0  0  0  0  0  0  0  0
    8.8421  -16.2991   21.4845 C   0  0  0  0  0  0  0  0  0  0  0  0
    9.4349  -16.7593   22.7313 C   0  0  2  0  0  0  0  0  0  0  0  0
    8.7122  -16.3886   23.9235 N   0  0  0  0  0  0  0  0  0  0  0  0
   10.8511  -16.3881   22.9443 C   0  0  0  0  0  0  0  0  0  0  0  0
   11.1086  -15.4937   23.7735 O   0  0  0  0  0  0  0  0  0  0  0  0
    7.5129  -13.3985   17.4002 N   0  0  0  0  0  0  0  0  0  0  0  0
   12.3440  -19.5304   26.2684 C   0  0  0  0  0  0  0  0  0  0  0  0
   13.7324  -19.3526   26.0383 O   0  0  0  0  0  0  0  0  0  0  0  0
   14.5849  -19.9074   26.7698 C   0  0  0  0  0  0  0  0  0  0  0  0
   14.1368  -18.4778   24.8893 C   0  0  0  0  0  0  0  0  0  0  0  0
   12.9254  -18.1327   24.0937 C   0  0  1  0  0  0  0  0  0  0  0  0
   13.1990  -17.2390   22.9232 N   0  0  0  0  0  0  0  0  0  0  0  0
   11.9058  -17.0010   22.2516 C   0  0  0  0  0  0  0  0  0  0  0  0
   14.1155  -17.8842   21.9831 O   0  0  0  0  0  0  0  0  0  0  0  0
   15.3491  -17.9861   22.2204 O   0  0  0  0  0  0  0  0  0  0  0  0
  2  1  1  0
  3  2  2  0
  4  3  1  0
  5 11  1  0
  5  4  2  0
  6  5  1  0
  7  8  1  1
  7  9  1  0
  7  6  1  0
  9 21  1  0
 10  9  2  0
 11 12  2  0
 12  2  1  0
 13 14  1  0
 14 16  1  0
 14 15  2  0
 16 17  1  0
 18 17  1  0
 19 18  1  0
 20 19  1  6
 21 20  1  0
 22 30  1  0
 22 20  1  0
 23 22  2  0
 25 24  1  0
 26 25  2  0
 27 25  1  0
 28 27  1  0
 29 28  1  1
 29 30  1  0
 29 31  1  0
 31 33  1  0
 32 31  2  0
M  END
$$$$
