YRQ.pdb
     RDKit          3D

 33 33  0  0  1  0  0  0  0  0999 V2000
   11.2493  -15.2797   30.0300 O   0  0  0  0  0  0  0  0  0  0  0  0
   10.2106  -15.2976   29.1148 C   0  0  0  0  0  0  0  0  0  0  0  0
    9.6555  -14.1340   28.6774 C   0  0  0  0  0  0  0  0  0  0  0  0
    8.6219  -14.1515   27.7665 C   0  0  0  0  0  0  0  0  0  0  0  0
    8.1078  -15.3370   27.2618 C   0  0  0  0  0  0  0  0  0  0  0  0
    7.0115  -15.2562   26.3091 C   0  0  0  0  0  0  0  0  0  0  0  0
    6.7464  -16.4595   25.4747 C   0  0  2  0  0  0  0  0  0  0  0  0
    6.7665  -17.6034   26.3734 N   0  0  0  0  0  0  0  0  0  0  0  0
    7.6791  -16.6599   24.3442 C   0  0  0  0  0  0  0  0  0  0  0  0
    8.3170  -17.7352   24.2206 O   0  0  0  0  0  0  0  0  0  0  0  0
    8.6968  -16.4929   27.7294 C   0  0  0  0  0  0  0  0  0  0  0  0
    9.7320  -16.5128   28.6398 C   0  0  0  0  0  0  0  0  0  0  0  0
    7.3944  -11.9198   17.8996 N   0  0  0  0  0  0  0  0  0  0  0  0
    7.5699  -13.2522   17.4417 C   0  0  0  0  0  0  0  0  0  0  0  0
    7.8031  -13.5788   16.2188 N   0  0  0  0  0  0  0  0  0  0  0  0
    7.5012  -14.3666   18.3185 N   0  0  0  0  0  0  0  0  0  0  0  0
    8.5883  -15.2282   18.5926 C   0  0  0  0  0  0  0  0  0  0  0  0
    9.3161  -15.1082   19.8431 C   0  0  0  0  0  0  0  0  0  0  0  0
    8.5103  -14.9859   21.0912 C   0  0  0  0  0  0  0  0  0  0  0  0
    8.7785  -15.8444   22.2352 C   0  0  2  0  0  0  0  0  0  0  0  0
    7.8946  -15.6559   23.3596 N   0  0  0  0  0  0  0  0  0  0  0  0
   10.1630  -15.8070   22.7553 C   0  0  0  0  0  0  0  0  0  0  0  0
   10.4824  -14.8735   23.5172 O   0  0  0  0  0  0  0  0  0  0  0  0
    8.1162  -14.5721   16.0521 N   0  0  0  0  0  0  0  0  0  0  0  0
   12.5986  -20.1255   24.8918 C   0  0  0  0  0  0  0  0  0  0  0  0
   12.3153  -19.0119   25.7236 O   0  0  0  0  0  0  0  0  0  0  0  0
   11.9680  -19.1687   26.9170 C   0  0  0  0  0  0  0  0  0  0  0  0
   12.4479  -17.6457   25.1195 C   0  0  0  0  0  0  0  0  0  0  0  0
   12.8746  -17.7836   23.6988 C   0  0  2  0  0  0  0  0  0  0  0  0
   12.5277  -16.6057   22.8410 N   0  0  0  0  0  0  0  0  0  0  0  0
   11.1217  -16.7760   22.4237 C   0  0  0  0  0  0  0  0  0  0  0  0
   13.3787  -16.5638   21.6517 O   0  0  0  0  0  0  0  0  0  0  0  0
   12.9211  -16.7831   20.4981 O   0  0  0  0  0  0  0  0  0  0  0  0
  2  1  1  0
  3  2  2  0
  4  3  1  0
  5 11  1  0
  5  4  2  0
  6  5  1  0
  7  8  1  1
  7  9  1  0
  7  6  1  0
  9 21  1  0
 10  9  2  0
 11 12  2  0
 12  2  1  0
 13 14  1  0
 14 16  1  0
 14 15  2  0
 16 17  1  0
 18 17  1  0
 19 18  1  0
 20 19  1  6
 21 20  1  0
 22 30  1  0
 22 20  1  0
 23 22  2  0
 25 24  1  0
 26 25  2  0
 27 25  1  0
 28 27  1  0
 29 28  1  1
 29 30  1  0
 29 31  1  0
 31 33  1  0
 32 31  2  0
M  END
$$$$
