YRQ.pdb
     RDKit          3D

 33 33  0  0  1  0  0  0  0  0999 V2000
    4.9414  -11.2202   28.9861 O   0  0  0  0  0  0  0  0  0  0  0  0
    5.6517  -11.9712   28.0652 C   0  0  0  0  0  0  0  0  0  0  0  0
    5.3130  -11.9477   26.7467 C   0  0  0  0  0  0  0  0  0  0  0  0
    6.0198  -12.6948   25.8300 C   0  0  0  0  0  0  0  0  0  0  0  0
    7.0918  -13.4925   26.2028 C   0  0  0  0  0  0  0  0  0  0  0  0
    7.7733  -14.2509   25.1652 C   0  0  0  0  0  0  0  0  0  0  0  0
    6.9491  -15.1919   24.3592 C   0  0  2  0  0  0  0  0  0  0  0  0
    6.6910  -16.3487   25.2028 N   0  0  0  0  0  0  0  0  0  0  0  0
    7.5430  -15.6021   23.0681 C   0  0  0  0  0  0  0  0  0  0  0  0
    8.0275  -16.7519   22.9203 O   0  0  0  0  0  0  0  0  0  0  0  0
    7.4031  -13.4888   27.5462 C   0  0  0  0  0  0  0  0  0  0  0  0
    6.7182  -12.7541   28.4907 C   0  0  0  0  0  0  0  0  0  0  0  0
    7.5450  -14.5908   13.6883 N   0  0  0  0  0  0  0  0  0  0  0  0
    8.2728  -14.1394   14.8209 C   0  0  0  0  0  0  0  0  0  0  0  0
    9.5449  -13.9453   14.8409 N   0  0  0  0  0  0  0  0  0  0  0  0
    7.6408  -13.8564   16.0602 N   0  0  0  0  0  0  0  0  0  0  0  0
    8.3277  -13.4400   17.2238 C   0  0  0  0  0  0  0  0  0  0  0  0
    8.6278  -14.3960   18.2745 C   0  0  0  0  0  0  0  0  0  0  0  0
    7.9855  -14.1739   19.6012 C   0  0  0  0  0  0  0  0  0  0  0  0
    8.2522  -15.0719   20.7149 C   0  0  2  0  0  0  0  0  0  0  0  0
    7.5937  -14.7236   21.9502 N   0  0  0  0  0  0  0  0  0  0  0  0
    9.6800  -15.2991   21.0285 C   0  0  0  0  0  0  0  0  0  0  0  0
   10.1638  -14.7273   22.0250 O   0  0  0  0  0  0  0  0  0  0  0  0
    9.9942  -13.8898   15.7936 N   0  0  0  0  0  0  0  0  0  0  0  0
   12.4372  -19.3886   24.8272 C   0  0  0  0  0  0  0  0  0  0  0  0
   12.4121  -18.1634   24.1127 O   0  0  0  0  0  0  0  0  0  0  0  0
   12.3070  -17.0681   24.7118 C   0  0  0  0  0  0  0  0  0  0  0  0
   12.5160  -18.2318   22.6182 C   0  0  0  0  0  0  0  0  0  0  0  0
   11.3817  -17.4744   22.0187 C   0  0  1  0  0  0  0  0  0  0  0  0
   11.7557  -16.6708   20.8113 N   0  0  0  0  0  0  0  0  0  0  0  0
   10.5025  -16.1275   20.2505 C   0  0  0  0  0  0  0  0  0  0  0  0
   12.4028  -17.5160   19.8077 O   0  0  0  0  0  0  0  0  0  0  0  0
   13.5462  -18.0124   19.9934 O   0  0  0  0  0  0  0  0  0  0  0  0
  2  1  1  0
  3  2  2  0
  4  3  1  0
  5 11  1  0
  5  4  2  0
  6  5  1  0
  7  8  1  1
  7  9  1  0
  7  6  1  0
  9 21  1  0
 10  9  2  0
 11 12  2  0
 12  2  1  0
 13 14  1  0
 14 16  1  0
 14 15  2  0
 16 17  1  0
 18 17  1  0
 19 18  1  0
 20 19  1  6
 21 20  1  0
 22 30  1  0
 22 20  1  0
 23 22  2  0
 25 24  1  0
 26 25  2  0
 27 25  1  0
 28 27  1  0
 29 28  1  1
 29 30  1  0
 29 31  1  0
 31 33  1  0
 32 31  2  0
M  END
$$$$
