YRQ.pdb
     RDKit          3D

 33 33  0  0  1  0  0  0  0  0999 V2000
    4.8057  -10.6245   27.7772 O   0  0  0  0  0  0  0  0  0  0  0  0
    5.5104  -11.7277   27.3268 C   0  0  0  0  0  0  0  0  0  0  0  0
    5.8822  -12.7103   28.1927 C   0  0  0  0  0  0  0  0  0  0  0  0
    6.5834  -13.8083   27.7447 C   0  0  0  0  0  0  0  0  0  0  0  0
    6.9371  -13.9602   26.4120 C   0  0  0  0  0  0  0  0  0  0  0  0
    7.6834  -15.1503   26.0338 C   0  0  0  0  0  0  0  0  0  0  0  0
    7.0434  -16.0712   25.0557 C   0  0  2  0  0  0  0  0  0  0  0  0
    6.8645  -17.3445   25.7362 N   0  0  0  0  0  0  0  0  0  0  0  0
    7.7792  -16.2506   23.7850 C   0  0  0  0  0  0  0  0  0  0  0  0
    8.3719  -17.3293   23.5327 O   0  0  0  0  0  0  0  0  0  0  0  0
    6.5424  -12.9441   25.5674 C   0  0  0  0  0  0  0  0  0  0  0  0
    5.8402  -11.8319   25.9807 C   0  0  0  0  0  0  0  0  0  0  0  0
    8.9973  -14.4980   14.6676 N   0  0  0  0  0  0  0  0  0  0  0  0
    8.2918  -14.3429   15.8899 C   0  0  0  0  0  0  0  0  0  0  0  0
    7.2416  -15.0116   16.2163 N   0  0  0  0  0  0  0  0  0  0  0  0
    8.6967  -13.4116   16.8821 N   0  0  0  0  0  0  0  0  0  0  0  0
    8.2140  -13.4087   18.2110 C   0  0  0  0  0  0  0  0  0  0  0  0
    8.6702  -14.4135   19.1545 C   0  0  0  0  0  0  0  0  0  0  0  0
    8.0415  -14.4141   20.5060 C   0  0  0  0  0  0  0  0  0  0  0  0
    8.3743  -15.4435   21.4793 C   0  0  2  0  0  0  0  0  0  0  0  0
    7.8499  -15.2219   22.8049 N   0  0  0  0  0  0  0  0  0  0  0  0
    9.8146  -15.7491   21.6235 C   0  0  0  0  0  0  0  0  0  0  0  0
   10.4703  -15.1155   22.4735 O   0  0  0  0  0  0  0  0  0  0  0  0
    6.9208  -14.9188   17.2168 N   0  0  0  0  0  0  0  0  0  0  0  0
   13.6048  -13.6630   19.0273 C   0  0  0  0  0  0  0  0  0  0  0  0
   14.5155  -14.5005   19.7211 O   0  0  0  0  0  0  0  0  0  0  0  0
   15.7330  -14.5154   19.4260 C   0  0  0  0  0  0  0  0  0  0  0  0
   13.9647  -15.3634   20.8170 C   0  0  0  0  0  0  0  0  0  0  0  0
   12.4856  -15.4552   20.6641 C   0  0  1  0  0  0  0  0  0  0  0  0
   11.9355  -16.8328   20.8722 N   0  0  0  0  0  0  0  0  0  0  0  0
   10.4638  -16.7176   20.8434 C   0  0  0  0  0  0  0  0  0  0  0  0
   12.3493  -17.3640   22.1710 O   0  0  0  0  0  0  0  0  0  0  0  0
   11.5370  -17.4947   23.1257 O   0  0  0  0  0  0  0  0  0  0  0  0
  2  1  1  0
  3  2  2  0
  4  3  1  0
  5 11  1  0
  5  4  2  0
  6  5  1  0
  7  8  1  1
  7  9  1  0
  7  6  1  0
  9 21  1  0
 10  9  2  0
 11 12  2  0
 12  2  1  0
 13 14  1  0
 14 16  1  0
 14 15  2  0
 16 17  1  0
 18 17  1  0
 19 18  1  0
 20 19  1  6
 21 20  1  0
 22 30  1  0
 22 20  1  0
 23 22  2  0
 25 24  1  0
 26 25  2  0
 27 25  1  0
 28 27  1  0
 29 28  1  6
 29 30  1  0
 29 31  1  0
 31 33  1  0
 32 31  2  0
M  END
$$$$
