YRQ.pdb
     RDKit          3D

 33 33  0  0  1  0  0  0  0  0999 V2000
    5.8478  -11.4712   18.7364 O   0  0  0  0  0  0  0  0  0  0  0  0
    7.0044  -12.1570   19.0659 C   0  0  0  0  0  0  0  0  0  0  0  0
    8.1304  -12.0132   18.3142 C   0  0  0  0  0  0  0  0  0  0  0  0
    9.2816  -12.6955   18.6419 C   0  0  0  0  0  0  0  0  0  0  0  0
    9.3448  -13.5468   19.7354 C   0  0  0  0  0  0  0  0  0  0  0  0
   10.6021  -14.2294   19.9990 C   0  0  0  0  0  0  0  0  0  0  0  0
   11.0014  -15.3066   19.0531 C   0  0  2  0  0  0  0  0  0  0  0  0
    9.9714  -16.3312   19.1281 N   0  0  0  0  0  0  0  0  0  0  0  0
   12.3414  -15.8869   19.2891 C   0  0  0  0  0  0  0  0  0  0  0  0
   12.4749  -16.9483   19.9480 O   0  0  0  0  0  0  0  0  0  0  0  0
    8.1842  -13.6651   20.4708 C   0  0  0  0  0  0  0  0  0  0  0  0
    7.0151  -12.9980   20.1723 C   0  0  0  0  0  0  0  0  0  0  0  0
   21.1877  -16.5852   18.4133 N   0  0  0  0  0  0  0  0  0  0  0  0
   20.3910  -16.3595   17.2599 C   0  0  0  0  0  0  0  0  0  0  0  0
   20.6073  -16.8915   16.1081 N   0  0  0  0  0  0  0  0  0  0  0  0
   19.2576  -15.5048   17.2811 N   0  0  0  0  0  0  0  0  0  0  0  0
   18.1305  -15.7028   18.1114 C   0  0  0  0  0  0  0  0  0  0  0  0
   16.9818  -16.4408   17.6175 C   0  0  0  0  0  0  0  0  0  0  0  0
   15.6546  -15.7666   17.6947 C   0  0  0  0  0  0  0  0  0  0  0  0
   14.8224  -15.8993   18.8812 C   0  0  2  0  0  0  0  0  0  0  0  0
   13.5247  -15.2759   18.7887 N   0  0  0  0  0  0  0  0  0  0  0  0
   15.4359  -15.4476   20.1494 C   0  0  0  0  0  0  0  0  0  0  0  0
   15.5910  -14.2236   20.3271 O   0  0  0  0  0  0  0  0  0  0  0  0
   19.8581  -16.7489   15.3795 N   0  0  0  0  0  0  0  0  0  0  0  0
   16.4443  -18.9962   25.0637 C   0  0  0  0  0  0  0  0  0  0  0  0
   17.0911  -17.8345   25.5581 O   0  0  0  0  0  0  0  0  0  0  0  0
   17.6554  -17.8357   26.6765 C   0  0  0  0  0  0  0  0  0  0  0  0
   17.0723  -16.6106   24.6916 C   0  0  0  0  0  0  0  0  0  0  0  0
   16.4932  -16.9648   23.3654 C   0  0  2  0  0  0  0  0  0  0  0  0
   16.4861  -15.8352   22.3819 N   0  0  0  0  0  0  0  0  0  0  0  0
   15.8469  -16.3403   21.1505 C   0  0  0  0  0  0  0  0  0  0  0  0
   17.8514  -15.4097   22.0732 O   0  0  0  0  0  0  0  0  0  0  0  0
   18.7115  -16.2115   21.6198 O   0  0  0  0  0  0  0  0  0  0  0  0
  2  1  1  0
  3  2  2  0
  4  3  1  0
  5 11  1  0
  5  4  2  0
  6  5  1  0
  7  8  1  1
  7  9  1  0
  7  6  1  0
  9 21  1  0
 10  9  2  0
 11 12  2  0
 12  2  1  0
 13 14  1  0
 14 16  1  0
 14 15  2  0
 16 17  1  0
 18 17  1  0
 19 18  1  0
 20 19  1  6
 21 20  1  0
 22 30  1  0
 22 20  1  0
 23 22  2  0
 25 24  1  0
 26 25  2  0
 27 25  1  0
 28 27  1  0
 29 28  1  1
 29 30  1  0
 29 31  1  0
 31 33  1  0
 32 31  2  0
M  END
$$$$
