SIH.pdb
     RDKit          3D

 25 25  0  0  1  0  0  0  0  0999 V2000
    7.9091  -19.5404   17.5654 O   0  0  0  0  0  0  0  0  0  0  0  0
    7.0598  -18.4425   17.6651 C   0  0  0  0  0  0  0  0  0  0  0  0
    7.6771  -17.2009   17.0342 C   0  0  2  0  0  0  0  0  0  0  0  0
    8.4256  -17.5707   15.8597 N   0  0  0  0  0  0  0  0  0  0  0  0
    8.5959  -16.5879   18.0163 C   0  0  0  0  0  0  0  0  0  0  0  0
    9.8570  -16.7607   17.9207 O   0  0  0  0  0  0  0  0  0  0  0  0
    6.8889  -12.8758   22.1015 C   0  0  0  0  0  0  0  0  0  0  0  0
    7.2771  -14.1843   21.4443 C   0  0  0  0  0  0  0  0  0  0  0  0
    8.5432  -13.9400   20.6660 C   0  0  2  0  0  0  0  0  0  0  0  0
    8.3051  -12.9098   19.6117 C   0  0  0  0  0  0  0  0  0  0  0  0
    9.0768  -15.1987   20.0258 C   0  0  2  0  0  0  0  0  0  0  0  0
    8.1609  -15.7877   19.1035 N   0  0  0  0  0  0  0  0  0  0  0  0
    9.5107  -16.1915   21.0113 C   0  0  0  0  0  0  0  0  0  0  0  0
    8.7617  -17.1368   21.3234 O   0  0  0  0  0  0  0  0  0  0  0  0
   10.7819  -16.0848   21.6154 N   0  0  0  0  0  0  0  0  0  0  0  0
   11.2485  -17.0525   22.5987 C   0  0  1  0  0  0  0  0  0  0  0  0
   12.6291  -17.5383   22.2759 C   0  0  0  0  0  0  0  0  0  0  0  0
   12.5696  -18.4677   21.1275 C   0  0  0  0  0  0  0  0  0  0  0  0
   11.4083  -18.8946   20.4637 C   0  0  0  0  0  0  0  0  0  0  0  0
   11.7377  -19.7344   19.4719 N   0  0  0  0  0  0  0  0  0  0  0  0
   13.0680  -19.8667   19.4692 C   0  0  0  0  0  0  0  0  0  0  0  0
   13.5560  -19.1056   20.4625 N   0  0  0  0  0  0  0  0  0  0  0  0
   11.2296  -16.4280   23.9259 C   0  0  0  0  0  0  0  0  0  0  0  0
   11.5790  -17.1302   24.9363 O   0  0  0  0  0  0  0  0  0  0  0  0
   10.8661  -15.1310   24.1954 O   0  0  0  0  0  0  0  0  0  0  0  0
  1  2  1  0
  3  4  1  6
  3  2  1  0
  5  3  1  0
  6  5  2  0
  7  8  1  0
  8  9  1  0
  9 10  1  6
 11  9  1  0
 11 12  1  1
 12  5  1  0
 13 15  1  0
 13 11  1  0
 14 13  2  0
 16 15  1  0
 16 17  1  6
 18 17  1  0
 18 19  2  0
 20 19  1  0
 21 20  1  0
 22 21  2  0
 22 18  1  0
 23 16  1  0
 24 23  2  0
 25 23  1  0
M  END
$$$$
