SIH.pdb
     RDKit          3D

 25 25  0  0  1  0  0  0  0  0999 V2000
    7.4666  -16.6874   19.8346 O   0  0  0  0  0  0  0  0  0  0  0  0
    6.7939  -16.1633   20.9344 C   0  0  0  0  0  0  0  0  0  0  0  0
    7.0408  -14.6669   21.0779 C   0  0  2  0  0  0  0  0  0  0  0  0
    7.8592  -14.2002   19.9877 N   0  0  0  0  0  0  0  0  0  0  0  0
    7.7561  -14.4334   22.3501 C   0  0  0  0  0  0  0  0  0  0  0  0
    9.0291  -14.3415   22.3710 O   0  0  0  0  0  0  0  0  0  0  0  0
    5.5218  -11.6013   26.4734 C   0  0  0  0  0  0  0  0  0  0  0  0
    6.4883  -12.0969   25.4174 C   0  0  0  0  0  0  0  0  0  0  0  0
    7.0313  -13.4205   25.8885 C   0  0  2  0  0  0  0  0  0  0  0  0
    7.8863  -13.2221   27.0965 C   0  0  0  0  0  0  0  0  0  0  0  0
    7.8292  -14.1280   24.8200 C   0  0  2  0  0  0  0  0  0  0  0  0
    7.1045  -14.2983   23.6025 N   0  0  0  0  0  0  0  0  0  0  0  0
    8.3634  -15.4138   25.2745 C   0  0  0  0  0  0  0  0  0  0  0  0
    7.5916  -16.3402   25.5874 O   0  0  0  0  0  0  0  0  0  0  0  0
    9.7580  -15.6131   25.3616 N   0  0  0  0  0  0  0  0  0  0  0  0
   10.3262  -16.8621   25.8497 C   0  0  1  0  0  0  0  0  0  0  0  0
   11.7142  -17.0736   25.3255 C   0  0  0  0  0  0  0  0  0  0  0  0
   11.6606  -17.3082   23.8666 C   0  0  0  0  0  0  0  0  0  0  0  0
   10.5155  -17.6228   23.1174 C   0  0  0  0  0  0  0  0  0  0  0  0
   10.8456  -17.7650   21.8258 N   0  0  0  0  0  0  0  0  0  0  0  0
   12.1608  -17.5542   21.7114 C   0  0  0  0  0  0  0  0  0  0  0  0
   12.6388  -17.2819   22.9367 N   0  0  0  0  0  0  0  0  0  0  0  0
   10.3379  -16.8375   27.3164 C   0  0  0  0  0  0  0  0  0  0  0  0
   10.2405  -15.7081   27.9089 O   0  0  0  0  0  0  0  0  0  0  0  0
   10.4442  -17.9355   28.1348 O   0  0  0  0  0  0  0  0  0  0  0  0
  1  2  1  0
  3  4  1  6
  3  2  1  0
  5  3  1  0
  6  5  2  0
  7  8  1  0
  8  9  1  0
  9 10  1  1
 11  9  1  0
 11 12  1  6
 12  5  1  0
 13 15  1  0
 13 11  1  0
 14 13  2  0
 16 15  1  0
 16 17  1  6
 18 17  1  0
 18 19  2  0
 20 19  1  0
 21 20  1  0
 22 21  2  0
 22 18  1  0
 23 16  1  0
 24 23  2  0
 25 23  1  0
M  END
$$$$
