SIH.pdb
     RDKit          3D

 25 25  0  0  1  0  0  0  0  0999 V2000
    7.9906  -18.0429   22.4092 O   0  0  0  0  0  0  0  0  0  0  0  0
    8.7614  -17.5102   21.3802 C   0  0  0  0  0  0  0  0  0  0  0  0
    8.5643  -16.0045   21.2579 C   0  0  2  0  0  0  0  0  0  0  0  0
    9.4270  -15.4811   20.2292 N   0  0  0  0  0  0  0  0  0  0  0  0
    8.9238  -15.3819   22.5493 C   0  0  0  0  0  0  0  0  0  0  0  0
   10.1438  -15.3111   22.9179 O   0  0  0  0  0  0  0  0  0  0  0  0
    6.8624  -11.4134   26.7524 C   0  0  0  0  0  0  0  0  0  0  0  0
    7.9128  -12.4342   26.3658 C   0  0  0  0  0  0  0  0  0  0  0  0
    7.4199  -13.1436   25.1319 C   0  0  2  0  0  0  0  0  0  0  0  0
    6.0623  -13.7146   25.3779 C   0  0  0  0  0  0  0  0  0  0  0  0
    8.3540  -14.2437   24.6891 C   0  0  2  0  0  0  0  0  0  0  0  0
    7.9724  -14.8342   23.4472 N   0  0  0  0  0  0  0  0  0  0  0  0
    8.5275  -15.2800   25.7095 C   0  0  0  0  0  0  0  0  0  0  0  0
    7.7836  -16.2792   25.7240 O   0  0  0  0  0  0  0  0  0  0  0  0
    9.5397  -15.1544   26.6851 N   0  0  0  0  0  0  0  0  0  0  0  0
   10.1352  -16.3177   27.3279 C   0  0  1  0  0  0  0  0  0  0  0  0
   11.3736  -16.7645   26.6117 C   0  0  0  0  0  0  0  0  0  0  0  0
   11.8995  -17.9892   27.2518 C   0  0  0  0  0  0  0  0  0  0  0  0
   11.1462  -18.9613   27.9295 C   0  0  0  0  0  0  0  0  0  0  0  0
   11.9575  -19.9297   28.3783 N   0  0  0  0  0  0  0  0  0  0  0  0
   13.2069  -19.6208   28.0165 C   0  0  0  0  0  0  0  0  0  0  0  0
   13.1616  -18.4592   27.3437 N   0  0  0  0  0  0  0  0  0  0  0  0
   10.4500  -15.9815   28.7207 C   0  0  0  0  0  0  0  0  0  0  0  0
   10.8777  -16.9088   29.4910 O   0  0  0  0  0  0  0  0  0  0  0  0
   10.3288  -14.7379   29.2913 O   0  0  0  0  0  0  0  0  0  0  0  0
  1  2  1  0
  3  4  1  6
  3  2  1  0
  5  3  1  0
  6  5  2  0
  7  8  1  0
  8  9  1  0
  9 10  1  1
 11  9  1  0
 11 12  1  6
 12  5  1  0
 13 15  1  0
 13 11  1  0
 14 13  2  0
 16 15  1  0
 16 17  1  6
 18 17  1  0
 18 19  2  0
 20 19  1  0
 21 20  1  0
 22 21  2  0
 22 18  1  0
 23 16  1  0
 24 23  2  0
 25 23  1  0
M  END
$$$$
