SIH.pdb
     RDKit          3D

 25 25  0  0  1  0  0  0  0  0999 V2000
    7.9270  -17.7580   21.7472 O   0  0  0  0  0  0  0  0  0  0  0  0
    6.9950  -16.8249   21.3031 C   0  0  0  0  0  0  0  0  0  0  0  0
    7.6329  -15.4581   21.0891 C   0  0  2  0  0  0  0  0  0  0  0  0
    8.6191  -15.5381   20.0416 N   0  0  0  0  0  0  0  0  0  0  0  0
    8.2980  -15.0533   22.3455 C   0  0  0  0  0  0  0  0  0  0  0  0
    9.5693  -15.0989   22.4503 O   0  0  0  0  0  0  0  0  0  0  0  0
    7.5273  -11.4164   27.1915 C   0  0  0  0  0  0  0  0  0  0  0  0
    8.3352  -12.5388   26.5729 C   0  0  0  0  0  0  0  0  0  0  0  0
    7.5399  -13.0816   25.4147 C   0  0  2  0  0  0  0  0  0  0  0  0
    6.2268  -13.6047   25.8960 C   0  0  0  0  0  0  0  0  0  0  0  0
    8.2739  -14.1736   24.6745 C   0  0  2  0  0  0  0  0  0  0  0  0
    7.5977  -14.5986   23.4919 N   0  0  0  0  0  0  0  0  0  0  0  0
    8.5762  -15.3263   25.5261 C   0  0  0  0  0  0  0  0  0  0  0  0
    7.6853  -16.1495   25.8097 O   0  0  0  0  0  0  0  0  0  0  0  0
    9.8804  -15.5133   26.0324 N   0  0  0  0  0  0  0  0  0  0  0  0
   10.2351  -16.6802   26.8284 C   0  0  1  0  0  0  0  0  0  0  0  0
   11.6579  -17.0894   26.5955 C   0  0  0  0  0  0  0  0  0  0  0  0
   11.7779  -17.7240   25.2655 C   0  0  0  0  0  0  0  0  0  0  0  0
   10.7299  -17.9654   24.3627 C   0  0  0  0  0  0  0  0  0  0  0  0
   11.2110  -18.5558   23.2594 N   0  0  0  0  0  0  0  0  0  0  0  0
   12.5304  -18.7054   23.4145 C   0  0  0  0  0  0  0  0  0  0  0  0
   12.8595  -18.2051   24.6167 N   0  0  0  0  0  0  0  0  0  0  0  0
   10.0237  -16.3699   28.2465 C   0  0  0  0  0  0  0  0  0  0  0  0
    9.9521  -17.3380   29.0793 O   0  0  0  0  0  0  0  0  0  0  0  0
    9.8939  -15.1107   28.7798 O   0  0  0  0  0  0  0  0  0  0  0  0
  1  2  1  0
  3  4  1  6
  3  2  1  0
  5  3  1  0
  6  5  2  0
  7  8  1  0
  8  9  1  0
  9 10  1  1
 11  9  1  0
 11 12  1  6
 12  5  1  0
 13 15  1  0
 13 11  1  0
 14 13  2  0
 16 15  1  0
 16 17  1  1
 18 17  1  0
 18 19  2  0
 20 19  1  0
 21 20  1  0
 22 21  2  0
 22 18  1  0
 23 16  1  0
 24 23  2  0
 25 23  1  0
M  END
$$$$
