SIH.pdb
     RDKit          3D

 25 25  0  0  1  0  0  0  0  0999 V2000
    6.9908  -15.5658   18.6809 O   0  0  0  0  0  0  0  0  0  0  0  0
    7.6018  -15.3829   19.9178 C   0  0  0  0  0  0  0  0  0  0  0  0
    7.4552  -13.9470   20.4053 C   0  0  2  0  0  0  0  0  0  0  0  0
    8.1829  -13.0590   19.5346 N   0  0  0  0  0  0  0  0  0  0  0  0
    8.0235  -13.8577   21.7668 C   0  0  0  0  0  0  0  0  0  0  0  0
    9.2857  -13.7764   21.9387 O   0  0  0  0  0  0  0  0  0  0  0  0
    5.7391  -11.4722   26.1302 C   0  0  0  0  0  0  0  0  0  0  0  0
    6.7207  -11.9451   25.0777 C   0  0  0  0  0  0  0  0  0  0  0  0
    6.9986  -13.4016   25.3420 C   0  0  2  0  0  0  0  0  0  0  0  0
    7.7178  -13.5577   26.6412 C   0  0  0  0  0  0  0  0  0  0  0  0
    7.8083  -14.0418   24.2404 C   0  0  2  0  0  0  0  0  0  0  0  0
    7.2361  -13.8557   22.9463 N   0  0  0  0  0  0  0  0  0  0  0  0
    8.0618  -15.4641   24.4814 C   0  0  0  0  0  0  0  0  0  0  0  0
    7.3668  -16.3310   23.9180 O   0  0  0  0  0  0  0  0  0  0  0  0
    9.0963  -15.8636   25.3544 N   0  0  0  0  0  0  0  0  0  0  0  0
    9.9484  -17.0080   25.0624 C   0  0  1  0  0  0  0  0  0  0  0  0
   10.7800  -16.7727   23.8380 C   0  0  0  0  0  0  0  0  0  0  0  0
   11.5270  -18.0043   23.5042 C   0  0  0  0  0  0  0  0  0  0  0  0
   11.4782  -19.2208   24.2038 C   0  0  0  0  0  0  0  0  0  0  0  0
   12.2856  -20.1138   23.6140 N   0  0  0  0  0  0  0  0  0  0  0  0
   12.8548  -19.5210   22.5595 C   0  0  0  0  0  0  0  0  0  0  0  0
   12.3949  -18.2604   22.5025 N   0  0  0  0  0  0  0  0  0  0  0  0
   10.8131  -17.2640   26.2194 C   0  0  0  0  0  0  0  0  0  0  0  0
   11.2167  -16.2675   26.9124 O   0  0  0  0  0  0  0  0  0  0  0  0
   11.2404  -18.4992   26.6420 O   0  0  0  0  0  0  0  0  0  0  0  0
  1  2  1  0
  3  4  1  6
  3  2  1  0
  5  3  1  0
  6  5  2  0
  7  8  1  0
  8  9  1  0
  9 10  1  1
 11  9  1  0
 11 12  1  6
 12  5  1  0
 13 15  1  0
 13 11  1  0
 14 13  2  0
 16 15  1  0
 16 17  1  6
 18 17  1  0
 18 19  2  0
 20 19  1  0
 21 20  1  0
 22 21  2  0
 22 18  1  0
 23 16  1  0
 24 23  2  0
 25 23  1  0
M  END
$$$$
