SIH.pdb
     RDKit          3D

 25 25  0  0  1  0  0  0  0  0999 V2000
    6.1517  -17.1491   20.2323 O   0  0  0  0  0  0  0  0  0  0  0  0
    6.9677  -16.7741   21.2954 C   0  0  0  0  0  0  0  0  0  0  0  0
    7.2112  -15.2702   21.3079 C   0  0  2  0  0  0  0  0  0  0  0  0
    8.0077  -14.8950   20.1673 N   0  0  0  0  0  0  0  0  0  0  0  0
    7.9488  -14.9288   22.5425 C   0  0  0  0  0  0  0  0  0  0  0  0
    9.2251  -14.9121   22.5519 O   0  0  0  0  0  0  0  0  0  0  0  0
    6.0217  -11.4435   26.2776 C   0  0  0  0  0  0  0  0  0  0  0  0
    6.9003  -12.1742   25.2831 C   0  0  0  0  0  0  0  0  0  0  0  0
    7.3476  -13.4568   25.9336 C   0  0  2  0  0  0  0  0  0  0  0  0
    8.2486  -13.1587   27.0865 C   0  0  0  0  0  0  0  0  0  0  0  0
    8.0565  -14.3750   24.9675 C   0  0  2  0  0  0  0  0  0  0  0  0
    7.3158  -14.6045   23.7695 N   0  0  0  0  0  0  0  0  0  0  0  0
    8.4371  -15.6504   25.5788 C   0  0  0  0  0  0  0  0  0  0  0  0
    7.5627  -16.4344   25.9944 O   0  0  0  0  0  0  0  0  0  0  0  0
    9.7987  -16.0013   25.7017 N   0  0  0  0  0  0  0  0  0  0  0  0
   10.2140  -17.2949   26.2263 C   0  0  1  0  0  0  0  0  0  0  0  0
   11.5892  -17.6602   25.7559 C   0  0  0  0  0  0  0  0  0  0  0  0
   11.5542  -17.9518   24.3068 C   0  0  0  0  0  0  0  0  0  0  0  0
   10.4059  -18.0264   23.5020 C   0  0  0  0  0  0  0  0  0  0  0  0
   10.7567  -18.3099   22.2395 N   0  0  0  0  0  0  0  0  0  0  0  0
   12.0883  -18.4216   22.1973 C   0  0  0  0  0  0  0  0  0  0  0  0
   12.5555  -18.2058   23.4379 N   0  0  0  0  0  0  0  0  0  0  0  0
   10.1770  -17.2471   27.6921 C   0  0  0  0  0  0  0  0  0  0  0  0
   10.3863  -18.3277   28.3437 O   0  0  0  0  0  0  0  0  0  0  0  0
    9.9353  -16.1279   28.4508 O   0  0  0  0  0  0  0  0  0  0  0  0
  1  2  1  0
  3  4  1  6
  3  2  1  0
  5  3  1  0
  6  5  2  0
  7  8  1  0
  8  9  1  0
  9 10  1  1
 11  9  1  0
 11 12  1  6
 12  5  1  0
 13 15  1  0
 13 11  1  0
 14 13  2  0
 16 15  1  0
 16 17  1  1
 18 17  1  0
 18 19  2  0
 20 19  1  0
 21 20  1  0
 22 21  2  0
 22 18  1  0
 23 16  1  0
 24 23  2  0
 25 23  1  0
M  END
$$$$
