FCE.pdb
     RDKit          3D

 27 27  0  0  1  0  0  0  0  0999 V2000
    6.3679  -17.3841   26.3103 N   0  0  0  0  0  0  0  0  0  0  0  0
    6.7890  -16.1692   25.6891 C   0  0  1  0  0  0  0  0  0  0  0  0
    7.6829  -15.3976   26.6717 C   0  0  0  0  0  0  0  0  0  0  0  0
    7.1140  -14.0266   26.7641 C   0  0  0  0  0  0  0  0  0  0  0  0
    7.9599  -12.9283   26.8920 C   0  0  0  0  0  0  0  0  0  0  0  0
    7.4433  -11.6552   26.9725 C   0  0  0  0  0  0  0  0  0  0  0  0
    6.0856  -11.4104   26.9309 C   0  0  0  0  0  0  0  0  0  0  0  0
    5.2362  -12.4835   26.8048 C   0  0  0  0  0  0  0  0  0  0  0  0
    5.7639  -13.7722   26.7237 C   0  0  0  0  0  0  0  0  0  0  0  0
    7.4567  -16.4495   24.4129 C   0  0  0  0  0  0  0  0  0  0  0  0
    8.0867  -17.5247   24.2355 O   0  0  0  0  0  0  0  0  0  0  0  0
    7.4334  -15.5530   23.3402 N   0  0  0  0  0  0  0  0  0  0  0  0
    8.2315  -15.6754   22.1437 C   0  0  1  0  0  0  0  0  0  0  0  0
    8.0036  -14.6405   21.1088 C   0  0  0  0  0  0  0  0  0  0  0  0
    8.9994  -14.8517   19.6164 S   0  0  0  0  0  0  0  0  0  0  0  0
    9.6658  -15.5831   22.5874 C   0  0  0  0  0  0  0  0  0  0  0  0
   10.0456  -14.6826   23.4125 O   0  0  0  0  0  0  0  0  0  0  0  0
   10.6786  -16.4634   22.1432 N   0  0  0  0  0  0  0  0  0  0  0  0
   12.0627  -16.3346   22.6441 C   0  0  1  0  0  0  0  0  0  0  0  0
   12.4767  -17.6349   23.2997 C   0  0  0  0  0  0  0  0  0  0  0  0
   12.0958  -17.7497   24.7406 C   0  0  0  0  0  0  0  0  0  0  0  0
   12.5803  -19.0138   25.3560 C   0  0  0  0  0  0  0  0  0  0  0  0
   12.3693  -19.1864   26.5938 O   0  0  0  0  0  0  0  0  0  0  0  0
   12.9005  -15.9364   21.5165 C   0  0  0  0  0  0  0  0  0  0  0  0
   14.1759  -15.3822   21.6529 O   0  0  0  0  0  0  0  0  0  0  0  0
   13.2465  -20.0162   24.6570 O   0  0  0  0  0  0  0  0  0  0  0  0
   12.4896  -16.0826   20.3425 O   0  0  0  0  0  0  0  0  0  0  0  0
  2  1  1  1
  2 10  1  0
  3  2  1  0
  4  3  1  0
  5  4  2  0
  6  5  1  0
  7  8  1  0
  7  6  2  0
  8  9  2  0
  9  4  1  0
 10 11  2  0
 10 12  1  0
 12 13  1  0
 13 14  1  6
 15 14  1  0
 16 13  1  0
 16 17  2  0
 18 16  1  0
 19 18  1  0
 19 20  1  6
 21 20  1  0
 22 23  2  0
 22 21  1  0
 24 19  1  0
 25 24  1  0
 26 22  1  0
 27 24  2  0
M  END
$$$$
