FCE.pdb
     RDKit          3D

 27 27  0  0  1  0  0  0  0  0999 V2000
    8.4180  -16.4621   22.6446 N   0  0  0  0  0  0  0  0  0  0  0  0
    9.6335  -15.7125   22.6322 C   0  0  1  0  0  0  0  0  0  0  0  0
    9.3115  -14.2464   22.9594 C   0  0  0  0  0  0  0  0  0  0  0  0
    8.6079  -13.6987   21.7691 C   0  0  0  0  0  0  0  0  0  0  0  0
    9.3366  -13.1153   20.7362 C   0  0  0  0  0  0  0  0  0  0  0  0
    8.6952  -12.6108   19.6280 C   0  0  0  0  0  0  0  0  0  0  0  0
    7.3227  -12.6581   19.4898 C   0  0  0  0  0  0  0  0  0  0  0  0
    6.5880  -13.2308   20.5003 C   0  0  0  0  0  0  0  0  0  0  0  0
    7.2420  -13.7408   21.6217 C   0  0  0  0  0  0  0  0  0  0  0  0
   10.6089  -16.3004   23.5572 C   0  0  0  0  0  0  0  0  0  0  0  0
   10.3964  -16.3139   24.7979 O   0  0  0  0  0  0  0  0  0  0  0  0
   11.8102  -16.8677   23.1214 N   0  0  0  0  0  0  0  0  0  0  0  0
   12.6876  -17.6728   23.9371 C   0  0  1  0  0  0  0  0  0  0  0  0
   12.1378  -18.9732   24.3847 C   0  0  0  0  0  0  0  0  0  0  0  0
   10.9591  -18.8506   25.7483 S   0  0  0  0  0  0  0  0  0  0  0  0
   13.9051  -17.9457   23.0970 C   0  0  0  0  0  0  0  0  0  0  0  0
   13.7972  -18.3801   21.8989 O   0  0  0  0  0  0  0  0  0  0  0  0
   15.2284  -17.7445   23.5515 N   0  0  0  0  0  0  0  0  0  0  0  0
   16.3795  -18.0206   22.6672 C   0  0  1  0  0  0  0  0  0  0  0  0
   17.5457  -17.1495   23.0834 C   0  0  0  0  0  0  0  0  0  0  0  0
   17.2347  -15.6887   23.1467 C   0  0  0  0  0  0  0  0  0  0  0  0
   18.4303  -14.8685   23.4770 C   0  0  0  0  0  0  0  0  0  0  0  0
   18.4885  -14.3483   24.6313 O   0  0  0  0  0  0  0  0  0  0  0  0
   16.6469  -19.4545   22.7324 C   0  0  0  0  0  0  0  0  0  0  0  0
   16.0911  -20.3065   23.6903 O   0  0  0  0  0  0  0  0  0  0  0  0
   19.4864  -14.6406   22.5997 O   0  0  0  0  0  0  0  0  0  0  0  0
   17.4136  -19.9919   21.9006 O   0  0  0  0  0  0  0  0  0  0  0  0
  2  1  1  1
  2 10  1  0
  3  2  1  0
  4  3  1  0
  5  4  2  0
  6  5  1  0
  7  8  1  0
  7  6  2  0
  8  9  2  0
  9  4  1  0
 10 11  2  0
 10 12  1  0
 12 13  1  0
 13 14  1  6
 15 14  1  0
 16 13  1  0
 16 17  2  0
 18 16  1  0
 19 18  1  0
 19 20  1  1
 21 20  1  0
 22 23  2  0
 22 21  1  0
 24 19  1  0
 25 24  1  0
 26 22  1  0
 27 24  2  0
M  END
$$$$
