FCE.pdb
     RDKit          3D

 27 27  0  0  1  0  0  0  0  0999 V2000
    6.0727  -18.0548   25.7813 N   0  0  0  0  0  0  0  0  0  0  0  0
    6.5732  -16.7317   25.5864 C   0  0  1  0  0  0  0  0  0  0  0  0
    7.1047  -16.2035   26.9275 C   0  0  0  0  0  0  0  0  0  0  0  0
    7.0363  -14.7200   26.8477 C   0  0  0  0  0  0  0  0  0  0  0  0
    8.2062  -13.9659   26.8772 C   0  0  0  0  0  0  0  0  0  0  0  0
    8.1536  -12.5929   26.7981 C   0  0  0  0  0  0  0  0  0  0  0  0
    6.9594  -11.9096   26.6876 C   0  0  0  0  0  0  0  0  0  0  0  0
    5.7949  -12.6387   26.6570 C   0  0  0  0  0  0  0  0  0  0  0  0
    5.8526  -14.0301   26.7375 C   0  0  0  0  0  0  0  0  0  0  0  0
    7.5886  -16.7174   24.5273 C   0  0  0  0  0  0  0  0  0  0  0  0
    8.4436  -17.6370   24.4392 O   0  0  0  0  0  0  0  0  0  0  0  0
    7.6643  -15.6983   23.5730 N   0  0  0  0  0  0  0  0  0  0  0  0
    8.5987  -15.6638   22.4734 C   0  0  1  0  0  0  0  0  0  0  0  0
    8.3844  -14.5868   21.4795 C   0  0  0  0  0  0  0  0  0  0  0  0
    6.7342  -14.5733   20.7444 S   0  0  0  0  0  0  0  0  0  0  0  0
    9.9582  -15.4683   23.0869 C   0  0  0  0  0  0  0  0  0  0  0  0
   10.2407  -14.4071   23.7425 O   0  0  0  0  0  0  0  0  0  0  0  0
   11.0007  -16.4183   22.9938 N   0  0  0  0  0  0  0  0  0  0  0  0
   12.3368  -16.1291   23.5546 C   0  0  1  0  0  0  0  0  0  0  0  0
   12.7741  -17.2912   24.4207 C   0  0  0  0  0  0  0  0  0  0  0  0
   11.9788  -17.4614   25.6749 C   0  0  0  0  0  0  0  0  0  0  0  0
   12.4135  -18.6434   26.4656 C   0  0  0  0  0  0  0  0  0  0  0  0
   11.7822  -18.9038   27.5334 O   0  0  0  0  0  0  0  0  0  0  0  0
   13.2290  -15.8450   22.4343 C   0  0  0  0  0  0  0  0  0  0  0  0
   12.9164  -16.1233   21.1012 O   0  0  0  0  0  0  0  0  0  0  0  0
   13.4660  -19.4793   26.1042 O   0  0  0  0  0  0  0  0  0  0  0  0
   14.3491  -15.3224   22.6364 O   0  0  0  0  0  0  0  0  0  0  0  0
  2  1  1  1
  2 10  1  0
  3  2  1  0
  4  3  1  0
  5  4  2  0
  6  5  1  0
  7  8  1  0
  7  6  2  0
  8  9  2  0
  9  4  1  0
 10 11  2  0
 10 12  1  0
 12 13  1  0
 13 14  1  6
 15 14  1  0
 16 13  1  0
 16 17  2  0
 18 16  1  0
 19 18  1  0
 19 20  1  6
 21 20  1  0
 22 23  2  0
 22 21  1  0
 24 19  1  0
 25 24  1  0
 26 22  1  0
 27 24  2  0
M  END
$$$$
