FCE.pdb
     RDKit          3D

 27 27  0  0  1  0  0  0  0  0999 V2000
    9.2209  -16.6292   20.6019 N   0  0  0  0  0  0  0  0  0  0  0  0
   10.4998  -16.1029   20.9579 C   0  0  1  0  0  0  0  0  0  0  0  0
   10.7205  -14.7872   20.1961 C   0  0  0  0  0  0  0  0  0  0  0  0
    9.3718  -14.1983   19.9822 C   0  0  0  0  0  0  0  0  0  0  0  0
    8.5945  -14.6107   18.9033 C   0  0  0  0  0  0  0  0  0  0  0  0
    7.3428  -14.0759   18.7001 C   0  0  0  0  0  0  0  0  0  0  0  0
    6.8074  -13.1216   19.5414 C   0  0  0  0  0  0  0  0  0  0  0  0
    7.5614  -12.7032   20.6115 C   0  0  0  0  0  0  0  0  0  0  0  0
    8.8295  -13.2477   20.8138 C   0  0  0  0  0  0  0  0  0  0  0  0
   10.6018  -15.9415   22.4127 C   0  0  0  0  0  0  0  0  0  0  0  0
   11.6738  -15.5534   22.9463 O   0  0  0  0  0  0  0  0  0  0  0  0
    9.5334  -16.2067   23.2747 N   0  0  0  0  0  0  0  0  0  0  0  0
    9.6022  -16.1565   24.7156 C   0  0  1  0  0  0  0  0  0  0  0  0
    8.3441  -15.7944   25.4083 C   0  0  0  0  0  0  0  0  0  0  0  0
    6.8633  -16.5484   24.6995 S   0  0  0  0  0  0  0  0  0  0  0  0
   10.0002  -17.5365   25.1628 C   0  0  0  0  0  0  0  0  0  0  0  0
    9.6943  -18.5687   24.4723 O   0  0  0  0  0  0  0  0  0  0  0  0
   10.7280  -17.7939   26.3469 N   0  0  0  0  0  0  0  0  0  0  0  0
   11.1564  -19.1669   26.6853 C   0  0  1  0  0  0  0  0  0  0  0  0
   12.2673  -19.5863   25.7461 C   0  0  0  0  0  0  0  0  0  0  0  0
   13.6397  -19.4933   26.3312 C   0  0  0  0  0  0  0  0  0  0  0  0
   14.6864  -19.2991   25.2929 C   0  0  0  0  0  0  0  0  0  0  0  0
   15.8775  -19.1113   25.6835 O   0  0  0  0  0  0  0  0  0  0  0  0
   11.5282  -19.1734   28.0972 C   0  0  0  0  0  0  0  0  0  0  0  0
   11.9493  -20.3143   28.7852 O   0  0  0  0  0  0  0  0  0  0  0  0
   14.4387  -19.3138   23.9234 O   0  0  0  0  0  0  0  0  0  0  0  0
   11.4806  -18.1163   28.7672 O   0  0  0  0  0  0  0  0  0  0  0  0
  2  1  1  1
  2 10  1  0
  3  2  1  0
  4  3  1  0
  5  4  2  0
  6  5  1  0
  7  8  1  0
  7  6  2  0
  8  9  2  0
  9  4  1  0
 10 11  2  0
 10 12  1  0
 12 13  1  0
 13 14  1  1
 15 14  1  0
 16 13  1  0
 16 17  2  0
 18 16  1  0
 19 18  1  0
 19 20  1  6
 21 20  1  0
 22 23  2  0
 22 21  1  0
 24 19  1  0
 25 24  1  0
 26 22  1  0
 27 24  2  0
M  END
$$$$
