FCE.pdb
     RDKit          3D

 27 27  0  0  1  0  0  0  0  0999 V2000
    6.5843  -16.7570   25.8965 N   0  0  0  0  0  0  0  0  0  0  0  0
    7.2382  -15.7469   25.1274 C   0  0  1  0  0  0  0  0  0  0  0  0
    8.1039  -14.8947   26.0678 C   0  0  0  0  0  0  0  0  0  0  0  0
    7.2900  -13.6992   26.4143 C   0  0  0  0  0  0  0  0  0  0  0  0
    7.7552  -12.7898   27.3603 C   0  0  0  0  0  0  0  0  0  0  0  0
    7.0121  -11.6775   27.6836 C   0  0  0  0  0  0  0  0  0  0  0  0
    5.7912  -11.4146   27.0956 C   0  0  0  0  0  0  0  0  0  0  0  0
    5.3171  -12.3022   26.1596 C   0  0  0  0  0  0  0  0  0  0  0  0
    6.0734  -13.4283   25.8349 C   0  0  0  0  0  0  0  0  0  0  0  0
    8.0103  -16.3516   24.0360 C   0  0  0  0  0  0  0  0  0  0  0  0
    8.4688  -17.5195   24.1385 O   0  0  0  0  0  0  0  0  0  0  0  0
    8.2778  -15.6764   22.8412 N   0  0  0  0  0  0  0  0  0  0  0  0
    9.1888  -16.1343   21.8196 C   0  0  1  0  0  0  0  0  0  0  0  0
    9.0609  -15.4743   20.4998 C   0  0  0  0  0  0  0  0  0  0  0  0
    7.3888  -15.5001   19.8163 S   0  0  0  0  0  0  0  0  0  0  0  0
   10.5730  -15.8649   22.3433 C   0  0  0  0  0  0  0  0  0  0  0  0
   10.8685  -14.7437   22.8831 O   0  0  0  0  0  0  0  0  0  0  0  0
   11.6261  -16.8059   22.2861 N   0  0  0  0  0  0  0  0  0  0  0  0
   12.9103  -16.5427   22.9678 C   0  0  1  0  0  0  0  0  0  0  0  0
   12.8941  -17.2033   24.3300 C   0  0  0  0  0  0  0  0  0  0  0  0
   12.9754  -18.6955   24.2945 C   0  0  0  0  0  0  0  0  0  0  0  0
   13.0739  -19.2902   25.6539 C   0  0  0  0  0  0  0  0  0  0  0  0
   14.2300  -19.5607   26.0974 O   0  0  0  0  0  0  0  0  0  0  0  0
   13.9769  -17.0088   22.0864 C   0  0  0  0  0  0  0  0  0  0  0  0
   13.7556  -17.7467   20.9207 O   0  0  0  0  0  0  0  0  0  0  0  0
   11.9778  -19.5642   26.4667 O   0  0  0  0  0  0  0  0  0  0  0  0
   15.1735  -16.7544   22.3544 O   0  0  0  0  0  0  0  0  0  0  0  0
  2  1  1  1
  2 10  1  0
  3  2  1  0
  4  3  1  0
  5  4  2  0
  6  5  1  0
  7  8  1  0
  7  6  2  0
  8  9  2  0
  9  4  1  0
 10 11  2  0
 10 12  1  0
 12 13  1  0
 13 14  1  6
 15 14  1  0
 16 13  1  0
 16 17  2  0
 18 16  1  0
 19 18  1  0
 19 20  1  1
 21 20  1  0
 22 23  2  0
 22 21  1  0
 24 19  1  0
 25 24  1  0
 26 22  1  0
 27 24  2  0
M  END
$$$$
