FCE.pdb
     RDKit          3D

 27 27  0  0  1  0  0  0  0  0999 V2000
    6.7337  -16.4494   24.8118 N   0  0  0  0  0  0  0  0  0  0  0  0
    7.5870  -15.7030   23.9435 C   0  0  1  0  0  0  0  0  0  0  0  0
    6.8011  -14.5038   23.3919 C   0  0  0  0  0  0  0  0  0  0  0  0
    6.6801  -13.5337   24.5126 C   0  0  0  0  0  0  0  0  0  0  0  0
    7.4796  -12.3942   24.5372 C   0  0  0  0  0  0  0  0  0  0  0  0
    7.3710  -11.4876   25.5670 C   0  0  0  0  0  0  0  0  0  0  0  0
    6.4798  -11.6615   26.6066 C   0  0  0  0  0  0  0  0  0  0  0  0
    5.6828  -12.7811   26.5977 C   0  0  0  0  0  0  0  0  0  0  0  0
    5.7961  -13.6975   25.5523 C   0  0  0  0  0  0  0  0  0  0  0  0
    8.8126  -15.3051   24.6453 C   0  0  0  0  0  0  0  0  0  0  0  0
    9.7569  -14.7448   24.0298 O   0  0  0  0  0  0  0  0  0  0  0  0
    8.9993  -15.5235   26.0137 N   0  0  0  0  0  0  0  0  0  0  0  0
   10.1997  -15.1981   26.7461 C   0  0  1  0  0  0  0  0  0  0  0  0
    9.9953  -14.6476   28.1058 C   0  0  0  0  0  0  0  0  0  0  0  0
   11.5242  -14.2735   28.9924 S   0  0  0  0  0  0  0  0  0  0  0  0
   10.9717  -16.4827   26.8744 C   0  0  0  0  0  0  0  0  0  0  0  0
   10.4489  -17.5163   27.4167 O   0  0  0  0  0  0  0  0  0  0  0  0
   12.2980  -16.6459   26.4137 N   0  0  0  0  0  0  0  0  0  0  0  0
   12.9286  -17.9819   26.3887 C   0  0  1  0  0  0  0  0  0  0  0  0
   13.9218  -18.0411   25.2476 C   0  0  0  0  0  0  0  0  0  0  0  0
   14.9047  -16.9151   25.2243 C   0  0  0  0  0  0  0  0  0  0  0  0
   15.2418  -16.4855   23.8412 C   0  0  0  0  0  0  0  0  0  0  0  0
   16.1336  -15.5959   23.7002 O   0  0  0  0  0  0  0  0  0  0  0  0
   13.5125  -18.2146   27.7066 C   0  0  0  0  0  0  0  0  0  0  0  0
   13.4818  -17.2817   28.7464 O   0  0  0  0  0  0  0  0  0  0  0  0
   14.6413  -17.0010   22.6962 O   0  0  0  0  0  0  0  0  0  0  0  0
   14.0837  -19.2997   27.9611 O   0  0  0  0  0  0  0  0  0  0  0  0
  2  1  1  1
  2 10  1  0
  3  2  1  0
  4  3  1  0
  5  4  2  0
  6  5  1  0
  7  8  1  0
  7  6  2  0
  8  9  2  0
  9  4  1  0
 10 11  2  0
 10 12  1  0
 12 13  1  0
 13 14  1  1
 15 14  1  0
 16 13  1  0
 16 17  2  0
 18 16  1  0
 19 18  1  0
 19 20  1  6
 21 20  1  0
 22 23  2  0
 22 21  1  0
 24 19  1  0
 25 24  1  0
 26 22  1  0
 27 24  2  0
M  END
$$$$
