FCE.pdb
     RDKit          3D

 27 27  0  0  1  0  0  0  0  0999 V2000
    4.8331  -16.6212   20.9509 N   0  0  0  0  0  0  0  0  0  0  0  0
    6.1385  -17.1472   21.1929 C   0  0  1  0  0  0  0  0  0  0  0  0
    7.0946  -16.6061   20.1191 C   0  0  0  0  0  0  0  0  0  0  0  0
    7.1565  -15.1339   20.3201 C   0  0  0  0  0  0  0  0  0  0  0  0
    6.3900  -14.2888   19.5223 C   0  0  0  0  0  0  0  0  0  0  0  0
    6.4360  -12.9254   19.7043 C   0  0  0  0  0  0  0  0  0  0  0  0
    7.2305  -12.3406   20.6698 C   0  0  0  0  0  0  0  0  0  0  0  0
    7.9936  -13.1604   21.4662 C   0  0  0  0  0  0  0  0  0  0  0  0
    7.9441  -14.5416   21.2783 C   0  0  0  0  0  0  0  0  0  0  0  0
    6.5761  -16.8282   22.5566 C   0  0  0  0  0  0  0  0  0  0  0  0
    6.1166  -15.8268   23.1652 O   0  0  0  0  0  0  0  0  0  0  0  0
    7.5137  -17.6039   23.2454 N   0  0  0  0  0  0  0  0  0  0  0  0
    7.9606  -17.3544   24.5950 C   0  0  1  0  0  0  0  0  0  0  0  0
    7.0829  -17.8716   25.6701 C   0  0  0  0  0  0  0  0  0  0  0  0
    7.8352  -17.8589   27.3126 S   0  0  0  0  0  0  0  0  0  0  0  0
    9.2999  -18.0273   24.7223 C   0  0  0  0  0  0  0  0  0  0  0  0
    9.4325  -19.2810   24.5068 O   0  0  0  0  0  0  0  0  0  0  0  0
   10.4861  -17.3447   25.0758 N   0  0  0  0  0  0  0  0  0  0  0  0
   11.7994  -18.0148   24.9782 C   0  0  1  0  0  0  0  0  0  0  0  0
   12.7637  -17.1124   24.2380 C   0  0  0  0  0  0  0  0  0  0  0  0
   14.1816  -17.5856   24.2437 C   0  0  0  0  0  0  0  0  0  0  0  0
   15.0933  -16.6527   23.5297 C   0  0  0  0  0  0  0  0  0  0  0  0
   15.2066  -16.7837   22.2741 O   0  0  0  0  0  0  0  0  0  0  0  0
   12.2173  -18.3574   26.3346 C   0  0  0  0  0  0  0  0  0  0  0  0
   13.2379  -19.2656   26.6279 O   0  0  0  0  0  0  0  0  0  0  0  0
   15.8248  -15.6465   24.1539 O   0  0  0  0  0  0  0  0  0  0  0  0
   11.6539  -17.8296   27.3208 O   0  0  0  0  0  0  0  0  0  0  0  0
  2  1  1  6
  2 10  1  0
  3  2  1  0
  4  3  1  0
  5  4  2  0
  6  5  1  0
  7  8  1  0
  7  6  2  0
  8  9  2  0
  9  4  1  0
 10 11  2  0
 10 12  1  0
 12 13  1  0
 13 14  1  1
 15 14  1  0
 16 13  1  0
 16 17  2  0
 18 16  1  0
 19 18  1  0
 19 20  1  1
 21 20  1  0
 22 23  2  0
 22 21  1  0
 24 19  1  0
 25 24  1  0
 26 22  1  0
 27 24  2  0
M  END
$$$$
