FCE.pdb
     RDKit          3D

 27 27  0  0  1  0  0  0  0  0999 V2000
    6.3264  -15.9592   25.9370 N   0  0  0  0  0  0  0  0  0  0  0  0
    7.1156  -15.3389   24.9212 C   0  0  1  0  0  0  0  0  0  0  0  0
    8.2074  -14.4929   25.5935 C   0  0  0  0  0  0  0  0  0  0  0  0
    7.5167  -13.3181   26.1891 C   0  0  0  0  0  0  0  0  0  0  0  0
    7.5476  -13.1159   27.5662 C   0  0  0  0  0  0  0  0  0  0  0  0
    6.9164  -12.0287   28.1262 C   0  0  0  0  0  0  0  0  0  0  0  0
    6.2344  -11.1028   27.3628 C   0  0  0  0  0  0  0  0  0  0  0  0
    6.1941  -11.2873   26.0016 C   0  0  0  0  0  0  0  0  0  0  0  0
    6.8350  -12.3905   25.4380 C   0  0  0  0  0  0  0  0  0  0  0  0
    7.6611  -16.3483   24.0066 C   0  0  0  0  0  0  0  0  0  0  0  0
    7.7801  -17.5489   24.3658 O   0  0  0  0  0  0  0  0  0  0  0  0
    8.0745  -16.0394   22.7071 N   0  0  0  0  0  0  0  0  0  0  0  0
    8.5905  -16.9941   21.7554 C   0  0  1  0  0  0  0  0  0  0  0  0
    8.3256  -16.6902   20.3302 C   0  0  0  0  0  0  0  0  0  0  0  0
    7.0699  -15.4191   20.0635 S   0  0  0  0  0  0  0  0  0  0  0  0
   10.0809  -17.0209   21.9573 C   0  0  0  0  0  0  0  0  0  0  0  0
   10.8527  -16.2555   21.2832 O   0  0  0  0  0  0  0  0  0  0  0  0
   10.7278  -17.8675   22.8860 N   0  0  0  0  0  0  0  0  0  0  0  0
   12.1422  -17.6452   23.2511 C   0  0  1  0  0  0  0  0  0  0  0  0
   12.3580  -16.1725   23.5282 C   0  0  0  0  0  0  0  0  0  0  0  0
   13.6585  -15.8523   24.1922 C   0  0  0  0  0  0  0  0  0  0  0  0
   14.7396  -15.5656   23.2124 C   0  0  0  0  0  0  0  0  0  0  0  0
   14.4570  -15.6510   21.9798 O   0  0  0  0  0  0  0  0  0  0  0  0
   12.4451  -18.5200   24.3801 C   0  0  0  0  0  0  0  0  0  0  0  0
   11.5535  -18.7791   25.4243 O   0  0  0  0  0  0  0  0  0  0  0  0
   16.0375  -15.2079   23.5656 O   0  0  0  0  0  0  0  0  0  0  0  0
   13.5575  -19.0905   24.4557 O   0  0  0  0  0  0  0  0  0  0  0  0
  2  1  1  1
  2 10  1  0
  3  2  1  0
  4  3  1  0
  5  4  2  0
  6  5  1  0
  7  8  1  0
  7  6  2  0
  8  9  2  0
  9  4  1  0
 10 11  2  0
 10 12  1  0
 12 13  1  0
 13 14  1  6
 15 14  1  0
 16 13  1  0
 16 17  2  0
 18 16  1  0
 19 18  1  0
 19 20  1  1
 21 20  1  0
 22 23  2  0
 22 21  1  0
 24 19  1  0
 25 24  1  0
 26 22  1  0
 27 24  2  0
M  END
$$$$
