FCE.pdb
     RDKit          3D

 27 27  0  0  1  0  0  0  0  0999 V2000
   10.0240  -12.5403   19.4116 N   0  0  0  0  0  0  0  0  0  0  0  0
    9.3222  -13.7149   19.8202 C   0  0  1  0  0  0  0  0  0  0  0  0
    9.5867  -14.8284   18.7953 C   0  0  0  0  0  0  0  0  0  0  0  0
    8.8191  -14.4626   17.5752 C   0  0  0  0  0  0  0  0  0  0  0  0
    7.4541  -14.7272   17.5052 C   0  0  0  0  0  0  0  0  0  0  0  0
    6.7339  -14.3873   16.3828 C   0  0  0  0  0  0  0  0  0  0  0  0
    7.3201  -13.7782   15.2916 C   0  0  0  0  0  0  0  0  0  0  0  0
    8.6670  -13.5097   15.3441 C   0  0  0  0  0  0  0  0  0  0  0  0
    9.3932  -13.8559   16.4835 C   0  0  0  0  0  0  0  0  0  0  0  0
    9.7070  -14.0947   21.1842 C   0  0  0  0  0  0  0  0  0  0  0  0
   10.9189  -14.1744   21.5154 O   0  0  0  0  0  0  0  0  0  0  0  0
    8.7661  -14.3866   22.1764 N   0  0  0  0  0  0  0  0  0  0  0  0
    9.0849  -14.8305   23.5124 C   0  0  1  0  0  0  0  0  0  0  0  0
    7.9936  -14.7149   24.5070 C   0  0  0  0  0  0  0  0  0  0  0  0
    6.7282  -13.4976   24.0821 S   0  0  0  0  0  0  0  0  0  0  0  0
    9.4544  -16.2837   23.3924 C   0  0  0  0  0  0  0  0  0  0  0  0
    9.0843  -16.9784   22.3843 O   0  0  0  0  0  0  0  0  0  0  0  0
   10.2229  -16.9760   24.3558 N   0  0  0  0  0  0  0  0  0  0  0  0
   11.3914  -17.7839   23.9494 C   0  0  1  0  0  0  0  0  0  0  0  0
   12.3432  -16.9157   23.1541 C   0  0  0  0  0  0  0  0  0  0  0  0
   13.6308  -17.5822   22.7904 C   0  0  0  0  0  0  0  0  0  0  0  0
   14.5717  -16.6596   22.1015 C   0  0  0  0  0  0  0  0  0  0  0  0
   15.5428  -16.1977   22.7724 O   0  0  0  0  0  0  0  0  0  0  0  0
   11.9701  -18.3562   25.1616 C   0  0  0  0  0  0  0  0  0  0  0  0
   11.9298  -17.7333   26.4117 O   0  0  0  0  0  0  0  0  0  0  0  0
   14.4525  -16.2762   20.7688 O   0  0  0  0  0  0  0  0  0  0  0  0
   12.5455  -19.4679   25.1221 O   0  0  0  0  0  0  0  0  0  0  0  0
  2  1  1  6
  2 10  1  0
  3  2  1  0
  4  3  1  0
  5  4  2  0
  6  5  1  0
  7  8  1  0
  7  6  2  0
  8  9  2  0
  9  4  1  0
 10 11  2  0
 10 12  1  0
 12 13  1  0
 13 14  1  1
 15 14  1  0
 16 13  1  0
 16 17  2  0
 18 16  1  0
 19 18  1  0
 19 20  1  1
 21 20  1  0
 22 23  2  0
 22 21  1  0
 24 19  1  0
 25 24  1  0
 26 22  1  0
 27 24  2  0
M  END
$$$$
