FCE.pdb
     RDKit          3D

 27 27  0  0  1  0  0  0  0  0999 V2000
    5.6663  -17.5272   25.1758 N   0  0  0  0  0  0  0  0  0  0  0  0
    6.4011  -16.3185   24.9802 C   0  0  1  0  0  0  0  0  0  0  0  0
    6.9729  -15.8654   26.3322 C   0  0  0  0  0  0  0  0  0  0  0  0
    6.9545  -14.3784   26.3151 C   0  0  0  0  0  0  0  0  0  0  0  0
    6.1222  -13.6817   27.1870 C   0  0  0  0  0  0  0  0  0  0  0  0
    6.1023  -12.3056   27.1828 C   0  0  0  0  0  0  0  0  0  0  0  0
    6.8928  -11.5631   26.3290 C   0  0  0  0  0  0  0  0  0  0  0  0
    7.7204  -12.2351   25.4616 C   0  0  0  0  0  0  0  0  0  0  0  0
    7.7375  -13.6298   25.4691 C   0  0  0  0  0  0  0  0  0  0  0  0
    7.4377  -16.5071   23.9591 C   0  0  0  0  0  0  0  0  0  0  0  0
    8.2016  -17.5071   23.9905 O   0  0  0  0  0  0  0  0  0  0  0  0
    7.6341  -15.6016   22.9119 N   0  0  0  0  0  0  0  0  0  0  0  0
    8.6249  -15.7434   21.8719 C   0  0  1  0  0  0  0  0  0  0  0  0
    8.5230  -14.7820   20.7498 C   0  0  0  0  0  0  0  0  0  0  0  0
    6.9955  -14.9156   19.7946 S   0  0  0  0  0  0  0  0  0  0  0  0
    9.9594  -15.5444   22.5368 C   0  0  0  0  0  0  0  0  0  0  0  0
   10.1324  -14.6252   23.4091 O   0  0  0  0  0  0  0  0  0  0  0  0
   11.0954  -16.3390   22.2609 N   0  0  0  0  0  0  0  0  0  0  0  0
   12.2296  -16.3873   23.2066 C   0  0  1  0  0  0  0  0  0  0  0  0
   12.0326  -17.5470   24.1597 C   0  0  0  0  0  0  0  0  0  0  0  0
   13.1884  -17.7998   25.0733 C   0  0  0  0  0  0  0  0  0  0  0  0
   12.9405  -18.9360   26.0000 C   0  0  0  0  0  0  0  0  0  0  0  0
   12.4125  -18.6773   27.1229 O   0  0  0  0  0  0  0  0  0  0  0  0
   13.4551  -16.4602   22.4163 C   0  0  0  0  0  0  0  0  0  0  0  0
   13.5021  -16.9091   21.0939 O   0  0  0  0  0  0  0  0  0  0  0  0
   13.2494  -20.2615   25.7090 O   0  0  0  0  0  0  0  0  0  0  0  0
   14.5493  -16.1101   22.9149 O   0  0  0  0  0  0  0  0  0  0  0  0
  2  1  1  1
  2 10  1  0
  3  2  1  0
  4  3  1  0
  5  4  2  0
  6  5  1  0
  7  8  1  0
  7  6  2  0
  8  9  2  0
  9  4  1  0
 10 11  2  0
 10 12  1  0
 12 13  1  0
 13 14  1  6
 15 14  1  0
 16 13  1  0
 16 17  2  0
 18 16  1  0
 19 18  1  0
 19 20  1  1
 21 20  1  0
 22 23  2  0
 22 21  1  0
 24 19  1  0
 25 24  1  0
 26 22  1  0
 27 24  2  0
M  END
$$$$
