ATG.pdb
     RDKit          3D

 17 16  0  0  1  0  0  0  0  0999 V2000
   -3.4593  -25.3798   23.7836 C   0  0  0  0  0  0  0  0  0  0  0  0
   -4.7415  -24.7109   24.1811 C   0  0  2  0  0  0  0  0  0  0  0  0
   -4.6100  -23.2971   23.8848 N   0  0  0  0  0  0  0  0  0  0  0  0
   -5.1229  -24.9492   25.5733 C   0  0  0  0  0  0  0  0  0  0  0  0
   -5.3088  -26.0976   26.0024 O   0  0  0  0  0  0  0  0  0  0  0  0
   -3.2945  -24.3405   28.6199 C   0  0  0  0  0  0  0  0  0  0  0  0
   -4.5711  -23.5478   28.8048 C   0  0  1  0  0  0  0  0  0  0  0  0
   -4.2368  -22.2038   28.5862 O   0  0  0  0  0  0  0  0  0  0  0  0
   -5.6410  -23.9467   27.8363 C   0  0  2  0  0  0  0  0  0  0  0  0
   -5.2882  -23.8730   26.4618 N   0  0  0  0  0  0  0  0  0  0  0  0
   -6.9354  -23.2694   28.1091 C   0  0  0  0  0  0  0  0  0  0  0  0
   -7.5165  -22.5419   27.2649 O   0  0  0  0  0  0  0  0  0  0  0  0
   -7.5715  -23.4301   29.3701 N   0  0  0  0  0  0  0  0  0  0  0  0
   -8.8650  -22.8550   29.6729 C   0  0  0  0  0  0  0  0  0  0  0  0
   -9.3731  -23.2792   30.9907 C   0  0  0  0  0  0  0  0  0  0  0  0
   -8.7064  -24.1154   31.6505 O   0  0  0  0  0  0  0  0  0  0  0  0
  -10.5422  -22.7992   31.5257 O   0  0  0  0  0  0  0  0  0  0  0  0
  2  1  1  1
  2  4  1  0
  2  3  1  0
  4  5  2  0
  7  6  1  6
  8  7  1  0
  9  7  1  0
 10  4  1  0
  9 10  1  6
 11 12  2  0
 11  9  1  0
 13 11  1  0
 14 13  1  0
 14 15  1  0
 15 17  1  0
 16 15  2  0
M  END
$$$$
