ATG.pdb
     RDKit          3D

 17 16  0  0  1  0  0  0  0  0999 V2000
    7.2184  -18.3920   17.3444 C   0  0  0  0  0  0  0  0  0  0  0  0
    7.5540  -16.9542   17.0802 C   0  0  2  0  0  0  0  0  0  0  0  0
    8.0706  -16.8648   15.7278 N   0  0  0  0  0  0  0  0  0  0  0  0
    8.4722  -16.3743   18.0605 C   0  0  0  0  0  0  0  0  0  0  0  0
    9.6952  -16.3440   17.8581 O   0  0  0  0  0  0  0  0  0  0  0  0
    7.6175  -12.9349   19.6345 C   0  0  0  0  0  0  0  0  0  0  0  0
    8.0650  -13.8594   20.7468 C   0  0  1  0  0  0  0  0  0  0  0  0
    6.9079  -14.2152   21.4543 O   0  0  0  0  0  0  0  0  0  0  0  0
    8.7217  -15.1025   20.2319 C   0  0  2  0  0  0  0  0  0  0  0  0
    7.9840  -15.8345   19.2628 N   0  0  0  0  0  0  0  0  0  0  0  0
    9.2143  -15.9795   21.3259 C   0  0  0  0  0  0  0  0  0  0  0  0
    8.5310  -16.9170   21.8095 O   0  0  0  0  0  0  0  0  0  0  0  0
   10.5108  -15.7767   21.8723 N   0  0  0  0  0  0  0  0  0  0  0  0
   11.0112  -16.5326   23.0010 C   0  0  0  0  0  0  0  0  0  0  0  0
   12.3298  -16.0544   23.4563 C   0  0  0  0  0  0  0  0  0  0  0  0
   12.9509  -15.2313   22.7380 O   0  0  0  0  0  0  0  0  0  0  0  0
   12.9061  -16.4702   24.6304 O   0  0  0  0  0  0  0  0  0  0  0  0
  2  1  1  1
  2  4  1  0
  2  3  1  0
  4  5  2  0
  7  6  1  6
  8  7  1  0
  9  7  1  0
 10  4  1  0
  9 10  1  1
 11 12  2  0
 11  9  1  0
 13 11  1  0
 14 13  1  0
 14 15  1  0
 15 17  1  0
 16 15  2  0
M  END
$$$$
