ATG.pdb
     RDKit          3D

 17 16  0  0  1  0  0  0  0  0999 V2000
    8.5553  -19.2463   17.1053 C   0  0  0  0  0  0  0  0  0  0  0  0
    8.6279  -17.8987   16.4508 C   0  0  2  0  0  0  0  0  0  0  0  0
    9.4719  -18.0247   15.2780 N   0  0  0  0  0  0  0  0  0  0  0  0
    9.0822  -16.8336   17.3451 C   0  0  0  0  0  0  0  0  0  0  0  0
   10.2824  -16.5351   17.4332 O   0  0  0  0  0  0  0  0  0  0  0  0
    8.0708  -12.8351   20.0298 C   0  0  0  0  0  0  0  0  0  0  0  0
    7.5834  -13.9156   19.0879 C   0  0  1  0  0  0  0  0  0  0  0  0
    7.6076  -13.3586   17.8014 O   0  0  0  0  0  0  0  0  0  0  0  0
    8.4561  -15.1321   19.1077 C   0  0  2  0  0  0  0  0  0  0  0  0
    8.1605  -16.1200   18.1301 N   0  0  0  0  0  0  0  0  0  0  0  0
    8.5775  -15.7218   20.4665 C   0  0  0  0  0  0  0  0  0  0  0  0
    7.6385  -16.3391   21.0293 O   0  0  0  0  0  0  0  0  0  0  0  0
    9.7955  -15.6007   21.1892 N   0  0  0  0  0  0  0  0  0  0  0  0
    9.9754  -16.1492   22.5168 C   0  0  0  0  0  0  0  0  0  0  0  0
   11.3145  -15.8643   23.0649 C   0  0  0  0  0  0  0  0  0  0  0  0
   12.2116  -15.4646   22.2810 O   0  0  0  0  0  0  0  0  0  0  0  0
   11.6213  -16.0174   24.3938 O   0  0  0  0  0  0  0  0  0  0  0  0
  2  1  1  1
  2  4  1  0
  2  3  1  0
  4  5  2  0
  7  6  1  1
  8  7  1  0
  9  7  1  0
 10  4  1  0
  9 10  1  6
 11 12  2  0
 11  9  1  0
 13 11  1  0
 14 13  1  0
 14 15  1  0
 15 17  1  0
 16 15  2  0
M  END
$$$$
