ATG.pdb
     RDKit          3D

 17 16  0  0  1  0  0  0  0  0999 V2000
    7.9345  -15.3223   17.1695 C   0  0  0  0  0  0  0  0  0  0  0  0
    7.8838  -14.0962   18.0319 C   0  0  2  0  0  0  0  0  0  0  0  0
    8.4008  -12.9883   17.2515 N   0  0  0  0  0  0  0  0  0  0  0  0
    8.5831  -14.2450   19.3084 C   0  0  0  0  0  0  0  0  0  0  0  0
    9.7106  -13.7603   19.4853 O   0  0  0  0  0  0  0  0  0  0  0  0
    8.2428  -15.4849   24.1187 C   0  0  0  0  0  0  0  0  0  0  0  0
    7.5734  -15.4112   22.7627 C   0  0  1  0  0  0  0  0  0  0  0  0
    6.6986  -14.3166   22.8128 O   0  0  0  0  0  0  0  0  0  0  0  0
    8.5521  -15.2011   21.6492 C   0  0  2  0  0  0  0  0  0  0  0  0
    7.9872  -14.9464   20.3705 N   0  0  0  0  0  0  0  0  0  0  0  0
    9.5847  -16.2685   21.5917 C   0  0  0  0  0  0  0  0  0  0  0  0
    9.3962  -17.3706   21.0177 O   0  0  0  0  0  0  0  0  0  0  0  0
   10.8523  -16.0668   22.2024 N   0  0  0  0  0  0  0  0  0  0  0  0
   11.9077  -17.0567   22.1598 C   0  0  0  0  0  0  0  0  0  0  0  0
   13.0967  -16.6427   22.9276 C   0  0  0  0  0  0  0  0  0  0  0  0
   13.1236  -15.4846   23.4147 O   0  0  0  0  0  0  0  0  0  0  0  0
   14.1737  -17.4684   23.1319 O   0  0  0  0  0  0  0  0  0  0  0  0
  2  1  1  6
  2  4  1  0
  2  3  1  0
  4  5  2  0
  7  6  1  1
  8  7  1  0
  9  7  1  0
 10  4  1  0
  9 10  1  6
 11 12  2  0
 11  9  1  0
 13 11  1  0
 14 13  1  0
 14 15  1  0
 15 17  1  0
 16 15  2  0
M  END
$$$$
