ATG.pdb
     RDKit          3D

 17 16  0  0  1  0  0  0  0  0999 V2000
   -1.5378  -26.4803   29.0079 C   0  0  0  0  0  0  0  0  0  0  0  0
   -3.0155  -26.2296   28.9497 C   0  0  2  0  0  0  0  0  0  0  0  0
   -3.5068  -26.7851   27.7033 N   0  0  0  0  0  0  0  0  0  0  0  0
   -3.3804  -24.8216   29.1075 C   0  0  0  0  0  0  0  0  0  0  0  0
   -3.0280  -24.1728   30.1038 O   0  0  0  0  0  0  0  0  0  0  0  0
   -2.6506  -22.0501   26.6792 C   0  0  0  0  0  0  0  0  0  0  0  0
   -4.1435  -22.0064   26.9272 C   0  0  1  0  0  0  0  0  0  0  0  0
   -4.7495  -22.5527   25.7868 O   0  0  0  0  0  0  0  0  0  0  0  0
   -4.5509  -22.8069   28.1251 C   0  0  2  0  0  0  0  0  0  0  0  0
   -4.1444  -24.1684   28.1253 N   0  0  0  0  0  0  0  0  0  0  0  0
   -5.9967  -22.6644   28.4385 C   0  0  0  0  0  0  0  0  0  0  0  0
   -6.8635  -23.4883   28.0519 O   0  0  0  0  0  0  0  0  0  0  0  0
   -6.4534  -21.5593   29.2071 N   0  0  0  0  0  0  0  0  0  0  0  0
   -7.8577  -21.2918   29.4350 C   0  0  0  0  0  0  0  0  0  0  0  0
   -8.3669  -21.9603   30.6468 C   0  0  0  0  0  0  0  0  0  0  0  0
   -8.2554  -23.2088   30.7356 O   0  0  0  0  0  0  0  0  0  0  0  0
   -8.9566  -21.2765   31.6803 O   0  0  0  0  0  0  0  0  0  0  0  0
  2  1  1  6
  2  4  1  0
  2  3  1  0
  4  5  2  0
  7  6  1  6
  8  7  1  0
  9  7  1  0
 10  4  1  0
  9 10  1  6
 11 12  2  0
 11  9  1  0
 13 11  1  0
 14 13  1  0
 14 15  1  0
 15 17  1  0
 16 15  2  0
M  END
$$$$
