ATG.pdb
     RDKit          3D

 17 16  0  0  1  0  0  0  0  0999 V2000
    8.8612  -12.0551   19.7165 C   0  0  0  0  0  0  0  0  0  0  0  0
    8.8141  -13.3688   18.9944 C   0  0  2  0  0  0  0  0  0  0  0  0
    7.7755  -13.2790   17.9859 N   0  0  0  0  0  0  0  0  0  0  0  0
    8.6266  -14.5198   19.8779 C   0  0  0  0  0  0  0  0  0  0  0  0
    7.5017  -15.0014   20.0780 O   0  0  0  0  0  0  0  0  0  0  0  0
    8.8446  -17.6817   19.4245 C   0  0  0  0  0  0  0  0  0  0  0  0
    9.8400  -17.5783   20.5607 C   0  0  1  0  0  0  0  0  0  0  0  0
   11.1133  -17.6483   19.9778 O   0  0  0  0  0  0  0  0  0  0  0  0
    9.7202  -16.2903   21.3146 C   0  0  2  0  0  0  0  0  0  0  0  0
    9.7265  -15.1094   20.5242 N   0  0  0  0  0  0  0  0  0  0  0  0
   10.6823  -16.2016   22.4438 C   0  0  0  0  0  0  0  0  0  0  0  0
   11.8292  -15.7015   22.3259 O   0  0  0  0  0  0  0  0  0  0  0  0
   10.3214  -16.6946   23.7273 N   0  0  0  0  0  0  0  0  0  0  0  0
   11.1709  -16.5454   24.8900 C   0  0  0  0  0  0  0  0  0  0  0  0
   12.0367  -17.7194   25.1067 C   0  0  0  0  0  0  0  0  0  0  0  0
   12.1335  -18.5717   24.1884 O   0  0  0  0  0  0  0  0  0  0  0  0
   12.7400  -17.9195   26.2680 O   0  0  0  0  0  0  0  0  0  0  0  0
  2  1  1  1
  2  4  1  0
  2  3  1  0
  4  5  2  0
  7  6  1  6
  8  7  1  0
  9  7  1  0
 10  4  1  0
  9 10  1  6
 11 12  2  0
 11  9  1  0
 13 11  1  0
 14 13  1  0
 14 15  1  0
 15 17  1  0
 16 15  2  0
M  END
$$$$
