ATG.pdb
     RDKit          3D

 17 16  0  0  1  0  0  0  0  0999 V2000
    8.5491  -18.9829   17.5096 C   0  0  0  0  0  0  0  0  0  0  0  0
    8.7752  -17.7186   16.7350 C   0  0  2  0  0  0  0  0  0  0  0  0
    9.6546  -18.0342   15.6256 N   0  0  0  0  0  0  0  0  0  0  0  0
    9.2867  -16.6142   17.5470 C   0  0  0  0  0  0  0  0  0  0  0  0
   10.5045  -16.4326   17.6931 O   0  0  0  0  0  0  0  0  0  0  0  0
    8.3514  -12.4276   20.0630 C   0  0  0  0  0  0  0  0  0  0  0  0
    7.8603  -13.5046   19.1189 C   0  0  1  0  0  0  0  0  0  0  0  0
    7.8767  -12.9418   17.8348 O   0  0  0  0  0  0  0  0  0  0  0  0
    8.7348  -14.7199   19.1286 C   0  0  2  0  0  0  0  0  0  0  0  0
    8.4015  -15.7279   18.1842 N   0  0  0  0  0  0  0  0  0  0  0  0
    8.9117  -15.2815   20.4932 C   0  0  0  0  0  0  0  0  0  0  0  0
    7.9673  -15.7851   21.1519 O   0  0  0  0  0  0  0  0  0  0  0  0
   10.1923  -15.2642   21.1099 N   0  0  0  0  0  0  0  0  0  0  0  0
   10.4616  -15.9195   22.3724 C   0  0  0  0  0  0  0  0  0  0  0  0
   11.8284  -15.6575   22.8602 C   0  0  0  0  0  0  0  0  0  0  0  0
   12.6193  -15.0225   22.1184 O   0  0  0  0  0  0  0  0  0  0  0  0
   12.2719  -16.0779   24.0891 O   0  0  0  0  0  0  0  0  0  0  0  0
  2  1  1  1
  2  4  1  0
  2  3  1  0
  4  5  2  0
  7  6  1  1
  8  7  1  0
  9  7  1  0
 10  4  1  0
  9 10  1  6
 11 12  2  0
 11  9  1  0
 13 11  1  0
 14 13  1  0
 14 15  1  0
 15 17  1  0
 16 15  2  0
M  END
$$$$
