ATG.pdb
     RDKit          3D

 17 16  0  0  1  0  0  0  0  0999 V2000
    7.4588  -19.0987   18.9657 C   0  0  0  0  0  0  0  0  0  0  0  0
    7.3563  -17.6614   18.5492 C   0  0  2  0  0  0  0  0  0  0  0  0
    7.5556  -17.6046   17.1137 N   0  0  0  0  0  0  0  0  0  0  0  0
    8.2702  -16.7736   19.2682 C   0  0  0  0  0  0  0  0  0  0  0  0
    9.3794  -16.4758   18.8008 O   0  0  0  0  0  0  0  0  0  0  0  0
    7.3252  -13.3554   20.3342 C   0  0  0  0  0  0  0  0  0  0  0  0
    7.9047  -14.0017   21.5747 C   0  0  1  0  0  0  0  0  0  0  0  0
    6.8196  -14.2847   22.4164 O   0  0  0  0  0  0  0  0  0  0  0  0
    8.6315  -15.2755   21.2731 C   0  0  2  0  0  0  0  0  0  0  0  0
    7.9078  -16.2346   20.5145 N   0  0  0  0  0  0  0  0  0  0  0  0
    9.2436  -15.8807   22.4847 C   0  0  0  0  0  0  0  0  0  0  0  0
    8.5766  -16.5077   23.3459 O   0  0  0  0  0  0  0  0  0  0  0  0
   10.6422  -15.7639   22.7101 N   0  0  0  0  0  0  0  0  0  0  0  0
   11.3148  -16.4212   23.8107 C   0  0  0  0  0  0  0  0  0  0  0  0
   12.7317  -16.0267   23.9183 C   0  0  0  0  0  0  0  0  0  0  0  0
   13.2277  -15.3154   23.0089 O   0  0  0  0  0  0  0  0  0  0  0  0
   13.5301  -16.4036   24.9691 O   0  0  0  0  0  0  0  0  0  0  0  0
  2  1  1  1
  2  4  1  0
  2  3  1  0
  4  5  2  0
  7  6  1  6
  8  7  1  0
  9  7  1  0
 10  4  1  0
  9 10  1  1
 11 12  2  0
 11  9  1  0
 13 11  1  0
 14 13  1  0
 14 15  1  0
 15 17  1  0
 16 15  2  0
M  END
$$$$
