ATG.pdb
     RDKit          3D

 17 16  0  0  1  0  0  0  0  0999 V2000
    1.1931  -19.9337   19.3797 C   0  0  0  0  0  0  0  0  0  0  0  0
    1.3162  -21.2304   20.1234 C   0  0  2  0  0  0  0  0  0  0  0  0
    0.4183  -22.1826   19.4982 N   0  0  0  0  0  0  0  0  0  0  0  0
    1.0768  -21.1091   21.5616 C   0  0  0  0  0  0  0  0  0  0  0  0
    1.6448  -20.2387   22.2378 O   0  0  0  0  0  0  0  0  0  0  0  0
   -0.0182  -19.4363   23.4918 C   0  0  0  0  0  0  0  0  0  0  0  0
   -0.7807  -20.6258   24.0360 C   0  0  1  0  0  0  0  0  0  0  0  0
   -2.0936  -20.5055   23.5588 O   0  0  0  0  0  0  0  0  0  0  0  0
   -0.2132  -21.9323   23.5747 C   0  0  2  0  0  0  0  0  0  0  0  0
    0.1906  -21.9838   22.2133 N   0  0  0  0  0  0  0  0  0  0  0  0
   -1.0775  -23.0861   23.9361 C   0  0  0  0  0  0  0  0  0  0  0  0
   -1.7366  -23.7377   23.0873 O   0  0  0  0  0  0  0  0  0  0  0  0
   -1.1861  -23.4973   25.2925 N   0  0  0  0  0  0  0  0  0  0  0  0
   -1.9277  -24.6730   25.6967 C   0  0  0  0  0  0  0  0  0  0  0  0
   -1.9291  -24.8602   27.1594 C   0  0  0  0  0  0  0  0  0  0  0  0
   -1.2055  -24.1101   27.8614 O   0  0  0  0  0  0  0  0  0  0  0  0
   -2.6868  -25.8183   27.7851 O   0  0  0  0  0  0  0  0  0  0  0  0
  2  1  1  6
  2  4  1  0
  2  3  1  0
  4  5  2  0
  7  6  1  6
  8  7  1  0
  9  7  1  0
 10  4  1  0
  9 10  1  6
 11 12  2  0
 11  9  1  0
 13 11  1  0
 14 13  1  0
 14 15  1  0
 15 17  1  0
 16 15  2  0
M  END
$$$$
