DVG.pdb
     RDKit          3D

 20 19  0  0  1  0  0  0  0  0999 V2000
    8.3608  -17.6681   17.7560 N   0  0  0  0  0  0  0  0  0  0  0  0
    9.5606  -16.9618   17.2647 C   0  0  1  0  0  0  0  0  0  0  0  0
    9.2431  -16.5687   15.8468 C   0  0  0  0  0  0  0  0  0  0  0  0
    9.1565  -17.6811   14.8942 C   0  0  0  0  0  0  0  0  0  0  0  0
    8.6589  -17.5998   13.7608 O   0  0  0  0  0  0  0  0  0  0  0  0
    9.7488  -15.7348   18.1493 C   0  0  0  0  0  0  0  0  0  0  0  0
   10.7023  -14.9621   17.9402 O   0  0  0  0  0  0  0  0  0  0  0  0
    9.6616  -18.9297   15.2630 O   0  0  0  0  0  0  0  0  0  0  0  0
    7.1126  -12.9017   19.0500 C   0  0  0  0  0  0  0  0  0  0  0  0
    7.5173  -13.7145   20.2916 C   0  0  2  0  0  0  0  0  0  0  0  0
    7.5746  -12.7139   21.4143 C   0  0  0  0  0  0  0  0  0  0  0  0
    8.8652  -14.3702   20.1080 C   0  0  2  0  0  0  0  0  0  0  0  0
    8.8597  -15.4741   19.1894 N   0  0  0  0  0  0  0  0  0  0  0  0
    9.4251  -14.8236   21.3522 C   0  0  0  0  0  0  0  0  0  0  0  0
    9.6470  -13.9778   22.2862 O   0  0  0  0  0  0  0  0  0  0  0  0
    9.7543  -16.1601   21.6406 N   0  0  0  0  0  0  0  0  0  0  0  0
   10.1843  -16.5794   22.9770 C   0  0  0  0  0  0  0  0  0  0  0  0
   11.6620  -16.5955   23.0590 C   0  0  0  0  0  0  0  0  0  0  0  0
   12.2949  -16.9249   24.2380 O   0  0  0  0  0  0  0  0  0  0  0  0
   12.3561  -16.3100   22.0586 O   0  0  0  0  0  0  0  0  0  0  0  0
  2  3  1  0
  2  1  1  1
  4  8  1  0
  4  3  1  0
  5  4  2  0
  6  2  1  0
  7  6  2  0
 10 11  1  1
 10 12  1  0
 10  9  1  0
 12 13  1  6
 13  6  1  0
 14 12  1  0
 14 15  2  0
 16 14  1  0
 17 16  1  0
 17 18  1  0
 18 19  1  0
 20 18  2  0
M  END
$$$$
