DVG.pdb
     RDKit          3D

 20 19  0  0  1  0  0  0  0  0999 V2000
    8.8152  -15.0638   20.9765 N   0  0  0  0  0  0  0  0  0  0  0  0
    7.7684  -15.1978   22.0091 C   0  0  1  0  0  0  0  0  0  0  0  0
    7.3494  -16.6431   21.9713 C   0  0  0  0  0  0  0  0  0  0  0  0
    6.6943  -17.0717   20.7306 C   0  0  0  0  0  0  0  0  0  0  0  0
    6.6453  -16.3965   19.6911 O   0  0  0  0  0  0  0  0  0  0  0  0
    8.4122  -14.8440   23.3447 C   0  0  0  0  0  0  0  0  0  0  0  0
    9.6260  -15.0568   23.5217 O   0  0  0  0  0  0  0  0  0  0  0  0
    6.0746  -18.3225   20.6889 O   0  0  0  0  0  0  0  0  0  0  0  0
    5.7589  -13.2359   26.4485 C   0  0  0  0  0  0  0  0  0  0  0  0
    7.2551  -12.8881   26.3692 C   0  0  2  0  0  0  0  0  0  0  0  0
    7.3238  -11.6386   25.5331 C   0  0  0  0  0  0  0  0  0  0  0  0
    8.0466  -13.9964   25.7169 C   0  0  2  0  0  0  0  0  0  0  0  0
    7.6497  -14.2841   24.3671 N   0  0  0  0  0  0  0  0  0  0  0  0
    7.9957  -15.2196   26.4708 C   0  0  0  0  0  0  0  0  0  0  0  0
    6.9158  -15.9057   26.4822 O   0  0  0  0  0  0  0  0  0  0  0  0
    9.0671  -15.7451   27.2148 N   0  0  0  0  0  0  0  0  0  0  0  0
    8.9646  -17.0254   27.9198 C   0  0  0  0  0  0  0  0  0  0  0  0
   10.2416  -17.3415   28.5979 C   0  0  0  0  0  0  0  0  0  0  0  0
   10.3606  -18.4728   29.3758 O   0  0  0  0  0  0  0  0  0  0  0  0
   11.2301  -16.5854   28.4737 O   0  0  0  0  0  0  0  0  0  0  0  0
  2  3  1  0
  2  1  1  6
  4  8  1  0
  4  3  1  0
  5  4  2  0
  6  2  1  0
  7  6  2  0
 10 11  1  6
 10 12  1  0
 10  9  1  0
 12 13  1  6
 13  6  1  0
 14 12  1  0
 14 15  2  0
 16 14  1  0
 17 16  1  0
 17 18  1  0
 18 19  1  0
 20 18  2  0
M  END
$$$$
