DVG.pdb
     RDKit          3D

 20 19  0  0  1  0  0  0  0  0999 V2000
    8.1984  -17.7536   16.1006 N   0  0  0  0  0  0  0  0  0  0  0  0
    7.5420  -17.5893   17.4129 C   0  0  1  0  0  0  0  0  0  0  0  0
    7.5017  -18.9672   18.0174 C   0  0  0  0  0  0  0  0  0  0  0  0
    6.7984  -19.9789   17.2211 C   0  0  0  0  0  0  0  0  0  0  0  0
    5.8267  -19.7453   16.4862 O   0  0  0  0  0  0  0  0  0  0  0  0
    8.4179  -16.6507   18.2348 C   0  0  0  0  0  0  0  0  0  0  0  0
    9.6528  -16.8078   18.2448 O   0  0  0  0  0  0  0  0  0  0  0  0
    7.2318  -21.3053   17.2754 O   0  0  0  0  0  0  0  0  0  0  0  0
    8.4341  -12.5271   21.1381 C   0  0  0  0  0  0  0  0  0  0  0  0
    7.6936  -13.4549   20.1599 C   0  0  2  0  0  0  0  0  0  0  0  0
    6.4018  -13.8019   20.8497 C   0  0  0  0  0  0  0  0  0  0  0  0
    8.4876  -14.7082   19.8782 C   0  0  2  0  0  0  0  0  0  0  0  0
    7.8437  -15.6191   18.9738 N   0  0  0  0  0  0  0  0  0  0  0  0
    8.8182  -15.4259   21.0793 C   0  0  0  0  0  0  0  0  0  0  0  0
    7.9003  -16.0623   21.7034 O   0  0  0  0  0  0  0  0  0  0  0  0
   10.1059  -15.4948   21.6404 N   0  0  0  0  0  0  0  0  0  0  0  0
   10.3616  -16.1861   22.9066 C   0  0  0  0  0  0  0  0  0  0  0  0
   11.8038  -16.1370   23.2359 C   0  0  0  0  0  0  0  0  0  0  0  0
   12.2557  -16.5540   24.4692 O   0  0  0  0  0  0  0  0  0  0  0  0
   12.6318  -15.7159   22.3985 O   0  0  0  0  0  0  0  0  0  0  0  0
  2  3  1  0
  2  1  1  6
  4  8  1  0
  4  3  1  0
  5  4  2  0
  6  2  1  0
  7  6  2  0
 10 11  1  1
 10 12  1  0
 10  9  1  0
 12 13  1  6
 13  6  1  0
 14 12  1  0
 14 15  2  0
 16 14  1  0
 17 16  1  0
 17 18  1  0
 18 19  1  0
 20 18  2  0
M  END
$$$$
