DVG.pdb
     RDKit          3D

 20 19  0  0  1  0  0  0  0  0999 V2000
    7.7518  -17.3660   17.0323 N   0  0  0  0  0  0  0  0  0  0  0  0
    9.2135  -17.1614   16.9934 C   0  0  1  0  0  0  0  0  0  0  0  0
    9.5071  -16.6209   15.6196 C   0  0  0  0  0  0  0  0  0  0  0  0
    9.2327  -17.5439   14.5129 C   0  0  0  0  0  0  0  0  0  0  0  0
    9.3004  -18.7799   14.5942 O   0  0  0  0  0  0  0  0  0  0  0  0
    9.5491  -16.1388   18.0729 C   0  0  0  0  0  0  0  0  0  0  0  0
   10.7219  -15.7431   18.2065 O   0  0  0  0  0  0  0  0  0  0  0  0
    8.8679  -17.0220   13.2701 O   0  0  0  0  0  0  0  0  0  0  0  0
    7.4839  -12.8037   19.1839 C   0  0  0  0  0  0  0  0  0  0  0  0
    7.5543  -13.8601   20.2998 C   0  0  2  0  0  0  0  0  0  0  0  0
    7.7724  -13.0782   21.5671 C   0  0  0  0  0  0  0  0  0  0  0  0
    8.6960  -14.8233   20.0781 C   0  0  2  0  0  0  0  0  0  0  0  0
    8.5508  -15.6455   18.9097 N   0  0  0  0  0  0  0  0  0  0  0  0
    8.9109  -15.6841   21.2095 C   0  0  0  0  0  0  0  0  0  0  0  0
    7.9910  -16.5014   21.5603 O   0  0  0  0  0  0  0  0  0  0  0  0
   10.0848  -15.7090   21.9834 N   0  0  0  0  0  0  0  0  0  0  0  0
   10.2168  -16.5711   23.1606 C   0  0  0  0  0  0  0  0  0  0  0  0
   11.5260  -16.3498   23.8145 C   0  0  0  0  0  0  0  0  0  0  0  0
   11.8210  -16.9573   25.0159 O   0  0  0  0  0  0  0  0  0  0  0  0
   12.3824  -15.6080   23.2849 O   0  0  0  0  0  0  0  0  0  0  0  0
  2  3  1  0
  2  1  1  6
  4  8  1  0
  4  3  1  0
  5  4  2  0
  6  2  1  0
  7  6  2  0
 10 11  1  1
 10 12  1  0
 10  9  1  0
 12 13  1  6
 13  6  1  0
 14 12  1  0
 14 15  2  0
 16 14  1  0
 17 16  1  0
 17 18  1  0
 18 19  1  0
 20 18  2  0
M  END
$$$$
