DVG.pdb
     RDKit          3D

 20 19  0  0  1  0  0  0  0  0999 V2000
    8.6159  -16.7125   15.8102 N   0  0  0  0  0  0  0  0  0  0  0  0
    8.0413  -16.9099   17.1558 C   0  0  1  0  0  0  0  0  0  0  0  0
    8.1407  -18.3880   17.4223 C   0  0  0  0  0  0  0  0  0  0  0  0
    7.3170  -19.2365   16.5542 C   0  0  0  0  0  0  0  0  0  0  0  0
    6.1760  -18.9459   16.1636 O   0  0  0  0  0  0  0  0  0  0  0  0
    8.9026  -16.1137   18.1294 C   0  0  0  0  0  0  0  0  0  0  0  0
   10.1296  -16.0237   17.9383 O   0  0  0  0  0  0  0  0  0  0  0  0
    7.8281  -20.4623   16.1225 O   0  0  0  0  0  0  0  0  0  0  0  0
    6.8048  -13.9557   21.3215 C   0  0  0  0  0  0  0  0  0  0  0  0
    8.1133  -13.4840   20.6647 C   0  0  2  0  0  0  0  0  0  0  0  0
    7.6834  -12.6630   19.4789 C   0  0  0  0  0  0  0  0  0  0  0  0
    8.9572  -14.6518   20.2124 C   0  0  2  0  0  0  0  0  0  0  0  0
    8.3241  -15.4870   19.2306 N   0  0  0  0  0  0  0  0  0  0  0  0
    9.3713  -15.4831   21.3100 C   0  0  0  0  0  0  0  0  0  0  0  0
    8.5311  -16.2911   21.8374 O   0  0  0  0  0  0  0  0  0  0  0  0
   10.6628  -15.4877   21.8662 N   0  0  0  0  0  0  0  0  0  0  0  0
   11.0129  -16.3454   23.0013 C   0  0  0  0  0  0  0  0  0  0  0  0
   12.4064  -16.0881   23.4283 C   0  0  0  0  0  0  0  0  0  0  0  0
   12.9205  -16.7025   24.5497 O   0  0  0  0  0  0  0  0  0  0  0  0
   13.1362  -15.3091   22.7765 O   0  0  0  0  0  0  0  0  0  0  0  0
  2  3  1  0
  2  1  1  6
  4  8  1  0
  4  3  1  0
  5  4  2  0
  6  2  1  0
  7  6  2  0
 10 11  1  6
 10 12  1  0
 10  9  1  0
 12 13  1  6
 13  6  1  0
 14 12  1  0
 14 15  2  0
 16 14  1  0
 17 16  1  0
 17 18  1  0
 18 19  1  0
 20 18  2  0
M  END
$$$$
