DVG.pdb
     RDKit          3D

 20 19  0  0  1  0  0  0  0  0999 V2000
    7.5449  -18.5059   17.0949 N   0  0  0  0  0  0  0  0  0  0  0  0
    7.4440  -18.3658   18.5612 C   0  0  1  0  0  0  0  0  0  0  0  0
    7.9786  -19.6548   19.1257 C   0  0  0  0  0  0  0  0  0  0  0  0
    7.1413  -20.8358   18.8889 C   0  0  0  0  0  0  0  0  0  0  0  0
    5.9008  -20.8323   18.8987 O   0  0  0  0  0  0  0  0  0  0  0  0
    8.3207  -17.1835   18.9573 C   0  0  0  0  0  0  0  0  0  0  0  0
    9.4911  -17.1139   18.5387 O   0  0  0  0  0  0  0  0  0  0  0  0
    7.7572  -22.0625   18.6322 O   0  0  0  0  0  0  0  0  0  0  0  0
    8.3555  -12.5537   20.8526 C   0  0  0  0  0  0  0  0  0  0  0  0
    7.6069  -13.7676   20.2763 C   0  0  2  0  0  0  0  0  0  0  0  0
    6.4385  -13.9829   21.2002 C   0  0  0  0  0  0  0  0  0  0  0  0
    8.4841  -14.9965   20.2495 C   0  0  2  0  0  0  0  0  0  0  0  0
    7.8191  -16.1814   19.7845 N   0  0  0  0  0  0  0  0  0  0  0  0
    9.0636  -15.2811   21.5342 C   0  0  0  0  0  0  0  0  0  0  0  0
    8.2968  -15.4708   22.5408 O   0  0  0  0  0  0  0  0  0  0  0  0
   10.4440  -15.3776   21.7846 N   0  0  0  0  0  0  0  0  0  0  0  0
   10.9672  -15.7293   23.1072 C   0  0  0  0  0  0  0  0  0  0  0  0
   12.4471  -15.7403   23.0873 C   0  0  0  0  0  0  0  0  0  0  0  0
   13.1619  -15.9573   24.2453 O   0  0  0  0  0  0  0  0  0  0  0  0
   13.0686  -15.5527   22.0183 O   0  0  0  0  0  0  0  0  0  0  0  0
  2  3  1  0
  2  1  1  6
  4  8  1  0
  4  3  1  0
  5  4  2  0
  6  2  1  0
  7  6  2  0
 10 11  1  1
 10 12  1  0
 10  9  1  0
 12 13  1  1
 13  6  1  0
 14 12  1  0
 14 15  2  0
 16 14  1  0
 17 16  1  0
 17 18  1  0
 18 19  1  0
 20 18  2  0
M  END
$$$$
