DVG.pdb
     RDKit          3D

 20 19  0  0  1  0  0  0  0  0999 V2000
    8.4944  -16.3383   15.6382 N   0  0  0  0  0  0  0  0  0  0  0  0
    8.4928  -16.9308   16.9906 C   0  0  1  0  0  0  0  0  0  0  0  0
    9.3137  -18.1876   16.8796 C   0  0  0  0  0  0  0  0  0  0  0  0
    8.6854  -19.2804   16.1291 C   0  0  0  0  0  0  0  0  0  0  0  0
    7.4646  -19.4968   16.0908 O   0  0  0  0  0  0  0  0  0  0  0  0
    9.1533  -15.9198   17.9207 C   0  0  0  0  0  0  0  0  0  0  0  0
   10.1180  -15.2451   17.5157 O   0  0  0  0  0  0  0  0  0  0  0  0
    9.4944  -20.1528   15.3979 O   0  0  0  0  0  0  0  0  0  0  0  0
    6.9376  -14.7386   21.4293 C   0  0  0  0  0  0  0  0  0  0  0  0
    8.0657  -13.9246   20.7728 C   0  0  2  0  0  0  0  0  0  0  0  0
    7.4015  -13.1607   19.6590 C   0  0  0  0  0  0  0  0  0  0  0  0
    9.1451  -14.8231   20.2178 C   0  0  2  0  0  0  0  0  0  0  0  0
    8.6830  -15.7473   19.2204 N   0  0  0  0  0  0  0  0  0  0  0  0
    9.8151  -15.5706   21.2471 C   0  0  0  0  0  0  0  0  0  0  0  0
    9.5089  -16.7992   21.4314 O   0  0  0  0  0  0  0  0  0  0  0  0
   10.8135  -15.0515   22.0906 N   0  0  0  0  0  0  0  0  0  0  0  0
   11.4823  -15.8793   23.0976 C   0  0  0  0  0  0  0  0  0  0  0  0
   10.7406  -15.8299   24.3774 C   0  0  0  0  0  0  0  0  0  0  0  0
   11.2455  -16.4422   25.5041 O   0  0  0  0  0  0  0  0  0  0  0  0
    9.6451  -15.2313   24.4531 O   0  0  0  0  0  0  0  0  0  0  0  0
  2  3  1  0
  2  1  1  6
  4  8  1  0
  4  3  1  0
  5  4  2  0
  6  2  1  0
  7  6  2  0
 10 11  1  6
 10 12  1  0
 10  9  1  0
 12 13  1  6
 13  6  1  0
 14 12  1  0
 14 15  2  0
 16 14  1  0
 17 16  1  0
 17 18  1  0
 18 19  1  0
 20 18  2  0
M  END
$$$$
