DVG.pdb
     RDKit          3D

 20 19  0  0  1  0  0  0  0  0999 V2000
    8.4867  -14.8586   20.4979 N   0  0  0  0  0  0  0  0  0  0  0  0
    7.5790  -15.2359   21.5996 C   0  0  1  0  0  0  0  0  0  0  0  0
    7.4514  -16.7336   21.5200 C   0  0  0  0  0  0  0  0  0  0  0  0
    6.7927  -17.2416   20.3116 C   0  0  0  0  0  0  0  0  0  0  0  0
    5.5794  -17.1381   20.0752 O   0  0  0  0  0  0  0  0  0  0  0  0
    8.2521  -14.8069   22.8982 C   0  0  0  0  0  0  0  0  0  0  0  0
    9.4608  -15.0461   23.0764 O   0  0  0  0  0  0  0  0  0  0  0  0
    7.5613  -17.8910   19.3432 O   0  0  0  0  0  0  0  0  0  0  0  0
    7.7301  -12.1623   27.1411 C   0  0  0  0  0  0  0  0  0  0  0  0
    7.1778  -12.5852   25.7691 C   0  0  2  0  0  0  0  0  0  0  0  0
    5.7543  -12.9983   26.0294 C   0  0  0  0  0  0  0  0  0  0  0  0
    7.9591  -13.7410   25.1910 C   0  0  2  0  0  0  0  0  0  0  0  0
    7.5221  -14.1492   23.8854 N   0  0  0  0  0  0  0  0  0  0  0  0
    7.9443  -14.8935   26.0506 C   0  0  0  0  0  0  0  0  0  0  0  0
    6.8457  -15.5212   26.2403 O   0  0  0  0  0  0  0  0  0  0  0  0
    9.0709  -15.4086   26.7162 N   0  0  0  0  0  0  0  0  0  0  0  0
    8.9823  -16.5774   27.5952 C   0  0  0  0  0  0  0  0  0  0  0  0
   10.3085  -16.8838   28.1767 C   0  0  0  0  0  0  0  0  0  0  0  0
   10.4537  -17.9039   29.0919 O   0  0  0  0  0  0  0  0  0  0  0  0
   11.3154  -16.2203   27.8448 O   0  0  0  0  0  0  0  0  0  0  0  0
  2  3  1  0
  2  1  1  6
  4  8  1  0
  4  3  1  0
  5  4  2  0
  6  2  1  0
  7  6  2  0
 10 11  1  1
 10 12  1  0
 10  9  1  0
 12 13  1  6
 13  6  1  0
 14 12  1  0
 14 15  2  0
 16 14  1  0
 17 16  1  0
 17 18  1  0
 18 19  1  0
 20 18  2  0
M  END
$$$$
