HSW.pdb
     RDKit          3D

 31 33  0  0  1  0  0  0  0  0999 V2000
   24.9526  -20.1882  -18.1034 N   0  0  0  0  0  0  0  0  0  0  0  0
   24.6071  -19.3815  -16.9632 C   0  0  1  0  0  0  0  0  0  0  0  0
   24.4501  -17.9514  -17.3878 C   0  0  0  0  0  0  0  0  0  0  0  0
   25.7592  -17.4813  -17.8904 C   0  0  0  0  0  0  0  0  0  0  0  0
   26.9255  -17.3205  -17.1775 C   0  0  0  0  0  0  0  0  0  0  0  0
   27.8812  -16.8675  -18.0429 N   0  0  0  0  0  0  0  0  0  0  0  0
   27.3255  -16.7509  -19.2541 C   0  0  0  0  0  0  0  0  0  0  0  0
   26.0385  -17.1244  -19.1559 N   0  0  0  0  0  0  0  0  0  0  0  0
   23.4362  -19.9161  -16.2294 C   0  0  0  0  0  0  0  0  0  0  0  0
   22.4343  -20.2878  -16.9082 O   0  0  0  0  0  0  0  0  0  0  0  0
   21.6001  -21.2768  -11.8883 O   0  0  0  0  0  0  0  0  0  0  0  0
   22.6286  -20.8792  -12.7082 C   0  0  0  0  0  0  0  0  0  0  0  0
   22.2161  -20.4716  -14.0838 C   0  0  2  0  0  0  0  0  0  0  0  0
   23.3748  -20.0341  -14.8216 N   0  0  0  0  0  0  0  0  0  0  0  0
   21.1574  -19.4384  -14.0713 C   0  0  0  0  0  0  0  0  0  0  0  0
   21.4734  -18.2339  -13.8782 O   0  0  0  0  0  0  0  0  0  0  0  0
   19.7926  -19.6829  -14.2608 N   0  0  0  0  0  0  0  0  0  0  0  0
   18.7545  -18.6950  -14.2884 C   0  0  1  0  0  0  0  0  0  0  0  0
   18.9346  -17.5673  -15.1957 C   0  0  0  0  0  0  0  0  0  0  0  0
   18.8161  -17.8373  -16.6460 C   0  0  0  0  0  0  0  0  0  0  0  0
   17.8524  -18.7100  -17.1919 C   0  0  0  0  0  0  0  0  0  0  0  0
   17.9631  -18.7109  -18.5428 N   0  0  0  0  0  0  0  0  0  0  0  0
   18.9378  -17.8949  -18.9060 C   0  0  0  0  0  0  0  0  0  0  0  0
   19.4487  -17.5543  -20.1344 C   0  0  0  0  0  0  0  0  0  0  0  0
   20.5060  -16.6668  -20.2675 C   0  0  0  0  0  0  0  0  0  0  0  0
   21.0310  -16.1323  -19.0915 C   0  0  0  0  0  0  0  0  0  0  0  0
   20.5261  -16.4666  -17.8547 C   0  0  0  0  0  0  0  0  0  0  0  0
   19.4670  -17.3554  -17.7485 C   0  0  0  0  0  0  0  0  0  0  0  0
   17.4649  -19.3630  -14.4387 C   0  0  0  0  0  0  0  0  0  0  0  0
   17.2913  -20.5906  -14.6718 O   0  0  0  0  0  0  0  0  0  0  0  0
   16.2608  -18.6334  -14.3253 O   0  0  0  0  0  0  0  0  0  0  0  0
  2  1  1  6
  2  9  1  0
  2  3  1  0
  3  4  1  0
  4  5  2  0
  4  8  1  0
  5  6  1  0
  6  7  1  0
  8  7  2  0
  9 10  2  0
 11 12  1  0
 13 12  1  1
 14 13  1  0
 14  9  1  0
 15 17  1  0
 15 13  1  0
 16 15  2  0
 18 19  1  6
 18 17  1  0
 19 20  1  0
 20 21  2  0
 21 22  1  0
 23 22  1  0
 24 23  2  0
 25 24  1  0
 26 27  1  0
 26 25  2  0
 27 28  2  0
 28 20  1  0
 28 23  1  0
 29 31  1  0
 29 18  1  0
 30 29  2  0
M  END
$$$$
