HSW.pdb
     RDKit          3D

 31 33  0  0  1  0  0  0  0  0999 V2000
   17.7051  -14.6159  -17.0292 N   0  0  0  0  0  0  0  0  0  0  0  0
   17.3423  -13.3444  -17.5964 C   0  0  1  0  0  0  0  0  0  0  0  0
   15.8596  -13.2977  -17.8192 C   0  0  0  0  0  0  0  0  0  0  0  0
   15.5135  -14.3579  -18.7906 C   0  0  0  0  0  0  0  0  0  0  0  0
   14.9006  -15.5638  -18.5367 C   0  0  0  0  0  0  0  0  0  0  0  0
   14.7778  -16.2249  -19.7264 N   0  0  0  0  0  0  0  0  0  0  0  0
   15.2980  -15.4537  -20.6877 C   0  0  0  0  0  0  0  0  0  0  0  0
   15.7428  -14.3227  -20.1145 N   0  0  0  0  0  0  0  0  0  0  0  0
   17.8607  -12.2055  -16.8030 C   0  0  0  0  0  0  0  0  0  0  0  0
   17.7647  -12.2729  -15.5424 O   0  0  0  0  0  0  0  0  0  0  0  0
   19.1549   -8.6092  -18.6714 O   0  0  0  0  0  0  0  0  0  0  0  0
   19.7011   -9.0121  -17.4766 C   0  0  0  0  0  0  0  0  0  0  0  0
   18.8135   -9.8679  -16.6348 C   0  0  2  0  0  0  0  0  0  0  0  0
   18.4534  -11.0540  -17.3708 N   0  0  0  0  0  0  0  0  0  0  0  0
   17.6172   -9.1400  -16.1575 C   0  0  0  0  0  0  0  0  0  0  0  0
   16.4984   -9.3789  -16.6857 O   0  0  0  0  0  0  0  0  0  0  0  0
   17.6131   -8.1794  -15.1399 N   0  0  0  0  0  0  0  0  0  0  0  0
   16.4615   -7.4935  -14.6320 C   0  0  1  0  0  0  0  0  0  0  0  0
   15.3985   -8.3130  -14.0610 C   0  0  0  0  0  0  0  0  0  0  0  0
   15.6119   -8.8481  -12.6977 C   0  0  0  0  0  0  0  0  0  0  0  0
   16.7681   -8.5804  -11.9362 C   0  0  0  0  0  0  0  0  0  0  0  0
   16.6486   -9.1658  -10.7196 N   0  0  0  0  0  0  0  0  0  0  0  0
   15.4889   -9.7962  -10.6455 C   0  0  0  0  0  0  0  0  0  0  0  0
   14.9025  -10.5391   -9.6504 C   0  0  0  0  0  0  0  0  0  0  0  0
   13.6569  -11.1270   -9.8123 C   0  0  0  0  0  0  0  0  0  0  0  0
   13.0223  -10.9296  -11.0380 C   0  0  0  0  0  0  0  0  0  0  0  0
   13.6010  -10.1862  -12.0425 C   0  0  0  0  0  0  0  0  0  0  0  0
   14.8469   -9.6071  -11.8551 C   0  0  0  0  0  0  0  0  0  0  0  0
   16.8996   -6.4131  -13.7530 C   0  0  0  0  0  0  0  0  0  0  0  0
   18.0896   -6.1806  -13.4044 O   0  0  0  0  0  0  0  0  0  0  0  0
   15.9634   -5.5076  -13.2067 O   0  0  0  0  0  0  0  0  0  0  0  0
  2  1  1  1
  2  9  1  0
  2  3  1  0
  3  4  1  0
  4  5  2  0
  4  8  1  0
  5  6  1  0
  6  7  1  0
  8  7  2  0
  9 10  2  0
 11 12  1  0
 13 12  1  6
 14 13  1  0
 14  9  1  0
 15 17  1  0
 15 13  1  0
 16 15  2  0
 18 19  1  1
 18 17  1  0
 19 20  1  0
 20 21  2  0
 21 22  1  0
 23 22  1  0
 24 23  2  0
 25 24  1  0
 26 27  1  0
 26 25  2  0
 27 28  2  0
 28 20  1  0
 28 23  1  0
 29 31  1  0
 29 18  1  0
 30 29  2  0
M  END
$$$$
