HSW.pdb
     RDKit          3D

 31 33  0  0  1  0  0  0  0  0999 V2000
   17.4388  -11.2353  -18.4751 N   0  0  0  0  0  0  0  0  0  0  0  0
   16.9237   -9.9042  -18.2932 C   0  0  1  0  0  0  0  0  0  0  0  0
   16.0168   -9.8746  -17.0988 C   0  0  0  0  0  0  0  0  0  0  0  0
   14.8438  -10.7241  -17.3990 C   0  0  0  0  0  0  0  0  0  0  0  0
   13.8052  -10.4503  -18.2597 C   0  0  0  0  0  0  0  0  0  0  0  0
   12.9469  -11.5132  -18.2248 N   0  0  0  0  0  0  0  0  0  0  0  0
   13.4374  -12.4174  -17.3697 C   0  0  0  0  0  0  0  0  0  0  0  0
   14.5879  -11.9337  -16.8718 N   0  0  0  0  0  0  0  0  0  0  0  0
   17.9989   -8.8857  -18.2490 C   0  0  0  0  0  0  0  0  0  0  0  0
   19.0305   -9.1466  -17.5631 O   0  0  0  0  0  0  0  0  0  0  0  0
   17.5598   -4.8673  -19.7369 O   0  0  0  0  0  0  0  0  0  0  0  0
   18.6968   -5.6120  -19.9390 C   0  0  0  0  0  0  0  0  0  0  0  0
   18.9710   -6.6402  -18.8920 C   0  0  2  0  0  0  0  0  0  0  0  0
   17.9384   -7.6456  -18.9259 N   0  0  0  0  0  0  0  0  0  0  0  0
   19.1090   -6.0477  -17.5434 C   0  0  0  0  0  0  0  0  0  0  0  0
   18.1718   -6.1821  -16.7119 O   0  0  0  0  0  0  0  0  0  0  0  0
   20.2209   -5.3286  -17.0908 N   0  0  0  0  0  0  0  0  0  0  0  0
   20.3541   -4.6991  -15.8100 C   0  0  1  0  0  0  0  0  0  0  0  0
   20.8063   -5.5345  -14.7032 C   0  0  0  0  0  0  0  0  0  0  0  0
   22.0468   -6.3158  -14.9052 C   0  0  0  0  0  0  0  0  0  0  0  0
   23.2726   -5.7322  -15.2864 C   0  0  0  0  0  0  0  0  0  0  0  0
   24.2276   -6.6924  -15.3422 N   0  0  0  0  0  0  0  0  0  0  0  0
   23.6978   -7.8606  -15.0222 C   0  0  0  0  0  0  0  0  0  0  0  0
   24.2283   -9.1246  -14.9393 C   0  0  0  0  0  0  0  0  0  0  0  0
   23.4559  -10.2216  -14.5885 C   0  0  0  0  0  0  0  0  0  0  0  0
   22.1081   -9.9833  -14.3225 C   0  0  0  0  0  0  0  0  0  0  0  0
   21.5659   -8.7199  -14.4022 C   0  0  0  0  0  0  0  0  0  0  0  0
   22.3601   -7.6388  -14.7535 C   0  0  0  0  0  0  0  0  0  0  0  0
   21.1235   -3.4675  -15.9621 C   0  0  0  0  0  0  0  0  0  0  0  0
   21.3876   -2.6431  -15.0444 O   0  0  0  0  0  0  0  0  0  0  0  0
   21.6512   -3.1014  -17.2200 O   0  0  0  0  0  0  0  0  0  0  0  0
  2  1  1  1
  2  9  1  0
  2  3  1  0
  3  4  1  0
  4  5  2  0
  4  8  1  0
  5  6  1  0
  6  7  1  0
  8  7  2  0
  9 10  2  0
 11 12  1  0
 13 12  1  6
 14 13  1  0
 14  9  1  0
 15 17  1  0
 15 13  1  0
 16 15  2  0
 18 19  1  1
 18 17  1  0
 19 20  1  0
 20 21  2  0
 21 22  1  0
 23 22  1  0
 24 23  2  0
 25 24  1  0
 26 27  1  0
 26 25  2  0
 27 28  2  0
 28 20  1  0
 28 23  1  0
 29 31  1  0
 29 18  1  0
 30 29  2  0
M  END
$$$$
