HSW.pdb
     RDKit          3D

 31 33  0  0  1  0  0  0  0  0999 V2000
   25.2608  -19.7072  -17.1057 N   0  0  0  0  0  0  0  0  0  0  0  0
   25.7722  -19.1163  -15.8975 C   0  0  1  0  0  0  0  0  0  0  0  0
   24.7778  -18.1305  -15.3596 C   0  0  0  0  0  0  0  0  0  0  0  0
   24.6188  -17.0542  -16.3615 C   0  0  0  0  0  0  0  0  0  0  0  0
   23.4565  -16.6335  -16.9668 C   0  0  0  0  0  0  0  0  0  0  0  0
   23.7786  -15.6163  -17.8207 N   0  0  0  0  0  0  0  0  0  0  0  0
   25.0986  -15.4125  -17.7474 C   0  0  0  0  0  0  0  0  0  0  0  0
   25.6032  -16.2874  -16.8610 N   0  0  0  0  0  0  0  0  0  0  0  0
   26.1951  -20.1348  -14.9080 C   0  0  0  0  0  0  0  0  0  0  0  0
   25.3618  -21.0355  -14.5960 O   0  0  0  0  0  0  0  0  0  0  0  0
   29.7777  -21.7197  -11.9440 O   0  0  0  0  0  0  0  0  0  0  0  0
   29.3046  -20.9295  -12.9637 C   0  0  0  0  0  0  0  0  0  0  0  0
   27.8284  -20.9933  -13.1772 C   0  0  2  0  0  0  0  0  0  0  0  0
   27.4696  -20.1579  -14.2958 N   0  0  0  0  0  0  0  0  0  0  0  0
   27.0674  -20.6307  -11.9615 C   0  0  0  0  0  0  0  0  0  0  0  0
   26.8636  -19.4147  -11.7013 O   0  0  0  0  0  0  0  0  0  0  0  0
   26.5350  -21.5433  -11.0438 N   0  0  0  0  0  0  0  0  0  0  0  0
   26.2621  -21.2864   -9.6603 C   0  0  1  0  0  0  0  0  0  0  0  0
   27.4099  -21.0851   -8.7831 C   0  0  0  0  0  0  0  0  0  0  0  0
   27.1400  -20.5886   -7.4153 C   0  0  0  0  0  0  0  0  0  0  0  0
   25.8564  -20.5949   -6.8316 C   0  0  0  0  0  0  0  0  0  0  0  0
   25.9392  -20.1263   -5.5625 N   0  0  0  0  0  0  0  0  0  0  0  0
   27.1946  -19.8162   -5.2878 C   0  0  0  0  0  0  0  0  0  0  0  0
   27.7954  -19.3021   -4.1649 C   0  0  0  0  0  0  0  0  0  0  0  0
   29.1568  -19.0420   -4.1164 C   0  0  0  0  0  0  0  0  0  0  0  0
   29.8933  -19.3269   -5.2655 C   0  0  0  0  0  0  0  0  0  0  0  0
   29.3011  -19.8430   -6.3967 C   0  0  0  0  0  0  0  0  0  0  0  0
   27.9379  -20.0959   -6.4192 C   0  0  0  0  0  0  0  0  0  0  0  0
   25.2605  -20.2287   -9.5605 C   0  0  0  0  0  0  0  0  0  0  0  0
   25.4683  -18.9959   -9.7294 O   0  0  0  0  0  0  0  0  0  0  0  0
   23.9177  -20.5384   -9.2510 O   0  0  0  0  0  0  0  0  0  0  0  0
  2  1  1  6
  2  9  1  0
  2  3  1  0
  3  4  1  0
  4  5  2  0
  4  8  1  0
  5  6  1  0
  6  7  1  0
  8  7  2  0
  9 10  2  0
 11 12  1  0
 13 12  1  1
 14 13  1  0
 14  9  1  0
 15 17  1  0
 15 13  1  0
 16 15  2  0
 18 19  1  1
 18 17  1  0
 19 20  1  0
 20 21  2  0
 21 22  1  0
 23 22  1  0
 24 23  2  0
 25 24  1  0
 26 27  1  0
 26 25  2  0
 27 28  2  0
 28 20  1  0
 28 23  1  0
 29 31  1  0
 29 18  1  0
 30 29  2  0
M  END
$$$$
