HSW.pdb
     RDKit          3D

 31 33  0  0  1  0  0  0  0  0999 V2000
   20.9010  -12.5180  -18.0530 N   0  0  0  0  0  0  0  0  0  0  0  0
   19.8477  -11.6031  -17.7013 C   0  0  1  0  0  0  0  0  0  0  0  0
   19.2198  -12.0317  -16.4083 C   0  0  0  0  0  0  0  0  0  0  0  0
   18.4675  -13.2797  -16.6613 C   0  0  0  0  0  0  0  0  0  0  0  0
   18.8039  -14.5575  -16.2760 C   0  0  0  0  0  0  0  0  0  0  0  0
   17.8221  -15.3969  -16.7221 N   0  0  0  0  0  0  0  0  0  0  0  0
   16.9058  -14.6632  -17.3637 C   0  0  0  0  0  0  0  0  0  0  0  0
   17.3023  -13.3799  -17.3238 N   0  0  0  0  0  0  0  0  0  0  0  0
   20.3030  -10.1931  -17.7029 C   0  0  0  0  0  0  0  0  0  0  0  0
   21.4835   -9.9542  -17.3127 O   0  0  0  0  0  0  0  0  0  0  0  0
   17.7081   -6.8465  -18.4034 O   0  0  0  0  0  0  0  0  0  0  0  0
   18.9545   -6.9374  -18.9748 C   0  0  0  0  0  0  0  0  0  0  0  0
   19.9468   -7.7378  -18.1981 C   0  0  2  0  0  0  0  0  0  0  0  0
   19.4982   -9.1052  -18.1132 N   0  0  0  0  0  0  0  0  0  0  0  0
   20.2062   -7.1664  -16.8584 C   0  0  0  0  0  0  0  0  0  0  0  0
   19.5056   -7.5430  -15.8811 O   0  0  0  0  0  0  0  0  0  0  0  0
   21.1904   -6.2154  -16.5664 N   0  0  0  0  0  0  0  0  0  0  0  0
   21.5465   -5.7435  -15.2606 C   0  0  1  0  0  0  0  0  0  0  0  0
   22.3896   -6.6124  -14.4473 C   0  0  0  0  0  0  0  0  0  0  0  0
   23.5922   -7.1871  -15.0907 C   0  0  0  0  0  0  0  0  0  0  0  0
   24.4173   -6.4594  -15.9727 C   0  0  0  0  0  0  0  0  0  0  0  0
   25.4592   -7.2372  -16.3557 N   0  0  0  0  0  0  0  0  0  0  0  0
   25.3604   -8.4224  -15.7784 C   0  0  0  0  0  0  0  0  0  0  0  0
   26.1411   -9.5504  -15.8437 C   0  0  0  0  0  0  0  0  0  0  0  0
   25.8214  -10.7041  -15.1437 C   0  0  0  0  0  0  0  0  0  0  0  0
   24.6647  -10.6682  -14.3658 C   0  0  0  0  0  0  0  0  0  0  0  0
   23.8750   -9.5423  -14.2928 C   0  0  0  0  0  0  0  0  0  0  0  0
   24.2174   -8.4006  -15.0013 C   0  0  0  0  0  0  0  0  0  0  0  0
   22.0512   -4.3777  -15.3689 C   0  0  0  0  0  0  0  0  0  0  0  0
   22.1875   -3.7228  -16.4385 O   0  0  0  0  0  0  0  0  0  0  0  0
   22.4409   -3.6627  -14.2148 O   0  0  0  0  0  0  0  0  0  0  0  0
  2  1  1  1
  2  9  1  0
  2  3  1  0
  3  4  1  0
  4  5  2  0
  4  8  1  0
  5  6  1  0
  6  7  1  0
  8  7  2  0
  9 10  2  0
 11 12  1  0
 13 12  1  1
 14 13  1  0
 14  9  1  0
 15 17  1  0
 15 13  1  0
 16 15  2  0
 18 19  1  6
 18 17  1  0
 19 20  1  0
 20 21  2  0
 21 22  1  0
 23 22  1  0
 24 23  2  0
 25 24  1  0
 26 27  1  0
 26 25  2  0
 27 28  2  0
 28 20  1  0
 28 23  1  0
 29 31  1  0
 29 18  1  0
 30 29  2  0
M  END
$$$$
