HSW.pdb
     RDKit          3D

 31 33  0  0  1  0  0  0  0  0999 V2000
   12.6742  -19.1664    4.1099 N   0  0  0  0  0  0  0  0  0  0  0  0
   13.8668  -19.6360    3.4561 C   0  0  1  0  0  0  0  0  0  0  0  0
   14.5114  -18.5043    2.7119 C   0  0  0  0  0  0  0  0  0  0  0  0
   13.5763  -18.0671    1.6527 C   0  0  0  0  0  0  0  0  0  0  0  0
   13.2783  -18.7132    0.4745 C   0  0  0  0  0  0  0  0  0  0  0  0
   12.3654  -17.9499   -0.1973 N   0  0  0  0  0  0  0  0  0  0  0  0
   12.1053  -16.8649    0.5405 C   0  0  0  0  0  0  0  0  0  0  0  0
   12.8424  -16.9410    1.6614 N   0  0  0  0  0  0  0  0  0  0  0  0
   14.7830  -20.3329    4.3889 C   0  0  0  0  0  0  0  0  0  0  0  0
   14.9280  -19.8445    5.5479 O   0  0  0  0  0  0  0  0  0  0  0  0
   17.7885  -23.4462    3.4284 O   0  0  0  0  0  0  0  0  0  0  0  0
   16.7720  -23.5152    4.3505 C   0  0  0  0  0  0  0  0  0  0  0  0
   16.3829  -22.2083    4.9581 C   0  0  2  0  0  0  0  0  0  0  0  0
   15.5005  -21.5062    4.0599 N   0  0  0  0  0  0  0  0  0  0  0  0
   17.5567  -21.3845    5.3217 C   0  0  0  0  0  0  0  0  0  0  0  0
   17.8988  -20.4327    4.5701 O   0  0  0  0  0  0  0  0  0  0  0  0
   18.3480  -21.5704    6.4608 N   0  0  0  0  0  0  0  0  0  0  0  0
   19.5081  -20.8072    6.8158 C   0  0  1  0  0  0  0  0  0  0  0  0
   19.3860  -19.3543    6.7732 C   0  0  0  0  0  0  0  0  0  0  0  0
   20.5086  -18.5624    7.3236 C   0  0  0  0  0  0  0  0  0  0  0  0
   21.7560  -18.4399    6.6775 C   0  0  0  0  0  0  0  0  0  0  0  0
   22.5550  -17.6163    7.3988 N   0  0  0  0  0  0  0  0  0  0  0  0
   21.9046  -17.1985    8.4712 C   0  0  0  0  0  0  0  0  0  0  0  0
   22.2651  -16.3730    9.5078 C   0  0  0  0  0  0  0  0  0  0  0  0
   21.3977  -16.0854   10.5509 C   0  0  0  0  0  0  0  0  0  0  0  0
   20.1353  -16.6754   10.5007 C   0  0  0  0  0  0  0  0  0  0  0  0
   19.7633  -17.5043    9.4657 C   0  0  0  0  0  0  0  0  0  0  0  0
   20.6487  -17.7748    8.4334 C   0  0  0  0  0  0  0  0  0  0  0  0
   20.0411  -21.3099    8.0788 C   0  0  0  0  0  0  0  0  0  0  0  0
   19.3647  -21.5977    9.1040 O   0  0  0  0  0  0  0  0  0  0  0  0
   21.4288  -21.5179    8.2404 O   0  0  0  0  0  0  0  0  0  0  0  0
  2  1  1  1
  2  9  1  0
  2  3  1  0
  3  4  1  0
  4  5  2  0
  4  8  1  0
  5  6  1  0
  6  7  1  0
  8  7  2  0
  9 10  2  0
 11 12  1  0
 13 12  1  6
 14 13  1  0
 14  9  1  0
 15 17  1  0
 15 13  1  0
 16 15  2  0
 18 19  1  1
 18 17  1  0
 19 20  1  0
 20 21  2  0
 21 22  1  0
 23 22  1  0
 24 23  2  0
 25 24  1  0
 26 27  1  0
 26 25  2  0
 27 28  2  0
 28 20  1  0
 28 23  1  0
 29 31  1  0
 29 18  1  0
 30 29  2  0
M  END
$$$$
