HSW.pdb
     RDKit          3D

 31 33  0  0  1  0  0  0  0  0999 V2000
   35.5582  -28.5001  -18.4566 N   0  0  0  0  0  0  0  0  0  0  0  0
   34.7888  -27.2967  -18.6306 C   0  0  1  0  0  0  0  0  0  0  0  0
   34.4310  -27.1333  -20.0781 C   0  0  0  0  0  0  0  0  0  0  0  0
   35.6467  -26.6980  -20.7994 C   0  0  0  0  0  0  0  0  0  0  0  0
   36.4749  -27.4623  -21.5894 C   0  0  0  0  0  0  0  0  0  0  0  0
   37.4710  -26.6498  -22.0533 N   0  0  0  0  0  0  0  0  0  0  0  0
   37.2671  -25.4206  -21.5665 C   0  0  0  0  0  0  0  0  0  0  0  0
   36.1594  -25.4556  -20.8067 N   0  0  0  0  0  0  0  0  0  0  0  0
   33.6222  -27.2377  -17.7191 C   0  0  0  0  0  0  0  0  0  0  0  0
   32.9511  -28.2979  -17.5508 O   0  0  0  0  0  0  0  0  0  0  0  0
   33.0911  -25.1245  -14.0656 O   0  0  0  0  0  0  0  0  0  0  0  0
   32.3235  -24.8521  -15.1723 C   0  0  0  0  0  0  0  0  0  0  0  0
   32.1207  -26.0058  -16.0978 C   0  0  2  0  0  0  0  0  0  0  0  0
   33.2182  -26.0707  -17.0303 N   0  0  0  0  0  0  0  0  0  0  0  0
   30.8174  -25.9459  -16.7952 C   0  0  0  0  0  0  0  0  0  0  0  0
   30.7466  -25.3887  -17.9232 O   0  0  0  0  0  0  0  0  0  0  0  0
   29.6165  -26.4684  -16.3021 N   0  0  0  0  0  0  0  0  0  0  0  0
   28.3108  -26.2422  -16.8483 C   0  0  1  0  0  0  0  0  0  0  0  0
   27.1968  -26.9419  -16.2182 C   0  0  0  0  0  0  0  0  0  0  0  0
   25.8347  -26.6236  -16.7016 C   0  0  0  0  0  0  0  0  0  0  0  0
   25.3672  -26.9831  -17.9825 C   0  0  0  0  0  0  0  0  0  0  0  0
   24.0737  -26.5991  -18.1111 N   0  0  0  0  0  0  0  0  0  0  0  0
   23.6745  -26.0131  -16.9953 C   0  0  0  0  0  0  0  0  0  0  0  0
   22.4787  -25.4488  -16.6242 C   0  0  0  0  0  0  0  0  0  0  0  0
   22.2977  -24.8695  -15.3773 C   0  0  0  0  0  0  0  0  0  0  0  0
   23.3906  -24.8849  -14.5115 C   0  0  0  0  0  0  0  0  0  0  0  0
   24.5939  -25.4485  -14.8732 C   0  0  0  0  0  0  0  0  0  0  0  0
   24.7489  -26.0231  -16.1256 C   0  0  0  0  0  0  0  0  0  0  0  0
   28.0935  -24.8048  -16.9841 C   0  0  0  0  0  0  0  0  0  0  0  0
   28.3849  -23.9289  -16.1242 O   0  0  0  0  0  0  0  0  0  0  0  0
   27.5096  -24.2745  -18.1558 O   0  0  0  0  0  0  0  0  0  0  0  0
  2  1  1  6
  2  9  1  0
  2  3  1  0
  3  4  1  0
  4  5  2  0
  4  8  1  0
  5  6  1  0
  6  7  1  0
  8  7  2  0
  9 10  2  0
 11 12  1  0
 13 12  1  6
 14 13  1  0
 14  9  1  0
 15 17  1  0
 15 13  1  0
 16 15  2  0
 18 19  1  1
 18 17  1  0
 19 20  1  0
 20 21  2  0
 21 22  1  0
 23 22  1  0
 24 23  2  0
 25 24  1  0
 26 27  1  0
 26 25  2  0
 27 28  2  0
 28 20  1  0
 28 23  1  0
 29 31  1  0
 29 18  1  0
 30 29  2  0
M  END
$$$$
