HSW.pdb
     RDKit          3D

 31 33  0  0  1  0  0  0  0  0999 V2000
   27.9104  -21.1909  -14.7943 N   0  0  0  0  0  0  0  0  0  0  0  0
   26.9407  -20.3974  -14.0869 C   0  0  1  0  0  0  0  0  0  0  0  0
   27.6430  -19.4780  -13.1323 C   0  0  0  0  0  0  0  0  0  0  0  0
   28.4360  -20.3103  -12.2016 C   0  0  0  0  0  0  0  0  0  0  0  0
   29.7710  -20.6331  -12.2911 C   0  0  0  0  0  0  0  0  0  0  0  0
   30.0800  -21.4195  -11.2170 N   0  0  0  0  0  0  0  0  0  0  0  0
   28.9722  -21.5793  -10.4846 C   0  0  0  0  0  0  0  0  0  0  0  0
   27.9781  -20.9045  -11.0864 N   0  0  0  0  0  0  0  0  0  0  0  0
   26.0057  -19.7028  -15.0026 C   0  0  0  0  0  0  0  0  0  0  0  0
   26.4646  -19.2791  -16.1039 O   0  0  0  0  0  0  0  0  0  0  0  0
   22.7307  -19.5924  -17.8250 O   0  0  0  0  0  0  0  0  0  0  0  0
   23.6257  -19.9390  -16.8416 C   0  0  0  0  0  0  0  0  0  0  0  0
   23.6649  -19.0137  -15.6708 C   0  0  2  0  0  0  0  0  0  0  0  0
   24.6374  -19.4876  -14.7179 N   0  0  0  0  0  0  0  0  0  0  0  0
   22.3347  -18.8369  -15.0479 C   0  0  0  0  0  0  0  0  0  0  0  0
   21.8878  -19.7333  -14.2832 O   0  0  0  0  0  0  0  0  0  0  0  0
   21.4996  -17.7297  -15.2351 N   0  0  0  0  0  0  0  0  0  0  0  0
   20.2681  -17.4760  -14.5470 C   0  0  1  0  0  0  0  0  0  0  0  0
   19.6836  -16.1483  -14.6990 C   0  0  0  0  0  0  0  0  0  0  0  0
   19.3055  -15.7255  -16.0659 C   0  0  0  0  0  0  0  0  0  0  0  0
   18.0527  -16.0159  -16.6444 C   0  0  0  0  0  0  0  0  0  0  0  0
   17.9886  -15.4573  -17.8776 N   0  0  0  0  0  0  0  0  0  0  0  0
   19.1205  -14.8246  -18.1347 C   0  0  0  0  0  0  0  0  0  0  0  0
   19.5570  -14.1184  -19.2287 C   0  0  0  0  0  0  0  0  0  0  0  0
   20.8180  -13.5430  -19.2738 C   0  0  0  0  0  0  0  0  0  0  0  0
   21.6286  -13.7146  -18.1524 C   0  0  0  0  0  0  0  0  0  0  0  0
   21.2009  -14.4204  -17.0499 C   0  0  0  0  0  0  0  0  0  0  0  0
   19.9344  -14.9848  -17.0289 C   0  0  0  0  0  0  0  0  0  0  0  0
   19.3319  -18.5601  -14.8302 C   0  0  0  0  0  0  0  0  0  0  0  0
   19.4025  -19.3629  -15.8008 O   0  0  0  0  0  0  0  0  0  0  0  0
   18.2242  -18.7913  -13.9849 O   0  0  0  0  0  0  0  0  0  0  0  0
  2  1  1  6
  2  9  1  0
  2  3  1  0
  3  4  1  0
  4  5  2  0
  4  8  1  0
  5  6  1  0
  6  7  1  0
  8  7  2  0
  9 10  2  0
 11 12  1  0
 13 12  1  6
 14 13  1  0
 14  9  1  0
 15 17  1  0
 15 13  1  0
 16 15  2  0
 18 19  1  6
 18 17  1  0
 19 20  1  0
 20 21  2  0
 21 22  1  0
 23 22  1  0
 24 23  2  0
 25 24  1  0
 26 27  1  0
 26 25  2  0
 27 28  2  0
 28 20  1  0
 28 23  1  0
 29 31  1  0
 29 18  1  0
 30 29  2  0
M  END
$$$$
