HSW.pdb
     RDKit          3D

 31 33  0  0  1  0  0  0  0  0999 V2000
   27.2383  -20.6965  -17.8419 N   0  0  0  0  0  0  0  0  0  0  0  0
   27.6626  -21.5271  -16.7463 C   0  0  1  0  0  0  0  0  0  0  0  0
   28.9508  -22.2086  -17.1012 C   0  0  0  0  0  0  0  0  0  0  0  0
   28.7027  -23.0588  -18.2858 C   0  0  0  0  0  0  0  0  0  0  0  0
   27.9810  -24.2293  -18.3447 C   0  0  0  0  0  0  0  0  0  0  0  0
   28.0141  -24.6719  -19.6372 N   0  0  0  0  0  0  0  0  0  0  0  0
   28.7334  -23.8037  -20.3571 C   0  0  0  0  0  0  0  0  0  0  0  0
   29.1487  -22.8274  -19.5325 N   0  0  0  0  0  0  0  0  0  0  0  0
   27.7155  -20.7851  -15.4649 C   0  0  0  0  0  0  0  0  0  0  0  0
   28.7535  -20.1025  -15.2213 O   0  0  0  0  0  0  0  0  0  0  0  0
   24.4317  -19.2533  -13.6914 O   0  0  0  0  0  0  0  0  0  0  0  0
   25.7261  -18.8945  -13.4019 C   0  0  0  0  0  0  0  0  0  0  0  0
   26.6835  -20.0335  -13.2807 C   0  0  2  0  0  0  0  0  0  0  0  0
   26.6781  -20.7961  -14.5041 N   0  0  0  0  0  0  0  0  0  0  0  0
   26.3977  -20.8870  -12.1066 C   0  0  0  0  0  0  0  0  0  0  0  0
   25.7296  -21.9442  -12.2607 O   0  0  0  0  0  0  0  0  0  0  0  0
   26.8148  -20.6202  -10.7977 N   0  0  0  0  0  0  0  0  0  0  0  0
   26.4519  -21.3653   -9.6283 C   0  0  1  0  0  0  0  0  0  0  0  0
   27.4459  -21.4585   -8.5650 C   0  0  0  0  0  0  0  0  0  0  0  0
   27.5638  -20.3067   -7.6432 C   0  0  0  0  0  0  0  0  0  0  0  0
   26.8878  -19.0856   -7.8440 C   0  0  0  0  0  0  0  0  0  0  0  0
   27.1566  -18.2497   -6.8115 N   0  0  0  0  0  0  0  0  0  0  0  0
   27.9644  -18.8518   -5.9555 C   0  0  0  0  0  0  0  0  0  0  0  0
   28.5310  -18.4412   -4.7738 C   0  0  0  0  0  0  0  0  0  0  0  0
   29.3755  -19.2625   -4.0420 C   0  0  0  0  0  0  0  0  0  0  0  0
   29.6259  -20.5315   -4.5625 C   0  0  0  0  0  0  0  0  0  0  0  0
   29.0627  -20.9536   -5.7462 C   0  0  0  0  0  0  0  0  0  0  0  0
   28.2199  -20.1138   -6.4584 C   0  0  0  0  0  0  0  0  0  0  0  0
   25.1428  -20.9153   -9.1638 C   0  0  0  0  0  0  0  0  0  0  0  0
   24.5677  -19.8439   -9.4999 O   0  0  0  0  0  0  0  0  0  0  0  0
   24.3951  -21.6976   -8.2562 O   0  0  0  0  0  0  0  0  0  0  0  0
  2  1  1  6
  2  9  1  0
  2  3  1  0
  3  4  1  0
  4  5  2  0
  4  8  1  0
  5  6  1  0
  6  7  1  0
  8  7  2  0
  9 10  2  0
 11 12  1  0
 13 12  1  6
 14 13  1  0
 14  9  1  0
 15 17  1  0
 15 13  1  0
 16 15  2  0
 18 19  1  1
 18 17  1  0
 19 20  1  0
 20 21  2  0
 21 22  1  0
 23 22  1  0
 24 23  2  0
 25 24  1  0
 26 27  1  0
 26 25  2  0
 27 28  2  0
 28 20  1  0
 28 23  1  0
 29 31  1  0
 29 18  1  0
 30 29  2  0
M  END
$$$$
