TRY.pdb
     RDKit          3D

 31 31  0  0  1  0  0  0  0  0999 V2000
    9.0858  -12.5146   20.7114 C   0  0  0  0  0  0  0  0  0  0  0  0
    7.7992  -13.0058   20.0828 C   0  0  1  0  0  0  0  0  0  0  0  0
    7.5526  -12.1560   18.9870 O   0  0  0  0  0  0  0  0  0  0  0  0
    8.0514  -14.4095   19.5534 C   0  0  2  0  0  0  0  0  0  0  0  0
    6.8926  -14.7747   18.7781 N   0  0  0  0  0  0  0  0  0  0  0  0
    8.2858  -15.3685   20.6589 C   0  0  0  0  0  0  0  0  0  0  0  0
    7.2981  -15.7454   21.3347 O   0  0  0  0  0  0  0  0  0  0  0  0
   12.9960  -20.9915   19.7795 N   0  0  0  0  0  0  0  0  0  0  0  0
   12.6129  -20.4248   18.5414 C   0  0  0  0  0  0  0  0  0  0  0  0
   12.5213  -21.0726   17.4442 N   0  0  0  0  0  0  0  0  0  0  0  0
   12.2973  -19.0183   18.4838 N   0  0  0  0  0  0  0  0  0  0  0  0
   12.4323  -18.2033   19.6696 C   0  0  0  0  0  0  0  0  0  0  0  0
   11.2002  -18.3400   20.5030 C   0  0  0  0  0  0  0  0  0  0  0  0
   11.1940  -17.4835   21.7235 C   0  0  0  0  0  0  0  0  0  0  0  0
    9.8938  -16.7555   21.9710 C   0  0  2  0  0  0  0  0  0  0  0  0
    9.6100  -15.8125   20.8990 N   0  0  0  0  0  0  0  0  0  0  0  0
    9.8561  -16.0495   23.2627 C   0  0  0  0  0  0  0  0  0  0  0  0
   10.5779  -15.0363   23.4196 O   0  0  0  0  0  0  0  0  0  0  0  0
   12.2543  -20.5133   16.5899 O   0  0  0  0  0  0  0  0  0  0  0  0
    5.9486  -10.1675   25.8016 C   0  0  0  0  0  0  0  0  0  0  0  0
    6.3792  -11.5011   25.8897 C   0  0  0  0  0  0  0  0  0  0  0  0
    7.4210  -11.8634   26.7233 C   0  0  0  0  0  0  0  0  0  0  0  0
    7.8450  -13.1733   26.8107 C   0  0  0  0  0  0  0  0  0  0  0  0
    7.2291  -14.1531   26.0588 C   0  0  0  0  0  0  0  0  0  0  0  0
    7.6481  -15.5620   26.1116 C   0  0  2  0  0  0  0  0  0  0  0  0
    9.0647  -15.8060   25.6606 N   0  0  0  0  0  0  0  0  0  0  0  0
    9.0431  -16.4485   24.3573 C   0  0  0  0  0  0  0  0  0  0  0  0
    9.7926  -16.6863   26.5956 O   0  0  0  0  0  0  0  0  0  0  0  0
   10.0280  -16.2981   27.7663 C   0  0  0  0  0  0  0  0  0  0  0  0
    6.1945  -13.7775   25.2344 C   0  0  0  0  0  0  0  0  0  0  0  0
    5.7599  -12.4670   25.1381 O   0  0  0  0  0  0  0  0  0  0  0  0
  2  1  1  6
  2  4  1  0
  3  2  1  0
  4  5  1  1
  6  7  2  0
  6  4  1  0
  9  8  1  0
 10  9  2  0
 11  9  1  0
 12 11  1  0
 12 13  1  0
 13 14  1  0
 15 14  1  6
 15 16  1  0
 16  6  1  0
 17 26  1  0
 17 15  1  0
 18 17  2  0
 20 19  1  0
 21 20  2  0
 22 21  1  0
 23 29  1  0
 23 22  2  0
 25 24  1  6
 24 23  1  0
 25 26  1  0
 27 25  1  0
 28 27  2  0
 29 30  2  0
 30 20  1  0
 31 27  1  0
M  END
$$$$
