TRY.pdb
     RDKit          3D

 31 31  0  0  1  0  0  0  0  0999 V2000
    4.9673  -20.3736   23.4464 C   0  0  0  0  0  0  0  0  0  0  0  0
    6.2029  -19.5066   23.3314 C   0  0  1  0  0  0  0  0  0  0  0  0
    7.0351  -19.8710   24.4078 O   0  0  0  0  0  0  0  0  0  0  0  0
    6.9069  -19.8769   22.0347 C   0  0  2  0  0  0  0  0  0  0  0  0
    7.1699  -21.2927   22.0953 N   0  0  0  0  0  0  0  0  0  0  0  0
    8.1583  -19.1020   21.8604 C   0  0  0  0  0  0  0  0  0  0  0  0
    9.2233  -19.5887   22.3112 O   0  0  0  0  0  0  0  0  0  0  0  0
    7.0641  -13.9257   15.9251 N   0  0  0  0  0  0  0  0  0  0  0  0
    7.7014  -13.4335   17.0880 C   0  0  0  0  0  0  0  0  0  0  0  0
    7.6496  -12.2206   17.4857 N   0  0  0  0  0  0  0  0  0  0  0  0
    8.4709  -14.3427   17.9019 N   0  0  0  0  0  0  0  0  0  0  0  0
    8.3813  -15.7661   17.6685 C   0  0  0  0  0  0  0  0  0  0  0  0
    9.2209  -16.4831   18.6748 C   0  0  0  0  0  0  0  0  0  0  0  0
    9.1075  -15.9396   20.0586 C   0  0  0  0  0  0  0  0  0  0  0  0
    9.2515  -16.9731   21.1509 C   0  0  2  0  0  0  0  0  0  0  0  0
    8.0923  -17.8526   21.1950 N   0  0  0  0  0  0  0  0  0  0  0  0
    9.4689  -16.3875   22.4844 C   0  0  0  0  0  0  0  0  0  0  0  0
    8.6344  -15.5625   22.9261 O   0  0  0  0  0  0  0  0  0  0  0  0
    8.1694  -11.9962   18.3765 O   0  0  0  0  0  0  0  0  0  0  0  0
   10.3226  -14.3196   30.7606 C   0  0  0  0  0  0  0  0  0  0  0  0
   10.1572  -14.8280   29.4622 C   0  0  0  0  0  0  0  0  0  0  0  0
   10.3667  -16.1663   29.1854 C   0  0  0  0  0  0  0  0  0  0  0  0
   10.2046  -16.6669   27.9102 C   0  0  0  0  0  0  0  0  0  0  0  0
    9.8268  -15.8304   26.8796 C   0  0  0  0  0  0  0  0  0  0  0  0
    9.6470  -16.3140   25.5023 C   0  0  1  0  0  0  0  0  0  0  0  0
   10.8316  -16.0786   24.6017 N   0  0  0  0  0  0  0  0  0  0  0  0
   10.5789  -16.7018   23.3135 C   0  0  0  0  0  0  0  0  0  0  0  0
   12.0677  -16.6609   25.1601 O   0  0  0  0  0  0  0  0  0  0  0  0
   12.9317  -15.9139   25.6817 C   0  0  0  0  0  0  0  0  0  0  0  0
    9.6220  -14.5019   27.1703 C   0  0  0  0  0  0  0  0  0  0  0  0
    9.7813  -13.9877   28.4454 O   0  0  0  0  0  0  0  0  0  0  0  0
  2  1  1  1
  2  4  1  0
  3  2  1  0
  4  5  1  1
  6  7  2  0
  6  4  1  0
  9  8  1  0
 10  9  2  0
 11  9  1  0
 12 11  1  0
 12 13  1  0
 13 14  1  0
 15 14  1  6
 15 16  1  0
 16  6  1  0
 17 26  1  0
 17 15  1  0
 18 17  2  0
 20 19  1  0
 21 20  2  0
 22 21  1  0
 23 29  1  0
 23 22  2  0
 25 24  1  6
 24 23  1  0
 25 26  1  0
 27 25  1  0
 28 27  2  0
 29 30  2  0
 30 20  1  0
 31 27  1  0
M  END
$$$$
