TRY.pdb
     RDKit          3D

 31 31  0  0  1  0  0  0  0  0999 V2000
    8.1295  -11.8467   19.5248 C   0  0  0  0  0  0  0  0  0  0  0  0
    8.3619  -12.9788   20.5026 C   0  0  1  0  0  0  0  0  0  0  0  0
    7.1871  -13.0737   21.2738 O   0  0  0  0  0  0  0  0  0  0  0  0
    8.5112  -14.2605   19.6970 C   0  0  2  0  0  0  0  0  0  0  0  0
    7.3985  -14.3071   18.7820 N   0  0  0  0  0  0  0  0  0  0  0  0
    8.5357  -15.4516   20.5787 C   0  0  0  0  0  0  0  0  0  0  0  0
    7.8572  -16.4517   20.2413 O   0  0  0  0  0  0  0  0  0  0  0  0
   11.0260  -22.3061   23.2654 N   0  0  0  0  0  0  0  0  0  0  0  0
   10.1980  -22.3241   22.1187 C   0  0  0  0  0  0  0  0  0  0  0  0
    9.5477  -23.3445   21.7090 N   0  0  0  0  0  0  0  0  0  0  0  0
   10.0590  -21.1194   21.3373 N   0  0  0  0  0  0  0  0  0  0  0  0
   11.0128  -20.0456   21.4983 C   0  0  0  0  0  0  0  0  0  0  0  0
   10.4180  -18.9858   22.3669 C   0  0  0  0  0  0  0  0  0  0  0  0
   10.0759  -17.7280   21.6430 C   0  0  0  0  0  0  0  0  0  0  0  0
    9.5751  -16.6119   22.5292 C   0  0  2  0  0  0  0  0  0  0  0  0
    9.3218  -15.4043   21.7568 N   0  0  0  0  0  0  0  0  0  0  0  0
   10.4864  -16.2957   23.6418 C   0  0  0  0  0  0  0  0  0  0  0  0
   11.6316  -16.8062   23.6495 O   0  0  0  0  0  0  0  0  0  0  0  0
    8.9922  -23.2212   20.8201 O   0  0  0  0  0  0  0  0  0  0  0  0
    5.7288  -11.0422   26.8322 C   0  0  0  0  0  0  0  0  0  0  0  0
    6.3611  -12.2851   26.6683 C   0  0  0  0  0  0  0  0  0  0  0  0
    5.6438  -13.4115   26.3099 C   0  0  0  0  0  0  0  0  0  0  0  0
    6.2638  -14.6333   26.1487 C   0  0  0  0  0  0  0  0  0  0  0  0
    7.6248  -14.7514   26.3450 C   0  0  0  0  0  0  0  0  0  0  0  0
    8.3312  -16.0324   26.1918 C   0  0  2  0  0  0  0  0  0  0  0  0
    9.8266  -15.9051   26.0600 N   0  0  0  0  0  0  0  0  0  0  0  0
   10.1462  -15.4375   24.7217 C   0  0  0  0  0  0  0  0  0  0  0  0
   10.5064  -17.1983   26.2703 O   0  0  0  0  0  0  0  0  0  0  0  0
   10.8345  -17.9011   25.2828 C   0  0  0  0  0  0  0  0  0  0  0  0
    8.3248  -13.6225   26.7010 C   0  0  0  0  0  0  0  0  0  0  0  0
    7.7142  -12.3914   26.8657 O   0  0  0  0  0  0  0  0  0  0  0  0
  2  1  1  6
  2  4  1  0
  3  2  1  0
  4  5  1  6
  6  7  2  0
  6  4  1  0
  9  8  1  0
 10  9  2  0
 11  9  1  0
 12 11  1  0
 12 13  1  0
 13 14  1  0
 15 14  1  6
 15 16  1  0
 16  6  1  0
 17 26  1  0
 17 15  1  0
 18 17  2  0
 20 19  1  0
 21 20  2  0
 22 21  1  0
 23 29  1  0
 23 22  2  0
 25 24  1  1
 24 23  1  0
 25 26  1  0
 27 25  1  0
 28 27  2  0
 29 30  2  0
 30 20  1  0
 31 27  1  0
M  END
$$$$
