TRY.pdb
     RDKit          3D

 31 31  0  0  1  0  0  0  0  0999 V2000
   10.6124  -14.5100   19.4807 C   0  0  0  0  0  0  0  0  0  0  0  0
    9.6488  -13.4024   19.1113 C   0  0  1  0  0  0  0  0  0  0  0  0
   10.0549  -12.9402   17.8443 O   0  0  0  0  0  0  0  0  0  0  0  0
    8.2657  -14.0210   18.9751 C   0  0  2  0  0  0  0  0  0  0  0  0
    7.4058  -12.9988   18.4337 N   0  0  0  0  0  0  0  0  0  0  0  0
    7.7644  -14.5132   20.2801 C   0  0  0  0  0  0  0  0  0  0  0  0
    7.3568  -13.6688   21.1140 O   0  0  0  0  0  0  0  0  0  0  0  0
    4.5468  -19.8727   18.2092 N   0  0  0  0  0  0  0  0  0  0  0  0
    3.4281  -19.5160   18.9979 C   0  0  0  0  0  0  0  0  0  0  0  0
    2.2438  -19.3555   18.5469 N   0  0  0  0  0  0  0  0  0  0  0  0
    3.6076  -19.3126   20.4148 N   0  0  0  0  0  0  0  0  0  0  0  0
    4.9368  -19.3420   20.9814 C   0  0  0  0  0  0  0  0  0  0  0  0
    5.4481  -17.9442   21.1083 C   0  0  0  0  0  0  0  0  0  0  0  0
    6.8247  -17.8497   21.6735 C   0  0  0  0  0  0  0  0  0  0  0  0
    7.3494  -16.4400   21.8118 C   0  0  2  0  0  0  0  0  0  0  0  0
    7.7694  -15.9093   20.5230 N   0  0  0  0  0  0  0  0  0  0  0  0
    8.4594  -16.3213   22.7721 C   0  0  0  0  0  0  0  0  0  0  0  0
    9.6139  -16.6450   22.4051 O   0  0  0  0  0  0  0  0  0  0  0  0
    1.5188  -19.0246   19.2390 O   0  0  0  0  0  0  0  0  0  0  0  0
    5.1044  -11.8076   27.7680 C   0  0  0  0  0  0  0  0  0  0  0  0
    6.2277  -12.4251   27.1949 C   0  0  0  0  0  0  0  0  0  0  0  0
    7.3921  -12.6061   27.9182 C   0  0  0  0  0  0  0  0  0  0  0  0
    8.4965  -13.2125   27.3562 C   0  0  0  0  0  0  0  0  0  0  0  0
    8.4556  -13.6526   26.0488 C   0  0  0  0  0  0  0  0  0  0  0  0
    9.6078  -14.2990   25.4024 C   0  0  1  0  0  0  0  0  0  0  0  0
    9.3943  -15.7506   25.0602 N   0  0  0  0  0  0  0  0  0  0  0  0
    8.3038  -15.8571   24.1057 C   0  0  0  0  0  0  0  0  0  0  0  0
    9.0423  -16.5475   26.2519 O   0  0  0  0  0  0  0  0  0  0  0  0
    9.8293  -16.5935   27.2292 C   0  0  0  0  0  0  0  0  0  0  0  0
    7.2908  -13.4658   25.3422 C   0  0  0  0  0  0  0  0  0  0  0  0
    6.1763  -12.8590   25.8948 O   0  0  0  0  0  0  0  0  0  0  0  0
  2  1  1  6
  2  4  1  0
  3  2  1  0
  4  5  1  1
  6  7  2  0
  6  4  1  0
  9  8  1  0
 10  9  2  0
 11  9  1  0
 12 11  1  0
 12 13  1  0
 13 14  1  0
 15 14  1  6
 15 16  1  0
 16  6  1  0
 17 26  1  0
 17 15  1  0
 18 17  2  0
 20 19  1  0
 21 20  2  0
 22 21  1  0
 23 29  1  0
 23 22  2  0
 25 24  1  6
 24 23  1  0
 25 26  1  0
 27 25  1  0
 28 27  2  0
 29 30  2  0
 30 20  1  0
 31 27  1  0
M  END
$$$$
