TRY.pdb
     RDKit          3D

 31 31  0  0  1  0  0  0  0  0999 V2000
    6.8570  -12.6240   19.5935 C   0  0  0  0  0  0  0  0  0  0  0  0
    7.8455  -13.5070   20.3249 C   0  0  1  0  0  0  0  0  0  0  0  0
    7.6067  -13.3035   21.6980 O   0  0  0  0  0  0  0  0  0  0  0  0
    7.5092  -14.9521   19.9890 C   0  0  2  0  0  0  0  0  0  0  0  0
    6.1315  -15.1544   20.3609 N   0  0  0  0  0  0  0  0  0  0  0  0
    8.4050  -15.8937   20.7015 C   0  0  0  0  0  0  0  0  0  0  0  0
    7.9766  -16.4428   21.7452 O   0  0  0  0  0  0  0  0  0  0  0  0
   15.5380  -21.7306   20.7006 N   0  0  0  0  0  0  0  0  0  0  0  0
   15.0445  -20.4113   20.5708 C   0  0  0  0  0  0  0  0  0  0  0  0
   15.3449  -19.4443   21.3496 N   0  0  0  0  0  0  0  0  0  0  0  0
   14.1363  -20.1073   19.4920 N   0  0  0  0  0  0  0  0  0  0  0  0
   13.6707  -18.7518   19.3064 C   0  0  0  0  0  0  0  0  0  0  0  0
   12.5542  -18.4804   20.2610 C   0  0  0  0  0  0  0  0  0  0  0  0
   11.9235  -17.1397   20.0930 C   0  0  0  0  0  0  0  0  0  0  0  0
   10.6651  -16.9339   20.9030 C   0  0  2  0  0  0  0  0  0  0  0  0
    9.6983  -16.1280   20.1717 N   0  0  0  0  0  0  0  0  0  0  0  0
   10.9113  -16.3225   22.2198 C   0  0  0  0  0  0  0  0  0  0  0  0
   10.6777  -15.1000   22.3723 O   0  0  0  0  0  0  0  0  0  0  0  0
   14.8707  -18.5214   21.1563 O   0  0  0  0  0  0  0  0  0  0  0  0
    9.9679  -14.0412   30.4289 C   0  0  0  0  0  0  0  0  0  0  0  0
   10.0118  -14.5150   29.1079 C   0  0  0  0  0  0  0  0  0  0  0  0
    9.9735  -13.6453   28.0337 C   0  0  0  0  0  0  0  0  0  0  0  0
   10.0164  -14.1095   26.7354 C   0  0  0  0  0  0  0  0  0  0  0  0
   10.0992  -15.4643   26.4859 C   0  0  0  0  0  0  0  0  0  0  0  0
   10.1413  -16.0094   25.1204 C   0  0  1  0  0  0  0  0  0  0  0  0
   11.5033  -16.4805   24.6815 N   0  0  0  0  0  0  0  0  0  0  0  0
   11.4032  -17.0390   23.3436 C   0  0  0  0  0  0  0  0  0  0  0  0
   12.0358  -17.5256   25.5777 O   0  0  0  0  0  0  0  0  0  0  0  0
   13.0437  -17.2876   26.2877 C   0  0  0  0  0  0  0  0  0  0  0  0
   10.1366  -16.3170   27.5642 C   0  0  0  0  0  0  0  0  0  0  0  0
   10.0942  -15.8635   28.8712 O   0  0  0  0  0  0  0  0  0  0  0  0
  2  1  1  6
  2  4  1  0
  3  2  1  0
  4  5  1  1
  6  7  2  0
  6  4  1  0
  9  8  1  0
 10  9  2  0
 11  9  1  0
 12 11  1  0
 12 13  1  0
 13 14  1  0
 15 14  1  6
 15 16  1  0
 16  6  1  0
 17 26  1  0
 17 15  1  0
 18 17  2  0
 20 19  1  0
 21 20  2  0
 22 21  1  0
 23 29  1  0
 23 22  2  0
 25 24  1  6
 24 23  1  0
 25 26  1  0
 27 25  1  0
 28 27  2  0
 29 30  2  0
 30 20  1  0
 31 27  1  0
M  END
$$$$
