TRY.pdb
     RDKit          3D

 31 31  0  0  1  0  0  0  0  0999 V2000
    8.7293  -12.3609   19.9167 C   0  0  0  0  0  0  0  0  0  0  0  0
    7.8518  -12.7628   18.7504 C   0  0  1  0  0  0  0  0  0  0  0  0
    8.0429  -11.7774   17.7623 O   0  0  0  0  0  0  0  0  0  0  0  0
    8.3753  -14.0868   18.2144 C   0  0  2  0  0  0  0  0  0  0  0  0
    7.5546  -14.4285   17.0801 N   0  0  0  0  0  0  0  0  0  0  0  0
    8.3301  -15.1441   19.2521 C   0  0  0  0  0  0  0  0  0  0  0  0
    7.2074  -15.5036   19.6820 O   0  0  0  0  0  0  0  0  0  0  0  0
   12.4626  -22.6614   20.4988 N   0  0  0  0  0  0  0  0  0  0  0  0
   11.0677  -22.4890   20.3391 C   0  0  0  0  0  0  0  0  0  0  0  0
   10.2676  -23.3938   19.9232 N   0  0  0  0  0  0  0  0  0  0  0  0
   10.4795  -21.2117   20.6612 N   0  0  0  0  0  0  0  0  0  0  0  0
   11.3269  -20.1123   21.0634 C   0  0  0  0  0  0  0  0  0  0  0  0
   10.4731  -18.9457   21.4398 C   0  0  0  0  0  0  0  0  0  0  0  0
   10.3689  -17.9020   20.3800 C   0  0  0  0  0  0  0  0  0  0  0  0
    9.5684  -16.6841   20.7772 C   0  0  2  0  0  0  0  0  0  0  0  0
    9.5529  -15.6967   19.7077 N   0  0  0  0  0  0  0  0  0  0  0  0
   10.0456  -16.0503   22.0177 C   0  0  0  0  0  0  0  0  0  0  0  0
   11.1421  -15.4423   22.0033 O   0  0  0  0  0  0  0  0  0  0  0  0
    9.2523  -23.1187   19.8366 O   0  0  0  0  0  0  0  0  0  0  0  0
   10.4440  -14.5317   30.8288 C   0  0  0  0  0  0  0  0  0  0  0  0
   10.0244  -14.7554   29.5076 C   0  0  0  0  0  0  0  0  0  0  0  0
    9.6862  -13.7038   28.6761 C   0  0  0  0  0  0  0  0  0  0  0  0
    9.2736  -13.9224   27.3780 C   0  0  0  0  0  0  0  0  0  0  0  0
    9.1912  -15.2083   26.8838 C   0  0  0  0  0  0  0  0  0  0  0  0
    8.7512  -15.4940   25.5097 C   0  0  1  0  0  0  0  0  0  0  0  0
    9.8723  -15.6104   24.5101 N   0  0  0  0  0  0  0  0  0  0  0  0
    9.3333  -16.0842   23.2465 C   0  0  0  0  0  0  0  0  0  0  0  0
   10.9062  -16.5648   24.9562 O   0  0  0  0  0  0  0  0  0  0  0  0
   10.6793  -17.7990   24.9134 C   0  0  0  0  0  0  0  0  0  0  0  0
    9.5309  -16.2439   27.7225 C   0  0  0  0  0  0  0  0  0  0  0  0
    9.9462  -16.0375   29.0266 O   0  0  0  0  0  0  0  0  0  0  0  0
  2  1  1  1
  2  4  1  0
  3  2  1  0
  4  5  1  6
  6  7  2  0
  6  4  1  0
  9  8  1  0
 10  9  2  0
 11  9  1  0
 12 11  1  0
 12 13  1  0
 13 14  1  0
 15 14  1  6
 15 16  1  0
 16  6  1  0
 17 26  1  0
 17 15  1  0
 18 17  2  0
 20 19  1  0
 21 20  2  0
 22 21  1  0
 23 29  1  0
 23 22  2  0
 25 24  1  6
 24 23  1  0
 25 26  1  0
 27 25  1  0
 28 27  2  0
 29 30  2  0
 30 20  1  0
 31 27  1  0
M  END
$$$$
