TRY.pdb
     RDKit          3D

 31 31  0  0  1  0  0  0  0  0999 V2000
   12.5624  -21.3734   21.0780 C   0  0  0  0  0  0  0  0  0  0  0  0
   12.2715  -19.8881   21.0463 C   0  0  1  0  0  0  0  0  0  0  0  0
   11.3489  -19.6948   19.9997 O   0  0  0  0  0  0  0  0  0  0  0  0
   11.5920  -19.5233   22.3575 C   0  0  2  0  0  0  0  0  0  0  0  0
   10.3427  -20.2412   22.3909 N   0  0  0  0  0  0  0  0  0  0  0  0
   11.3776  -18.0607   22.4650 C   0  0  0  0  0  0  0  0  0  0  0  0
   12.3800  -17.3092   22.3959 O   0  0  0  0  0  0  0  0  0  0  0  0
    8.0417  -11.9246   19.1883 N   0  0  0  0  0  0  0  0  0  0  0  0
    7.9385  -13.2394   18.6768 C   0  0  0  0  0  0  0  0  0  0  0  0
    8.2883  -13.5893   17.4990 N   0  0  0  0  0  0  0  0  0  0  0  0
    7.4044  -14.2790   19.5224 N   0  0  0  0  0  0  0  0  0  0  0  0
    7.1164  -13.9978   20.9104 C   0  0  0  0  0  0  0  0  0  0  0  0
    8.3123  -14.3366   21.7390 C   0  0  0  0  0  0  0  0  0  0  0  0
    8.5784  -15.7994   21.8523 C   0  0  0  0  0  0  0  0  0  0  0  0
    9.7834  -16.1534   22.6916 C   0  0  2  0  0  0  0  0  0  0  0  0
   10.0552  -17.5826   22.6401 N   0  0  0  0  0  0  0  0  0  0  0  0
    9.6606  -15.7318   24.0972 C   0  0  0  0  0  0  0  0  0  0  0  0
    9.2586  -14.5708   24.3476 O   0  0  0  0  0  0  0  0  0  0  0  0
    8.1108  -14.5960   17.2364 O   0  0  0  0  0  0  0  0  0  0  0  0
    6.5525  -10.6867   26.0672 C   0  0  0  0  0  0  0  0  0  0  0  0
    7.0149  -11.9952   26.2810 C   0  0  0  0  0  0  0  0  0  0  0  0
    6.3876  -13.0804   25.6974 C   0  0  0  0  0  0  0  0  0  0  0  0
    6.8409  -14.3664   25.9067 C   0  0  0  0  0  0  0  0  0  0  0  0
    7.9395  -14.5921   26.7109 C   0  0  0  0  0  0  0  0  0  0  0  0
    8.4575  -15.9441   26.9701 C   0  0  2  0  0  0  0  0  0  0  0  0
    9.9020  -16.1394   26.5894 N   0  0  0  0  0  0  0  0  0  0  0  0
    9.9728  -16.5679   25.2026 C   0  0  0  0  0  0  0  0  0  0  0  0
   10.5531  -17.1690   27.4229 O   0  0  0  0  0  0  0  0  0  0  0  0
   11.0662  -18.1797   26.8826 C   0  0  0  0  0  0  0  0  0  0  0  0
    8.5529  -13.5030   27.2842 C   0  0  0  0  0  0  0  0  0  0  0  0
    8.1078  -12.2082   27.0819 O   0  0  0  0  0  0  0  0  0  0  0  0
  2  1  1  1
  2  4  1  0
  3  2  1  0
  4  5  1  6
  6  7  2  0
  6  4  1  0
  9  8  1  0
 10  9  2  0
 11  9  1  0
 12 11  1  0
 12 13  1  0
 13 14  1  0
 15 14  1  6
 15 16  1  0
 16  6  1  0
 17 26  1  0
 17 15  1  0
 18 17  2  0
 20 19  1  0
 21 20  2  0
 22 21  1  0
 23 29  1  0
 23 22  2  0
 25 24  1  6
 24 23  1  0
 25 26  1  0
 27 25  1  0
 28 27  2  0
 29 30  2  0
 30 20  1  0
 31 27  1  0
M  END
$$$$
