TQI.pdb
     RDKit          3D

 25 24  0  0  1  0  0  0  0  0999 V2000
    9.1467  -12.5540   19.9595 C   0  0  0  0  0  0  0  0  0  0  0  0
    8.2317  -13.2459   18.9595 C   0  0  1  0  0  0  0  0  0  0  0  0
    8.4092  -12.7023   17.6876 O   0  0  0  0  0  0  0  0  0  0  0  0
    8.6185  -14.7121   18.8776 C   0  0  2  0  0  0  0  0  0  0  0  0
    7.8861  -15.3872   17.8376 N   0  0  0  0  0  0  0  0  0  0  0  0
    8.4511  -15.3267   20.1992 C   0  0  0  0  0  0  0  0  0  0  0  0
    7.2783  -15.5706   20.5873 O   0  0  0  0  0  0  0  0  0  0  0  0
   12.5559  -18.9131   22.3369 N   0  0  0  0  0  0  0  0  0  0  0  0
   11.4645  -19.3041   21.5142 C   0  0  0  0  0  0  0  0  0  0  0  0
   11.6077  -20.2797   20.7016 O   0  0  0  0  0  0  0  0  0  0  0  0
   10.1967  -18.5449   21.6448 C   0  0  0  0  0  0  0  0  0  0  0  0
   10.2495  -17.4200   22.6110 C   0  0  0  0  0  0  0  0  0  0  0  0
    9.2927  -16.2971   22.3804 C   0  0  2  0  0  0  0  0  0  0  0  0
    9.5116  -15.6697   21.0787 N   0  0  0  0  0  0  0  0  0  0  0  0
    9.3508  -15.2838   23.4662 C   0  0  0  0  0  0  0  0  0  0  0  0
   10.2866  -14.4532   23.5378 O   0  0  0  0  0  0  0  0  0  0  0  0
    6.2990  -11.2355   26.4038 C   0  0  0  0  0  0  0  0  0  0  0  0
    7.3643  -12.2744   26.6144 C   0  0  0  0  0  0  0  0  0  0  0  0
    7.2222  -13.3416   25.5475 C   0  0  2  0  0  0  0  0  0  0  0  0
    6.0120  -14.1994   25.8400 C   0  0  0  0  0  0  0  0  0  0  0  0
    8.4318  -14.2502   25.5117 C   0  0  2  0  0  0  0  0  0  0  0  0
    8.3380  -15.2273   24.4630 N   0  0  0  0  0  0  0  0  0  0  0  0
    8.4986  -14.9493   26.8144 C   0  0  0  0  0  0  0  0  0  0  0  0
    8.3191  -16.3073   26.9970 O   0  0  0  0  0  0  0  0  0  0  0  0
    8.7353  -14.2732   27.8450 O   0  0  0  0  0  0  0  0  0  0  0  0
  2  1  1  1
  3  2  1  0
  4  2  1  0
  4  5  1  6
  6  4  1  0
  6 14  1  0
  7  6  2  0
  9 10  2  0
  9  8  1  0
 11  9  1  0
 12 11  1  0
 13 12  1  1
 14 13  1  0
 15 16  2  0
 15 13  1  0
 18 17  1  0
 18 19  1  0
 19 21  1  0
 19 20  1  1
 21 22  1  6
 21 23  1  0
 22 15  1  0
 23 25  2  0
 23 24  1  0
M  END
$$$$
