TQI.pdb
     RDKit          3D

 25 24  0  0  1  0  0  0  0  0999 V2000
    9.3190  -12.5806   20.1309 C   0  0  0  0  0  0  0  0  0  0  0  0
    8.1714  -13.0869   19.2691 C   0  0  1  0  0  0  0  0  0  0  0  0
    8.2010  -12.4721   18.0177 O   0  0  0  0  0  0  0  0  0  0  0  0
    8.3536  -14.5769   19.0402 C   0  0  2  0  0  0  0  0  0  0  0  0
    7.3776  -15.0850   18.1113 N   0  0  0  0  0  0  0  0  0  0  0  0
    8.3376  -15.2665   20.3351 C   0  0  0  0  0  0  0  0  0  0  0  0
    7.2236  -15.4261   20.8999 O   0  0  0  0  0  0  0  0  0  0  0  0
   11.0566  -20.4172   22.9764 N   0  0  0  0  0  0  0  0  0  0  0  0
   10.2675  -19.5533   23.7838 C   0  0  0  0  0  0  0  0  0  0  0  0
    9.3078  -20.0396   24.4730 O   0  0  0  0  0  0  0  0  0  0  0  0
   10.6058  -18.1089   23.7821 C   0  0  0  0  0  0  0  0  0  0  0  0
   10.4939  -17.4520   22.4563 C   0  0  0  0  0  0  0  0  0  0  0  0
    9.4179  -16.4273   22.3082 C   0  0  2  0  0  0  0  0  0  0  0  0
    9.4840  -15.7702   21.0045 N   0  0  0  0  0  0  0  0  0  0  0  0
    9.4509  -15.4226   23.4030 C   0  0  0  0  0  0  0  0  0  0  0  0
   10.3467  -14.5483   23.4631 O   0  0  0  0  0  0  0  0  0  0  0  0
    6.4241  -11.3481   26.1662 C   0  0  0  0  0  0  0  0  0  0  0  0
    7.4509  -12.4054   26.4602 C   0  0  0  0  0  0  0  0  0  0  0  0
    7.3208  -13.5108   25.4313 C   0  0  2  0  0  0  0  0  0  0  0  0
    6.0881  -14.3368   25.7209 C   0  0  0  0  0  0  0  0  0  0  0  0
    8.5151  -14.4396   25.4657 C   0  0  2  0  0  0  0  0  0  0  0  0
    8.4587  -15.4248   24.4220 N   0  0  0  0  0  0  0  0  0  0  0  0
    8.5029  -15.1273   26.7761 C   0  0  0  0  0  0  0  0  0  0  0  0
    8.3087  -16.4832   26.9595 O   0  0  0  0  0  0  0  0  0  0  0  0
    8.6806  -14.4428   27.8130 O   0  0  0  0  0  0  0  0  0  0  0  0
  2  1  1  1
  3  2  1  0
  4  2  1  0
  4  5  1  6
  6  4  1  0
  6 14  1  0
  7  6  2  0
  9 10  2  0
  9  8  1  0
 11  9  1  0
 12 11  1  0
 13 12  1  1
 14 13  1  0
 15 16  2  0
 15 13  1  0
 18 17  1  0
 18 19  1  0
 19 21  1  0
 19 20  1  1
 21 22  1  6
 21 23  1  0
 22 15  1  0
 23 25  2  0
 23 24  1  0
M  END
$$$$
