TQI.pdb
     RDKit          3D

 25 24  0  0  1  0  0  0  0  0999 V2000
    8.9867  -12.5520   20.0845 C   0  0  0  0  0  0  0  0  0  0  0  0
    8.1164  -13.2077   19.0221 C   0  0  1  0  0  0  0  0  0  0  0  0
    8.3514  -12.6227   17.7782 O   0  0  0  0  0  0  0  0  0  0  0  0
    8.5043  -14.6714   18.9088 C   0  0  2  0  0  0  0  0  0  0  0  0
    7.7319  -15.3385   17.8929 N   0  0  0  0  0  0  0  0  0  0  0  0
    8.3938  -15.3005   20.2296 C   0  0  0  0  0  0  0  0  0  0  0  0
    7.2407  -15.5839   20.6486 O   0  0  0  0  0  0  0  0  0  0  0  0
   11.8990  -19.6464   22.7183 N   0  0  0  0  0  0  0  0  0  0  0  0
   11.1636  -19.3093   23.8872 C   0  0  0  0  0  0  0  0  0  0  0  0
   11.3029  -20.0154   24.9430 O   0  0  0  0  0  0  0  0  0  0  0  0
   10.2579  -18.1365   23.8172 C   0  0  0  0  0  0  0  0  0  0  0  0
   10.2963  -17.4054   22.5265 C   0  0  0  0  0  0  0  0  0  0  0  0
    9.3286  -16.2791   22.3688 C   0  0  2  0  0  0  0  0  0  0  0  0
    9.4890  -15.6161   21.0763 N   0  0  0  0  0  0  0  0  0  0  0  0
    9.4331  -15.2954   23.4781 C   0  0  0  0  0  0  0  0  0  0  0  0
   10.4177  -14.5270   23.5818 O   0  0  0  0  0  0  0  0  0  0  0  0
    6.3131  -11.3301   26.6074 C   0  0  0  0  0  0  0  0  0  0  0  0
    7.4984  -12.2532   26.6510 C   0  0  0  0  0  0  0  0  0  0  0  0
    7.3187  -13.3274   25.5969 C   0  0  2  0  0  0  0  0  0  0  0  0
    6.1287  -14.1923   25.9455 C   0  0  0  0  0  0  0  0  0  0  0  0
    8.5325  -14.2273   25.5140 C   0  0  2  0  0  0  0  0  0  0  0  0
    8.4104  -15.1972   24.4615 N   0  0  0  0  0  0  0  0  0  0  0  0
    8.6472  -14.9355   26.8084 C   0  0  0  0  0  0  0  0  0  0  0  0
    9.1048  -14.3718   27.9842 O   0  0  0  0  0  0  0  0  0  0  0  0
    8.3076  -16.1426   26.8624 O   0  0  0  0  0  0  0  0  0  0  0  0
  2  1  1  1
  3  2  1  0
  4  2  1  0
  4  5  1  6
  6  4  1  0
  6 14  1  0
  7  6  2  0
  9 10  2  0
  9  8  1  0
 11  9  1  0
 12 11  1  0
 13 12  1  1
 14 13  1  0
 15 16  2  0
 15 13  1  0
 18 17  1  0
 18 19  1  0
 19 21  1  0
 19 20  1  1
 21 22  1  6
 21 23  1  0
 22 15  1  0
 23 25  2  0
 23 24  1  0
M  END
$$$$
