TQI.pdb
     RDKit          3D

 25 24  0  0  1  0  0  0  0  0999 V2000
    9.3364  -12.5962   20.0119 C   0  0  0  0  0  0  0  0  0  0  0  0
    8.2089  -13.1091   19.1278 C   0  0  1  0  0  0  0  0  0  0  0  0
    8.2831  -12.5240   17.8641 O   0  0  0  0  0  0  0  0  0  0  0  0
    8.3796  -14.6061   18.9386 C   0  0  2  0  0  0  0  0  0  0  0  0
    7.4264  -15.1241   17.9916 N   0  0  0  0  0  0  0  0  0  0  0  0
    8.3153  -15.2653   20.2477 C   0  0  0  0  0  0  0  0  0  0  0  0
    7.1864  -15.3705   20.7956 O   0  0  0  0  0  0  0  0  0  0  0  0
   12.2499  -19.4836   22.7293 N   0  0  0  0  0  0  0  0  0  0  0  0
   11.3130  -19.3611   23.7914 C   0  0  0  0  0  0  0  0  0  0  0  0
   11.4038  -20.1373   24.8024 O   0  0  0  0  0  0  0  0  0  0  0  0
   10.2619  -18.3217   23.6666 C   0  0  0  0  0  0  0  0  0  0  0  0
   10.2790  -17.5804   22.3813 C   0  0  0  0  0  0  0  0  0  0  0  0
    9.3121  -16.4500   22.2503 C   0  0  2  0  0  0  0  0  0  0  0  0
    9.4300  -15.7963   20.9485 N   0  0  0  0  0  0  0  0  0  0  0  0
    9.4608  -15.4597   23.3486 C   0  0  0  0  0  0  0  0  0  0  0  0
   10.3822  -14.6102   23.3446 O   0  0  0  0  0  0  0  0  0  0  0  0
    6.4367  -11.5740   26.5671 C   0  0  0  0  0  0  0  0  0  0  0  0
    7.6275  -12.4899   26.6106 C   0  0  0  0  0  0  0  0  0  0  0  0
    7.4841  -13.5283   25.5159 C   0  0  2  0  0  0  0  0  0  0  0  0
    6.2676  -14.3861   25.7807 C   0  0  0  0  0  0  0  0  0  0  0  0
    8.6886  -14.4429   25.4620 C   0  0  2  0  0  0  0  0  0  0  0  0
    8.5542  -15.4476   24.4444 N   0  0  0  0  0  0  0  0  0  0  0  0
    8.7992  -15.1066   26.7802 C   0  0  0  0  0  0  0  0  0  0  0  0
    9.2731  -14.5092   27.9327 O   0  0  0  0  0  0  0  0  0  0  0  0
    8.4400  -16.3051   26.8789 O   0  0  0  0  0  0  0  0  0  0  0  0
  2  1  1  1
  3  2  1  0
  4  2  1  0
  4  5  1  6
  6  4  1  0
  6 14  1  0
  7  6  2  0
  9 10  2  0
  9  8  1  0
 11  9  1  0
 12 11  1  0
 13 12  1  1
 14 13  1  0
 15 16  2  0
 15 13  1  0
 18 17  1  0
 18 19  1  0
 19 21  1  0
 19 20  1  1
 21 22  1  6
 21 23  1  0
 22 15  1  0
 23 25  2  0
 23 24  1  0
M  END
$$$$
