TQI.pdb
     RDKit          3D

 25 24  0  0  1  0  0  0  0  0999 V2000
    8.6874  -12.6194   20.3743 C   0  0  0  0  0  0  0  0  0  0  0  0
    7.9082  -13.4146   19.3368 C   0  0  1  0  0  0  0  0  0  0  0  0
    8.1137  -12.8796   18.0655 O   0  0  0  0  0  0  0  0  0  0  0  0
    8.4375  -14.8377   19.3144 C   0  0  2  0  0  0  0  0  0  0  0  0
    7.8238  -15.6059   18.2623 N   0  0  0  0  0  0  0  0  0  0  0  0
    8.2672  -15.4337   20.6442 C   0  0  0  0  0  0  0  0  0  0  0  0
    7.1082  -15.7930   20.9808 O   0  0  0  0  0  0  0  0  0  0  0  0
   11.1675  -19.9854   23.2726 N   0  0  0  0  0  0  0  0  0  0  0  0
   10.4255  -19.8186   22.0716 C   0  0  0  0  0  0  0  0  0  0  0  0
   10.4373  -20.7450   21.1916 O   0  0  0  0  0  0  0  0  0  0  0  0
    9.6652  -18.5563   21.9011 C   0  0  0  0  0  0  0  0  0  0  0  0
    9.8776  -17.5593   22.9794 C   0  0  0  0  0  0  0  0  0  0  0  0
    9.0990  -16.2893   22.8766 C   0  0  2  0  0  0  0  0  0  0  0  0
    9.3103  -15.6381   21.5854 N   0  0  0  0  0  0  0  0  0  0  0  0
    9.4074  -15.3551   23.9906 C   0  0  0  0  0  0  0  0  0  0  0  0
   10.4381  -14.6422   23.9816 O   0  0  0  0  0  0  0  0  0  0  0  0
    5.9597  -11.8997   25.7855 C   0  0  0  0  0  0  0  0  0  0  0  0
    7.1675  -12.6869   25.3607 C   0  0  0  0  0  0  0  0  0  0  0  0
    7.6887  -13.4621   26.5542 C   0  0  2  0  0  0  0  0  0  0  0  0
    8.1592  -12.5012   27.6225 C   0  0  0  0  0  0  0  0  0  0  0  0
    8.8632  -14.3371   26.1734 C   0  0  2  0  0  0  0  0  0  0  0  0
    8.5344  -15.2424   25.1078 N   0  0  0  0  0  0  0  0  0  0  0  0
    9.2371  -15.1215   27.3714 C   0  0  0  0  0  0  0  0  0  0  0  0
   10.0385  -14.6655   28.4008 O   0  0  0  0  0  0  0  0  0  0  0  0
    8.8027  -16.2940   27.4787 O   0  0  0  0  0  0  0  0  0  0  0  0
  2  1  1  1
  3  2  1  0
  4  2  1  0
  4  5  1  6
  6  4  1  0
  6 14  1  0
  7  6  2  0
  9 10  2  0
  9  8  1  0
 11  9  1  0
 12 11  1  0
 13 12  1  6
 14 13  1  0
 15 16  2  0
 15 13  1  0
 18 17  1  0
 18 19  1  0
 19 21  1  0
 19 20  1  1
 21 22  1  6
 21 23  1  0
 22 15  1  0
 23 25  2  0
 23 24  1  0
M  END
$$$$
