TQI.pdb
     RDKit          3D

 25 24  0  0  1  0  0  0  0  0999 V2000
    9.6415  -13.8254   17.9566 C   0  0  0  0  0  0  0  0  0  0  0  0
    9.2630  -14.2243   19.3755 C   0  0  1  0  0  0  0  0  0  0  0  0
    9.5958  -13.2054   20.2676 O   0  0  0  0  0  0  0  0  0  0  0  0
    7.7571  -14.4067   19.4458 C   0  0  2  0  0  0  0  0  0  0  0  0
    7.0676  -13.1983   19.0745 N   0  0  0  0  0  0  0  0  0  0  0  0
    7.3951  -14.8956   20.7809 C   0  0  0  0  0  0  0  0  0  0  0  0
    6.7141  -14.1351   21.5182 O   0  0  0  0  0  0  0  0  0  0  0  0
    5.8028  -20.0944   23.1871 N   0  0  0  0  0  0  0  0  0  0  0  0
    6.4021  -19.5954   24.3757 C   0  0  0  0  0  0  0  0  0  0  0  0
    6.0108  -20.0355   25.5096 O   0  0  0  0  0  0  0  0  0  0  0  0
    7.4672  -18.5727   24.2332 C   0  0  0  0  0  0  0  0  0  0  0  0
    7.6369  -18.0484   22.8555 C   0  0  0  0  0  0  0  0  0  0  0  0
    7.4104  -16.5846   22.6662 C   0  0  2  0  0  0  0  0  0  0  0  0
    7.7534  -16.1637   21.3093 N   0  0  0  0  0  0  0  0  0  0  0  0
    8.1487  -15.7725   23.6685 C   0  0  0  0  0  0  0  0  0  0  0  0
    9.3613  -15.4926   23.5201 O   0  0  0  0  0  0  0  0  0  0  0  0
    5.3950  -11.9579   26.4222 C   0  0  0  0  0  0  0  0  0  0  0  0
    6.4215  -12.6845   25.5993 C   0  0  0  0  0  0  0  0  0  0  0  0
    7.2758  -13.5308   26.5218 C   0  0  2  0  0  0  0  0  0  0  0  0
    8.1252  -12.6366   27.3962 C   0  0  0  0  0  0  0  0  0  0  0  0
    8.2088  -14.4294   25.7395 C   0  0  2  0  0  0  0  0  0  0  0  0
    7.4949  -15.2858   24.8340 N   0  0  0  0  0  0  0  0  0  0  0  0
    8.9392  -15.2668   26.7171 C   0  0  0  0  0  0  0  0  0  0  0  0
   10.1117  -14.9054   27.3529 O   0  0  0  0  0  0  0  0  0  0  0  0
    8.4733  -16.3965   27.0035 O   0  0  0  0  0  0  0  0  0  0  0  0
  2  1  1  6
  3  2  1  0
  4  2  1  0
  4  5  1  1
  6  4  1  0
  6 14  1  0
  7  6  2  0
  9 10  2  0
  9  8  1  0
 11  9  1  0
 12 11  1  0
 13 12  1  6
 14 13  1  0
 15 16  2  0
 15 13  1  0
 18 17  1  0
 18 19  1  0
 19 21  1  0
 19 20  1  1
 21 22  1  6
 21 23  1  0
 22 15  1  0
 23 25  2  0
 23 24  1  0
M  END
$$$$
