TQI.pdb
     RDKit          3D

 25 24  0  0  1  0  0  0  0  0999 V2000
    9.5768  -12.6051   20.1333 C   0  0  0  0  0  0  0  0  0  0  0  0
    8.6100  -12.9002   18.9957 C   0  0  1  0  0  0  0  0  0  0  0  0
    9.0995  -12.3769   17.7993 O   0  0  0  0  0  0  0  0  0  0  0  0
    8.5100  -14.4050   18.8184 C   0  0  2  0  0  0  0  0  0  0  0  0
    7.6607  -14.7437   17.7059 N   0  0  0  0  0  0  0  0  0  0  0  0
    8.0788  -15.0094   20.0838 C   0  0  0  0  0  0  0  0  0  0  0  0
    6.8551  -14.9492   20.3745 O   0  0  0  0  0  0  0  0  0  0  0  0
    9.5696  -20.3697   22.3360 N   0  0  0  0  0  0  0  0  0  0  0  0
   10.5712  -19.4488   22.7475 C   0  0  0  0  0  0  0  0  0  0  0  0
   11.7139  -19.8860   23.1162 O   0  0  0  0  0  0  0  0  0  0  0  0
   10.2302  -18.0052   22.7273 C   0  0  0  0  0  0  0  0  0  0  0  0
    8.8311  -17.7087   22.3316 C   0  0  0  0  0  0  0  0  0  0  0  0
    8.4526  -16.2666   22.2488 C   0  0  2  0  0  0  0  0  0  0  0  0
    8.9359  -15.6594   21.0104 N   0  0  0  0  0  0  0  0  0  0  0  0
    8.9272  -15.4975   23.4287 C   0  0  0  0  0  0  0  0  0  0  0  0
   10.0387  -14.9185   23.4296 O   0  0  0  0  0  0  0  0  0  0  0  0
    5.8537  -11.9692   25.7727 C   0  0  0  0  0  0  0  0  0  0  0  0
    7.0103  -12.7440   25.2064 C   0  0  0  0  0  0  0  0  0  0  0  0
    7.5131  -13.7099   26.2608 C   0  0  2  0  0  0  0  0  0  0  0  0
    8.1039  -12.9397   27.4199 C   0  0  0  0  0  0  0  0  0  0  0  0
    8.5949  -14.6135   25.7102 C   0  0  2  0  0  0  0  0  0  0  0  0
    8.1269  -15.3957   24.6000 N   0  0  0  0  0  0  0  0  0  0  0  0
    9.0065  -15.5257   26.8004 C   0  0  0  0  0  0  0  0  0  0  0  0
    9.9817  -15.2507   27.7401 O   0  0  0  0  0  0  0  0  0  0  0  0
    8.4374  -16.6403   26.8952 O   0  0  0  0  0  0  0  0  0  0  0  0
  2  1  1  1
  3  2  1  0
  4  2  1  0
  4  5  1  6
  6  4  1  0
  6 14  1  0
  7  6  2  0
  9 10  2  0
  9  8  1  0
 11  9  1  0
 12 11  1  0
 13 12  1  1
 14 13  1  0
 15 16  2  0
 15 13  1  0
 18 17  1  0
 18 19  1  0
 19 21  1  0
 19 20  1  1
 21 22  1  6
 21 23  1  0
 22 15  1  0
 23 25  2  0
 23 24  1  0
M  END
$$$$
