TQI.pdb
     RDKit          3D

 25 24  0  0  1  0  0  0  0  0999 V2000
    8.4401  -12.5579   19.8629 C   0  0  0  0  0  0  0  0  0  0  0  0
    7.9277  -13.4024   18.7053 C   0  0  1  0  0  0  0  0  0  0  0  0
    8.3842  -12.8860   17.4930 O   0  0  0  0  0  0  0  0  0  0  0  0
    8.4946  -14.8050   18.8362 C   0  0  2  0  0  0  0  0  0  0  0  0
    8.1552  -15.6134   17.6938 N   0  0  0  0  0  0  0  0  0  0  0  0
    8.0525  -15.3840   20.1097 C   0  0  0  0  0  0  0  0  0  0  0  0
    6.9236  -15.9411   20.1392 O   0  0  0  0  0  0  0  0  0  0  0  0
    9.1286  -20.2258   22.3114 N   0  0  0  0  0  0  0  0  0  0  0  0
   10.2673  -19.3824   22.1976 C   0  0  0  0  0  0  0  0  0  0  0  0
   11.4214  -19.9038   22.0281 O   0  0  0  0  0  0  0  0  0  0  0  0
   10.0509  -17.9173   22.2840 C   0  0  0  0  0  0  0  0  0  0  0  0
    8.6343  -17.5138   22.4631 C   0  0  0  0  0  0  0  0  0  0  0  0
    8.3621  -16.0472   22.5329 C   0  0  2  0  0  0  0  0  0  0  0  0
    8.8002  -15.3657   21.3165 N   0  0  0  0  0  0  0  0  0  0  0  0
    8.9776  -15.4230   23.7332 C   0  0  0  0  0  0  0  0  0  0  0  0
   10.1558  -14.9960   23.7183 O   0  0  0  0  0  0  0  0  0  0  0  0
    5.9087  -11.9753   26.2009 C   0  0  0  0  0  0  0  0  0  0  0  0
    7.0488  -12.7202   25.5651 C   0  0  0  0  0  0  0  0  0  0  0  0
    7.7092  -13.5901   26.6161 C   0  0  2  0  0  0  0  0  0  0  0  0
    8.3833  -12.7187   27.6515 C   0  0  0  0  0  0  0  0  0  0  0  0
    8.7682  -14.4831   26.0068 C   0  0  2  0  0  0  0  0  0  0  0  0
    8.2411  -15.2912   24.9427 N   0  0  0  0  0  0  0  0  0  0  0  0
    9.2694  -15.3703   27.0801 C   0  0  0  0  0  0  0  0  0  0  0  0
    9.0757  -16.7374   27.1355 O   0  0  0  0  0  0  0  0  0  0  0  0
    9.9231  -14.8598   28.0221 O   0  0  0  0  0  0  0  0  0  0  0  0
  2  1  1  1
  3  2  1  0
  4  2  1  0
  4  5  1  6
  6  4  1  0
  6 14  1  0
  7  6  2  0
  9 10  2  0
  9  8  1  0
 11  9  1  0
 12 11  1  0
 13 12  1  6
 14 13  1  0
 15 16  2  0
 15 13  1  0
 18 17  1  0
 18 19  1  0
 19 21  1  0
 19 20  1  1
 21 22  1  6
 21 23  1  0
 22 15  1  0
 23 25  2  0
 23 24  1  0
M  END
$$$$
