FIL.pdb
     RDKit          3D

 28 28  0  0  1  0  0  0  0  0999 V2000
    6.9391  -17.3256   20.5734 N   0  0  0  0  0  0  0  0  0  0  0  0
    7.7663  -16.3670   21.2526 C   0  0  1  0  0  0  0  0  0  0  0  0
    7.0241  -15.1012   21.6216 C   0  0  0  0  0  0  0  0  0  0  0  0
    7.3045  -14.0099   20.6717 C   0  0  0  0  0  0  0  0  0  0  0  0
    6.7935  -14.0341   19.3691 C   0  0  0  0  0  0  0  0  0  0  0  0
    7.0755  -12.9938   18.5021 C   0  0  0  0  0  0  0  0  0  0  0  0
    7.8551  -11.9224   18.8915 C   0  0  0  0  0  0  0  0  0  0  0  0
    8.3460  -11.9273   20.1866 C   0  0  0  0  0  0  0  0  0  0  0  0
    8.0848  -12.9439   21.0716 C   0  0  0  0  0  0  0  0  0  0  0  0
    8.4419  -16.9314   22.4298 C   0  0  0  0  0  0  0  0  0  0  0  0
    7.8480  -17.7874   23.1701 O   0  0  0  0  0  0  0  0  0  0  0  0
   13.4410  -18.4773   21.8023 C   0  0  0  0  0  0  0  0  0  0  0  0
   11.9992  -18.2964   22.2165 C   0  0  0  0  0  0  0  0  0  0  0  0
   11.8921  -17.4354   23.4703 C   0  0  2  0  0  0  0  0  0  0  0  0
   12.6411  -18.1928   24.5401 C   0  0  0  0  0  0  0  0  0  0  0  0
   10.4394  -17.2470   23.8596 C   0  0  2  0  0  0  0  0  0  0  0  0
    9.7574  -16.5272   22.7482 N   0  0  0  0  0  0  0  0  0  0  0  0
   10.3693  -16.2896   24.9905 C   0  0  0  0  0  0  0  0  0  0  0  0
   11.1385  -15.2552   25.0383 O   0  0  0  0  0  0  0  0  0  0  0  0
    8.3242  -12.8502   26.5362 C   0  0  0  0  0  0  0  0  0  0  0  0
    7.5848  -14.1582   26.8284 C   0  0  2  0  0  0  0  0  0  0  0  0
    6.1340  -13.9489   27.1035 C   0  0  0  0  0  0  0  0  0  0  0  0
    8.3118  -15.0367   27.7787 C   0  0  0  0  0  0  0  0  0  0  0  0
    9.6062  -15.6113   27.3150 C   0  0  2  0  0  0  0  0  0  0  0  0
    9.4914  -16.3877   26.0981 N   0  0  0  0  0  0  0  0  0  0  0  0
   10.3687  -16.3329   28.3432 C   0  0  0  0  0  0  0  0  0  0  0  0
   11.0013  -15.7088   29.4054 O   0  0  0  0  0  0  0  0  0  0  0  0
   10.4726  -17.5836   28.2859 O   0  0  0  0  0  0  0  0  0  0  0  0
  2  1  1  1
  2  3  1  0
  2 10  1  0
  3  4  1  0
  4  9  2  0
  5  4  1  0
  5  6  2  0
  6  7  1  0
  7  8  2  0
  9  8  1  0
 10 17  1  0
 10 11  2  0
 13 12  1  0
 14 13  1  0
 14 15  1  1
 16 14  1  0
 16 17  1  6
 18 16  1  0
 18 19  2  0
 21 20  1  1
 21 23  1  0
 22 21  1  0
 24 23  1  1
 24 25  1  0
 25 18  1  0
 26 27  1  0
 26 24  1  0
 28 26  2  0
M  END
$$$$
