FIL.pdb
     RDKit          3D

 28 28  0  0  1  0  0  0  0  0999 V2000
    4.9287  -17.9640   24.2497 N   0  0  0  0  0  0  0  0  0  0  0  0
    5.7694  -16.8478   24.5845 C   0  0  1  0  0  0  0  0  0  0  0  0
    6.1367  -16.8031   26.0516 C   0  0  0  0  0  0  0  0  0  0  0  0
    6.7402  -15.5106   26.4219 C   0  0  0  0  0  0  0  0  0  0  0  0
    8.0710  -15.4275   26.8466 C   0  0  0  0  0  0  0  0  0  0  0  0
    8.6071  -14.1988   27.1870 C   0  0  0  0  0  0  0  0  0  0  0  0
    7.8570  -13.0412   27.1180 C   0  0  0  0  0  0  0  0  0  0  0  0
    6.5435  -13.1558   26.6941 C   0  0  0  0  0  0  0  0  0  0  0  0
    5.9812  -14.3600   26.3492 C   0  0  0  0  0  0  0  0  0  0  0  0
    6.9755  -16.7727   23.7475 C   0  0  0  0  0  0  0  0  0  0  0  0
    7.5596  -17.8393   23.3545 O   0  0  0  0  0  0  0  0  0  0  0  0
    7.7058  -12.6527   20.1588 C   0  0  0  0  0  0  0  0  0  0  0  0
    7.7029  -14.0303   20.7797 C   0  0  0  0  0  0  0  0  0  0  0  0
    8.7984  -14.1604   21.8322 C   0  0  2  0  0  0  0  0  0  0  0  0
   10.0975  -14.0215   21.0758 C   0  0  0  0  0  0  0  0  0  0  0  0
    8.7151  -15.5096   22.5179 C   0  0  2  0  0  0  0  0  0  0  0  0
    7.4955  -15.5140   23.3728 N   0  0  0  0  0  0  0  0  0  0  0  0
    9.8264  -15.6175   23.4945 C   0  0  0  0  0  0  0  0  0  0  0  0
   11.0551  -15.6692   23.1048 O   0  0  0  0  0  0  0  0  0  0  0  0
   10.1171  -13.8613   29.1267 C   0  0  0  0  0  0  0  0  0  0  0  0
   10.4715  -14.0820   27.6541 C   0  0  2  0  0  0  0  0  0  0  0  0
    9.7997  -13.1055   26.7489 C   0  0  0  0  0  0  0  0  0  0  0  0
   10.4018  -15.5078   27.2471 C   0  0  0  0  0  0  0  0  0  0  0  0
   10.7738  -15.8294   25.8403 C   0  0  2  0  0  0  0  0  0  0  0  0
    9.6817  -15.6709   24.9027 N   0  0  0  0  0  0  0  0  0  0  0  0
   11.4561  -17.1179   25.6580 C   0  0  0  0  0  0  0  0  0  0  0  0
   10.9810  -18.1256   24.8352 O   0  0  0  0  0  0  0  0  0  0  0  0
   12.5304  -17.3513   26.2663 O   0  0  0  0  0  0  0  0  0  0  0  0
  2  1  1  1
  2  3  1  0
  2 10  1  0
  3  4  1  0
  4  9  2  0
  5  4  1  0
  5  6  2  0
  6  7  1  0
  7  8  2  0
  9  8  1  0
 10 17  1  0
 10 11  2  0
 13 12  1  0
 14 13  1  0
 14 15  1  6
 16 14  1  0
 16 17  1  1
 18 16  1  0
 18 19  2  0
 21 20  1  1
 21 23  1  0
 22 21  1  0
 24 23  1  1
 24 25  1  0
 25 18  1  0
 26 27  1  0
 26 24  1  0
 28 26  2  0
M  END
$$$$
