FIL.pdb
     RDKit          3D

 28 28  0  0  1  0  0  0  0  0999 V2000
    9.8542  -14.6108   20.8663 N   0  0  0  0  0  0  0  0  0  0  0  0
    8.6948  -14.4860   21.7060 C   0  0  1  0  0  0  0  0  0  0  0  0
    7.4747  -15.1758   21.1362 C   0  0  0  0  0  0  0  0  0  0  0  0
    7.1052  -14.6270   19.8194 C   0  0  0  0  0  0  0  0  0  0  0  0
    7.3164  -15.3578   18.6447 C   0  0  0  0  0  0  0  0  0  0  0  0
    6.9583  -14.8138   17.4245 C   0  0  0  0  0  0  0  0  0  0  0  0
    6.3928  -13.5571   17.3338 C   0  0  0  0  0  0  0  0  0  0  0  0
    6.1965  -12.8587   18.5136 C   0  0  0  0  0  0  0  0  0  0  0  0
    6.5406  -13.3699   19.7405 C   0  0  0  0  0  0  0  0  0  0  0  0
    8.9415  -14.9290   23.0858 C   0  0  0  0  0  0  0  0  0  0  0  0
    9.9642  -15.6429   23.3648 O   0  0  0  0  0  0  0  0  0  0  0  0
    6.0212  -11.7356   26.4788 C   0  0  0  0  0  0  0  0  0  0  0  0
    7.2574  -12.3048   25.8225 C   0  0  0  0  0  0  0  0  0  0  0  0
    7.5532  -13.7103   26.3346 C   0  0  2  0  0  0  0  0  0  0  0  0
    8.0464  -13.5244   27.7492 C   0  0  0  0  0  0  0  0  0  0  0  0
    8.6124  -14.3734   25.4768 C   0  0  2  0  0  0  0  0  0  0  0  0
    8.0436  -14.5647   24.1136 N   0  0  0  0  0  0  0  0  0  0  0  0
    8.8228  -15.7583   25.9648 C   0  0  0  0  0  0  0  0  0  0  0  0
    7.8457  -16.5979   26.0331 O   0  0  0  0  0  0  0  0  0  0  0  0
   13.2992  -19.9435   26.1078 C   0  0  0  0  0  0  0  0  0  0  0  0
   11.7919  -19.6921   26.1955 C   0  0  2  0  0  0  0  0  0  0  0  0
   10.9925  -20.7487   25.5110 C   0  0  0  0  0  0  0  0  0  0  0  0
   11.4185  -18.2880   25.8917 C   0  0  0  0  0  0  0  0  0  0  0  0
   10.2939  -17.7018   26.6745 C   0  0  2  0  0  0  0  0  0  0  0  0
   10.0600  -16.3013   26.3908 N   0  0  0  0  0  0  0  0  0  0  0  0
   10.3459  -17.9561   28.1208 C   0  0  0  0  0  0  0  0  0  0  0  0
   10.7925  -17.0267   29.0454 O   0  0  0  0  0  0  0  0  0  0  0  0
    9.9730  -19.0656   28.5773 O   0  0  0  0  0  0  0  0  0  0  0  0
  2  1  1  6
  2  3  1  0
  2 10  1  0
  3  4  1  0
  4  9  2  0
  5  4  1  0
  5  6  2  0
  6  7  1  0
  7  8  2  0
  9  8  1  0
 10 17  1  0
 10 11  2  0
 13 12  1  0
 14 13  1  0
 14 15  1  1
 16 14  1  0
 16 17  1  6
 18 16  1  0
 18 19  2  0
 21 20  1  6
 21 23  1  0
 22 21  1  0
 24 23  1  6
 24 25  1  0
 25 18  1  0
 26 27  1  0
 26 24  1  0
 28 26  2  0
M  END
$$$$
