FIL.pdb
     RDKit          3D

 28 28  0  0  1  0  0  0  0  0999 V2000
    5.4297  -17.2800   25.1405 N   0  0  0  0  0  0  0  0  0  0  0  0
    6.2380  -16.1000   25.0025 C   0  0  1  0  0  0  0  0  0  0  0  0
    6.6500  -15.5063   26.3318 C   0  0  0  0  0  0  0  0  0  0  0  0
    6.2957  -14.0788   26.4229 C   0  0  0  0  0  0  0  0  0  0  0  0
    4.9596  -13.6626   26.4269 C   0  0  0  0  0  0  0  0  0  0  0  0
    4.6611  -12.3148   26.5135 C   0  0  0  0  0  0  0  0  0  0  0  0
    5.6557  -11.3603   26.5970 C   0  0  0  0  0  0  0  0  0  0  0  0
    6.9679  -11.8033   26.5908 C   0  0  0  0  0  0  0  0  0  0  0  0
    7.2980  -13.1333   26.5059 C   0  0  0  0  0  0  0  0  0  0  0  0
    7.4130  -16.3124   24.1451 C   0  0  0  0  0  0  0  0  0  0  0  0
    7.9059  -17.4825   23.9986 O   0  0  0  0  0  0  0  0  0  0  0  0
    7.9968  -12.5580   20.4129 C   0  0  0  0  0  0  0  0  0  0  0  0
    7.9952  -13.9828   20.9159 C   0  0  0  0  0  0  0  0  0  0  0  0
    9.3005  -14.3141   21.6309 C   0  0  2  0  0  0  0  0  0  0  0  0
   10.2928  -14.6120   20.5330 C   0  0  0  0  0  0  0  0  0  0  0  0
    9.1178  -15.5176   22.5341 C   0  0  2  0  0  0  0  0  0  0  0  0
    8.0044  -15.2175   23.4768 N   0  0  0  0  0  0  0  0  0  0  0  0
   10.3027  -15.6338   23.4189 C   0  0  0  0  0  0  0  0  0  0  0  0
   11.4838  -15.3327   22.9963 O   0  0  0  0  0  0  0  0  0  0  0  0
   11.4929  -13.3211   26.6256 C   0  0  0  0  0  0  0  0  0  0  0  0
   10.6722  -14.4982   27.1584 C   0  0  2  0  0  0  0  0  0  0  0  0
   10.1067  -14.2376   28.5135 C   0  0  0  0  0  0  0  0  0  0  0  0
   11.3449  -15.8079   26.9699 C   0  0  0  0  0  0  0  0  0  0  0  0
   11.4596  -16.3155   25.5735 C   0  0  2  0  0  0  0  0  0  0  0  0
   10.2825  -16.0645   24.7684 N   0  0  0  0  0  0  0  0  0  0  0  0
   11.9045  -17.7109   25.4551 C   0  0  0  0  0  0  0  0  0  0  0  0
   11.2055  -18.6800   24.7547 O   0  0  0  0  0  0  0  0  0  0  0  0
   12.9716  -18.0788   26.0067 O   0  0  0  0  0  0  0  0  0  0  0  0
  2  1  1  1
  2  3  1  0
  2 10  1  0
  3  4  1  0
  4  9  2  0
  5  4  1  0
  5  6  2  0
  6  7  1  0
  7  8  2  0
  9  8  1  0
 10 17  1  0
 10 11  2  0
 13 12  1  0
 14 13  1  0
 14 15  1  6
 16 14  1  0
 16 17  1  1
 18 16  1  0
 18 19  2  0
 21 20  1  1
 21 23  1  0
 22 21  1  0
 24 23  1  1
 24 25  1  0
 25 18  1  0
 26 27  1  0
 26 24  1  0
 28 26  2  0
M  END
$$$$
