FIL.pdb
     RDKit          3D

 28 28  0  0  1  0  0  0  0  0999 V2000
    7.5514  -20.6709   23.1727 N   0  0  0  0  0  0  0  0  0  0  0  0
    6.9487  -19.3879   23.4080 C   0  0  1  0  0  0  0  0  0  0  0  0
    6.5348  -19.1841   24.8491 C   0  0  0  0  0  0  0  0  0  0  0  0
    6.0576  -20.4374   25.4601 C   0  0  0  0  0  0  0  0  0  0  0  0
    6.6550  -20.9535   26.6156 C   0  0  0  0  0  0  0  0  0  0  0  0
    6.1831  -22.1323   27.1640 C   0  0  0  0  0  0  0  0  0  0  0  0
    5.1283  -22.8197   26.5963 C   0  0  0  0  0  0  0  0  0  0  0  0
    4.5581  -22.2838   25.4536 C   0  0  0  0  0  0  0  0  0  0  0  0
    5.0027  -21.1162   24.8843 C   0  0  0  0  0  0  0  0  0  0  0  0
    7.7884  -18.2721   22.9490 C   0  0  0  0  0  0  0  0  0  0  0  0
    9.0592  -18.3223   23.0748 O   0  0  0  0  0  0  0  0  0  0  0  0
    7.4999  -12.7225   20.1790 C   0  0  0  0  0  0  0  0  0  0  0  0
    8.1871  -13.7015   21.1022 C   0  0  0  0  0  0  0  0  0  0  0  0
    7.3411  -14.9542   21.3022 C   0  0  2  0  0  0  0  0  0  0  0  0
    6.0273  -14.4638   21.8610 C   0  0  0  0  0  0  0  0  0  0  0  0
    8.0199  -15.9011   22.2717 C   0  0  2  0  0  0  0  0  0  0  0  0
    7.1897  -17.1343   22.3640 N   0  0  0  0  0  0  0  0  0  0  0  0
    7.9407  -15.3241   23.6360 C   0  0  0  0  0  0  0  0  0  0  0  0
    6.8959  -15.4941   24.3733 O   0  0  0  0  0  0  0  0  0  0  0  0
    8.0431  -11.3845   25.8064 C   0  0  0  0  0  0  0  0  0  0  0  0
    7.1124  -12.5955   25.7057 C   0  0  2  0  0  0  0  0  0  0  0  0
    5.7190  -12.2868   26.1387 C   0  0  0  0  0  0  0  0  0  0  0  0
    7.7109  -13.8358   26.2595 C   0  0  0  0  0  0  0  0  0  0  0  0
    9.0135  -14.2747   25.6837 C   0  0  2  0  0  0  0  0  0  0  0  0
    8.9527  -14.5576   24.2649 N   0  0  0  0  0  0  0  0  0  0  0  0
    9.6844  -15.3555   26.4191 C   0  0  0  0  0  0  0  0  0  0  0  0
   10.3067  -15.1765   27.6434 O   0  0  0  0  0  0  0  0  0  0  0  0
    9.7140  -16.5168   25.9404 O   0  0  0  0  0  0  0  0  0  0  0  0
  2  1  1  1
  2  3  1  0
  2 10  1  0
  3  4  1  0
  4  9  2  0
  5  4  1  0
  5  6  2  0
  6  7  1  0
  7  8  2  0
  9  8  1  0
 10 17  1  0
 10 11  2  0
 13 12  1  0
 14 13  1  0
 14 15  1  1
 16 14  1  0
 16 17  1  1
 18 16  1  0
 18 19  2  0
 21 20  1  1
 21 23  1  0
 22 21  1  0
 24 23  1  1
 24 25  1  0
 25 18  1  0
 26 27  1  0
 26 24  1  0
 28 26  2  0
M  END
$$$$
