FIL.pdb
     RDKit          3D

 28 28  0  0  1  0  0  0  0  0999 V2000
    5.2255  -18.0816   24.9026 N   0  0  0  0  0  0  0  0  0  0  0  0
    5.9101  -16.8213   24.9909 C   0  0  1  0  0  0  0  0  0  0  0  0
    6.1122  -16.3565   26.4166 C   0  0  0  0  0  0  0  0  0  0  0  0
    6.3991  -14.9126   26.4822 C   0  0  0  0  0  0  0  0  0  0  0  0
    5.3683  -13.9667   26.4477 C   0  0  0  0  0  0  0  0  0  0  0  0
    5.6717  -12.6187   26.5112 C   0  0  0  0  0  0  0  0  0  0  0  0
    6.9768  -12.1775   26.6086 C   0  0  0  0  0  0  0  0  0  0  0  0
    7.9745  -13.1375   26.6406 C   0  0  0  0  0  0  0  0  0  0  0  0
    7.7072  -14.4828   26.5794 C   0  0  0  0  0  0  0  0  0  0  0  0
    7.1851  -16.8140   24.2595 C   0  0  0  0  0  0  0  0  0  0  0  0
    7.8688  -17.8869   24.1371 O   0  0  0  0  0  0  0  0  0  0  0  0
    7.3042  -13.0252   20.3147 C   0  0  0  0  0  0  0  0  0  0  0  0
    7.4394  -14.3805   20.9689 C   0  0  0  0  0  0  0  0  0  0  0  0
    8.7016  -14.4554   21.8211 C   0  0  2  0  0  0  0  0  0  0  0  0
    9.8481  -14.4356   20.8393 C   0  0  0  0  0  0  0  0  0  0  0  0
    8.7128  -15.7322   22.6379 C   0  0  2  0  0  0  0  0  0  0  0  0
    7.6615  -15.6141   23.6863 N   0  0  0  0  0  0  0  0  0  0  0  0
    9.9753  -15.7900   23.4146 C   0  0  0  0  0  0  0  0  0  0  0  0
   11.1153  -15.9277   22.8266 O   0  0  0  0  0  0  0  0  0  0  0  0
   10.7999  -13.2708   26.9970 C   0  0  0  0  0  0  0  0  0  0  0  0
   10.3123  -14.6172   27.5377 C   0  0  2  0  0  0  0  0  0  0  0  0
   10.0351  -14.5817   29.0026 C   0  0  0  0  0  0  0  0  0  0  0  0
   11.1181  -15.7649   27.0511 C   0  0  0  0  0  0  0  0  0  0  0  0
   11.3016  -15.8869   25.5772 C   0  0  2  0  0  0  0  0  0  0  0  0
   10.0783  -15.7022   24.8248 N   0  0  0  0  0  0  0  0  0  0  0  0
   12.0258  -17.0882   25.1394 C   0  0  0  0  0  0  0  0  0  0  0  0
   11.4274  -18.1386   24.4636 O   0  0  0  0  0  0  0  0  0  0  0  0
   13.2548  -17.2013   25.3747 O   0  0  0  0  0  0  0  0  0  0  0  0
  2  1  1  1
  2  3  1  0
  2 10  1  0
  3  4  1  0
  4  9  2  0
  5  4  1  0
  5  6  2  0
  6  7  1  0
  7  8  2  0
  9  8  1  0
 10 17  1  0
 10 11  2  0
 13 12  1  0
 14 13  1  0
 14 15  1  6
 16 14  1  0
 16 17  1  1
 18 16  1  0
 18 19  2  0
 21 20  1  1
 21 23  1  0
 22 21  1  0
 24 23  1  1
 24 25  1  0
 25 18  1  0
 26 27  1  0
 26 24  1  0
 28 26  2  0
M  END
$$$$
