FIL.pdb
     RDKit          3D

 28 28  0  0  1  0  0  0  0  0999 V2000
    5.3438  -17.9066   24.9706 N   0  0  0  0  0  0  0  0  0  0  0  0
    6.0504  -16.6559   25.0034 C   0  0  1  0  0  0  0  0  0  0  0  0
    6.3738  -16.1959   26.4081 C   0  0  0  0  0  0  0  0  0  0  0  0
    6.4829  -14.7285   26.4881 C   0  0  0  0  0  0  0  0  0  0  0  0
    7.7299  -14.0934   26.4850 C   0  0  0  0  0  0  0  0  0  0  0  0
    7.7975  -12.7140   26.5613 C   0  0  0  0  0  0  0  0  0  0  0  0
    6.6566  -11.9398   26.6413 C   0  0  0  0  0  0  0  0  0  0  0  0
    5.4377  -12.5974   26.6423 C   0  0  0  0  0  0  0  0  0  0  0  0
    5.3360  -13.9646   26.5677 C   0  0  0  0  0  0  0  0  0  0  0  0
    7.2620  -16.6649   24.1710 C   0  0  0  0  0  0  0  0  0  0  0  0
    7.9521  -17.7328   24.0418 O   0  0  0  0  0  0  0  0  0  0  0  0
    7.4683  -12.7919   20.2105 C   0  0  0  0  0  0  0  0  0  0  0  0
    7.5230  -14.1614   20.8466 C   0  0  0  0  0  0  0  0  0  0  0  0
    8.7846  -14.3264   21.6869 C   0  0  2  0  0  0  0  0  0  0  0  0
    9.9243  -14.3444   20.6972 C   0  0  0  0  0  0  0  0  0  0  0  0
    8.7312  -15.6221   22.4718 C   0  0  2  0  0  0  0  0  0  0  0  0
    7.6694  -15.4864   23.5074 N   0  0  0  0  0  0  0  0  0  0  0  0
    9.9781  -15.7506   23.2649 C   0  0  0  0  0  0  0  0  0  0  0  0
   11.0802  -16.1387   22.7182 O   0  0  0  0  0  0  0  0  0  0  0  0
    9.7047  -13.2228   27.8160 C   0  0  0  0  0  0  0  0  0  0  0  0
   10.2119  -14.6254   27.4720 C   0  0  2  0  0  0  0  0  0  0  0  0
   10.3180  -15.5078   28.6696 C   0  0  0  0  0  0  0  0  0  0  0  0
   11.3847  -14.6121   26.5621 C   0  0  0  0  0  0  0  0  0  0  0  0
   11.3453  -15.5359   25.3933 C   0  0  2  0  0  0  0  0  0  0  0  0
   10.1051  -15.4738   24.6485 N   0  0  0  0  0  0  0  0  0  0  0  0
   11.7275  -16.9241   25.6864 C   0  0  0  0  0  0  0  0  0  0  0  0
   10.9325  -18.0169   25.3832 O   0  0  0  0  0  0  0  0  0  0  0  0
   12.8277  -17.1688   26.2417 O   0  0  0  0  0  0  0  0  0  0  0  0
  2  1  1  1
  2  3  1  0
  2 10  1  0
  3  4  1  0
  4  9  2  0
  5  4  1  0
  5  6  2  0
  6  7  1  0
  7  8  2  0
  9  8  1  0
 10 17  1  0
 10 11  2  0
 13 12  1  0
 14 13  1  0
 14 15  1  6
 16 14  1  0
 16 17  1  1
 18 16  1  0
 18 19  2  0
 21 20  1  1
 21 23  1  0
 22 21  1  0
 24 23  1  1
 24 25  1  0
 25 18  1  0
 26 27  1  0
 26 24  1  0
 28 26  2  0
M  END
$$$$
