FIL.pdb
     RDKit          3D

 28 28  0  0  1  0  0  0  0  0999 V2000
    6.6426  -17.4046   20.3117 N   0  0  0  0  0  0  0  0  0  0  0  0
    7.1828  -16.5035   21.2920 C   0  0  1  0  0  0  0  0  0  0  0  0
    6.4166  -15.2021   21.3850 C   0  0  0  0  0  0  0  0  0  0  0  0
    7.0672  -14.1314   20.6091 C   0  0  0  0  0  0  0  0  0  0  0  0
    8.3594  -13.6937   20.9205 C   0  0  0  0  0  0  0  0  0  0  0  0
    8.9414  -12.6864   20.1722 C   0  0  0  0  0  0  0  0  0  0  0  0
    8.2751  -12.0960   19.1164 C   0  0  0  0  0  0  0  0  0  0  0  0
    6.9980  -12.5508   18.8330 C   0  0  0  0  0  0  0  0  0  0  0  0
    6.3919  -13.5483   19.5559 C   0  0  0  0  0  0  0  0  0  0  0  0
    7.3163  -17.1205   22.6195 C   0  0  0  0  0  0  0  0  0  0  0  0
    6.3729  -17.0258   23.4765 O   0  0  0  0  0  0  0  0  0  0  0  0
    8.8158  -22.1094   23.3850 C   0  0  0  0  0  0  0  0  0  0  0  0
    8.2211  -20.7265   23.5150 C   0  0  0  0  0  0  0  0  0  0  0  0
    9.1844  -19.7788   24.2214 C   0  0  2  0  0  0  0  0  0  0  0  0
    9.4013  -20.3769   25.5904 C   0  0  0  0  0  0  0  0  0  0  0  0
    8.5796  -18.3930   24.3278 C   0  0  2  0  0  0  0  0  0  0  0  0
    8.4946  -17.8240   22.9540 N   0  0  0  0  0  0  0  0  0  0  0  0
    9.5465  -17.5025   25.0153 C   0  0  0  0  0  0  0  0  0  0  0  0
   10.3547  -16.7516   24.3467 O   0  0  0  0  0  0  0  0  0  0  0  0
    7.4764  -13.0176   27.1839 C   0  0  0  0  0  0  0  0  0  0  0  0
    8.7891  -13.7864   27.3534 C   0  0  2  0  0  0  0  0  0  0  0  0
    9.9895  -12.9289   27.1344 C   0  0  0  0  0  0  0  0  0  0  0  0
    8.7868  -15.0995   26.6611 C   0  0  0  0  0  0  0  0  0  0  0  0
    9.7757  -16.1123   27.1272 C   0  0  2  0  0  0  0  0  0  0  0  0
    9.6907  -17.3722   26.4186 N   0  0  0  0  0  0  0  0  0  0  0  0
    9.8172  -16.3154   28.5819 C   0  0  0  0  0  0  0  0  0  0  0  0
   10.7989  -15.7830   29.4010 O   0  0  0  0  0  0  0  0  0  0  0  0
    8.9302  -17.0038   29.1455 O   0  0  0  0  0  0  0  0  0  0  0  0
  2  1  1  6
  2  3  1  0
  2 10  1  0
  3  4  1  0
  4  9  2  0
  5  4  1  0
  5  6  2  0
  6  7  1  0
  7  8  2  0
  9  8  1  0
 10 17  1  0
 10 11  2  0
 13 12  1  0
 14 13  1  0
 14 15  1  1
 16 14  1  0
 16 17  1  6
 18 16  1  0
 18 19  2  0
 21 20  1  6
 21 23  1  0
 22 21  1  0
 24 23  1  1
 24 25  1  0
 25 18  1  0
 26 27  1  0
 26 24  1  0
 28 26  2  0
M  END
$$$$
