IYN.pdb
     RDKit          3D

 29 29  0  0  1  0  0  0  0  0999 V2000
   17.2289  -23.4205  -12.0850 C   0  0  0  0  0  0  0  0  0  0  0  0
   16.8517  -24.4363  -11.0355 C   0  0  0  0  0  0  0  0  0  0  0  0
   16.6537  -23.8229   -9.6669 C   0  0  2  0  0  0  0  0  0  0  0  0
   17.8667  -23.0357   -9.3107 C   0  0  0  0  0  0  0  0  0  0  0  0
   16.3107  -24.9256   -8.7085 C   0  0  2  0  0  0  0  0  0  0  0  0
   15.2785  -25.7257   -9.3482 N   0  0  0  0  0  0  0  0  0  0  0  0
   15.8229  -24.4232   -7.3994 C   0  0  0  0  0  0  0  0  0  0  0  0
   16.4971  -23.6100   -6.7076 O   0  0  0  0  0  0  0  0  0  0  0  0
   11.5937  -18.9671   -8.2519 O   0  0  0  0  0  0  0  0  0  0  0  0
   11.8373  -20.2142   -7.6641 C   0  0  0  0  0  0  0  0  0  0  0  0
   11.6009  -21.3586   -8.3603 C   0  0  0  0  0  0  0  0  0  0  0  0
   11.8370  -22.6079   -7.7926 C   0  0  0  0  0  0  0  0  0  0  0  0
   12.3133  -22.7415   -6.5222 C   0  0  0  0  0  0  0  0  0  0  0  0
   12.6124  -23.9929   -5.8306 C   0  0  0  0  0  0  0  0  0  0  0  0
   14.0372  -24.3600   -5.6133 C   0  0  2  0  0  0  0  0  0  0  0  0
   14.5891  -24.8573   -6.9166 N   0  0  0  0  0  0  0  0  0  0  0  0
   14.3585  -25.3275   -4.5757 C   0  0  0  0  0  0  0  0  0  0  0  0
   14.0999  -26.5531   -4.7874 O   0  0  0  0  0  0  0  0  0  0  0  0
   12.5438  -21.5499   -5.8386 C   0  0  0  0  0  0  0  0  0  0  0  0
   12.3169  -20.3131   -6.3812 C   0  0  0  0  0  0  0  0  0  0  0  0
   18.3296  -26.2507   -3.7635 N   0  0  0  0  0  0  0  0  0  0  0  0
   17.4779  -26.8321   -2.7632 C   0  0  0  0  0  0  0  0  0  0  0  0
   17.5321  -28.0699   -2.6491 O   0  0  0  0  0  0  0  0  0  0  0  0
   16.5989  -26.0168   -1.9287 C   0  0  0  0  0  0  0  0  0  0  0  0
   15.1393  -26.0737   -2.3736 C   0  0  2  0  0  0  0  0  0  0  0  0
   14.9495  -24.9772   -3.3527 N   0  0  0  0  0  0  0  0  0  0  0  0
   14.2069  -25.8832   -1.2616 C   0  0  0  0  0  0  0  0  0  0  0  0
   13.4260  -24.8858   -1.1626 O   0  0  0  0  0  0  0  0  0  0  0  0
   14.1609  -26.8440   -0.2474 O   0  0  0  0  0  0  0  0  0  0  0  0
  2  1  1  0
  3  5  1  0
  3  2  1  0
  3  4  1  1
  5  6  1  6
  7  5  1  0
  7 16  1  0
  8  7  2  0
  9 10  1  0
 10 20  2  0
 10 11  1  0
 11 12  2  0
 12 13  1  0
 13 14  1  0
 15 14  1  6
 15 16  1  0
 17 15  1  0
 18 17  2  0
 19 13  2  0
 20 19  1  0
 21 22  1  0
 22 24  1  0
 23 22  2  0
 25 24  1  1
 25 26  1  0
 25 27  1  0
 26 17  1  0
 27 29  1  0
 28 27  2  0
M  END
$$$$
