IYN.pdb
     RDKit          3D

 29 29  0  0  1  0  0  0  0  0999 V2000
   27.4320  -13.9810  -15.2876 C   0  0  0  0  0  0  0  0  0  0  0  0
   25.9291  -14.1094  -15.3056 C   0  0  0  0  0  0  0  0  0  0  0  0
   25.2339  -12.8291  -15.7131 C   0  0  2  0  0  0  0  0  0  0  0  0
   25.6809  -11.7296  -14.8135 C   0  0  0  0  0  0  0  0  0  0  0  0
   23.7549  -13.0837  -15.7150 C   0  0  2  0  0  0  0  0  0  0  0  0
   23.5463  -14.3142  -16.4613 N   0  0  0  0  0  0  0  0  0  0  0  0
   22.9787  -11.9792  -16.3329 C   0  0  0  0  0  0  0  0  0  0  0  0
   23.0856  -11.6979  -17.5592 O   0  0  0  0  0  0  0  0  0  0  0  0
   18.4277  -14.1011  -20.4700 O   0  0  0  0  0  0  0  0  0  0  0  0
   18.7848  -13.2348  -19.4297 C   0  0  0  0  0  0  0  0  0  0  0  0
   18.7876  -11.8891  -19.6281 C   0  0  0  0  0  0  0  0  0  0  0  0
   19.1398  -11.0119  -18.6057 C   0  0  0  0  0  0  0  0  0  0  0  0
   19.4949  -11.4573  -17.3672 C   0  0  0  0  0  0  0  0  0  0  0  0
   19.8664  -10.6349  -16.2185 C   0  0  0  0  0  0  0  0  0  0  0  0
   21.2641  -10.1351  -16.1266 C   0  0  2  0  0  0  0  0  0  0  0  0
   22.1078  -11.2299  -15.5431 N   0  0  0  0  0  0  0  0  0  0  0  0
   21.5201   -8.9095  -15.3862 C   0  0  0  0  0  0  0  0  0  0  0  0
   22.5319   -8.8634  -14.6194 O   0  0  0  0  0  0  0  0  0  0  0  0
   19.4814  -12.8401  -17.1993 C   0  0  0  0  0  0  0  0  0  0  0  0
   19.1382  -13.7172  -18.1935 C   0  0  0  0  0  0  0  0  0  0  0  0
   22.1595   -4.1305  -13.7638 N   0  0  0  0  0  0  0  0  0  0  0  0
   22.9288   -4.8574  -14.7354 C   0  0  0  0  0  0  0  0  0  0  0  0
   24.0023   -4.3355  -15.0866 O   0  0  0  0  0  0  0  0  0  0  0  0
   22.4762   -6.1353  -15.2795 C   0  0  0  0  0  0  0  0  0  0  0  0
   21.1386   -6.5866  -14.6973 C   0  0  2  0  0  0  0  0  0  0  0  0
   20.7096   -7.7685  -15.4822 N   0  0  0  0  0  0  0  0  0  0  0  0
   20.1076   -5.5525  -14.7954 C   0  0  0  0  0  0  0  0  0  0  0  0
   19.9473   -4.6360  -13.9300 O   0  0  0  0  0  0  0  0  0  0  0  0
   19.2467   -5.5600  -15.8966 O   0  0  0  0  0  0  0  0  0  0  0  0
  2  1  1  0
  3  5  1  0
  3  2  1  0
  3  4  1  1
  5  6  1  6
  7  5  1  0
  7 16  1  0
  8  7  2  0
  9 10  1  0
 10 20  2  0
 10 11  1  0
 11 12  2  0
 12 13  1  0
 13 14  1  0
 15 14  1  1
 15 16  1  0
 17 15  1  0
 18 17  2  0
 19 13  2  0
 20 19  1  0
 21 22  1  0
 22 24  1  0
 23 22  2  0
 25 24  1  6
 25 26  1  0
 25 27  1  0
 26 17  1  0
 27 29  1  0
 28 27  2  0
M  END
$$$$
