IYN.pdb
     RDKit          3D

 29 29  0  0  1  0  0  0  0  0999 V2000
   29.0912  -12.9503  -20.7520 C   0  0  0  0  0  0  0  0  0  0  0  0
   30.5257  -13.0720  -20.3017 C   0  0  0  0  0  0  0  0  0  0  0  0
   30.8791  -12.1037  -19.1945 C   0  0  2  0  0  0  0  0  0  0  0  0
   30.5531  -10.7207  -19.6403 C   0  0  0  0  0  0  0  0  0  0  0  0
   32.3159  -12.3268  -18.8229 C   0  0  2  0  0  0  0  0  0  0  0  0
   32.4227  -13.7108  -18.3895 N   0  0  0  0  0  0  0  0  0  0  0  0
   32.7813  -11.4208  -17.7427 C   0  0  0  0  0  0  0  0  0  0  0  0
   32.4274  -11.5833  -16.5417 O   0  0  0  0  0  0  0  0  0  0  0  0
   37.8428  -11.3483  -11.9911 O   0  0  0  0  0  0  0  0  0  0  0  0
   37.2754  -10.8981  -13.1893 C   0  0  0  0  0  0  0  0  0  0  0  0
   36.5669   -9.7374  -13.2191 C   0  0  0  0  0  0  0  0  0  0  0  0
   35.9952   -9.2735  -14.4010 C   0  0  0  0  0  0  0  0  0  0  0  0
   36.1185   -9.9557  -15.5749 C   0  0  0  0  0  0  0  0  0  0  0  0
   35.5785   -9.5607  -16.8734 C   0  0  0  0  0  0  0  0  0  0  0  0
   34.1065   -9.3985  -17.0096 C   0  0  2  0  0  0  0  0  0  0  0  0
   33.6315  -10.3615  -18.0573 N   0  0  0  0  0  0  0  0  0  0  0  0
   33.5749   -8.0801  -17.3182 C   0  0  0  0  0  0  0  0  0  0  0  0
   33.3607   -7.7813  -18.5342 O   0  0  0  0  0  0  0  0  0  0  0  0
   36.8497  -11.1396  -15.5079 C   0  0  0  0  0  0  0  0  0  0  0  0
   37.4182  -11.6106  -14.3544 C   0  0  0  0  0  0  0  0  0  0  0  0
   29.1170   -5.1337  -18.1229 N   0  0  0  0  0  0  0  0  0  0  0  0
   30.5028   -5.0482  -17.7538 C   0  0  0  0  0  0  0  0  0  0  0  0
   31.0298   -3.9260  -17.8586 O   0  0  0  0  0  0  0  0  0  0  0  0
   31.2498   -6.2119  -17.2831 C   0  0  0  0  0  0  0  0  0  0  0  0
   32.6602   -5.8607  -16.8149 C   0  0  2  0  0  0  0  0  0  0  0  0
   33.2770   -7.1215  -16.3384 N   0  0  0  0  0  0  0  0  0  0  0  0
   32.6614   -4.8889  -15.7206 C   0  0  0  0  0  0  0  0  0  0  0  0
   32.6951   -5.2136  -14.4926 O   0  0  0  0  0  0  0  0  0  0  0  0
   32.6259   -3.5258  -16.0284 O   0  0  0  0  0  0  0  0  0  0  0  0
  2  1  1  0
  3  5  1  0
  3  2  1  0
  3  4  1  6
  5  6  1  1
  7  5  1  0
  7 16  1  0
  8  7  2  0
  9 10  1  0
 10 20  2  0
 10 11  1  0
 11 12  2  0
 12 13  1  0
 13 14  1  0
 15 14  1  6
 15 16  1  0
 17 15  1  0
 18 17  2  0
 19 13  2  0
 20 19  1  0
 21 22  1  0
 22 24  1  0
 23 22  2  0
 25 24  1  1
 25 26  1  0
 25 27  1  0
 26 17  1  0
 27 29  1  0
 28 27  2  0
M  END
$$$$
