IYN.pdb
     RDKit          3D

 29 29  0  0  1  0  0  0  0  0999 V2000
   28.5121  -20.2072   -4.2429 C   0  0  0  0  0  0  0  0  0  0  0  0
   27.2601  -20.3660   -5.0692 C   0  0  0  0  0  0  0  0  0  0  0  0
   27.4071  -19.8184   -6.4717 C   0  0  2  0  0  0  0  0  0  0  0  0
   27.8343  -18.3940   -6.3915 C   0  0  0  0  0  0  0  0  0  0  0  0
   26.1157  -20.0519   -7.1996 C   0  0  2  0  0  0  0  0  0  0  0  0
   25.8942  -21.4892   -7.2019 N   0  0  0  0  0  0  0  0  0  0  0  0
   26.1368  -19.5409   -8.5934 C   0  0  0  0  0  0  0  0  0  0  0  0
   26.1388  -18.3039   -8.8468 O   0  0  0  0  0  0  0  0  0  0  0  0
   27.9443  -19.4161  -17.2975 O   0  0  0  0  0  0  0  0  0  0  0  0
   27.8149  -19.5976  -15.9152 C   0  0  0  0  0  0  0  0  0  0  0  0
   27.7903  -18.5230  -15.0817 C   0  0  0  0  0  0  0  0  0  0  0  0
   27.6624  -18.6834  -13.7045 C   0  0  0  0  0  0  0  0  0  0  0  0
   27.5560  -19.9158  -13.1315 C   0  0  0  0  0  0  0  0  0  0  0  0
   27.4023  -20.2049  -11.7079 C   0  0  0  0  0  0  0  0  0  0  0  0
   26.0722  -19.9865  -11.0794 C   0  0  2  0  0  0  0  0  0  0  0  0
   26.1550  -20.4460   -9.6537 N   0  0  0  0  0  0  0  0  0  0  0  0
   24.9016  -20.5933  -11.6937 C   0  0  0  0  0  0  0  0  0  0  0  0
   24.6266  -21.8015  -11.4137 O   0  0  0  0  0  0  0  0  0  0  0  0
   27.5851  -20.9933  -14.0139 C   0  0  0  0  0  0  0  0  0  0  0  0
   27.7106  -20.8538  -15.3706 C   0  0  0  0  0  0  0  0  0  0  0  0
   20.0541  -22.1053  -12.5388 N   0  0  0  0  0  0  0  0  0  0  0  0
   20.4051  -20.7172  -12.6570 C   0  0  0  0  0  0  0  0  0  0  0  0
   19.5534  -19.9793  -13.1846 O   0  0  0  0  0  0  0  0  0  0  0  0
   21.6881  -20.2022  -12.1852 C   0  0  0  0  0  0  0  0  0  0  0  0
   22.8615  -20.6495  -13.0540 C   0  0  2  0  0  0  0  0  0  0  0  0
   24.0525  -19.9082  -12.5755 N   0  0  0  0  0  0  0  0  0  0  0  0
   22.6548  -20.3504  -14.4717 C   0  0  0  0  0  0  0  0  0  0  0  0
   23.1313  -19.3242  -15.0500 O   0  0  0  0  0  0  0  0  0  0  0  0
   21.8956  -21.2340  -15.2442 O   0  0  0  0  0  0  0  0  0  0  0  0
  2  1  1  0
  3  5  1  0
  3  2  1  0
  3  4  1  1
  5  6  1  6
  7  5  1  0
  7 16  1  0
  8  7  2  0
  9 10  1  0
 10 20  2  0
 10 11  1  0
 11 12  2  0
 12 13  1  0
 13 14  1  0
 15 14  1  6
 15 16  1  0
 17 15  1  0
 18 17  2  0
 19 13  2  0
 20 19  1  0
 21 22  1  0
 22 24  1  0
 23 22  2  0
 25 24  1  1
 25 26  1  0
 25 27  1  0
 26 17  1  0
 27 29  1  0
 28 27  2  0
M  END
$$$$
