IYN.pdb
     RDKit          3D

 29 29  0  0  1  0  0  0  0  0999 V2000
   30.7066  -19.4444  -19.4374 C   0  0  0  0  0  0  0  0  0  0  0  0
   29.2283  -19.5765  -19.1674 C   0  0  0  0  0  0  0  0  0  0  0  0
   28.9257  -20.4204  -17.9488 C   0  0  2  0  0  0  0  0  0  0  0  0
   29.6571  -21.7126  -18.0628 C   0  0  0  0  0  0  0  0  0  0  0  0
   27.4351  -20.5451  -17.8284 C   0  0  2  0  0  0  0  0  0  0  0  0
   26.8933  -19.2029  -17.9687 N   0  0  0  0  0  0  0  0  0  0  0  0
   27.0065  -21.1311  -16.5333 C   0  0  0  0  0  0  0  0  0  0  0  0
   27.3651  -22.2883  -16.1774 O   0  0  0  0  0  0  0  0  0  0  0  0
   24.1180  -21.1077   -8.0605 O   0  0  0  0  0  0  0  0  0  0  0  0
   24.5854  -20.8556   -9.3560 C   0  0  0  0  0  0  0  0  0  0  0  0
   23.7950  -20.2130  -10.2574 C   0  0  0  0  0  0  0  0  0  0  0  0
   24.2423  -19.9534  -11.5502 C   0  0  0  0  0  0  0  0  0  0  0  0
   25.4843  -20.3278  -11.9696 C   0  0  0  0  0  0  0  0  0  0  0  0
   26.0650  -20.0966  -13.2898 C   0  0  0  0  0  0  0  0  0  0  0  0
   25.6391  -20.9711  -14.4149 C   0  0  2  0  0  0  0  0  0  0  0  0
   26.1869  -20.3887  -15.6843 N   0  0  0  0  0  0  0  0  0  0  0  0
   24.2197  -21.2298  -14.5995 C   0  0  0  0  0  0  0  0  0  0  0  0
   23.5010  -20.3244  -15.1264 O   0  0  0  0  0  0  0  0  0  0  0  0
   26.2664  -20.9834  -11.0214 C   0  0  0  0  0  0  0  0  0  0  0  0
   25.8424  -21.2472   -9.7461 C   0  0  0  0  0  0  0  0  0  0  0  0
   20.1230  -23.6713  -12.8517 N   0  0  0  0  0  0  0  0  0  0  0  0
   20.4223  -22.2782  -12.6680 C   0  0  0  0  0  0  0  0  0  0  0  0
   19.7237  -21.6725  -11.8355 O   0  0  0  0  0  0  0  0  0  0  0  0
   21.4853  -21.6116  -13.4160 C   0  0  0  0  0  0  0  0  0  0  0  0
   22.1396  -22.5212  -14.4535 C   0  0  2  0  0  0  0  0  0  0  0  0
   23.6028  -22.4352  -14.2329 N   0  0  0  0  0  0  0  0  0  0  0  0
   21.8419  -22.1098  -15.8262 C   0  0  0  0  0  0  0  0  0  0  0  0
   22.7223  -21.6892  -16.6401 O   0  0  0  0  0  0  0  0  0  0  0  0
   20.5219  -22.1802  -16.2807 O   0  0  0  0  0  0  0  0  0  0  0  0
  2  1  1  0
  3  5  1  0
  3  2  1  0
  3  4  1  6
  5  6  1  1
  7  5  1  0
  7 16  1  0
  8  7  2  0
  9 10  1  0
 10 20  2  0
 10 11  1  0
 11 12  2  0
 12 13  1  0
 13 14  1  0
 15 14  1  1
 15 16  1  0
 17 15  1  0
 18 17  2  0
 19 13  2  0
 20 19  1  0
 21 22  1  0
 22 24  1  0
 23 22  2  0
 25 24  1  1
 25 26  1  0
 25 27  1  0
 26 17  1  0
 27 29  1  0
 28 27  2  0
M  END
$$$$
