IYN.pdb
     RDKit          3D

 29 29  0  0  1  0  0  0  0  0999 V2000
   19.7152  -14.1689  -16.3855 C   0  0  0  0  0  0  0  0  0  0  0  0
   19.6007  -12.7158  -16.7740 C   0  0  0  0  0  0  0  0  0  0  0  0
   20.6454  -11.8453  -16.1113 C   0  0  2  0  0  0  0  0  0  0  0  0
   20.7153  -12.1916  -14.6646 C   0  0  0  0  0  0  0  0  0  0  0  0
   20.3097  -10.4121  -16.4036 C   0  0  2  0  0  0  0  0  0  0  0  0
   20.2967  -10.2756  -17.8513 N   0  0  0  0  0  0  0  0  0  0  0  0
   21.2828   -9.4584  -15.8140 C   0  0  0  0  0  0  0  0  0  0  0  0
   21.4403   -9.3578  -14.5652 O   0  0  0  0  0  0  0  0  0  0  0  0
   26.7809  -13.1161  -16.2031 O   0  0  0  0  0  0  0  0  0  0  0  0
   26.1784  -11.8633  -16.3695 C   0  0  0  0  0  0  0  0  0  0  0  0
   25.0485  -11.7394  -17.1167 C   0  0  0  0  0  0  0  0  0  0  0  0
   24.4350  -10.5021  -17.2936 C   0  0  0  0  0  0  0  0  0  0  0  0
   24.9340   -9.3655  -16.7300 C   0  0  0  0  0  0  0  0  0  0  0  0
   24.3706   -8.0217  -16.8326 C   0  0  0  0  0  0  0  0  0  0  0  0
   23.0996   -7.7292  -16.1178 C   0  0  2  0  0  0  0  0  0  0  0  0
   22.0451   -8.6504  -16.6565 N   0  0  0  0  0  0  0  0  0  0  0  0
   22.5821   -6.3699  -16.1414 C   0  0  0  0  0  0  0  0  0  0  0  0
   22.0728   -5.9329  -17.2200 O   0  0  0  0  0  0  0  0  0  0  0  0
   26.0914   -9.5288  -15.9721 C   0  0  0  0  0  0  0  0  0  0  0  0
   26.7080  -10.7378  -15.7880 C   0  0  0  0  0  0  0  0  0  0  0  0
   18.2731   -3.2446  -15.5161 N   0  0  0  0  0  0  0  0  0  0  0  0
   19.7045   -3.2392  -15.6390 C   0  0  0  0  0  0  0  0  0  0  0  0
   20.2328   -2.1321  -15.8469 O   0  0  0  0  0  0  0  0  0  0  0  0
   20.4938   -4.4633  -15.5266 C   0  0  0  0  0  0  0  0  0  0  0  0
   21.9600   -4.1943  -15.1952 C   0  0  2  0  0  0  0  0  0  0  0  0
   22.6083   -5.5167  -15.0282 N   0  0  0  0  0  0  0  0  0  0  0  0
   22.1233   -3.4267  -13.9598 C   0  0  0  0  0  0  0  0  0  0  0  0
   22.5722   -3.9219  -12.8791 O   0  0  0  0  0  0  0  0  0  0  0  0
   21.7721   -2.0737  -13.9545 O   0  0  0  0  0  0  0  0  0  0  0  0
  2  1  1  0
  3  5  1  0
  3  2  1  0
  3  4  1  1
  5  6  1  6
  7  5  1  0
  7 16  1  0
  8  7  2  0
  9 10  1  0
 10 20  2  0
 10 11  1  0
 11 12  2  0
 12 13  1  0
 13 14  1  0
 15 14  1  6
 15 16  1  0
 17 15  1  0
 18 17  2  0
 19 13  2  0
 20 19  1  0
 21 22  1  0
 22 24  1  0
 23 22  2  0
 25 24  1  1
 25 26  1  0
 25 27  1  0
 26 17  1  0
 27 29  1  0
 28 27  2  0
M  END
$$$$
