IYN.pdb
     RDKit          3D

 29 29  0  0  1  0  0  0  0  0999 V2000
   25.2304  -16.3055  -16.1518 C   0  0  0  0  0  0  0  0  0  0  0  0
   25.0377  -14.8161  -16.0102 C   0  0  0  0  0  0  0  0  0  0  0  0
   24.2172  -14.2195  -17.1324 C   0  0  2  0  0  0  0  0  0  0  0  0
   24.8427  -14.5834  -18.4339 C   0  0  0  0  0  0  0  0  0  0  0  0
   24.0893  -12.7454  -16.8817 C   0  0  2  0  0  0  0  0  0  0  0  0
   23.5340  -12.5980  -15.5458 N   0  0  0  0  0  0  0  0  0  0  0  0
   23.2163  -12.0642  -17.8707 C   0  0  0  0  0  0  0  0  0  0  0  0
   23.5385  -11.9723  -19.0881 O   0  0  0  0  0  0  0  0  0  0  0  0
   15.8072  -10.0470  -22.1847 O   0  0  0  0  0  0  0  0  0  0  0  0
   16.8217  -10.4457  -21.3060 C   0  0  0  0  0  0  0  0  0  0  0  0
   16.8822   -9.9297  -20.0489 C   0  0  0  0  0  0  0  0  0  0  0  0
   17.8836  -10.3139  -19.1610 C   0  0  0  0  0  0  0  0  0  0  0  0
   18.8426  -11.2188  -19.5073 C   0  0  0  0  0  0  0  0  0  0  0  0
   19.9272  -11.7070  -18.6593 C   0  0  0  0  0  0  0  0  0  0  0  0
   21.0884  -10.8125  -18.4078 C   0  0  2  0  0  0  0  0  0  0  0  0
   22.0084  -11.5097  -17.4496 N   0  0  0  0  0  0  0  0  0  0  0  0
   20.8394   -9.4672  -17.9139 C   0  0  0  0  0  0  0  0  0  0  0  0
   20.7605   -9.2861  -16.6590 O   0  0  0  0  0  0  0  0  0  0  0  0
   18.7507  -11.7263  -20.8013 C   0  0  0  0  0  0  0  0  0  0  0  0
   17.7731  -11.3594  -21.6875 C   0  0  0  0  0  0  0  0  0  0  0  0
   19.7192   -4.4150  -17.3718 N   0  0  0  0  0  0  0  0  0  0  0  0
   20.5813   -4.6230  -18.5021 C   0  0  0  0  0  0  0  0  0  0  0  0
   21.0466   -3.5982  -19.0327 O   0  0  0  0  0  0  0  0  0  0  0  0
   20.8932   -5.9606  -18.9996 C   0  0  0  0  0  0  0  0  0  0  0  0
   20.3600   -7.0686  -18.0942 C   0  0  2  0  0  0  0  0  0  0  0  0
   20.6904   -8.3539  -18.7543 N   0  0  0  0  0  0  0  0  0  0  0  0
   18.9105   -6.9902  -17.9072 C   0  0  0  0  0  0  0  0  0  0  0  0
   18.0687   -7.2689  -18.8173 O   0  0  0  0  0  0  0  0  0  0  0  0
   18.4110   -6.5904  -16.6644 O   0  0  0  0  0  0  0  0  0  0  0  0
  2  1  1  0
  3  5  1  0
  3  2  1  0
  3  4  1  6
  5  6  1  1
  7  5  1  0
  7 16  1  0
  8  7  2  0
  9 10  1  0
 10 20  2  0
 10 11  1  0
 11 12  2  0
 12 13  1  0
 13 14  1  0
 15 14  1  1
 15 16  1  0
 17 15  1  0
 18 17  2  0
 19 13  2  0
 20 19  1  0
 21 22  1  0
 22 24  1  0
 23 22  2  0
 25 24  1  6
 25 26  1  0
 25 27  1  0
 26 17  1  0
 27 29  1  0
 28 27  2  0
M  END
$$$$
