IYN.pdb
     RDKit          3D

 29 29  0  0  1  0  0  0  0  0999 V2000
   31.1426  -23.7251  -17.4008 C   0  0  0  0  0  0  0  0  0  0  0  0
   30.0096  -23.1300  -18.1993 C   0  0  0  0  0  0  0  0  0  0  0  0
   29.0988  -22.2551  -17.3666 C   0  0  2  0  0  0  0  0  0  0  0  0
   28.5581  -23.0594  -16.2359 C   0  0  0  0  0  0  0  0  0  0  0  0
   28.0615  -21.6652  -18.2767 C   0  0  2  0  0  0  0  0  0  0  0  0
   28.7777  -20.8782  -19.2678 N   0  0  0  0  0  0  0  0  0  0  0  0
   27.0835  -20.8082  -17.5602 C   0  0  0  0  0  0  0  0  0  0  0  0
   27.4040  -19.6764  -17.1012 O   0  0  0  0  0  0  0  0  0  0  0  0
   25.4184  -15.4725  -20.8384 O   0  0  0  0  0  0  0  0  0  0  0  0
   25.0216  -16.5755  -20.0727 C   0  0  0  0  0  0  0  0  0  0  0  0
   25.3652  -17.8349  -20.4547 C   0  0  0  0  0  0  0  0  0  0  0  0
   24.9799  -18.9441  -19.7062 C   0  0  0  0  0  0  0  0  0  0  0  0
   24.2464  -18.8204  -18.5638 C   0  0  0  0  0  0  0  0  0  0  0  0
   23.8001  -19.9049  -17.6928 C   0  0  0  0  0  0  0  0  0  0  0  0
   24.7473  -20.4321  -16.6747 C   0  0  2  0  0  0  0  0  0  0  0  0
   25.7759  -21.2600  -17.3870 N   0  0  0  0  0  0  0  0  0  0  0  0
   24.2179  -21.2077  -15.5638 C   0  0  0  0  0  0  0  0  0  0  0  0
   23.9393  -22.4321  -15.7565 O   0  0  0  0  0  0  0  0  0  0  0  0
   23.9120  -17.5173  -18.2025 C   0  0  0  0  0  0  0  0  0  0  0  0
   24.2821  -16.4154  -18.9268 C   0  0  0  0  0  0  0  0  0  0  0  0
   26.6729  -20.8850  -11.7956 N   0  0  0  0  0  0  0  0  0  0  0  0
   25.5900  -21.7864  -12.0763 C   0  0  0  0  0  0  0  0  0  0  0  0
   25.9106  -22.9423  -12.4070 O   0  0  0  0  0  0  0  0  0  0  0  0
   24.1933  -21.3696  -11.9793 C   0  0  0  0  0  0  0  0  0  0  0  0
   23.4183  -21.5885  -13.2766 C   0  0  2  0  0  0  0  0  0  0  0  0
   24.0068  -20.6741  -14.2838 N   0  0  0  0  0  0  0  0  0  0  0  0
   21.9934  -21.2852  -13.1359 C   0  0  0  0  0  0  0  0  0  0  0  0
   21.1910  -21.9861  -12.4435 O   0  0  0  0  0  0  0  0  0  0  0  0
   21.4738  -20.1654  -13.7915 O   0  0  0  0  0  0  0  0  0  0  0  0
  2  1  1  0
  3  5  1  0
  3  2  1  0
  3  4  1  1
  5  6  1  6
  7  5  1  0
  7 16  1  0
  8  7  2  0
  9 10  1  0
 10 20  2  0
 10 11  1  0
 11 12  2  0
 12 13  1  0
 13 14  1  0
 15 14  1  6
 15 16  1  0
 17 15  1  0
 18 17  2  0
 19 13  2  0
 20 19  1  0
 21 22  1  0
 22 24  1  0
 23 22  2  0
 25 24  1  1
 25 26  1  0
 25 27  1  0
 26 17  1  0
 27 29  1  0
 28 27  2  0
M  END
$$$$
