IYN.pdb
     RDKit          3D

 29 29  0  0  1  0  0  0  0  0999 V2000
   27.8178  -17.6022  -18.4278 C   0  0  0  0  0  0  0  0  0  0  0  0
   28.4335  -18.7206  -17.6243 C   0  0  0  0  0  0  0  0  0  0  0  0
   27.5386  -19.2021  -16.5037 C   0  0  2  0  0  0  0  0  0  0  0  0
   27.2498  -18.0604  -15.5921 C   0  0  0  0  0  0  0  0  0  0  0  0
   28.2023  -20.3800  -15.8524 C   0  0  2  0  0  0  0  0  0  0  0  0
   28.3455  -21.3974  -16.8814 N   0  0  0  0  0  0  0  0  0  0  0  0
   27.4257  -20.9221  -14.7090 C   0  0  0  0  0  0  0  0  0  0  0  0
   26.4071  -21.6477  -14.8831 O   0  0  0  0  0  0  0  0  0  0  0  0
   25.7155  -20.1805   -5.8451 O   0  0  0  0  0  0  0  0  0  0  0  0
   26.2450  -20.3860   -7.1248 C   0  0  0  0  0  0  0  0  0  0  0  0
   25.5182  -21.0392   -8.0711 C   0  0  0  0  0  0  0  0  0  0  0  0
   26.0278  -21.2531   -9.3491 C   0  0  0  0  0  0  0  0  0  0  0  0
   27.2694  -20.8204   -9.7093 C   0  0  0  0  0  0  0  0  0  0  0  0
   27.8998  -20.9726  -11.0182 C   0  0  0  0  0  0  0  0  0  0  0  0
   27.0272  -21.0698  -12.2185 C   0  0  2  0  0  0  0  0  0  0  0  0
   27.8273  -20.6255  -13.4073 N   0  0  0  0  0  0  0  0  0  0  0  0
   25.7603  -20.3551  -12.2205 C   0  0  0  0  0  0  0  0  0  0  0  0
   25.7711  -19.1009  -12.4222 O   0  0  0  0  0  0  0  0  0  0  0  0
   27.9857  -20.1560   -8.7162 C   0  0  0  0  0  0  0  0  0  0  0  0
   27.5002  -19.9374   -7.4544 C   0  0  0  0  0  0  0  0  0  0  0  0
   21.2933  -19.5618  -15.1491 N   0  0  0  0  0  0  0  0  0  0  0  0
   22.2532  -19.0020  -14.2385 C   0  0  0  0  0  0  0  0  0  0  0  0
   22.0361  -17.8364  -13.8611 O   0  0  0  0  0  0  0  0  0  0  0  0
   23.4171  -19.7578  -13.7825 C   0  0  0  0  0  0  0  0  0  0  0  0
   23.3162  -20.1735  -12.3166 C   0  0  2  0  0  0  0  0  0  0  0  0
   24.5220  -20.9828  -12.0195 N   0  0  0  0  0  0  0  0  0  0  0  0
   22.1252  -20.9792  -12.0435 C   0  0  0  0  0  0  0  0  0  0  0  0
   21.0061  -20.4848  -11.7005 O   0  0  0  0  0  0  0  0  0  0  0  0
   22.2084  -22.3692  -12.1648 O   0  0  0  0  0  0  0  0  0  0  0  0
  2  1  1  0
  3  5  1  0
  3  2  1  0
  3  4  1  1
  5  6  1  6
  7  5  1  0
  7 16  1  0
  8  7  2  0
  9 10  1  0
 10 20  2  0
 10 11  1  0
 11 12  2  0
 12 13  1  0
 13 14  1  0
 15 14  1  1
 15 16  1  0
 17 15  1  0
 18 17  2  0
 19 13  2  0
 20 19  1  0
 21 22  1  0
 22 24  1  0
 23 22  2  0
 25 24  1  6
 25 26  1  0
 25 27  1  0
 26 17  1  0
 27 29  1  0
 28 27  2  0
M  END
$$$$
