IYN.pdb
     RDKit          3D

 29 29  0  0  1  0  0  0  0  0999 V2000
   27.8319  -19.6828  -20.2097 C   0  0  0  0  0  0  0  0  0  0  0  0
   28.4667  -19.9988  -18.8782 C   0  0  0  0  0  0  0  0  0  0  0  0
   27.4506  -20.2918  -17.7965 C   0  0  2  0  0  0  0  0  0  0  0  0
   26.8823  -19.0054  -17.3068 C   0  0  0  0  0  0  0  0  0  0  0  0
   28.1189  -21.1294  -16.7457 C   0  0  2  0  0  0  0  0  0  0  0  0
   28.5580  -22.3492  -17.4042 N   0  0  0  0  0  0  0  0  0  0  0  0
   27.2191  -21.4617  -15.6124 C   0  0  0  0  0  0  0  0  0  0  0  0
   26.3274  -22.3502  -15.7114 O   0  0  0  0  0  0  0  0  0  0  0  0
   24.4317  -20.4665   -7.0701 O   0  0  0  0  0  0  0  0  0  0  0  0
   25.1257  -20.5539   -8.2829 C   0  0  0  0  0  0  0  0  0  0  0  0
   25.4338  -21.7691   -8.8107 C   0  0  0  0  0  0  0  0  0  0  0  0
   26.1234  -21.8763  -10.0156 C   0  0  0  0  0  0  0  0  0  0  0  0
   26.5184  -20.7765  -10.7177 C   0  0  0  0  0  0  0  0  0  0  0  0
   27.2297  -20.7659  -11.9935 C   0  0  0  0  0  0  0  0  0  0  0  0
   26.4654  -21.0638  -13.2341 C   0  0  2  0  0  0  0  0  0  0  0  0
   27.3582  -20.7779  -14.4054 N   0  0  0  0  0  0  0  0  0  0  0  0
   25.1926  -20.3928  -13.4481 C   0  0  0  0  0  0  0  0  0  0  0  0
   25.1962  -19.2406  -13.9831 O   0  0  0  0  0  0  0  0  0  0  0  0
   26.1868  -19.5491  -10.1484 C   0  0  0  0  0  0  0  0  0  0  0  0
   25.5095  -19.4254   -8.9644 C   0  0  0  0  0  0  0  0  0  0  0  0
   21.4244  -17.9639  -15.7730 N   0  0  0  0  0  0  0  0  0  0  0  0
   21.4543  -19.3386  -15.3565 C   0  0  0  0  0  0  0  0  0  0  0  0
   20.3705  -19.9482  -15.3993 O   0  0  0  0  0  0  0  0  0  0  0  0
   22.6863  -19.9830  -14.9083 C   0  0  0  0  0  0  0  0  0  0  0  0
   22.7535  -20.1421  -13.3911 C   0  0  2  0  0  0  0  0  0  0  0  0
   23.9565  -20.9581  -13.1013 N   0  0  0  0  0  0  0  0  0  0  0  0
   21.5771  -20.8216  -12.8465 C   0  0  0  0  0  0  0  0  0  0  0  0
   20.4166  -20.3050  -12.8208 O   0  0  0  0  0  0  0  0  0  0  0  0
   21.7232  -22.1102  -12.3250 O   0  0  0  0  0  0  0  0  0  0  0  0
  2  1  1  0
  3  5  1  0
  3  2  1  0
  3  4  1  1
  5  6  1  6
  7  5  1  0
  7 16  1  0
  8  7  2  0
  9 10  1  0
 10 20  2  0
 10 11  1  0
 11 12  2  0
 12 13  1  0
 13 14  1  0
 15 14  1  1
 15 16  1  0
 17 15  1  0
 18 17  2  0
 19 13  2  0
 20 19  1  0
 21 22  1  0
 22 24  1  0
 23 22  2  0
 25 24  1  6
 25 26  1  0
 25 27  1  0
 26 17  1  0
 27 29  1  0
 28 27  2  0
M  END
$$$$
