IYN.pdb
     RDKit          3D

 29 29  0  0  1  0  0  0  0  0999 V2000
   15.8292  -17.7804  -19.6495 C   0  0  0  0  0  0  0  0  0  0  0  0
   16.7744  -17.0555  -20.5750 C   0  0  0  0  0  0  0  0  0  0  0  0
   18.0232  -16.5659  -19.8755 C   0  0  2  0  0  0  0  0  0  0  0  0
   17.6272  -15.6971  -18.7326 C   0  0  0  0  0  0  0  0  0  0  0  0
   18.9003  -15.9054  -20.8985 C   0  0  2  0  0  0  0  0  0  0  0  0
   19.2041  -16.9155  -21.8995 N   0  0  0  0  0  0  0  0  0  0  0  0
   20.1592  -15.3698  -20.3217 C   0  0  0  0  0  0  0  0  0  0  0  0
   20.1617  -14.6617  -19.2762 O   0  0  0  0  0  0  0  0  0  0  0  0
   22.8618  -21.3308  -18.2496 O   0  0  0  0  0  0  0  0  0  0  0  0
   23.0674  -20.0662  -18.8141 C   0  0  0  0  0  0  0  0  0  0  0  0
   23.5837  -19.0559  -18.0637 C   0  0  0  0  0  0  0  0  0  0  0  0
   23.7954  -17.7916  -18.6074 C   0  0  0  0  0  0  0  0  0  0  0  0
   23.4978  -17.5095  -19.9075 C   0  0  0  0  0  0  0  0  0  0  0  0
   23.6903  -16.2315  -20.5882 C   0  0  0  0  0  0  0  0  0  0  0  0
   22.6762  -15.1621  -20.3890 C   0  0  2  0  0  0  0  0  0  0  0  0
   21.3729  -15.6530  -20.9466 N   0  0  0  0  0  0  0  0  0  0  0  0
   22.9417  -13.8384  -20.9307 C   0  0  0  0  0  0  0  0  0  0  0  0
   22.1985  -13.4046  -21.8652 O   0  0  0  0  0  0  0  0  0  0  0  0
   22.9708  -18.5664  -20.6463 C   0  0  0  0  0  0  0  0  0  0  0  0
   22.7559  -19.8157  -20.1277 C   0  0  0  0  0  0  0  0  0  0  0  0
   22.6127   -9.0347  -22.3986 N   0  0  0  0  0  0  0  0  0  0  0  0
   22.7878   -9.5202  -21.0579 C   0  0  0  0  0  0  0  0  0  0  0  0
   22.9728   -8.6563  -20.1817 O   0  0  0  0  0  0  0  0  0  0  0  0
   22.7512  -10.9459  -20.7419 C   0  0  0  0  0  0  0  0  0  0  0  0
   24.0595  -11.6600  -21.0737 C   0  0  2  0  0  0  0  0  0  0  0  0
   23.9739  -13.0095  -20.4667 N   0  0  0  0  0  0  0  0  0  0  0  0
   25.2288  -10.9683  -20.5290 C   0  0  0  0  0  0  0  0  0  0  0  0
   25.5818   -9.8001  -20.8826 O   0  0  0  0  0  0  0  0  0  0  0  0
   26.0074  -11.6155  -19.5652 O   0  0  0  0  0  0  0  0  0  0  0  0
  2  1  1  0
  3  5  1  0
  3  2  1  0
  3  4  1  1
  5  6  1  6
  7  5  1  0
  7 16  1  0
  8  7  2  0
  9 10  1  0
 10 20  2  0
 10 11  1  0
 11 12  2  0
 12 13  1  0
 13 14  1  0
 15 14  1  6
 15 16  1  0
 17 15  1  0
 18 17  2  0
 19 13  2  0
 20 19  1  0
 21 22  1  0
 22 24  1  0
 23 22  2  0
 25 24  1  1
 25 26  1  0
 25 27  1  0
 26 17  1  0
 27 29  1  0
 28 27  2  0
M  END
$$$$
