IYN.pdb
     RDKit          3D

 29 29  0  0  1  0  0  0  0  0999 V2000
   20.8119  -14.6427  -20.0648 C   0  0  0  0  0  0  0  0  0  0  0  0
   21.4976  -13.4944  -19.3670 C   0  0  0  0  0  0  0  0  0  0  0  0
   21.9313  -12.4016  -20.3189 C   0  0  2  0  0  0  0  0  0  0  0  0
   22.8638  -12.9803  -21.3255 C   0  0  0  0  0  0  0  0  0  0  0  0
   22.4976  -11.2746  -19.5057 C   0  0  2  0  0  0  0  0  0  0  0  0
   23.5847  -11.8353  -18.7193 N   0  0  0  0  0  0  0  0  0  0  0  0
   21.4945  -10.6480  -18.6083 C   0  0  0  0  0  0  0  0  0  0  0  0
   20.4042  -10.1888  -19.0495 O   0  0  0  0  0  0  0  0  0  0  0  0
   16.2720  -14.5958  -16.9478 O   0  0  0  0  0  0  0  0  0  0  0  0
   17.2917  -13.7252  -16.5447 C   0  0  0  0  0  0  0  0  0  0  0  0
   18.5838  -14.1492  -16.5152 C   0  0  0  0  0  0  0  0  0  0  0  0
   19.6114  -13.2981  -16.1172 C   0  0  0  0  0  0  0  0  0  0  0  0
   19.3724  -12.0094  -15.7419 C   0  0  0  0  0  0  0  0  0  0  0  0
   20.3667  -11.0249  -15.3227 C   0  0  0  0  0  0  0  0  0  0  0  0
   20.7663   -9.9657  -16.2872 C   0  0  2  0  0  0  0  0  0  0  0  0
   21.7582  -10.5620  -17.2419 N   0  0  0  0  0  0  0  0  0  0  0  0
   21.3129   -8.7208  -15.7702 C   0  0  0  0  0  0  0  0  0  0  0  0
   22.5714   -8.6233  -15.6273 O   0  0  0  0  0  0  0  0  0  0  0  0
   18.0388  -11.6090  -15.7837 C   0  0  0  0  0  0  0  0  0  0  0  0
   17.0159  -12.4327  -16.1721 C   0  0  0  0  0  0  0  0  0  0  0  0
   22.5697   -3.8902  -14.9167 N   0  0  0  0  0  0  0  0  0  0  0  0
   22.6424   -4.6229  -16.1503 C   0  0  0  0  0  0  0  0  0  0  0  0
   23.2908   -4.0886  -17.0680 O   0  0  0  0  0  0  0  0  0  0  0  0
   21.9923   -5.9204  -16.3173 C   0  0  0  0  0  0  0  0  0  0  0  0
   21.2421   -6.3723  -15.0663 C   0  0  2  0  0  0  0  0  0  0  0  0
   20.5201   -7.6151  -15.4285 N   0  0  0  0  0  0  0  0  0  0  0  0
   20.2725   -5.3779  -14.6048 C   0  0  0  0  0  0  0  0  0  0  0  0
   19.0235   -5.4606  -14.8227 O   0  0  0  0  0  0  0  0  0  0  0  0
   20.7312   -4.2728  -13.8820 O   0  0  0  0  0  0  0  0  0  0  0  0
  2  1  1  0
  3  5  1  0
  3  2  1  0
  3  4  1  6
  5  6  1  1
  7  5  1  0
  7 16  1  0
  8  7  2  0
  9 10  1  0
 10 20  2  0
 10 11  1  0
 11 12  2  0
 12 13  1  0
 13 14  1  0
 15 14  1  1
 15 16  1  0
 17 15  1  0
 18 17  2  0
 19 13  2  0
 20 19  1  0
 21 22  1  0
 22 24  1  0
 23 22  2  0
 25 24  1  6
 25 26  1  0
 25 27  1  0
 26 17  1  0
 27 29  1  0
 28 27  2  0
M  END
$$$$
