WED.pdb
     RDKit          3D

 32 33  0  0  1  0  0  0  0  0999 V2000
    9.2311  -17.3208   21.0373 N   0  0  0  0  0  0  0  0  0  0  0  0
   10.5436  -16.9197   20.5651 C   0  0  1  0  0  0  0  0  0  0  0  0
   10.7963  -15.5279   21.1147 C   0  0  0  0  0  0  0  0  0  0  0  0
    9.5431  -14.9720   21.6530 C   0  0  0  0  0  0  0  0  0  0  0  0
    8.9041  -15.2520   22.8421 C   0  0  0  0  0  0  0  0  0  0  0  0
    7.7805  -14.5021   22.8947 N   0  0  0  0  0  0  0  0  0  0  0  0
    7.6647  -13.7482   21.7903 C   0  0  0  0  0  0  0  0  0  0  0  0
    6.7314  -12.8166   21.3321 C   0  0  0  0  0  0  0  0  0  0  0  0
    6.9020  -12.1910   20.1161 C   0  0  0  0  0  0  0  0  0  0  0  0
    7.9924  -12.4629   19.3182 C   0  0  0  0  0  0  0  0  0  0  0  0
    8.9026  -13.3845   19.7854 C   0  0  0  0  0  0  0  0  0  0  0  0
    8.7570  -14.0297   21.0049 C   0  0  0  0  0  0  0  0  0  0  0  0
   11.5319  -17.9106   21.0927 C   0  0  0  0  0  0  0  0  0  0  0  0
   11.2533  -18.6707   22.0521 O   0  0  0  0  0  0  0  0  0  0  0  0
   12.8283  -18.0498   20.5486 N   0  0  0  0  0  0  0  0  0  0  0  0
   13.8166  -18.9805   20.9036 C   0  0  1  0  0  0  0  0  0  0  0  0
   14.4638  -19.7910   19.8226 C   0  0  0  0  0  0  0  0  0  0  0  0
   13.5240  -20.4277   18.8344 C   0  0  0  0  0  0  0  0  0  0  0  0
   13.2689  -21.8732   19.1109 C   0  0  0  0  0  0  0  0  0  0  0  0
   13.8747  -22.3750   20.0904 O   0  0  0  0  0  0  0  0  0  0  0  0
   14.8414  -18.4740   21.8229 C   0  0  0  0  0  0  0  0  0  0  0  0
   15.7800  -19.2492   22.1175 O   0  0  0  0  0  0  0  0  0  0  0  0
   12.4320  -22.6923   18.3905 O   0  0  0  0  0  0  0  0  0  0  0  0
   14.7517  -17.1730   22.3355 N   0  0  0  0  0  0  0  0  0  0  0  0
   15.7255  -16.6612   23.3103 C   0  0  1  0  0  0  0  0  0  0  0  0
   15.8432  -17.6880   24.3735 C   0  0  0  0  0  0  0  0  0  0  0  0
   16.7856  -17.3603   25.4606 C   0  0  0  0  0  0  0  0  0  0  0  0
   17.9237  -17.8749   25.4735 O   0  0  0  0  0  0  0  0  0  0  0  0
   16.9897  -16.4248   22.5737 C   0  0  0  0  0  0  0  0  0  0  0  0
   17.1529  -16.9304   21.2837 O   0  0  0  0  0  0  0  0  0  0  0  0
   16.3454  -16.4708   26.4404 O   0  0  0  0  0  0  0  0  0  0  0  0
   17.9697  -15.7824   23.0202 O   0  0  0  0  0  0  0  0  0  0  0  0
  2 13  1  0
  2  1  1  1
  3  4  1  0
  3  2  1  0
  4 12  1  0
  5  4  2  0
  5  6  1  0
  6  7  1  0
  7 12  2  0
  7  8  1  0
  8  9  2  0
  9 10  1  0
 11 10  2  0
 12 11  1  0
 13 14  2  0
 15 16  1  0
 15 13  1  0
 16 17  1  6
 18 17  1  0
 19 18  1  0
 19 20  2  0
 21 16  1  0
 22 21  2  0
 23 19  1  0
 24 21  1  0
 25 29  1  0
 25 24  1  0
 25 26  1  1
 27 26  1  0
 28 27  2  0
 29 30  1  0
 31 27  1  0
 32 29  2  0
M  END
$$$$
