WED.pdb
     RDKit          3D

 32 33  0  0  1  0  0  0  0  0999 V2000
    9.7343  -15.6893   23.3346 N   0  0  0  0  0  0  0  0  0  0  0  0
    8.8598  -16.1891   24.3795 C   0  0  1  0  0  0  0  0  0  0  0  0
    7.4406  -15.8674   23.9489 C   0  0  0  0  0  0  0  0  0  0  0  0
    7.3066  -14.4178   23.7250 C   0  0  0  0  0  0  0  0  0  0  0  0
    7.3490  -13.7099   22.5428 C   0  0  0  0  0  0  0  0  0  0  0  0
    7.1879  -12.4006   22.8383 N   0  0  0  0  0  0  0  0  0  0  0  0
    7.0428  -12.2304   24.1618 C   0  0  0  0  0  0  0  0  0  0  0  0
    6.8486  -11.1260   24.9932 C   0  0  0  0  0  0  0  0  0  0  0  0
    6.7308  -11.2853   26.3569 C   0  0  0  0  0  0  0  0  0  0  0  0
    6.8002  -12.5320   26.9404 C   0  0  0  0  0  0  0  0  0  0  0  0
    6.9925  -13.6101   26.1056 C   0  0  0  0  0  0  0  0  0  0  0  0
    7.1145  -13.4800   24.7298 C   0  0  0  0  0  0  0  0  0  0  0  0
    9.0849  -17.6639   24.4850 C   0  0  0  0  0  0  0  0  0  0  0  0
    8.3766  -18.3861   25.2284 O   0  0  0  0  0  0  0  0  0  0  0  0
   10.1002  -18.3283   23.7612 N   0  0  0  0  0  0  0  0  0  0  0  0
   10.4569  -19.6840   23.8237 C   0  0  1  0  0  0  0  0  0  0  0  0
   11.2226  -20.2802   22.6824 C   0  0  0  0  0  0  0  0  0  0  0  0
   12.5545  -19.6442   22.3883 C   0  0  0  0  0  0  0  0  0  0  0  0
   13.0491  -19.9242   21.0070 C   0  0  0  0  0  0  0  0  0  0  0  0
   12.8589  -21.0846   20.5649 O   0  0  0  0  0  0  0  0  0  0  0  0
   11.0531  -20.1086   25.0949 C   0  0  0  0  0  0  0  0  0  0  0  0
   11.1781  -21.3402   25.2857 O   0  0  0  0  0  0  0  0  0  0  0  0
   13.6875  -19.0251   20.1859 O   0  0  0  0  0  0  0  0  0  0  0  0
   11.4587  -19.1565   26.0394 N   0  0  0  0  0  0  0  0  0  0  0  0
   12.0552  -19.5518   27.3233 C   0  0  1  0  0  0  0  0  0  0  0  0
   13.3737  -18.8785   27.4053 C   0  0  0  0  0  0  0  0  0  0  0  0
   14.4594  -19.5303   26.6476 C   0  0  0  0  0  0  0  0  0  0  0  0
   14.2143  -20.5387   25.9526 O   0  0  0  0  0  0  0  0  0  0  0  0
   11.1102  -19.1329   28.3854 C   0  0  0  0  0  0  0  0  0  0  0  0
   11.3386  -19.5033   29.7110 O   0  0  0  0  0  0  0  0  0  0  0  0
   15.7332  -18.9717   26.7493 O   0  0  0  0  0  0  0  0  0  0  0  0
   10.0795  -18.4442   28.1966 O   0  0  0  0  0  0  0  0  0  0  0  0
  2 13  1  0
  2  1  1  6
  3  4  1  0
  3  2  1  0
  4 12  1  0
  5  4  2  0
  5  6  1  0
  6  7  1  0
  7 12  2  0
  7  8  1  0
  8  9  2  0
  9 10  1  0
 11 10  2  0
 12 11  1  0
 13 14  2  0
 15 16  1  0
 15 13  1  0
 16 17  1  6
 18 17  1  0
 19 18  1  0
 19 20  2  0
 21 16  1  0
 22 21  2  0
 23 19  1  0
 24 21  1  0
 25 29  1  0
 25 24  1  0
 25 26  1  1
 27 26  1  0
 28 27  2  0
 29 30  1  0
 31 27  1  0
 32 29  2  0
M  END
$$$$
