WED.pdb
     RDKit          3D

 32 33  0  0  1  0  0  0  0  0999 V2000
    7.1224  -17.3749   23.9836 N   0  0  0  0  0  0  0  0  0  0  0  0
    8.2246  -16.4512   23.7879 C   0  0  1  0  0  0  0  0  0  0  0  0
    8.6011  -15.9272   25.1616 C   0  0  0  0  0  0  0  0  0  0  0  0
    7.5103  -15.0899   25.6892 C   0  0  0  0  0  0  0  0  0  0  0  0
    6.3767  -15.4659   26.3780 C   0  0  0  0  0  0  0  0  0  0  0  0
    5.6656  -14.3478   26.6462 N   0  0  0  0  0  0  0  0  0  0  0  0
    6.2905  -13.2637   26.1607 C   0  0  0  0  0  0  0  0  0  0  0  0
    6.0166  -11.8949   26.1530 C   0  0  0  0  0  0  0  0  0  0  0  0
    6.8856  -11.0079   25.5554 C   0  0  0  0  0  0  0  0  0  0  0  0
    8.0457  -11.4405   24.9500 C   0  0  0  0  0  0  0  0  0  0  0  0
    8.2999  -12.7938   24.9666 C   0  0  0  0  0  0  0  0  0  0  0  0
    7.4438  -13.7098   25.5603 C   0  0  0  0  0  0  0  0  0  0  0  0
    9.3460  -17.2176   23.1618 C   0  0  0  0  0  0  0  0  0  0  0  0
    9.8041  -18.2612   23.6881 O   0  0  0  0  0  0  0  0  0  0  0  0
    9.9533  -16.8167   21.9508 N   0  0  0  0  0  0  0  0  0  0  0  0
   11.2029  -17.2044   21.4436 C   0  0  1  0  0  0  0  0  0  0  0  0
   11.5384  -16.8695   20.0225 C   0  0  0  0  0  0  0  0  0  0  0  0
   12.8698  -17.3710   19.5317 C   0  0  0  0  0  0  0  0  0  0  0  0
   13.1914  -16.9259   18.1426 C   0  0  0  0  0  0  0  0  0  0  0  0
   12.6000  -17.5226   17.2086 O   0  0  0  0  0  0  0  0  0  0  0  0
   12.3455  -16.8915   22.3087 C   0  0  0  0  0  0  0  0  0  0  0  0
   12.4209  -15.7248   22.7580 O   0  0  0  0  0  0  0  0  0  0  0  0
   14.0711  -15.9250   17.8044 O   0  0  0  0  0  0  0  0  0  0  0  0
   13.2986  -17.8747   22.6057 N   0  0  0  0  0  0  0  0  0  0  0  0
   14.4162  -17.6106   23.5231 C   0  0  1  0  0  0  0  0  0  0  0  0
   14.9024  -18.9303   23.9926 C   0  0  0  0  0  0  0  0  0  0  0  0
   15.1639  -19.0234   25.4419 C   0  0  0  0  0  0  0  0  0  0  0  0
   15.0870  -18.0006   26.1547 O   0  0  0  0  0  0  0  0  0  0  0  0
   15.4295  -16.8446   22.7594 C   0  0  0  0  0  0  0  0  0  0  0  0
   15.5470  -17.0211   21.3805 O   0  0  0  0  0  0  0  0  0  0  0  0
   15.4907  -20.2795   25.9521 O   0  0  0  0  0  0  0  0  0  0  0  0
   16.2253  -16.0138   23.2581 O   0  0  0  0  0  0  0  0  0  0  0  0
  2 13  1  0
  2  1  1  1
  3  4  1  0
  3  2  1  0
  4 12  1  0
  5  4  2  0
  5  6  1  0
  6  7  1  0
  7 12  2  0
  7  8  1  0
  8  9  2  0
  9 10  1  0
 11 10  2  0
 12 11  1  0
 13 14  2  0
 15 16  1  0
 15 13  1  0
 16 17  1  6
 18 17  1  0
 19 18  1  0
 19 20  2  0
 21 16  1  0
 22 21  2  0
 23 19  1  0
 24 21  1  0
 25 29  1  0
 25 24  1  0
 25 26  1  6
 27 26  1  0
 28 27  2  0
 29 30  1  0
 31 27  1  0
 32 29  2  0
M  END
$$$$
