WED.pdb
     RDKit          3D

 32 33  0  0  1  0  0  0  0  0999 V2000
    6.9338  -17.8040   25.0945 N   0  0  0  0  0  0  0  0  0  0  0  0
    7.7956  -16.8274   24.4542 C   0  0  1  0  0  0  0  0  0  0  0  0
    8.5083  -16.0813   25.5671 C   0  0  0  0  0  0  0  0  0  0  0  0
    7.5906  -15.1031   26.1754 C   0  0  0  0  0  0  0  0  0  0  0  0
    6.7021  -15.2701   27.2163 C   0  0  0  0  0  0  0  0  0  0  0  0
    6.0707  -14.0913   27.4147 N   0  0  0  0  0  0  0  0  0  0  0  0
    6.5126  -13.1678   26.5467 C   0  0  0  0  0  0  0  0  0  0  0  0
    6.2187  -11.8237   26.3105 C   0  0  0  0  0  0  0  0  0  0  0  0
    6.8678  -11.1272   25.3141 C   0  0  0  0  0  0  0  0  0  0  0  0
    7.8220  -11.7311   24.5239 C   0  0  0  0  0  0  0  0  0  0  0  0
    8.0990  -13.0572   24.7704 C   0  0  0  0  0  0  0  0  0  0  0  0
    7.4618  -13.7833   25.7660 C   0  0  0  0  0  0  0  0  0  0  0  0
    8.7564  -17.5774   23.5874 C   0  0  0  0  0  0  0  0  0  0  0  0
    9.3481  -18.6057   23.9978 O   0  0  0  0  0  0  0  0  0  0  0  0
    9.0546  -17.1773   22.2657 N   0  0  0  0  0  0  0  0  0  0  0  0
   10.1415  -17.5713   21.4704 C   0  0  1  0  0  0  0  0  0  0  0  0
   10.0923  -17.2988   19.9981 C   0  0  0  0  0  0  0  0  0  0  0  0
   11.1290  -18.0082   19.1691 C   0  0  0  0  0  0  0  0  0  0  0  0
   10.9790  -17.7643   17.7031 C   0  0  0  0  0  0  0  0  0  0  0  0
   12.0063  -17.3861   17.0868 O   0  0  0  0  0  0  0  0  0  0  0  0
   11.4596  -17.2025   21.9980 C   0  0  0  0  0  0  0  0  0  0  0  0
   11.5958  -16.0366   22.4349 O   0  0  0  0  0  0  0  0  0  0  0  0
    9.8212  -17.9202   16.9783 O   0  0  0  0  0  0  0  0  0  0  0  0
   12.5061  -18.1343   22.0028 N   0  0  0  0  0  0  0  0  0  0  0  0
   13.8315  -17.7999   22.5430 C   0  0  1  0  0  0  0  0  0  0  0  0
   14.4356  -19.0723   23.0064 C   0  0  0  0  0  0  0  0  0  0  0  0
   14.4052  -19.2863   24.4661 C   0  0  0  0  0  0  0  0  0  0  0  0
   14.0515  -18.3583   25.2236 O   0  0  0  0  0  0  0  0  0  0  0  0
   14.5912  -17.1482   21.4499 C   0  0  0  0  0  0  0  0  0  0  0  0
   15.6972  -16.3508   21.7453 O   0  0  0  0  0  0  0  0  0  0  0  0
   14.7817  -20.5448   24.9346 O   0  0  0  0  0  0  0  0  0  0  0  0
   14.3225  -17.2525   20.2296 O   0  0  0  0  0  0  0  0  0  0  0  0
  2 13  1  0
  2  1  1  1
  3  4  1  0
  3  2  1  0
  4 12  1  0
  5  4  2  0
  5  6  1  0
  6  7  1  0
  7 12  2  0
  7  8  1  0
  8  9  2  0
  9 10  1  0
 11 10  2  0
 12 11  1  0
 13 14  2  0
 15 16  1  0
 15 13  1  0
 16 17  1  6
 18 17  1  0
 19 18  1  0
 19 20  2  0
 21 16  1  0
 22 21  2  0
 23 19  1  0
 24 21  1  0
 25 29  1  0
 25 24  1  0
 25 26  1  6
 27 26  1  0
 28 27  2  0
 29 30  1  0
 31 27  1  0
 32 29  2  0
M  END
$$$$
