WED.pdb
     RDKit          3D

 32 33  0  0  1  0  0  0  0  0999 V2000
    7.8232  -17.3445   24.2280 N   0  0  0  0  0  0  0  0  0  0  0  0
    7.8558  -16.4933   23.0530 C   0  0  1  0  0  0  0  0  0  0  0  0
    6.8704  -15.3671   23.3052 C   0  0  0  0  0  0  0  0  0  0  0  0
    6.9216  -14.9710   24.7228 C   0  0  0  0  0  0  0  0  0  0  0  0
    6.8336  -15.7570   25.8521 C   0  0  0  0  0  0  0  0  0  0  0  0
    6.9225  -14.9451   26.9293 N   0  0  0  0  0  0  0  0  0  0  0  0
    7.0646  -13.6667   26.5458 C   0  0  0  0  0  0  0  0  0  0  0  0
    7.2008  -12.4505   27.2175 C   0  0  0  0  0  0  0  0  0  0  0  0
    7.3344  -11.2718   26.5162 C   0  0  0  0  0  0  0  0  0  0  0  0
    7.3380  -11.2554   25.1381 C   0  0  0  0  0  0  0  0  0  0  0  0
    7.2022  -12.4638   24.4919 C   0  0  0  0  0  0  0  0  0  0  0  0
    7.0660  -13.6657   25.1713 C   0  0  0  0  0  0  0  0  0  0  0  0
    9.2541  -15.9827   22.9081 C   0  0  0  0  0  0  0  0  0  0  0  0
    9.6962  -15.0597   23.6351 O   0  0  0  0  0  0  0  0  0  0  0  0
   10.1546  -16.5031   21.9518 N   0  0  0  0  0  0  0  0  0  0  0  0
   11.4693  -16.9480   22.1586 C   0  0  1  0  0  0  0  0  0  0  0  0
   11.9708  -17.0831   23.5638 C   0  0  0  0  0  0  0  0  0  0  0  0
   12.7704  -15.9194   24.0850 C   0  0  0  0  0  0  0  0  0  0  0  0
   14.1119  -16.3142   24.6098 C   0  0  0  0  0  0  0  0  0  0  0  0
   14.3998  -17.5360   24.5586 O   0  0  0  0  0  0  0  0  0  0  0  0
   11.8509  -18.1319   21.3811 C   0  0  0  0  0  0  0  0  0  0  0  0
   11.1475  -19.1590   21.5194 O   0  0  0  0  0  0  0  0  0  0  0  0
   15.0504  -15.4591   25.1374 O   0  0  0  0  0  0  0  0  0  0  0  0
   12.9598  -18.0896   20.5257 N   0  0  0  0  0  0  0  0  0  0  0  0
   13.3518  -19.2521   19.7161 C   0  0  1  0  0  0  0  0  0  0  0  0
   14.1337  -18.7286   18.5702 C   0  0  0  0  0  0  0  0  0  0  0  0
   13.3491  -17.9970   17.5571 C   0  0  0  0  0  0  0  0  0  0  0  0
   12.2420  -18.4419   17.1873 O   0  0  0  0  0  0  0  0  0  0  0  0
   14.1294  -20.1516   20.6010 C   0  0  0  0  0  0  0  0  0  0  0  0
   14.3637  -21.4739   20.2228 O   0  0  0  0  0  0  0  0  0  0  0  0
   13.8979  -16.8178   17.0538 O   0  0  0  0  0  0  0  0  0  0  0  0
   14.6205  -19.8205   21.7062 O   0  0  0  0  0  0  0  0  0  0  0  0
  2 13  1  0
  2  1  1  1
  3  4  1  0
  3  2  1  0
  4 12  1  0
  5  4  2  0
  5  6  1  0
  6  7  1  0
  7 12  2  0
  7  8  1  0
  8  9  2  0
  9 10  1  0
 11 10  2  0
 12 11  1  0
 13 14  2  0
 15 16  1  0
 15 13  1  0
 16 17  1  1
 18 17  1  0
 19 18  1  0
 19 20  2  0
 21 16  1  0
 22 21  2  0
 23 19  1  0
 24 21  1  0
 25 29  1  0
 25 24  1  0
 25 26  1  6
 27 26  1  0
 28 27  2  0
 29 30  1  0
 31 27  1  0
 32 29  2  0
M  END
$$$$
