WED.pdb
     RDKit          3D

 32 33  0  0  1  0  0  0  0  0999 V2000
    6.8965  -17.4249   24.1229 N   0  0  0  0  0  0  0  0  0  0  0  0
    7.9916  -16.4789   24.0111 C   0  0  1  0  0  0  0  0  0  0  0  0
    8.2814  -15.9822   25.4156 C   0  0  0  0  0  0  0  0  0  0  0  0
    7.2190  -15.0562   25.8434 C   0  0  0  0  0  0  0  0  0  0  0  0
    5.9471  -15.3364   26.2955 C   0  0  0  0  0  0  0  0  0  0  0  0
    5.3336  -14.1611   26.5599 N   0  0  0  0  0  0  0  0  0  0  0  0
    6.1541  -13.1316   26.2984 C   0  0  0  0  0  0  0  0  0  0  0  0
    6.0450  -11.7429   26.3893 C   0  0  0  0  0  0  0  0  0  0  0  0
    7.1011  -10.9307   26.0369 C   0  0  0  0  0  0  0  0  0  0  0  0
    8.2914  -11.4596   25.5865 C   0  0  0  0  0  0  0  0  0  0  0  0
    8.3813  -12.8311   25.5026 C   0  0  0  0  0  0  0  0  0  0  0  0
    7.3352  -13.6733   25.8503 C   0  0  0  0  0  0  0  0  0  0  0  0
    9.1595  -17.2116   23.4315 C   0  0  0  0  0  0  0  0  0  0  0  0
    9.0703  -18.4102   23.0693 O   0  0  0  0  0  0  0  0  0  0  0  0
   10.4236  -16.6048   23.2586 N   0  0  0  0  0  0  0  0  0  0  0  0
   11.6304  -17.2177   22.8882 C   0  0  1  0  0  0  0  0  0  0  0  0
   12.3746  -16.6839   21.7027 C   0  0  0  0  0  0  0  0  0  0  0  0
   13.6006  -17.4586   21.3001 C   0  0  0  0  0  0  0  0  0  0  0  0
   14.2567  -16.9250   20.0689 C   0  0  0  0  0  0  0  0  0  0  0  0
   13.8477  -17.3782   18.9709 O   0  0  0  0  0  0  0  0  0  0  0  0
   12.5658  -17.4587   23.9921 C   0  0  0  0  0  0  0  0  0  0  0  0
   13.3595  -16.5342   24.2823 O   0  0  0  0  0  0  0  0  0  0  0  0
   15.2605  -15.9860   20.0375 O   0  0  0  0  0  0  0  0  0  0  0  0
   12.5513  -18.6803   24.6782 N   0  0  0  0  0  0  0  0  0  0  0  0
   13.4038  -18.9133   25.8527 C   0  0  1  0  0  0  0  0  0  0  0  0
   12.6910  -19.8921   26.7085 C   0  0  0  0  0  0  0  0  0  0  0  0
   11.4912  -19.3715   27.3918 C   0  0  0  0  0  0  0  0  0  0  0  0
   11.2744  -18.1417   27.4173 O   0  0  0  0  0  0  0  0  0  0  0  0
   14.7071  -19.4073   25.3487 C   0  0  0  0  0  0  0  0  0  0  0  0
   14.7806  -20.0530   24.1141 O   0  0  0  0  0  0  0  0  0  0  0  0
   10.6412  -20.3031   27.9873 O   0  0  0  0  0  0  0  0  0  0  0  0
   15.7995  -19.2923   25.9535 O   0  0  0  0  0  0  0  0  0  0  0  0
  2 13  1  0
  2  1  1  1
  3  4  1  0
  3  2  1  0
  4 12  1  0
  5  4  2  0
  5  6  1  0
  6  7  1  0
  7 12  2  0
  7  8  1  0
  8  9  2  0
  9 10  1  0
 11 10  2  0
 12 11  1  0
 13 14  2  0
 15 16  1  0
 15 13  1  0
 16 17  1  6
 18 17  1  0
 19 18  1  0
 19 20  2  0
 21 16  1  0
 22 21  2  0
 23 19  1  0
 24 21  1  0
 25 29  1  0
 25 24  1  0
 25 26  1  1
 27 26  1  0
 28 27  2  0
 29 30  1  0
 31 27  1  0
 32 29  2  0
M  END
$$$$
