YKD.pdb
     RDKit          3D

 30 30  0  0  1  0  0  0  0  0999 V2000
   30.3958  -20.9017   -9.6425 O   0  0  0  0  0  0  0  0  0  0  0  0
   29.2579  -20.6494  -10.4310 C   0  0  0  0  0  0  0  0  0  0  0  0
   27.9993  -20.9150   -9.9663 C   0  0  0  0  0  0  0  0  0  0  0  0
   26.9172  -20.6446  -10.7906 C   0  0  0  0  0  0  0  0  0  0  0  0
   27.0751  -20.1193  -12.0564 C   0  0  0  0  0  0  0  0  0  0  0  0
   25.8702  -19.8531  -12.8852 C   0  0  0  0  0  0  0  0  0  0  0  0
   25.3662  -21.1749  -13.4212 C   0  0  2  0  0  0  0  0  0  0  0  0
   26.2652  -21.5789  -14.4729 N   0  0  0  0  0  0  0  0  0  0  0  0
   24.0053  -21.0660  -13.9801 C   0  0  0  0  0  0  0  0  0  0  0  0
   23.8580  -20.6957  -15.1569 O   0  0  0  0  0  0  0  0  0  0  0  0
   28.3509  -19.8633  -12.4953 C   0  0  0  0  0  0  0  0  0  0  0  0
   29.4342  -20.1268  -11.6875 C   0  0  0  0  0  0  0  0  0  0  0  0
   22.9054  -21.3894  -13.1516 N   0  0  0  0  0  0  0  0  0  0  0  0
   21.5527  -21.3903  -13.6954 C   0  0  1  0  0  0  0  0  0  0  0  0
   20.7716  -22.3894  -12.9102 C   0  0  0  0  0  0  0  0  0  0  0  0
   19.3636  -22.4656  -13.3898 C   0  0  0  0  0  0  0  0  0  0  0  0
   18.6315  -23.4792  -12.5102 C   0  0  0  0  0  0  0  0  0  0  0  0
   17.2408  -23.6244  -13.0475 C   0  0  0  0  0  0  0  0  0  0  0  0
   16.4214  -24.4401  -12.1763 N   0  0  0  0  0  0  0  0  0  0  0  0
   21.0296  -20.0130  -13.6695 C   0  0  0  0  0  0  0  0  0  0  0  0
   21.5253  -19.1080  -12.9307 O   0  0  0  0  0  0  0  0  0  0  0  0
   19.9330  -19.6718  -14.4947 N   0  0  0  0  0  0  0  0  0  0  0  0
   19.7293  -18.2940  -14.9891 C   0  0  1  0  0  0  0  0  0  0  0  0
   20.8945  -17.9042  -15.8558 C   0  0  0  0  0  0  0  0  0  0  0  0
   20.7526  -16.5529  -16.3822 C   0  0  0  0  0  0  0  0  0  0  0  0
   19.8066  -15.7924  -16.1248 O   0  0  0  0  0  0  0  0  0  0  0  0
   18.4296  -18.2579  -15.7063 C   0  0  0  0  0  0  0  0  0  0  0  0
   17.5148  -17.4424  -15.3777 O   0  0  0  0  0  0  0  0  0  0  0  0
   21.7564  -16.0705  -17.2441 O   0  0  0  0  0  0  0  0  0  0  0  0
   18.1655  -19.0992  -16.7488 O   0  0  0  0  0  0  0  0  0  0  0  0
  2  3  2  0
  2  1  1  0
  4  3  1  0
  5  4  2  0
  6  5  1  0
  7  6  1  0
  7  8  1  6
  9 10  2  0
  9  7  1  0
 11  5  1  0
 11 12  2  0
 12  2  1  0
 13  9  1  0
 14 13  1  0
 14 15  1  1
 16 17  1  0
 16 15  1  0
 18 17  1  0
 19 18  1  0
 20 14  1  0
 20 22  1  0
 21 20  2  0
 23 22  1  0
 23 27  1  0
 23 24  1  6
 25 26  2  0
 25 24  1  0
 27 28  2  0
 27 30  1  0
 29 25  1  0
M  END
$$$$
