YKD.pdb
     RDKit          3D

 30 30  0  0  1  0  0  0  0  0999 V2000
   24.7026  -15.5231  -21.7750 O   0  0  0  0  0  0  0  0  0  0  0  0
   23.7341  -14.6650  -21.2219 C   0  0  0  0  0  0  0  0  0  0  0  0
   22.6551  -15.1577  -20.5412 C   0  0  0  0  0  0  0  0  0  0  0  0
   21.7346  -14.2612  -20.0190 C   0  0  0  0  0  0  0  0  0  0  0  0
   21.8772  -12.8970  -20.1665 C   0  0  0  0  0  0  0  0  0  0  0  0
   20.8525  -11.9944  -19.5794 C   0  0  0  0  0  0  0  0  0  0  0  0
   21.3264  -11.5752  -18.2052 C   0  0  2  0  0  0  0  0  0  0  0  0
   21.3055  -12.7501  -17.3705 N   0  0  0  0  0  0  0  0  0  0  0  0
   20.4501  -10.5529  -17.6025 C   0  0  0  0  0  0  0  0  0  0  0  0
   20.2959   -9.4647  -18.1818 O   0  0  0  0  0  0  0  0  0  0  0  0
   22.9708  -12.4324  -20.8549 C   0  0  0  0  0  0  0  0  0  0  0  0
   23.8924  -13.3110  -21.3786 C   0  0  0  0  0  0  0  0  0  0  0  0
   19.8099  -10.8479  -16.3762 N   0  0  0  0  0  0  0  0  0  0  0  0
   18.8712   -9.8978  -15.7916 C   0  0  1  0  0  0  0  0  0  0  0  0
   17.9704  -10.6768  -14.8935 C   0  0  0  0  0  0  0  0  0  0  0  0
   16.9266  -11.3967  -15.6749 C   0  0  0  0  0  0  0  0  0  0  0  0
   15.9851  -12.0692  -14.6758 C   0  0  0  0  0  0  0  0  0  0  0  0
   14.9321  -12.7902  -15.4601 C   0  0  0  0  0  0  0  0  0  0  0  0
   14.0743  -13.5731  -14.5958 N   0  0  0  0  0  0  0  0  0  0  0  0
   19.6328   -8.8155  -15.1436 C   0  0  0  0  0  0  0  0  0  0  0  0
   20.6088   -9.0392  -14.3640 O   0  0  0  0  0  0  0  0  0  0  0  0
   19.2735   -7.4702  -15.3908 N   0  0  0  0  0  0  0  0  0  0  0  0
   20.0164   -6.3427  -14.7901 C   0  0  1  0  0  0  0  0  0  0  0  0
   21.4747   -6.4760  -15.1311 C   0  0  0  0  0  0  0  0  0  0  0  0
   22.2377   -5.3030  -14.7247 C   0  0  0  0  0  0  0  0  0  0  0  0
   22.0599   -4.6787  -13.6672 O   0  0  0  0  0  0  0  0  0  0  0  0
   19.4114   -5.0831  -15.2925 C   0  0  0  0  0  0  0  0  0  0  0  0
   19.8554   -3.9484  -14.9383 O   0  0  0  0  0  0  0  0  0  0  0  0
   23.2494   -4.8406  -15.5883 O   0  0  0  0  0  0  0  0  0  0  0  0
   18.3541   -5.0934  -16.1563 O   0  0  0  0  0  0  0  0  0  0  0  0
  2  3  2  0
  2  1  1  0
  4  3  1  0
  5  4  2  0
  6  5  1  0
  7  6  1  0
  7  8  1  1
  9 10  2  0
  9  7  1  0
 11  5  1  0
 11 12  2  0
 12  2  1  0
 13  9  1  0
 14 13  1  0
 14 15  1  1
 16 17  1  0
 16 15  1  0
 18 17  1  0
 19 18  1  0
 20 14  1  0
 20 22  1  0
 21 20  2  0
 23 22  1  0
 23 27  1  0
 23 24  1  6
 25 26  2  0
 25 24  1  0
 27 28  2  0
 27 30  1  0
 29 25  1  0
M  END
$$$$
