YKD.pdb
     RDKit          3D

 30 30  0  0  1  0  0  0  0  0999 V2000
   28.6450  -16.0208  -18.2589 O   0  0  0  0  0  0  0  0  0  0  0  0
   27.4898  -16.6992  -17.8283 C   0  0  0  0  0  0  0  0  0  0  0  0
   26.8093  -17.5423  -18.6628 C   0  0  0  0  0  0  0  0  0  0  0  0
   25.6775  -18.1823  -18.1802 C   0  0  0  0  0  0  0  0  0  0  0  0
   25.2235  -17.9928  -16.8913 C   0  0  0  0  0  0  0  0  0  0  0  0
   24.0036  -18.7125  -16.4403 C   0  0  0  0  0  0  0  0  0  0  0  0
   24.4314  -19.8281  -15.5123 C   0  0  2  0  0  0  0  0  0  0  0  0
   25.1953  -20.7656  -16.2967 N   0  0  0  0  0  0  0  0  0  0  0  0
   23.2782  -20.5352  -14.9238 C   0  0  0  0  0  0  0  0  0  0  0  0
   22.7948  -21.5128  -15.5189 O   0  0  0  0  0  0  0  0  0  0  0  0
   25.9277  -17.1403  -16.0770 C   0  0  0  0  0  0  0  0  0  0  0  0
   27.0530  -16.4984  -16.5431 C   0  0  0  0  0  0  0  0  0  0  0  0
   22.7575  -20.0733  -13.6925 N   0  0  0  0  0  0  0  0  0  0  0  0
   21.6883  -20.8074  -13.0265 C   0  0  1  0  0  0  0  0  0  0  0  0
   21.8528  -20.5774  -11.5620 C   0  0  0  0  0  0  0  0  0  0  0  0
   20.8913  -21.4020  -10.7787 C   0  0  0  0  0  0  0  0  0  0  0  0
   21.1061  -21.0798   -9.2998 C   0  0  0  0  0  0  0  0  0  0  0  0
   20.1105  -21.8760   -8.5133 C   0  0  0  0  0  0  0  0  0  0  0  0
   20.1588  -21.5387   -7.1064 N   0  0  0  0  0  0  0  0  0  0  0  0
   20.3963  -20.3842  -13.5947 C   0  0  0  0  0  0  0  0  0  0  0  0
   20.1447  -19.1770  -13.8944 O   0  0  0  0  0  0  0  0  0  0  0  0
   19.3881  -21.3499  -13.8204 N   0  0  0  0  0  0  0  0  0  0  0  0
   18.0676  -20.9826  -14.3731 C   0  0  1  0  0  0  0  0  0  0  0  0
   17.6799  -21.9812  -15.4281 C   0  0  0  0  0  0  0  0  0  0  0  0
   16.3785  -21.6797  -16.0102 C   0  0  0  0  0  0  0  0  0  0  0  0
   15.2928  -22.0545  -15.5405 O   0  0  0  0  0  0  0  0  0  0  0  0
   17.1052  -20.9219  -13.2439 C   0  0  0  0  0  0  0  0  0  0  0  0
   17.0881  -21.8126  -12.3403 O   0  0  0  0  0  0  0  0  0  0  0  0
   16.3438  -20.9093  -17.1885 O   0  0  0  0  0  0  0  0  0  0  0  0
   16.2004  -19.9057  -13.1303 O   0  0  0  0  0  0  0  0  0  0  0  0
  2  3  2  0
  2  1  1  0
  4  3  1  0
  5  4  2  0
  6  5  1  0
  7  6  1  0
  7  8  1  6
  9 10  2  0
  9  7  1  0
 11  5  1  0
 11 12  2  0
 12  2  1  0
 13  9  1  0
 14 13  1  0
 14 15  1  1
 16 17  1  0
 16 15  1  0
 18 17  1  0
 19 18  1  0
 20 14  1  0
 20 22  1  0
 21 20  2  0
 23 22  1  0
 23 27  1  0
 23 24  1  6
 25 26  2  0
 25 24  1  0
 27 28  2  0
 27 30  1  0
 29 25  1  0
M  END
$$$$
