YKD.pdb
     RDKit          3D

 30 30  0  0  1  0  0  0  0  0999 V2000
   14.4042  -23.7187   -0.5108 O   0  0  0  0  0  0  0  0  0  0  0  0
   15.3101  -22.9301    0.2226 C   0  0  0  0  0  0  0  0  0  0  0  0
   16.1676  -22.0673   -0.4026 C   0  0  0  0  0  0  0  0  0  0  0  0
   17.0371  -21.3168    0.3749 C   0  0  0  0  0  0  0  0  0  0  0  0
   17.0599  -21.4165    1.7506 C   0  0  0  0  0  0  0  0  0  0  0  0
   18.0174  -20.5806    2.5212 C   0  0  0  0  0  0  0  0  0  0  0  0
   17.2596  -19.4030    3.0934 C   0  0  2  0  0  0  0  0  0  0  0  0
   16.8297  -18.5922    1.9819 N   0  0  0  0  0  0  0  0  0  0  0  0
   18.1009  -18.5782    3.9811 C   0  0  0  0  0  0  0  0  0  0  0  0
   19.1809  -18.1340    3.5570 O   0  0  0  0  0  0  0  0  0  0  0  0
   16.1872  -22.2914    2.3496 C   0  0  0  0  0  0  0  0  0  0  0  0
   15.3187  -23.0426    1.5901 C   0  0  0  0  0  0  0  0  0  0  0  0
   17.6466  -18.3185    5.2952 N   0  0  0  0  0  0  0  0  0  0  0  0
   18.4220  -17.4609    6.1834 C   0  0  1  0  0  0  0  0  0  0  0  0
   17.6248  -16.2168    6.3880 C   0  0  0  0  0  0  0  0  0  0  0  0
   18.0184  -15.1618    5.4132 C   0  0  0  0  0  0  0  0  0  0  0  0
   17.1176  -13.9509    5.6562 C   0  0  0  0  0  0  0  0  0  0  0  0
   17.4274  -12.9362    4.5988 C   0  0  0  0  0  0  0  0  0  0  0  0
   16.5287  -11.8039    4.6751 N   0  0  0  0  0  0  0  0  0  0  0  0
   18.7475  -18.2149    7.4068 C   0  0  0  0  0  0  0  0  0  0  0  0
   18.0279  -19.1697    7.8323 O   0  0  0  0  0  0  0  0  0  0  0  0
   19.9037  -17.8726    8.1458 N   0  0  0  0  0  0  0  0  0  0  0  0
   20.2911  -18.6052    9.3695 C   0  0  1  0  0  0  0  0  0  0  0  0
   20.4535  -20.0632    9.0403 C   0  0  0  0  0  0  0  0  0  0  0  0
   20.1991  -20.9133   10.1961 C   0  0  0  0  0  0  0  0  0  0  0  0
   19.8586  -20.4979   11.3147 O   0  0  0  0  0  0  0  0  0  0  0  0
   21.5324  -17.9829    9.8956 C   0  0  0  0  0  0  0  0  0  0  0  0
   22.1149  -18.4378   10.9271 O   0  0  0  0  0  0  0  0  0  0  0  0
   20.3481  -22.3048   10.0389 O   0  0  0  0  0  0  0  0  0  0  0  0
   22.0987  -16.8972    9.2915 O   0  0  0  0  0  0  0  0  0  0  0  0
  2  3  2  0
  2  1  1  0
  4  3  1  0
  5  4  2  0
  6  5  1  0
  7  6  1  0
  7  8  1  6
  9 10  2  0
  9  7  1  0
 11  5  1  0
 11 12  2  0
 12  2  1  0
 13  9  1  0
 14 13  1  0
 14 15  1  1
 16 17  1  0
 16 15  1  0
 18 17  1  0
 19 18  1  0
 20 14  1  0
 20 22  1  0
 21 20  2  0
 23 22  1  0
 23 27  1  0
 23 24  1  6
 25 26  2  0
 25 24  1  0
 27 28  2  0
 27 30  1  0
 29 25  1  0
M  END
$$$$
