YKD.pdb
     RDKit          3D

 30 30  0  0  1  0  0  0  0  0999 V2000
   20.2314  -23.0638   -6.7235 O   0  0  0  0  0  0  0  0  0  0  0  0
   20.9483  -22.3661   -7.7131 C   0  0  0  0  0  0  0  0  0  0  0  0
   20.7644  -22.6310   -9.0423 C   0  0  0  0  0  0  0  0  0  0  0  0
   21.5006  -21.9097   -9.9704 C   0  0  0  0  0  0  0  0  0  0  0  0
   22.4060  -20.9401   -9.5918 C   0  0  0  0  0  0  0  0  0  0  0  0
   23.1600  -20.2047  -10.6407 C   0  0  0  0  0  0  0  0  0  0  0  0
   24.2917  -21.0897  -11.1148 C   0  0  2  0  0  0  0  0  0  0  0  0
   25.3179  -21.0477  -10.1035 N   0  0  0  0  0  0  0  0  0  0  0  0
   24.8669  -20.6219  -12.3901 C   0  0  0  0  0  0  0  0  0  0  0  0
   25.5136  -19.5613  -12.4139 O   0  0  0  0  0  0  0  0  0  0  0  0
   22.5689  -20.6967   -8.2502 C   0  0  0  0  0  0  0  0  0  0  0  0
   21.8447  -21.4053   -7.3180 C   0  0  0  0  0  0  0  0  0  0  0  0
   24.6617  -21.4022  -13.5519 N   0  0  0  0  0  0  0  0  0  0  0  0
   25.2827  -21.0170  -14.8135 C   0  0  1  0  0  0  0  0  0  0  0  0
   26.2518  -22.0948  -15.1654 C   0  0  0  0  0  0  0  0  0  0  0  0
   26.9516  -21.7895  -16.4442 C   0  0  0  0  0  0  0  0  0  0  0  0
   27.8168  -22.9997  -16.7962 C   0  0  0  0  0  0  0  0  0  0  0  0
   28.6031  -22.6531  -18.0232 C   0  0  0  0  0  0  0  0  0  0  0  0
   29.3819  -23.7819  -18.4867 N   0  0  0  0  0  0  0  0  0  0  0  0
   24.2236  -20.7660  -15.8068 C   0  0  0  0  0  0  0  0  0  0  0  0
   23.1557  -21.4501  -15.8541 O   0  0  0  0  0  0  0  0  0  0  0  0
   24.3898  -19.7258  -16.7503 N   0  0  0  0  0  0  0  0  0  0  0  0
   23.3384  -19.3907  -17.7334 C   0  0  1  0  0  0  0  0  0  0  0  0
   23.5622  -17.9917  -18.2367 C   0  0  0  0  0  0  0  0  0  0  0  0
   23.1321  -16.9905  -17.2693 C   0  0  0  0  0  0  0  0  0  0  0  0
   22.4252  -17.2273  -16.2774 O   0  0  0  0  0  0  0  0  0  0  0  0
   23.3826  -20.4130  -18.8095 C   0  0  0  0  0  0  0  0  0  0  0  0
   24.4724  -20.7301  -19.3768 O   0  0  0  0  0  0  0  0  0  0  0  0
   23.5446  -15.6588  -17.4684 O   0  0  0  0  0  0  0  0  0  0  0  0
   22.2538  -21.0545  -19.2321 O   0  0  0  0  0  0  0  0  0  0  0  0
  2  3  2  0
  2  1  1  0
  4  3  1  0
  5  4  2  0
  6  5  1  0
  7  6  1  0
  7  8  1  1
  9 10  2  0
  9  7  1  0
 11  5  1  0
 11 12  2  0
 12  2  1  0
 13  9  1  0
 14 13  1  0
 14 15  1  6
 16 17  1  0
 16 15  1  0
 18 17  1  0
 19 18  1  0
 20 14  1  0
 20 22  1  0
 21 20  2  0
 23 22  1  0
 23 27  1  0
 23 24  1  6
 25 26  2  0
 25 24  1  0
 27 28  2  0
 27 30  1  0
 29 25  1  0
M  END
$$$$
