RHR.pdb
     RDKit          3D

 33 33  0  0  1  0  0  0  0  0999 V2000
    5.0746  -19.2237   13.3061 N   0  0  0  0  0  0  0  0  0  0  0  0
    6.3829  -18.8655   13.7116 C   0  0  0  0  0  0  0  0  0  0  0  0
    6.6480  -17.7581   14.3503 N   0  0  0  0  0  0  0  0  0  0  0  0
    7.5023  -19.7131   13.4359 N   0  0  0  0  0  0  0  0  0  0  0  0
    8.2961  -20.2384   14.5497 C   0  0  0  0  0  0  0  0  0  0  0  0
    9.1371  -19.1691   15.1750 C   0  0  0  0  0  0  0  0  0  0  0  0
   10.1508  -19.6991   16.1538 C   0  0  0  0  0  0  0  0  0  0  0  0
    9.6607  -19.7032   17.5648 C   0  0  2  0  0  0  0  0  0  0  0  0
    8.3813  -20.3314   17.6497 N   0  0  0  0  0  0  0  0  0  0  0  0
    9.7374  -18.3666   18.1812 C   0  0  0  0  0  0  0  0  0  0  0  0
   10.8702  -17.7799   18.0642 O   0  0  0  0  0  0  0  0  0  0  0  0
    7.6435  -17.6065   14.6268 N   0  0  0  0  0  0  0  0  0  0  0  0
    8.6528  -17.7747   18.8483 C   0  0  1  0  0  0  0  0  0  0  0  0
    8.8645  -16.5447   19.5820 C   0  0  0  0  0  0  0  0  0  0  0  0
    7.6782  -15.6620   19.2788 C   0  0  0  0  0  0  0  0  0  0  0  0
    7.7805  -14.3818   20.0035 C   0  0  0  0  0  0  0  0  0  0  0  0
    8.7600  -14.0406   20.9343 N   0  0  0  0  0  0  0  0  0  0  0  0
    8.4862  -12.7961   21.3599 C   0  0  0  0  0  0  0  0  0  0  0  0
    7.3847  -12.3298   20.7484 N   0  0  0  0  0  0  0  0  0  0  0  0
    6.9539  -13.3088   19.9149 C   0  0  0  0  0  0  0  0  0  0  0  0
    8.9865  -16.7620   21.0250 O   0  0  0  0  0  0  0  0  0  0  0  0
    8.0475  -17.3504   21.6588 N   0  0  0  0  0  0  0  0  0  0  0  0
   12.5238  -22.6161   26.9138 C   0  0  0  0  0  0  0  0  0  0  0  0
   12.3181  -21.8081   25.7653 N   0  0  0  0  0  0  0  0  0  0  0  0
   13.3107  -21.4600   24.9862 N   0  0  0  0  0  0  0  0  0  0  0  0
   11.0371  -21.3277   25.3911 C   0  0  0  0  0  0  0  0  0  0  0  0
   10.8085  -20.6631   24.1599 C   0  0  0  0  0  0  0  0  0  0  0  0
   10.8200  -19.1481   24.2506 C   0  0  0  0  0  0  0  0  0  0  0  0
   10.5019  -18.4943   22.9580 C   0  0  1  0  0  0  0  0  0  0  0  0
   10.3718  -17.0054   23.1276 N   0  0  0  0  0  0  0  0  0  0  0  0
   10.0859  -16.3708   21.8322 C   0  0  0  0  0  0  0  0  0  0  0  0
   11.5391  -16.3297   23.7009 O   0  0  0  0  0  0  0  0  0  0  0  0
   11.8837  -16.4806   25.0310 O   0  0  0  0  0  0  0  0  0  0  0  0
  1  2  1  0
  2  4  1  0
  3  2  2  0
  4  5  1  0
  6  7  1  0
  6  5  1  0
  7  8  1  0
  8  9  1  6
 10 12  1  0
 10  8  1  0
 11 10  2  0
 13 12  1  0
 13 20  1  0
 13 14  1  6
 15 14  1  0
 16 15  2  0
 17 16  1  0
 18 17  1  0
 18 19  2  0
 19 15  1  0
 20 21  2  0
 22 23  1  0
 23 25  1  0
 23 24  2  0
 25 26  1  0
 27 26  1  0
 27 28  1  0
 29 28  1  1
 29 31  1  0
 30 20  1  0
 30 29  1  0
 31 32  1  0
 33 31  2  0
M  END
$$$$
