RHR.pdb
     RDKit          3D

 33 33  0  0  1  0  0  0  0  0999 V2000
    6.3104  -12.8291   12.9468 N   0  0  0  0  0  0  0  0  0  0  0  0
    7.0239  -13.5049   13.9659 C   0  0  0  0  0  0  0  0  0  0  0  0
    7.9897  -14.3469   13.7150 N   0  0  0  0  0  0  0  0  0  0  0  0
    6.7168  -13.2975   15.3479 N   0  0  0  0  0  0  0  0  0  0  0  0
    7.4909  -14.0074   16.3694 C   0  0  0  0  0  0  0  0  0  0  0  0
    8.9004  -14.2434   15.9227 C   0  0  0  0  0  0  0  0  0  0  0  0
    9.7727  -14.8535   16.9873 C   0  0  0  0  0  0  0  0  0  0  0  0
   11.1685  -15.1167   16.5252 C   0  0  2  0  0  0  0  0  0  0  0  0
   11.1645  -15.9477   15.3641 N   0  0  0  0  0  0  0  0  0  0  0  0
   12.0350  -15.5864   17.6210 C   0  0  0  0  0  0  0  0  0  0  0  0
   13.1858  -16.0152   17.2563 O   0  0  0  0  0  0  0  0  0  0  0  0
    8.2434  -14.4790   12.7107 N   0  0  0  0  0  0  0  0  0  0  0  0
   11.6348  -15.5677   18.9667 C   0  0  2  0  0  0  0  0  0  0  0  0
   12.6437  -15.4594   19.9994 C   0  0  0  0  0  0  0  0  0  0  0  0
   13.3740  -14.1636   19.7427 C   0  0  0  0  0  0  0  0  0  0  0  0
   14.6207  -14.4058   18.9933 C   0  0  0  0  0  0  0  0  0  0  0  0
   14.8839  -15.4969   18.1670 N   0  0  0  0  0  0  0  0  0  0  0  0
   16.1281  -15.3387   17.6858 C   0  0  0  0  0  0  0  0  0  0  0  0
   16.6683  -14.2052   18.1630 N   0  0  0  0  0  0  0  0  0  0  0  0
   15.7373  -13.6345   18.9671 C   0  0  0  0  0  0  0  0  0  0  0  0
   12.0741  -15.4685   21.3484 O   0  0  0  0  0  0  0  0  0  0  0  0
   12.1903  -14.4374   22.0921 N   0  0  0  0  0  0  0  0  0  0  0  0
   16.4008  -21.0177   19.2519 C   0  0  0  0  0  0  0  0  0  0  0  0
   15.0619  -21.4875   19.2231 N   0  0  0  0  0  0  0  0  0  0  0  0
   14.7076  -22.5005   18.4735 N   0  0  0  0  0  0  0  0  0  0  0  0
   14.0298  -20.8954   19.9951 C   0  0  0  0  0  0  0  0  0  0  0  0
   14.2551  -19.7627   20.8172 C   0  0  0  0  0  0  0  0  0  0  0  0
   13.0022  -19.1828   21.4474 C   0  0  0  0  0  0  0  0  0  0  0  0
   13.2863  -18.0180   22.3204 C   0  0  2  0  0  0  0  0  0  0  0  0
   12.0161  -17.4625   22.9039 N   0  0  0  0  0  0  0  0  0  0  0  0
   11.3753  -16.5491   21.9459 C   0  0  0  0  0  0  0  0  0  0  0  0
   12.1649  -16.7392   24.1699 O   0  0  0  0  0  0  0  0  0  0  0  0
   11.8882  -15.3886   24.2703 O   0  0  0  0  0  0  0  0  0  0  0  0
  1  2  1  0
  2  4  1  0
  3  2  2  0
  4  5  1  0
  6  7  1  0
  6  5  1  0
  7  8  1  0
  8  9  1  6
 10 12  1  0
 10  8  1  0
 11 10  2  0
 13 12  1  0
 13 20  1  0
 13 14  1  6
 15 14  1  0
 16 15  2  0
 17 16  1  0
 18 17  1  0
 18 19  2  0
 19 15  1  0
 20 21  2  0
 22 23  1  0
 23 25  1  0
 23 24  2  0
 25 26  1  0
 27 26  1  0
 27 28  1  0
 29 28  1  6
 29 31  1  0
 30 20  1  0
 30 29  1  0
 31 32  1  0
 33 31  2  0
M  END
$$$$
