RHR.pdb
     RDKit          3D

 33 33  0  0  1  0  0  0  0  0999 V2000
    9.2636  -14.6961   16.8366 N   0  0  0  0  0  0  0  0  0  0  0  0
    8.1526  -13.8580   16.5767 C   0  0  0  0  0  0  0  0  0  0  0  0
    7.7529  -13.5666   15.3685 N   0  0  0  0  0  0  0  0  0  0  0  0
    7.3981  -13.2753   17.6438 N   0  0  0  0  0  0  0  0  0  0  0  0
    7.8405  -13.4728   19.0266 C   0  0  0  0  0  0  0  0  0  0  0  0
    7.3345  -14.7670   19.5839 C   0  0  0  0  0  0  0  0  0  0  0  0
    8.4114  -15.8029   19.7674 C   0  0  0  0  0  0  0  0  0  0  0  0
    8.1506  -17.0637   19.0101 C   0  0  2  0  0  0  0  0  0  0  0  0
    6.9810  -17.7147   19.5070 N   0  0  0  0  0  0  0  0  0  0  0  0
    9.3486  -17.9183   18.9287 C   0  0  0  0  0  0  0  0  0  0  0  0
    9.3695  -18.9021   19.7489 O   0  0  0  0  0  0  0  0  0  0  0  0
    6.9852  -12.8632   15.2886 N   0  0  0  0  0  0  0  0  0  0  0  0
   10.3929  -17.6774   18.0214 C   0  0  1  0  0  0  0  0  0  0  0  0
   11.5313  -18.5717   18.0054 C   0  0  0  0  0  0  0  0  0  0  0  0
   12.4505  -18.0666   16.9199 C   0  0  0  0  0  0  0  0  0  0  0  0
   13.5655  -19.0063   16.7000 C   0  0  0  0  0  0  0  0  0  0  0  0
   13.6149  -20.3348   17.1182 N   0  0  0  0  0  0  0  0  0  0  0  0
   14.8003  -20.8302   16.7256 C   0  0  0  0  0  0  0  0  0  0  0  0
   15.5056  -19.8863   16.0805 N   0  0  0  0  0  0  0  0  0  0  0  0
   14.7420  -18.7658   16.0672 C   0  0  0  0  0  0  0  0  0  0  0  0
   12.2318  -18.6170   19.2906 O   0  0  0  0  0  0  0  0  0  0  0  0
   12.3669  -17.5489   19.9765 N   0  0  0  0  0  0  0  0  0  0  0  0
   12.8473  -25.2634   24.8001 C   0  0  0  0  0  0  0  0  0  0  0  0
   13.9922  -24.6126   24.2711 N   0  0  0  0  0  0  0  0  0  0  0  0
   14.9589  -25.2848   23.6991 N   0  0  0  0  0  0  0  0  0  0  0  0
   14.1638  -23.2058   24.3286 C   0  0  0  0  0  0  0  0  0  0  0  0
   13.0926  -22.3037   24.1086 C   0  0  0  0  0  0  0  0  0  0  0  0
   13.4744  -21.0457   23.3503 C   0  0  0  0  0  0  0  0  0  0  0  0
   13.0208  -21.0678   21.9385 C   0  0  2  0  0  0  0  0  0  0  0  0
   13.3393  -19.7677   21.2523 N   0  0  0  0  0  0  0  0  0  0  0  0
   12.8033  -19.7728   19.8829 C   0  0  0  0  0  0  0  0  0  0  0  0
   14.7628  -19.4298   21.1666 O   0  0  0  0  0  0  0  0  0  0  0  0
   15.4927  -19.6514   20.0138 O   0  0  0  0  0  0  0  0  0  0  0  0
  1  2  1  0
  2  4  1  0
  3  2  2  0
  4  5  1  0
  6  7  1  0
  6  5  1  0
  7  8  1  0
  8  9  1  1
 10 12  1  0
 10  8  1  0
 11 10  2  0
 13 12  1  0
 13 20  1  0
 13 14  1  6
 15 14  1  0
 16 15  2  0
 17 16  1  0
 18 17  1  0
 18 19  2  0
 19 15  1  0
 20 21  2  0
 22 23  1  0
 23 25  1  0
 23 24  2  0
 25 26  1  0
 27 26  1  0
 27 28  1  0
 29 28  1  1
 29 31  1  0
 30 20  1  0
 30 29  1  0
 31 32  1  0
 33 31  2  0
M  END
$$$$
