RHR.pdb
     RDKit          3D

 33 33  0  0  1  0  0  0  0  0999 V2000
    8.9973  -17.4390   15.3470 N   0  0  0  0  0  0  0  0  0  0  0  0
   10.3176  -17.0994   15.7288 C   0  0  0  0  0  0  0  0  0  0  0  0
   11.3663  -17.4370   15.0281 N   0  0  0  0  0  0  0  0  0  0  0  0
   10.5755  -16.3568   16.9244 N   0  0  0  0  0  0  0  0  0  0  0  0
    9.4641  -16.0356   17.8234 C   0  0  0  0  0  0  0  0  0  0  0  0
    8.4241  -15.2077   17.1345 C   0  0  0  0  0  0  0  0  0  0  0  0
    7.2845  -14.8069   18.0330 C   0  0  0  0  0  0  0  0  0  0  0  0
    7.5094  -13.5009   18.7220 C   0  0  2  0  0  0  0  0  0  0  0  0
    8.2645  -12.6187   17.8912 N   0  0  0  0  0  0  0  0  0  0  0  0
    8.0432  -13.6784   20.0843 C   0  0  0  0  0  0  0  0  0  0  0  0
    9.2637  -13.3212   20.2391 O   0  0  0  0  0  0  0  0  0  0  0  0
   12.2855  -17.0670   15.3574 N   0  0  0  0  0  0  0  0  0  0  0  0
    7.2760  -14.1996   21.1385 C   0  0  2  0  0  0  0  0  0  0  0  0
    7.7201  -13.9931   22.5009 C   0  0  0  0  0  0  0  0  0  0  0  0
    6.4958  -13.5951   23.2890 C   0  0  0  0  0  0  0  0  0  0  0  0
    6.8355  -13.3756   24.7070 C   0  0  0  0  0  0  0  0  0  0  0  0
    8.0991  -13.5098   25.2795 N   0  0  0  0  0  0  0  0  0  0  0  0
    7.9738  -13.2285   26.5871 C   0  0  0  0  0  0  0  0  0  0  0  0
    6.6977  -12.9229   26.8746 N   0  0  0  0  0  0  0  0  0  0  0  0
    6.0009  -13.0148   25.7149 C   0  0  0  0  0  0  0  0  0  0  0  0
    8.3372  -15.1878   23.0807 O   0  0  0  0  0  0  0  0  0  0  0  0
    7.6975  -16.2925   23.0856 N   0  0  0  0  0  0  0  0  0  0  0  0
   11.8578  -20.6167   22.2727 C   0  0  0  0  0  0  0  0  0  0  0  0
   13.0739  -20.6048   23.0042 N   0  0  0  0  0  0  0  0  0  0  0  0
   13.5975  -21.7061   23.4802 N   0  0  0  0  0  0  0  0  0  0  0  0
   13.7936  -19.4111   23.2668 C   0  0  0  0  0  0  0  0  0  0  0  0
   13.1921  -18.1304   23.1787 C   0  0  0  0  0  0  0  0  0  0  0  0
   12.2983  -17.7725   24.3519 C   0  0  0  0  0  0  0  0  0  0  0  0
   11.6946  -16.4241   24.2219 C   0  0  2  0  0  0  0  0  0  0  0  0
   10.1936  -16.5102   24.1781 N   0  0  0  0  0  0  0  0  0  0  0  0
    9.6285  -15.2532   23.6651 C   0  0  0  0  0  0  0  0  0  0  0  0
    9.5388  -16.7977   25.4573 O   0  0  0  0  0  0  0  0  0  0  0  0
    9.3518  -18.0933   25.9012 O   0  0  0  0  0  0  0  0  0  0  0  0
  1  2  1  0
  2  4  1  0
  3  2  2  0
  4  5  1  0
  6  7  1  0
  6  5  1  0
  7  8  1  0
  8  9  1  6
 10 12  1  0
 10  8  1  0
 11 10  2  0
 13 12  1  0
 13 20  1  0
 13 14  1  1
 15 14  1  0
 16 15  2  0
 17 16  1  0
 18 17  1  0
 18 19  2  0
 19 15  1  0
 20 21  2  0
 22 23  1  0
 23 25  1  0
 23 24  2  0
 25 26  1  0
 27 26  1  0
 27 28  1  0
 29 28  1  6
 29 31  1  0
 30 20  1  0
 30 29  1  0
 31 32  1  0
 33 31  2  0
M  END
$$$$
