RHR.pdb
     RDKit          3D

 33 33  0  0  1  0  0  0  0  0999 V2000
    8.4208  -12.1522   16.8893 N   0  0  0  0  0  0  0  0  0  0  0  0
    8.5286  -13.4664   16.3741 C   0  0  0  0  0  0  0  0  0  0  0  0
    8.2273  -13.7703   15.1406 N   0  0  0  0  0  0  0  0  0  0  0  0
    8.9796  -14.5491   17.1938 N   0  0  0  0  0  0  0  0  0  0  0  0
    9.8420  -14.2673   18.3442 C   0  0  0  0  0  0  0  0  0  0  0  0
   11.2792  -14.1608   17.9381 C   0  0  0  0  0  0  0  0  0  0  0  0
   12.1999  -13.8117   19.0770 C   0  0  0  0  0  0  0  0  0  0  0  0
   12.5329  -14.9812   19.9444 C   0  0  2  0  0  0  0  0  0  0  0  0
   12.5830  -16.1809   19.1717 N   0  0  0  0  0  0  0  0  0  0  0  0
   11.6711  -15.0481   21.1382 C   0  0  0  0  0  0  0  0  0  0  0  0
   11.7344  -14.0278   21.9103 O   0  0  0  0  0  0  0  0  0  0  0  0
    8.3663  -14.7661   14.8588 N   0  0  0  0  0  0  0  0  0  0  0  0
   10.8400  -16.1457   21.4142 C   0  0  1  0  0  0  0  0  0  0  0  0
   10.0554  -16.1457   22.6309 C   0  0  0  0  0  0  0  0  0  0  0  0
    8.8327  -16.9835   22.3456 C   0  0  0  0  0  0  0  0  0  0  0  0
    7.7805  -16.1719   21.7063 C   0  0  0  0  0  0  0  0  0  0  0  0
    7.8245  -14.7967   21.4844 N   0  0  0  0  0  0  0  0  0  0  0  0
    6.6704  -14.4542   20.8883 C   0  0  0  0  0  0  0  0  0  0  0  0
    5.8965  -15.5392   20.7203 N   0  0  0  0  0  0  0  0  0  0  0  0
    6.5834  -16.5938   21.2251 C   0  0  0  0  0  0  0  0  0  0  0  0
   10.7906  -16.6849   23.7768 O   0  0  0  0  0  0  0  0  0  0  0  0
   11.6520  -17.6100   23.5984 N   0  0  0  0  0  0  0  0  0  0  0  0
   10.8748  -19.4079   30.5713 C   0  0  0  0  0  0  0  0  0  0  0  0
   11.6156  -18.5229   31.3973 N   0  0  0  0  0  0  0  0  0  0  0  0
   12.2508  -18.9482   32.4599 N   0  0  0  0  0  0  0  0  0  0  0  0
   11.7139  -17.1335   31.1298 C   0  0  0  0  0  0  0  0  0  0  0  0
   11.0456  -16.5243   30.0379 C   0  0  0  0  0  0  0  0  0  0  0  0
   11.2669  -17.2102   28.7023 C   0  0  0  0  0  0  0  0  0  0  0  0
   10.9077  -16.3490   27.5495 C   0  0  1  0  0  0  0  0  0  0  0  0
   11.1858  -17.0508   26.2484 N   0  0  0  0  0  0  0  0  0  0  0  0
   10.6419  -16.2717   25.1260 C   0  0  0  0  0  0  0  0  0  0  0  0
   10.6545  -18.4122   26.1378 O   0  0  0  0  0  0  0  0  0  0  0  0
    9.3957  -18.6597   25.6230 O   0  0  0  0  0  0  0  0  0  0  0  0
  1  2  1  0
  2  4  1  0
  3  2  2  0
  4  5  1  0
  6  7  1  0
  6  5  1  0
  7  8  1  0
  8  9  1  6
 10 12  1  0
 10  8  1  0
 11 10  2  0
 13 12  1  0
 13 20  1  0
 13 14  1  1
 15 14  1  0
 16 15  2  0
 17 16  1  0
 18 17  1  0
 18 19  2  0
 19 15  1  0
 20 21  2  0
 22 23  1  0
 23 25  1  0
 23 24  2  0
 25 26  1  0
 27 26  1  0
 27 28  1  0
 29 28  1  6
 29 31  1  0
 30 20  1  0
 30 29  1  0
 31 32  1  0
 33 31  2  0
M  END
$$$$
