RHR.pdb
     RDKit          3D

 33 33  0  0  1  0  0  0  0  0999 V2000
   11.4614  -18.3136   13.7481 N   0  0  0  0  0  0  0  0  0  0  0  0
   10.4568  -17.5536   13.1019 C   0  0  0  0  0  0  0  0  0  0  0  0
   10.4858  -17.2818   11.8253 N   0  0  0  0  0  0  0  0  0  0  0  0
    9.3388  -17.0336   13.8279 N   0  0  0  0  0  0  0  0  0  0  0  0
    9.0971  -17.4920   15.1984 C   0  0  0  0  0  0  0  0  0  0  0  0
   10.2505  -17.1670   16.0959 C   0  0  0  0  0  0  0  0  0  0  0  0
    9.8585  -16.3698   17.3114 C   0  0  0  0  0  0  0  0  0  0  0  0
    9.9006  -17.1645   18.5754 C   0  0  2  0  0  0  0  0  0  0  0  0
    8.9277  -18.2091   18.5440 N   0  0  0  0  0  0  0  0  0  0  0  0
    9.8491  -16.3050   19.7716 C   0  0  0  0  0  0  0  0  0  0  0  0
   10.8792  -15.5651   19.9521 O   0  0  0  0  0  0  0  0  0  0  0  0
    9.6700  -16.7541   11.4426 N   0  0  0  0  0  0  0  0  0  0  0  0
    8.7551  -16.2932   20.6516 C   0  0  1  0  0  0  0  0  0  0  0  0
    8.7813  -15.4055   21.7950 C   0  0  0  0  0  0  0  0  0  0  0  0
    7.5019  -14.6066   21.7395 C   0  0  0  0  0  0  0  0  0  0  0  0
    7.4152  -13.8454   20.4795 C   0  0  0  0  0  0  0  0  0  0  0  0
    6.5516  -14.1092   19.4180 N   0  0  0  0  0  0  0  0  0  0  0  0
    6.7982  -13.1912   18.4687 C   0  0  0  0  0  0  0  0  0  0  0  0
    7.7726  -12.3589   18.8718 N   0  0  0  0  0  0  0  0  0  0  0  0
    8.1492  -12.7652   20.1095 C   0  0  0  0  0  0  0  0  0  0  0  0
    8.8819  -16.1252   23.0663 O   0  0  0  0  0  0  0  0  0  0  0  0
    8.0731  -17.0799   23.3196 N   0  0  0  0  0  0  0  0  0  0  0  0
   16.2056  -16.7149   20.3695 C   0  0  0  0  0  0  0  0  0  0  0  0
   15.1402  -15.8433   20.7149 N   0  0  0  0  0  0  0  0  0  0  0  0
   15.0296  -14.6526   20.1825 N   0  0  0  0  0  0  0  0  0  0  0  0
   14.1367  -16.2003   21.6515 C   0  0  0  0  0  0  0  0  0  0  0  0
   14.2731  -17.3134   22.5187 C   0  0  0  0  0  0  0  0  0  0  0  0
   13.2135  -17.4014   23.6018 C   0  0  0  0  0  0  0  0  0  0  0  0
   12.0241  -16.5653   23.3090 C   0  0  1  0  0  0  0  0  0  0  0  0
   10.9633  -16.7554   24.3584 N   0  0  0  0  0  0  0  0  0  0  0  0
    9.8240  -15.8639   24.0946 C   0  0  0  0  0  0  0  0  0  0  0  0
   11.3923  -16.5246   25.7406 O   0  0  0  0  0  0  0  0  0  0  0  0
   12.3379  -17.3277   26.3502 O   0  0  0  0  0  0  0  0  0  0  0  0
  1  2  1  0
  2  4  1  0
  3  2  2  0
  4  5  1  0
  6  7  1  0
  6  5  1  0
  7  8  1  0
  8  9  1  6
 10 12  1  0
 10  8  1  0
 11 10  2  0
 13 12  1  0
 13 20  1  0
 13 14  1  1
 15 14  1  0
 16 15  2  0
 17 16  1  0
 18 17  1  0
 18 19  2  0
 19 15  1  0
 20 21  2  0
 22 23  1  0
 23 25  1  0
 23 24  2  0
 25 26  1  0
 27 26  1  0
 27 28  1  0
 29 28  1  6
 29 31  1  0
 30 20  1  0
 30 29  1  0
 31 32  1  0
 33 31  2  0
M  END
$$$$
