HNY.pdb
     RDKit          3D

 31 32  0  0  1  0  0  0  0  0999 V2000
   19.2952  -18.1446  -18.8502 N   0  0  0  0  0  0  0  0  0  0  0  0
   18.1718  -18.8914  -18.3006 C   0  0  1  0  0  0  0  0  0  0  0  0
   18.6992  -20.0744  -17.5365 C   0  0  0  0  0  0  0  0  0  0  0  0
   19.4848  -21.0110  -18.3729 C   0  0  0  0  0  0  0  0  0  0  0  0
   20.8474  -21.2629  -18.3271 C   0  0  0  0  0  0  0  0  0  0  0  0
   21.1809  -22.1776  -19.2493 N   0  0  0  0  0  0  0  0  0  0  0  0
   20.0466  -22.5151  -19.8862 C   0  0  0  0  0  0  0  0  0  0  0  0
   19.0239  -21.8226  -19.3697 N   0  0  0  0  0  0  0  0  0  0  0  0
   17.3268  -17.9845  -17.5260 C   0  0  0  0  0  0  0  0  0  0  0  0
   17.7781  -16.8049  -17.3204 O   0  0  0  0  0  0  0  0  0  0  0  0
   13.4166  -15.5701  -15.2552 N   0  0  0  0  0  0  0  0  0  0  0  0
   13.8693  -15.3786  -16.5845 C   0  0  0  0  0  0  0  0  0  0  0  0
   13.4347  -14.3971  -17.2341 O   0  0  0  0  0  0  0  0  0  0  0  0
   14.8224  -16.2848  -17.2191 C   0  0  0  0  0  0  0  0  0  0  0  0
   15.2068  -17.4639  -16.3651 C   0  0  2  0  0  0  0  0  0  0  0  0
   16.0704  -18.3970  -17.0298 N   0  0  0  0  0  0  0  0  0  0  0  0
   14.0021  -18.1686  -15.8224 C   0  0  0  0  0  0  0  0  0  0  0  0
   13.2668  -18.8062  -16.6193 O   0  0  0  0  0  0  0  0  0  0  0  0
    6.6168  -21.0927  -12.6410 O   0  0  0  0  0  0  0  0  0  0  0  0
    7.7665  -20.4441  -13.0994 C   0  0  0  0  0  0  0  0  0  0  0  0
    8.1345  -19.2057  -12.6107 C   0  0  0  0  0  0  0  0  0  0  0  0
    9.2667  -18.5602  -13.0577 C   0  0  0  0  0  0  0  0  0  0  0  0
   10.0823  -19.1262  -14.0153 C   0  0  0  0  0  0  0  0  0  0  0  0
   11.2975  -18.4152  -14.4895 C   0  0  0  0  0  0  0  0  0  0  0  0
   12.5756  -18.9575  -13.8898 C   0  0  2  0  0  0  0  0  0  0  0  0
   13.6582  -18.1485  -14.4645 N   0  0  0  0  0  0  0  0  0  0  0  0
   12.7855  -20.3845  -14.1543 C   0  0  0  0  0  0  0  0  0  0  0  0
   11.8345  -21.3263  -13.8135 O   0  0  0  0  0  0  0  0  0  0  0  0
    9.7181  -20.3634  -14.5063 C   0  0  0  0  0  0  0  0  0  0  0  0
    8.5942  -20.9929  -14.0554 C   0  0  0  0  0  0  0  0  0  0  0  0
   13.8461  -20.7653  -14.7000 O   0  0  0  0  0  0  0  0  0  0  0  0
  2  1  1  1
  2  3  1  0
  4  3  1  0
  4  5  2  0
  6  5  1  0
  7  6  1  0
  8  7  2  0
  8  4  1  0
  9  2  1  0
 10  9  2  0
 11 12  1  0
 12 14  1  0
 13 12  2  0
 15 14  1  6
 15 16  1  0
 16  9  1  0
 17 15  1  0
 17 18  2  0
 20 19  1  0
 21 20  2  0
 22 21  1  0
 23 29  1  0
 23 22  2  0
 25 24  1  6
 24 23  1  0
 25 26  1  0
 26 17  1  0
 27 25  1  0
 28 27  1  0
 29 30  2  0
 30 20  1  0
 31 27  2  0
M  END
$$$$
