HNY.pdb
     RDKit          3D

 31 32  0  0  1  0  0  0  0  0999 V2000
   21.6761  -10.6242  -18.2112 N   0  0  0  0  0  0  0  0  0  0  0  0
   21.2974   -9.7031  -19.2742 C   0  0  1  0  0  0  0  0  0  0  0  0
   20.6156  -10.4758  -20.3695 C   0  0  0  0  0  0  0  0  0  0  0  0
   21.4671  -11.5347  -20.9589 C   0  0  0  0  0  0  0  0  0  0  0  0
   21.5966  -12.8540  -20.5530 C   0  0  0  0  0  0  0  0  0  0  0  0
   22.4690  -13.4982  -21.3418 N   0  0  0  0  0  0  0  0  0  0  0  0
   22.9006  -12.6061  -22.2495 C   0  0  0  0  0  0  0  0  0  0  0  0
   22.3072  -11.4262  -22.0301 N   0  0  0  0  0  0  0  0  0  0  0  0
   20.5069   -8.6134  -18.7047 C   0  0  0  0  0  0  0  0  0  0  0  0
   20.0303   -7.7533  -19.5235 O   0  0  0  0  0  0  0  0  0  0  0  0
   16.6107   -6.8998  -17.3196 N   0  0  0  0  0  0  0  0  0  0  0  0
   17.1066   -7.9421  -16.4972 C   0  0  0  0  0  0  0  0  0  0  0  0
   16.3961   -8.9610  -16.3206 O   0  0  0  0  0  0  0  0  0  0  0  0
   18.4141   -7.8671  -15.8514 C   0  0  0  0  0  0  0  0  0  0  0  0
   19.5251   -7.4297  -16.7687 C   0  0  2  0  0  0  0  0  0  0  0  0
   20.2827   -8.5195  -17.3133 N   0  0  0  0  0  0  0  0  0  0  0  0
   20.4370   -6.4468  -16.1018 C   0  0  0  0  0  0  0  0  0  0  0  0
   20.0484   -5.2578  -15.9691 O   0  0  0  0  0  0  0  0  0  0  0  0
   25.6197   -8.0269  -20.3344 O   0  0  0  0  0  0  0  0  0  0  0  0
   25.0147   -7.2876  -19.3145 C   0  0  0  0  0  0  0  0  0  0  0  0
   24.1017   -6.2900  -19.5964 C   0  0  0  0  0  0  0  0  0  0  0  0
   23.5012   -5.5570  -18.5963 C   0  0  0  0  0  0  0  0  0  0  0  0
   23.7880   -5.7900  -17.2674 C   0  0  0  0  0  0  0  0  0  0  0  0
   23.1345   -4.9879  -16.2011 C   0  0  0  0  0  0  0  0  0  0  0  0
   22.6465   -5.8264  -15.0410 C   0  0  2  0  0  0  0  0  0  0  0  0
   21.7054   -6.7943  -15.6190 N   0  0  0  0  0  0  0  0  0  0  0  0
   22.0099   -5.0405  -13.9792 C   0  0  0  0  0  0  0  0  0  0  0  0
   20.7092   -5.2857  -13.5848 O   0  0  0  0  0  0  0  0  0  0  0  0
   24.6997   -6.7856  -16.9815 C   0  0  0  0  0  0  0  0  0  0  0  0
   25.2879   -7.5050  -17.9810 C   0  0  0  0  0  0  0  0  0  0  0  0
   22.6518   -4.1265  -13.4134 O   0  0  0  0  0  0  0  0  0  0  0  0
  2  1  1  1
  2  3  1  0
  4  3  1  0
  4  5  2  0
  6  5  1  0
  7  6  1  0
  8  7  2  0
  8  4  1  0
  9  2  1  0
 10  9  2  0
 11 12  1  0
 12 14  1  0
 13 12  2  0
 15 14  1  1
 15 16  1  0
 16  9  1  0
 17 15  1  0
 17 18  2  0
 20 19  1  0
 21 20  2  0
 22 21  1  0
 23 29  1  0
 23 22  2  0
 25 24  1  6
 24 23  1  0
 25 26  1  0
 26 17  1  0
 27 25  1  0
 28 27  1  0
 29 30  2  0
 30 20  1  0
 31 27  2  0
M  END
$$$$
