HNY.pdb
     RDKit          3D

 31 32  0  0  1  0  0  0  0  0999 V2000
   24.4554  -13.1268  -17.7966 N   0  0  0  0  0  0  0  0  0  0  0  0
   24.3684  -12.2296  -16.6522 C   0  0  1  0  0  0  0  0  0  0  0  0
   25.7041  -11.5699  -16.4467 C   0  0  0  0  0  0  0  0  0  0  0  0
   26.7894  -12.5270  -16.1306 C   0  0  0  0  0  0  0  0  0  0  0  0
   28.0353  -12.6367  -16.7288 C   0  0  0  0  0  0  0  0  0  0  0  0
   28.7355  -13.6304  -16.1626 N   0  0  0  0  0  0  0  0  0  0  0  0
   27.9519  -14.1594  -15.2074 C   0  0  0  0  0  0  0  0  0  0  0  0
   26.7835  -13.5065  -15.1790 N   0  0  0  0  0  0  0  0  0  0  0  0
   23.2502  -11.3091  -16.8493 C   0  0  0  0  0  0  0  0  0  0  0  0
   23.0115  -10.9350  -18.0494 O   0  0  0  0  0  0  0  0  0  0  0  0
   18.0600   -9.8701  -16.9746 N   0  0  0  0  0  0  0  0  0  0  0  0
   18.8339   -9.8995  -15.7877 C   0  0  0  0  0  0  0  0  0  0  0  0
   18.4884   -9.1738  -14.8242 O   0  0  0  0  0  0  0  0  0  0  0  0
   20.0166  -10.7451  -15.6518 C   0  0  0  0  0  0  0  0  0  0  0  0
   21.3089  -10.0468  -15.9825 C   0  0  2  0  0  0  0  0  0  0  0  0
   22.4723  -10.8565  -15.7606 N   0  0  0  0  0  0  0  0  0  0  0  0
   21.4361   -8.7458  -15.2519 C   0  0  0  0  0  0  0  0  0  0  0  0
   21.7967   -8.7639  -14.0469 O   0  0  0  0  0  0  0  0  0  0  0  0
   21.7380    0.1607  -14.4886 O   0  0  0  0  0  0  0  0  0  0  0  0
   21.8483   -1.1921  -14.8210 C   0  0  0  0  0  0  0  0  0  0  0  0
   21.3533   -1.6800  -16.0148 C   0  0  0  0  0  0  0  0  0  0  0  0
   21.4584   -3.0124  -16.3495 C   0  0  0  0  0  0  0  0  0  0  0  0
   22.0645   -3.9173  -15.5031 C   0  0  0  0  0  0  0  0  0  0  0  0
   22.1663   -5.3515  -15.8773 C   0  0  0  0  0  0  0  0  0  0  0  0
   21.1932   -6.2324  -15.1262 C   0  0  2  0  0  0  0  0  0  0  0  0
   21.1706   -7.5084  -15.8528 N   0  0  0  0  0  0  0  0  0  0  0  0
   19.8470   -5.6601  -15.0229 C   0  0  0  0  0  0  0  0  0  0  0  0
   19.5127   -4.7882  -14.0053 O   0  0  0  0  0  0  0  0  0  0  0  0
   22.5603   -3.4339  -14.3094 C   0  0  0  0  0  0  0  0  0  0  0  0
   22.4502   -2.1118  -13.9891 C   0  0  0  0  0  0  0  0  0  0  0  0
   18.9768   -5.9629  -15.8707 O   0  0  0  0  0  0  0  0  0  0  0  0
  2  1  1  6
  2  3  1  0
  4  3  1  0
  4  5  2  0
  6  5  1  0
  7  6  1  0
  8  7  2  0
  8  4  1  0
  9  2  1  0
 10  9  2  0
 11 12  1  0
 12 14  1  0
 13 12  2  0
 15 14  1  1
 15 16  1  0
 16  9  1  0
 17 15  1  0
 17 18  2  0
 20 19  1  0
 21 20  2  0
 22 21  1  0
 23 29  1  0
 23 22  2  0
 25 24  1  6
 24 23  1  0
 25 26  1  0
 26 17  1  0
 27 25  1  0
 28 27  1  0
 29 30  2  0
 30 20  1  0
 31 27  2  0
M  END
$$$$
