HNY.pdb
     RDKit          3D

 31 32  0  0  1  0  0  0  0  0999 V2000
   33.1537  -30.9243  -19.1407 N   0  0  0  0  0  0  0  0  0  0  0  0
   32.1281  -31.7578  -18.5282 C   0  0  1  0  0  0  0  0  0  0  0  0
   32.1991  -31.6002  -17.0343 C   0  0  0  0  0  0  0  0  0  0  0  0
   33.2756  -32.4031  -16.4096 C   0  0  0  0  0  0  0  0  0  0  0  0
   34.5195  -31.9746  -15.9724 C   0  0  0  0  0  0  0  0  0  0  0  0
   35.2126  -33.0043  -15.4650 N   0  0  0  0  0  0  0  0  0  0  0  0
   34.4266  -34.0891  -15.5722 C   0  0  0  0  0  0  0  0  0  0  0  0
   33.2635  -33.7412  -16.1366 N   0  0  0  0  0  0  0  0  0  0  0  0
   30.8315  -31.4349  -19.1209 C   0  0  0  0  0  0  0  0  0  0  0  0
   30.4690  -30.2082  -19.0900 O   0  0  0  0  0  0  0  0  0  0  0  0
   26.7933  -33.3077  -23.3829 N   0  0  0  0  0  0  0  0  0  0  0  0
   27.2901  -32.5613  -22.2853 C   0  0  0  0  0  0  0  0  0  0  0  0
   26.6812  -31.5205  -21.9387 O   0  0  0  0  0  0  0  0  0  0  0  0
   28.4843  -32.9647  -21.5480 C   0  0  0  0  0  0  0  0  0  0  0  0
   28.7965  -32.0890  -20.3636 C   0  0  2  0  0  0  0  0  0  0  0  0
   30.0202  -32.4358  -19.6998 N   0  0  0  0  0  0  0  0  0  0  0  0
   27.6648  -32.0620  -19.3833 C   0  0  0  0  0  0  0  0  0  0  0  0
   27.5134  -33.0428  -18.6104 O   0  0  0  0  0  0  0  0  0  0  0  0
   27.2581  -24.9213  -16.7881 O   0  0  0  0  0  0  0  0  0  0  0  0
   27.0035  -26.2936  -16.8557 C   0  0  0  0  0  0  0  0  0  0  0  0
   26.0521  -26.8872  -16.0490 C   0  0  0  0  0  0  0  0  0  0  0  0
   25.7955  -28.2395  -16.1101 C   0  0  0  0  0  0  0  0  0  0  0  0
   26.4805  -29.0593  -16.9825 C   0  0  0  0  0  0  0  0  0  0  0  0
   26.1944  -30.5163  -17.0332 C   0  0  0  0  0  0  0  0  0  0  0  0
   25.6287  -30.9653  -18.3619 C   0  0  2  0  0  0  0  0  0  0  0  0
   26.7668  -30.9909  -19.2897 N   0  0  0  0  0  0  0  0  0  0  0  0
   24.5579  -30.0982  -18.8639 C   0  0  0  0  0  0  0  0  0  0  0  0
   24.7005  -29.3865  -20.0389 O   0  0  0  0  0  0  0  0  0  0  0  0
   27.4318  -28.4703  -17.7901 C   0  0  0  0  0  0  0  0  0  0  0  0
   27.6770  -27.1295  -17.7205 C   0  0  0  0  0  0  0  0  0  0  0  0
   23.4891  -29.9953  -18.2199 O   0  0  0  0  0  0  0  0  0  0  0  0
  2  1  1  6
  2  3  1  0
  4  3  1  0
  4  5  2  0
  6  5  1  0
  7  6  1  0
  8  7  2  0
  8  4  1  0
  9  2  1  0
 10  9  2  0
 11 12  1  0
 12 14  1  0
 13 12  2  0
 15 14  1  6
 15 16  1  0
 16  9  1  0
 17 15  1  0
 17 18  2  0
 20 19  1  0
 21 20  2  0
 22 21  1  0
 23 29  1  0
 23 22  2  0
 25 24  1  1
 24 23  1  0
 25 26  1  0
 26 17  1  0
 27 25  1  0
 28 27  1  0
 29 30  2  0
 30 20  1  0
 31 27  2  0
M  END
$$$$
