HNY.pdb
     RDKit          3D

 31 32  0  0  1  0  0  0  0  0999 V2000
   23.8042  -16.0008  -19.5083 N   0  0  0  0  0  0  0  0  0  0  0  0
   23.8457  -17.2761  -18.8056 C   0  0  1  0  0  0  0  0  0  0  0  0
   24.7539  -17.1472  -17.6138 C   0  0  0  0  0  0  0  0  0  0  0  0
   26.1769  -16.9562  -17.9777 C   0  0  0  0  0  0  0  0  0  0  0  0
   26.7217  -16.7821  -19.2407 C   0  0  0  0  0  0  0  0  0  0  0  0
   28.0528  -16.6438  -19.1562 N   0  0  0  0  0  0  0  0  0  0  0  0
   28.3678  -16.7274  -17.8524 C   0  0  0  0  0  0  0  0  0  0  0  0
   27.2520  -16.9146  -17.1367 N   0  0  0  0  0  0  0  0  0  0  0  0
   22.4806  -17.6978  -18.4973 C   0  0  0  0  0  0  0  0  0  0  0  0
   21.6365  -16.7758  -18.2240 O   0  0  0  0  0  0  0  0  0  0  0  0
   17.8782  -20.8705  -19.3426 N   0  0  0  0  0  0  0  0  0  0  0  0
   18.9859  -21.1520  -18.5046 C   0  0  0  0  0  0  0  0  0  0  0  0
   18.7900  -21.7808  -17.4367 O   0  0  0  0  0  0  0  0  0  0  0  0
   20.3433  -20.7345  -18.8444 C   0  0  0  0  0  0  0  0  0  0  0  0
   20.7783  -19.4608  -18.1694 C   0  0  2  0  0  0  0  0  0  0  0  0
   22.1158  -19.0623  -18.5023 N   0  0  0  0  0  0  0  0  0  0  0  0
   20.6162  -19.5405  -16.6829 C   0  0  0  0  0  0  0  0  0  0  0  0
   21.6434  -19.4730  -15.9600 O   0  0  0  0  0  0  0  0  0  0  0  0
   20.4931  -19.5094   -8.3018 O   0  0  0  0  0  0  0  0  0  0  0  0
   20.4990  -19.5984   -9.6963 C   0  0  0  0  0  0  0  0  0  0  0  0
   20.9121  -18.5393  -10.4810 C   0  0  0  0  0  0  0  0  0  0  0  0
   20.9208  -18.6197  -11.8564 C   0  0  0  0  0  0  0  0  0  0  0  0
   20.5158  -19.7654  -12.5089 C   0  0  0  0  0  0  0  0  0  0  0  0
   20.5276  -19.8345  -13.9929 C   0  0  0  0  0  0  0  0  0  0  0  0
   19.1690  -19.5888  -14.6103 C   0  0  2  0  0  0  0  0  0  0  0  0
   19.3690  -19.6871  -16.0618 N   0  0  0  0  0  0  0  0  0  0  0  0
   18.5866  -18.2938  -14.2443 C   0  0  0  0  0  0  0  0  0  0  0  0
   18.0190  -18.0860  -13.0025 O   0  0  0  0  0  0  0  0  0  0  0  0
   20.1023  -20.8258  -11.7287 C   0  0  0  0  0  0  0  0  0  0  0  0
   20.0982  -20.7341  -10.3670 C   0  0  0  0  0  0  0  0  0  0  0  0
   18.6001  -17.3516  -15.0689 O   0  0  0  0  0  0  0  0  0  0  0  0
  2  1  1  1
  2  3  1  0
  4  3  1  0
  4  5  2  0
  6  5  1  0
  7  6  1  0
  8  7  2  0
  8  4  1  0
  9  2  1  0
 10  9  2  0
 11 12  1  0
 12 14  1  0
 13 12  2  0
 15 14  1  6
 15 16  1  0
 16  9  1  0
 17 15  1  0
 17 18  2  0
 20 19  1  0
 21 20  2  0
 22 21  1  0
 23 29  1  0
 23 22  2  0
 25 24  1  1
 24 23  1  0
 25 26  1  0
 26 17  1  0
 27 25  1  0
 28 27  1  0
 29 30  2  0
 30 20  1  0
 31 27  2  0
M  END
$$$$
