HNY.pdb
     RDKit          3D

 31 32  0  0  1  0  0  0  0  0999 V2000
   22.0936  -17.5204  -18.2111 N   0  0  0  0  0  0  0  0  0  0  0  0
   21.7421  -18.2885  -17.0244 C   0  0  1  0  0  0  0  0  0  0  0  0
   20.5568  -19.1587  -17.3396 C   0  0  0  0  0  0  0  0  0  0  0  0
   19.3517  -18.3908  -17.7295 C   0  0  0  0  0  0  0  0  0  0  0  0
   18.5137  -17.6422  -16.9175 C   0  0  0  0  0  0  0  0  0  0  0  0
   17.5279  -17.0977  -17.6455 N   0  0  0  0  0  0  0  0  0  0  0  0
   17.7245  -17.4892  -18.9160 C   0  0  0  0  0  0  0  0  0  0  0  0
   18.8143  -18.2643  -18.9786 N   0  0  0  0  0  0  0  0  0  0  0  0
   22.9244  -19.0057  -16.5506 C   0  0  0  0  0  0  0  0  0  0  0  0
   22.8106  -20.2703  -16.3915 O   0  0  0  0  0  0  0  0  0  0  0  0
   27.5454  -20.1074  -14.4502 N   0  0  0  0  0  0  0  0  0  0  0  0
   27.7175  -19.1192  -15.4515 C   0  0  0  0  0  0  0  0  0  0  0  0
   28.8826  -18.7838  -15.7741 O   0  0  0  0  0  0  0  0  0  0  0  0
   26.5847  -18.4816  -16.1168 C   0  0  0  0  0  0  0  0  0  0  0  0
   25.2443  -19.0229  -15.6957 C   0  0  2  0  0  0  0  0  0  0  0  0
   24.1345  -18.3284  -16.2823 N   0  0  0  0  0  0  0  0  0  0  0  0
   25.1057  -19.0556  -14.2049 C   0  0  0  0  0  0  0  0  0  0  0  0
   24.5220  -18.0995  -13.6328 O   0  0  0  0  0  0  0  0  0  0  0  0
   22.0309  -20.8950   -6.4736 O   0  0  0  0  0  0  0  0  0  0  0  0
   22.4758  -20.7730   -7.7926 C   0  0  0  0  0  0  0  0  0  0  0  0
   22.2278  -19.6320   -8.5306 C   0  0  0  0  0  0  0  0  0  0  0  0
   22.6633  -19.5044   -9.8315 C   0  0  0  0  0  0  0  0  0  0  0  0
   23.3676  -20.5146  -10.4528 C   0  0  0  0  0  0  0  0  0  0  0  0
   23.8268  -20.3628  -11.8576 C   0  0  0  0  0  0  0  0  0  0  0  0
   25.3289  -20.2390  -11.9820 C   0  0  2  0  0  0  0  0  0  0  0  0
   25.5985  -20.1056  -13.4194 N   0  0  0  0  0  0  0  0  0  0  0  0
   26.0580  -21.3762  -11.4115 C   0  0  0  0  0  0  0  0  0  0  0  0
   26.5626  -21.3351  -10.1265 O   0  0  0  0  0  0  0  0  0  0  0  0
   23.6173  -21.6563   -9.7191 C   0  0  0  0  0  0  0  0  0  0  0  0
   23.1807  -21.7709   -8.4311 C   0  0  0  0  0  0  0  0  0  0  0  0
   26.2309  -22.4097  -12.0968 O   0  0  0  0  0  0  0  0  0  0  0  0
  2  1  1  6
  2  3  1  0
  4  3  1  0
  4  5  2  0
  6  5  1  0
  7  6  1  0
  8  7  2  0
  8  4  1  0
  9  2  1  0
 10  9  2  0
 11 12  1  0
 12 14  1  0
 13 12  2  0
 15 14  1  1
 15 16  1  0
 16  9  1  0
 17 15  1  0
 17 18  2  0
 20 19  1  0
 21 20  2  0
 22 21  1  0
 23 29  1  0
 23 22  2  0
 25 24  1  6
 24 23  1  0
 25 26  1  0
 26 17  1  0
 27 25  1  0
 28 27  1  0
 29 30  2  0
 30 20  1  0
 31 27  2  0
M  END
$$$$
