LTY.pdb
     RDKit          3D

 28 28  0  0  1  0  0  0  0  0999 V2000
    6.7522  -13.8121   18.6463 C   0  0  0  0  0  0  0  0  0  0  0  0
    7.9409  -13.4271   19.4847 C   0  0  1  0  0  0  0  0  0  0  0  0
    7.9610  -11.9058   19.5940 C   0  0  0  0  0  0  0  0  0  0  0  0
    7.9030  -14.0553   20.8423 C   0  0  0  0  0  0  0  0  0  0  0  0
    9.1280  -14.7855   21.2555 C   0  0  2  0  0  0  0  0  0  0  0  0
    9.6442  -15.6190   20.1609 N   0  0  0  0  0  0  0  0  0  0  0  0
    9.1064  -15.5437   22.4957 C   0  0  0  0  0  0  0  0  0  0  0  0
    8.2366  -15.2761   23.3967 O   0  0  0  0  0  0  0  0  0  0  0  0
    9.8570  -19.4612   22.8946 C   0  0  0  0  0  0  0  0  0  0  0  0
   10.6203  -18.6864   23.9489 C   0  0  1  0  0  0  0  0  0  0  0  0
   11.9410  -18.7418   23.6714 O   0  0  0  0  0  0  0  0  0  0  0  0
   10.0055  -17.3205   24.0408 C   0  0  2  0  0  0  0  0  0  0  0  0
   10.0015  -16.6005   22.7947 N   0  0  0  0  0  0  0  0  0  0  0  0
   10.4027  -16.5561   25.2207 C   0  0  0  0  0  0  0  0  0  0  0  0
   11.3555  -15.7429   25.2369 O   0  0  0  0  0  0  0  0  0  0  0  0
    6.2856  -11.5940   24.9883 O   0  0  0  0  0  0  0  0  0  0  0  0
    6.9706  -12.4789   25.8146 C   0  0  0  0  0  0  0  0  0  0  0  0
    8.1699  -12.1282   26.3820 C   0  0  0  0  0  0  0  0  0  0  0  0
    8.8430  -13.0184   27.2026 C   0  0  0  0  0  0  0  0  0  0  0  0
    8.3550  -14.2712   27.4845 C   0  0  0  0  0  0  0  0  0  0  0  0
    9.0493  -15.2488   28.3504 C   0  0  0  0  0  0  0  0  0  0  0  0
   10.1735  -15.9427   27.6558 C   0  0  2  0  0  0  0  0  0  0  0  0
    9.7182  -16.6739   26.4841 N   0  0  0  0  0  0  0  0  0  0  0  0
   10.8650  -16.8554   28.5717 C   0  0  0  0  0  0  0  0  0  0  0  0
   11.4578  -16.5167   29.6137 O   0  0  0  0  0  0  0  0  0  0  0  0
    7.1403  -14.6011   26.8977 C   0  0  0  0  0  0  0  0  0  0  0  0
    6.4693  -13.7191   26.0825 C   0  0  0  0  0  0  0  0  0  0  0  0
   10.8772  -18.2336   28.2771 O   0  0  0  0  0  0  0  0  0  0  0  0
  2  1  1  6
  2  4  1  0
  2  3  1  0
  4  5  1  0
  5  6  1  6
  7  5  1  0
  8  7  2  0
 10  9  1  6
 11 10  1  0
 12 13  1  6
 12 10  1  0
 13  7  1  0
 14 12  1  0
 15 14  2  0
 17 16  1  0
 17 27  2  0
 18 17  1  0
 19 18  2  0
 19 20  1  0
 20 26  2  0
 21 20  1  0
 22 21  1  1
 22 23  1  0
 23 14  1  0
 24 22  1  0
 24 28  1  0
 25 24  2  0
 26 27  1  0
M  END
$$$$
