LTY.pdb
     RDKit          3D

 28 28  0  0  1  0  0  0  0  0999 V2000
    6.7345  -12.0884   19.0255 C   0  0  0  0  0  0  0  0  0  0  0  0
    7.7748  -13.0393   18.4987 C   0  0  1  0  0  0  0  0  0  0  0  0
    9.1421  -12.3957   18.7057 C   0  0  0  0  0  0  0  0  0  0  0  0
    7.7113  -14.3755   19.1692 C   0  0  0  0  0  0  0  0  0  0  0  0
    8.7544  -15.3539   18.7700 C   0  0  2  0  0  0  0  0  0  0  0  0
    8.4566  -15.9414   17.4564 N   0  0  0  0  0  0  0  0  0  0  0  0
    9.1343  -16.3953   19.7105 C   0  0  0  0  0  0  0  0  0  0  0  0
    8.2695  -17.2563   20.0988 O   0  0  0  0  0  0  0  0  0  0  0  0
   11.1052  -19.2680   19.8312 C   0  0  0  0  0  0  0  0  0  0  0  0
   11.7001  -18.5170   21.0045 C   0  0  1  0  0  0  0  0  0  0  0  0
   12.9711  -18.1676   20.7096 O   0  0  0  0  0  0  0  0  0  0  0  0
   10.7567  -17.4036   21.3547 C   0  0  2  0  0  0  0  0  0  0  0  0
   10.4375  -16.5428   20.2464 N   0  0  0  0  0  0  0  0  0  0  0  0
   11.0521  -16.7356   22.6199 C   0  0  0  0  0  0  0  0  0  0  0  0
   11.6796  -15.6549   22.7085 O   0  0  0  0  0  0  0  0  0  0  0  0
   11.1198  -14.1757   31.0667 O   0  0  0  0  0  0  0  0  0  0  0  0
   10.7956  -14.7484   29.8411 C   0  0  0  0  0  0  0  0  0  0  0  0
   10.8354  -16.1090   29.6667 C   0  0  0  0  0  0  0  0  0  0  0  0
   10.5109  -16.6675   28.4414 C   0  0  0  0  0  0  0  0  0  0  0  0
   10.1404  -15.9043   27.3609 C   0  0  0  0  0  0  0  0  0  0  0  0
    9.7937  -16.4660   26.0372 C   0  0  0  0  0  0  0  0  0  0  0  0
   10.9764  -16.6008   25.1368 C   0  0  2  0  0  0  0  0  0  0  0  0
   10.6368  -17.2719   23.8922 N   0  0  0  0  0  0  0  0  0  0  0  0
   12.0609  -17.3231   25.8093 C   0  0  0  0  0  0  0  0  0  0  0  0
   12.9499  -16.7994   26.5073 O   0  0  0  0  0  0  0  0  0  0  0  0
   10.1085  -14.5308   27.5638 C   0  0  0  0  0  0  0  0  0  0  0  0
   10.4299  -13.9732   28.7797 C   0  0  0  0  0  0  0  0  0  0  0  0
   12.1300  -18.7244   25.6746 O   0  0  0  0  0  0  0  0  0  0  0  0
  2  1  1  1
  2  4  1  0
  2  3  1  0
  4  5  1  0
  5  6  1  6
  7  5  1  0
  8  7  2  0
 10  9  1  6
 11 10  1  0
 12 13  1  6
 12 10  1  0
 13  7  1  0
 14 12  1  0
 15 14  2  0
 17 16  1  0
 17 27  2  0
 18 17  1  0
 19 18  2  0
 19 20  1  0
 20 26  2  0
 21 20  1  0
 22 21  1  1
 22 23  1  0
 23 14  1  0
 24 22  1  0
 24 28  1  0
 25 24  2  0
 26 27  1  0
M  END
$$$$
