LTY.pdb
     RDKit          3D

 28 28  0  0  1  0  0  0  0  0999 V2000
    6.8473  -12.0688   19.1333 C   0  0  0  0  0  0  0  0  0  0  0  0
    7.7181  -13.1290   18.5153 C   0  0  1  0  0  0  0  0  0  0  0  0
    9.1362  -12.5742   18.4272 C   0  0  0  0  0  0  0  0  0  0  0  0
    7.6961  -14.4052   19.2962 C   0  0  0  0  0  0  0  0  0  0  0  0
    8.6138  -15.4726   18.8241 C   0  0  2  0  0  0  0  0  0  0  0  0
    8.0857  -16.1343   17.6230 N   0  0  0  0  0  0  0  0  0  0  0  0
    9.0835  -16.4646   19.7774 C   0  0  0  0  0  0  0  0  0  0  0  0
    8.2907  -17.3797   20.1946 O   0  0  0  0  0  0  0  0  0  0  0  0
   11.5334  -19.0334   19.7745 C   0  0  0  0  0  0  0  0  0  0  0  0
   11.9345  -18.2869   21.0301 C   0  0  1  0  0  0  0  0  0  0  0  0
   13.1514  -17.7304   20.8462 O   0  0  0  0  0  0  0  0  0  0  0  0
   10.8112  -17.3557   21.3815 C   0  0  2  0  0  0  0  0  0  0  0  0
   10.4015  -16.5045   20.2958 N   0  0  0  0  0  0  0  0  0  0  0  0
   10.9454  -16.7106   22.6853 C   0  0  0  0  0  0  0  0  0  0  0  0
   11.0990  -15.4770   22.8409 O   0  0  0  0  0  0  0  0  0  0  0  0
   10.5918  -14.3087   31.0871 O   0  0  0  0  0  0  0  0  0  0  0  0
   10.4108  -14.8152   29.8042 C   0  0  0  0  0  0  0  0  0  0  0  0
   10.2779  -13.9749   28.7273 C   0  0  0  0  0  0  0  0  0  0  0  0
   10.0975  -14.4912   27.4546 C   0  0  0  0  0  0  0  0  0  0  0  0
   10.0435  -15.8420   27.2103 C   0  0  0  0  0  0  0  0  0  0  0  0
    9.8461  -16.4276   25.8666 C   0  0  0  0  0  0  0  0  0  0  0  0
   11.1301  -16.7927   25.1989 C   0  0  2  0  0  0  0  0  0  0  0  0
   10.9089  -17.4517   23.9215 N   0  0  0  0  0  0  0  0  0  0  0  0
   11.9399  -17.6534   26.0668 C   0  0  0  0  0  0  0  0  0  0  0  0
   12.9154  -17.2779   26.7446 O   0  0  0  0  0  0  0  0  0  0  0  0
   10.1804  -16.6700   28.3168 C   0  0  0  0  0  0  0  0  0  0  0  0
   10.3599  -16.1602   29.5819 C   0  0  0  0  0  0  0  0  0  0  0  0
   11.6130  -19.0209   26.1638 O   0  0  0  0  0  0  0  0  0  0  0  0
  2  1  1  1
  2  4  1  0
  2  3  1  0
  4  5  1  0
  5  6  1  6
  7  5  1  0
  8  7  2  0
 10  9  1  6
 11 10  1  0
 12 13  1  6
 12 10  1  0
 13  7  1  0
 14 12  1  0
 15 14  2  0
 17 16  1  0
 17 27  2  0
 18 17  1  0
 19 18  2  0
 19 20  1  0
 20 26  2  0
 21 20  1  0
 22 21  1  1
 22 23  1  0
 23 14  1  0
 24 22  1  0
 24 28  1  0
 25 24  2  0
 26 27  1  0
M  END
$$$$
