FGV.pdb
     RDKit          3D

 23 23  0  0  1  0  0  0  0  0999 V2000
    6.1418  -18.4045   20.0066 N   0  0  0  0  0  0  0  0  0  0  0  0
    6.8322  -17.2563   20.5575 C   0  0  1  0  0  0  0  0  0  0  0  0
    6.3598  -16.0234   19.8414 C   0  0  0  0  0  0  0  0  0  0  0  0
    7.0959  -14.8044   20.2096 C   0  0  0  0  0  0  0  0  0  0  0  0
    8.1134  -14.3313   19.4211 C   0  0  0  0  0  0  0  0  0  0  0  0
    8.8144  -13.1846   19.7582 C   0  0  0  0  0  0  0  0  0  0  0  0
    8.4726  -12.5151   20.9115 C   0  0  0  0  0  0  0  0  0  0  0  0
    7.4583  -12.9652   21.7205 C   0  0  0  0  0  0  0  0  0  0  0  0
    6.7740  -14.1196   21.3541 C   0  0  0  0  0  0  0  0  0  0  0  0
    6.5443  -17.1663   21.9923 C   0  0  0  0  0  0  0  0  0  0  0  0
    5.3812  -16.9711   22.4716 O   0  0  0  0  0  0  0  0  0  0  0  0
    7.5775  -17.2951   22.9821 N   0  0  0  0  0  0  0  0  0  0  0  0
    7.3526  -17.0146   24.3617 C   0  0  0  0  0  0  0  0  0  0  0  0
    8.4076  -16.2432   25.0086 C   0  0  0  0  0  0  0  0  0  0  0  0
    9.4220  -15.9013   24.3681 O   0  0  0  0  0  0  0  0  0  0  0  0
    9.7143  -13.4976   28.9277 C   0  0  0  0  0  0  0  0  0  0  0  0
    8.6872  -14.3002   28.1579 C   0  0  1  0  0  0  0  0  0  0  0  0
    7.6761  -13.3419   27.6054 C   0  0  0  0  0  0  0  0  0  0  0  0
    9.3322  -15.1214   27.0645 C   0  0  2  0  0  0  0  0  0  0  0  0
    8.3042  -15.8688   26.3657 N   0  0  0  0  0  0  0  0  0  0  0  0
   10.3129  -16.0973   27.5923 C   0  0  0  0  0  0  0  0  0  0  0  0
   11.6501  -15.7639   27.6572 O   0  0  0  0  0  0  0  0  0  0  0  0
    9.9808  -17.2444   27.9948 O   0  0  0  0  0  0  0  0  0  0  0  0
  2  1  1  6
  3  2  1  0
  4  3  1  0
  5  4  2  0
  6  5  1  0
  7  8  1  0
  7  6  2  0
  8  9  2  0
  9  4  1  0
 10  2  1  0
 10 12  1  0
 11 10  2  0
 13 12  1  0
 13 14  1  0
 14 15  2  0
 14 20  1  0
 17 18  1  6
 17 16  1  0
 19 17  1  0
 19 20  1  1
 21 19  1  0
 21 22  1  0
 23 21  2  0
M  END
$$$$
