FGV.pdb
     RDKit          3D

 23 23  0  0  1  0  0  0  0  0999 V2000
    7.2697  -16.9514   21.4904 N   0  0  0  0  0  0  0  0  0  0  0  0
    8.4001  -16.2201   22.0250 C   0  0  1  0  0  0  0  0  0  0  0  0
    7.9528  -14.8274   22.3657 C   0  0  0  0  0  0  0  0  0  0  0  0
    7.7350  -13.9697   21.1909 C   0  0  0  0  0  0  0  0  0  0  0  0
    8.7931  -13.4065   20.5246 C   0  0  0  0  0  0  0  0  0  0  0  0
    8.6002  -12.5963   19.4172 C   0  0  0  0  0  0  0  0  0  0  0  0
    7.3143  -12.3594   18.9866 C   0  0  0  0  0  0  0  0  0  0  0  0
    6.2353  -12.9098   19.6338 C   0  0  0  0  0  0  0  0  0  0  0  0
    6.4628  -13.7187   20.7424 C   0  0  0  0  0  0  0  0  0  0  0  0
    8.8987  -16.9122   23.2174 C   0  0  0  0  0  0  0  0  0  0  0  0
    8.1675  -17.2343   24.2084 O   0  0  0  0  0  0  0  0  0  0  0  0
   10.2793  -17.2848   23.3556 N   0  0  0  0  0  0  0  0  0  0  0  0
   10.8384  -17.6952   24.6012 C   0  0  0  0  0  0  0  0  0  0  0  0
   11.2096  -16.6034   25.4939 C   0  0  0  0  0  0  0  0  0  0  0  0
   12.2729  -15.9762   25.3150 O   0  0  0  0  0  0  0  0  0  0  0  0
   10.1062  -13.3886   26.2699 C   0  0  0  0  0  0  0  0  0  0  0  0
    9.9827  -14.0906   27.6054 C   0  0  1  0  0  0  0  0  0  0  0  0
    8.5300  -14.3717   27.8436 C   0  0  0  0  0  0  0  0  0  0  0  0
   10.8088  -15.3562   27.6443 C   0  0  2  0  0  0  0  0  0  0  0  0
   10.3783  -16.2348   26.5737 N   0  0  0  0  0  0  0  0  0  0  0  0
   10.6538  -16.0953   28.9180 C   0  0  0  0  0  0  0  0  0  0  0  0
   10.0625  -17.3418   28.9237 O   0  0  0  0  0  0  0  0  0  0  0  0
   11.0436  -15.6330   30.0237 O   0  0  0  0  0  0  0  0  0  0  0  0
  2  1  1  1
  3  2  1  0
  4  3  1  0
  5  4  2  0
  6  5  1  0
  7  8  1  0
  7  6  2  0
  8  9  2  0
  9  4  1  0
 10  2  1  0
 10 12  1  0
 11 10  2  0
 13 12  1  0
 13 14  1  0
 14 15  2  0
 14 20  1  0
 17 18  1  6
 17 16  1  0
 19 17  1  0
 19 20  1  6
 21 19  1  0
 21 22  1  0
 23 21  2  0
M  END
$$$$
