FGV.pdb
     RDKit          3D

 23 23  0  0  1  0  0  0  0  0999 V2000
    8.8623  -17.0518   25.4502 N   0  0  0  0  0  0  0  0  0  0  0  0
    7.6943  -16.2410   25.7270 C   0  0  1  0  0  0  0  0  0  0  0  0
    8.1105  -14.7985   25.7687 C   0  0  0  0  0  0  0  0  0  0  0  0
    8.9945  -14.4682   26.8969 C   0  0  0  0  0  0  0  0  0  0  0  0
   10.3388  -14.7332   26.8390 C   0  0  0  0  0  0  0  0  0  0  0  0
   11.1811  -14.4272   27.8958 C   0  0  0  0  0  0  0  0  0  0  0  0
   10.6450  -13.8451   29.0221 C   0  0  0  0  0  0  0  0  0  0  0  0
    9.3027  -13.5681   29.1086 C   0  0  0  0  0  0  0  0  0  0  0  0
    8.4839  -13.8875   28.0304 C   0  0  0  0  0  0  0  0  0  0  0  0
    6.6959  -16.4636   24.6766 C   0  0  0  0  0  0  0  0  0  0  0  0
    5.5485  -15.9127   24.6603 O   0  0  0  0  0  0  0  0  0  0  0  0
    6.9472  -17.3391   23.5656 N   0  0  0  0  0  0  0  0  0  0  0  0
    6.1473  -17.3240   22.3855 C   0  0  0  0  0  0  0  0  0  0  0  0
    6.7852  -16.7182   21.2225 C   0  0  0  0  0  0  0  0  0  0  0  0
    6.4445  -17.0534   20.0702 O   0  0  0  0  0  0  0  0  0  0  0  0
    6.8064  -13.4216   19.9973 C   0  0  0  0  0  0  0  0  0  0  0  0
    8.2820  -13.7121   20.1700 C   0  0  1  0  0  0  0  0  0  0  0  0
    8.7510  -12.9915   21.3975 C   0  0  0  0  0  0  0  0  0  0  0  0
    8.5469  -15.1978   20.2606 C   0  0  2  0  0  0  0  0  0  0  0  0
    7.7962  -15.7448   21.3746 N   0  0  0  0  0  0  0  0  0  0  0  0
    9.9768  -15.5054   20.4919 C   0  0  0  0  0  0  0  0  0  0  0  0
   10.8966  -15.3052   19.4833 O   0  0  0  0  0  0  0  0  0  0  0  0
   10.4071  -15.9515   21.5892 O   0  0  0  0  0  0  0  0  0  0  0  0
  2  1  1  6
  3  2  1  0
  4  3  1  0
  5  4  2  0
  6  5  1  0
  7  8  1  0
  7  6  2  0
  8  9  2  0
  9  4  1  0
 10  2  1  0
 10 12  1  0
 11 10  2  0
 13 12  1  0
 13 14  1  0
 14 15  2  0
 14 20  1  0
 17 18  1  1
 17 16  1  0
 19 17  1  0
 19 20  1  1
 21 19  1  0
 21 22  1  0
 23 21  2  0
M  END
$$$$
