FGV.pdb
     RDKit          3D

 23 23  0  0  1  0  0  0  0  0999 V2000
    8.6162  -16.9729   22.1618 N   0  0  0  0  0  0  0  0  0  0  0  0
    9.5310  -15.8501   22.1905 C   0  0  1  0  0  0  0  0  0  0  0  0
    8.7801  -14.6309   22.6439 C   0  0  0  0  0  0  0  0  0  0  0  0
    8.1234  -13.8977   21.5508 C   0  0  0  0  0  0  0  0  0  0  0  0
    6.7733  -14.0114   21.3383 C   0  0  0  0  0  0  0  0  0  0  0  0
    6.1440  -13.3263   20.3115 C   0  0  0  0  0  0  0  0  0  0  0  0
    6.9010  -12.5175   19.4942 C   0  0  0  0  0  0  0  0  0  0  0  0
    8.2547  -12.3841   19.6830 C   0  0  0  0  0  0  0  0  0  0  0  0
    8.8564  -13.0854   20.7229 C   0  0  0  0  0  0  0  0  0  0  0  0
   10.6332  -16.1527   23.1087 C   0  0  0  0  0  0  0  0  0  0  0  0
   11.6744  -15.4304   23.2298 O   0  0  0  0  0  0  0  0  0  0  0  0
   10.6164  -17.3123   23.9567 N   0  0  0  0  0  0  0  0  0  0  0  0
   11.7709  -17.7570   24.6652 C   0  0  0  0  0  0  0  0  0  0  0  0
   11.9770  -17.1185   25.9601 C   0  0  0  0  0  0  0  0  0  0  0  0
   13.0874  -17.1821   26.5249 O   0  0  0  0  0  0  0  0  0  0  0  0
   10.6993  -13.5990   27.2614 C   0  0  0  0  0  0  0  0  0  0  0  0
   10.1709  -14.7188   28.1322 C   0  0  1  0  0  0  0  0  0  0  0  0
    8.7371  -14.9501   27.7625 C   0  0  0  0  0  0  0  0  0  0  0  0
   10.9958  -15.9764   27.9783 C   0  0  2  0  0  0  0  0  0  0  0  0
   10.9304  -16.4188   26.5985 N   0  0  0  0  0  0  0  0  0  0  0  0
   10.5024  -17.0853   28.8265 C   0  0  0  0  0  0  0  0  0  0  0  0
   10.7728  -17.0908   30.1794 O   0  0  0  0  0  0  0  0  0  0  0  0
    9.8320  -18.0474   28.3649 O   0  0  0  0  0  0  0  0  0  0  0  0
  2  1  1  1
  3  2  1  0
  4  3  1  0
  5  4  2  0
  6  5  1  0
  7  8  1  0
  7  6  2  0
  8  9  2  0
  9  4  1  0
 10  2  1  0
 10 12  1  0
 11 10  2  0
 13 12  1  0
 13 14  1  0
 14 15  2  0
 14 20  1  0
 17 18  1  6
 17 16  1  0
 19 17  1  0
 19 20  1  6
 21 19  1  0
 21 22  1  0
 23 21  2  0
M  END
$$$$
