FGV.pdb
     RDKit          3D

 23 23  0  0  1  0  0  0  0  0999 V2000
    7.0980  -16.3699   25.7275 N   0  0  0  0  0  0  0  0  0  0  0  0
    6.9840  -16.5056   24.2898 C   0  0  1  0  0  0  0  0  0  0  0  0
    6.4276  -15.2278   23.7299 C   0  0  0  0  0  0  0  0  0  0  0  0
    6.5325  -14.0826   24.6470 C   0  0  0  0  0  0  0  0  0  0  0  0
    5.7309  -13.9933   25.7562 C   0  0  0  0  0  0  0  0  0  0  0  0
    5.8201  -12.9190   26.6268 C   0  0  0  0  0  0  0  0  0  0  0  0
    6.7368  -11.9268   26.3616 C   0  0  0  0  0  0  0  0  0  0  0  0
    7.5526  -11.9893   25.2587 C   0  0  0  0  0  0  0  0  0  0  0  0
    7.4383  -13.0811   24.4043 C   0  0  0  0  0  0  0  0  0  0  0  0
    8.3089  -16.7857   23.7278 C   0  0  0  0  0  0  0  0  0  0  0  0
    8.5773  -17.8090   23.0199 O   0  0  0  0  0  0  0  0  0  0  0  0
    9.4240  -15.9052   23.9408 N   0  0  0  0  0  0  0  0  0  0  0  0
   10.7737  -16.3641   23.9216 C   0  0  0  0  0  0  0  0  0  0  0  0
   11.4251  -16.4014   25.2258 C   0  0  0  0  0  0  0  0  0  0  0  0
   12.6239  -16.7329   25.3227 O   0  0  0  0  0  0  0  0  0  0  0  0
   11.1945  -13.5239   27.5623 C   0  0  0  0  0  0  0  0  0  0  0  0
   10.9061  -14.7446   28.4098 C   0  0  1  0  0  0  0  0  0  0  0  0
    9.4402  -14.7508   28.7216 C   0  0  0  0  0  0  0  0  0  0  0  0
   11.3328  -16.0163   27.7124 C   0  0  2  0  0  0  0  0  0  0  0  0
   10.7174  -16.0651   26.4000 N   0  0  0  0  0  0  0  0  0  0  0  0
   10.9156  -17.2327   28.4466 C   0  0  0  0  0  0  0  0  0  0  0  0
   11.5013  -17.5418   29.6569 O   0  0  0  0  0  0  0  0  0  0  0  0
   10.0317  -18.0190   28.0122 O   0  0  0  0  0  0  0  0  0  0  0  0
  2  1  1  1
  3  2  1  0
  4  3  1  0
  5  4  2  0
  6  5  1  0
  7  8  1  0
  7  6  2  0
  8  9  2  0
  9  4  1  0
 10  2  1  0
 10 12  1  0
 11 10  2  0
 13 12  1  0
 13 14  1  0
 14 15  2  0
 14 20  1  0
 17 18  1  6
 17 16  1  0
 19 17  1  0
 19 20  1  6
 21 19  1  0
 21 22  1  0
 23 21  2  0
M  END
$$$$
