FGV.pdb
     RDKit          3D

 23 23  0  0  1  0  0  0  0  0999 V2000
    6.8669  -16.5584   24.0147 N   0  0  0  0  0  0  0  0  0  0  0  0
    7.3401  -15.8311   22.8547 C   0  0  1  0  0  0  0  0  0  0  0  0
    6.7439  -14.4528   22.8765 C   0  0  0  0  0  0  0  0  0  0  0  0
    6.7723  -13.8146   24.2014 C   0  0  0  0  0  0  0  0  0  0  0  0
    6.2527  -14.4500   25.3001 C   0  0  0  0  0  0  0  0  0  0  0  0
    6.2730  -13.8585   26.5529 C   0  0  0  0  0  0  0  0  0  0  0  0
    6.8295  -12.6062   26.6844 C   0  0  0  0  0  0  0  0  0  0  0  0
    7.3575  -11.9459   25.6022 C   0  0  0  0  0  0  0  0  0  0  0  0
    7.3215  -12.5671   24.3580 C   0  0  0  0  0  0  0  0  0  0  0  0
    8.8042  -15.7647   22.8946 C   0  0  0  0  0  0  0  0  0  0  0  0
    9.5095  -15.1389   22.0394 O   0  0  0  0  0  0  0  0  0  0  0  0
    9.5645  -16.4157   23.9251 N   0  0  0  0  0  0  0  0  0  0  0  0
   10.9894  -16.3825   23.9592 C   0  0  0  0  0  0  0  0  0  0  0  0
   11.5646  -16.1798   25.2839 C   0  0  0  0  0  0  0  0  0  0  0  0
   12.7977  -16.2588   25.4549 O   0  0  0  0  0  0  0  0  0  0  0  0
   10.9316  -13.3493   27.6077 C   0  0  0  0  0  0  0  0  0  0  0  0
   10.6766  -14.5954   28.4284 C   0  0  1  0  0  0  0  0  0  0  0  0
    9.1975  -14.7105   28.6406 C   0  0  0  0  0  0  0  0  0  0  0  0
   11.2404  -15.8265   27.7559 C   0  0  2  0  0  0  0  0  0  0  0  0
   10.7429  -15.8915   26.3950 N   0  0  0  0  0  0  0  0  0  0  0  0
   10.8402  -17.0785   28.4378 C   0  0  0  0  0  0  0  0  0  0  0  0
   11.3868  -17.4009   29.6628 O   0  0  0  0  0  0  0  0  0  0  0  0
   10.0058  -17.8840   27.9447 O   0  0  0  0  0  0  0  0  0  0  0  0
  2  1  1  1
  3  2  1  0
  4  3  1  0
  5  4  2  0
  6  5  1  0
  7  8  1  0
  7  6  2  0
  8  9  2  0
  9  4  1  0
 10  2  1  0
 10 12  1  0
 11 10  2  0
 13 12  1  0
 13 14  1  0
 14 15  2  0
 14 20  1  0
 17 18  1  6
 17 16  1  0
 19 17  1  0
 19 20  1  6
 21 19  1  0
 21 22  1  0
 23 21  2  0
M  END
$$$$
