FGV.pdb
     RDKit          3D

 23 23  0  0  1  0  0  0  0  0999 V2000
    7.8250  -14.2099   20.6673 N   0  0  0  0  0  0  0  0  0  0  0  0
    8.1207  -13.9046   22.0522 C   0  0  1  0  0  0  0  0  0  0  0  0
    6.8704  -13.3924   22.7080 C   0  0  0  0  0  0  0  0  0  0  0  0
    7.0514  -13.0160   24.1183 C   0  0  0  0  0  0  0  0  0  0  0  0
    7.7221  -11.8697   24.4605 C   0  0  0  0  0  0  0  0  0  0  0  0
    7.8995  -11.5054   25.7856 C   0  0  0  0  0  0  0  0  0  0  0  0
    7.3868  -12.3197   26.7700 C   0  0  0  0  0  0  0  0  0  0  0  0
    6.7107  -13.4735   26.4575 C   0  0  0  0  0  0  0  0  0  0  0  0
    6.5497  -13.8111   25.1176 C   0  0  0  0  0  0  0  0  0  0  0  0
    8.5975  -15.1196   22.7200 C   0  0  0  0  0  0  0  0  0  0  0  0
    7.9494  -16.2150   22.7473 O   0  0  0  0  0  0  0  0  0  0  0  0
    9.8587  -15.1617   23.4066 N   0  0  0  0  0  0  0  0  0  0  0  0
   10.3725  -16.3582   23.9871 C   0  0  0  0  0  0  0  0  0  0  0  0
   10.0308  -16.5519   25.3916 C   0  0  0  0  0  0  0  0  0  0  0  0
    9.9396  -15.5728   26.1592 O   0  0  0  0  0  0  0  0  0  0  0  0
    6.9768  -17.8127   26.2595 C   0  0  0  0  0  0  0  0  0  0  0  0
    7.8794  -18.6803   27.1105 C   0  0  1  0  0  0  0  0  0  0  0  0
    7.9207  -20.0448   26.4920 C   0  0  0  0  0  0  0  0  0  0  0  0
    9.2628  -18.0836   27.2366 C   0  0  2  0  0  0  0  0  0  0  0  0
    9.7971  -17.8440   25.9097 N   0  0  0  0  0  0  0  0  0  0  0  0
   10.2054  -18.9819   27.9419 C   0  0  0  0  0  0  0  0  0  0  0  0
   10.0854  -19.1750   29.3027 O   0  0  0  0  0  0  0  0  0  0  0  0
   11.1338  -19.5937   27.3487 O   0  0  0  0  0  0  0  0  0  0  0  0
  2  1  1  6
  3  2  1  0
  4  3  1  0
  5  4  2  0
  6  5  1  0
  7  8  1  0
  7  6  2  0
  8  9  2  0
  9  4  1  0
 10  2  1  0
 10 12  1  0
 11 10  2  0
 13 12  1  0
 13 14  1  0
 14 15  2  0
 14 20  1  0
 17 18  1  6
 17 16  1  0
 19 17  1  0
 19 20  1  6
 21 19  1  0
 21 22  1  0
 23 21  2  0
M  END
$$$$
