FGV.pdb
     RDKit          3D

 23 23  0  0  1  0  0  0  0  0999 V2000
    7.4519  -16.6387   25.5751 N   0  0  0  0  0  0  0  0  0  0  0  0
    7.1535  -16.7284   24.1604 C   0  0  1  0  0  0  0  0  0  0  0  0
    6.1367  -15.6777   23.8170 C   0  0  0  0  0  0  0  0  0  0  0  0
    6.3927  -14.3747   24.4497 C   0  0  0  0  0  0  0  0  0  0  0  0
    5.8437  -14.0635   25.6673 C   0  0  0  0  0  0  0  0  0  0  0  0
    6.0771  -12.8391   26.2726 C   0  0  0  0  0  0  0  0  0  0  0  0
    6.8788  -11.9244   25.6279 C   0  0  0  0  0  0  0  0  0  0  0  0
    7.4421  -12.2082   24.4080 C   0  0  0  0  0  0  0  0  0  0  0  0
    7.1883  -13.4464   23.8270 C   0  0  0  0  0  0  0  0  0  0  0  0
    8.3881  -16.5264   23.3960 C   0  0  0  0  0  0  0  0  0  0  0  0
    8.6750  -17.1617   22.3309 O   0  0  0  0  0  0  0  0  0  0  0  0
    9.3847  -15.5753   23.8036 N   0  0  0  0  0  0  0  0  0  0  0  0
   10.7705  -15.9034   23.8723 C   0  0  0  0  0  0  0  0  0  0  0  0
   11.2970  -16.0524   25.2240 C   0  0  0  0  0  0  0  0  0  0  0  0
   12.5110  -16.2738   25.4071 O   0  0  0  0  0  0  0  0  0  0  0  0
   10.4836  -14.6628   29.8854 C   0  0  0  0  0  0  0  0  0  0  0  0
   10.0545  -14.8195   28.4422 C   0  0  1  0  0  0  0  0  0  0  0  0
   10.0776  -13.4625   27.8066 C   0  0  0  0  0  0  0  0  0  0  0  0
   10.9417  -15.7958   27.7036 C   0  0  2  0  0  0  0  0  0  0  0  0
   10.4492  -15.9500   26.3481 N   0  0  0  0  0  0  0  0  0  0  0  0
   10.9524  -17.1376   28.3299 C   0  0  0  0  0  0  0  0  0  0  0  0
   11.8237  -17.4078   29.3649 O   0  0  0  0  0  0  0  0  0  0  0  0
   10.1882  -18.0677   27.9571 O   0  0  0  0  0  0  0  0  0  0  0  0
  2  1  1  1
  3  2  1  0
  4  3  1  0
  5  4  2  0
  6  5  1  0
  7  8  1  0
  7  6  2  0
  8  9  2  0
  9  4  1  0
 10  2  1  0
 10 12  1  0
 11 10  2  0
 13 12  1  0
 13 14  1  0
 14 15  2  0
 14 20  1  0
 17 18  1  6
 17 16  1  0
 19 17  1  0
 19 20  1  6
 21 19  1  0
 21 22  1  0
 23 21  2  0
M  END
$$$$
