FGV.pdb
     RDKit          3D

 23 23  0  0  1  0  0  0  0  0999 V2000
    7.4307  -16.7149   26.5214 N   0  0  0  0  0  0  0  0  0  0  0  0
    6.6412  -16.2844   25.3857 C   0  0  1  0  0  0  0  0  0  0  0  0
    7.2574  -15.0380   24.8179 C   0  0  0  0  0  0  0  0  0  0  0  0
    7.3224  -13.9203   25.7719 C   0  0  0  0  0  0  0  0  0  0  0  0
    6.2013  -13.1946   26.0835 C   0  0  0  0  0  0  0  0  0  0  0  0
    6.2505  -12.1392   26.9800 C   0  0  0  0  0  0  0  0  0  0  0  0
    7.4565  -11.8224   27.5635 C   0  0  0  0  0  0  0  0  0  0  0  0
    8.5957  -12.5313   27.2707 C   0  0  0  0  0  0  0  0  0  0  0  0
    8.5127  -13.5852   26.3666 C   0  0  0  0  0  0  0  0  0  0  0  0
    6.6175  -17.3550   24.3844 C   0  0  0  0  0  0  0  0  0  0  0  0
    5.9444  -18.4283   24.5091 O   0  0  0  0  0  0  0  0  0  0  0  0
    7.3692  -17.2673   23.1633 N   0  0  0  0  0  0  0  0  0  0  0  0
    6.8671  -17.7540   21.9209 C   0  0  0  0  0  0  0  0  0  0  0  0
    7.2532  -16.9674   20.7552 C   0  0  0  0  0  0  0  0  0  0  0  0
    6.9308  -17.3389   19.6087 O   0  0  0  0  0  0  0  0  0  0  0  0
    6.5086  -13.6895   19.7869 C   0  0  0  0  0  0  0  0  0  0  0  0
    8.0206  -13.6738   19.7145 C   0  0  1  0  0  0  0  0  0  0  0  0
    8.5249  -12.8183   20.8369 C   0  0  0  0  0  0  0  0  0  0  0  0
    8.5926  -15.0718   19.7790 C   0  0  2  0  0  0  0  0  0  0  0  0
    7.9960  -15.7755   20.8981 N   0  0  0  0  0  0  0  0  0  0  0  0
   10.0596  -15.0751   19.9804 C   0  0  0  0  0  0  0  0  0  0  0  0
   10.5894  -15.5033   21.1801 O   0  0  0  0  0  0  0  0  0  0  0  0
   10.8685  -14.6979   19.0906 O   0  0  0  0  0  0  0  0  0  0  0  0
  2  1  1  1
  3  2  1  0
  4  3  1  0
  5  4  2  0
  6  5  1  0
  7  8  1  0
  7  6  2  0
  8  9  2  0
  9  4  1  0
 10  2  1  0
 10 12  1  0
 11 10  2  0
 13 12  1  0
 13 14  1  0
 14 15  2  0
 14 20  1  0
 17 18  1  1
 17 16  1  0
 19 17  1  0
 19 20  1  1
 21 19  1  0
 21 22  1  0
 23 21  2  0
M  END
$$$$
