HLN.pdb
     RDKit          3D

 27 27  0  0  1  0  0  0  0  0999 V2000
   17.8986  -13.9594  -16.9229 N   0  0  0  0  0  0  0  0  0  0  0  0
   18.8855  -13.1099  -17.5288 C   0  0  1  0  0  0  0  0  0  0  0  0
   18.4235  -12.5059  -18.8374 C   0  0  0  0  0  0  0  0  0  0  0  0
   18.1012  -13.5318  -19.8372 C   0  0  0  0  0  0  0  0  0  0  0  0
   16.8921  -13.8422  -20.4326 C   0  0  0  0  0  0  0  0  0  0  0  0
   17.0502  -14.8496  -21.2963 N   0  0  0  0  0  0  0  0  0  0  0  0
   18.3613  -15.1978  -21.2630 C   0  0  0  0  0  0  0  0  0  0  0  0
   18.9877  -14.3827  -20.3665 N   0  0  0  0  0  0  0  0  0  0  0  0
   19.3016  -12.0445  -16.5618 C   0  0  0  0  0  0  0  0  0  0  0  0
   18.4043  -11.6072  -15.8200 O   0  0  0  0  0  0  0  0  0  0  0  0
   21.7894   -9.4828  -13.0372 C   0  0  0  0  0  0  0  0  0  0  0  0
   22.9315   -9.9106  -13.9649 C   0  0  2  0  0  0  0  0  0  0  0  0
   23.2710   -8.6688  -14.7843 C   0  0  0  0  0  0  0  0  0  0  0  0
   22.4689  -10.9827  -14.9244 C   0  0  0  0  0  0  0  0  0  0  0  0
   21.1750  -10.6205  -15.5849 C   0  0  2  0  0  0  0  0  0  0  0  0
   20.6221  -11.5702  -16.4949 N   0  0  0  0  0  0  0  0  0  0  0  0
   21.0716   -9.2399  -16.1014 C   0  0  0  0  0  0  0  0  0  0  0  0
   21.9074   -8.8842  -17.0105 O   0  0  0  0  0  0  0  0  0  0  0  0
   16.4073   -7.9011  -16.9273 N   0  0  0  0  0  0  0  0  0  0  0  0
   17.7055   -7.3977  -17.2022 C   0  0  0  0  0  0  0  0  0  0  0  0
   18.2156   -7.6506  -18.3164 O   0  0  0  0  0  0  0  0  0  0  0  0
   18.4362   -6.6050  -16.2125 C   0  0  0  0  0  0  0  0  0  0  0  0
   19.8790   -6.9564  -16.0304 C   0  0  2  0  0  0  0  0  0  0  0  0
   20.1391   -8.2966  -15.6752 N   0  0  0  0  0  0  0  0  0  0  0  0
   20.5179   -5.8616  -15.3013 C   0  0  0  0  0  0  0  0  0  0  0  0
   21.1696   -5.9656  -14.2654 O   0  0  0  0  0  0  0  0  0  0  0  0
   20.3569   -4.5758  -15.8538 O   0  0  0  0  0  0  0  0  0  0  0  0
  2  3  1  0
  2  1  1  1
  4  8  1  0
  4  3  1  0
  5  4  2  0
  6  5  1  0
  6  7  1  0
  7  8  2  0
  9  2  1  0
 10  9  2  0
 12 11  1  1
 12 14  1  0
 13 12  1  0
 15 14  1  6
 15 16  1  0
 16  9  1  0
 17 15  1  0
 17 18  2  0
 20 22  1  0
 20 19  1  0
 21 20  2  0
 23 22  1  1
 23 24  1  0
 24 17  1  0
 25 23  1  0
 26 25  2  0
 27 25  1  0
M  END
$$$$
