HLN.pdb
     RDKit          3D

 27 27  0  0  1  0  0  0  0  0999 V2000
   12.3695  -14.4530    4.9423 N   0  0  0  0  0  0  0  0  0  0  0  0
   13.6639  -14.2176    5.5187 C   0  0  1  0  0  0  0  0  0  0  0  0
   13.6246  -14.0798    7.0254 C   0  0  0  0  0  0  0  0  0  0  0  0
   12.8710  -12.8945    7.4532 C   0  0  0  0  0  0  0  0  0  0  0  0
   12.3147  -11.8767    6.7001 C   0  0  0  0  0  0  0  0  0  0  0  0
   11.7081  -10.9930    7.4982 N   0  0  0  0  0  0  0  0  0  0  0  0
   11.8704  -11.4327    8.7716 C   0  0  0  0  0  0  0  0  0  0  0  0
   12.5830  -12.5948    8.7250 N   0  0  0  0  0  0  0  0  0  0  0  0
   14.6103  -15.3011    5.1021 C   0  0  0  0  0  0  0  0  0  0  0  0
   14.0986  -16.4152    4.8934 O   0  0  0  0  0  0  0  0  0  0  0  0
   17.3684  -16.3109    1.6343 C   0  0  0  0  0  0  0  0  0  0  0  0
   17.7560  -15.1165    2.5125 C   0  0  2  0  0  0  0  0  0  0  0  0
   18.9711  -14.4935    1.8311 C   0  0  0  0  0  0  0  0  0  0  0  0
   18.1853  -15.5788    3.8859 C   0  0  0  0  0  0  0  0  0  0  0  0
   17.0210  -16.0283    4.7130 C   0  0  2  0  0  0  0  0  0  0  0  0
   15.9885  -15.0736    4.9542 N   0  0  0  0  0  0  0  0  0  0  0  0
   17.3461  -16.8047    5.9275 C   0  0  0  0  0  0  0  0  0  0  0  0
   17.6477  -16.1450    6.9883 O   0  0  0  0  0  0  0  0  0  0  0  0
   18.0601  -20.8185    9.2929 N   0  0  0  0  0  0  0  0  0  0  0  0
   17.1486  -19.7409    9.4421 C   0  0  0  0  0  0  0  0  0  0  0  0
   16.5919  -19.5849   10.5518 O   0  0  0  0  0  0  0  0  0  0  0  0
   16.8601  -18.8330    8.3312 C   0  0  0  0  0  0  0  0  0  0  0  0
   17.5909  -19.1091    7.0553 C   0  0  2  0  0  0  0  0  0  0  0  0
   17.3524  -18.1957    6.0071 N   0  0  0  0  0  0  0  0  0  0  0  0
   17.5317  -20.5491    6.8080 C   0  0  0  0  0  0  0  0  0  0  0  0
   17.7886  -21.4339    7.6204 O   0  0  0  0  0  0  0  0  0  0  0  0
   17.1443  -20.9366    5.5102 O   0  0  0  0  0  0  0  0  0  0  0  0
  2  3  1  0
  2  1  1  1
  4  8  1  0
  4  3  1  0
  5  4  2  0
  6  5  1  0
  6  7  1  0
  7  8  2  0
  9  2  1  0
 10  9  2  0
 12 11  1  6
 12 14  1  0
 13 12  1  0
 15 14  1  1
 15 16  1  0
 16  9  1  0
 17 15  1  0
 17 18  2  0
 20 22  1  0
 20 19  1  0
 21 20  2  0
 23 22  1  1
 23 24  1  0
 24 17  1  0
 25 23  1  0
 26 25  2  0
 27 25  1  0
M  END
$$$$
