HLN.pdb
     RDKit          3D

 27 27  0  0  1  0  0  0  0  0999 V2000
   22.2603  -33.6387  -15.3281 N   0  0  0  0  0  0  0  0  0  0  0  0
   22.9429  -32.9899  -14.2437 C   0  0  1  0  0  0  0  0  0  0  0  0
   22.0609  -32.7763  -13.0325 C   0  0  0  0  0  0  0  0  0  0  0  0
   20.9188  -31.9016  -13.3270 C   0  0  0  0  0  0  0  0  0  0  0  0
   20.8867  -30.5478  -13.6076 C   0  0  0  0  0  0  0  0  0  0  0  0
   19.6281  -30.1523  -13.8209 N   0  0  0  0  0  0  0  0  0  0  0  0
   18.8392  -31.2469  -13.6774 C   0  0  0  0  0  0  0  0  0  0  0  0
   19.6443  -32.3059  -13.3758 N   0  0  0  0  0  0  0  0  0  0  0  0
   24.1739  -33.7630  -13.8830 C   0  0  0  0  0  0  0  0  0  0  0  0
   24.0904  -34.9983  -14.0003 O   0  0  0  0  0  0  0  0  0  0  0  0
   27.8937  -34.5017  -15.8777 C   0  0  0  0  0  0  0  0  0  0  0  0
   27.6844  -33.1148  -15.2608 C   0  0  2  0  0  0  0  0  0  0  0  0
   28.8253  -32.2575  -15.8014 C   0  0  0  0  0  0  0  0  0  0  0  0
   27.8239  -33.1711  -13.7570 C   0  0  0  0  0  0  0  0  0  0  0  0
   26.5994  -33.7324  -13.1032 C   0  0  2  0  0  0  0  0  0  0  0  0
   25.3496  -33.1332  -13.4421 N   0  0  0  0  0  0  0  0  0  0  0  0
   26.7022  -34.0071  -11.6550 C   0  0  0  0  0  0  0  0  0  0  0  0
   27.6613  -34.7679  -11.2638 O   0  0  0  0  0  0  0  0  0  0  0  0
   26.1127  -33.9441   -6.4693 N   0  0  0  0  0  0  0  0  0  0  0  0
   26.1758  -32.6461   -7.0397 C   0  0  0  0  0  0  0  0  0  0  0  0
   26.4130  -31.6776   -6.2839 O   0  0  0  0  0  0  0  0  0  0  0  0
   25.9674  -32.4373   -8.4731 C   0  0  0  0  0  0  0  0  0  0  0  0
   25.7417  -33.6721   -9.2870 C   0  0  2  0  0  0  0  0  0  0  0  0
   25.8371  -33.5059  -10.6846 N   0  0  0  0  0  0  0  0  0  0  0  0
   24.6100  -34.3919   -8.7043 C   0  0  0  0  0  0  0  0  0  0  0  0
   23.5415  -34.6320   -9.2605 O   0  0  0  0  0  0  0  0  0  0  0  0
   24.7806  -34.8412   -7.3801 O   0  0  0  0  0  0  0  0  0  0  0  0
  2  3  1  0
  2  1  1  6
  4  8  1  0
  4  3  1  0
  5  4  2  0
  6  5  1  0
  6  7  1  0
  7  8  2  0
  9  2  1  0
 10  9  2  0
 12 11  1  6
 12 14  1  0
 13 12  1  0
 15 14  1  1
 15 16  1  0
 16  9  1  0
 17 15  1  0
 17 18  2  0
 20 22  1  0
 20 19  1  0
 21 20  2  0
 23 22  1  1
 23 24  1  0
 24 17  1  0
 25 23  1  0
 26 25  2  0
 27 25  1  0
M  END
$$$$
