HLN.pdb
     RDKit          3D

 27 27  0  0  1  0  0  0  0  0999 V2000
   14.6531  -11.5306    8.2227 N   0  0  0  0  0  0  0  0  0  0  0  0
   15.7347  -11.7695    9.1370 C   0  0  1  0  0  0  0  0  0  0  0  0
   15.2778  -12.3633   10.4520 C   0  0  0  0  0  0  0  0  0  0  0  0
   14.5443  -11.3916   11.2728 C   0  0  0  0  0  0  0  0  0  0  0  0
   13.1976  -11.3274   11.5814 C   0  0  0  0  0  0  0  0  0  0  0  0
   12.9560  -10.2749   12.3685 N   0  0  0  0  0  0  0  0  0  0  0  0
   14.1440   -9.6513   12.5718 C   0  0  0  0  0  0  0  0  0  0  0  0
   15.1025  -10.3470   11.8951 N   0  0  0  0  0  0  0  0  0  0  0  0
   16.7685  -12.6359    8.4859 C   0  0  0  0  0  0  0  0  0  0  0  0
   16.3325  -13.6011    7.8341 O   0  0  0  0  0  0  0  0  0  0  0  0
   21.7494  -10.9563    6.2563 C   0  0  0  0  0  0  0  0  0  0  0  0
   20.6575  -12.0195    6.4154 C   0  0  2  0  0  0  0  0  0  0  0  0
   19.3592  -11.3266    6.0115 C   0  0  0  0  0  0  0  0  0  0  0  0
   20.5249  -12.4385    7.8614 C   0  0  0  0  0  0  0  0  0  0  0  0
   19.2359  -13.1552    8.1191 C   0  0  2  0  0  0  0  0  0  0  0  0
   18.1437  -12.3741    8.6019 N   0  0  0  0  0  0  0  0  0  0  0  0
   19.3400  -14.4494    8.8246 C   0  0  0  0  0  0  0  0  0  0  0  0
   19.2367  -14.4349   10.1055 O   0  0  0  0  0  0  0  0  0  0  0  0
   19.9067  -19.7025    9.5779 N   0  0  0  0  0  0  0  0  0  0  0  0
   18.9659  -19.3918    8.5618 C   0  0  0  0  0  0  0  0  0  0  0  0
   18.2479  -20.3147    8.1166 O   0  0  0  0  0  0  0  0  0  0  0  0
   18.8347  -18.0303    8.0411 C   0  0  0  0  0  0  0  0  0  0  0  0
   19.7024  -16.9973    8.6877 C   0  0  2  0  0  0  0  0  0  0  0  0
   19.5439  -15.6809    8.2060 N   0  0  0  0  0  0  0  0  0  0  0  0
   21.0385  -17.5701    8.8460 C   0  0  0  0  0  0  0  0  0  0  0  0
   21.3580  -18.4529    9.6381 O   0  0  0  0  0  0  0  0  0  0  0  0
   22.0384  -17.0452    8.0039 O   0  0  0  0  0  0  0  0  0  0  0  0
  2  3  1  0
  2  1  1  6
  4  8  1  0
  4  3  1  0
  5  4  2  0
  6  5  1  0
  6  7  1  0
  7  8  2  0
  9  2  1  0
 10  9  2  0
 12 11  1  1
 12 14  1  0
 13 12  1  0
 15 14  1  1
 15 16  1  0
 16  9  1  0
 17 15  1  0
 17 18  2  0
 20 22  1  0
 20 19  1  0
 21 20  2  0
 23 22  1  6
 23 24  1  0
 24 17  1  0
 25 23  1  0
 26 25  2  0
 27 25  1  0
M  END
$$$$
