KLC.pdb
     RDKit          3D

 24 23  0  0  1  0  0  0  0  0999 V2000
    8.1006  -14.8197   20.5369 N   0  0  0  0  0  0  0  0  0  0  0  0
    7.9082  -15.8116   21.5652 C   0  0  1  0  0  0  0  0  0  0  0  0
    8.4120  -17.1701   21.1476 C   0  0  0  0  0  0  0  0  0  0  0  0
    8.1804  -18.1923   22.2075 C   0  0  0  0  0  0  0  0  0  0  0  0
    8.6324  -19.5670   21.8138 C   0  0  0  0  0  0  0  0  0  0  0  0
    8.3375  -20.5039   22.9976 C   0  0  0  0  0  0  0  0  0  0  0  0
    8.6670  -21.8658   22.6241 N   0  0  0  0  0  0  0  0  0  0  0  0
    8.5934  -15.4028   22.8399 C   0  0  0  0  0  0  0  0  0  0  0  0
    9.8043  -15.0866   22.8507 O   0  0  0  0  0  0  0  0  0  0  0  0
    6.0791  -12.2637   26.7383 C   0  0  0  0  0  0  0  0  0  0  0  0
    7.0616  -12.7849   25.6278 C   0  0  1  0  0  0  0  0  0  0  0  0
    8.1743  -11.7581   25.6686 C   0  0  0  0  0  0  0  0  0  0  0  0
    7.4218  -14.1447   26.0483 C   0  0  0  0  0  0  0  0  0  0  0  0
    8.4618  -14.8889   25.3147 C   0  0  2  0  0  0  0  0  0  0  0  0
    7.8498  -15.3788   24.0372 N   0  0  0  0  0  0  0  0  0  0  0  0
    8.9165  -16.0995   25.9750 C   0  0  0  0  0  0  0  0  0  0  0  0
    8.0471  -16.9553   26.3510 O   0  0  0  0  0  0  0  0  0  0  0  0
   10.2737  -16.4269   26.2309 N   0  0  0  0  0  0  0  0  0  0  0  0
   10.5487  -17.6795   26.9047 C   0  0  1  0  0  0  0  0  0  0  0  0
   11.9852  -18.1333   26.5299 C   0  0  0  0  0  0  0  0  0  0  0  0
   12.1069  -18.0162   24.7396 S   0  0  0  0  0  0  0  0  0  0  0  0
   10.4375  -17.5310   28.3512 C   0  0  0  0  0  0  0  0  0  0  0  0
   10.0921  -16.4212   28.8327 O   0  0  0  0  0  0  0  0  0  0  0  0
   10.6943  -18.5626   29.2127 O   0  0  0  0  0  0  0  0  0  0  0  0
  2  1  1  6
  3  2  1  0
  4  3  1  0
  5  4  1  0
  6  5  1  0
  6  7  1  0
  8  9  2  0
  8  2  1  0
 11 10  1  1
 12 11  1  0
 13 11  1  0
 14 15  1  0
 14 13  1  1
 15  8  1  0
 16 14  1  0
 17 16  2  0
 18 16  1  0
 19 18  1  0
 20 21  1  0
 19 20  1  1
 22 19  1  0
 22 24  1  0
 23 22  2  0
M  END
$$$$
