KLC.pdb
     RDKit          3D

 24 23  0  0  1  0  0  0  0  0999 V2000
    6.4523  -14.9014   20.9604 N   0  0  0  0  0  0  0  0  0  0  0  0
    7.1412  -15.9392   21.6861 C   0  0  1  0  0  0  0  0  0  0  0  0
    8.0281  -16.7675   20.7910 C   0  0  0  0  0  0  0  0  0  0  0  0
    7.2471  -17.7864   20.0336 C   0  0  0  0  0  0  0  0  0  0  0  0
    8.1084  -18.7267   19.2443 C   0  0  0  0  0  0  0  0  0  0  0  0
    7.1702  -19.6565   18.4559 C   0  0  0  0  0  0  0  0  0  0  0  0
    7.9624  -20.5572   17.6410 N   0  0  0  0  0  0  0  0  0  0  0  0
    7.9697  -15.3571   22.7979 C   0  0  0  0  0  0  0  0  0  0  0  0
    9.1515  -14.9945   22.6023 O   0  0  0  0  0  0  0  0  0  0  0  0
    5.7778  -12.1413   26.8092 C   0  0  0  0  0  0  0  0  0  0  0  0
    6.6547  -12.6538   25.6098 C   0  0  1  0  0  0  0  0  0  0  0  0
    7.6195  -11.5056   25.3972 C   0  0  0  0  0  0  0  0  0  0  0  0
    7.2436  -13.9131   26.0819 C   0  0  0  0  0  0  0  0  0  0  0  0
    8.1830  -14.6531   25.2197 C   0  0  2  0  0  0  0  0  0  0  0  0
    7.3956  -15.2220   24.0782 N   0  0  0  0  0  0  0  0  0  0  0  0
    8.7880  -15.8157   25.8449 C   0  0  0  0  0  0  0  0  0  0  0  0
    8.0305  -16.7716   26.2221 O   0  0  0  0  0  0  0  0  0  0  0  0
   10.1793  -15.9909   26.0644 N   0  0  0  0  0  0  0  0  0  0  0  0
   10.6173  -17.2456   26.6410 C   0  0  1  0  0  0  0  0  0  0  0  0
   12.0809  -17.5066   26.1941 C   0  0  0  0  0  0  0  0  0  0  0  0
   13.0330  -16.0664   26.6968 S   0  0  0  0  0  0  0  0  0  0  0  0
   10.5432  -17.2066   28.0969 C   0  0  0  0  0  0  0  0  0  0  0  0
   10.1773  -16.1468   28.6679 O   0  0  0  0  0  0  0  0  0  0  0  0
   10.8568  -18.2890   28.8730 O   0  0  0  0  0  0  0  0  0  0  0  0
  2  1  1  6
  3  2  1  0
  4  3  1  0
  5  4  1  0
  6  5  1  0
  6  7  1  0
  8  9  2  0
  8  2  1  0
 11 10  1  1
 12 11  1  0
 13 11  1  0
 14 15  1  0
 14 13  1  1
 15  8  1  0
 16 14  1  0
 17 16  2  0
 18 16  1  0
 19 18  1  0
 20 21  1  0
 19 20  1  1
 22 19  1  0
 22 24  1  0
 23 22  2  0
M  END
$$$$
