KLC.pdb
     RDKit          3D

 24 23  0  0  1  0  0  0  0  0999 V2000
    6.8304  -16.6473   21.5387 N   0  0  0  0  0  0  0  0  0  0  0  0
    8.1146  -16.0345   21.3074 C   0  0  1  0  0  0  0  0  0  0  0  0
    8.0403  -14.9225   20.2915 C   0  0  0  0  0  0  0  0  0  0  0  0
    8.6267  -15.3322   18.9838 C   0  0  0  0  0  0  0  0  0  0  0  0
    7.9451  -16.5213   18.3753 C   0  0  0  0  0  0  0  0  0  0  0  0
    8.6516  -16.8234   17.0427 C   0  0  0  0  0  0  0  0  0  0  0  0
    7.9712  -17.9174   16.3771 N   0  0  0  0  0  0  0  0  0  0  0  0
    8.6897  -15.4943   22.5875 C   0  0  0  0  0  0  0  0  0  0  0  0
    9.8484  -15.0229   22.6278 O   0  0  0  0  0  0  0  0  0  0  0  0
    5.6746  -12.6219   26.4003 C   0  0  0  0  0  0  0  0  0  0  0  0
    6.8545  -12.9411   25.4123 C   0  0  1  0  0  0  0  0  0  0  0  0
    7.8662  -11.8671   25.7545 C   0  0  0  0  0  0  0  0  0  0  0  0
    7.2470  -14.3211   25.7242 C   0  0  0  0  0  0  0  0  0  0  0  0
    8.4014  -14.9291   25.0377 C   0  0  2  0  0  0  0  0  0  0  0  0
    7.9019  -15.5245   23.7560 N   0  0  0  0  0  0  0  0  0  0  0  0
    8.9979  -16.0518   25.7393 C   0  0  0  0  0  0  0  0  0  0  0  0
    8.3103  -17.1174   25.8856 O   0  0  0  0  0  0  0  0  0  0  0  0
   10.3121  -16.0721   26.2751 N   0  0  0  0  0  0  0  0  0  0  0  0
   10.7611  -17.2937   26.9112 C   0  0  1  0  0  0  0  0  0  0  0  0
   12.2701  -17.4832   26.5995 C   0  0  0  0  0  0  0  0  0  0  0  0
   12.8306  -18.8625   27.6080 S   0  0  0  0  0  0  0  0  0  0  0  0
   10.5562  -17.2383   28.3540 C   0  0  0  0  0  0  0  0  0  0  0  0
   10.5456  -16.1215   28.9332 O   0  0  0  0  0  0  0  0  0  0  0  0
   10.3708  -18.3646   29.1086 O   0  0  0  0  0  0  0  0  0  0  0  0
  2  1  1  1
  3  2  1  0
  4  3  1  0
  5  4  1  0
  6  5  1  0
  6  7  1  0
  8  9  2  0
  8  2  1  0
 11 10  1  1
 12 11  1  0
 13 11  1  0
 14 15  1  0
 14 13  1  1
 15  8  1  0
 16 14  1  0
 17 16  2  0
 18 16  1  0
 19 18  1  0
 20 21  1  0
 19 20  1  1
 22 19  1  0
 22 24  1  0
 23 22  2  0
M  END
$$$$
