KLC.pdb
     RDKit          3D

 24 23  0  0  1  0  0  0  0  0999 V2000
    7.7215  -14.6956   20.2386 N   0  0  0  0  0  0  0  0  0  0  0  0
    7.1137  -15.2371   21.4284 C   0  0  1  0  0  0  0  0  0  0  0  0
    6.9047  -16.7275   21.3334 C   0  0  0  0  0  0  0  0  0  0  0  0
    7.6284  -17.3111   20.1682 C   0  0  0  0  0  0  0  0  0  0  0  0
    7.3343  -18.7663   19.9565 C   0  0  0  0  0  0  0  0  0  0  0  0
    8.1306  -19.2206   18.7213 C   0  0  0  0  0  0  0  0  0  0  0  0
    7.9710  -20.6515   18.5483 N   0  0  0  0  0  0  0  0  0  0  0  0
    7.9471  -14.9332   22.6426 C   0  0  0  0  0  0  0  0  0  0  0  0
    9.1906  -14.8174   22.5612 O   0  0  0  0  0  0  0  0  0  0  0  0
    5.8191  -11.8354   26.7958 C   0  0  0  0  0  0  0  0  0  0  0  0
    6.7517  -12.3077   25.6222 C   0  0  1  0  0  0  0  0  0  0  0  0
    7.8243  -11.2383   25.6073 C   0  0  0  0  0  0  0  0  0  0  0  0
    7.1891  -13.6559   26.0048 C   0  0  0  0  0  0  0  0  0  0  0  0
    8.0868  -14.4164   25.1164 C   0  0  2  0  0  0  0  0  0  0  0  0
    7.3066  -14.7780   23.8887 N   0  0  0  0  0  0  0  0  0  0  0  0
    8.5203  -15.6961   25.6485 C   0  0  0  0  0  0  0  0  0  0  0  0
    7.7547  -16.7081   25.5089 O   0  0  0  0  0  0  0  0  0  0  0  0
    9.7538  -15.9266   26.3115 N   0  0  0  0  0  0  0  0  0  0  0  0
   10.1516  -17.3016   26.5347 C   0  0  1  0  0  0  0  0  0  0  0  0
   11.2766  -17.6569   25.5255 C   0  0  0  0  0  0  0  0  0  0  0  0
   11.8031  -19.3313   25.9163 S   0  0  0  0  0  0  0  0  0  0  0  0
   10.6309  -17.4930   27.8986 C   0  0  0  0  0  0  0  0  0  0  0  0
   11.1163  -16.5157   28.5249 O   0  0  0  0  0  0  0  0  0  0  0  0
   10.5700  -18.7053   28.5303 O   0  0  0  0  0  0  0  0  0  0  0  0
  2  1  1  6
  3  2  1  0
  4  3  1  0
  5  4  1  0
  6  5  1  0
  6  7  1  0
  8  9  2  0
  8  2  1  0
 11 10  1  1
 12 11  1  0
 13 11  1  0
 14 15  1  0
 14 13  1  1
 15  8  1  0
 16 14  1  0
 17 16  2  0
 18 16  1  0
 19 18  1  0
 20 21  1  0
 19 20  1  6
 22 19  1  0
 22 24  1  0
 23 22  2  0
M  END
$$$$
