KLC.pdb
     RDKit          3D

 24 23  0  0  1  0  0  0  0  0999 V2000
    8.2304  -15.2278   20.1263 N   0  0  0  0  0  0  0  0  0  0  0  0
    7.7034  -15.8871   21.2950 C   0  0  1  0  0  0  0  0  0  0  0  0
    7.7543  -17.3892   21.1732 C   0  0  0  0  0  0  0  0  0  0  0  0
    7.0888  -17.8627   19.9263 C   0  0  0  0  0  0  0  0  0  0  0  0
    7.0664  -19.3566   19.7972 C   0  0  0  0  0  0  0  0  0  0  0  0
    6.3594  -19.6924   18.4729 C   0  0  0  0  0  0  0  0  0  0  0  0
    6.1974  -21.1296   18.3676 N   0  0  0  0  0  0  0  0  0  0  0  0
    8.4510  -15.4676   22.5306 C   0  0  0  0  0  0  0  0  0  0  0  0
    9.6876  -15.2765   22.5047 O   0  0  0  0  0  0  0  0  0  0  0  0
    5.8814  -12.5317   26.6782 C   0  0  0  0  0  0  0  0  0  0  0  0
    6.9327  -12.8424   25.5520 C   0  0  1  0  0  0  0  0  0  0  0  0
    7.9422  -11.7276   25.7316 C   0  0  0  0  0  0  0  0  0  0  0  0
    7.4106  -14.1997   25.8439 C   0  0  0  0  0  0  0  0  0  0  0  0
    8.4286  -14.8218   24.9777 C   0  0  2  0  0  0  0  0  0  0  0  0
    7.7370  -15.2895   23.7329 N   0  0  0  0  0  0  0  0  0  0  0  0
    9.0289  -16.0268   25.5217 C   0  0  0  0  0  0  0  0  0  0  0  0
    8.3170  -17.0836   25.6005 O   0  0  0  0  0  0  0  0  0  0  0  0
   10.3712  -16.1373   25.9694 N   0  0  0  0  0  0  0  0  0  0  0  0
   10.8420  -17.4477   26.3691 C   0  0  1  0  0  0  0  0  0  0  0  0
   12.3408  -17.5694   25.9830 C   0  0  0  0  0  0  0  0  0  0  0  0
   12.8973  -19.1667   26.5935 S   0  0  0  0  0  0  0  0  0  0  0  0
   10.6826  -17.6456   27.8051 C   0  0  0  0  0  0  0  0  0  0  0  0
   10.8043  -18.8019   28.2858 O   0  0  0  0  0  0  0  0  0  0  0  0
   10.4058  -16.6121   28.6580 O   0  0  0  0  0  0  0  0  0  0  0  0
  2  1  1  6
  3  2  1  0
  4  3  1  0
  5  4  1  0
  6  5  1  0
  6  7  1  0
  8  9  2  0
  8  2  1  0
 11 10  1  1
 12 11  1  0
 13 11  1  0
 14 15  1  0
 14 13  1  1
 15  8  1  0
 16 14  1  0
 17 16  2  0
 18 16  1  0
 19 18  1  0
 20 21  1  0
 19 20  1  1
 22 19  1  0
 22 24  1  0
 23 22  2  0
M  END
$$$$
