KLC.pdb
     RDKit          3D

 24 23  0  0  1  0  0  0  0  0999 V2000
    6.5804  -17.4392   24.4078 N   0  0  0  0  0  0  0  0  0  0  0  0
    7.6995  -17.2545   23.5179 C   0  0  1  0  0  0  0  0  0  0  0  0
    7.2625  -17.0268   22.0928 C   0  0  0  0  0  0  0  0  0  0  0  0
    6.7301  -18.2744   21.4748 C   0  0  0  0  0  0  0  0  0  0  0  0
    6.3481  -18.1058   20.0344 C   0  0  0  0  0  0  0  0  0  0  0  0
    5.6807  -19.4152   19.5802 C   0  0  0  0  0  0  0  0  0  0  0  0
    5.2859  -19.2943   18.1901 N   0  0  0  0  0  0  0  0  0  0  0  0
    8.5530  -16.0988   23.9619 C   0  0  0  0  0  0  0  0  0  0  0  0
    9.5968  -15.7906   23.3438 O   0  0  0  0  0  0  0  0  0  0  0  0
    5.8713  -12.1527   26.5211 C   0  0  0  0  0  0  0  0  0  0  0  0
    6.7408  -12.9127   25.4551 C   0  0  1  0  0  0  0  0  0  0  0  0
    6.8088  -11.9145   24.3179 C   0  0  0  0  0  0  0  0  0  0  0  0
    8.0084  -13.2024   26.1369 C   0  0  0  0  0  0  0  0  0  0  0  0
    8.9542  -14.1685   25.5490 C   0  0  2  0  0  0  0  0  0  0  0  0
    8.1616  -15.3568   25.0947 N   0  0  0  0  0  0  0  0  0  0  0  0
    9.9130  -14.7222   26.4885 C   0  0  0  0  0  0  0  0  0  0  0  0
   10.8191  -13.9570   26.9610 O   0  0  0  0  0  0  0  0  0  0  0  0
    9.9210  -16.0653   26.9474 N   0  0  0  0  0  0  0  0  0  0  0  0
   10.9756  -16.4590   27.8592 C   0  0  1  0  0  0  0  0  0  0  0  0
   10.5742  -16.0190   29.2929 C   0  0  0  0  0  0  0  0  0  0  0  0
   11.8310  -16.6752   30.3991 S   0  0  0  0  0  0  0  0  0  0  0  0
   11.1861  -17.9017   27.8244 C   0  0  0  0  0  0  0  0  0  0  0  0
   12.0908  -18.4105   28.5355 O   0  0  0  0  0  0  0  0  0  0  0  0
   10.4289  -18.7311   27.0428 O   0  0  0  0  0  0  0  0  0  0  0  0
  2  1  1  1
  3  2  1  0
  4  3  1  0
  5  4  1  0
  6  5  1  0
  6  7  1  0
  8  9  2  0
  8  2  1  0
 11 10  1  1
 12 11  1  0
 13 11  1  0
 14 15  1  0
 14 13  1  1
 15  8  1  0
 16 14  1  0
 17 16  2  0
 18 16  1  0
 19 18  1  0
 20 21  1  0
 19 20  1  1
 22 19  1  0
 22 24  1  0
 23 22  2  0
M  END
$$$$
