KLC.pdb
     RDKit          3D

 24 23  0  0  1  0  0  0  0  0999 V2000
    8.4135  -19.2425   19.2468 N   0  0  0  0  0  0  0  0  0  0  0  0
    7.7604  -18.7700   20.4420 C   0  0  1  0  0  0  0  0  0  0  0  0
    7.6832  -19.8342   21.5075 C   0  0  0  0  0  0  0  0  0  0  0  0
    6.2814  -20.0555   21.9632 C   0  0  0  0  0  0  0  0  0  0  0  0
    6.1648  -21.0950   23.0378 C   0  0  0  0  0  0  0  0  0  0  0  0
    4.6878  -21.1509   23.4641 C   0  0  0  0  0  0  0  0  0  0  0  0
    4.4971  -22.2531   24.3870 N   0  0  0  0  0  0  0  0  0  0  0  0
    8.4675  -17.5655   20.9993 C   0  0  0  0  0  0  0  0  0  0  0  0
    9.7164  -17.5229   21.0680 O   0  0  0  0  0  0  0  0  0  0  0  0
    6.6528  -12.4132   20.0857 C   0  0  0  0  0  0  0  0  0  0  0  0
    7.6431  -13.6306   20.1717 C   0  0  1  0  0  0  0  0  0  0  0  0
    8.9566  -13.0140   19.7374 C   0  0  0  0  0  0  0  0  0  0  0  0
    7.5709  -14.0798   21.5677 C   0  0  0  0  0  0  0  0  0  0  0  0
    8.3600  -15.2456   22.0056 C   0  0  2  0  0  0  0  0  0  0  0  0
    7.7009  -16.4714   21.4492 N   0  0  0  0  0  0  0  0  0  0  0  0
    8.3632  -15.4674   23.4406 C   0  0  0  0  0  0  0  0  0  0  0  0
    7.2867  -15.2593   24.0946 O   0  0  0  0  0  0  0  0  0  0  0  0
    9.4792  -15.9189   24.1924 N   0  0  0  0  0  0  0  0  0  0  0  0
    9.2318  -16.4240   25.5274 C   0  0  1  0  0  0  0  0  0  0  0  0
    8.2436  -17.6170   25.4254 C   0  0  0  0  0  0  0  0  0  0  0  0
    8.0732  -18.2825   27.0872 S   0  0  0  0  0  0  0  0  0  0  0  0
   10.4714  -16.8602   26.1599 C   0  0  0  0  0  0  0  0  0  0  0  0
   11.5206  -16.9413   25.4704 O   0  0  0  0  0  0  0  0  0  0  0  0
   10.5384  -17.1850   27.4874 O   0  0  0  0  0  0  0  0  0  0  0  0
  2  1  1  6
  3  2  1  0
  4  3  1  0
  5  4  1  0
  6  5  1  0
  6  7  1  0
  8  9  2  0
  8  2  1  0
 11 10  1  1
 12 11  1  0
 13 11  1  0
 14 15  1  0
 14 13  1  1
 15  8  1  0
 16 14  1  0
 17 16  2  0
 18 16  1  0
 19 18  1  0
 20 21  1  0
 19 20  1  6
 22 19  1  0
 22 24  1  0
 23 22  2  0
M  END
$$$$
