KLC.pdb
     RDKit          3D

 24 23  0  0  1  0  0  0  0  0999 V2000
    8.2492  -15.3547   20.7889 N   0  0  0  0  0  0  0  0  0  0  0  0
    7.5202  -15.7340   21.9734 C   0  0  1  0  0  0  0  0  0  0  0  0
    7.2806  -17.2212   22.0429 C   0  0  0  0  0  0  0  0  0  0  0  0
    7.4633  -17.8704   20.7137 C   0  0  0  0  0  0  0  0  0  0  0  0
    7.1419  -19.3352   20.7205 C   0  0  0  0  0  0  0  0  0  0  0  0
    7.3265  -19.8524   19.2836 C   0  0  0  0  0  0  0  0  0  0  0  0
    7.0168  -21.2685   19.2409 N   0  0  0  0  0  0  0  0  0  0  0  0
    8.2463  -15.2936   23.2144 C   0  0  0  0  0  0  0  0  0  0  0  0
    9.4942  -15.3531   23.2890 O   0  0  0  0  0  0  0  0  0  0  0  0
    5.5380  -11.6577   26.4491 C   0  0  0  0  0  0  0  0  0  0  0  0
    6.5376  -12.3166   25.4309 C   0  0  1  0  0  0  0  0  0  0  0  0
    7.3847  -11.1385   24.9965 C   0  0  0  0  0  0  0  0  0  0  0  0
    7.2280  -13.3601   26.1991 C   0  0  0  0  0  0  0  0  0  0  0  0
    8.1807  -14.2600   25.5238 C   0  0  2  0  0  0  0  0  0  0  0  0
    7.4991  -14.8072   24.3061 N   0  0  0  0  0  0  0  0  0  0  0  0
    8.5399  -15.4415   26.2878 C   0  0  0  0  0  0  0  0  0  0  0  0
    9.0707  -15.2882   27.4387 O   0  0  0  0  0  0  0  0  0  0  0  0
    8.3343  -16.7799   25.8626 N   0  0  0  0  0  0  0  0  0  0  0  0
    8.8582  -17.8402   26.6992 C   0  0  1  0  0  0  0  0  0  0  0  0
    7.8799  -19.0439   26.6361 C   0  0  0  0  0  0  0  0  0  0  0  0
    7.9435  -19.6658   24.9500 S   0  0  0  0  0  0  0  0  0  0  0  0
   10.1828  -18.2542   26.2512 C   0  0  0  0  0  0  0  0  0  0  0  0
   10.8352  -19.0828   26.9374 O   0  0  0  0  0  0  0  0  0  0  0  0
   10.7477  -17.7738   25.1012 O   0  0  0  0  0  0  0  0  0  0  0  0
  2  1  1  6
  3  2  1  0
  4  3  1  0
  5  4  1  0
  6  5  1  0
  6  7  1  0
  8  9  2  0
  8  2  1  0
 11 10  1  1
 12 11  1  0
 13 11  1  0
 14 15  1  0
 14 13  1  1
 15  8  1  0
 16 14  1  0
 17 16  2  0
 18 16  1  0
 19 18  1  0
 20 21  1  0
 19 20  1  6
 22 19  1  0
 22 24  1  0
 23 22  2  0
M  END
$$$$
