KLC.pdb
     RDKit          3D

 24 23  0  0  1  0  0  0  0  0999 V2000
    6.8338  -15.8898   21.8881 N   0  0  0  0  0  0  0  0  0  0  0  0
    8.0517  -15.1461   21.6830 C   0  0  1  0  0  0  0  0  0  0  0  0
    7.8286  -13.9043   20.8573 C   0  0  0  0  0  0  0  0  0  0  0  0
    7.0565  -14.1998   19.6170 C   0  0  0  0  0  0  0  0  0  0  0  0
    7.3478  -13.2467   18.4964 C   0  0  0  0  0  0  0  0  0  0  0  0
    8.0590  -14.0434   17.3893 C   0  0  0  0  0  0  0  0  0  0  0  0
    8.2559  -13.1881   16.2349 N   0  0  0  0  0  0  0  0  0  0  0  0
    8.6717  -14.7589   22.9971 C   0  0  0  0  0  0  0  0  0  0  0  0
    9.8259  -14.2778   23.0510 O   0  0  0  0  0  0  0  0  0  0  0  0
    5.6712  -12.2529   26.6641 C   0  0  0  0  0  0  0  0  0  0  0  0
    6.8022  -12.6598   25.6515 C   0  0  1  0  0  0  0  0  0  0  0  0
    7.6462  -11.4039   25.5833 C   0  0  0  0  0  0  0  0  0  0  0  0
    7.4428  -13.8366   26.2518 C   0  0  0  0  0  0  0  0  0  0  0  0
    8.4980  -14.5547   25.5139 C   0  0  2  0  0  0  0  0  0  0  0  0
    7.9316  -14.9453   24.1823 N   0  0  0  0  0  0  0  0  0  0  0  0
    8.8995  -15.8163   26.1102 C   0  0  0  0  0  0  0  0  0  0  0  0
    9.1342  -15.8533   27.3645 O   0  0  0  0  0  0  0  0  0  0  0  0
    9.0426  -17.0406   25.4067 N   0  0  0  0  0  0  0  0  0  0  0  0
    9.4085  -18.2167   26.1693 C   0  0  1  0  0  0  0  0  0  0  0  0
    8.4489  -19.3729   25.7790 C   0  0  0  0  0  0  0  0  0  0  0  0
    6.8342  -18.9426   26.4432 S   0  0  0  0  0  0  0  0  0  0  0  0
   10.7881  -18.6059   25.9011 C   0  0  0  0  0  0  0  0  0  0  0  0
   11.4667  -17.9431   25.0745 O   0  0  0  0  0  0  0  0  0  0  0  0
   11.3794  -19.6725   26.5216 O   0  0  0  0  0  0  0  0  0  0  0  0
  2  1  1  1
  3  2  1  0
  4  3  1  0
  5  4  1  0
  6  5  1  0
  6  7  1  0
  8  9  2  0
  8  2  1  0
 11 10  1  1
 12 11  1  0
 13 11  1  0
 14 15  1  0
 14 13  1  1
 15  8  1  0
 16 14  1  0
 17 16  2  0
 18 16  1  0
 19 18  1  0
 20 21  1  0
 19 20  1  6
 22 19  1  0
 22 24  1  0
 23 22  2  0
M  END
$$$$
