KLC.pdb
     RDKit          3D

 24 23  0  0  1  0  0  0  0  0999 V2000
    7.1085  -16.8860   22.0206 N   0  0  0  0  0  0  0  0  0  0  0  0
    8.5425  -16.7394   21.9990 C   0  0  1  0  0  0  0  0  0  0  0  0
    9.0286  -16.0800   20.7330 C   0  0  0  0  0  0  0  0  0  0  0  0
    8.8452  -16.9640   19.5470 C   0  0  0  0  0  0  0  0  0  0  0  0
   10.1138  -17.2016   18.7833 C   0  0  0  0  0  0  0  0  0  0  0  0
    9.7536  -18.0387   17.5440 C   0  0  0  0  0  0  0  0  0  0  0  0
   10.9122  -18.1339   16.6772 N   0  0  0  0  0  0  0  0  0  0  0  0
    9.0185  -15.9437   23.1829 C   0  0  0  0  0  0  0  0  0  0  0  0
   10.2087  -15.5671   23.2728 O   0  0  0  0  0  0  0  0  0  0  0  0
    5.5637  -12.5468   26.2724 C   0  0  0  0  0  0  0  0  0  0  0  0
    6.7093  -13.0103   25.3014 C   0  0  1  0  0  0  0  0  0  0  0  0
    7.5872  -11.7786   25.2212 C   0  0  0  0  0  0  0  0  0  0  0  0
    7.3034  -14.1858   25.9501 C   0  0  0  0  0  0  0  0  0  0  0  0
    8.5182  -14.8008   25.3850 C   0  0  2  0  0  0  0  0  0  0  0  0
    8.1003  -15.6219   24.2028 N   0  0  0  0  0  0  0  0  0  0  0  0
    9.1758  -15.7536   26.2615 C   0  0  0  0  0  0  0  0  0  0  0  0
    8.5921  -16.8616   26.5092 O   0  0  0  0  0  0  0  0  0  0  0  0
   10.4447  -15.5612   26.8678 N   0  0  0  0  0  0  0  0  0  0  0  0
   11.0362  -16.6861   27.5630 C   0  0  1  0  0  0  0  0  0  0  0  0
   12.5588  -16.7044   27.2603 C   0  0  0  0  0  0  0  0  0  0  0  0
   12.9784  -15.0648   26.6527 S   0  0  0  0  0  0  0  0  0  0  0  0
   10.8181  -16.5858   29.0014 C   0  0  0  0  0  0  0  0  0  0  0  0
   10.2025  -15.5909   29.4642 O   0  0  0  0  0  0  0  0  0  0  0  0
   11.2590  -17.5423   29.8749 O   0  0  0  0  0  0  0  0  0  0  0  0
  2  1  1  6
  3  2  1  0
  4  3  1  0
  5  4  1  0
  6  5  1  0
  6  7  1  0
  8  9  2  0
  8  2  1  0
 11 10  1  1
 12 11  1  0
 13 11  1  0
 14 15  1  0
 14 13  1  1
 15  8  1  0
 16 14  1  0
 17 16  2  0
 18 16  1  0
 19 18  1  0
 20 21  1  0
 19 20  1  1
 22 19  1  0
 22 24  1  0
 23 22  2  0
M  END
$$$$
