IAT.pdb
     RDKit          3D

 21 20  0  0  1  0  0  0  0  0999 V2000
   15.5926  -12.2146  -17.1141 C   0  0  0  0  0  0  0  0  0  0  0  0
   16.9257  -12.0681  -16.4446 C   0  0  0  0  0  0  0  0  0  0  0  0
   17.2227  -10.6281  -16.0880 C   0  0  2  0  0  0  0  0  0  0  0  0
   17.1533   -9.7200  -17.2802 C   0  0  0  0  0  0  0  0  0  0  0  0
   18.4851  -10.4660  -15.3151 C   0  0  2  0  0  0  0  0  0  0  0  0
   18.3769  -11.3436  -14.1391 N   0  0  0  0  0  0  0  0  0  0  0  0
   18.7502   -9.1083  -14.8407 C   0  0  0  0  0  0  0  0  0  0  0  0
   17.8375   -8.4593  -14.2759 O   0  0  0  0  0  0  0  0  0  0  0  0
   21.6391   -6.8355  -14.3016 C   0  0  0  0  0  0  0  0  0  0  0  0
   20.1680   -7.1268  -14.5534 C   0  0  2  0  0  0  0  0  0  0  0  0
   20.0125   -8.4789  -14.9913 N   0  0  0  0  0  0  0  0  0  0  0  0
   19.5879   -6.1371  -15.4851 C   0  0  0  0  0  0  0  0  0  0  0  0
   19.6973   -6.1705  -16.7357 O   0  0  0  0  0  0  0  0  0  0  0  0
   15.8751   -4.7232  -15.3667 C   0  0  0  0  0  0  0  0  0  0  0  0
   16.8891   -3.6500  -15.1212 C   0  0  1  0  0  0  0  0  0  0  0  0
   17.0322   -3.3369  -13.7700 O   0  0  0  0  0  0  0  0  0  0  0  0
   18.2506   -4.0174  -15.7246 C   0  0  2  0  0  0  0  0  0  0  0  0
   18.8480   -5.0631  -14.9202 N   0  0  0  0  0  0  0  0  0  0  0  0
   19.0865   -2.7947  -15.7137 C   0  0  0  0  0  0  0  0  0  0  0  0
   18.8086   -1.7903  -16.6092 O   0  0  0  0  0  0  0  0  0  0  0  0
   20.0152   -2.6992  -14.9034 O   0  0  0  0  0  0  0  0  0  0  0  0
  2  1  1  0
  3  2  1  0
  3  4  1  6
  5  3  1  0
  5  7  1  0
  5  6  1  1
  7  8  2  0
 10  9  1  6
 11 10  1  0
 11  7  1  0
 12 10  1  0
 12 18  1  0
 13 12  2  0
 15 14  1  1
 15 16  1  0
 17 18  1  1
 17 15  1  0
 19 17  1  0
 20 19  1  0
 21 19  2  0
M  END
$$$$
