IAT.pdb
     RDKit          3D

 21 20  0  0  1  0  0  0  0  0999 V2000
   23.9743  -15.6713  -15.9990 C   0  0  0  0  0  0  0  0  0  0  0  0
   22.8544  -14.7636  -15.5882 C   0  0  0  0  0  0  0  0  0  0  0  0
   23.1697  -13.3123  -15.8769 C   0  0  2  0  0  0  0  0  0  0  0  0
   24.4416  -12.8640  -15.2198 C   0  0  0  0  0  0  0  0  0  0  0  0
   22.0266  -12.3995  -15.5987 C   0  0  2  0  0  0  0  0  0  0  0  0
   20.8778  -12.9159  -16.3592 N   0  0  0  0  0  0  0  0  0  0  0  0
   22.2371  -11.0067  -15.9915 C   0  0  0  0  0  0  0  0  0  0  0  0
   23.1206  -10.3269  -15.4166 O   0  0  0  0  0  0  0  0  0  0  0  0
   20.9592   -8.5517  -18.5014 C   0  0  0  0  0  0  0  0  0  0  0  0
   21.5825   -8.9602  -17.1758 C   0  0  2  0  0  0  0  0  0  0  0  0
   21.4765  -10.3762  -17.0096 N   0  0  0  0  0  0  0  0  0  0  0  0
   20.9940   -8.1918  -16.0591 C   0  0  0  0  0  0  0  0  0  0  0  0
   20.0551   -8.5874  -15.3247 O   0  0  0  0  0  0  0  0  0  0  0  0
   21.7033   -4.1886  -13.2044 C   0  0  0  0  0  0  0  0  0  0  0  0
   22.1369   -5.0627  -14.3394 C   0  0  1  0  0  0  0  0  0  0  0  0
   23.3181   -5.7538  -14.0721 O   0  0  0  0  0  0  0  0  0  0  0  0
   21.0307   -6.0454  -14.7435 C   0  0  2  0  0  0  0  0  0  0  0  0
   21.5337   -6.9036  -15.7962 N   0  0  0  0  0  0  0  0  0  0  0  0
   19.8761   -5.2462  -15.2148 C   0  0  0  0  0  0  0  0  0  0  0  0
   19.8029   -4.9015  -16.5429 O   0  0  0  0  0  0  0  0  0  0  0  0
   19.0026   -4.9047  -14.4095 O   0  0  0  0  0  0  0  0  0  0  0  0
  2  1  1  0
  3  2  1  0
  3  4  1  1
  5  3  1  0
  5  7  1  0
  5  6  1  6
  7  8  2  0
 10  9  1  6
 11 10  1  0
 11  7  1  0
 12 10  1  0
 12 18  1  0
 13 12  2  0
 15 14  1  1
 15 16  1  0
 17 18  1  6
 17 15  1  0
 19 17  1  0
 20 19  1  0
 21 19  2  0
M  END
$$$$
