IAT.pdb
     RDKit          3D

 21 20  0  0  1  0  0  0  0  0999 V2000
   11.3009  -13.9163  -15.7639 C   0  0  0  0  0  0  0  0  0  0  0  0
   12.5027  -13.6237  -14.9173 C   0  0  0  0  0  0  0  0  0  0  0  0
   13.3901  -12.5697  -15.5424 C   0  0  2  0  0  0  0  0  0  0  0  0
   13.7695  -12.9085  -16.9538 C   0  0  0  0  0  0  0  0  0  0  0  0
   14.5667  -12.2213  -14.6990 C   0  0  2  0  0  0  0  0  0  0  0  0
   14.0404  -11.5936  -13.4768 N   0  0  0  0  0  0  0  0  0  0  0  0
   15.5132  -11.2900  -15.3117 C   0  0  0  0  0  0  0  0  0  0  0  0
   16.2122  -11.6655  -16.2831 O   0  0  0  0  0  0  0  0  0  0  0  0
   15.9090   -7.8817  -16.0590 C   0  0  0  0  0  0  0  0  0  0  0  0
   16.6216   -9.1109  -15.5168 C   0  0  2  0  0  0  0  0  0  0  0  0
   15.6819   -9.9586  -14.8519 N   0  0  0  0  0  0  0  0  0  0  0  0
   17.7668   -8.7228  -14.6672 C   0  0  0  0  0  0  0  0  0  0  0  0
   17.7148   -8.5306  -13.4272 O   0  0  0  0  0  0  0  0  0  0  0  0
   21.6155   -9.2360  -16.3460 C   0  0  0  0  0  0  0  0  0  0  0  0
   21.3414   -9.1299  -14.8783 C   0  0  1  0  0  0  0  0  0  0  0  0
   22.4749   -8.7994  -14.1366 O   0  0  0  0  0  0  0  0  0  0  0  0
   20.2129   -8.1317  -14.5902 C   0  0  2  0  0  0  0  0  0  0  0  0
   19.0258   -8.5540  -15.3045 N   0  0  0  0  0  0  0  0  0  0  0  0
   20.6674   -6.8005  -15.0541 C   0  0  0  0  0  0  0  0  0  0  0  0
   21.5913   -6.1138  -14.3038 O   0  0  0  0  0  0  0  0  0  0  0  0
   20.2102   -6.3324  -16.1029 O   0  0  0  0  0  0  0  0  0  0  0  0
  2  1  1  0
  3  2  1  0
  3  4  1  6
  5  3  1  0
  5  7  1  0
  5  6  1  1
  7  8  2  0
 10  9  1  1
 11 10  1  0
 11  7  1  0
 12 10  1  0
 12 18  1  0
 13 12  2  0
 15 14  1  6
 15 16  1  0
 17 18  1  6
 17 15  1  0
 19 17  1  0
 20 19  1  0
 21 19  2  0
M  END
$$$$
