IAT.pdb
     RDKit          3D

 21 20  0  0  1  0  0  0  0  0999 V2000
   17.6613  -14.2992  -18.3262 C   0  0  0  0  0  0  0  0  0  0  0  0
   18.3515  -13.7271  -17.1249 C   0  0  0  0  0  0  0  0  0  0  0  0
   18.5567  -12.2334  -17.2502 C   0  0  2  0  0  0  0  0  0  0  0  0
   19.3025  -11.8635  -18.4983 C   0  0  0  0  0  0  0  0  0  0  0  0
   19.1436  -11.6195  -16.0271 C   0  0  2  0  0  0  0  0  0  0  0  0
   18.3138  -12.0577  -14.8938 N   0  0  0  0  0  0  0  0  0  0  0  0
   19.1756  -10.1575  -16.0229 C   0  0  0  0  0  0  0  0  0  0  0  0
   19.8970   -9.5505  -16.8502 O   0  0  0  0  0  0  0  0  0  0  0  0
   17.2457   -7.3287  -14.6136 C   0  0  0  0  0  0  0  0  0  0  0  0
   18.5154   -7.9539  -15.1701 C   0  0  2  0  0  0  0  0  0  0  0  0
   18.4166   -9.3789  -15.1118 N   0  0  0  0  0  0  0  0  0  0  0  0
   19.7096   -7.4191  -14.4831 C   0  0  0  0  0  0  0  0  0  0  0  0
   20.2678   -7.9449  -13.4885 O   0  0  0  0  0  0  0  0  0  0  0  0
   23.7437   -4.7857  -15.0577 C   0  0  0  0  0  0  0  0  0  0  0  0
   22.5120   -5.4820  -15.5461 C   0  0  1  0  0  0  0  0  0  0  0  0
   22.7797   -6.7313  -16.1046 O   0  0  0  0  0  0  0  0  0  0  0  0
   21.4654   -5.6154  -14.4327 C   0  0  2  0  0  0  0  0  0  0  0  0
   20.2699   -6.2147  -14.9886 N   0  0  0  0  0  0  0  0  0  0  0  0
   21.1882   -4.2546  -13.9176 C   0  0  0  0  0  0  0  0  0  0  0  0
   21.8845   -3.8025  -12.8228 O   0  0  0  0  0  0  0  0  0  0  0  0
   20.3394   -3.5524  -14.4787 O   0  0  0  0  0  0  0  0  0  0  0  0
  2  1  1  0
  3  2  1  0
  3  4  1  6
  5  3  1  0
  5  7  1  0
  5  6  1  1
  7  8  2  0
 10  9  1  1
 11 10  1  0
 11  7  1  0
 12 10  1  0
 12 18  1  0
 13 12  2  0
 15 14  1  1
 15 16  1  0
 17 18  1  6
 17 15  1  0
 19 17  1  0
 20 19  1  0
 21 19  2  0
M  END
$$$$
