INS.pdb
     RDKit          3D

 23 22  0  0  1  0  0  0  0  0999 V2000
    8.4862  -12.6185   22.3713 C   0  0  0  0  0  0  0  0  0  0  0  0
    7.6912  -12.7411   21.0835 C   0  0  0  0  0  0  0  0  0  0  0  0
    8.6280  -13.1778   20.0061 C   0  0  2  0  0  0  0  0  0  0  0  0
    8.2777  -12.5102   18.7025 C   0  0  0  0  0  0  0  0  0  0  0  0
    8.6486  -14.6729   19.7918 C   0  0  2  0  0  0  0  0  0  0  0  0
    8.8248  -15.3837   21.0375 N   0  0  0  0  0  0  0  0  0  0  0  0
    9.6952  -15.0867   18.8355 C   0  0  0  0  0  0  0  0  0  0  0  0
    9.6187  -14.6767   17.6563 O   0  0  0  0  0  0  0  0  0  0  0  0
   14.9939  -14.5248   18.4364 N   0  0  0  0  0  0  0  0  0  0  0  0
   13.6104  -14.3697   18.6801 C   0  0  0  0  0  0  0  0  0  0  0  0
   13.2503  -13.6855   19.6699 O   0  0  0  0  0  0  0  0  0  0  0  0
   12.5719  -14.9681   17.8352 C   0  0  0  0  0  0  0  0  0  0  0  0
   11.9283  -16.1851   18.4307 C   0  0  2  0  0  0  0  0  0  0  0  0
   10.7713  -15.9298   19.2243 N   0  0  0  0  0  0  0  0  0  0  0  0
   12.9283  -17.0482   19.1468 C   0  0  0  0  0  0  0  0  0  0  0  0
   14.1721  -16.8847   19.0377 O   0  0  0  0  0  0  0  0  0  0  0  0
   13.1189  -16.7509   23.2754 O   0  0  0  0  0  0  0  0  0  0  0  0
   12.9359  -16.7338   21.9019 C   0  0  0  0  0  0  0  0  0  0  0  0
   12.7397  -18.1678   21.4090 C   0  0  2  0  0  0  0  0  0  0  0  0
   12.5174  -18.1104   19.9978 N   0  0  0  0  0  0  0  0  0  0  0  0
   11.4968  -18.7080   22.0457 C   0  0  0  0  0  0  0  0  0  0  0  0
   11.4956  -19.1603   23.2064 O   0  0  0  0  0  0  0  0  0  0  0  0
   10.2907  -18.7165   21.3399 O   0  0  0  0  0  0  0  0  0  0  0  0
  2  1  1  0
  3  2  1  0
  3  4  1  6
  5  3  1  0
  5  6  1  1
  7  5  1  0
  7  8  2  0
  9 10  1  0
 10 12  1  0
 11 10  2  0
 13 12  1  1
 14 13  1  0
 14  7  1  0
 15 16  2  0
 15 13  1  0
 17 18  1  0
 19 18  1  1
 19 20  1  0
 19 21  1  0
 20 15  1  0
 21 23  1  0
 22 21  2  0
M  END
$$$$
