INS.pdb
     RDKit          3D

 23 22  0  0  1  0  0  0  0  0999 V2000
    7.6388  -11.6153   19.6156 C   0  0  0  0  0  0  0  0  0  0  0  0
    7.7743  -12.8960   18.8111 C   0  0  0  0  0  0  0  0  0  0  0  0
    8.7123  -13.7991   19.5415 C   0  0  2  0  0  0  0  0  0  0  0  0
   10.0565  -13.1400   19.7045 C   0  0  0  0  0  0  0  0  0  0  0  0
    8.9099  -15.1374   18.8693 C   0  0  2  0  0  0  0  0  0  0  0  0
    7.6524  -15.8210   18.6715 N   0  0  0  0  0  0  0  0  0  0  0  0
    9.8329  -16.0106   19.6220 C   0  0  0  0  0  0  0  0  0  0  0  0
    9.3605  -16.7399   20.5218 O   0  0  0  0  0  0  0  0  0  0  0  0
   14.3867  -19.5810   19.6156 N   0  0  0  0  0  0  0  0  0  0  0  0
   14.2678  -18.1995   19.8886 C   0  0  0  0  0  0  0  0  0  0  0  0
   14.9992  -17.7006   20.7796 O   0  0  0  0  0  0  0  0  0  0  0  0
   13.3323  -17.3169   19.1840 C   0  0  0  0  0  0  0  0  0  0  0  0
   12.1699  -16.8694   20.0197 C   0  0  2  0  0  0  0  0  0  0  0  0
   11.2272  -16.0369   19.3476 N   0  0  0  0  0  0  0  0  0  0  0  0
   12.6197  -16.2777   21.3255 C   0  0  0  0  0  0  0  0  0  0  0  0
   12.8045  -15.0426   21.4868 O   0  0  0  0  0  0  0  0  0  0  0  0
   10.5246  -16.4317   25.1168 O   0  0  0  0  0  0  0  0  0  0  0  0
   10.9482  -16.6395   23.8139 C   0  0  0  0  0  0  0  0  0  0  0  0
   12.4710  -16.7765   23.8025 C   0  0  2  0  0  0  0  0  0  0  0  0
   12.8640  -17.0925   22.4647 N   0  0  0  0  0  0  0  0  0  0  0  0
   12.8356  -17.9393   24.6726 C   0  0  0  0  0  0  0  0  0  0  0  0
   12.7808  -19.1130   24.2591 O   0  0  0  0  0  0  0  0  0  0  0  0
   13.2524  -17.7294   25.9899 O   0  0  0  0  0  0  0  0  0  0  0  0
  2  1  1  0
  3  2  1  0
  3  4  1  6
  5  3  1  0
  5  6  1  1
  7  5  1  0
  7  8  2  0
  9 10  1  0
 10 12  1  0
 11 10  2  0
 13 12  1  6
 14 13  1  0
 14  7  1  0
 15 16  2  0
 15 13  1  0
 17 18  1  0
 19 18  1  6
 19 20  1  0
 19 21  1  0
 20 15  1  0
 21 23  1  0
 22 21  2  0
M  END
$$$$
