INS.pdb
     RDKit          3D

 23 22  0  0  1  0  0  0  0  0999 V2000
    7.0126  -12.2692   19.1979 C   0  0  0  0  0  0  0  0  0  0  0  0
    8.2906  -13.0865   19.1327 C   0  0  0  0  0  0  0  0  0  0  0  0
    8.3108  -14.0008   20.3128 C   0  0  2  0  0  0  0  0  0  0  0  0
    8.3123  -13.2072   21.5927 C   0  0  0  0  0  0  0  0  0  0  0  0
    9.4917  -14.9426   20.3282 C   0  0  2  0  0  0  0  0  0  0  0  0
    9.5619  -15.7231   19.1142 N   0  0  0  0  0  0  0  0  0  0  0  0
    9.4707  -15.8471   21.4955 C   0  0  0  0  0  0  0  0  0  0  0  0
    9.4898  -15.3417   22.6396 O   0  0  0  0  0  0  0  0  0  0  0  0
    9.0076  -20.6371   20.0613 N   0  0  0  0  0  0  0  0  0  0  0  0
    8.2987  -19.7137   20.8628 C   0  0  0  0  0  0  0  0  0  0  0  0
    7.3170  -19.1141   20.3586 O   0  0  0  0  0  0  0  0  0  0  0  0
    8.6516  -19.4190   22.2553 C   0  0  0  0  0  0  0  0  0  0  0  0
    9.4974  -18.1915   22.4228 C   0  0  2  0  0  0  0  0  0  0  0  0
    9.4305  -17.2598   21.3453 N   0  0  0  0  0  0  0  0  0  0  0  0
   10.9135  -18.5381   22.7861 C   0  0  0  0  0  0  0  0  0  0  0  0
   11.2027  -19.3634   23.6921 O   0  0  0  0  0  0  0  0  0  0  0  0
   13.8397  -17.0969   20.3579 O   0  0  0  0  0  0  0  0  0  0  0  0
   14.1513  -18.2338   21.0863 C   0  0  0  0  0  0  0  0  0  0  0  0
   13.3937  -18.1964   22.4138 C   0  0  2  0  0  0  0  0  0  0  0  0
   12.0182  -17.9441   22.1166 N   0  0  0  0  0  0  0  0  0  0  0  0
   13.9102  -17.0360   23.2067 C   0  0  0  0  0  0  0  0  0  0  0  0
   13.1924  -16.0558   23.4820 O   0  0  0  0  0  0  0  0  0  0  0  0
   15.2311  -17.0272   23.6629 O   0  0  0  0  0  0  0  0  0  0  0  0
  2  1  1  0
  3  2  1  0
  3  4  1  1
  5  3  1  0
  5  6  1  6
  7  5  1  0
  7  8  2  0
  9 10  1  0
 10 12  1  0
 11 10  2  0
 13 12  1  6
 14 13  1  0
 14  7  1  0
 15 16  2  0
 15 13  1  0
 17 18  1  0
 19 18  1  6
 19 20  1  0
 19 21  1  0
 20 15  1  0
 21 23  1  0
 22 21  2  0
M  END
$$$$
