INS.pdb
     RDKit          3D

 23 22  0  0  1  0  0  0  0  0999 V2000
    6.0594  -11.3104   27.0102 C   0  0  0  0  0  0  0  0  0  0  0  0
    5.7410  -12.5904   26.2579 C   0  0  0  0  0  0  0  0  0  0  0  0
    7.0224  -13.3247   26.0396 C   0  0  2  0  0  0  0  0  0  0  0  0
    8.0370  -12.4272   25.3817 C   0  0  0  0  0  0  0  0  0  0  0  0
    6.8692  -14.5733   25.2033 C   0  0  2  0  0  0  0  0  0  0  0  0
    5.7340  -15.3594   25.6292 N   0  0  0  0  0  0  0  0  0  0  0  0
    8.0847  -15.4118   25.2219 C   0  0  0  0  0  0  0  0  0  0  0  0
    9.1912  -14.8591   25.0348 O   0  0  0  0  0  0  0  0  0  0  0  0
    6.9546  -19.0964   27.8223 N   0  0  0  0  0  0  0  0  0  0  0  0
    8.3080  -18.7806   27.5652 C   0  0  0  0  0  0  0  0  0  0  0  0
    9.0050  -18.3248   28.5055 O   0  0  0  0  0  0  0  0  0  0  0  0
    8.9413  -18.9577   26.2545 C   0  0  0  0  0  0  0  0  0  0  0  0
    9.1553  -17.6771   25.5032 C   0  0  2  0  0  0  0  0  0  0  0  0
    8.0216  -16.8141   25.4446 N   0  0  0  0  0  0  0  0  0  0  0  0
    9.7525  -17.9223   24.1464 C   0  0  0  0  0  0  0  0  0  0  0  0
    9.1190  -18.4826   23.2136 O   0  0  0  0  0  0  0  0  0  0  0  0
   10.9907  -15.6621   21.6160 O   0  0  0  0  0  0  0  0  0  0  0  0
   10.8454  -17.0366   21.5163 C   0  0  0  0  0  0  0  0  0  0  0  0
   11.7236  -17.7069   22.5733 C   0  0  2  0  0  0  0  0  0  0  0  0
   11.0838  -17.5289   23.8393 N   0  0  0  0  0  0  0  0  0  0  0  0
   13.0311  -16.9784   22.6155 C   0  0  0  0  0  0  0  0  0  0  0  0
   13.4131  -16.3710   23.6338 O   0  0  0  0  0  0  0  0  0  0  0  0
   13.8655  -16.9639   21.4946 O   0  0  0  0  0  0  0  0  0  0  0  0
  2  1  1  0
  3  2  1  0
  3  4  1  6
  5  3  1  0
  5  6  1  1
  7  5  1  0
  7  8  2  0
  9 10  1  0
 10 12  1  0
 11 10  2  0
 13 12  1  6
 14 13  1  0
 14  7  1  0
 15 16  2  0
 15 13  1  0
 17 18  1  0
 19 18  1  6
 19 20  1  0
 19 21  1  0
 20 15  1  0
 21 23  1  0
 22 21  2  0
M  END
$$$$
