INS.pdb
     RDKit          3D

 23 22  0  0  1  0  0  0  0  0999 V2000
    6.9710  -11.5213   26.9918 C   0  0  0  0  0  0  0  0  0  0  0  0
    6.3964  -12.9268   26.9901 C   0  0  0  0  0  0  0  0  0  0  0  0
    7.1981  -13.7487   26.0359 C   0  0  2  0  0  0  0  0  0  0  0  0
    7.1329  -13.1597   24.6514 C   0  0  0  0  0  0  0  0  0  0  0  0
    6.7611  -15.1930   25.9664 C   0  0  2  0  0  0  0  0  0  0  0  0
    6.8100  -15.8237   27.2655 N   0  0  0  0  0  0  0  0  0  0  0  0
    7.5667  -15.9757   25.0075 C   0  0  0  0  0  0  0  0  0  0  0  0
    8.6675  -16.4313   25.3886 O   0  0  0  0  0  0  0  0  0  0  0  0
    4.5199  -17.7613   21.5483 N   0  0  0  0  0  0  0  0  0  0  0  0
    5.8143  -18.1658   21.9462 C   0  0  0  0  0  0  0  0  0  0  0  0
    5.9254  -19.1805   22.6781 O   0  0  0  0  0  0  0  0  0  0  0  0
    7.0366  -17.4601   21.5479 C   0  0  0  0  0  0  0  0  0  0  0  0
    7.8513  -16.9542   22.7013 C   0  0  2  0  0  0  0  0  0  0  0  0
    7.1213  -16.2168   23.6795 N   0  0  0  0  0  0  0  0  0  0  0  0
    9.0772  -16.2205   22.2359 C   0  0  0  0  0  0  0  0  0  0  0  0
    9.0221  -15.1319   21.6055 O   0  0  0  0  0  0  0  0  0  0  0  0
   12.4653  -17.1342   24.0890 O   0  0  0  0  0  0  0  0  0  0  0  0
   12.4034  -15.9029   23.4562 C   0  0  0  0  0  0  0  0  0  0  0  0
   11.6014  -16.0490   22.1626 C   0  0  2  0  0  0  0  0  0  0  0  0
   10.3832  -16.7236   22.4863 N   0  0  0  0  0  0  0  0  0  0  0  0
   12.3793  -16.9302   21.2351 C   0  0  0  0  0  0  0  0  0  0  0  0
   12.0054  -18.0855   20.9573 O   0  0  0  0  0  0  0  0  0  0  0  0
   13.5617  -16.4679   20.6510 O   0  0  0  0  0  0  0  0  0  0  0  0
  2  1  1  0
  3  2  1  0
  3  4  1  6
  5  3  1  0
  5  6  1  1
  7  5  1  0
  7  8  2  0
  9 10  1  0
 10 12  1  0
 11 10  2  0
 13 12  1  6
 14 13  1  0
 14  7  1  0
 15 16  2  0
 15 13  1  0
 17 18  1  0
 19 18  1  1
 19 20  1  0
 19 21  1  0
 20 15  1  0
 21 23  1  0
 22 21  2  0
M  END
$$$$
