DRN.pdb
     RDKit          3D

 28 27  0  0  1  0  0  0  0  0999 V2000
   15.1998  -11.9090  -14.1370 N   0  0  0  0  0  0  0  0  0  0  0  0
   16.4039  -11.4334  -13.4541 C   0  0  1  0  0  0  0  0  0  0  0  0
   17.5085  -11.4670  -14.4682 C   0  0  0  0  0  0  0  0  0  0  0  0
   17.9010  -12.8736  -14.7898 C   0  0  0  0  0  0  0  0  0  0  0  0
   18.6121  -13.1376  -15.7874 O   0  0  0  0  0  0  0  0  0  0  0  0
   16.1762  -10.1261  -12.8481 C   0  0  0  0  0  0  0  0  0  0  0  0
   15.5036   -9.2678  -13.5072 O   0  0  0  0  0  0  0  0  0  0  0  0
   17.4680  -13.8999  -13.9698 O   0  0  0  0  0  0  0  0  0  0  0  0
   11.7536   -6.7734   -7.5422 N   0  0  0  0  0  0  0  0  0  0  0  0
   12.7972   -5.8493   -7.2608 C   0  0  0  0  0  0  0  0  0  0  0  0
   12.5802   -4.7590   -6.5890 N   0  0  0  0  0  0  0  0  0  0  0  0
   14.1378   -6.0596   -7.6893 N   0  0  0  0  0  0  0  0  0  0  0  0
   14.4885   -7.2796   -8.3689 C   0  0  0  0  0  0  0  0  0  0  0  0
   15.9266   -7.2404   -8.8938 C   0  0  0  0  0  0  0  0  0  0  0  0
   16.1548   -8.5815   -9.5227 C   0  0  0  0  0  0  0  0  0  0  0  0
   16.4675   -8.4613  -10.9605 C   0  0  2  0  0  0  0  0  0  0  0  0
   16.6608   -9.7718  -11.5762 N   0  0  0  0  0  0  0  0  0  0  0  0
   17.6712   -7.6634  -11.2095 C   0  0  0  0  0  0  0  0  0  0  0  0
   18.6799   -7.7986  -10.4443 O   0  0  0  0  0  0  0  0  0  0  0  0
   13.2970   -4.0750   -6.3199 N   0  0  0  0  0  0  0  0  0  0  0  0
   21.3461   -4.7848  -12.9677 C   0  0  0  0  0  0  0  0  0  0  0  0
   21.2445   -6.0686  -13.5729 O   0  0  0  0  0  0  0  0  0  0  0  0
   22.1716   -6.5118  -14.2695 C   0  0  0  0  0  0  0  0  0  0  0  0
   20.0074   -6.8427  -13.3421 C   0  0  1  0  0  0  0  0  0  0  0  0
   19.0379   -6.0541  -12.4762 N   0  0  0  0  0  0  0  0  0  0  0  0
   17.7767   -6.7271  -12.2816 C   0  0  0  0  0  0  0  0  0  0  0  0
   18.8183   -4.7462  -13.0984 O   0  0  0  0  0  0  0  0  0  0  0  0
   19.8077   -3.7677  -13.1388 O   0  0  0  0  0  0  0  0  0  0  0  0
  2  1  1  6
  2  3  1  0
  3  4  1  0
  4  8  1  0
  5  4  2  0
  6  2  1  0
  6  7  2  0
  9 10  1  0
 10 12  1  0
 10 11  2  0
 12 13  1  0
 13 14  1  0
 16 15  1  1
 15 14  1  0
 16 17  1  0
 17  6  1  0
 18 16  1  0
 19 18  2  0
 20 21  1  0
 21 22  2  0
 21 23  1  0
 24 23  1  1
 24 26  1  0
 24 25  1  0
 25 18  1  0
 26 27  1  0
 28 26  2  0
M  END
$$$$
