DRN.pdb
     RDKit          3D

 28 27  0  0  1  0  0  0  0  0999 V2000
   20.7139  -21.5101  -13.2778 N   0  0  0  0  0  0  0  0  0  0  0  0
   20.9663  -20.4342  -14.2374 C   0  0  1  0  0  0  0  0  0  0  0  0
   19.9107  -19.3957  -13.9983 C   0  0  0  0  0  0  0  0  0  0  0  0
   18.6592  -19.7174  -14.7510 C   0  0  0  0  0  0  0  0  0  0  0  0
   17.5697  -19.1682  -14.4647 O   0  0  0  0  0  0  0  0  0  0  0  0
   22.3358  -19.9449  -14.1223 C   0  0  0  0  0  0  0  0  0  0  0  0
   22.7883  -19.6957  -12.9575 O   0  0  0  0  0  0  0  0  0  0  0  0
   18.7084  -20.6399  -15.7803 O   0  0  0  0  0  0  0  0  0  0  0  0
   25.6901  -24.9767  -15.3530 N   0  0  0  0  0  0  0  0  0  0  0  0
   25.9875  -24.3574  -16.5981 C   0  0  0  0  0  0  0  0  0  0  0  0
   26.1464  -25.0512  -17.6845 N   0  0  0  0  0  0  0  0  0  0  0  0
   26.1244  -22.9475  -16.7348 N   0  0  0  0  0  0  0  0  0  0  0  0
   26.9784  -22.2208  -15.8314 C   0  0  0  0  0  0  0  0  0  0  0  0
   26.1755  -21.2780  -14.9307 C   0  0  0  0  0  0  0  0  0  0  0  0
   25.4291  -20.3767  -15.8671 C   0  0  0  0  0  0  0  0  0  0  0  0
   24.5942  -19.4038  -15.1349 C   0  0  2  0  0  0  0  0  0  0  0  0
   23.1756  -19.7383  -15.2313 N   0  0  0  0  0  0  0  0  0  0  0  0
   24.7692  -18.0331  -15.6230 C   0  0  0  0  0  0  0  0  0  0  0  0
   24.0277  -17.6061  -16.5660 O   0  0  0  0  0  0  0  0  0  0  0  0
   26.3119  -24.6607  -18.6194 N   0  0  0  0  0  0  0  0  0  0  0  0
   25.8583  -13.2742  -16.5260 C   0  0  0  0  0  0  0  0  0  0  0  0
   26.7497  -13.5315  -15.4472 O   0  0  0  0  0  0  0  0  0  0  0  0
   27.4715  -12.6273  -14.9971 C   0  0  0  0  0  0  0  0  0  0  0  0
   26.7814  -14.9002  -14.8915 C   0  0  2  0  0  0  0  0  0  0  0  0
   25.8080  -15.8008  -15.6350 N   0  0  0  0  0  0  0  0  0  0  0  0
   25.7418  -17.1349  -15.0898 C   0  0  0  0  0  0  0  0  0  0  0  0
   26.2075  -15.8533  -17.0434 O   0  0  0  0  0  0  0  0  0  0  0  0
   25.6290  -15.0357  -18.0103 O   0  0  0  0  0  0  0  0  0  0  0  0
  2  1  1  1
  2  3  1  0
  3  4  1  0
  4  8  1  0
  5  4  2  0
  6  2  1  0
  6  7  2  0
  9 10  1  0
 10 12  1  0
 10 11  2  0
 12 13  1  0
 13 14  1  0
 16 15  1  6
 15 14  1  0
 16 17  1  0
 17  6  1  0
 18 16  1  0
 19 18  2  0
 20 21  1  0
 21 22  2  0
 21 23  1  0
 24 23  1  1
 24 26  1  0
 24 25  1  0
 25 18  1  0
 26 27  1  0
 28 26  2  0
M  END
$$$$
