DRN.pdb
     RDKit          3D

 28 27  0  0  1  0  0  0  0  0999 V2000
   28.1069  -20.5188  -18.0732 N   0  0  0  0  0  0  0  0  0  0  0  0
   27.6837  -19.4122  -17.2136 C   0  0  1  0  0  0  0  0  0  0  0  0
   27.7070  -18.1789  -18.0669 C   0  0  0  0  0  0  0  0  0  0  0  0
   29.0927  -17.8807  -18.5437 C   0  0  0  0  0  0  0  0  0  0  0  0
   29.3852  -16.7645  -19.0325 O   0  0  0  0  0  0  0  0  0  0  0  0
   26.3937  -19.6979  -16.5952 C   0  0  0  0  0  0  0  0  0  0  0  0
   25.8306  -18.7714  -15.9258 O   0  0  0  0  0  0  0  0  0  0  0  0
   30.0663  -18.8579  -18.4434 O   0  0  0  0  0  0  0  0  0  0  0  0
   22.4159  -25.7415  -14.3987 N   0  0  0  0  0  0  0  0  0  0  0  0
   23.1718  -25.9122  -15.5910 C   0  0  0  0  0  0  0  0  0  0  0  0
   24.0673  -26.8462  -15.7031 N   0  0  0  0  0  0  0  0  0  0  0  0
   22.9943  -25.0803  -16.7319 N   0  0  0  0  0  0  0  0  0  0  0  0
   22.0210  -24.0197  -16.6994 C   0  0  0  0  0  0  0  0  0  0  0  0
   22.5541  -22.7864  -15.9647 C   0  0  0  0  0  0  0  0  0  0  0  0
   23.8726  -22.4815  -16.6088 C   0  0  0  0  0  0  0  0  0  0  0  0
   24.4975  -21.2783  -16.0246 C   0  0  2  0  0  0  0  0  0  0  0  0
   25.7456  -20.9413  -16.7045 N   0  0  0  0  0  0  0  0  0  0  0  0
   24.7887  -21.4329  -14.5967 C   0  0  0  0  0  0  0  0  0  0  0  0
   25.7423  -22.1939  -14.2322 O   0  0  0  0  0  0  0  0  0  0  0  0
   24.7031  -26.9665  -16.5003 N   0  0  0  0  0  0  0  0  0  0  0  0
   25.3474  -21.6855   -9.7571 C   0  0  0  0  0  0  0  0  0  0  0  0
   25.6662  -20.3726  -10.2034 O   0  0  0  0  0  0  0  0  0  0  0  0
   26.1987  -19.5574   -9.4332 C   0  0  0  0  0  0  0  0  0  0  0  0
   25.3424  -20.0230  -11.6019 C   0  0  1  0  0  0  0  0  0  0  0  0
   24.3858  -21.0427  -12.1992 N   0  0  0  0  0  0  0  0  0  0  0  0
   24.0493  -20.7654  -13.5745 C   0  0  0  0  0  0  0  0  0  0  0  0
   23.1708  -21.0738  -11.3815 O   0  0  0  0  0  0  0  0  0  0  0  0
   23.1605  -21.5829  -10.0859 O   0  0  0  0  0  0  0  0  0  0  0  0
  2  1  1  6
  2  3  1  0
  3  4  1  0
  4  8  1  0
  5  4  2  0
  6  2  1  0
  6  7  2  0
  9 10  1  0
 10 12  1  0
 10 11  2  0
 12 13  1  0
 13 14  1  0
 16 15  1  6
 15 14  1  0
 16 17  1  0
 17  6  1  0
 18 16  1  0
 19 18  2  0
 20 21  1  0
 21 22  2  0
 21 23  1  0
 24 23  1  6
 24 26  1  0
 24 25  1  0
 25 18  1  0
 26 27  1  0
 28 26  2  0
M  END
$$$$
