DRN.pdb
     RDKit          3D

 28 27  0  0  1  0  0  0  0  0999 V2000
   17.8939  -22.6568  -11.5110 N   0  0  0  0  0  0  0  0  0  0  0  0
   18.5453  -22.6603  -12.8216 C   0  0  1  0  0  0  0  0  0  0  0  0
   17.4480  -22.5845  -13.8414 C   0  0  0  0  0  0  0  0  0  0  0  0
   16.6393  -23.8423  -13.8560 C   0  0  0  0  0  0  0  0  0  0  0  0
   17.1897  -24.9682  -13.8664 O   0  0  0  0  0  0  0  0  0  0  0  0
   19.5342  -21.5917  -12.9140 C   0  0  0  0  0  0  0  0  0  0  0  0
   19.1996  -20.4281  -12.5170 O   0  0  0  0  0  0  0  0  0  0  0  0
   15.2588  -23.7577  -13.8598 O   0  0  0  0  0  0  0  0  0  0  0  0
   27.0161  -21.9258  -10.9250 N   0  0  0  0  0  0  0  0  0  0  0  0
   26.9689  -21.6133  -12.3115 C   0  0  0  0  0  0  0  0  0  0  0  0
   28.0074  -21.1560  -12.9435 N   0  0  0  0  0  0  0  0  0  0  0  0
   25.7913  -21.7847  -13.0919 N   0  0  0  0  0  0  0  0  0  0  0  0
   25.5159  -20.8816  -14.1790 C   0  0  0  0  0  0  0  0  0  0  0  0
   24.1761  -20.1641  -13.9916 C   0  0  0  0  0  0  0  0  0  0  0  0
   23.1820  -21.2499  -13.7105 C   0  0  0  0  0  0  0  0  0  0  0  0
   21.8101  -20.7155  -13.6007 C   0  0  2  0  0  0  0  0  0  0  0  0
   20.8333  -21.7859  -13.4167 N   0  0  0  0  0  0  0  0  0  0  0  0
   21.4129  -19.9395  -14.7786 C   0  0  0  0  0  0  0  0  0  0  0  0
   21.0795  -20.5493  -15.8455 O   0  0  0  0  0  0  0  0  0  0  0  0
   28.0124  -20.8241  -13.9150 N   0  0  0  0  0  0  0  0  0  0  0  0
   19.9519  -14.3718  -17.0976 C   0  0  0  0  0  0  0  0  0  0  0  0
   20.2133  -15.7704  -17.0879 O   0  0  0  0  0  0  0  0  0  0  0  0
   20.0618  -16.4467  -18.1179 C   0  0  0  0  0  0  0  0  0  0  0  0
   20.6662  -16.3776  -15.8194 C   0  0  2  0  0  0  0  0  0  0  0  0
   20.9640  -17.8560  -16.0116 N   0  0  0  0  0  0  0  0  0  0  0  0
   21.3786  -18.5127  -14.7957 C   0  0  0  0  0  0  0  0  0  0  0  0
   22.0038  -17.9908  -17.0347 O   0  0  0  0  0  0  0  0  0  0  0  0
   23.3602  -17.9722  -16.7217 O   0  0  0  0  0  0  0  0  0  0  0  0
  2  1  1  1
  2  3  1  0
  3  4  1  0
  4  8  1  0
  5  4  2  0
  6  2  1  0
  6  7  2  0
  9 10  1  0
 10 12  1  0
 10 11  2  0
 12 13  1  0
 13 14  1  0
 16 15  1  6
 15 14  1  0
 16 17  1  0
 17  6  1  0
 18 16  1  0
 19 18  2  0
 20 21  1  0
 21 22  2  0
 21 23  1  0
 24 23  1  1
 24 26  1  0
 24 25  1  0
 25 18  1  0
 26 27  1  0
 28 26  2  0
M  END
$$$$
