DRN.pdb
     RDKit          3D

 28 27  0  0  1  0  0  0  0  0999 V2000
   22.3359  -19.0812  -20.1529 N   0  0  0  0  0  0  0  0  0  0  0  0
   23.6596  -19.1574  -19.5331 C   0  0  1  0  0  0  0  0  0  0  0  0
   24.2734  -17.7961  -19.6739 C   0  0  0  0  0  0  0  0  0  0  0  0
   23.2991  -16.7253  -19.2994 C   0  0  0  0  0  0  0  0  0  0  0  0
   23.5377  -15.9291  -18.3614 O   0  0  0  0  0  0  0  0  0  0  0  0
   23.5641  -19.6408  -18.1600 C   0  0  0  0  0  0  0  0  0  0  0  0
   22.7518  -20.5910  -17.9132 O   0  0  0  0  0  0  0  0  0  0  0  0
   22.1129  -16.6157  -20.0021 O   0  0  0  0  0  0  0  0  0  0  0  0
   28.6467  -20.7965  -17.2111 N   0  0  0  0  0  0  0  0  0  0  0  0
   29.0611  -21.3841  -15.9842 C   0  0  0  0  0  0  0  0  0  0  0  0
   29.5863  -22.5712  -15.9395 N   0  0  0  0  0  0  0  0  0  0  0  0
   28.9331  -20.7131  -14.7359 N   0  0  0  0  0  0  0  0  0  0  0  0
   27.7980  -19.8604  -14.4952 C   0  0  0  0  0  0  0  0  0  0  0  0
   26.6117  -20.2339  -15.3886 C   0  0  0  0  0  0  0  0  0  0  0  0
   25.5086  -19.2998  -14.9924 C   0  0  0  0  0  0  0  0  0  0  0  0
   24.2602  -19.5916  -15.7244 C   0  0  2  0  0  0  0  0  0  0  0  0
   24.3241  -19.1104  -17.1021 N   0  0  0  0  0  0  0  0  0  0  0  0
   23.0832  -18.9912  -15.0906 C   0  0  0  0  0  0  0  0  0  0  0  0
   22.9325  -17.7272  -15.1229 O   0  0  0  0  0  0  0  0  0  0  0  0
   29.8637  -23.0658  -15.0836 N   0  0  0  0  0  0  0  0  0  0  0  0
   18.3213  -18.1344  -13.9486 C   0  0  0  0  0  0  0  0  0  0  0  0
   18.8844  -17.9527  -15.2427 O   0  0  0  0  0  0  0  0  0  0  0  0
   18.2574  -17.3407  -16.1222 C   0  0  0  0  0  0  0  0  0  0  0  0
   20.2276  -18.5144  -15.4943 C   0  0  1  0  0  0  0  0  0  0  0  0
   20.7811  -19.1597  -14.2338 N   0  0  0  0  0  0  0  0  0  0  0  0
   22.0790  -19.7589  -14.4277 C   0  0  0  0  0  0  0  0  0  0  0  0
   19.8258  -20.1697  -13.7717 O   0  0  0  0  0  0  0  0  0  0  0  0
   18.8333  -19.8812  -12.8392 O   0  0  0  0  0  0  0  0  0  0  0  0
  2  1  1  1
  2  3  1  0
  3  4  1  0
  4  8  1  0
  5  4  2  0
  6  2  1  0
  6  7  2  0
  9 10  1  0
 10 12  1  0
 10 11  2  0
 12 13  1  0
 13 14  1  0
 16 15  1  1
 15 14  1  0
 16 17  1  0
 17  6  1  0
 18 16  1  0
 19 18  2  0
 20 21  1  0
 21 22  2  0
 21 23  1  0
 24 23  1  1
 24 26  1  0
 24 25  1  0
 25 18  1  0
 26 27  1  0
 28 26  2  0
M  END
$$$$
