DRN.pdb
     RDKit          3D

 28 27  0  0  1  0  0  0  0  0999 V2000
   34.3038   -6.2167  -15.4810 N   0  0  0  0  0  0  0  0  0  0  0  0
   34.8968   -7.4783  -15.0350 C   0  0  1  0  0  0  0  0  0  0  0  0
   35.1546   -8.2869  -16.2717 C   0  0  0  0  0  0  0  0  0  0  0  0
   33.8809   -8.8356  -16.8309 C   0  0  0  0  0  0  0  0  0  0  0  0
   32.7685   -8.5079  -16.3557 O   0  0  0  0  0  0  0  0  0  0  0  0
   36.0765   -7.2362  -14.2116 C   0  0  0  0  0  0  0  0  0  0  0  0
   36.7674   -6.1914  -14.4451 O   0  0  0  0  0  0  0  0  0  0  0  0
   33.9353   -9.7223  -17.8910 O   0  0  0  0  0  0  0  0  0  0  0  0
   38.4977  -10.6455   -6.4274 N   0  0  0  0  0  0  0  0  0  0  0  0
   39.5566   -9.7557   -6.7575 C   0  0  0  0  0  0  0  0  0  0  0  0
   40.5467   -9.5420   -5.9445 N   0  0  0  0  0  0  0  0  0  0  0  0
   39.6028   -9.0506   -7.9928 N   0  0  0  0  0  0  0  0  0  0  0  0
   38.4884   -9.1260   -8.9015 C   0  0  0  0  0  0  0  0  0  0  0  0
   38.7682   -8.3679  -10.2023 C   0  0  0  0  0  0  0  0  0  0  0  0
   37.5328   -8.5392  -11.0335 C   0  0  0  0  0  0  0  0  0  0  0  0
   37.6676   -7.8827  -12.3490 C   0  0  2  0  0  0  0  0  0  0  0  0
   36.4832   -8.0972  -13.1766 N   0  0  0  0  0  0  0  0  0  0  0  0
   38.8340   -8.3584  -13.0980 C   0  0  0  0  0  0  0  0  0  0  0  0
   38.7830   -9.4885  -13.6824 O   0  0  0  0  0  0  0  0  0  0  0  0
   41.3162   -8.8819   -6.1066 N   0  0  0  0  0  0  0  0  0  0  0  0
   41.2772   -5.1742  -16.2052 C   0  0  0  0  0  0  0  0  0  0  0  0
   41.0818   -6.5422  -15.8660 O   0  0  0  0  0  0  0  0  0  0  0  0
   40.2511   -7.2310  -16.4799 C   0  0  0  0  0  0  0  0  0  0  0  0
   41.8965   -7.1027  -14.7682 C   0  0  2  0  0  0  0  0  0  0  0  0
   41.1130   -8.1615  -14.0089 N   0  0  0  0  0  0  0  0  0  0  0  0
   40.0448   -7.6111  -13.2104 C   0  0  0  0  0  0  0  0  0  0  0  0
   42.0439   -8.9061  -13.1575 O   0  0  0  0  0  0  0  0  0  0  0  0
   42.5734  -10.1369  -13.5353 O   0  0  0  0  0  0  0  0  0  0  0  0
  2  1  1  6
  2  3  1  0
  3  4  1  0
  4  8  1  0
  5  4  2  0
  6  2  1  0
  6  7  2  0
  9 10  1  0
 10 12  1  0
 10 11  2  0
 12 13  1  0
 13 14  1  0
 16 15  1  1
 15 14  1  0
 16 17  1  0
 17  6  1  0
 18 16  1  0
 19 18  2  0
 20 21  1  0
 21 22  2  0
 21 23  1  0
 24 23  1  6
 24 26  1  0
 24 25  1  0
 25 18  1  0
 26 27  1  0
 28 26  2  0
M  END
$$$$
