WRH.pdb
     RDKit          3D

 36 38  0  0  1  0  0  0  0  0999 V2000
   24.9242  -15.8704  -17.7337 N   0  0  0  0  0  0  0  0  0  0  0  0
   25.5243  -16.8244  -16.8347 C   0  0  1  0  0  0  0  0  0  0  0  0
   25.8183  -16.1161  -15.5295 C   0  0  0  0  0  0  0  0  0  0  0  0
   27.0179  -15.2454  -15.7940 C   0  0  0  0  0  0  0  0  0  0  0  0
   27.1108  -13.8784  -15.6044 C   0  0  0  0  0  0  0  0  0  0  0  0
   28.3551  -13.5040  -15.9533 N   0  0  0  0  0  0  0  0  0  0  0  0
   29.0617  -14.5506  -16.3537 C   0  0  0  0  0  0  0  0  0  0  0  0
   30.3817  -14.6622  -16.8080 C   0  0  0  0  0  0  0  0  0  0  0  0
   30.8880  -15.8973  -17.1769 C   0  0  0  0  0  0  0  0  0  0  0  0
   30.0651  -16.9991  -17.0850 C   0  0  0  0  0  0  0  0  0  0  0  0
   28.7671  -16.8878  -16.6375 C   0  0  0  0  0  0  0  0  0  0  0  0
   28.2433  -15.6565  -16.2632 C   0  0  0  0  0  0  0  0  0  0  0  0
   24.6212  -17.9872  -16.6286 C   0  0  0  0  0  0  0  0  0  0  0  0
   23.3888  -17.7501  -16.6532 O   0  0  0  0  0  0  0  0  0  0  0  0
   26.9493  -26.1355  -16.7565 N   0  0  0  0  0  0  0  0  0  0  0  0
   25.6332  -25.8045  -16.3497 C   0  0  0  0  0  0  0  0  0  0  0  0
   24.6659  -26.6502  -16.2394 N   0  0  0  0  0  0  0  0  0  0  0  0
   25.3690  -24.4373  -16.0396 N   0  0  0  0  0  0  0  0  0  0  0  0
   26.3922  -23.4015  -16.0737 C   0  0  0  0  0  0  0  0  0  0  0  0
   25.8316  -22.0630  -15.6777 C   0  0  0  0  0  0  0  0  0  0  0  0
   24.6606  -21.7246  -16.5438 C   0  0  0  0  0  0  0  0  0  0  0  0
   24.1405  -20.3702  -16.2353 C   0  0  2  0  0  0  0  0  0  0  0  0
   25.0854  -19.3063  -16.4135 N   0  0  0  0  0  0  0  0  0  0  0  0
   23.6258  -20.2822  -14.8249 C   0  0  0  0  0  0  0  0  0  0  0  0
   24.4734  -20.2103  -13.9073 O   0  0  0  0  0  0  0  0  0  0  0  0
   23.7127  -26.2836  -15.9670 N   0  0  0  0  0  0  0  0  0  0  0  0
   22.2573  -20.2750  -14.4852 C   0  0  2  0  0  0  0  0  0  0  0  0
   21.8107  -20.3792  -13.0803 C   0  0  0  0  0  0  0  0  0  0  0  0
   21.6313  -19.0152  -12.5072 C   0  0  0  0  0  0  0  0  0  0  0  0
   20.7205  -18.1937  -13.3081 C   0  0  0  0  0  0  0  0  0  0  0  0
   20.0951  -18.6537  -14.4864 N   0  0  0  0  0  0  0  0  0  0  0  0
   19.3450  -17.6359  -14.9498 C   0  0  0  0  0  0  0  0  0  0  0  0
   19.4600  -16.5727  -14.1411 N   0  0  0  0  0  0  0  0  0  0  0  0
   20.2973  -16.9427  -13.1602 C   0  0  0  0  0  0  0  0  0  0  0  0
   20.5677  -21.1474  -13.0085 O   0  0  0  0  0  0  0  0  0  0  0  0
   19.8052  -21.4520  -11.9114 O   0  0  0  0  0  0  0  0  0  0  0  0
  2  1  1  6
  3  2  1  0
  3  4  1  0
  4  5  2  0
  5  6  1  0
  7  6  1  0
  8  7  2  0
  9  8  1  0
 10 11  1  0
 10  9  2  0
 11 12  2  0
 12  4  1  0
 12  7  1  0
 13  2  1  0
 13 14  2  0
 16 15  1  0
 17 16  2  0
 18 16  1  0
 19 20  1  0
 19 18  1  0
 20 21  1  0
 22 21  1  1
 22 23  1  0
 23 13  1  0
 24 22  1  0
 25 24  2  0
 26 24  1  0
 27 26  1  0
 27 34  1  0
 27 28  1  6
 29 28  1  0
 30 29  2  0
 31 30  1  0
 32 31  1  0
 32 33  2  0
 33 29  1  0
 34 35  1  0
 36 34  2  0
M  END
$$$$
