WRH.pdb
     RDKit          3D

 36 38  0  0  1  0  0  0  0  0999 V2000
   14.0883  -27.9661  -12.2405 N   0  0  0  0  0  0  0  0  0  0  0  0
   13.4019  -27.3055  -13.3226 C   0  0  1  0  0  0  0  0  0  0  0  0
   11.9558  -27.1200  -12.9148 C   0  0  0  0  0  0  0  0  0  0  0  0
   11.2681  -28.4215  -13.2311 C   0  0  0  0  0  0  0  0  0  0  0  0
   11.6128  -29.6781  -12.7669 C   0  0  0  0  0  0  0  0  0  0  0  0
   10.7344  -30.5566  -13.2834 N   0  0  0  0  0  0  0  0  0  0  0  0
    9.8494  -29.9355  -14.0489 C   0  0  0  0  0  0  0  0  0  0  0  0
    8.7623  -30.4152  -14.7899 C   0  0  0  0  0  0  0  0  0  0  0  0
    7.9806  -29.5391  -15.5242 C   0  0  0  0  0  0  0  0  0  0  0  0
    8.3001  -28.1985  -15.5047 C   0  0  0  0  0  0  0  0  0  0  0  0
    9.3695  -27.7281  -14.7749 C   0  0  0  0  0  0  0  0  0  0  0  0
   10.1639  -28.5931  -14.0325 C   0  0  0  0  0  0  0  0  0  0  0  0
   14.0484  -26.0034  -13.6334 C   0  0  0  0  0  0  0  0  0  0  0  0
   14.4588  -25.3342  -12.6539 O   0  0  0  0  0  0  0  0  0  0  0  0
   16.8705  -24.0246  -21.1735 N   0  0  0  0  0  0  0  0  0  0  0  0
   15.6463  -23.6360  -20.5755 C   0  0  0  0  0  0  0  0  0  0  0  0
   14.7325  -22.9407  -21.1624 N   0  0  0  0  0  0  0  0  0  0  0  0
   15.4156  -24.0497  -19.2298 N   0  0  0  0  0  0  0  0  0  0  0  0
   16.3228  -24.9241  -18.4994 C   0  0  0  0  0  0  0  0  0  0  0  0
   15.8202  -25.1974  -17.1083 C   0  0  0  0  0  0  0  0  0  0  0  0
   15.2935  -23.9370  -16.4999 C   0  0  0  0  0  0  0  0  0  0  0  0
   14.7333  -24.1879  -15.1497 C   0  0  2  0  0  0  0  0  0  0  0  0
   14.2125  -25.5088  -14.9487 N   0  0  0  0  0  0  0  0  0  0  0  0
   13.6346  -23.2164  -14.8163 C   0  0  0  0  0  0  0  0  0  0  0  0
   12.4594  -23.5742  -15.0541 O   0  0  0  0  0  0  0  0  0  0  0  0
   13.8514  -22.7193  -20.6221 N   0  0  0  0  0  0  0  0  0  0  0  0
   13.8545  -21.9412  -14.2562 C   0  0  1  0  0  0  0  0  0  0  0  0
   12.7434  -20.9902  -14.0435 C   0  0  0  0  0  0  0  0  0  0  0  0
   11.7499  -21.5799  -13.1021 C   0  0  0  0  0  0  0  0  0  0  0  0
   10.6495  -20.6582  -12.8097 C   0  0  0  0  0  0  0  0  0  0  0  0
   10.6109  -19.8360  -11.6635 N   0  0  0  0  0  0  0  0  0  0  0  0
    9.4610  -19.1381  -11.7256 C   0  0  0  0  0  0  0  0  0  0  0  0
    8.7798  -19.4690  -12.8320 N   0  0  0  0  0  0  0  0  0  0  0  0
    9.5248  -20.3887  -13.4641 C   0  0  0  0  0  0  0  0  0  0  0  0
   13.2641  -19.7223  -13.5321 O   0  0  0  0  0  0  0  0  0  0  0  0
   14.5639  -19.3557  -13.2996 O   0  0  0  0  0  0  0  0  0  0  0  0
  2  1  1  1
  3  2  1  0
  3  4  1  0
  4  5  2  0
  5  6  1  0
  7  6  1  0
  8  7  2  0
  9  8  1  0
 10 11  1  0
 10  9  2  0
 11 12  2  0
 12  4  1  0
 12  7  1  0
 13  2  1  0
 13 14  2  0
 16 15  1  0
 17 16  2  0
 18 16  1  0
 19 20  1  0
 19 18  1  0
 20 21  1  0
 22 21  1  6
 22 23  1  0
 23 13  1  0
 24 22  1  0
 25 24  2  0
 26 24  1  0
 27 26  1  0
 27 34  1  0
 27 28  1  6
 29 28  1  0
 30 29  2  0
 31 30  1  0
 32 31  1  0
 32 33  2  0
 33 29  1  0
 34 35  1  0
 36 34  2  0
M  END
$$$$
