WRH.pdb
     RDKit          3D

 36 38  0  0  1  0  0  0  0  0999 V2000
   25.2812  -22.1140  -15.9320 N   0  0  0  0  0  0  0  0  0  0  0  0
   24.7782  -22.1137  -14.5810 C   0  0  1  0  0  0  0  0  0  0  0  0
   24.9368  -20.7152  -14.0234 C   0  0  0  0  0  0  0  0  0  0  0  0
   26.4089  -20.4074  -14.0946 C   0  0  0  0  0  0  0  0  0  0  0  0
   27.4038  -20.9098  -13.2752 C   0  0  0  0  0  0  0  0  0  0  0  0
   28.5725  -20.3868  -13.6884 N   0  0  0  0  0  0  0  0  0  0  0  0
   28.3828  -19.5811  -14.7228 C   0  0  0  0  0  0  0  0  0  0  0  0
   29.2778  -18.8185  -15.4833 C   0  0  0  0  0  0  0  0  0  0  0  0
   28.8131  -18.0415  -16.5313 C   0  0  0  0  0  0  0  0  0  0  0  0
   27.4612  -18.0407  -16.7999 C   0  0  0  0  0  0  0  0  0  0  0  0
   26.5822  -18.7917  -16.0512 C   0  0  0  0  0  0  0  0  0  0  0  0
   27.0315  -19.5770  -14.9967 C   0  0  0  0  0  0  0  0  0  0  0  0
   23.3574  -22.5502  -14.5527 C   0  0  0  0  0  0  0  0  0  0  0  0
   22.5716  -21.9493  -15.3255 O   0  0  0  0  0  0  0  0  0  0  0  0
   19.4058  -29.4418  -11.2692 N   0  0  0  0  0  0  0  0  0  0  0  0
   20.6540  -28.8070  -11.4845 C   0  0  0  0  0  0  0  0  0  0  0  0
   21.7979  -29.3169  -11.1772 N   0  0  0  0  0  0  0  0  0  0  0  0
   20.6345  -27.5138  -12.0867 N   0  0  0  0  0  0  0  0  0  0  0  0
   19.4186  -26.8866  -12.5858 C   0  0  0  0  0  0  0  0  0  0  0  0
   19.7122  -25.5651  -13.2416 C   0  0  0  0  0  0  0  0  0  0  0  0
   21.1616  -25.2310  -13.0883 C   0  0  0  0  0  0  0  0  0  0  0  0
   21.4932  -23.9592  -13.7755 C   0  0  2  0  0  0  0  0  0  0  0  0
   22.8759  -23.5836  -13.7149 N   0  0  0  0  0  0  0  0  0  0  0  0
   20.6913  -22.8094  -13.2306 C   0  0  0  0  0  0  0  0  0  0  0  0
   21.3137  -21.9150  -12.6156 O   0  0  0  0  0  0  0  0  0  0  0  0
   22.6637  -28.7340  -11.3444 N   0  0  0  0  0  0  0  0  0  0  0  0
   19.2941  -22.6859  -13.3747 C   0  0  1  0  0  0  0  0  0  0  0  0
   18.6403  -21.3625  -13.4485 C   0  0  0  0  0  0  0  0  0  0  0  0
   19.2050  -20.5855  -14.5880 C   0  0  0  0  0  0  0  0  0  0  0  0
   19.9762  -19.4242  -14.1378 C   0  0  0  0  0  0  0  0  0  0  0  0
   20.1122  -19.0629  -12.7805 N   0  0  0  0  0  0  0  0  0  0  0  0
   20.8745  -17.9532  -12.7493 C   0  0  0  0  0  0  0  0  0  0  0  0
   21.2229  -17.5978  -13.9942 N   0  0  0  0  0  0  0  0  0  0  0  0
   20.6645  -18.5064  -14.8084 C   0  0  0  0  0  0  0  0  0  0  0  0
   17.1938  -21.5289  -13.5911 O   0  0  0  0  0  0  0  0  0  0  0  0
   16.1827  -20.8761  -12.9358 O   0  0  0  0  0  0  0  0  0  0  0  0
  2  1  1  6
  3  2  1  0
  3  4  1  0
  4  5  2  0
  5  6  1  0
  7  6  1  0
  8  7  2  0
  9  8  1  0
 10 11  1  0
 10  9  2  0
 11 12  2  0
 12  4  1  0
 12  7  1  0
 13  2  1  0
 13 14  2  0
 16 15  1  0
 17 16  2  0
 18 16  1  0
 19 20  1  0
 19 18  1  0
 20 21  1  0
 22 21  1  1
 22 23  1  0
 23 13  1  0
 24 22  1  0
 25 24  2  0
 26 24  1  0
 27 26  1  0
 27 34  1  0
 27 28  1  1
 29 28  1  0
 30 29  2  0
 31 30  1  0
 32 31  1  0
 32 33  2  0
 33 29  1  0
 34 35  1  0
 36 34  2  0
M  END
$$$$
