WRH.pdb
     RDKit          3D

 36 38  0  0  1  0  0  0  0  0999 V2000
   15.9896  -26.3382   -8.0124 N   0  0  0  0  0  0  0  0  0  0  0  0
   15.9860  -25.4366   -6.8875 C   0  0  1  0  0  0  0  0  0  0  0  0
   14.7841  -24.5259   -7.0222 C   0  0  0  0  0  0  0  0  0  0  0  0
   15.1055  -23.5835   -8.1515 C   0  0  0  0  0  0  0  0  0  0  0  0
   15.9706  -23.8140   -9.2060 C   0  0  0  0  0  0  0  0  0  0  0  0
   15.9560  -22.7203   -9.9894 N   0  0  0  0  0  0  0  0  0  0  0  0
   15.1330  -21.8059   -9.4979 C   0  0  0  0  0  0  0  0  0  0  0  0
   14.7898  -20.5255   -9.9495 C   0  0  0  0  0  0  0  0  0  0  0  0
   13.8884  -19.7545   -9.2346 C   0  0  0  0  0  0  0  0  0  0  0  0
   13.3463  -20.2778   -8.0806 C   0  0  0  0  0  0  0  0  0  0  0  0
   13.6844  -21.5375   -7.6380 C   0  0  0  0  0  0  0  0  0  0  0  0
   14.5868  -22.3244   -8.3430 C   0  0  0  0  0  0  0  0  0  0  0  0
   15.9498  -26.1958   -5.6098 C   0  0  0  0  0  0  0  0  0  0  0  0
   15.0193  -27.0283   -5.4795 O   0  0  0  0  0  0  0  0  0  0  0  0
   20.8162  -30.9434   -0.7793 N   0  0  0  0  0  0  0  0  0  0  0  0
   20.1766  -30.8631   -2.0409 C   0  0  0  0  0  0  0  0  0  0  0  0
   20.4446  -31.6229   -3.0478 N   0  0  0  0  0  0  0  0  0  0  0  0
   19.1641  -29.8706   -2.1987 N   0  0  0  0  0  0  0  0  0  0  0  0
   18.7346  -28.9931   -1.1185 C   0  0  0  0  0  0  0  0  0  0  0  0
   17.5688  -28.1392   -1.5359 C   0  0  0  0  0  0  0  0  0  0  0  0
   17.8477  -27.5096   -2.8632 C   0  0  0  0  0  0  0  0  0  0  0  0
   16.7006  -26.6856   -3.3162 C   0  0  2  0  0  0  0  0  0  0  0  0
   16.8946  -26.0200   -4.5715 N   0  0  0  0  0  0  0  0  0  0  0  0
   16.3380  -25.6354   -2.3025 C   0  0  0  0  0  0  0  0  0  0  0  0
   16.3065  -24.4469   -2.6924 O   0  0  0  0  0  0  0  0  0  0  0  0
   19.8737  -31.5013   -3.9290 N   0  0  0  0  0  0  0  0  0  0  0  0
   16.0343  -25.9145   -0.9541 C   0  0  2  0  0  0  0  0  0  0  0  0
   15.7310  -24.8342    0.0077 C   0  0  0  0  0  0  0  0  0  0  0  0
   14.6404  -23.9730   -0.5307 C   0  0  0  0  0  0  0  0  0  0  0  0
   14.2477  -22.9229    0.4122 C   0  0  0  0  0  0  0  0  0  0  0  0
   15.1663  -22.0319    1.0067 N   0  0  0  0  0  0  0  0  0  0  0  0
   14.4540  -21.2206    1.8115 C   0  0  0  0  0  0  0  0  0  0  0  0
   13.1541  -21.5449    1.7598 N   0  0  0  0  0  0  0  0  0  0  0  0
   13.0637  -22.5762    0.9061 C   0  0  0  0  0  0  0  0  0  0  0  0
   15.3578  -25.4086    1.3004 O   0  0  0  0  0  0  0  0  0  0  0  0
   15.3404  -26.7234    1.6863 O   0  0  0  0  0  0  0  0  0  0  0  0
  2  1  1  6
  3  2  1  0
  3  4  1  0
  4  5  2  0
  5  6  1  0
  7  6  1  0
  8  7  2  0
  9  8  1  0
 10 11  1  0
 10  9  2  0
 11 12  2  0
 12  4  1  0
 12  7  1  0
 13  2  1  0
 13 14  2  0
 16 15  1  0
 17 16  2  0
 18 16  1  0
 19 20  1  0
 19 18  1  0
 20 21  1  0
 22 21  1  1
 22 23  1  0
 23 13  1  0
 24 22  1  0
 25 24  2  0
 26 24  1  0
 27 26  1  0
 27 34  1  0
 27 28  1  6
 29 28  1  0
 30 29  2  0
 31 30  1  0
 32 31  1  0
 32 33  2  0
 33 29  1  0
 34 35  1  0
 36 34  2  0
M  END
$$$$
