WRH.pdb
     RDKit          3D

 36 38  0  0  1  0  0  0  0  0999 V2000
   27.1499  -21.0924  -17.0581 N   0  0  0  0  0  0  0  0  0  0  0  0
   27.2414  -20.2734  -15.8751 C   0  0  1  0  0  0  0  0  0  0  0  0
   26.3702  -19.0529  -16.0830 C   0  0  0  0  0  0  0  0  0  0  0  0
   27.0617  -18.2271  -17.1350 C   0  0  0  0  0  0  0  0  0  0  0  0
   26.4972  -17.7019  -18.2835 C   0  0  0  0  0  0  0  0  0  0  0  0
   27.4598  -17.0252  -18.9359 N   0  0  0  0  0  0  0  0  0  0  0  0
   28.6046  -17.0868  -18.2721 C   0  0  0  0  0  0  0  0  0  0  0  0
   29.8687  -16.5509  -18.5474 C   0  0  0  0  0  0  0  0  0  0  0  0
   30.9217  -16.7697  -17.6749 C   0  0  0  0  0  0  0  0  0  0  0  0
   30.6918  -17.5210  -16.5425 C   0  0  0  0  0  0  0  0  0  0  0  0
   29.4477  -18.0471  -16.2728 C   0  0  0  0  0  0  0  0  0  0  0  0
   28.3803  -17.8370  -17.1372 C   0  0  0  0  0  0  0  0  0  0  0  0
   26.8199  -21.0417  -14.6742 C   0  0  0  0  0  0  0  0  0  0  0  0
   25.9517  -21.9303  -14.8544 O   0  0  0  0  0  0  0  0  0  0  0  0
   27.6630  -20.0013   -5.7940 N   0  0  0  0  0  0  0  0  0  0  0  0
   26.3792  -20.5595   -6.0118 C   0  0  0  0  0  0  0  0  0  0  0  0
   25.5535  -20.8849   -5.0763 N   0  0  0  0  0  0  0  0  0  0  0  0
   25.9789  -20.7704   -7.3648 N   0  0  0  0  0  0  0  0  0  0  0  0
   26.8389  -20.4799   -8.5037 C   0  0  0  0  0  0  0  0  0  0  0  0
   26.1963  -20.8988   -9.7976 C   0  0  0  0  0  0  0  0  0  0  0  0
   27.1207  -20.6200  -10.9394 C   0  0  0  0  0  0  0  0  0  0  0  0
   26.5115  -21.0200  -12.2311 C   0  0  2  0  0  0  0  0  0  0  0  0
   27.3448  -20.8153  -13.3801 N   0  0  0  0  0  0  0  0  0  0  0  0
   25.2167  -20.2967  -12.4808 C   0  0  0  0  0  0  0  0  0  0  0  0
   25.2870  -19.1024  -12.8472 O   0  0  0  0  0  0  0  0  0  0  0  0
   24.6299  -21.3166   -5.3555 N   0  0  0  0  0  0  0  0  0  0  0  0
   23.9443  -20.8846  -12.3276 C   0  0  1  0  0  0  0  0  0  0  0  0
   22.7146  -20.1838  -12.7528 C   0  0  0  0  0  0  0  0  0  0  0  0
   22.8093  -19.8342  -14.1985 C   0  0  0  0  0  0  0  0  0  0  0  0
   21.6278  -19.1085  -14.6710 C   0  0  0  0  0  0  0  0  0  0  0  0
   20.5423  -18.7676  -13.8363 N   0  0  0  0  0  0  0  0  0  0  0  0
   19.6484  -18.1203  -14.6079 C   0  0  0  0  0  0  0  0  0  0  0  0
   20.1021  -18.0344  -15.8666 N   0  0  0  0  0  0  0  0  0  0  0  0
   21.2992  -18.6406  -15.8706 C   0  0  0  0  0  0  0  0  0  0  0  0
   21.5463  -21.0244  -12.4906 O   0  0  0  0  0  0  0  0  0  0  0  0
   21.1871  -22.2085  -13.0793 O   0  0  0  0  0  0  0  0  0  0  0  0
  2  1  1  6
  3  2  1  0
  3  4  1  0
  4  5  2  0
  5  6  1  0
  7  6  1  0
  8  7  2  0
  9  8  1  0
 10 11  1  0
 10  9  2  0
 11 12  2  0
 12  4  1  0
 12  7  1  0
 13  2  1  0
 13 14  2  0
 16 15  1  0
 17 16  2  0
 18 16  1  0
 19 20  1  0
 19 18  1  0
 20 21  1  0
 22 21  1  1
 22 23  1  0
 23 13  1  0
 24 22  1  0
 25 24  2  0
 26 24  1  0
 27 26  1  0
 27 34  1  0
 27 28  1  1
 29 28  1  0
 30 29  2  0
 31 30  1  0
 32 31  1  0
 32 33  2  0
 33 29  1  0
 34 35  1  0
 36 34  2  0
M  END
$$$$
