YDG.pdb
     RDKit          3D

 25 25  0  0  1  0  0  0  0  0999 V2000
   27.6067  -19.5159   -5.3019 O   0  0  0  0  0  0  0  0  0  0  0  0
   26.9660  -19.6723   -6.5259 C   0  0  0  0  0  0  0  0  0  0  0  0
   27.1578  -18.7478   -7.5303 C   0  0  0  0  0  0  0  0  0  0  0  0
   26.5479  -18.8528   -8.7638 C   0  0  0  0  0  0  0  0  0  0  0  0
   25.7079  -19.9242   -9.0151 C   0  0  0  0  0  0  0  0  0  0  0  0
   25.0339  -20.0829  -10.3030 C   0  0  0  0  0  0  0  0  0  0  0  0
   25.5114  -21.2643  -11.1100 C   0  0  2  0  0  0  0  0  0  0  0  0
   26.9184  -21.1640  -11.4388 N   0  0  0  0  0  0  0  0  0  0  0  0
   24.7492  -21.2151  -12.3964 C   0  0  0  0  0  0  0  0  0  0  0  0
   24.8761  -20.2095  -13.1185 O   0  0  0  0  0  0  0  0  0  0  0  0
   25.4910  -20.8677   -8.0385 C   0  0  0  0  0  0  0  0  0  0  0  0
   26.1238  -20.7283   -6.8062 C   0  0  0  0  0  0  0  0  0  0  0  0
   23.9014  -22.2662  -12.8069 N   0  0  0  0  0  0  0  0  0  0  0  0
   23.1766  -22.0990  -14.0769 C   0  0  1  0  0  0  0  0  0  0  0  0
   23.5275  -23.3586  -14.8591 C   0  0  0  0  0  0  0  0  0  0  0  0
   24.9471  -23.3242  -15.2306 C   0  0  0  0  0  0  0  0  0  0  0  0
   25.6754  -24.2982  -14.8216 O   0  0  0  0  0  0  0  0  0  0  0  0
   21.7395  -21.9854  -13.8511 C   0  0  0  0  0  0  0  0  0  0  0  0
   20.8727  -22.0522  -14.7690 O   0  0  0  0  0  0  0  0  0  0  0  0
   25.4848  -22.2899  -15.9890 O   0  0  0  0  0  0  0  0  0  0  0  0
   21.2366  -21.7914  -12.5372 N   0  0  0  0  0  0  0  0  0  0  0  0
   19.8217  -21.5108  -12.2968 C   0  0  0  0  0  0  0  0  0  0  0  0
   19.3715  -20.3623  -13.0871 C   0  0  0  0  0  0  0  0  0  0  0  0
   19.9036  -19.2386  -12.9251 O   0  0  0  0  0  0  0  0  0  0  0  0
   18.3558  -20.4978  -14.0210 O   0  0  0  0  0  0  0  0  0  0  0  0
  2  1  1  0
  3  2  2  0
  4  5  2  0
  4  3  1  0
  5 11  1  0
  6  5  1  0
  7  6  1  0
  7  8  1  6
  9  7  1  0
  9 10  2  0
 11 12  2  0
 12  2  1  0
 13  9  1  0
 14 13  1  0
 14 15  1  6
 16 15  1  0
 16 17  2  0
 18 14  1  0
 19 18  2  0
 20 16  1  0
 21 18  1  0
 22 21  1  0
 23 22  1  0
 24 23  2  0
 25 23  1  0
M  END
$$$$
