YDG.pdb
     RDKit          3D

 25 25  0  0  1  0  0  0  0  0999 V2000
   29.9055  -19.5902  -19.6810 O   0  0  0  0  0  0  0  0  0  0  0  0
   29.0101  -18.5571  -19.4280 C   0  0  0  0  0  0  0  0  0  0  0  0
   28.9844  -17.4480  -20.2463 C   0  0  0  0  0  0  0  0  0  0  0  0
   28.1174  -16.3939  -20.0426 C   0  0  0  0  0  0  0  0  0  0  0  0
   27.2336  -16.4397  -18.9780 C   0  0  0  0  0  0  0  0  0  0  0  0
   26.2956  -15.3494  -18.7142 C   0  0  0  0  0  0  0  0  0  0  0  0
   24.9147  -15.5706  -19.2792 C   0  0  2  0  0  0  0  0  0  0  0  0
   24.9356  -15.7236  -20.7193 N   0  0  0  0  0  0  0  0  0  0  0  0
   24.1446  -14.3245  -18.9750 C   0  0  0  0  0  0  0  0  0  0  0  0
   24.0205  -13.9843  -17.7845 O   0  0  0  0  0  0  0  0  0  0  0  0
   27.2285  -17.5292  -18.1390 C   0  0  0  0  0  0  0  0  0  0  0  0
   28.1179  -18.5738  -18.3760 C   0  0  0  0  0  0  0  0  0  0  0  0
   23.5632  -13.5351  -19.9904 N   0  0  0  0  0  0  0  0  0  0  0  0
   22.7906  -12.3533  -19.5748 C   0  0  1  0  0  0  0  0  0  0  0  0
   22.9742  -11.3792  -20.7319 C   0  0  0  0  0  0  0  0  0  0  0  0
   22.4258  -10.0694  -20.3604 C   0  0  0  0  0  0  0  0  0  0  0  0
   21.9551   -9.9557  -19.1721 O   0  0  0  0  0  0  0  0  0  0  0  0
   21.3857  -12.6895  -19.3686 C   0  0  0  0  0  0  0  0  0  0  0  0
   20.7301  -13.4727  -20.1137 O   0  0  0  0  0  0  0  0  0  0  0  0
   22.4132   -8.9981  -21.2472 O   0  0  0  0  0  0  0  0  0  0  0  0
   20.6710  -12.1307  -18.2761 N   0  0  0  0  0  0  0  0  0  0  0  0
   19.2596  -12.4399  -18.0511 C   0  0  0  0  0  0  0  0  0  0  0  0
   19.1056  -13.4904  -17.0415 C   0  0  0  0  0  0  0  0  0  0  0  0
   17.9627  -13.8995  -16.7273 O   0  0  0  0  0  0  0  0  0  0  0  0
   20.2137  -14.0458  -16.4205 O   0  0  0  0  0  0  0  0  0  0  0  0
  2  1  1  0
  3  2  2  0
  4  5  2  0
  4  3  1  0
  5 11  1  0
  6  5  1  0
  7  6  1  0
  7  8  1  6
  9  7  1  0
  9 10  2  0
 11 12  2  0
 12  2  1  0
 13  9  1  0
 14 13  1  0
 14 15  1  6
 16 15  1  0
 16 17  2  0
 18 14  1  0
 19 18  2  0
 20 16  1  0
 21 18  1  0
 22 21  1  0
 23 22  1  0
 24 23  2  0
 25 23  1  0
M  END
$$$$
