YDG.pdb
     RDKit          3D

 25 25  0  0  1  0  0  0  0  0999 V2000
   29.1749  -18.7862   -4.1743 O   0  0  0  0  0  0  0  0  0  0  0  0
   28.6250  -19.2356   -5.3696 C   0  0  0  0  0  0  0  0  0  0  0  0
   27.7576  -18.4314   -6.0776 C   0  0  0  0  0  0  0  0  0  0  0  0
   27.1826  -18.8257   -7.2685 C   0  0  0  0  0  0  0  0  0  0  0  0
   27.4805  -20.0759   -7.7834 C   0  0  0  0  0  0  0  0  0  0  0  0
   26.8974  -20.5454   -9.0395 C   0  0  0  0  0  0  0  0  0  0  0  0
   25.3916  -20.4736   -9.0879 C   0  0  2  0  0  0  0  0  0  0  0  0
   24.7767  -21.2609   -8.0394 N   0  0  0  0  0  0  0  0  0  0  0  0
   24.9954  -21.0853  -10.3944 C   0  0  0  0  0  0  0  0  0  0  0  0
   25.1827  -22.3051  -10.5549 O   0  0  0  0  0  0  0  0  0  0  0  0
   28.3415  -20.9075   -7.1066 C   0  0  0  0  0  0  0  0  0  0  0  0
   28.9023  -20.4752   -5.9078 C   0  0  0  0  0  0  0  0  0  0  0  0
   24.4216  -20.3247  -11.4358 N   0  0  0  0  0  0  0  0  0  0  0  0
   24.1265  -21.0168  -12.7007 C   0  0  1  0  0  0  0  0  0  0  0  0
   22.8602  -20.3310  -13.1983 C   0  0  0  0  0  0  0  0  0  0  0  0
   21.7708  -20.5615  -12.2420 C   0  0  0  0  0  0  0  0  0  0  0  0
   21.3787  -21.7742  -12.0938 O   0  0  0  0  0  0  0  0  0  0  0  0
   25.2272  -20.8734  -13.6478 C   0  0  0  0  0  0  0  0  0  0  0  0
   25.4421  -19.8298  -14.3283 O   0  0  0  0  0  0  0  0  0  0  0  0
   21.1866  -19.5216  -11.5269 O   0  0  0  0  0  0  0  0  0  0  0  0
   26.1404  -21.9424  -13.8482 N   0  0  0  0  0  0  0  0  0  0  0  0
   26.6135  -22.2997  -15.1849 C   0  0  0  0  0  0  0  0  0  0  0  0
   27.5763  -21.3143  -15.6831 C   0  0  0  0  0  0  0  0  0  0  0  0
   28.7313  -21.2609  -15.1981 O   0  0  0  0  0  0  0  0  0  0  0  0
   27.2285  -20.4298  -16.6924 O   0  0  0  0  0  0  0  0  0  0  0  0
  2  1  1  0
  3  2  2  0
  4  5  2  0
  4  3  1  0
  5 11  1  0
  6  5  1  0
  7  6  1  0
  7  8  1  1
  9  7  1  0
  9 10  2  0
 11 12  2  0
 12  2  1  0
 13  9  1  0
 14 13  1  0
 14 15  1  6
 16 15  1  0
 16 17  2  0
 18 14  1  0
 19 18  2  0
 20 16  1  0
 21 18  1  0
 22 21  1  0
 23 22  1  0
 24 23  2  0
 25 23  1  0
M  END
$$$$
