YDG.pdb
     RDKit          3D

 25 25  0  0  1  0  0  0  0  0999 V2000
   29.3488  -19.5792   -4.7081 O   0  0  0  0  0  0  0  0  0  0  0  0
   28.4317  -19.8962   -5.7039 C   0  0  0  0  0  0  0  0  0  0  0  0
   28.8303  -20.6228   -6.8055 C   0  0  0  0  0  0  0  0  0  0  0  0
   27.9637  -20.9655   -7.8232 C   0  0  0  0  0  0  0  0  0  0  0  0
   26.6391  -20.5701   -7.7470 C   0  0  0  0  0  0  0  0  0  0  0  0
   25.6789  -20.9033   -8.7983 C   0  0  0  0  0  0  0  0  0  0  0  0
   25.9350  -20.2100  -10.1131 C   0  0  2  0  0  0  0  0  0  0  0  0
   26.3797  -18.8440   -9.9287 N   0  0  0  0  0  0  0  0  0  0  0  0
   24.6130  -20.1574  -10.8114 C   0  0  0  0  0  0  0  0  0  0  0  0
   23.7358  -19.4011  -10.3562 O   0  0  0  0  0  0  0  0  0  0  0  0
   26.2028  -19.8438   -6.6639 C   0  0  0  0  0  0  0  0  0  0  0  0
   27.1063  -19.5167   -5.6564 C   0  0  0  0  0  0  0  0  0  0  0  0
   24.3389  -20.9329  -11.9584 N   0  0  0  0  0  0  0  0  0  0  0  0
   23.0231  -20.7633  -12.5957 C   0  0  1  0  0  0  0  0  0  0  0  0
   23.3379  -20.8042  -14.0859 C   0  0  0  0  0  0  0  0  0  0  0  0
   23.5057  -19.4352  -14.5882 C   0  0  0  0  0  0  0  0  0  0  0  0
   22.7782  -18.5275  -14.0466 O   0  0  0  0  0  0  0  0  0  0  0  0
   22.1088  -21.8318  -12.2065 C   0  0  0  0  0  0  0  0  0  0  0  0
   22.2741  -23.0481  -12.5092 O   0  0  0  0  0  0  0  0  0  0  0  0
   24.4073  -19.1282  -15.6015 O   0  0  0  0  0  0  0  0  0  0  0  0
   20.9519  -21.5366  -11.4376 N   0  0  0  0  0  0  0  0  0  0  0  0
   19.6078  -21.7035  -11.9889 C   0  0  0  0  0  0  0  0  0  0  0  0
   19.2095  -23.1134  -11.9867 C   0  0  0  0  0  0  0  0  0  0  0  0
   19.4606  -23.8404  -12.9770 O   0  0  0  0  0  0  0  0  0  0  0  0
   18.5524  -23.6636  -10.8971 O   0  0  0  0  0  0  0  0  0  0  0  0
  2  1  1  0
  3  2  2  0
  4  5  2  0
  4  3  1  0
  5 11  1  0
  6  5  1  0
  7  6  1  0
  7  8  1  1
  9  7  1  0
  9 10  2  0
 11 12  2  0
 12  2  1  0
 13  9  1  0
 14 13  1  0
 14 15  1  6
 16 15  1  0
 16 17  2  0
 18 14  1  0
 19 18  2  0
 20 16  1  0
 21 18  1  0
 22 21  1  0
 23 22  1  0
 24 23  2  0
 25 23  1  0
M  END
$$$$
