YDG.pdb
     RDKit          3D

 25 25  0  0  1  0  0  0  0  0999 V2000
   31.1357  -11.7384  -18.3239 O   0  0  0  0  0  0  0  0  0  0  0  0
   29.8142  -11.3706  -18.0972 C   0  0  0  0  0  0  0  0  0  0  0  0
   29.5248  -10.2997  -17.2789 C   0  0  0  0  0  0  0  0  0  0  0  0
   28.2326   -9.8907  -17.0189 C   0  0  0  0  0  0  0  0  0  0  0  0
   27.1765  -10.5745  -17.5965 C   0  0  0  0  0  0  0  0  0  0  0  0
   25.7880  -10.1858  -17.3529 C   0  0  0  0  0  0  0  0  0  0  0  0
   25.0968  -10.9959  -16.2848 C   0  0  2  0  0  0  0  0  0  0  0  0
   25.1202  -12.4139  -16.5787 N   0  0  0  0  0  0  0  0  0  0  0  0
   23.6655  -10.5608  -16.3044 C   0  0  0  0  0  0  0  0  0  0  0  0
   22.9097  -11.0592  -17.1583 O   0  0  0  0  0  0  0  0  0  0  0  0
   27.4242  -11.6483  -18.4190 C   0  0  0  0  0  0  0  0  0  0  0  0
   28.7411  -12.0317  -18.6581 C   0  0  0  0  0  0  0  0  0  0  0  0
   23.1569   -9.6125  -15.3911 N   0  0  0  0  0  0  0  0  0  0  0  0
   21.7227   -9.2917  -15.4716 C   0  0  1  0  0  0  0  0  0  0  0  0
   21.1325   -9.9750  -14.2444 C   0  0  0  0  0  0  0  0  0  0  0  0
   19.6815   -9.7556  -14.2127 C   0  0  0  0  0  0  0  0  0  0  0  0
   19.0509   -9.8988  -15.3209 O   0  0  0  0  0  0  0  0  0  0  0  0
   21.5044   -7.8492  -15.4450 C   0  0  0  0  0  0  0  0  0  0  0  0
   20.3833   -7.3006  -15.6462 O   0  0  0  0  0  0  0  0  0  0  0  0
   19.0147   -9.4091  -13.0425 O   0  0  0  0  0  0  0  0  0  0  0  0
   22.5858   -6.9684  -15.1771 N   0  0  0  0  0  0  0  0  0  0  0  0
   22.4056   -5.5173  -15.1827 C   0  0  0  0  0  0  0  0  0  0  0  0
   21.9535   -5.0382  -13.8741 C   0  0  0  0  0  0  0  0  0  0  0  0
   21.8694   -3.8077  -13.6483 O   0  0  0  0  0  0  0  0  0  0  0  0
   21.6135   -5.9316  -12.8700 O   0  0  0  0  0  0  0  0  0  0  0  0
  2  1  1  0
  3  2  2  0
  4  5  2  0
  4  3  1  0
  5 11  1  0
  6  5  1  0
  7  6  1  0
  7  8  1  6
  9  7  1  0
  9 10  2  0
 11 12  2  0
 12  2  1  0
 13  9  1  0
 14 13  1  0
 14 15  1  1
 16 15  1  0
 16 17  2  0
 18 14  1  0
 19 18  2  0
 20 16  1  0
 21 18  1  0
 22 21  1  0
 23 22  1  0
 24 23  2  0
 25 23  1  0
M  END
$$$$
