YDG.pdb
     RDKit          3D

 25 25  0  0  1  0  0  0  0  0999 V2000
   35.7891  -36.6148   -4.9081 O   0  0  0  0  0  0  0  0  0  0  0  0
   34.5724  -35.9526   -4.7896 C   0  0  0  0  0  0  0  0  0  0  0  0
   33.7603  -35.7949   -5.8923 C   0  0  0  0  0  0  0  0  0  0  0  0
   32.5434  -35.1469   -5.8327 C   0  0  0  0  0  0  0  0  0  0  0  0
   32.1095  -34.6301   -4.6238 C   0  0  0  0  0  0  0  0  0  0  0  0
   30.8303  -33.9319   -4.5045 C   0  0  0  0  0  0  0  0  0  0  0  0
   29.6507  -34.7056   -5.0383 C   0  0  2  0  0  0  0  0  0  0  0  0
   29.2561  -34.2528   -6.3562 N   0  0  0  0  0  0  0  0  0  0  0  0
   28.5157  -34.4127   -4.1086 C   0  0  0  0  0  0  0  0  0  0  0  0
   27.8829  -33.3529   -4.2667 O   0  0  0  0  0  0  0  0  0  0  0  0
   32.8913  -34.7671   -3.5008 C   0  0  0  0  0  0  0  0  0  0  0  0
   34.1131  -35.4272   -3.5996 C   0  0  0  0  0  0  0  0  0  0  0  0
   28.1487  -35.2961   -3.0708 N   0  0  0  0  0  0  0  0  0  0  0  0
   27.0985  -34.8529   -2.1398 C   0  0  1  0  0  0  0  0  0  0  0  0
   25.9349  -35.7900   -2.4387 C   0  0  0  0  0  0  0  0  0  0  0  0
   24.7840  -35.4222   -1.6052 C   0  0  0  0  0  0  0  0  0  0  0  0
   24.8231  -34.2700   -1.0417 O   0  0  0  0  0  0  0  0  0  0  0  0
   27.5421  -34.9663   -0.7543 C   0  0  0  0  0  0  0  0  0  0  0  0
   26.8013  -34.7419    0.2453 O   0  0  0  0  0  0  0  0  0  0  0  0
   23.6997  -36.2751   -1.4294 O   0  0  0  0  0  0  0  0  0  0  0  0
   28.8770  -35.3530   -0.4616 N   0  0  0  0  0  0  0  0  0  0  0  0
   29.3260  -35.5590    0.9147 C   0  0  0  0  0  0  0  0  0  0  0  0
   30.7124  -36.0311    0.9508 C   0  0  0  0  0  0  0  0  0  0  0  0
   31.2521  -36.3172    2.0457 O   0  0  0  0  0  0  0  0  0  0  0  0
   31.4460  -36.1682   -0.2175 O   0  0  0  0  0  0  0  0  0  0  0  0
  2  1  1  0
  3  2  2  0
  4  5  2  0
  4  3  1  0
  5 11  1  0
  6  5  1  0
  7  6  1  0
  7  8  1  6
  9  7  1  0
  9 10  2  0
 11 12  2  0
 12  2  1  0
 13  9  1  0
 14 13  1  0
 14 15  1  1
 16 15  1  0
 16 17  2  0
 18 14  1  0
 19 18  2  0
 20 16  1  0
 21 18  1  0
 22 21  1  0
 23 22  1  0
 24 23  2  0
 25 23  1  0
M  END
$$$$
