DCH.pdb
     RDKit          3D

 25 25  0  0  1  0  0  0  0  0999 V2000
    9.6140  -15.4511   14.3691 N   0  0  0  0  0  0  0  0  0  0  0  0
    9.2122  -16.2466   15.5017 C   0  0  1  0  0  0  0  0  0  0  0  0
    9.7973  -17.6356   15.4167 C   0  0  0  0  0  0  0  0  0  0  0  0
    9.2630  -18.3857   14.2477 C   0  0  0  0  0  0  0  0  0  0  0  0
    8.0247  -18.4451   14.0485 O   0  0  0  0  0  0  0  0  0  0  0  0
    9.5483  -15.5641   16.7618 C   0  0  0  0  0  0  0  0  0  0  0  0
   10.7644  -15.3028   17.0179 O   0  0  0  0  0  0  0  0  0  0  0  0
   10.1401  -19.0070   13.3969 O   0  0  0  0  0  0  0  0  0  0  0  0
    8.6151  -15.1621   17.7394 N   0  0  0  0  0  0  0  0  0  0  0  0
    8.9331  -14.4627   18.9473 C   0  0  1  0  0  0  0  0  0  0  0  0
    7.7333  -13.8550   19.6282 C   0  0  0  0  0  0  0  0  0  0  0  0
    6.8542  -12.7265   18.4928 S   0  0  0  0  0  0  0  0  0  0  0  0
    9.5900  -15.3395   19.9553 C   0  0  0  0  0  0  0  0  0  0  0  0
    9.2341  -16.5450   20.0052 O   0  0  0  0  0  0  0  0  0  0  0  0
   10.5816  -14.8932   20.8491 N   0  0  0  0  0  0  0  0  0  0  0  0
   11.2110  -15.7356   21.8609 C   0  0  1  0  0  0  0  0  0  0  0  0
   12.4805  -15.1447   22.3609 C   0  0  0  0  0  0  0  0  0  0  0  0
   13.5351  -15.2026   21.3394 C   0  0  0  0  0  0  0  0  0  0  0  0
   13.5763  -15.8668   20.1379 C   0  0  0  0  0  0  0  0  0  0  0  0
   14.7825  -15.6344   19.5604 N   0  0  0  0  0  0  0  0  0  0  0  0
   15.4908  -14.8473   20.3658 C   0  0  0  0  0  0  0  0  0  0  0  0
   14.7463  -14.5847   21.4367 N   0  0  0  0  0  0  0  0  0  0  0  0
   10.2396  -15.8780   22.9621 C   0  0  0  0  0  0  0  0  0  0  0  0
    9.1590  -15.2008   23.0197 O   0  0  0  0  0  0  0  0  0  0  0  0
   10.4543  -16.7781   24.0202 O   0  0  0  0  0  0  0  0  0  0  0  0
  2  1  1  6
  2  3  1  0
  4  3  1  0
  5  4  2  0
  6  2  1  0
  6  7  2  0
  8  4  1  0
  9  6  1  0
 10  9  1  0
 10 13  1  0
 10 11  1  1
 12 11  1  0
 13 15  1  0
 14 13  2  0
 15 16  1  0
 16 17  1  1
 17 18  1  0
 18 19  2  0
 18 22  1  0
 19 20  1  0
 20 21  1  0
 22 21  2  0
 23 25  1  0
 23 16  1  0
 24 23  2  0
M  END
$$$$
