DCH.pdb
     RDKit          3D

 25 25  0  0  1  0  0  0  0  0999 V2000
   11.1754  -18.1197   18.5222 N   0  0  0  0  0  0  0  0  0  0  0  0
   11.7228  -19.1946   19.3109 C   0  0  1  0  0  0  0  0  0  0  0  0
   12.8515  -19.8778   18.5775 C   0  0  0  0  0  0  0  0  0  0  0  0
   12.4266  -20.3463   17.2304 C   0  0  0  0  0  0  0  0  0  0  0  0
   11.3070  -20.8937   17.0769 O   0  0  0  0  0  0  0  0  0  0  0  0
   12.1205  -18.7114   20.6432 C   0  0  0  0  0  0  0  0  0  0  0  0
   13.0521  -17.8534   20.7368 O   0  0  0  0  0  0  0  0  0  0  0  0
   13.2728  -20.1714   16.1662 O   0  0  0  0  0  0  0  0  0  0  0  0
   11.5440  -19.1268   21.8612 N   0  0  0  0  0  0  0  0  0  0  0  0
   11.8642  -18.5947   23.1510 C   0  0  1  0  0  0  0  0  0  0  0  0
   10.9377  -17.4927   23.5977 C   0  0  0  0  0  0  0  0  0  0  0  0
    9.3399  -17.6023   22.7200 S   0  0  0  0  0  0  0  0  0  0  0  0
   11.8296  -19.6322   24.2181 C   0  0  0  0  0  0  0  0  0  0  0  0
   10.8330  -20.3986   24.2592 O   0  0  0  0  0  0  0  0  0  0  0  0
   12.8468  -19.7992   25.1767 N   0  0  0  0  0  0  0  0  0  0  0  0
   12.8309  -20.8218   26.2176 C   0  0  1  0  0  0  0  0  0  0  0  0
   14.1935  -21.3469   26.4980 C   0  0  0  0  0  0  0  0  0  0  0  0
   14.7274  -22.0879   25.3470 C   0  0  0  0  0  0  0  0  0  0  0  0
   14.1459  -22.4045   24.1437 C   0  0  0  0  0  0  0  0  0  0  0  0
   15.0332  -23.1295   23.4160 N   0  0  0  0  0  0  0  0  0  0  0  0
   16.1465  -23.2729   24.1302 C   0  0  0  0  0  0  0  0  0  0  0  0
   15.9685  -22.6490   25.2917 N   0  0  0  0  0  0  0  0  0  0  0  0
   12.2621  -20.1929   27.4249 C   0  0  0  0  0  0  0  0  0  0  0  0
   12.1110  -20.8238   28.5244 O   0  0  0  0  0  0  0  0  0  0  0  0
   11.8510  -18.8487   27.4296 O   0  0  0  0  0  0  0  0  0  0  0  0
  2  1  1  6
  2  3  1  0
  4  3  1  0
  5  4  2  0
  6  2  1  0
  6  7  2  0
  8  4  1  0
  9  6  1  0
 10  9  1  0
 10 13  1  0
 10 11  1  1
 12 11  1  0
 13 15  1  0
 14 13  2  0
 15 16  1  0
 16 17  1  1
 17 18  1  0
 18 19  2  0
 18 22  1  0
 19 20  1  0
 20 21  1  0
 22 21  2  0
 23 25  1  0
 23 16  1  0
 24 23  2  0
M  END
$$$$
