DCH.pdb
     RDKit          3D

 25 25  0  0  1  0  0  0  0  0999 V2000
    7.9967  -14.3566   20.1107 N   0  0  0  0  0  0  0  0  0  0  0  0
    7.5933  -15.2039   21.2044 C   0  0  1  0  0  0  0  0  0  0  0  0
    7.7196  -16.6608   20.8298 C   0  0  0  0  0  0  0  0  0  0  0  0
    6.8846  -16.9971   19.6447 C   0  0  0  0  0  0  0  0  0  0  0  0
    7.0990  -18.0537   19.0011 O   0  0  0  0  0  0  0  0  0  0  0  0
    8.3388  -14.8645   22.4273 C   0  0  0  0  0  0  0  0  0  0  0  0
    9.6036  -14.7648   22.3724 O   0  0  0  0  0  0  0  0  0  0  0  0
    5.8832  -16.1393   19.2698 O   0  0  0  0  0  0  0  0  0  0  0  0
    7.7592  -14.6330   23.6917 N   0  0  0  0  0  0  0  0  0  0  0  0
    8.4810  -14.5123   24.9221 C   0  0  1  0  0  0  0  0  0  0  0  0
    7.8407  -13.5700   25.9091 C   0  0  0  0  0  0  0  0  0  0  0  0
    6.1143  -13.2150   25.4305 S   0  0  0  0  0  0  0  0  0  0  0  0
    8.6315  -15.8173   25.6227 C   0  0  0  0  0  0  0  0  0  0  0  0
    7.5902  -16.4865   25.8468 O   0  0  0  0  0  0  0  0  0  0  0  0
    9.8695  -16.3378   26.0444 N   0  0  0  0  0  0  0  0  0  0  0  0
   10.0409  -17.6552   26.6481 C   0  0  1  0  0  0  0  0  0  0  0  0
   11.2350  -18.3591   26.1099 C   0  0  0  0  0  0  0  0  0  0  0  0
   11.1046  -18.6052   24.6673 C   0  0  0  0  0  0  0  0  0  0  0  0
   10.0022  -18.5492   23.8499 C   0  0  0  0  0  0  0  0  0  0  0  0
   10.3830  -18.8891   22.5921 N   0  0  0  0  0  0  0  0  0  0  0  0
   11.6866  -19.1546   22.6037 C   0  0  0  0  0  0  0  0  0  0  0  0
   12.1257  -18.9857   23.8482 N   0  0  0  0  0  0  0  0  0  0  0  0
   10.1785  -17.4440   28.1017 C   0  0  0  0  0  0  0  0  0  0  0  0
   10.1980  -16.2822   28.6304 O   0  0  0  0  0  0  0  0  0  0  0  0
   10.2968  -18.5239   28.9937 O   0  0  0  0  0  0  0  0  0  0  0  0
  2  1  1  6
  2  3  1  0
  4  3  1  0
  5  4  2  0
  6  2  1  0
  6  7  2  0
  8  4  1  0
  9  6  1  0
 10  9  1  0
 10 13  1  0
 10 11  1  1
 12 11  1  0
 13 15  1  0
 14 13  2  0
 15 16  1  0
 16 17  1  6
 17 18  1  0
 18 19  2  0
 18 22  1  0
 19 20  1  0
 20 21  1  0
 22 21  2  0
 23 25  1  0
 23 16  1  0
 24 23  2  0
M  END
$$$$
