DCH.pdb
     RDKit          3D

 25 25  0  0  1  0  0  0  0  0999 V2000
    9.9792  -18.5883   20.8661 N   0  0  0  0  0  0  0  0  0  0  0  0
   10.9868  -17.6658   21.3252 C   0  0  1  0  0  0  0  0  0  0  0  0
   11.4626  -16.7847   20.1956 C   0  0  0  0  0  0  0  0  0  0  0  0
   12.0952  -17.5799   19.1083 C   0  0  0  0  0  0  0  0  0  0  0  0
   13.1120  -18.2772   19.3462 O   0  0  0  0  0  0  0  0  0  0  0  0
   10.4986  -16.8954   22.4805 C   0  0  0  0  0  0  0  0  0  0  0  0
   11.2833  -16.0788   23.0550 O   0  0  0  0  0  0  0  0  0  0  0  0
   11.5525  -17.5388   17.8502 O   0  0  0  0  0  0  0  0  0  0  0  0
    9.2003  -16.9841   23.0233 N   0  0  0  0  0  0  0  0  0  0  0  0
    8.7315  -16.2619   24.1670 C   0  0  1  0  0  0  0  0  0  0  0  0
    7.2940  -15.8218   24.0571 C   0  0  0  0  0  0  0  0  0  0  0  0
    6.2251  -17.2296   23.5984 S   0  0  0  0  0  0  0  0  0  0  0  0
    8.8338  -17.0566   25.4218 C   0  0  0  0  0  0  0  0  0  0  0  0
    8.3274  -16.5718   26.4662 O   0  0  0  0  0  0  0  0  0  0  0  0
    9.4632  -18.3133   25.4999 N   0  0  0  0  0  0  0  0  0  0  0  0
    9.6128  -19.0788   26.7332 C   0  0  1  0  0  0  0  0  0  0  0  0
    9.4312  -20.5367   26.5048 C   0  0  0  0  0  0  0  0  0  0  0  0
    8.1252  -20.8232   25.8956 C   0  0  0  0  0  0  0  0  0  0  0  0
    7.0476  -20.0018   25.6707 C   0  0  0  0  0  0  0  0  0  0  0  0
    6.0571  -20.7385   25.1062 N   0  0  0  0  0  0  0  0  0  0  0  0
    6.4862  -21.9909   24.9742 C   0  0  0  0  0  0  0  0  0  0  0  0
    7.7284  -22.0478   25.4471 N   0  0  0  0  0  0  0  0  0  0  0  0
   10.9683  -18.8019   27.2455 C   0  0  0  0  0  0  0  0  0  0  0  0
   11.7850  -18.0234   26.6483 O   0  0  0  0  0  0  0  0  0  0  0  0
   11.4393  -19.3877   28.4333 O   0  0  0  0  0  0  0  0  0  0  0  0
  2  1  1  6
  2  3  1  0
  4  3  1  0
  5  4  2  0
  6  2  1  0
  6  7  2  0
  8  4  1  0
  9  6  1  0
 10  9  1  0
 10 13  1  0
 10 11  1  6
 12 11  1  0
 13 15  1  0
 14 13  2  0
 15 16  1  0
 16 17  1  6
 17 18  1  0
 18 19  2  0
 18 22  1  0
 19 20  1  0
 20 21  1  0
 22 21  2  0
 23 25  1  0
 23 16  1  0
 24 23  2  0
M  END
$$$$
