DCH.pdb
     RDKit          3D

 25 25  0  0  1  0  0  0  0  0999 V2000
   12.4133  -16.2404   17.0993 N   0  0  0  0  0  0  0  0  0  0  0  0
   13.2776  -15.3517   17.8343 C   0  0  1  0  0  0  0  0  0  0  0  0
   13.7807  -14.2378   16.9484 C   0  0  0  0  0  0  0  0  0  0  0  0
   15.2136  -14.4243   16.5924 C   0  0  0  0  0  0  0  0  0  0  0  0
   15.7799  -15.5235   16.8102 O   0  0  0  0  0  0  0  0  0  0  0  0
   12.6040  -14.8552   19.0452 C   0  0  0  0  0  0  0  0  0  0  0  0
   12.0750  -13.7009   19.0289 O   0  0  0  0  0  0  0  0  0  0  0  0
   15.9007  -13.3822   16.0259 O   0  0  0  0  0  0  0  0  0  0  0  0
   12.4893  -15.5658   20.2577 N   0  0  0  0  0  0  0  0  0  0  0  0
   11.6417  -15.2013   21.3523 C   0  0  1  0  0  0  0  0  0  0  0  0
   10.1828  -15.1116   20.9839 C   0  0  0  0  0  0  0  0  0  0  0  0
    9.1557  -14.8952   22.4783 S   0  0  0  0  0  0  0  0  0  0  0  0
   11.7316  -16.1631   22.4850 C   0  0  0  0  0  0  0  0  0  0  0  0
   11.3877  -17.3542   22.2721 O   0  0  0  0  0  0  0  0  0  0  0  0
   12.1780  -15.8117   23.7729 N   0  0  0  0  0  0  0  0  0  0  0  0
   13.0255  -16.6593   24.6053 C   0  0  1  0  0  0  0  0  0  0  0  0
   14.2462  -15.9433   25.0613 C   0  0  0  0  0  0  0  0  0  0  0  0
   15.3132  -16.0118   24.0535 C   0  0  0  0  0  0  0  0  0  0  0  0
   15.2432  -16.0350   22.6820 C   0  0  0  0  0  0  0  0  0  0  0  0
   16.5044  -16.1330   22.1897 N   0  0  0  0  0  0  0  0  0  0  0  0
   17.3543  -16.1718   23.2125 C   0  0  0  0  0  0  0  0  0  0  0  0
   16.6441  -16.0994   24.3352 N   0  0  0  0  0  0  0  0  0  0  0  0
   12.2090  -17.0747   25.7618 C   0  0  0  0  0  0  0  0  0  0  0  0
   12.6550  -17.8403   26.6808 O   0  0  0  0  0  0  0  0  0  0  0  0
   10.8797  -16.6445   25.9159 O   0  0  0  0  0  0  0  0  0  0  0  0
  2  1  1  6
  2  3  1  0
  4  3  1  0
  5  4  2  0
  6  2  1  0
  6  7  2  0
  8  4  1  0
  9  6  1  0
 10  9  1  0
 10 13  1  0
 10 11  1  6
 12 11  1  0
 13 15  1  0
 14 13  2  0
 15 16  1  0
 16 17  1  1
 17 18  1  0
 18 19  2  0
 18 22  1  0
 19 20  1  0
 20 21  1  0
 22 21  2  0
 23 25  1  0
 23 16  1  0
 24 23  2  0
M  END
$$$$
