CKE.pdb
     RDKit          3D

 25 24  0  0  1  0  0  0  0  0999 V2000
   17.4716  -12.5898  -13.8977 N   0  0  0  0  0  0  0  0  0  0  0  0
   16.8438  -12.2485  -15.1466 C   0  0  1  0  0  0  0  0  0  0  0  0
   16.1350  -13.4456  -15.7476 C   0  0  0  0  0  0  0  0  0  0  0  0
   17.2724  -14.8074  -16.0293 S   0  0  0  0  0  0  0  0  0  0  0  0
   15.9313  -11.0865  -15.0099 C   0  0  0  0  0  0  0  0  0  0  0  0
   15.5106  -10.4645  -16.0157 O   0  0  0  0  0  0  0  0  0  0  0  0
   15.5039  -10.6393  -13.7475 N   0  0  0  0  0  0  0  0  0  0  0  0
   14.6595   -9.4681  -13.5395 C   0  0  1  0  0  0  0  0  0  0  0  0
   13.7702   -9.6072  -12.3745 C   0  0  0  0  0  0  0  0  0  0  0  0
   12.5410  -10.3956  -12.7061 C   0  0  0  0  0  0  0  0  0  0  0  0
   11.7045  -10.6605  -11.4478 C   0  0  0  0  0  0  0  0  0  0  0  0
   10.4797  -11.4212  -11.9176 C   0  0  0  0  0  0  0  0  0  0  0  0
    9.5788  -11.7199  -10.8232 N   0  0  0  0  0  0  0  0  0  0  0  0
   15.6363   -8.3453  -13.3079 C   0  0  0  0  0  0  0  0  0  0  0  0
   16.4450   -8.3359  -12.3415 O   0  0  0  0  0  0  0  0  0  0  0  0
   15.6952   -7.2278  -14.1773 N   0  0  0  0  0  0  0  0  0  0  0  0
   16.6861   -6.1758  -13.9354 C   0  0  1  0  0  0  0  0  0  0  0  0
   17.9463   -6.4694  -14.7012 C   0  0  0  0  0  0  0  0  0  0  0  0
   18.9050   -5.3217  -14.5697 C   0  0  0  0  0  0  0  0  0  0  0  0
   20.0868   -5.5531  -15.4678 C   0  0  0  0  0  0  0  0  0  0  0  0
   20.1510   -6.6092  -16.1296 O   0  0  0  0  0  0  0  0  0  0  0  0
   16.0507   -4.9107  -14.3130 C   0  0  0  0  0  0  0  0  0  0  0  0
   14.9756   -4.9520  -15.0000 O   0  0  0  0  0  0  0  0  0  0  0  0
   21.1136   -4.6346  -15.5903 O   0  0  0  0  0  0  0  0  0  0  0  0
   16.5100   -3.6368  -13.9890 O   0  0  0  0  0  0  0  0  0  0  0  0
  2  3  1  0
  2  1  1  1
  3  4  1  0
  5  2  1  0
  5  6  2  0
  7  5  1  0
  8 14  1  0
  8  7  1  0
  8  9  1  1
 10  9  1  0
 10 11  1  0
 12 13  1  0
 12 11  1  0
 14 15  2  0
 16 14  1  0
 16 17  1  0
 17 22  1  0
 17 18  1  6
 19 20  1  0
 19 18  1  0
 20 21  2  0
 22 23  2  0
 22 25  1  0
 24 20  1  0
M  END
$$$$
