CKE.pdb
     RDKit          3D

 25 24  0  0  1  0  0  0  0  0999 V2000
   24.0394  -10.6325  -17.4672 N   0  0  0  0  0  0  0  0  0  0  0  0
   23.2392  -10.7502  -16.2772 C   0  0  1  0  0  0  0  0  0  0  0  0
   23.9864  -10.2374  -15.0626 C   0  0  0  0  0  0  0  0  0  0  0  0
   25.4510  -11.2233  -14.7296 S   0  0  0  0  0  0  0  0  0  0  0  0
   21.9208  -10.0860  -16.4268 C   0  0  0  0  0  0  0  0  0  0  0  0
   21.8075   -8.9854  -17.0195 O   0  0  0  0  0  0  0  0  0  0  0  0
   20.7492  -10.6657  -15.9097 N   0  0  0  0  0  0  0  0  0  0  0  0
   19.4106  -10.1242  -16.1168 C   0  0  1  0  0  0  0  0  0  0  0  0
   18.3504  -11.1121  -15.8576 C   0  0  0  0  0  0  0  0  0  0  0  0
   16.9859  -10.5172  -16.0205 C   0  0  0  0  0  0  0  0  0  0  0  0
   15.8972  -11.5743  -15.7961 C   0  0  0  0  0  0  0  0  0  0  0  0
   14.5797  -10.8775  -16.0757 C   0  0  0  0  0  0  0  0  0  0  0  0
   13.4657  -11.8033  -16.0537 N   0  0  0  0  0  0  0  0  0  0  0  0
   19.3122   -8.9943  -15.1258 C   0  0  0  0  0  0  0  0  0  0  0  0
   19.8666   -9.0316  -13.9947 O   0  0  0  0  0  0  0  0  0  0  0  0
   18.5810   -7.8167  -15.4200 N   0  0  0  0  0  0  0  0  0  0  0  0
   18.7554   -6.6292  -14.5796 C   0  0  1  0  0  0  0  0  0  0  0  0
   20.2054   -6.2331  -14.5421 C   0  0  0  0  0  0  0  0  0  0  0  0
   20.3670   -4.9513  -13.7776 C   0  0  0  0  0  0  0  0  0  0  0  0
   21.8006   -4.5073  -13.8449 C   0  0  0  0  0  0  0  0  0  0  0  0
   22.0862   -3.4644  -14.4680 O   0  0  0  0  0  0  0  0  0  0  0  0
   17.8782   -5.5945  -15.1337 C   0  0  0  0  0  0  0  0  0  0  0  0
   17.5815   -5.6498  -16.3739 O   0  0  0  0  0  0  0  0  0  0  0  0
   22.8230   -5.2144  -13.2387 O   0  0  0  0  0  0  0  0  0  0  0  0
   17.3196   -4.5325  -14.4273 O   0  0  0  0  0  0  0  0  0  0  0  0
  2  3  1  0
  2  1  1  6
  3  4  1  0
  5  2  1  0
  5  6  2  0
  7  5  1  0
  8 14  1  0
  8  7  1  0
  8  9  1  1
 10  9  1  0
 10 11  1  0
 12 13  1  0
 12 11  1  0
 14 15  2  0
 16 14  1  0
 16 17  1  0
 17 22  1  0
 17 18  1  6
 19 20  1  0
 19 18  1  0
 20 21  2  0
 22 23  2  0
 22 25  1  0
 24 20  1  0
M  END
$$$$
