CKE.pdb
     RDKit          3D

 25 24  0  0  1  0  0  0  0  0999 V2000
   14.8411  -15.9773  -21.6416 N   0  0  0  0  0  0  0  0  0  0  0  0
   15.8566  -15.0221  -21.2858 C   0  0  1  0  0  0  0  0  0  0  0  0
   15.6695  -13.7193  -22.0372 C   0  0  0  0  0  0  0  0  0  0  0  0
   16.2306  -13.8574  -23.7384 S   0  0  0  0  0  0  0  0  0  0  0  0
   15.9222  -14.8015  -19.8200 C   0  0  0  0  0  0  0  0  0  0  0  0
   14.9710  -14.2709  -19.1962 O   0  0  0  0  0  0  0  0  0  0  0  0
   17.0533  -15.1791  -19.0755 N   0  0  0  0  0  0  0  0  0  0  0  0
   17.1800  -14.9954  -17.6339 C   0  0  1  0  0  0  0  0  0  0  0  0
   17.9250  -16.0864  -16.9843 C   0  0  0  0  0  0  0  0  0  0  0  0
   18.0497  -15.8705  -15.5078 C   0  0  0  0  0  0  0  0  0  0  0  0
   18.8031  -17.0315  -14.8463 C   0  0  0  0  0  0  0  0  0  0  0  0
   18.7670  -16.7530  -13.3562 C   0  0  0  0  0  0  0  0  0  0  0  0
   19.5005  -17.7504  -12.6039 N   0  0  0  0  0  0  0  0  0  0  0  0
   17.9376  -13.7015  -17.4920 C   0  0  0  0  0  0  0  0  0  0  0  0
   19.0189  -13.4764  -18.0988 O   0  0  0  0  0  0  0  0  0  0  0  0
   17.4657  -12.6582  -16.6572 N   0  0  0  0  0  0  0  0  0  0  0  0
   18.2931  -11.4662  -16.4530 C   0  0  1  0  0  0  0  0  0  0  0  0
   17.6910  -10.2917  -17.1732 C   0  0  0  0  0  0  0  0  0  0  0  0
   17.2253   -9.2659  -16.1811 C   0  0  0  0  0  0  0  0  0  0  0  0
   16.6047   -8.1098  -16.9125 C   0  0  0  0  0  0  0  0  0  0  0  0
   17.1562   -6.9914  -16.8630 O   0  0  0  0  0  0  0  0  0  0  0  0
   18.3981  -11.2756  -15.0039 C   0  0  0  0  0  0  0  0  0  0  0  0
   17.4785  -11.7552  -14.2599 O   0  0  0  0  0  0  0  0  0  0  0  0
   15.4377   -8.2378  -17.6436 O   0  0  0  0  0  0  0  0  0  0  0  0
   19.4250  -10.6103  -14.3395 O   0  0  0  0  0  0  0  0  0  0  0  0
  2  3  1  0
  2  1  1  1
  3  4  1  0
  5  2  1  0
  5  6  2  0
  7  5  1  0
  8 14  1  0
  8  7  1  0
  8  9  1  6
 10  9  1  0
 10 11  1  0
 12 13  1  0
 12 11  1  0
 14 15  2  0
 16 14  1  0
 16 17  1  0
 17 22  1  0
 17 18  1  6
 19 20  1  0
 19 18  1  0
 20 21  2  0
 22 23  2  0
 22 25  1  0
 24 20  1  0
M  END
$$$$
