CKE.pdb
     RDKit          3D

 25 24  0  0  1  0  0  0  0  0999 V2000
   17.7000  -25.0371   -5.1022 N   0  0  0  0  0  0  0  0  0  0  0  0
   16.8050  -25.5805   -4.1152 C   0  0  1  0  0  0  0  0  0  0  0  0
   17.4975  -26.6277   -3.2664 C   0  0  0  0  0  0  0  0  0  0  0  0
   17.9769  -28.0544   -4.2474 S   0  0  0  0  0  0  0  0  0  0  0  0
   16.1907  -24.5198   -3.2790 C   0  0  0  0  0  0  0  0  0  0  0  0
   16.7483  -23.4061   -3.1231 O   0  0  0  0  0  0  0  0  0  0  0  0
   14.9605  -24.7236   -2.6300 N   0  0  0  0  0  0  0  0  0  0  0  0
   14.2275  -23.6788   -1.9236 C   0  0  1  0  0  0  0  0  0  0  0  0
   12.7676  -23.8345   -2.0327 C   0  0  0  0  0  0  0  0  0  0  0  0
   12.0380  -22.7624   -1.2840 C   0  0  0  0  0  0  0  0  0  0  0  0
   11.5376  -21.6712   -2.2389 C   0  0  0  0  0  0  0  0  0  0  0  0
   10.8984  -20.6134   -1.3603 C   0  0  0  0  0  0  0  0  0  0  0  0
   10.2892  -19.5584   -2.1442 N   0  0  0  0  0  0  0  0  0  0  0  0
   14.6541  -23.8351   -0.4876 C   0  0  0  0  0  0  0  0  0  0  0  0
   14.9088  -24.9564    0.0280 O   0  0  0  0  0  0  0  0  0  0  0  0
   14.7919  -22.7133    0.3671 N   0  0  0  0  0  0  0  0  0  0  0  0
   15.3965  -22.8837    1.6909 C   0  0  1  0  0  0  0  0  0  0  0  0
   16.0388  -21.5982    2.1332 C   0  0  0  0  0  0  0  0  0  0  0  0
   14.9920  -20.6519    2.6454 C   0  0  0  0  0  0  0  0  0  0  0  0
   15.6527  -19.3966    3.1397 C   0  0  0  0  0  0  0  0  0  0  0  0
   16.8988  -19.3272    3.1480 O   0  0  0  0  0  0  0  0  0  0  0  0
   14.3269  -23.3425    2.5811 C   0  0  0  0  0  0  0  0  0  0  0  0
   13.1165  -23.1296    2.2365 O   0  0  0  0  0  0  0  0  0  0  0  0
   14.9285  -18.3073    3.5890 O   0  0  0  0  0  0  0  0  0  0  0  0
   14.5006  -24.0053    3.7933 O   0  0  0  0  0  0  0  0  0  0  0  0
  2  3  1  0
  2  1  1  6
  3  4  1  0
  5  2  1  0
  5  6  2  0
  7  5  1  0
  8 14  1  0
  8  7  1  0
  8  9  1  1
 10  9  1  0
 10 11  1  0
 12 13  1  0
 12 11  1  0
 14 15  2  0
 16 14  1  0
 16 17  1  0
 17 22  1  0
 17 18  1  1
 19 20  1  0
 19 18  1  0
 20 21  2  0
 22 23  2  0
 22 25  1  0
 24 20  1  0
M  END
$$$$
