CKE.pdb
     RDKit          3D

 25 24  0  0  1  0  0  0  0  0999 V2000
   22.5276  -13.5288  -17.9069 N   0  0  0  0  0  0  0  0  0  0  0  0
   22.6702  -12.6729  -16.7591 C   0  0  1  0  0  0  0  0  0  0  0  0
   24.1066  -12.2206  -16.5892 C   0  0  0  0  0  0  0  0  0  0  0  0
   25.1612  -13.5737  -16.0559 S   0  0  0  0  0  0  0  0  0  0  0  0
   21.7375  -11.5199  -16.8070 C   0  0  0  0  0  0  0  0  0  0  0  0
   21.6642  -10.7808  -17.8189 O   0  0  0  0  0  0  0  0  0  0  0  0
   20.9009  -11.2129  -15.7199 N   0  0  0  0  0  0  0  0  0  0  0  0
   19.9306  -10.1236  -15.7189 C   0  0  1  0  0  0  0  0  0  0  0  0
   18.8720  -10.3051  -14.7121 C   0  0  0  0  0  0  0  0  0  0  0  0
   17.7846  -11.2077  -15.2073 C   0  0  0  0  0  0  0  0  0  0  0  0
   16.6496  -11.3121  -14.1807 C   0  0  0  0  0  0  0  0  0  0  0  0
   15.5915  -12.1895  -14.8210 C   0  0  0  0  0  0  0  0  0  0  0  0
   14.4696  -12.4156  -13.9328 N   0  0  0  0  0  0  0  0  0  0  0  0
   20.7477   -8.9019  -15.3894 C   0  0  0  0  0  0  0  0  0  0  0  0
   21.7193   -8.9296  -14.5873 O   0  0  0  0  0  0  0  0  0  0  0  0
   20.4603   -7.6430  -15.9729 N   0  0  0  0  0  0  0  0  0  0  0  0
   21.2885   -6.4831  -15.6326 C   0  0  1  0  0  0  0  0  0  0  0  0
   21.1553   -5.4260  -16.6936 C   0  0  0  0  0  0  0  0  0  0  0  0
   21.9505   -4.2119  -16.3100 C   0  0  0  0  0  0  0  0  0  0  0  0
   21.6997   -3.1158  -17.3062 C   0  0  0  0  0  0  0  0  0  0  0  0
   20.5248   -2.8343  -17.6188 O   0  0  0  0  0  0  0  0  0  0  0  0
   20.8577   -6.0394  -14.3042 C   0  0  0  0  0  0  0  0  0  0  0  0
   19.6539   -6.2695  -13.9475 O   0  0  0  0  0  0  0  0  0  0  0  0
   22.7278   -2.4016  -17.8944 O   0  0  0  0  0  0  0  0  0  0  0  0
   21.6477   -5.3782  -13.3675 O   0  0  0  0  0  0  0  0  0  0  0  0
  2  3  1  0
  2  1  1  6
  3  4  1  0
  5  2  1  0
  5  6  2  0
  7  5  1  0
  8 14  1  0
  8  7  1  0
  8  9  1  1
 10  9  1  0
 10 11  1  0
 12 13  1  0
 12 11  1  0
 14 15  2  0
 16 14  1  0
 16 17  1  0
 17 22  1  0
 17 18  1  6
 19 20  1  0
 19 18  1  0
 20 21  2  0
 22 23  2  0
 22 25  1  0
 24 20  1  0
M  END
$$$$
