CKE.pdb
     RDKit          3D

 25 24  0  0  1  0  0  0  0  0999 V2000
   22.5182  -22.6177  -15.4037 N   0  0  0  0  0  0  0  0  0  0  0  0
   21.5149  -21.9981  -14.5792 C   0  0  1  0  0  0  0  0  0  0  0  0
   20.6926  -21.0030  -15.3731 C   0  0  0  0  0  0  0  0  0  0  0  0
   21.7026  -19.6378  -15.9594 S   0  0  0  0  0  0  0  0  0  0  0  0
   20.6545  -23.0007  -13.9038 C   0  0  0  0  0  0  0  0  0  0  0  0
   20.4356  -24.1251  -14.4171 O   0  0  0  0  0  0  0  0  0  0  0  0
   20.0524  -22.7278  -12.6632 N   0  0  0  0  0  0  0  0  0  0  0  0
   19.2540  -23.6917  -11.9139 C   0  0  1  0  0  0  0  0  0  0  0  0
   19.3834  -23.5275  -10.4566 C   0  0  0  0  0  0  0  0  0  0  0  0
   18.6041  -24.5657   -9.7102 C   0  0  0  0  0  0  0  0  0  0  0  0
   18.6985  -24.3378   -8.1961 C   0  0  0  0  0  0  0  0  0  0  0  0
   17.9727  -25.5051   -7.5557 C   0  0  0  0  0  0  0  0  0  0  0  0
   18.0251  -25.4437   -6.1093 N   0  0  0  0  0  0  0  0  0  0  0  0
   17.8373  -23.4067  -12.3384 C   0  0  0  0  0  0  0  0  0  0  0  0
   17.3388  -22.2497  -12.3108 O   0  0  0  0  0  0  0  0  0  0  0  0
   16.9826  -24.4400  -12.7962 N   0  0  0  0  0  0  0  0  0  0  0  0
   15.6319  -24.1088  -13.2578 C   0  0  1  0  0  0  0  0  0  0  0  0
   15.0630  -25.2535  -14.0495 C   0  0  0  0  0  0  0  0  0  0  0  0
   13.6677  -24.9249  -14.4953 C   0  0  0  0  0  0  0  0  0  0  0  0
   13.0977  -26.0909  -15.2519 C   0  0  0  0  0  0  0  0  0  0  0  0
   12.8674  -27.1566  -14.6448 O   0  0  0  0  0  0  0  0  0  0  0  0
   14.8528  -23.7774  -12.0619 C   0  0  0  0  0  0  0  0  0  0  0  0
   15.0166  -24.4877  -11.0140 O   0  0  0  0  0  0  0  0  0  0  0  0
   12.8164  -26.0284  -16.6046 O   0  0  0  0  0  0  0  0  0  0  0  0
   13.9312  -22.7399  -11.9485 O   0  0  0  0  0  0  0  0  0  0  0  0
  2  3  1  0
  2  1  1  6
  3  4  1  0
  5  2  1  0
  5  6  2  0
  7  5  1  0
  8 14  1  0
  8  7  1  0
  8  9  1  1
 10  9  1  0
 10 11  1  0
 12 13  1  0
 12 11  1  0
 14 15  2  0
 16 14  1  0
 16 17  1  0
 17 22  1  0
 17 18  1  1
 19 20  1  0
 19 18  1  0
 20 21  2  0
 22 23  2  0
 22 25  1  0
 24 20  1  0
M  END
$$$$
