CKE.pdb
     RDKit          3D

 25 24  0  0  1  0  0  0  0  0999 V2000
   15.6528  -14.2835  -11.4791 N   0  0  0  0  0  0  0  0  0  0  0  0
   15.1565  -13.0042  -11.9118 C   0  0  1  0  0  0  0  0  0  0  0  0
   14.0813  -12.4897  -10.9760 C   0  0  0  0  0  0  0  0  0  0  0  0
   12.7843  -13.7091  -10.7342 S   0  0  0  0  0  0  0  0  0  0  0  0
   16.2484  -12.0145  -12.0844 C   0  0  0  0  0  0  0  0  0  0  0  0
   17.1297  -11.8544  -11.2051 O   0  0  0  0  0  0  0  0  0  0  0  0
   16.3360  -11.2191  -13.2402 N   0  0  0  0  0  0  0  0  0  0  0  0
   17.4302  -10.2938  -13.5131 C   0  0  1  0  0  0  0  0  0  0  0  0
   17.7886  -10.2411  -14.9400 C   0  0  0  0  0  0  0  0  0  0  0  0
   18.7526  -11.3255  -15.3102 C   0  0  0  0  0  0  0  0  0  0  0  0
   19.1087  -11.2563  -16.8007 C   0  0  0  0  0  0  0  0  0  0  0  0
   19.9703  -12.4731  -17.0775 C   0  0  0  0  0  0  0  0  0  0  0  0
   20.2068  -12.6542  -18.4952 N   0  0  0  0  0  0  0  0  0  0  0  0
   16.9019   -8.9557  -13.0672 C   0  0  0  0  0  0  0  0  0  0  0  0
   15.7351   -8.5619  -13.3344 O   0  0  0  0  0  0  0  0  0  0  0  0
   17.7020   -8.0605  -12.3146 N   0  0  0  0  0  0  0  0  0  0  0  0
   17.1316   -6.7898  -11.8597 C   0  0  1  0  0  0  0  0  0  0  0  0
   17.4971   -6.5466  -10.4216 C   0  0  0  0  0  0  0  0  0  0  0  0
   17.0215   -5.1884   -9.9945 C   0  0  0  0  0  0  0  0  0  0  0  0
   16.6098   -5.2349   -8.5505 C   0  0  0  0  0  0  0  0  0  0  0  0
   16.9705   -6.1993   -7.8453 O   0  0  0  0  0  0  0  0  0  0  0  0
   17.6291   -5.7589  -12.7744 C   0  0  0  0  0  0  0  0  0  0  0  0
   18.7083   -5.9864  -13.4170 O   0  0  0  0  0  0  0  0  0  0  0  0
   15.8410   -4.2434   -7.9683 O   0  0  0  0  0  0  0  0  0  0  0  0
   17.0287   -4.5273  -13.0220 O   0  0  0  0  0  0  0  0  0  0  0  0
  2  3  1  0
  2  1  1  1
  3  4  1  0
  5  2  1  0
  5  6  2  0
  7  5  1  0
  8 14  1  0
  8  7  1  0
  8  9  1  6
 10  9  1  0
 10 11  1  0
 12 13  1  0
 12 11  1  0
 14 15  2  0
 16 14  1  0
 16 17  1  0
 17 22  1  0
 17 18  1  1
 19 20  1  0
 19 18  1  0
 20 21  2  0
 22 23  2  0
 22 25  1  0
 24 20  1  0
M  END
$$$$
