CKE.pdb
     RDKit          3D

 25 24  0  0  1  0  0  0  0  0999 V2000
   25.2369  -12.4482  -17.5088 N   0  0  0  0  0  0  0  0  0  0  0  0
   25.1857  -11.4543  -16.4696 C   0  0  1  0  0  0  0  0  0  0  0  0
   26.5168  -10.7442  -16.3260 C   0  0  0  0  0  0  0  0  0  0  0  0
   27.8083  -11.8739  -15.7933 S   0  0  0  0  0  0  0  0  0  0  0  0
   24.0743  -10.4930  -16.6750 C   0  0  0  0  0  0  0  0  0  0  0  0
   23.9412   -9.8699  -17.7564 O   0  0  0  0  0  0  0  0  0  0  0  0
   23.1287  -10.2447  -15.6649 N   0  0  0  0  0  0  0  0  0  0  0  0
   21.9983   -9.3344  -15.8111 C   0  0  1  0  0  0  0  0  0  0  0  0
   20.7309   -9.9212  -15.3456 C   0  0  0  0  0  0  0  0  0  0  0  0
   19.5903   -8.9613  -15.4869 C   0  0  0  0  0  0  0  0  0  0  0  0
   18.3089   -9.5393  -14.8730 C   0  0  0  0  0  0  0  0  0  0  0  0
   17.2352   -8.4913  -15.0927 C   0  0  0  0  0  0  0  0  0  0  0  0
   15.9503   -8.9209  -14.5798 N   0  0  0  0  0  0  0  0  0  0  0  0
   22.3626   -8.1525  -14.9514 C   0  0  0  0  0  0  0  0  0  0  0  0
   22.8755   -8.2763  -13.8071 O   0  0  0  0  0  0  0  0  0  0  0  0
   22.1433   -6.8240  -15.3928 N   0  0  0  0  0  0  0  0  0  0  0  0
   22.5341   -5.7034  -14.5333 C   0  0  1  0  0  0  0  0  0  0  0  0
   22.5369   -4.4244  -15.3238 C   0  0  0  0  0  0  0  0  0  0  0  0
   21.1346   -4.0638  -15.7201 C   0  0  0  0  0  0  0  0  0  0  0  0
   21.1411   -2.7389  -16.4281 C   0  0  0  0  0  0  0  0  0  0  0  0
   20.5137   -1.7806  -15.9326 O   0  0  0  0  0  0  0  0  0  0  0  0
   21.5965   -5.6958  -13.4073 C   0  0  0  0  0  0  0  0  0  0  0  0
   21.9127   -5.0417  -12.3578 O   0  0  0  0  0  0  0  0  0  0  0  0
   21.8203   -2.5386  -17.6162 O   0  0  0  0  0  0  0  0  0  0  0  0
   20.3644   -6.3431  -13.3654 O   0  0  0  0  0  0  0  0  0  0  0  0
  2  3  1  0
  2  1  1  6
  3  4  1  0
  5  2  1  0
  5  6  2  0
  7  5  1  0
  8 14  1  0
  8  7  1  0
  8  9  1  1
 10  9  1  0
 10 11  1  0
 12 13  1  0
 12 11  1  0
 14 15  2  0
 16 14  1  0
 16 17  1  0
 17 22  1  0
 17 18  1  6
 19 20  1  0
 19 18  1  0
 20 21  2  0
 22 23  2  0
 22 25  1  0
 24 20  1  0
M  END
$$$$
