CKE.pdb
     RDKit          3D

 25 24  0  0  1  0  0  0  0  0999 V2000
   19.8515   -8.8478  -13.6183 N   0  0  0  0  0  0  0  0  0  0  0  0
   19.6501   -8.5669  -12.2215 C   0  0  1  0  0  0  0  0  0  0  0  0
   20.6538   -7.5491  -11.7180 C   0  0  0  0  0  0  0  0  0  0  0  0
   22.3358   -8.1665  -11.8501 S   0  0  0  0  0  0  0  0  0  0  0  0
   18.2564   -8.1460  -11.9352 C   0  0  0  0  0  0  0  0  0  0  0  0
   17.6594   -7.3212  -12.6693 O   0  0  0  0  0  0  0  0  0  0  0  0
   17.5529   -8.6560  -10.8302 N   0  0  0  0  0  0  0  0  0  0  0  0
   16.1512   -8.3650  -10.5501 C   0  0  1  0  0  0  0  0  0  0  0  0
   15.4600   -9.4814   -9.8844 C   0  0  0  0  0  0  0  0  0  0  0  0
   14.0238   -9.1593   -9.6087 C   0  0  0  0  0  0  0  0  0  0  0  0
   13.2920  -10.3750   -9.0260 C   0  0  0  0  0  0  0  0  0  0  0  0
   11.8261   -9.9906   -8.9750 C   0  0  0  0  0  0  0  0  0  0  0  0
   11.0078  -11.0582   -8.4372 N   0  0  0  0  0  0  0  0  0  0  0  0
   16.1982   -7.1711   -9.6332 C   0  0  0  0  0  0  0  0  0  0  0  0
   16.9830   -7.0993   -8.6498 O   0  0  0  0  0  0  0  0  0  0  0  0
   15.3503   -6.0535   -9.8334 N   0  0  0  0  0  0  0  0  0  0  0  0
   15.4175   -4.9206   -8.9065 C   0  0  1  0  0  0  0  0  0  0  0  0
   15.5589   -3.6352   -9.6736 C   0  0  0  0  0  0  0  0  0  0  0  0
   15.5174   -2.4682   -8.7303 C   0  0  0  0  0  0  0  0  0  0  0  0
   15.6764   -1.1923   -9.5073 C   0  0  0  0  0  0  0  0  0  0  0  0
   14.7040   -0.4167   -9.6097 O   0  0  0  0  0  0  0  0  0  0  0  0
   14.2065   -4.9833   -8.0839 C   0  0  0  0  0  0  0  0  0  0  0  0
   14.1892   -4.3452   -6.9785 O   0  0  0  0  0  0  0  0  0  0  0  0
   16.8669   -0.8416  -10.1177 O   0  0  0  0  0  0  0  0  0  0  0  0
   13.0434   -5.6832   -8.3938 O   0  0  0  0  0  0  0  0  0  0  0  0
  2  3  1  0
  2  1  1  6
  3  4  1  0
  5  2  1  0
  5  6  2  0
  7  5  1  0
  8 14  1  0
  8  7  1  0
  8  9  1  1
 10  9  1  0
 10 11  1  0
 12 13  1  0
 12 11  1  0
 14 15  2  0
 16 14  1  0
 16 17  1  0
 17 22  1  0
 17 18  1  6
 19 20  1  0
 19 18  1  0
 20 21  2  0
 22 23  2  0
 22 25  1  0
 24 20  1  0
M  END
$$$$
