FYI.pdb
     RDKit          3D

 32 33  0  0  1  0  0  0  0  0999 V2000
    8.1098  -17.5861   20.2137 N   0  0  0  0  0  0  0  0  0  0  0  0
    8.5200  -16.4676   21.0799 C   0  0  1  0  0  0  0  0  0  0  0  0
    7.3455  -15.5591   21.2315 C   0  0  0  0  0  0  0  0  0  0  0  0
    7.4537  -14.2789   20.5204 C   0  0  0  0  0  0  0  0  0  0  0  0
    6.8962  -14.1608   19.2720 C   0  0  0  0  0  0  0  0  0  0  0  0
    6.9661  -12.9815   18.5517 C   0  0  0  0  0  0  0  0  0  0  0  0
    7.6166  -11.9260   19.1322 C   0  0  0  0  0  0  0  0  0  0  0  0
    8.1811  -12.0237   20.3802 C   0  0  0  0  0  0  0  0  0  0  0  0
    8.0975  -13.2052   21.0736 C   0  0  0  0  0  0  0  0  0  0  0  0
    9.0401  -17.0520   22.3153 C   0  0  0  0  0  0  0  0  0  0  0  0
    8.3587  -17.8682   23.0252 O   0  0  0  0  0  0  0  0  0  0  0  0
   11.5443  -22.5895   20.6753 O   0  0  0  0  0  0  0  0  0  0  0  0
   11.6824  -21.4443   21.4833 C   0  0  0  0  0  0  0  0  0  0  0  0
   12.0466  -20.2369   20.9252 C   0  0  0  0  0  0  0  0  0  0  0  0
   12.1798  -19.1236   21.7177 C   0  0  0  0  0  0  0  0  0  0  0  0
   11.9641  -19.1439   23.0796 C   0  0  0  0  0  0  0  0  0  0  0  0
   12.1095  -17.9400   23.9215 C   0  0  0  0  0  0  0  0  0  0  0  0
   10.7965  -17.2109   24.1433 C   0  0  2  0  0  0  0  0  0  0  0  0
   10.3504  -16.7664   22.8375 N   0  0  0  0  0  0  0  0  0  0  0  0
   10.8470  -16.1642   25.1525 C   0  0  0  0  0  0  0  0  0  0  0  0
   11.7167  -15.2336   25.0837 O   0  0  0  0  0  0  0  0  0  0  0  0
   11.6019  -20.3542   23.6203 C   0  0  0  0  0  0  0  0  0  0  0  0
   11.4594  -21.4992   22.8409 C   0  0  0  0  0  0  0  0  0  0  0  0
    6.7194  -13.2773   26.6659 C   0  0  0  0  0  0  0  0  0  0  0  0
    8.1375  -13.7164   26.4441 C   0  0  0  0  0  0  0  0  0  0  0  0
    8.8039  -14.3525   27.6196 C   0  0  2  0  0  0  0  0  0  0  0  0
    9.1705  -13.2773   28.6550 C   0  0  0  0  0  0  0  0  0  0  0  0
   10.1109  -15.0534   27.3016 C   0  0  2  0  0  0  0  0  0  0  0  0
    9.9745  -16.0656   26.2704 N   0  0  0  0  0  0  0  0  0  0  0  0
   10.5449  -15.7310   28.5374 C   0  0  0  0  0  0  0  0  0  0  0  0
   10.3790  -17.0902   28.6858 O   0  0  0  0  0  0  0  0  0  0  0  0
   11.0683  -15.0818   29.4667 O   0  0  0  0  0  0  0  0  0  0  0  0
  2  1  1  6
  3  2  1  0
  3  4  1  0
  4  9  1  0
  5  4  2  0
  5  6  1  0
  6  7  2  0
  7  8  1  0
  9  8  2  0
 10 11  2  0
 10  2  1  0
 12 13  1  0
 13 14  2  0
 14 15  1  0
 16 15  2  0
 16 17  1  0
 18 17  1  6
 18 19  1  0
 19 10  1  0
 20 29  1  0
 20 18  1  0
 21 20  2  0
 22 16  1  0
 23 13  1  0
 23 22  2  0
 24 25  1  0
 25 26  1  0
 26 27  1  1
 26 28  1  0
 28 29  1  6
 28 30  1  0
 30 31  1  0
 32 30  2  0
M  END
$$$$
