FYI.pdb
     RDKit          3D

 32 33  0  0  1  0  0  0  0  0999 V2000
    6.3906  -18.0496   24.9880 N   0  0  0  0  0  0  0  0  0  0  0  0
    7.1665  -17.6954   23.7870 C   0  0  1  0  0  0  0  0  0  0  0  0
    6.5431  -16.4783   23.1889 C   0  0  0  0  0  0  0  0  0  0  0  0
    6.6440  -15.2624   24.0061 C   0  0  0  0  0  0  0  0  0  0  0  0
    7.2531  -14.1524   23.4768 C   0  0  0  0  0  0  0  0  0  0  0  0
    7.3799  -12.9781   24.1974 C   0  0  0  0  0  0  0  0  0  0  0  0
    6.8722  -12.9606   25.4687 C   0  0  0  0  0  0  0  0  0  0  0  0
    6.2592  -14.0605   26.0165 C   0  0  0  0  0  0  0  0  0  0  0  0
    6.1464  -15.2133   25.2802 C   0  0  0  0  0  0  0  0  0  0  0  0
    8.5616  -17.5602   24.2038 C   0  0  0  0  0  0  0  0  0  0  0  0
    9.0229  -18.1394   25.2460 O   0  0  0  0  0  0  0  0  0  0  0  0
   17.3019  -16.9863   22.8722 O   0  0  0  0  0  0  0  0  0  0  0  0
   15.9081  -16.7935   22.8127 C   0  0  0  0  0  0  0  0  0  0  0  0
   15.3781  -15.5208   22.8498 C   0  0  0  0  0  0  0  0  0  0  0  0
   14.0184  -15.3386   22.7914 C   0  0  0  0  0  0  0  0  0  0  0  0
   13.1262  -16.3856   22.6950 C   0  0  0  0  0  0  0  0  0  0  0  0
   11.6661  -16.1774   22.6320 C   0  0  0  0  0  0  0  0  0  0  0  0
   10.9361  -16.7348   23.8408 C   0  0  2  0  0  0  0  0  0  0  0  0
    9.5308  -16.7739   23.4871 N   0  0  0  0  0  0  0  0  0  0  0  0
   11.2249  -16.0509   25.0920 C   0  0  0  0  0  0  0  0  0  0  0  0
   11.8995  -14.9684   25.1028 O   0  0  0  0  0  0  0  0  0  0  0  0
   13.6700  -17.6471   22.6591 C   0  0  0  0  0  0  0  0  0  0  0  0
   15.0446  -17.8616   22.7166 C   0  0  0  0  0  0  0  0  0  0  0  0
    8.3859  -13.0706   27.8592 C   0  0  0  0  0  0  0  0  0  0  0  0
    9.6088  -13.7989   27.3825 C   0  0  0  0  0  0  0  0  0  0  0  0
    9.9908  -15.0025   28.1800 C   0  0  2  0  0  0  0  0  0  0  0  0
   10.4581  -14.5726   29.5797 C   0  0  0  0  0  0  0  0  0  0  0  0
   11.1478  -15.7984   27.6069 C   0  0  2  0  0  0  0  0  0  0  0  0
   10.8058  -16.4898   26.3775 N   0  0  0  0  0  0  0  0  0  0  0  0
   11.5027  -16.8200   28.6095 C   0  0  0  0  0  0  0  0  0  0  0  0
   12.3411  -16.5108   29.6576 O   0  0  0  0  0  0  0  0  0  0  0  0
   11.0486  -17.9798   28.5217 O   0  0  0  0  0  0  0  0  0  0  0  0
  2  1  1  1
  3  2  1  0
  3  4  1  0
  4  9  1  0
  5  4  2  0
  5  6  1  0
  6  7  2  0
  7  8  1  0
  9  8  2  0
 10 11  2  0
 10  2  1  0
 12 13  1  0
 13 14  2  0
 14 15  1  0
 16 15  2  0
 16 17  1  0
 18 17  1  6
 18 19  1  0
 19 10  1  0
 20 29  1  0
 20 18  1  0
 21 20  2  0
 22 16  1  0
 23 13  1  0
 23 22  2  0
 24 25  1  0
 25 26  1  0
 26 27  1  1
 26 28  1  0
 28 29  1  6
 28 30  1  0
 30 31  1  0
 32 30  2  0
M  END
$$$$
