FYI.pdb
     RDKit          3D

 32 33  0  0  1  0  0  0  0  0999 V2000
    6.8139  -18.4366   18.9008 N   0  0  0  0  0  0  0  0  0  0  0  0
    7.4680  -17.2620   19.5027 C   0  0  1  0  0  0  0  0  0  0  0  0
    6.9476  -16.0487   18.8065 C   0  0  0  0  0  0  0  0  0  0  0  0
    7.3955  -14.7685   19.3695 C   0  0  0  0  0  0  0  0  0  0  0  0
    6.9519  -13.5998   18.8033 C   0  0  0  0  0  0  0  0  0  0  0  0
    7.3393  -12.3630   19.2876 C   0  0  0  0  0  0  0  0  0  0  0  0
    8.1884  -12.3442   20.3614 C   0  0  0  0  0  0  0  0  0  0  0  0
    8.6435  -13.5022   20.9422 C   0  0  0  0  0  0  0  0  0  0  0  0
    8.2439  -14.7164   20.4423 C   0  0  0  0  0  0  0  0  0  0  0  0
    7.2229  -17.3274   20.9428 C   0  0  0  0  0  0  0  0  0  0  0  0
    6.0447  -17.4055   21.4329 O   0  0  0  0  0  0  0  0  0  0  0  0
    7.9582  -19.4343   29.4558 O   0  0  0  0  0  0  0  0  0  0  0  0
    8.1120  -19.2474   28.0685 C   0  0  0  0  0  0  0  0  0  0  0  0
    9.3376  -18.8939   27.5441 C   0  0  0  0  0  0  0  0  0  0  0  0
    9.4819  -18.7131   26.1907 C   0  0  0  0  0  0  0  0  0  0  0  0
    8.4413  -18.8690   25.2994 C   0  0  0  0  0  0  0  0  0  0  0  0
    8.6087  -18.6727   23.8459 C   0  0  0  0  0  0  0  0  0  0  0  0
    8.0204  -17.3624   23.3542 C   0  0  2  0  0  0  0  0  0  0  0  0
    8.2724  -17.3114   21.9275 N   0  0  0  0  0  0  0  0  0  0  0  0
    8.4622  -16.1862   24.0876 C   0  0  0  0  0  0  0  0  0  0  0  0
    9.6165  -15.6843   23.8806 O   0  0  0  0  0  0  0  0  0  0  0  0
    7.2269  -19.2212   25.8375 C   0  0  0  0  0  0  0  0  0  0  0  0
    7.0516  -19.4112   27.2057 C   0  0  0  0  0  0  0  0  0  0  0  0
    6.3227  -11.1766   27.1877 C   0  0  0  0  0  0  0  0  0  0  0  0
    7.3963  -12.1978   26.9480 C   0  0  0  0  0  0  0  0  0  0  0  0
    7.0093  -13.3420   26.0696 C   0  0  2  0  0  0  0  0  0  0  0  0
    5.9650  -14.2157   26.7827 C   0  0  0  0  0  0  0  0  0  0  0  0
    8.1447  -14.2875   25.7274 C   0  0  2  0  0  0  0  0  0  0  0  0
    7.6939  -15.4982   25.0659 N   0  0  0  0  0  0  0  0  0  0  0  0
    8.7717  -14.6827   27.0023 C   0  0  0  0  0  0  0  0  0  0  0  0
    9.6552  -13.8395   27.6390 O   0  0  0  0  0  0  0  0  0  0  0  0
    8.5109  -15.7877   27.5220 O   0  0  0  0  0  0  0  0  0  0  0  0
  2  1  1  6
  3  2  1  0
  3  4  1  0
  4  9  1  0
  5  4  2  0
  5  6  1  0
  6  7  2  0
  7  8  1  0
  9  8  2  0
 10 11  2  0
 10  2  1  0
 12 13  1  0
 13 14  2  0
 14 15  1  0
 16 15  2  0
 16 17  1  0
 18 17  1  1
 18 19  1  0
 19 10  1  0
 20 29  1  0
 20 18  1  0
 21 20  2  0
 22 16  1  0
 23 13  1  0
 23 22  2  0
 24 25  1  0
 25 26  1  0
 26 27  1  1
 26 28  1  0
 28 29  1  1
 28 30  1  0
 30 31  1  0
 32 30  2  0
M  END
$$$$
