FYI.pdb
     RDKit          3D

 32 33  0  0  1  0  0  0  0  0999 V2000
    6.3218  -17.1343   25.7550 N   0  0  0  0  0  0  0  0  0  0  0  0
    5.8615  -16.9388   24.3694 C   0  0  1  0  0  0  0  0  0  0  0  0
    5.2411  -15.5839   24.2862 C   0  0  0  0  0  0  0  0  0  0  0  0
    5.9829  -14.5172   24.9704 C   0  0  0  0  0  0  0  0  0  0  0  0
    6.7618  -13.6654   24.2281 C   0  0  0  0  0  0  0  0  0  0  0  0
    7.4851  -12.6422   24.8149 C   0  0  0  0  0  0  0  0  0  0  0  0
    7.3966  -12.5068   26.1744 C   0  0  0  0  0  0  0  0  0  0  0  0
    6.6229  -13.3485   26.9349 C   0  0  0  0  0  0  0  0  0  0  0  0
    5.9152  -14.3557   26.3279 C   0  0  0  0  0  0  0  0  0  0  0  0
    7.0141  -17.1689   23.4995 C   0  0  0  0  0  0  0  0  0  0  0  0
    6.8931  -17.6192   22.3091 O   0  0  0  0  0  0  0  0  0  0  0  0
    8.3365  -13.1470   17.4698 O   0  0  0  0  0  0  0  0  0  0  0  0
    8.3991  -13.5482   18.8183 C   0  0  0  0  0  0  0  0  0  0  0  0
    9.4409  -13.1338   19.6215 C   0  0  0  0  0  0  0  0  0  0  0  0
    9.4969  -13.5280   20.9356 C   0  0  0  0  0  0  0  0  0  0  0  0
    8.5435  -14.3382   21.5155 C   0  0  0  0  0  0  0  0  0  0  0  0
    8.6138  -14.7548   22.9299 C   0  0  0  0  0  0  0  0  0  0  0  0
    9.2874  -16.1023   23.1170 C   0  0  2  0  0  0  0  0  0  0  0  0
    8.3727  -16.9113   23.8984 N   0  0  0  0  0  0  0  0  0  0  0  0
   10.6398  -16.0355   23.6494 C   0  0  0  0  0  0  0  0  0  0  0  0
   11.5445  -15.3661   23.0490 O   0  0  0  0  0  0  0  0  0  0  0  0
    7.5123  -14.7423   20.7021 C   0  0  0  0  0  0  0  0  0  0  0  0
    7.4299  -14.3582   19.3663 C   0  0  0  0  0  0  0  0  0  0  0  0
    9.9829  -13.3534   28.4208 C   0  0  0  0  0  0  0  0  0  0  0  0
   11.0256  -14.1874   27.7350 C   0  0  0  0  0  0  0  0  0  0  0  0
   10.5409  -14.9967   26.5771 C   0  0  2  0  0  0  0  0  0  0  0  0
    9.3714  -15.8903   27.0199 C   0  0  0  0  0  0  0  0  0  0  0  0
   11.5683  -15.9516   26.0000 C   0  0  2  0  0  0  0  0  0  0  0  0
   11.0806  -16.6749   24.8400 N   0  0  0  0  0  0  0  0  0  0  0  0
   11.8688  -16.9426   27.0499 C   0  0  0  0  0  0  0  0  0  0  0  0
   11.4882  -18.2579   26.9007 O   0  0  0  0  0  0  0  0  0  0  0  0
   12.4720  -16.6030   28.0891 O   0  0  0  0  0  0  0  0  0  0  0  0
  2  1  1  1
  3  2  1  0
  3  4  1  0
  4  9  1  0
  5  4  2  0
  5  6  1  0
  6  7  2  0
  7  8  1  0
  9  8  2  0
 10 11  2  0
 10  2  1  0
 12 13  1  0
 13 14  2  0
 14 15  1  0
 16 15  2  0
 16 17  1  0
 18 17  1  1
 18 19  1  0
 19 10  1  0
 20 29  1  0
 20 18  1  0
 21 20  2  0
 22 16  1  0
 23 13  1  0
 23 22  2  0
 24 25  1  0
 25 26  1  0
 26 27  1  1
 26 28  1  0
 28 29  1  6
 28 30  1  0
 30 31  1  0
 32 30  2  0
M  END
$$$$
