FYI.pdb
     RDKit          3D

 32 33  0  0  1  0  0  0  0  0999 V2000
    6.5683  -19.0387   23.8175 N   0  0  0  0  0  0  0  0  0  0  0  0
    6.6702  -17.8926   22.8977 C   0  0  1  0  0  0  0  0  0  0  0  0
    5.6287  -16.9002   23.2952 C   0  0  0  0  0  0  0  0  0  0  0  0
    6.0018  -16.0196   24.4095 C   0  0  0  0  0  0  0  0  0  0  0  0
    6.1638  -14.6776   24.1730 C   0  0  0  0  0  0  0  0  0  0  0  0
    6.5158  -13.7977   25.1811 C   0  0  0  0  0  0  0  0  0  0  0  0
    6.6989  -14.3162   26.4349 C   0  0  0  0  0  0  0  0  0  0  0  0
    6.5417  -15.6558   26.6922 C   0  0  0  0  0  0  0  0  0  0  0  0
    6.1920  -16.5074   25.6741 C   0  0  0  0  0  0  0  0  0  0  0  0
    8.0541  -17.4234   22.9510 C   0  0  0  0  0  0  0  0  0  0  0  0
    9.0448  -18.2256   23.0487 O   0  0  0  0  0  0  0  0  0  0  0  0
    7.9409  -14.1298   16.8159 O   0  0  0  0  0  0  0  0  0  0  0  0
    8.3928  -14.1491   18.1496 C   0  0  0  0  0  0  0  0  0  0  0  0
    7.9700  -13.1874   19.0431 C   0  0  0  0  0  0  0  0  0  0  0  0
    8.4137  -13.2110   20.3423 C   0  0  0  0  0  0  0  0  0  0  0  0
    9.2833  -14.1692   20.8191 C   0  0  0  0  0  0  0  0  0  0  0  0
    9.7529  -14.1849   22.2185 C   0  0  0  0  0  0  0  0  0  0  0  0
    9.7977  -15.5815   22.8120 C   0  0  2  0  0  0  0  0  0  0  0  0
    8.4229  -16.0332   22.8977 N   0  0  0  0  0  0  0  0  0  0  0  0
   10.5469  -15.6887   24.0545 C   0  0  0  0  0  0  0  0  0  0  0  0
   11.8000  -15.4518   24.0828 O   0  0  0  0  0  0  0  0  0  0  0  0
    9.6952  -15.1201   19.9166 C   0  0  0  0  0  0  0  0  0  0  0  0
    9.2616  -15.1207   18.5935 C   0  0  0  0  0  0  0  0  0  0  0  0
   10.1585  -12.6729   27.6686 C   0  0  0  0  0  0  0  0  0  0  0  0
    9.3380  -13.8492   27.2259 C   0  0  0  0  0  0  0  0  0  0  0  0
    9.8641  -15.1874   27.6297 C   0  0  2  0  0  0  0  0  0  0  0  0
   10.8017  -15.0350   28.8381 C   0  0  0  0  0  0  0  0  0  0  0  0
   10.6975  -15.8840   26.5712 C   0  0  2  0  0  0  0  0  0  0  0  0
    9.9928  -16.0487   25.3131 N   0  0  0  0  0  0  0  0  0  0  0  0
   11.0083  -17.2296   27.0881 C   0  0  0  0  0  0  0  0  0  0  0  0
   10.5172  -18.3521   26.4587 O   0  0  0  0  0  0  0  0  0  0  0  0
   11.7205  -17.3703   28.1040 O   0  0  0  0  0  0  0  0  0  0  0  0
  2  1  1  1
  3  2  1  0
  3  4  1  0
  4  9  1  0
  5  4  2  0
  5  6  1  0
  6  7  2  0
  7  8  1  0
  9  8  2  0
 10 11  2  0
 10  2  1  0
 12 13  1  0
 13 14  2  0
 14 15  1  0
 16 15  2  0
 16 17  1  0
 18 17  1  1
 18 19  1  0
 19 10  1  0
 20 29  1  0
 20 18  1  0
 21 20  2  0
 22 16  1  0
 23 13  1  0
 23 22  2  0
 24 25  1  0
 25 26  1  0
 26 27  1  1
 26 28  1  0
 28 29  1  6
 28 30  1  0
 30 31  1  0
 32 30  2  0
M  END
$$$$
