FYI.pdb
     RDKit          3D

 32 33  0  0  1  0  0  0  0  0999 V2000
    6.1843  -18.3906   26.3548 N   0  0  0  0  0  0  0  0  0  0  0  0
    6.2016  -16.9417   26.0901 C   0  0  1  0  0  0  0  0  0  0  0  0
    6.7223  -16.2649   27.3142 C   0  0  0  0  0  0  0  0  0  0  0  0
    6.7641  -14.7987   27.2440 C   0  0  0  0  0  0  0  0  0  0  0  0
    5.5862  -14.1028   27.1363 C   0  0  0  0  0  0  0  0  0  0  0  0
    5.5604  -12.7213   27.0649 C   0  0  0  0  0  0  0  0  0  0  0  0
    6.7615  -12.0655   27.1056 C   0  0  0  0  0  0  0  0  0  0  0  0
    7.9509  -12.7432   27.2131 C   0  0  0  0  0  0  0  0  0  0  0  0
    7.9486  -14.1140   27.2823 C   0  0  0  0  0  0  0  0  0  0  0  0
    6.9788  -16.7396   24.8681 C   0  0  0  0  0  0  0  0  0  0  0  0
    7.9150  -17.5350   24.5139 O   0  0  0  0  0  0  0  0  0  0  0  0
    8.9729  -13.4695   16.7844 O   0  0  0  0  0  0  0  0  0  0  0  0
    8.4707  -13.6544   18.0870 C   0  0  0  0  0  0  0  0  0  0  0  0
    7.8579  -14.8394   18.4365 C   0  0  0  0  0  0  0  0  0  0  0  0
    7.3702  -15.0142   19.7081 C   0  0  0  0  0  0  0  0  0  0  0  0
    7.4605  -14.0445   20.6845 C   0  0  0  0  0  0  0  0  0  0  0  0
    6.9331  -14.2443   22.0487 C   0  0  0  0  0  0  0  0  0  0  0  0
    7.5086  -15.4719   22.7317 C   0  0  2  0  0  0  0  0  0  0  0  0
    6.7626  -15.6416   23.9631 N   0  0  0  0  0  0  0  0  0  0  0  0
    8.9536  -15.4511   22.8993 C   0  0  0  0  0  0  0  0  0  0  0  0
    9.5061  -14.6184   23.6921 O   0  0  0  0  0  0  0  0  0  0  0  0
    8.0736  -12.8699   20.3205 C   0  0  0  0  0  0  0  0  0  0  0  0
    8.5774  -12.6650   19.0387 C   0  0  0  0  0  0  0  0  0  0  0  0
   11.6838  -18.0007   25.2925 C   0  0  0  0  0  0  0  0  0  0  0  0
   11.1866  -18.4843   23.9613 C   0  0  0  0  0  0  0  0  0  0  0  0
   11.7715  -17.7993   22.7701 C   0  0  2  0  0  0  0  0  0  0  0  0
   13.2938  -17.6707   22.9388 C   0  0  0  0  0  0  0  0  0  0  0  0
   11.2793  -16.3812   22.5523 C   0  0  2  0  0  0  0  0  0  0  0  0
    9.8649  -16.3152   22.2334 N   0  0  0  0  0  0  0  0  0  0  0  0
   12.0225  -15.8427   21.3981 C   0  0  0  0  0  0  0  0  0  0  0  0
   11.5665  -16.0471   20.1145 O   0  0  0  0  0  0  0  0  0  0  0  0
   13.0761  -15.1945   21.5682 O   0  0  0  0  0  0  0  0  0  0  0  0
  2  1  1  1
  3  2  1  0
  3  4  1  0
  4  9  1  0
  5  4  2  0
  5  6  1  0
  6  7  2  0
  7  8  1  0
  9  8  2  0
 10 11  2  0
 10  2  1  0
 12 13  1  0
 13 14  2  0
 14 15  1  0
 16 15  2  0
 16 17  1  0
 18 17  1  1
 18 19  1  0
 19 10  1  0
 20 29  1  0
 20 18  1  0
 21 20  2  0
 22 16  1  0
 23 13  1  0
 23 22  2  0
 24 25  1  0
 25 26  1  0
 26 27  1  1
 26 28  1  0
 28 29  1  6
 28 30  1  0
 30 31  1  0
 32 30  2  0
M  END
$$$$
