TYR.pdb
     RDKit          3D

 31 31  0  0  1  0  0  0  0  0999 V2000
   17.9966  -26.7484  -10.7398 C   0  0  0  0  0  0  0  0  0  0  0  0
   18.0197  -25.3261  -11.2071 C   0  0  1  0  0  0  0  0  0  0  0  0
   16.7521  -24.7464  -11.1318 O   0  0  0  0  0  0  0  0  0  0  0  0
   18.9616  -24.5128  -10.3497 C   0  0  2  0  0  0  0  0  0  0  0  0
   18.4158  -24.3629   -9.0041 N   0  0  0  0  0  0  0  0  0  0  0  0
   19.1517  -23.1769  -10.9446 C   0  0  0  0  0  0  0  0  0  0  0  0
   18.5545  -22.1823  -10.4521 O   0  0  0  0  0  0  0  0  0  0  0  0
   23.2565  -17.0352  -16.0360 O   0  0  0  0  0  0  0  0  0  0  0  0
   22.8497  -18.1231  -15.2657 C   0  0  0  0  0  0  0  0  0  0  0  0
   23.0026  -19.4080  -15.7433 C   0  0  0  0  0  0  0  0  0  0  0  0
   22.6050  -20.4924  -14.9915 C   0  0  0  0  0  0  0  0  0  0  0  0
   22.0331  -20.3472  -13.7217 C   0  0  0  0  0  0  0  0  0  0  0  0
   21.6244  -21.5344  -12.9578 C   0  0  0  0  0  0  0  0  0  0  0  0
   20.1745  -21.6110  -12.5904 C   0  0  2  0  0  0  0  0  0  0  0  0
   19.9952  -22.9846  -12.0642 N   0  0  0  0  0  0  0  0  0  0  0  0
   19.2387  -21.4971  -13.7315 C   0  0  0  0  0  0  0  0  0  0  0  0
   18.9784  -22.4904  -14.4411 O   0  0  0  0  0  0  0  0  0  0  0  0
   21.8904  -19.0537  -13.2658 C   0  0  0  0  0  0  0  0  0  0  0  0
   22.2881  -17.9607  -14.0173 C   0  0  0  0  0  0  0  0  0  0  0  0
   14.2146  -15.2372  -16.6094 N   0  0  0  0  0  0  0  0  0  0  0  0
   13.5267  -16.3270  -17.2464 C   0  0  0  0  0  0  0  0  0  0  0  0
   12.3358  -16.1690  -17.6740 N   0  0  0  0  0  0  0  0  0  0  0  0
   14.2485  -17.5813  -17.3665 N   0  0  0  0  0  0  0  0  0  0  0  0
   15.4787  -17.7173  -16.6807 C   0  0  0  0  0  0  0  0  0  0  0  0
   15.6163  -18.6970  -15.5925 C   0  0  0  0  0  0  0  0  0  0  0  0
   16.9480  -18.8261  -14.9547 C   0  0  0  0  0  0  0  0  0  0  0  0
   17.7370  -20.0406  -15.1826 C   0  0  2  0  0  0  0  0  0  0  0  0
   18.6274  -20.2613  -14.0255 N   0  0  0  0  0  0  0  0  0  0  0  0
   18.5156  -20.0331  -16.4312 C   0  0  0  0  0  0  0  0  0  0  0  0
   19.6825  -19.2545  -16.5247 O   0  0  0  0  0  0  0  0  0  0  0  0
   18.2209  -20.6817  -17.4472 O   0  0  0  0  0  0  0  0  0  0  0  0
  2  4  1  0
  2  1  1  1
  3  2  1  0
  4  5  1  1
  4  6  1  0
  6 15  1  0
  6  7  2  0
  8  9  1  0
  9 10  2  0
 10 11  1  0
 12 13  1  0
 12 11  2  0
 14 13  1  6
 14 16  1  0
 15 14  1  0
 16 17  2  0
 18 12  1  0
 19  9  1  0
 19 18  2  0
 20 21  1  0
 21 22  2  0
 21 23  1  0
 23 24  1  0
 24 25  1  0
 25 26  1  0
 27 26  1  1
 27 29  1  0
 28 27  1  0
 28 16  1  0
 29 30  1  0
 31 29  2  0
M  END
$$$$
