TYR.pdb
     RDKit          3D

 31 31  0  0  1  0  0  0  0  0999 V2000
   27.7089  -23.2491  -19.0990 C   0  0  0  0  0  0  0  0  0  0  0  0
   28.5224  -24.0128  -18.1005 C   0  0  1  0  0  0  0  0  0  0  0  0
   29.2957  -24.9955  -18.7209 O   0  0  0  0  0  0  0  0  0  0  0  0
   29.4522  -23.0770  -17.3633 C   0  0  2  0  0  0  0  0  0  0  0  0
   30.1951  -23.8070  -16.3405 N   0  0  0  0  0  0  0  0  0  0  0  0
   28.6732  -22.0031  -16.7194 C   0  0  0  0  0  0  0  0  0  0  0  0
   28.2379  -22.1630  -15.5474 O   0  0  0  0  0  0  0  0  0  0  0  0
   25.5370  -13.6645  -15.7972 O   0  0  0  0  0  0  0  0  0  0  0  0
   26.2339  -14.8351  -16.0913 C   0  0  0  0  0  0  0  0  0  0  0  0
   25.9260  -15.5608  -17.2231 C   0  0  0  0  0  0  0  0  0  0  0  0
   26.6078  -16.7196  -17.5256 C   0  0  0  0  0  0  0  0  0  0  0  0
   27.6339  -17.2129  -16.7104 C   0  0  0  0  0  0  0  0  0  0  0  0
   28.3320  -18.4538  -17.0749 C   0  0  0  0  0  0  0  0  0  0  0  0
   27.6577  -19.7287  -16.6708 C   0  0  2  0  0  0  0  0  0  0  0  0
   28.4009  -20.7885  -17.3920 N   0  0  0  0  0  0  0  0  0  0  0  0
   26.2521  -19.8552  -17.1167 C   0  0  0  0  0  0  0  0  0  0  0  0
   25.9805  -20.0103  -18.3250 O   0  0  0  0  0  0  0  0  0  0  0  0
   27.9235  -16.4706  -15.5850 C   0  0  0  0  0  0  0  0  0  0  0  0
   27.2413  -15.3057  -15.2765 C   0  0  0  0  0  0  0  0  0  0  0  0
   19.4778  -21.1521  -11.7471 N   0  0  0  0  0  0  0  0  0  0  0  0
   20.2619  -19.9492  -11.8170 C   0  0  0  0  0  0  0  0  0  0  0  0
   20.2330  -19.1105  -10.8569 N   0  0  0  0  0  0  0  0  0  0  0  0
   21.0617  -19.7528  -13.0129 N   0  0  0  0  0  0  0  0  0  0  0  0
   20.7974  -20.5668  -14.1397 C   0  0  0  0  0  0  0  0  0  0  0  0
   21.5349  -20.3575  -15.3947 C   0  0  0  0  0  0  0  0  0  0  0  0
   23.0014  -20.1644  -15.3005 C   0  0  0  0  0  0  0  0  0  0  0  0
   23.7773  -19.9582  -16.5272 C   0  0  2  0  0  0  0  0  0  0  0  0
   25.2034  -19.8056  -16.1758 N   0  0  0  0  0  0  0  0  0  0  0  0
   23.3289  -18.8200  -17.3449 C   0  0  0  0  0  0  0  0  0  0  0  0
   23.7032  -17.5120  -16.9904 O   0  0  0  0  0  0  0  0  0  0  0  0
   22.6235  -18.9190  -18.3609 O   0  0  0  0  0  0  0  0  0  0  0  0
  2  4  1  0
  2  1  1  6
  3  2  1  0
  4  5  1  1
  4  6  1  0
  6 15  1  0
  6  7  2  0
  8  9  1  0
  9 10  2  0
 10 11  1  0
 12 13  1  0
 12 11  2  0
 14 13  1  6
 14 16  1  0
 15 14  1  0
 16 17  2  0
 18 12  1  0
 19  9  1  0
 19 18  2  0
 20 21  1  0
 21 22  2  0
 21 23  1  0
 23 24  1  0
 24 25  1  0
 25 26  1  0
 27 26  1  1
 27 29  1  0
 28 27  1  0
 28 16  1  0
 29 30  1  0
 31 29  2  0
M  END
$$$$
