TYR.pdb
     RDKit          3D

 31 31  0  0  1  0  0  0  0  0999 V2000
   20.2397  -21.7719  -12.2098 C   0  0  0  0  0  0  0  0  0  0  0  0
   20.5332  -21.1888  -10.8623 C   0  0  1  0  0  0  0  0  0  0  0  0
   19.9235  -21.9267   -9.8462 O   0  0  0  0  0  0  0  0  0  0  0  0
   22.0235  -21.1836  -10.6119 C   0  0  2  0  0  0  0  0  0  0  0  0
   22.3103  -20.6375   -9.2888 N   0  0  0  0  0  0  0  0  0  0  0  0
   22.6987  -20.3588  -11.6309 C   0  0  0  0  0  0  0  0  0  0  0  0
   22.8027  -19.1144  -11.4597 O   0  0  0  0  0  0  0  0  0  0  0  0
   30.0101  -20.5063  -10.9977 O   0  0  0  0  0  0  0  0  0  0  0  0
   28.8471  -20.6129  -11.7583 C   0  0  0  0  0  0  0  0  0  0  0  0
   27.9287  -21.6056  -11.4873 C   0  0  0  0  0  0  0  0  0  0  0  0
   26.7746  -21.7215  -12.2315 C   0  0  0  0  0  0  0  0  0  0  0  0
   26.4795  -20.8494  -13.2865 C   0  0  0  0  0  0  0  0  0  0  0  0
   25.2354  -21.0135  -14.0517 C   0  0  0  0  0  0  0  0  0  0  0  0
   24.1065  -20.1060  -13.6708 C   0  0  2  0  0  0  0  0  0  0  0  0
   23.2362  -20.9363  -12.8054 N   0  0  0  0  0  0  0  0  0  0  0  0
   23.2503  -19.6743  -14.7983 C   0  0  0  0  0  0  0  0  0  0  0  0
   22.6166  -20.5125  -15.4718 O   0  0  0  0  0  0  0  0  0  0  0  0
   27.4123  -19.8657  -13.5384 C   0  0  0  0  0  0  0  0  0  0  0  0
   28.5735  -19.7449  -12.7937 C   0  0  0  0  0  0  0  0  0  0  0  0
   18.2912  -13.3045  -15.6802 N   0  0  0  0  0  0  0  0  0  0  0  0
   18.4648  -13.3137  -17.1072 C   0  0  0  0  0  0  0  0  0  0  0  0
   17.6323  -12.7042  -17.8566 N   0  0  0  0  0  0  0  0  0  0  0  0
   19.6098  -14.0400  -17.6269 N   0  0  0  0  0  0  0  0  0  0  0  0
   20.4405  -14.7290  -16.7118 C   0  0  0  0  0  0  0  0  0  0  0  0
   21.5465  -15.5663  -17.2002 C   0  0  0  0  0  0  0  0  0  0  0  0
   22.3263  -16.3232  -16.1923 C   0  0  0  0  0  0  0  0  0  0  0  0
   22.3193  -17.7886  -16.2335 C   0  0  2  0  0  0  0  0  0  0  0  0
   23.1394  -18.3062  -15.1200 N   0  0  0  0  0  0  0  0  0  0  0  0
   22.7727  -18.3621  -17.5105 C   0  0  0  0  0  0  0  0  0  0  0  0
   24.1480  -18.4627  -17.7843 O   0  0  0  0  0  0  0  0  0  0  0  0
   22.0167  -18.7829  -18.4000 O   0  0  0  0  0  0  0  0  0  0  0  0
  2  4  1  0
  2  1  1  6
  3  2  1  0
  4  5  1  1
  4  6  1  0
  6 15  1  0
  6  7  2  0
  8  9  1  0
  9 10  2  0
 10 11  1  0
 12 13  1  0
 12 11  2  0
 14 13  1  6
 14 16  1  0
 15 14  1  0
 16 17  2  0
 18 12  1  0
 19  9  1  0
 19 18  2  0
 20 21  1  0
 21 22  2  0
 21 23  1  0
 23 24  1  0
 24 25  1  0
 25 26  1  0
 27 26  1  6
 27 29  1  0
 28 27  1  0
 28 16  1  0
 29 30  1  0
 31 29  2  0
M  END
$$$$
