TYR.pdb
     RDKit          3D

 31 31  0  0  1  0  0  0  0  0999 V2000
   21.7385  -12.3695  -20.8704 C   0  0  0  0  0  0  0  0  0  0  0  0
   22.9234  -13.0770  -20.2896 C   0  0  1  0  0  0  0  0  0  0  0  0
   23.7607  -13.5711  -21.2913 O   0  0  0  0  0  0  0  0  0  0  0  0
   23.7258  -12.1273  -19.4305 C   0  0  2  0  0  0  0  0  0  0  0  0
   25.0115  -12.7254  -19.0837 N   0  0  0  0  0  0  0  0  0  0  0  0
   22.9843  -11.8259  -18.1920 C   0  0  0  0  0  0  0  0  0  0  0  0
   21.7344  -11.6690  -18.2339 O   0  0  0  0  0  0  0  0  0  0  0  0
   22.8436  -17.9238  -15.1010 O   0  0  0  0  0  0  0  0  0  0  0  0
   22.9787  -16.5410  -14.9914 C   0  0  0  0  0  0  0  0  0  0  0  0
   24.2188  -15.9518  -15.1237 C   0  0  0  0  0  0  0  0  0  0  0  0
   24.3659  -14.5856  -15.0180 C   0  0  0  0  0  0  0  0  0  0  0  0
   23.2788  -13.7375  -14.7740 C   0  0  0  0  0  0  0  0  0  0  0  0
   23.4860  -12.2863  -14.6691 C   0  0  0  0  0  0  0  0  0  0  0  0
   22.8402  -11.4529  -15.7329 C   0  0  2  0  0  0  0  0  0  0  0  0
   23.6487  -11.7076  -16.9483 N   0  0  0  0  0  0  0  0  0  0  0  0
   22.9132   -9.9921  -15.5060 C   0  0  0  0  0  0  0  0  0  0  0  0
   23.9956   -9.3832  -15.6304 O   0  0  0  0  0  0  0  0  0  0  0  0
   22.0498  -14.3494  -14.6454 C   0  0  0  0  0  0  0  0  0  0  0  0
   21.8966  -15.7216  -14.7506 C   0  0  0  0  0  0  0  0  0  0  0  0
   21.3185   -3.5443  -19.0948 N   0  0  0  0  0  0  0  0  0  0  0  0
   20.8302   -2.8060  -17.9621 C   0  0  0  0  0  0  0  0  0  0  0  0
   20.6941   -1.5402  -18.0343 N   0  0  0  0  0  0  0  0  0  0  0  0
   20.5141   -3.5669  -16.7665 N   0  0  0  0  0  0  0  0  0  0  0  0
   20.7396   -4.9637  -16.7793 C   0  0  0  0  0  0  0  0  0  0  0  0
   20.3346   -5.7905  -15.6325 C   0  0  0  0  0  0  0  0  0  0  0  0
   20.6044   -7.2458  -15.7111 C   0  0  0  0  0  0  0  0  0  0  0  0
   21.7258   -7.8088  -14.9529 C   0  0  2  0  0  0  0  0  0  0  0  0
   21.7547   -9.2719  -15.1498 N   0  0  0  0  0  0  0  0  0  0  0  0
   21.7099   -7.4875  -13.5171 C   0  0  0  0  0  0  0  0  0  0  0  0
   22.3422   -6.3206  -13.0531 O   0  0  0  0  0  0  0  0  0  0  0  0
   21.1635   -8.1833  -12.6471 O   0  0  0  0  0  0  0  0  0  0  0  0
  2  4  1  0
  2  1  1  6
  3  2  1  0
  4  5  1  1
  4  6  1  0
  6 15  1  0
  6  7  2  0
  8  9  1  0
  9 10  2  0
 10 11  1  0
 12 13  1  0
 12 11  2  0
 14 13  1  1
 14 16  1  0
 15 14  1  0
 16 17  2  0
 18 12  1  0
 19  9  1  0
 19 18  2  0
 20 21  1  0
 21 22  2  0
 21 23  1  0
 23 24  1  0
 24 25  1  0
 25 26  1  0
 27 26  1  6
 27 29  1  0
 28 27  1  0
 28 16  1  0
 29 30  1  0
 31 29  2  0
M  END
$$$$
