TYR.pdb
     RDKit          3D

 31 31  0  0  1  0  0  0  0  0999 V2000
   19.2336   -7.9328  -13.8093 C   0  0  0  0  0  0  0  0  0  0  0  0
   18.8063   -9.1918  -14.4981 C   0  0  1  0  0  0  0  0  0  0  0  0
   19.8310   -9.7085  -15.2927 O   0  0  0  0  0  0  0  0  0  0  0  0
   18.4275  -10.2396  -13.4771 C   0  0  2  0  0  0  0  0  0  0  0  0
   17.9958  -11.4628  -14.1467 N   0  0  0  0  0  0  0  0  0  0  0  0
   17.3280   -9.7389  -12.6314 C   0  0  0  0  0  0  0  0  0  0  0  0
   16.1769   -9.5934  -13.1237 O   0  0  0  0  0  0  0  0  0  0  0  0
   12.7292  -14.2527  -10.8470 O   0  0  0  0  0  0  0  0  0  0  0  0
   13.5535  -13.1857  -10.4940 C   0  0  0  0  0  0  0  0  0  0  0  0
   14.9249  -13.3157  -10.5621 C   0  0  0  0  0  0  0  0  0  0  0  0
   15.7511  -12.2682  -10.2164 C   0  0  0  0  0  0  0  0  0  0  0  0
   15.2473  -11.0353   -9.7841 C   0  0  0  0  0  0  0  0  0  0  0  0
   16.1688   -9.9479   -9.4260 C   0  0  0  0  0  0  0  0  0  0  0  0
   16.3935   -8.9054  -10.4777 C   0  0  2  0  0  0  0  0  0  0  0  0
   17.5371   -9.4154  -11.2700 N   0  0  0  0  0  0  0  0  0  0  0  0
   16.8240   -7.5867   -9.9617 C   0  0  0  0  0  0  0  0  0  0  0  0
   17.9038   -7.4666   -9.3472 O   0  0  0  0  0  0  0  0  0  0  0  0
   13.8738  -10.9295   -9.7241 C   0  0  0  0  0  0  0  0  0  0  0  0
   13.0392  -11.9790  -10.0702 C   0  0  0  0  0  0  0  0  0  0  0  0
   16.4591   -0.2278  -13.9895 N   0  0  0  0  0  0  0  0  0  0  0  0
   16.7925    0.4032  -12.7416 C   0  0  0  0  0  0  0  0  0  0  0  0
   17.0180    1.6576  -12.6995 N   0  0  0  0  0  0  0  0  0  0  0  0
   16.8576   -0.4503  -11.5685 N   0  0  0  0  0  0  0  0  0  0  0  0
   16.6314   -1.8373  -11.7330 C   0  0  0  0  0  0  0  0  0  0  0  0
   16.6486   -2.7344  -10.5678 C   0  0  0  0  0  0  0  0  0  0  0  0
   16.4226   -4.1783  -10.8145 C   0  0  0  0  0  0  0  0  0  0  0  0
   16.3625   -5.0992   -9.6754 C   0  0  2  0  0  0  0  0  0  0  0  0
   16.0166   -6.4489  -10.1643 N   0  0  0  0  0  0  0  0  0  0  0  0
   15.4330   -4.6884   -8.6112 C   0  0  0  0  0  0  0  0  0  0  0  0
   15.8398   -3.7453   -7.6512 O   0  0  0  0  0  0  0  0  0  0  0  0
   14.2757   -5.1175   -8.4844 O   0  0  0  0  0  0  0  0  0  0  0  0
  2  4  1  0
  2  1  1  1
  3  2  1  0
  4  5  1  6
  4  6  1  0
  6 15  1  0
  6  7  2  0
  8  9  1  0
  9 10  2  0
 10 11  1  0
 12 13  1  0
 12 11  2  0
 14 13  1  1
 14 16  1  0
 15 14  1  0
 16 17  2  0
 18 12  1  0
 19  9  1  0
 19 18  2  0
 20 21  1  0
 21 22  2  0
 21 23  1  0
 23 24  1  0
 24 25  1  0
 25 26  1  0
 27 26  1  6
 27 29  1  0
 28 27  1  0
 28 16  1  0
 29 30  1  0
 31 29  2  0
M  END
$$$$
