TYR.pdb
     RDKit          3D

 31 31  0  0  1  0  0  0  0  0999 V2000
   27.5751  -20.1315  -19.3674 C   0  0  0  0  0  0  0  0  0  0  0  0
   26.8615  -20.6342  -18.1508 C   0  0  1  0  0  0  0  0  0  0  0  0
   25.9514  -21.6413  -18.4760 O   0  0  0  0  0  0  0  0  0  0  0  0
   27.8553  -21.1982  -17.1618 C   0  0  2  0  0  0  0  0  0  0  0  0
   28.4925  -22.3907  -17.7122 N   0  0  0  0  0  0  0  0  0  0  0  0
   27.1653  -21.5551  -15.9083 C   0  0  0  0  0  0  0  0  0  0  0  0
   26.7821  -22.7411  -15.7213 O   0  0  0  0  0  0  0  0  0  0  0  0
   24.3164  -20.5933   -7.4916 O   0  0  0  0  0  0  0  0  0  0  0  0
   24.9445  -20.4977   -8.7320 C   0  0  0  0  0  0  0  0  0  0  0  0
   24.3134  -19.8655   -9.7830 C   0  0  0  0  0  0  0  0  0  0  0  0
   24.9236  -19.7638  -11.0144 C   0  0  0  0  0  0  0  0  0  0  0  0
   26.1982  -20.2899  -11.2584 C   0  0  0  0  0  0  0  0  0  0  0  0
   26.8076  -20.1566  -12.5891 C   0  0  0  0  0  0  0  0  0  0  0  0
   26.2187  -21.0114  -13.6689 C   0  0  2  0  0  0  0  0  0  0  0  0
   26.9214  -20.5894  -14.9033 N   0  0  0  0  0  0  0  0  0  0  0  0
   24.7808  -20.7772  -13.9302 C   0  0  0  0  0  0  0  0  0  0  0  0
   24.4025  -19.7451  -14.5213 O   0  0  0  0  0  0  0  0  0  0  0  0
   26.8088  -20.9171  -10.1930 C   0  0  0  0  0  0  0  0  0  0  0  0
   26.1999  -21.0222   -8.9537 C   0  0  0  0  0  0  0  0  0  0  0  0
   18.2563  -24.3785  -10.0196 N   0  0  0  0  0  0  0  0  0  0  0  0
   18.2798  -25.2401  -11.1701 C   0  0  0  0  0  0  0  0  0  0  0  0
   17.6761  -26.3629  -11.1405 N   0  0  0  0  0  0  0  0  0  0  0  0
   19.0134  -24.7687  -12.3312 N   0  0  0  0  0  0  0  0  0  0  0  0
   19.4620  -23.4268  -12.3437 C   0  0  0  0  0  0  0  0  0  0  0  0
   20.2215  -22.9099  -13.4921 C   0  0  0  0  0  0  0  0  0  0  0  0
   21.6935  -22.8122  -13.3487 C   0  0  0  0  0  0  0  0  0  0  0  0
   22.3689  -21.5662  -13.7236 C   0  0  2  0  0  0  0  0  0  0  0  0
   23.8223  -21.7242  -13.5157 N   0  0  0  0  0  0  0  0  0  0  0  0
   21.8790  -20.3733  -13.0150 C   0  0  0  0  0  0  0  0  0  0  0  0
   22.3112  -20.1107  -11.7032 O   0  0  0  0  0  0  0  0  0  0  0  0
   21.0885  -19.5459  -13.4948 O   0  0  0  0  0  0  0  0  0  0  0  0
  2  4  1  0
  2  1  1  6
  3  2  1  0
  4  5  1  6
  4  6  1  0
  6 15  1  0
  6  7  2  0
  8  9  1  0
  9 10  2  0
 10 11  1  0
 12 13  1  0
 12 11  2  0
 14 13  1  1
 14 16  1  0
 15 14  1  0
 16 17  2  0
 18 12  1  0
 19  9  1  0
 19 18  2  0
 20 21  1  0
 21 22  2  0
 21 23  1  0
 23 24  1  0
 24 25  1  0
 25 26  1  0
 27 26  1  1
 27 29  1  0
 28 27  1  0
 28 16  1  0
 29 30  1  0
 31 29  2  0
M  END
$$$$
