TYR.pdb
     RDKit          3D

 31 31  0  0  1  0  0  0  0  0999 V2000
   27.8637  -23.8970  -17.3989 C   0  0  0  0  0  0  0  0  0  0  0  0
   27.8353  -22.4078  -17.5522 C   0  0  1  0  0  0  0  0  0  0  0  0
   28.2304  -22.0219  -18.8342 O   0  0  0  0  0  0  0  0  0  0  0  0
   26.4366  -21.8877  -17.3135 C   0  0  2  0  0  0  0  0  0  0  0  0
   26.3723  -20.4599  -17.6109 N   0  0  0  0  0  0  0  0  0  0  0  0
   26.0562  -22.1046  -15.9054 C   0  0  0  0  0  0  0  0  0  0  0  0
   25.8524  -23.2755  -15.4859 O   0  0  0  0  0  0  0  0  0  0  0  0
   25.0530  -20.4071   -7.2060 O   0  0  0  0  0  0  0  0  0  0  0  0
   25.3077  -20.3638   -8.5756 C   0  0  0  0  0  0  0  0  0  0  0  0
   26.4315  -20.9740   -9.0925 C   0  0  0  0  0  0  0  0  0  0  0  0
   26.6947  -20.9388  -10.4448 C   0  0  0  0  0  0  0  0  0  0  0  0
   25.8463  -20.2907  -11.3508 C   0  0  0  0  0  0  0  0  0  0  0  0
   26.1697  -20.2802  -12.7844 C   0  0  0  0  0  0  0  0  0  0  0  0
   25.4623  -21.2990  -13.6239 C   0  0  2  0  0  0  0  0  0  0  0  0
   25.9135  -21.0203  -15.0076 N   0  0  0  0  0  0  0  0  0  0  0  0
   23.9886  -21.1644  -13.6517 C   0  0  0  0  0  0  0  0  0  0  0  0
   23.4420  -20.3148  -14.3847 O   0  0  0  0  0  0  0  0  0  0  0  0
   24.7298  -19.6882  -10.8106 C   0  0  0  0  0  0  0  0  0  0  0  0
   24.4609  -19.7204   -9.4526 C   0  0  0  0  0  0  0  0  0  0  0  0
   17.8943  -26.2348  -11.8539 N   0  0  0  0  0  0  0  0  0  0  0  0
   17.1540  -25.1899  -11.2007 C   0  0  0  0  0  0  0  0  0  0  0  0
   15.8858  -25.1332  -11.3213 N   0  0  0  0  0  0  0  0  0  0  0  0
   17.9164  -24.2307  -10.4213 N   0  0  0  0  0  0  0  0  0  0  0  0
   19.2952  -24.0813  -10.7015 C   0  0  0  0  0  0  0  0  0  0  0  0
   19.7676  -22.9536  -11.5188 C   0  0  0  0  0  0  0  0  0  0  0  0
   21.2256  -22.8533  -11.7660 C   0  0  0  0  0  0  0  0  0  0  0  0
   21.7265  -21.8362  -12.6954 C   0  0  2  0  0  0  0  0  0  0  0  0
   23.1858  -22.0013  -12.8501 N   0  0  0  0  0  0  0  0  0  0  0  0
   21.4077  -20.4523  -12.3103 C   0  0  0  0  0  0  0  0  0  0  0  0
   20.4406  -19.7297  -13.0308 O   0  0  0  0  0  0  0  0  0  0  0  0
   21.9376  -19.8454  -11.3666 O   0  0  0  0  0  0  0  0  0  0  0  0
  2  4  1  0
  2  1  1  6
  3  2  1  0
  4  5  1  1
  4  6  1  0
  6 15  1  0
  6  7  2  0
  8  9  1  0
  9 10  2  0
 10 11  1  0
 12 13  1  0
 12 11  2  0
 14 13  1  1
 14 16  1  0
 15 14  1  0
 16 17  2  0
 18 12  1  0
 19  9  1  0
 19 18  2  0
 20 21  1  0
 21 22  2  0
 21 23  1  0
 23 24  1  0
 24 25  1  0
 25 26  1  0
 27 26  1  1
 27 29  1  0
 28 27  1  0
 28 16  1  0
 29 30  1  0
 31 29  2  0
M  END
$$$$
