IWE.pdb
     RDKit          3D

 32 33  0  0  1  0  0  0  0  0999 V2000
   27.8383  -21.5262  -20.1241 C   0  0  0  0  0  0  0  0  0  0  0  0
   28.7108  -21.8157  -18.9320 C   0  0  0  0  0  0  0  0  0  0  0  0
   27.9319  -21.9472  -17.6678 C   0  0  2  0  0  0  0  0  0  0  0  0
   27.0878  -20.7298  -17.4276 C   0  0  0  0  0  0  0  0  0  0  0  0
   28.8144  -22.3018  -16.4857 C   0  0  2  0  0  0  0  0  0  0  0  0
   29.5915  -23.4637  -16.6505 N   0  0  0  0  0  0  0  0  0  0  0  0
   27.9642  -22.2323  -15.2739 C   0  0  0  0  0  0  0  0  0  0  0  0
   27.0764  -23.1427  -15.0696 O   0  0  0  0  0  0  0  0  0  0  0  0
   28.0150  -21.2401  -14.2678 N   0  0  0  0  0  0  0  0  0  0  0  0
   27.1409  -21.2699  -13.1062 C   0  0  1  0  0  0  0  0  0  0  0  0
   27.6950  -20.4933  -11.9578 C   0  0  0  0  0  0  0  0  0  0  0  0
   26.8584  -20.4001  -10.7671 C   0  0  0  0  0  0  0  0  0  0  0  0
   25.5249  -20.1607  -10.5639 C   0  0  0  0  0  0  0  0  0  0  0  0
   25.2623  -20.1895   -9.2398 N   0  0  0  0  0  0  0  0  0  0  0  0
   26.3957  -20.4425   -8.5765 C   0  0  0  0  0  0  0  0  0  0  0  0
   26.6473  -20.5682   -7.2256 C   0  0  0  0  0  0  0  0  0  0  0  0
   27.9345  -20.8352   -6.7861 C   0  0  0  0  0  0  0  0  0  0  0  0
   28.9777  -20.9791   -7.6809 C   0  0  0  0  0  0  0  0  0  0  0  0
   28.6794  -20.8456   -9.0155 C   0  0  0  0  0  0  0  0  0  0  0  0
   27.4122  -20.5800   -9.4890 C   0  0  0  0  0  0  0  0  0  0  0  0
   25.7323  -20.9351  -13.4291 C   0  0  0  0  0  0  0  0  0  0  0  0
   25.5326  -19.7616  -13.8760 O   0  0  0  0  0  0  0  0  0  0  0  0
   24.6790  -21.8379  -13.2600 N   0  0  0  0  0  0  0  0  0  0  0  0
   23.3086  -21.4540  -13.6630 C   0  0  1  0  0  0  0  0  0  0  0  0
   22.6786  -22.6015  -14.3598 C   0  0  0  0  0  0  0  0  0  0  0  0
   23.4577  -23.8333  -14.5572 C   0  0  0  0  0  0  0  0  0  0  0  0
   22.7121  -24.9331  -15.1575 C   0  0  0  0  0  0  0  0  0  0  0  0
   21.5192  -24.8347  -15.4989 O   0  0  0  0  0  0  0  0  0  0  0  0
   22.6256  -20.9787  -12.4800 C   0  0  0  0  0  0  0  0  0  0  0  0
   21.4841  -20.4310  -12.5770 O   0  0  0  0  0  0  0  0  0  0  0  0
   23.3650  -26.1532  -15.3656 O   0  0  0  0  0  0  0  0  0  0  0  0
   23.1350  -21.0871  -11.2026 O   0  0  0  0  0  0  0  0  0  0  0  0
  2  1  1  0
  3  2  1  0
  3  4  1  1
  5  3  1  0
  5  6  1  6
  7  5  1  0
  7  8  2  0
  9  7  1  0
 10  9  1  0
 10 21  1  0
 10 11  1  1
 12 11  1  0
 13 12  2  0
 14 13  1  0
 15 14  1  0
 15 20  2  0
 16 15  1  0
 17 16  2  0
 17 18  1  0
 18 19  2  0
 19 20  1  0
 20 12  1  0
 21 23  1  0
 22 21  2  0
 23 24  1  0
 24 29  1  0
 24 25  1  1
 26 25  1  0
 27 28  2  0
 27 26  1  0
 29 30  2  0
 29 32  1  0
 31 27  1  0
M  END
$$$$
