IWE.pdb
     RDKit          3D

 32 33  0  0  1  0  0  0  0  0999 V2000
   28.5643  -21.4186  -18.8689 C   0  0  0  0  0  0  0  0  0  0  0  0
   27.2586  -22.1676  -18.8581 C   0  0  0  0  0  0  0  0  0  0  0  0
   26.6292  -22.2064  -17.5074 C   0  0  2  0  0  0  0  0  0  0  0  0
   26.1101  -20.8534  -17.1173 C   0  0  0  0  0  0  0  0  0  0  0  0
   27.5486  -22.8140  -16.4645 C   0  0  2  0  0  0  0  0  0  0  0  0
   28.0151  -24.1078  -16.7637 N   0  0  0  0  0  0  0  0  0  0  0  0
   26.8942  -22.6270  -15.1481 C   0  0  0  0  0  0  0  0  0  0  0  0
   25.8529  -23.3252  -14.8531 O   0  0  0  0  0  0  0  0  0  0  0  0
   27.2963  -21.7325  -14.1296 N   0  0  0  0  0  0  0  0  0  0  0  0
   26.6057  -21.6523  -12.8525 C   0  0  1  0  0  0  0  0  0  0  0  0
   27.4813  -21.1235  -11.7650 C   0  0  0  0  0  0  0  0  0  0  0  0
   26.8348  -20.8234  -10.4928 C   0  0  0  0  0  0  0  0  0  0  0  0
   25.5280  -20.6924  -10.1032 C   0  0  0  0  0  0  0  0  0  0  0  0
   25.4812  -20.4102   -8.7836 N   0  0  0  0  0  0  0  0  0  0  0  0
   26.7290  -20.3546   -8.3057 C   0  0  0  0  0  0  0  0  0  0  0  0
   27.2031  -20.1003   -7.0350 C   0  0  0  0  0  0  0  0  0  0  0  0
   28.5685  -20.0983   -6.7963 C   0  0  0  0  0  0  0  0  0  0  0  0
   29.4703  -20.3479   -7.8133 C   0  0  0  0  0  0  0  0  0  0  0  0
   28.9519  -20.5957   -9.0614 C   0  0  0  0  0  0  0  0  0  0  0  0
   27.6009  -20.6056   -9.3360 C   0  0  0  0  0  0  0  0  0  0  0  0
   25.2906  -20.9723  -12.9438 C   0  0  0  0  0  0  0  0  0  0  0  0
   25.3129  -19.7873  -13.4041 O   0  0  0  0  0  0  0  0  0  0  0  0
   24.0931  -21.5786  -12.5542 N   0  0  0  0  0  0  0  0  0  0  0  0
   22.8010  -20.9620  -12.9253 C   0  0  1  0  0  0  0  0  0  0  0  0
   22.2199  -21.7209  -14.0591 C   0  0  0  0  0  0  0  0  0  0  0  0
   22.0792  -21.0590  -15.3651 C   0  0  0  0  0  0  0  0  0  0  0  0
   21.5059  -21.8972  -16.4114 C   0  0  0  0  0  0  0  0  0  0  0  0
   21.2850  -21.4835  -17.5643 O   0  0  0  0  0  0  0  0  0  0  0  0
   21.9928  -20.8942  -11.7278 C   0  0  0  0  0  0  0  0  0  0  0  0
   22.2673  -21.6280  -10.7285 O   0  0  0  0  0  0  0  0  0  0  0  0
   21.1942  -23.2280  -16.1111 O   0  0  0  0  0  0  0  0  0  0  0  0
   20.9091  -20.0539  -11.5784 O   0  0  0  0  0  0  0  0  0  0  0  0
  2  1  1  0
  3  2  1  0
  3  4  1  1
  5  3  1  0
  5  6  1  6
  7  5  1  0
  7  8  2  0
  9  7  1  0
 10  9  1  0
 10 21  1  0
 10 11  1  1
 12 11  1  0
 13 12  2  0
 14 13  1  0
 15 14  1  0
 15 20  2  0
 16 15  1  0
 17 16  2  0
 17 18  1  0
 18 19  2  0
 19 20  1  0
 20 12  1  0
 21 23  1  0
 22 21  2  0
 23 24  1  0
 24 29  1  0
 24 25  1  6
 26 25  1  0
 27 28  2  0
 27 26  1  0
 29 30  2  0
 29 32  1  0
 31 27  1  0
M  END
$$$$
