IWE.pdb
     RDKit          3D

 32 33  0  0  1  0  0  0  0  0999 V2000
   28.5602  -18.7024  -16.5543 C   0  0  0  0  0  0  0  0  0  0  0  0
   29.1503  -19.3310  -15.3203 C   0  0  0  0  0  0  0  0  0  0  0  0
   28.1112  -19.7726  -14.3470 C   0  0  2  0  0  0  0  0  0  0  0  0
   27.1848  -18.6439  -14.0009 C   0  0  0  0  0  0  0  0  0  0  0  0
   28.7167  -20.4405  -13.1266 C   0  0  2  0  0  0  0  0  0  0  0  0
   29.6362  -21.4691  -13.4058 N   0  0  0  0  0  0  0  0  0  0  0  0
   27.5972  -20.7738  -12.2147 C   0  0  0  0  0  0  0  0  0  0  0  0
   27.0352  -21.9297  -12.2972 O   0  0  0  0  0  0  0  0  0  0  0  0
   27.0478  -19.9353  -11.2175 N   0  0  0  0  0  0  0  0  0  0  0  0
   25.9345  -20.3538  -10.3811 C   0  0  1  0  0  0  0  0  0  0  0  0
   25.9441  -19.6859   -9.0459 C   0  0  0  0  0  0  0  0  0  0  0  0
   27.2183  -19.6591   -8.3374 C   0  0  0  0  0  0  0  0  0  0  0  0
   28.4882  -19.2835   -8.6880 C   0  0  0  0  0  0  0  0  0  0  0  0
   29.3127  -19.4558   -7.6327 N   0  0  0  0  0  0  0  0  0  0  0  0
   28.6073  -19.9353   -6.6027 C   0  0  0  0  0  0  0  0  0  0  0  0
   28.9896  -20.2741   -5.3208 C   0  0  0  0  0  0  0  0  0  0  0  0
   28.0487  -20.7600   -4.4266 C   0  0  0  0  0  0  0  0  0  0  0  0
   26.7259  -20.9126   -4.7965 C   0  0  0  0  0  0  0  0  0  0  0  0
   26.3922  -20.5625   -6.0825 C   0  0  0  0  0  0  0  0  0  0  0  0
   27.3004  -20.0766   -6.9988 C   0  0  0  0  0  0  0  0  0  0  0  0
   24.6256  -20.2812  -11.0754 C   0  0  0  0  0  0  0  0  0  0  0  0
   24.4357  -19.2456  -11.7882 O   0  0  0  0  0  0  0  0  0  0  0  0
   23.6512  -21.2771  -10.9657 N   0  0  0  0  0  0  0  0  0  0  0  0
   22.4009  -21.1730  -11.7489 C   0  0  1  0  0  0  0  0  0  0  0  0
   22.0587  -22.5149  -12.2795 C   0  0  0  0  0  0  0  0  0  0  0  0
   20.7827  -22.6998  -12.9872 C   0  0  0  0  0  0  0  0  0  0  0  0
   20.8227  -23.6827  -14.0634 C   0  0  0  0  0  0  0  0  0  0  0  0
   21.8401  -24.3456  -14.3365 O   0  0  0  0  0  0  0  0  0  0  0  0
   21.4068  -20.5555  -10.8990 C   0  0  0  0  0  0  0  0  0  0  0  0
   21.4970  -20.6504   -9.6360 O   0  0  0  0  0  0  0  0  0  0  0  0
   19.6659  -23.8970  -14.8213 O   0  0  0  0  0  0  0  0  0  0  0  0
   20.3304  -19.8350  -11.3736 O   0  0  0  0  0  0  0  0  0  0  0  0
  2  1  1  0
  3  2  1  0
  3  4  1  1
  5  3  1  0
  5  6  1  6
  7  5  1  0
  7  8  2  0
  9  7  1  0
 10  9  1  0
 10 21  1  0
 10 11  1  1
 12 11  1  0
 13 12  2  0
 14 13  1  0
 15 14  1  0
 15 20  2  0
 16 15  1  0
 17 16  2  0
 17 18  1  0
 18 19  2  0
 19 20  1  0
 20 12  1  0
 21 23  1  0
 22 21  2  0
 23 24  1  0
 24 29  1  0
 24 25  1  1
 26 25  1  0
 27 28  2  0
 27 26  1  0
 29 30  2  0
 29 32  1  0
 31 27  1  0
M  END
$$$$
