IWE.pdb
     RDKit          3D

 32 33  0  0  1  0  0  0  0  0999 V2000
   17.8784  -28.7122   -2.4485 C   0  0  0  0  0  0  0  0  0  0  0  0
   17.4077  -27.7098   -3.4682 C   0  0  0  0  0  0  0  0  0  0  0  0
   16.8341  -26.4827   -2.8459 C   0  0  2  0  0  0  0  0  0  0  0  0
   15.7167  -26.8289   -1.9058 C   0  0  0  0  0  0  0  0  0  0  0  0
   16.4405  -25.4460   -3.8814 C   0  0  2  0  0  0  0  0  0  0  0  0
   17.4512  -25.1104   -4.8017 N   0  0  0  0  0  0  0  0  0  0  0  0
   15.8017  -24.3255   -3.1518 C   0  0  0  0  0  0  0  0  0  0  0  0
   16.5331  -23.3720   -2.6886 O   0  0  0  0  0  0  0  0  0  0  0  0
   14.4203  -24.1707   -2.8926 N   0  0  0  0  0  0  0  0  0  0  0  0
   13.8811  -22.9819   -2.2521 C   0  0  1  0  0  0  0  0  0  0  0  0
   12.5804  -22.5554   -2.8481 C   0  0  0  0  0  0  0  0  0  0  0  0
   12.6422  -21.5454   -3.8981 C   0  0  0  0  0  0  0  0  0  0  0  0
   13.1625  -21.5285   -5.1653 C   0  0  0  0  0  0  0  0  0  0  0  0
   12.9387  -20.3200   -5.7242 N   0  0  0  0  0  0  0  0  0  0  0  0
   12.2841  -19.5498   -4.8487 C   0  0  0  0  0  0  0  0  0  0  0  0
   11.8344  -18.2487   -4.9440 C   0  0  0  0  0  0  0  0  0  0  0  0
   11.1723  -17.6680   -3.8736 C   0  0  0  0  0  0  0  0  0  0  0  0
   10.9521  -18.3719   -2.7050 C   0  0  0  0  0  0  0  0  0  0  0  0
   11.4175  -19.6637   -2.6562 C   0  0  0  0  0  0  0  0  0  0  0  0
   12.0801  -20.2736   -3.7001 C   0  0  0  0  0  0  0  0  0  0  0  0
   13.8563  -23.0789   -0.7720 C   0  0  0  0  0  0  0  0  0  0  0  0
   13.4802  -24.1973   -0.2985 O   0  0  0  0  0  0  0  0  0  0  0  0
   14.2196  -22.0201    0.0648 N   0  0  0  0  0  0  0  0  0  0  0  0
   14.2817  -22.2264    1.5281 C   0  0  1  0  0  0  0  0  0  0  0  0
   15.3842  -21.4013    2.0785 C   0  0  0  0  0  0  0  0  0  0  0  0
   15.5829  -21.3536    3.5351 C   0  0  0  0  0  0  0  0  0  0  0  0
   16.6726  -22.1886    4.0263 C   0  0  0  0  0  0  0  0  0  0  0  0
   17.8040  -22.1983    3.5076 O   0  0  0  0  0  0  0  0  0  0  0  0
   12.9637  -21.9587    2.0603 C   0  0  0  0  0  0  0  0  0  0  0  0
   12.2089  -21.1049    1.5001 O   0  0  0  0  0  0  0  0  0  0  0  0
   16.4414  -23.0126    5.1335 O   0  0  0  0  0  0  0  0  0  0  0  0
   12.4390  -22.5914    3.1681 O   0  0  0  0  0  0  0  0  0  0  0  0
  2  1  1  0
  3  2  1  0
  3  4  1  6
  5  3  1  0
  5  6  1  1
  7  5  1  0
  7  8  2  0
  9  7  1  0
 10  9  1  0
 10 21  1  0
 10 11  1  6
 12 11  1  0
 13 12  2  0
 14 13  1  0
 15 14  1  0
 15 20  2  0
 16 15  1  0
 17 16  2  0
 17 18  1  0
 18 19  2  0
 19 20  1  0
 20 12  1  0
 21 23  1  0
 22 21  2  0
 23 24  1  0
 24 29  1  0
 24 25  1  1
 26 25  1  0
 27 28  2  0
 27 26  1  0
 29 30  2  0
 29 32  1  0
 31 27  1  0
M  END
$$$$
