IWE.pdb
     RDKit          3D

 32 33  0  0  1  0  0  0  0  0999 V2000
   28.3240  -17.7053  -16.0981 C   0  0  0  0  0  0  0  0  0  0  0  0
   28.8033  -18.9401  -15.3829 C   0  0  0  0  0  0  0  0  0  0  0  0
   27.8300  -19.4294  -14.3653 C   0  0  2  0  0  0  0  0  0  0  0  0
   27.4938  -18.3487  -13.3799 C   0  0  0  0  0  0  0  0  0  0  0  0
   28.2906  -20.7149  -13.7041 C   0  0  2  0  0  0  0  0  0  0  0  0
   28.7363  -21.7136  -14.5902 N   0  0  0  0  0  0  0  0  0  0  0  0
   27.2409  -21.1030  -12.7328 C   0  0  0  0  0  0  0  0  0  0  0  0
   26.1703  -21.6817  -13.1542 O   0  0  0  0  0  0  0  0  0  0  0  0
   27.2769  -20.9054  -11.3331 N   0  0  0  0  0  0  0  0  0  0  0  0
   26.1891  -21.3239  -10.4638 C   0  0  1  0  0  0  0  0  0  0  0  0
   26.6432  -21.5693   -9.0629 C   0  0  0  0  0  0  0  0  0  0  0  0
   26.8222  -20.3943   -8.2183 C   0  0  0  0  0  0  0  0  0  0  0  0
   26.4683  -19.0767   -8.3427 C   0  0  0  0  0  0  0  0  0  0  0  0
   26.8776  -18.3987   -7.2491 N   0  0  0  0  0  0  0  0  0  0  0  0
   27.4903  -19.2461   -6.4155 C   0  0  0  0  0  0  0  0  0  0  0  0
   28.0766  -19.0415   -5.1832 C   0  0  0  0  0  0  0  0  0  0  0  0
   28.6567  -20.1056   -4.5106 C   0  0  0  0  0  0  0  0  0  0  0  0
   28.6590  -21.3762   -5.0539 C   0  0  0  0  0  0  0  0  0  0  0  0
   28.0637  -21.5318   -6.2824 C   0  0  0  0  0  0  0  0  0  0  0  0
   27.4777  -20.4973   -6.9803 C   0  0  0  0  0  0  0  0  0  0  0  0
   24.9970  -20.4464  -10.5599 C   0  0  0  0  0  0  0  0  0  0  0  0
   25.1819  -19.2281  -10.2466 O   0  0  0  0  0  0  0  0  0  0  0  0
   23.7430  -20.9104  -10.9667 N   0  0  0  0  0  0  0  0  0  0  0  0
   22.5912  -19.9831  -11.0027 C   0  0  1  0  0  0  0  0  0  0  0  0
   22.3799  -19.5409  -12.4023 C   0  0  0  0  0  0  0  0  0  0  0  0
   22.7639  -20.4395  -13.5016 C   0  0  0  0  0  0  0  0  0  0  0  0
   22.9348  -19.7815  -14.7915 C   0  0  0  0  0  0  0  0  0  0  0  0
   22.5031  -18.6388  -15.0303 O   0  0  0  0  0  0  0  0  0  0  0  0
   21.4743  -20.6542  -10.3749 C   0  0  0  0  0  0  0  0  0  0  0  0
   20.3876  -20.0307  -10.1681 O   0  0  0  0  0  0  0  0  0  0  0  0
   23.6192  -20.4596  -15.8065 O   0  0  0  0  0  0  0  0  0  0  0  0
   21.4965  -21.9745   -9.9759 O   0  0  0  0  0  0  0  0  0  0  0  0
  2  1  1  0
  3  2  1  0
  3  4  1  1
  5  3  1  0
  5  6  1  6
  7  5  1  0
  7  8  2  0
  9  7  1  0
 10  9  1  0
 10 21  1  0
 10 11  1  1
 12 11  1  0
 13 12  2  0
 14 13  1  0
 15 14  1  0
 15 20  2  0
 16 15  1  0
 17 16  2  0
 17 18  1  0
 18 19  2  0
 19 20  1  0
 20 12  1  0
 21 23  1  0
 22 21  2  0
 23 24  1  0
 24 29  1  0
 24 25  1  6
 26 25  1  0
 27 28  2  0
 27 26  1  0
 29 30  2  0
 29 32  1  0
 31 27  1  0
M  END
$$$$
