IWE.pdb
     RDKit          3D

 32 33  0  0  1  0  0  0  0  0999 V2000
   27.8709  -18.4527  -17.6009 C   0  0  0  0  0  0  0  0  0  0  0  0
   28.5116  -19.5475  -16.7906 C   0  0  0  0  0  0  0  0  0  0  0  0
   27.7039  -19.9269  -15.5964 C   0  0  2  0  0  0  0  0  0  0  0  0
   27.4321  -18.7321  -14.7299 C   0  0  0  0  0  0  0  0  0  0  0  0
   28.3177  -21.0867  -14.8348 C   0  0  2  0  0  0  0  0  0  0  0  0
   28.5902  -22.2298  -15.6096 N   0  0  0  0  0  0  0  0  0  0  0  0
   27.5002  -21.2852  -13.6149 C   0  0  0  0  0  0  0  0  0  0  0  0
   26.3210  -21.7928  -13.7178 O   0  0  0  0  0  0  0  0  0  0  0  0
   27.8788  -20.9701  -12.2894 N   0  0  0  0  0  0  0  0  0  0  0  0
   26.9658  -21.1179  -11.1675 C   0  0  1  0  0  0  0  0  0  0  0  0
   27.6531  -20.9641   -9.8511 C   0  0  0  0  0  0  0  0  0  0  0  0
   26.8001  -20.7351   -8.6909 C   0  0  0  0  0  0  0  0  0  0  0  0
   25.4498  -20.8234   -8.4770 C   0  0  0  0  0  0  0  0  0  0  0  0
   25.1787  -20.5038   -7.1935 N   0  0  0  0  0  0  0  0  0  0  0  0
   26.3231  -20.2094   -6.5670 C   0  0  0  0  0  0  0  0  0  0  0  0
   26.5719  -19.8267   -5.2648 C   0  0  0  0  0  0  0  0  0  0  0  0
   27.8722  -19.5733   -4.8573 C   0  0  0  0  0  0  0  0  0  0  0  0
   28.9316  -19.6975   -5.7359 C   0  0  0  0  0  0  0  0  0  0  0  0
   28.6355  -20.0809   -7.0217 C   0  0  0  0  0  0  0  0  0  0  0  0
   27.3554  -20.3408   -7.4625 C   0  0  0  0  0  0  0  0  0  0  0  0
   25.7409  -20.2919  -11.3014 C   0  0  0  0  0  0  0  0  0  0  0  0
   25.9290  -19.0699  -11.5977 O   0  0  0  0  0  0  0  0  0  0  0  0
   24.4543  -20.8059  -11.1177 N   0  0  0  0  0  0  0  0  0  0  0  0
   23.2769  -19.9983  -11.5042 C   0  0  1  0  0  0  0  0  0  0  0  0
   23.2998  -19.7967  -12.9732 C   0  0  0  0  0  0  0  0  0  0  0  0
   22.1698  -19.1109  -13.6183 C   0  0  0  0  0  0  0  0  0  0  0  0
   22.1722  -19.1761  -15.0750 C   0  0  0  0  0  0  0  0  0  0  0  0
   21.2316  -18.7540  -15.7724 O   0  0  0  0  0  0  0  0  0  0  0  0
   22.1047  -20.6589  -10.9736 C   0  0  0  0  0  0  0  0  0  0  0  0
   22.1829  -21.8497  -10.5398 O   0  0  0  0  0  0  0  0  0  0  0  0
   23.2820  -19.7321  -15.7210 O   0  0  0  0  0  0  0  0  0  0  0  0
   20.8610  -20.0681  -10.8908 O   0  0  0  0  0  0  0  0  0  0  0  0
  2  1  1  0
  3  2  1  0
  3  4  1  1
  5  3  1  0
  5  6  1  6
  7  5  1  0
  7  8  2  0
  9  7  1  0
 10  9  1  0
 10 21  1  0
 10 11  1  1
 12 11  1  0
 13 12  2  0
 14 13  1  0
 15 14  1  0
 15 20  2  0
 16 15  1  0
 17 16  2  0
 17 18  1  0
 18 19  2  0
 19 20  1  0
 20 12  1  0
 21 23  1  0
 22 21  2  0
 23 24  1  0
 24 29  1  0
 24 25  1  6
 26 25  1  0
 27 28  2  0
 27 26  1  0
 29 30  2  0
 29 32  1  0
 31 27  1  0
M  END
$$$$
