IWE.pdb
     RDKit          3D

 32 33  0  0  1  0  0  0  0  0999 V2000
   28.6508  -17.8954  -15.7821 C   0  0  0  0  0  0  0  0  0  0  0  0
   29.1156  -19.0431  -14.9262 C   0  0  0  0  0  0  0  0  0  0  0  0
   28.0611  -19.5257  -13.9895 C   0  0  2  0  0  0  0  0  0  0  0  0
   27.4939  -18.3908  -13.1880 C   0  0  0  0  0  0  0  0  0  0  0  0
   28.5434  -20.6786  -13.1292 C   0  0  2  0  0  0  0  0  0  0  0  0
   29.1815  -21.7186  -13.8310 N   0  0  0  0  0  0  0  0  0  0  0  0
   27.4168  -21.0612  -12.2459 C   0  0  0  0  0  0  0  0  0  0  0  0
   26.4374  -21.7448  -12.7278 O   0  0  0  0  0  0  0  0  0  0  0  0
   27.2833  -20.7516  -10.8727 N   0  0  0  0  0  0  0  0  0  0  0  0
   26.1004  -21.1140  -10.1087 C   0  0  1  0  0  0  0  0  0  0  0  0
   26.4006  -21.3234   -8.6613 C   0  0  0  0  0  0  0  0  0  0  0  0
   26.8694  -20.1611   -7.9159 C   0  0  0  0  0  0  0  0  0  0  0  0
   26.7301  -18.8089   -8.0858 C   0  0  0  0  0  0  0  0  0  0  0  0
   27.3689  -18.1646   -7.0858 N   0  0  0  0  0  0  0  0  0  0  0  0
   27.9210  -19.0679   -6.2686 C   0  0  0  0  0  0  0  0  0  0  0  0
   28.6694  -18.9139   -5.1195 C   0  0  0  0  0  0  0  0  0  0  0  0
   29.1348  -20.0318   -4.4451 C   0  0  0  0  0  0  0  0  0  0  0  0
   28.8618  -21.3063   -4.9042 C   0  0  0  0  0  0  0  0  0  0  0  0
   28.1134  -21.4103   -6.0518 C   0  0  0  0  0  0  0  0  0  0  0  0
   27.6343  -20.3216   -6.7489 C   0  0  0  0  0  0  0  0  0  0  0  0
   24.9494  -20.2112  -10.3550 C   0  0  0  0  0  0  0  0  0  0  0  0
   25.2434  -19.0072  -10.6390 O   0  0  0  0  0  0  0  0  0  0  0  0
   23.6205  -20.6380  -10.2845 N   0  0  0  0  0  0  0  0  0  0  0  0
   22.6147  -20.0691  -11.2077 C   0  0  1  0  0  0  0  0  0  0  0  0
   23.0365  -20.3487  -12.6017 C   0  0  0  0  0  0  0  0  0  0  0  0
   22.2125  -19.8472  -13.7121 C   0  0  0  0  0  0  0  0  0  0  0  0
   21.9509  -20.8239  -14.7626 C   0  0  0  0  0  0  0  0  0  0  0  0
   22.5255  -21.9265  -14.8193 O   0  0  0  0  0  0  0  0  0  0  0  0
   21.3238  -20.5933  -10.8193 C   0  0  0  0  0  0  0  0  0  0  0  0
   21.1908  -21.8253  -10.5422 O   0  0  0  0  0  0  0  0  0  0  0  0
   21.0084  -20.5135  -15.7494 O   0  0  0  0  0  0  0  0  0  0  0  0
   20.1827  -19.8255  -10.7137 O   0  0  0  0  0  0  0  0  0  0  0  0
  2  1  1  0
  3  2  1  0
  3  4  1  1
  5  3  1  0
  5  6  1  6
  7  5  1  0
  7  8  2  0
  9  7  1  0
 10  9  1  0
 10 21  1  0
 10 11  1  1
 12 11  1  0
 13 12  2  0
 14 13  1  0
 15 14  1  0
 15 20  2  0
 16 15  1  0
 17 16  2  0
 17 18  1  0
 18 19  2  0
 19 20  1  0
 20 12  1  0
 21 23  1  0
 22 21  2  0
 23 24  1  0
 24 29  1  0
 24 25  1  6
 26 25  1  0
 27 28  2  0
 27 26  1  0
 29 30  2  0
 29 32  1  0
 31 27  1  0
M  END
$$$$
