IWE.pdb
     RDKit          3D

 32 33  0  0  1  0  0  0  0  0999 V2000
   17.9784   -7.2493  -16.2360 C   0  0  0  0  0  0  0  0  0  0  0  0
   17.7204   -8.1992  -15.0971 C   0  0  0  0  0  0  0  0  0  0  0  0
   16.9860   -7.5584  -13.9691 C   0  0  2  0  0  0  0  0  0  0  0  0
   17.6920   -6.3187  -13.5035 C   0  0  0  0  0  0  0  0  0  0  0  0
   16.6970   -8.5359  -12.8453 C   0  0  2  0  0  0  0  0  0  0  0  0
   16.2046   -9.7883  -13.2577 N   0  0  0  0  0  0  0  0  0  0  0  0
   15.9017   -7.8061  -11.8300 C   0  0  0  0  0  0  0  0  0  0  0  0
   14.6806   -7.4892  -12.0892 O   0  0  0  0  0  0  0  0  0  0  0  0
   16.3441   -7.3983  -10.5504 N   0  0  0  0  0  0  0  0  0  0  0  0
   15.5090   -6.6122   -9.6566 C   0  0  1  0  0  0  0  0  0  0  0  0
   15.1591   -7.3521   -8.4079 C   0  0  0  0  0  0  0  0  0  0  0  0
   14.2569   -8.4885   -8.5523 C   0  0  0  0  0  0  0  0  0  0  0  0
   12.9286   -8.6828   -8.2791 C   0  0  0  0  0  0  0  0  0  0  0  0
   12.5834   -9.9446   -8.6135 N   0  0  0  0  0  0  0  0  0  0  0  0
   13.6579  -10.5760   -9.0986 C   0  0  0  0  0  0  0  0  0  0  0  0
   13.8182  -11.8634   -9.5686 C   0  0  0  0  0  0  0  0  0  0  0  0
   15.0590  -12.2818  -10.0229 C   0  0  0  0  0  0  0  0  0  0  0  0
   16.1461  -11.4287  -10.0144 C   0  0  0  0  0  0  0  0  0  0  0  0
   15.9387  -10.1568   -9.5376 C   0  0  0  0  0  0  0  0  0  0  0  0
   14.7198   -9.7061   -9.0776 C   0  0  0  0  0  0  0  0  0  0  0  0
   16.0397   -5.2485   -9.4135 C   0  0  0  0  0  0  0  0  0  0  0  0
   17.3028   -5.1603   -9.2984 O   0  0  0  0  0  0  0  0  0  0  0  0
   15.2200   -4.1208   -9.3144 N   0  0  0  0  0  0  0  0  0  0  0  0
   15.7606   -2.7860   -9.6513 C   0  0  1  0  0  0  0  0  0  0  0  0
   16.3284   -2.8343  -11.0205 C   0  0  0  0  0  0  0  0  0  0  0  0
   16.7421   -1.5799  -11.6675 C   0  0  0  0  0  0  0  0  0  0  0  0
   17.1750   -1.7255  -13.0522 C   0  0  0  0  0  0  0  0  0  0  0  0
   16.8994   -2.7217  -13.7457 O   0  0  0  0  0  0  0  0  0  0  0  0
   14.7028   -1.8230   -9.4379 C   0  0  0  0  0  0  0  0  0  0  0  0
   13.4963   -2.2081   -9.3451 O   0  0  0  0  0  0  0  0  0  0  0  0
   17.9290   -0.6992  -13.6322 O   0  0  0  0  0  0  0  0  0  0  0  0
   14.9129   -0.4654   -9.3132 O   0  0  0  0  0  0  0  0  0  0  0  0
  2  1  1  0
  3  2  1  0
  3  4  1  1
  5  3  1  0
  5  6  1  6
  7  5  1  0
  7  8  2  0
  9  7  1  0
 10  9  1  0
 10 21  1  0
 10 11  1  1
 12 11  1  0
 13 12  2  0
 14 13  1  0
 15 14  1  0
 15 20  2  0
 16 15  1  0
 17 16  2  0
 17 18  1  0
 18 19  2  0
 19 20  1  0
 20 12  1  0
 21 23  1  0
 22 21  2  0
 23 24  1  0
 24 29  1  0
 24 25  1  6
 26 25  1  0
 27 28  2  0
 27 26  1  0
 29 30  2  0
 29 32  1  0
 31 27  1  0
M  END
$$$$
