IWE.pdb
     RDKit          3D

 32 33  0  0  1  0  0  0  0  0999 V2000
   29.3582  -21.0771  -17.6489 C   0  0  0  0  0  0  0  0  0  0  0  0
   28.6983  -20.0293  -16.7930 C   0  0  0  0  0  0  0  0  0  0  0  0
   28.2163  -20.5709  -15.4905 C   0  0  2  0  0  0  0  0  0  0  0  0
   27.4109  -21.8208  -15.6932 C   0  0  0  0  0  0  0  0  0  0  0  0
   27.4907  -19.5227  -14.6679 C   0  0  2  0  0  0  0  0  0  0  0  0
   28.1557  -18.2870  -14.5581 N   0  0  0  0  0  0  0  0  0  0  0  0
   27.0776  -20.1743  -13.4027 C   0  0  0  0  0  0  0  0  0  0  0  0
   26.3854  -21.2596  -13.4454 O   0  0  0  0  0  0  0  0  0  0  0  0
   27.3672  -19.7261  -12.0933 N   0  0  0  0  0  0  0  0  0  0  0  0
   26.7539  -20.3223  -10.9174 C   0  0  1  0  0  0  0  0  0  0  0  0
   27.4592  -19.9471   -9.6562 C   0  0  0  0  0  0  0  0  0  0  0  0
   26.8194  -20.3420   -8.4069 C   0  0  0  0  0  0  0  0  0  0  0  0
   25.6316  -20.9539   -8.1042 C   0  0  0  0  0  0  0  0  0  0  0  0
   25.5292  -21.0933   -6.7651 N   0  0  0  0  0  0  0  0  0  0  0  0
   26.6242  -20.5855   -6.1894 C   0  0  0  0  0  0  0  0  0  0  0  0
   26.9896  -20.4891   -4.8622 C   0  0  0  0  0  0  0  0  0  0  0  0
   28.2001  -19.9064   -4.5211 C   0  0  0  0  0  0  0  0  0  0  0  0
   29.0541  -19.4170   -5.4910 C   0  0  0  0  0  0  0  0  0  0  0  0
   28.6481  -19.5349   -6.7984 C   0  0  0  0  0  0  0  0  0  0  0  0
   27.4520  -20.1077   -7.1750 C   0  0  0  0  0  0  0  0  0  0  0  0
   25.2851  -20.1216  -10.8623 C   0  0  0  0  0  0  0  0  0  0  0  0
   24.8957  -18.9137  -10.7851 O   0  0  0  0  0  0  0  0  0  0  0  0
   24.3722  -21.1794  -10.8923 N   0  0  0  0  0  0  0  0  0  0  0  0
   22.9841  -20.9412  -11.3441 C   0  0  1  0  0  0  0  0  0  0  0  0
   22.5775  -22.0522  -12.2383 C   0  0  0  0  0  0  0  0  0  0  0  0
   21.1996  -22.0890  -12.7516 C   0  0  0  0  0  0  0  0  0  0  0  0
   20.8446  -23.3194  -13.4487 C   0  0  0  0  0  0  0  0  0  0  0  0
   21.2115  -24.4448  -13.0638 O   0  0  0  0  0  0  0  0  0  0  0  0
   22.1709  -20.7480  -10.1637 C   0  0  0  0  0  0  0  0  0  0  0  0
   21.1630  -19.9765  -10.2007 O   0  0  0  0  0  0  0  0  0  0  0  0
   20.0514  -23.2356  -14.5985 O   0  0  0  0  0  0  0  0  0  0  0  0
   22.4100  -21.3690   -8.9555 O   0  0  0  0  0  0  0  0  0  0  0  0
  2  1  1  0
  3  2  1  0
  3  4  1  6
  5  3  1  0
  5  6  1  1
  7  5  1  0
  7  8  2  0
  9  7  1  0
 10  9  1  0
 10 21  1  0
 10 11  1  1
 12 11  1  0
 13 12  2  0
 14 13  1  0
 15 14  1  0
 15 20  2  0
 16 15  1  0
 17 16  2  0
 17 18  1  0
 18 19  2  0
 19 20  1  0
 20 12  1  0
 21 23  1  0
 22 21  2  0
 23 24  1  0
 24 29  1  0
 24 25  1  1
 26 25  1  0
 27 28  2  0
 27 26  1  0
 29 30  2  0
 29 32  1  0
 31 27  1  0
M  END
$$$$
