DRA.pdb
     RDKit          3D

 25 24  0  0  1  0  0  0  0  0999 V2000
   23.7329  -18.0396  -20.1727 N   0  0  0  0  0  0  0  0  0  0  0  0
   23.3786  -17.3763  -18.9373 C   0  0  1  0  0  0  0  0  0  0  0  0
   22.0134  -16.7096  -19.0431 C   0  0  0  0  0  0  0  0  0  0  0  0
   22.0844  -15.5080  -19.9099 C   0  0  0  0  0  0  0  0  0  0  0  0
   21.1620  -15.2651  -20.7367 O   0  0  0  0  0  0  0  0  0  0  0  0
   23.4303  -18.3123  -17.7878 C   0  0  0  0  0  0  0  0  0  0  0  0
   22.8254  -19.4141  -17.7790 O   0  0  0  0  0  0  0  0  0  0  0  0
   23.1315  -14.6091  -19.8669 O   0  0  0  0  0  0  0  0  0  0  0  0
   26.3681  -21.2943  -10.9372 N   0  0  0  0  0  0  0  0  0  0  0  0
   26.6219  -21.5722  -12.3051 C   0  0  0  0  0  0  0  0  0  0  0  0
   26.5619  -22.7983  -12.7492 N   0  0  0  0  0  0  0  0  0  0  0  0
   26.9461  -20.5700  -13.2450 N   0  0  0  0  0  0  0  0  0  0  0  0
   26.7234  -19.1732  -12.9284 C   0  0  0  0  0  0  0  0  0  0  0  0
   25.3174  -18.7375  -13.1883 C   0  0  0  0  0  0  0  0  0  0  0  0
   25.2671  -18.0753  -14.5495 C   0  0  0  0  0  0  0  0  0  0  0  0
   24.1548  -18.6542  -15.3940 C   0  0  2  0  0  0  0  0  0  0  0  0
   24.1806  -17.9624  -16.6637 N   0  0  0  0  0  0  0  0  0  0  0  0
   22.8624  -18.6667  -14.7436 C   0  0  0  0  0  0  0  0  0  0  0  0
   22.2732  -17.5977  -14.4866 O   0  0  0  0  0  0  0  0  0  0  0  0
   26.7458  -23.0527  -13.7210 C   0  0  0  0  0  0  0  0  0  0  0  0
   19.9287  -19.2905  -14.7190 C   0  0  1  0  0  0  0  0  0  0  0  0
   20.9051  -19.9360  -13.7753 N   0  0  0  0  0  0  0  0  0  0  0  0
   22.2250  -19.8726  -14.3788 C   0  0  0  0  0  0  0  0  0  0  0  0
   20.5220  -21.2765  -13.3588 O   0  0  0  0  0  0  0  0  0  0  0  0
   21.3049  -22.3611  -13.6894 O   0  0  0  0  0  0  0  0  0  0  0  0
  2  1  1  6
  2  3  1  0
  3  4  1  0
  4  8  1  0
  5  4  2  0
  6  2  1  0
  7  6  2  0
 10 12  1  0
 10  9  1  0
 11 10  2  0
 13 14  1  0
 13 12  1  0
 15 14  1  0
 16 15  1  1
 16 17  1  0
 17  6  1  0
 18 16  1  0
 18 19  2  0
 21 20  1  1
 21 22  1  0
 22 18  1  0
 23 21  1  0
 24 23  1  0
 25 23  2  0
M  END
$$$$
