DRA.pdb
     RDKit          3D

 25 24  0  0  1  0  0  0  0  0999 V2000
   19.3936  -20.2922  -11.9593 N   0  0  0  0  0  0  0  0  0  0  0  0
   19.4083  -20.3275  -13.4051 C   0  0  1  0  0  0  0  0  0  0  0  0
   18.0735  -19.8722  -13.9798 C   0  0  0  0  0  0  0  0  0  0  0  0
   16.9977  -20.8296  -13.6246 C   0  0  0  0  0  0  0  0  0  0  0  0
   15.7892  -20.5377  -13.8429 O   0  0  0  0  0  0  0  0  0  0  0  0
   20.5293  -19.5258  -13.9533 C   0  0  0  0  0  0  0  0  0  0  0  0
   20.7453  -18.3352  -13.6132 O   0  0  0  0  0  0  0  0  0  0  0  0
   17.2444  -22.0611  -13.0511 O   0  0  0  0  0  0  0  0  0  0  0  0
   28.1987  -21.6652  -15.9935 N   0  0  0  0  0  0  0  0  0  0  0  0
   28.0891  -20.3090  -16.3955 C   0  0  0  0  0  0  0  0  0  0  0  0
   28.8083  -19.8568  -17.3866 N   0  0  0  0  0  0  0  0  0  0  0  0
   27.2212  -19.3896  -15.7674 N   0  0  0  0  0  0  0  0  0  0  0  0
   25.9889  -19.8489  -15.1580 C   0  0  0  0  0  0  0  0  0  0  0  0
   24.8960  -20.0663  -16.1543 C   0  0  0  0  0  0  0  0  0  0  0  0
   23.6651  -20.5477  -15.4148 C   0  0  0  0  0  0  0  0  0  0  0  0
   22.5788  -19.4964  -15.4268 C   0  0  2  0  0  0  0  0  0  0  0  0
   21.3860  -20.1109  -14.8876 N   0  0  0  0  0  0  0  0  0  0  0  0
   22.3942  -18.8500  -16.7081 C   0  0  0  0  0  0  0  0  0  0  0  0
   22.0218  -19.5076  -17.7004 O   0  0  0  0  0  0  0  0  0  0  0  0
   28.7295  -18.9051  -17.7485 C   0  0  0  0  0  0  0  0  0  0  0  0
   22.3238  -15.3247  -17.9051 C   0  0  1  0  0  0  0  0  0  0  0  0
   22.5260  -16.7916  -18.1658 N   0  0  0  0  0  0  0  0  0  0  0  0
   22.6249  -17.4682  -16.8842 C   0  0  0  0  0  0  0  0  0  0  0  0
   23.6351  -17.0823  -19.0618 O   0  0  0  0  0  0  0  0  0  0  0  0
   24.8331  -17.5452  -18.5628 O   0  0  0  0  0  0  0  0  0  0  0  0
  2  1  1  1
  2  3  1  0
  3  4  1  0
  4  8  1  0
  5  4  2  0
  6  2  1  0
  7  6  2  0
 10 12  1  0
 10  9  1  0
 11 10  2  0
 13 14  1  0
 13 12  1  0
 15 14  1  0
 16 15  1  6
 16 17  1  0
 17  6  1  0
 18 16  1  0
 18 19  2  0
 21 20  1  1
 21 22  1  0
 22 18  1  0
 23 21  1  0
 24 23  1  0
 25 23  2  0
M  END
$$$$
