DRA.pdb
     RDKit          3D

 25 24  0  0  1  0  0  0  0  0999 V2000
   23.0697  -22.3108  -16.1837 N   0  0  0  0  0  0  0  0  0  0  0  0
   22.5453  -22.7064  -17.4722 C   0  0  1  0  0  0  0  0  0  0  0  0
   22.8673  -21.6683  -18.5391 C   0  0  0  0  0  0  0  0  0  0  0  0
   22.0614  -20.4402  -18.3333 C   0  0  0  0  0  0  0  0  0  0  0  0
   21.2974  -20.3412  -17.3334 O   0  0  0  0  0  0  0  0  0  0  0  0
   23.0364  -24.0495  -17.8658 C   0  0  0  0  0  0  0  0  0  0  0  0
   22.5980  -24.6680  -18.8684 O   0  0  0  0  0  0  0  0  0  0  0  0
   22.0963  -19.3630  -19.1963 O   0  0  0  0  0  0  0  0  0  0  0  0
   28.1863  -30.0485  -16.1313 N   0  0  0  0  0  0  0  0  0  0  0  0
   28.9511  -29.4201  -17.1477 C   0  0  0  0  0  0  0  0  0  0  0  0
   29.6655  -30.1375  -17.9717 N   0  0  0  0  0  0  0  0  0  0  0  0
   28.9870  -28.0203  -17.3271 N   0  0  0  0  0  0  0  0  0  0  0  0
   28.1092  -27.1630  -16.5552 C   0  0  0  0  0  0  0  0  0  0  0  0
   26.6753  -27.2897  -16.9577 C   0  0  0  0  0  0  0  0  0  0  0  0
   26.0365  -25.9184  -16.8850 C   0  0  0  0  0  0  0  0  0  0  0  0
   24.5987  -25.9640  -17.3498 C   0  0  2  0  0  0  0  0  0  0  0  0
   24.0276  -24.6601  -17.0953 N   0  0  0  0  0  0  0  0  0  0  0  0
   23.8363  -27.0688  -16.8097 C   0  0  0  0  0  0  0  0  0  0  0  0
   23.7051  -27.2038  -15.5766 O   0  0  0  0  0  0  0  0  0  0  0  0
   30.1943  -29.7390  -18.7492 C   0  0  0  0  0  0  0  0  0  0  0  0
   21.0662  -29.0711  -17.6669 C   0  0  1  0  0  0  0  0  0  0  0  0
   22.4737  -29.1686  -17.1472 N   0  0  0  0  0  0  0  0  0  0  0  0
   23.2187  -28.0251  -17.6449 C   0  0  0  0  0  0  0  0  0  0  0  0
   23.1162  -30.4443  -17.4248 O   0  0  0  0  0  0  0  0  0  0  0  0
   22.6919  -31.5923  -16.7918 O   0  0  0  0  0  0  0  0  0  0  0  0
  2  1  1  1
  2  3  1  0
  3  4  1  0
  4  8  1  0
  5  4  2  0
  6  2  1  0
  7  6  2  0
 10 12  1  0
 10  9  1  0
 11 10  2  0
 13 14  1  0
 13 12  1  0
 15 14  1  0
 16 15  1  1
 16 17  1  0
 17  6  1  0
 18 16  1  0
 18 19  2  0
 21 20  1  1
 21 22  1  0
 22 18  1  0
 23 21  1  0
 24 23  1  0
 25 23  2  0
M  END
$$$$
