DRA.pdb
     RDKit          3D

 25 24  0  0  1  0  0  0  0  0999 V2000
   23.3534  -12.0234  -17.6174 N   0  0  0  0  0  0  0  0  0  0  0  0
   23.4838  -11.1727  -16.4551 C   0  0  1  0  0  0  0  0  0  0  0  0
   24.9380  -10.7899  -16.2142 C   0  0  0  0  0  0  0  0  0  0  0  0
   25.7549  -11.9944  -15.9279 C   0  0  0  0  0  0  0  0  0  0  0  0
   25.2163  -13.1356  -15.8982 O   0  0  0  0  0  0  0  0  0  0  0  0
   22.6243   -9.9691  -16.5677 C   0  0  0  0  0  0  0  0  0  0  0  0
   22.5954   -9.2468  -17.5960 O   0  0  0  0  0  0  0  0  0  0  0  0
   27.1129  -11.9430  -15.6837 O   0  0  0  0  0  0  0  0  0  0  0  0
   16.7849  -12.7750  -16.7187 N   0  0  0  0  0  0  0  0  0  0  0  0
   17.2968  -12.5093  -15.4225 C   0  0  0  0  0  0  0  0  0  0  0  0
   17.5535  -13.4921  -14.6026 N   0  0  0  0  0  0  0  0  0  0  0  0
   17.5531  -11.2036  -14.9509 N   0  0  0  0  0  0  0  0  0  0  0  0
   17.5294  -10.0795  -15.8658 C   0  0  0  0  0  0  0  0  0  0  0  0
   18.8972   -9.6368  -16.2749 C   0  0  0  0  0  0  0  0  0  0  0  0
   19.5563   -8.9657  -15.0879 C   0  0  0  0  0  0  0  0  0  0  0  0
   20.9369   -8.4641  -15.4454 C   0  0  2  0  0  0  0  0  0  0  0  0
   21.8098   -9.6161  -15.4903 N   0  0  0  0  0  0  0  0  0  0  0  0
   21.4106   -7.3846  -14.6064 C   0  0  0  0  0  0  0  0  0  0  0  0
   21.7027   -7.5935  -13.4118 O   0  0  0  0  0  0  0  0  0  0  0  0
   17.8749  -13.3531  -13.6433 C   0  0  0  0  0  0  0  0  0  0  0  0
   23.2974   -4.4400  -14.8754 C   0  0  2  0  0  0  0  0  0  0  0  0
   22.0109   -4.9518  -14.2891 N   0  0  0  0  0  0  0  0  0  0  0  0
   21.5591   -6.0698  -15.0992 C   0  0  0  0  0  0  0  0  0  0  0  0
   20.9984   -3.9232  -14.1046 O   0  0  0  0  0  0  0  0  0  0  0  0
   21.1805   -2.9228  -13.1748 O   0  0  0  0  0  0  0  0  0  0  0  0
  2  1  1  6
  2  3  1  0
  3  4  1  0
  4  8  1  0
  5  4  2  0
  6  2  1  0
  7  6  2  0
 10 12  1  0
 10  9  1  0
 11 10  2  0
 13 14  1  0
 13 12  1  0
 15 14  1  0
 16 15  1  1
 16 17  1  0
 17  6  1  0
 18 16  1  0
 18 19  2  0
 21 20  1  1
 21 22  1  0
 22 18  1  0
 23 21  1  0
 24 23  1  0
 25 23  2  0
M  END
$$$$
