DRA.pdb
     RDKit          3D

 25 24  0  0  1  0  0  0  0  0999 V2000
   27.6986  -19.3578  -16.1108 N   0  0  0  0  0  0  0  0  0  0  0  0
   26.5205  -20.1915  -16.2043 C   0  0  1  0  0  0  0  0  0  0  0  0
   26.7753  -21.5717  -15.6132 C   0  0  0  0  0  0  0  0  0  0  0  0
   27.9283  -22.2220  -16.2823 C   0  0  0  0  0  0  0  0  0  0  0  0
   28.2248  -23.4199  -16.0166 O   0  0  0  0  0  0  0  0  0  0  0  0
   25.3485  -19.5434  -15.5668 C   0  0  0  0  0  0  0  0  0  0  0  0
   25.4011  -19.0067  -14.4314 O   0  0  0  0  0  0  0  0  0  0  0  0
   28.7237  -21.5770  -17.2085 O   0  0  0  0  0  0  0  0  0  0  0  0
   18.6578  -16.4393  -19.1613 N   0  0  0  0  0  0  0  0  0  0  0  0
   18.7417  -15.4715  -18.1273 C   0  0  0  0  0  0  0  0  0  0  0  0
   17.7022  -14.7429  -17.8226 N   0  0  0  0  0  0  0  0  0  0  0  0
   19.9199  -15.2414  -17.3844 N   0  0  0  0  0  0  0  0  0  0  0  0
   21.1021  -16.0453  -17.6239 C   0  0  0  0  0  0  0  0  0  0  0  0
   21.3732  -17.0188  -16.5225 C   0  0  0  0  0  0  0  0  0  0  0  0
   22.6710  -17.7368  -16.8292 C   0  0  0  0  0  0  0  0  0  0  0  0
   22.9411  -18.8264  -15.8167 C   0  0  2  0  0  0  0  0  0  0  0  0
   24.1312  -19.5244  -16.2500 N   0  0  0  0  0  0  0  0  0  0  0  0
   21.8057  -19.6833  -15.5517 C   0  0  0  0  0  0  0  0  0  0  0  0
   21.4475  -20.5356  -16.3891 O   0  0  0  0  0  0  0  0  0  0  0  0
   17.7230  -14.0015  -17.1207 C   0  0  0  0  0  0  0  0  0  0  0  0
   19.0268  -20.4859  -15.2228 C   0  0  2  0  0  0  0  0  0  0  0  0
   19.9411  -20.4490  -14.0298 N   0  0  0  0  0  0  0  0  0  0  0  0
   21.0681  -19.5907  -14.3513 C   0  0  0  0  0  0  0  0  0  0  0  0
   20.3335  -21.7650  -13.5486 O   0  0  0  0  0  0  0  0  0  0  0  0
   21.6655  -22.1012  -13.4427 O   0  0  0  0  0  0  0  0  0  0  0  0
  2  1  1  1
  2  3  1  0
  3  4  1  0
  4  8  1  0
  5  4  2  0
  6  2  1  0
  7  6  2  0
 10 12  1  0
 10  9  1  0
 11 10  2  0
 13 14  1  0
 13 12  1  0
 15 14  1  0
 16 15  1  6
 16 17  1  0
 17  6  1  0
 18 16  1  0
 18 19  2  0
 21 20  1  1
 21 22  1  0
 22 18  1  0
 23 21  1  0
 24 23  1  0
 25 23  2  0
M  END
$$$$
