DRA.pdb
     RDKit          3D

 25 24  0  0  1  0  0  0  0  0999 V2000
   20.1905  -12.5500  -18.2505 N   0  0  0  0  0  0  0  0  0  0  0  0
   20.7801  -11.9617  -17.0682 C   0  0  1  0  0  0  0  0  0  0  0  0
   22.2871  -12.1799  -17.0386 C   0  0  0  0  0  0  0  0  0  0  0  0
   22.6037  -13.6079  -16.7927 C   0  0  0  0  0  0  0  0  0  0  0  0
   23.8038  -13.9830  -16.6808 O   0  0  0  0  0  0  0  0  0  0  0  0
   20.4448  -10.5212  -16.9573 C   0  0  0  0  0  0  0  0  0  0  0  0
   20.5205   -9.7276  -17.9291 O   0  0  0  0  0  0  0  0  0  0  0  0
   21.6351  -14.5848  -16.6747 O   0  0  0  0  0  0  0  0  0  0  0  0
   14.0057  -11.0779  -15.8335 N   0  0  0  0  0  0  0  0  0  0  0  0
   14.8676  -11.2743  -14.7239 C   0  0  0  0  0  0  0  0  0  0  0  0
   14.8533  -12.4052  -14.0721 N   0  0  0  0  0  0  0  0  0  0  0  0
   15.7688  -10.2880  -14.2675 N   0  0  0  0  0  0  0  0  0  0  0  0
   15.9045   -9.0357  -14.9847 C   0  0  0  0  0  0  0  0  0  0  0  0
   17.1858   -8.9417  -15.7487 C   0  0  0  0  0  0  0  0  0  0  0  0
   18.3083   -8.6774  -14.7669 C   0  0  0  0  0  0  0  0  0  0  0  0
   19.6469   -8.6451  -15.4686 C   0  0  2  0  0  0  0  0  0  0  0  0
   20.0264  -10.0169  -15.7245 N   0  0  0  0  0  0  0  0  0  0  0  0
   20.6541   -7.8610  -14.7873 C   0  0  0  0  0  0  0  0  0  0  0  0
   21.0854   -8.2167  -13.6722 O   0  0  0  0  0  0  0  0  0  0  0  0
   15.4594  -12.6004  -13.2736 C   0  0  0  0  0  0  0  0  0  0  0  0
   22.7865   -4.9576  -15.7888 C   0  0  1  0  0  0  0  0  0  0  0  0
   22.2683   -5.9186  -14.7550 N   0  0  0  0  0  0  0  0  0  0  0  0
   21.1820   -6.6782  -15.3493 C   0  0  0  0  0  0  0  0  0  0  0  0
   21.9122   -5.2886  -13.4926 O   0  0  0  0  0  0  0  0  0  0  0  0
   22.8908   -4.9213  -12.5949 O   0  0  0  0  0  0  0  0  0  0  0  0
  2  1  1  6
  2  3  1  0
  3  4  1  0
  4  8  1  0
  5  4  2  0
  6  2  1  0
  7  6  2  0
 10 12  1  0
 10  9  1  0
 11 10  2  0
 13 14  1  0
 13 12  1  0
 15 14  1  0
 16 15  1  1
 16 17  1  0
 17  6  1  0
 18 16  1  0
 18 19  2  0
 21 20  1  6
 21 22  1  0
 22 18  1  0
 23 21  1  0
 24 23  1  0
 25 23  2  0
M  END
$$$$
