DRA.pdb
     RDKit          3D

 25 24  0  0  1  0  0  0  0  0999 V2000
   25.5777  -10.8056  -19.3291 N   0  0  0  0  0  0  0  0  0  0  0  0
   25.2532  -10.2812  -18.0209 C   0  0  1  0  0  0  0  0  0  0  0  0
   26.3169   -9.3024  -17.5415 C   0  0  0  0  0  0  0  0  0  0  0  0
   27.6283   -9.9817  -17.4041 C   0  0  0  0  0  0  0  0  0  0  0  0
   27.7480  -11.2007  -17.7094 O   0  0  0  0  0  0  0  0  0  0  0  0
   23.9070   -9.6588  -18.0073 C   0  0  0  0  0  0  0  0  0  0  0  0
   23.4946   -8.9080  -18.9272 O   0  0  0  0  0  0  0  0  0  0  0  0
   28.7638   -9.3422  -16.9478 O   0  0  0  0  0  0  0  0  0  0  0  0
   16.9258  -13.2275  -14.1032 N   0  0  0  0  0  0  0  0  0  0  0  0
   16.4255  -12.0920  -14.7911 C   0  0  0  0  0  0  0  0  0  0  0  0
   15.1384  -11.9061  -14.9043 N   0  0  0  0  0  0  0  0  0  0  0  0
   17.2631  -11.1200  -15.3798 N   0  0  0  0  0  0  0  0  0  0  0  0
   18.6796  -11.3802  -15.5437 C   0  0  0  0  0  0  0  0  0  0  0  0
   19.4140  -10.2274  -16.1487 C   0  0  0  0  0  0  0  0  0  0  0  0
   20.8794  -10.5962  -16.2511 C   0  0  0  0  0  0  0  0  0  0  0  0
   21.6882   -9.4532  -16.8210 C   0  0  2  0  0  0  0  0  0  0  0  0
   23.0551   -9.9124  -16.9307 N   0  0  0  0  0  0  0  0  0  0  0  0
   21.5304   -8.2033  -16.1094 C   0  0  0  0  0  0  0  0  0  0  0  0
   21.8432   -8.1173  -14.9050 O   0  0  0  0  0  0  0  0  0  0  0  0
   14.7273  -11.1249  -15.4177 C   0  0  0  0  0  0  0  0  0  0  0  0
   20.9315   -4.6901  -17.1475 C   0  0  1  0  0  0  0  0  0  0  0  0
   20.9101   -5.7550  -16.0863 N   0  0  0  0  0  0  0  0  0  0  0  0
   21.0232   -7.0468  -16.7410 C   0  0  0  0  0  0  0  0  0  0  0  0
   19.7742   -5.6611  -15.1817 O   0  0  0  0  0  0  0  0  0  0  0  0
   19.7815   -4.7555  -14.1432 O   0  0  0  0  0  0  0  0  0  0  0  0
  2  1  1  6
  2  3  1  0
  3  4  1  0
  4  8  1  0
  5  4  2  0
  6  2  1  0
  7  6  2  0
 10 12  1  0
 10  9  1  0
 11 10  2  0
 13 14  1  0
 13 12  1  0
 15 14  1  0
 16 15  1  1
 16 17  1  0
 17  6  1  0
 18 16  1  0
 18 19  2  0
 21 20  1  1
 21 22  1  0
 22 18  1  0
 23 21  1  0
 24 23  1  0
 25 23  2  0
M  END
$$$$
