DRA.pdb
     RDKit          3D

 25 24  0  0  1  0  0  0  0  0999 V2000
   22.6909  -11.3098  -20.4425 N   0  0  0  0  0  0  0  0  0  0  0  0
   23.2670  -10.8011  -19.2174 C   0  0  1  0  0  0  0  0  0  0  0  0
   24.7391  -10.4576  -19.4032 C   0  0  0  0  0  0  0  0  0  0  0  0
   25.5366  -11.6857  -19.6393 C   0  0  0  0  0  0  0  0  0  0  0  0
   24.9771  -12.8172  -19.6377 O   0  0  0  0  0  0  0  0  0  0  0  0
   22.5052   -9.6360  -18.7055 C   0  0  0  0  0  0  0  0  0  0  0  0
   22.1907   -8.6571  -19.4285 O   0  0  0  0  0  0  0  0  0  0  0  0
   26.8981  -11.6674  -19.8682 O   0  0  0  0  0  0  0  0  0  0  0  0
   18.0094  -13.7104  -15.0539 N   0  0  0  0  0  0  0  0  0  0  0  0
   17.2903  -12.4887  -14.9985 C   0  0  0  0  0  0  0  0  0  0  0  0
   16.1055  -12.4473  -14.4521 N   0  0  0  0  0  0  0  0  0  0  0  0
   17.7954  -11.2762  -15.5157 N   0  0  0  0  0  0  0  0  0  0  0  0
   18.8035  -11.2909  -16.5572 C   0  0  0  0  0  0  0  0  0  0  0  0
   19.1760   -9.9199  -17.0220 C   0  0  0  0  0  0  0  0  0  0  0  0
   20.1639   -9.3336  -16.0350 C   0  0  0  0  0  0  0  0  0  0  0  0
   21.2814   -8.6096  -16.7507 C   0  0  2  0  0  0  0  0  0  0  0  0
   22.1170   -9.6176  -17.3646 N   0  0  0  0  0  0  0  0  0  0  0  0
   21.9955   -7.6593  -15.9256 C   0  0  0  0  0  0  0  0  0  0  0  0
   22.8727   -8.0477  -15.1284 O   0  0  0  0  0  0  0  0  0  0  0  0
   15.5221  -11.6091  -14.4401 C   0  0  0  0  0  0  0  0  0  0  0  0
   22.0767   -3.9243  -15.6903 C   0  0  1  0  0  0  0  0  0  0  0  0
   22.3822   -5.2900  -15.1406 N   0  0  0  0  0  0  0  0  0  0  0  0
   21.7318   -6.2737  -15.9889 C   0  0  0  0  0  0  0  0  0  0  0  0
   22.0631   -5.4406  -13.7289 O   0  0  0  0  0  0  0  0  0  0  0  0
   20.9784   -6.1933  -13.3345 O   0  0  0  0  0  0  0  0  0  0  0  0
  2  1  1  6
  2  3  1  0
  3  4  1  0
  4  8  1  0
  5  4  2  0
  6  2  1  0
  7  6  2  0
 10 12  1  0
 10  9  1  0
 11 10  2  0
 13 14  1  0
 13 12  1  0
 15 14  1  0
 16 15  1  1
 16 17  1  0
 17  6  1  0
 18 16  1  0
 18 19  2  0
 21 20  1  6
 21 22  1  0
 22 18  1  0
 23 21  1  0
 24 23  1  0
 25 23  2  0
M  END
$$$$
