DRA.pdb
     RDKit          3D

 25 24  0  0  1  0  0  0  0  0999 V2000
   28.4412  -23.5317  -18.3753 N   0  0  0  0  0  0  0  0  0  0  0  0
   28.0568  -22.1646  -18.1015 C   0  0  1  0  0  0  0  0  0  0  0  0
   27.4617  -21.5028  -19.3374 C   0  0  0  0  0  0  0  0  0  0  0  0
   28.5351  -21.0414  -20.2512 C   0  0  0  0  0  0  0  0  0  0  0  0
   28.2429  -20.5100  -21.3583 O   0  0  0  0  0  0  0  0  0  0  0  0
   27.1249  -22.0859  -16.9503 C   0  0  0  0  0  0  0  0  0  0  0  0
   26.1297  -22.8437  -16.8267 O   0  0  0  0  0  0  0  0  0  0  0  0
   29.8786  -21.1612  -19.9562 O   0  0  0  0  0  0  0  0  0  0  0  0
   24.1063  -20.7613  -11.0535 N   0  0  0  0  0  0  0  0  0  0  0  0
   25.1761  -20.8011  -10.1224 C   0  0  0  0  0  0  0  0  0  0  0  0
   24.9653  -20.5169   -8.8659 N   0  0  0  0  0  0  0  0  0  0  0  0
   26.4976  -21.1403  -10.4852 N   0  0  0  0  0  0  0  0  0  0  0  0
   27.2829  -20.2397  -11.3059 C   0  0  0  0  0  0  0  0  0  0  0  0
   26.5705  -19.8217  -12.5517 C   0  0  0  0  0  0  0  0  0  0  0  0
   27.3961  -20.2601  -13.7433 C   0  0  0  0  0  0  0  0  0  0  0  0
   26.5306  -20.9288  -14.7869 C   0  0  2  0  0  0  0  0  0  0  0  0
   27.3556  -21.1324  -15.9570 N   0  0  0  0  0  0  0  0  0  0  0  0
   25.2807  -20.2472  -15.0451 C   0  0  0  0  0  0  0  0  0  0  0  0
   25.2673  -19.1620  -15.6598 O   0  0  0  0  0  0  0  0  0  0  0  0
   25.6995  -20.5326   -8.1563 C   0  0  0  0  0  0  0  0  0  0  0  0
   22.8557  -18.6980  -14.6363 C   0  0  2  0  0  0  0  0  0  0  0  0
   22.7589  -20.1704  -14.9251 N   0  0  0  0  0  0  0  0  0  0  0  0
   24.0431  -20.7758  -14.6176 C   0  0  0  0  0  0  0  0  0  0  0  0
   22.2794  -20.4769  -16.2643 O   0  0  0  0  0  0  0  0  0  0  0  0
   21.0489  -20.0229  -16.6863 O   0  0  0  0  0  0  0  0  0  0  0  0
  2  1  1  6
  2  3  1  0
  3  4  1  0
  4  8  1  0
  5  4  2  0
  6  2  1  0
  7  6  2  0
 10 12  1  0
 10  9  1  0
 11 10  2  0
 13 14  1  0
 13 12  1  0
 15 14  1  0
 16 15  1  1
 16 17  1  0
 17  6  1  0
 18 16  1  0
 18 19  2  0
 21 20  1  1
 21 22  1  0
 22 18  1  0
 23 21  1  0
 24 23  1  0
 25 23  2  0
M  END
$$$$
