DRA.pdb
     RDKit          3D

 25 24  0  0  1  0  0  0  0  0999 V2000
   18.8799  -22.9728  -11.3661 N   0  0  0  0  0  0  0  0  0  0  0  0
   17.9392  -22.1732  -12.1195 C   0  0  1  0  0  0  0  0  0  0  0  0
   16.6315  -22.0000  -11.3583 C   0  0  0  0  0  0  0  0  0  0  0  0
   16.0228  -23.3190  -11.0583 C   0  0  0  0  0  0  0  0  0  0  0  0
   15.6277  -23.5858   -9.8895 O   0  0  0  0  0  0  0  0  0  0  0  0
   18.5216  -20.8604  -12.4899 C   0  0  0  0  0  0  0  0  0  0  0  0
   18.0508  -19.7677  -12.0843 O   0  0  0  0  0  0  0  0  0  0  0  0
   15.8561  -24.3056  -12.0098 O   0  0  0  0  0  0  0  0  0  0  0  0
   26.7340  -21.5912  -13.1037 N   0  0  0  0  0  0  0  0  0  0  0  0
   26.1049  -21.3273  -11.8597 C   0  0  0  0  0  0  0  0  0  0  0  0
   26.7935  -21.3736  -10.7517 N   0  0  0  0  0  0  0  0  0  0  0  0
   24.7347  -21.0077  -11.7446 N   0  0  0  0  0  0  0  0  0  0  0  0
   23.9360  -20.7811  -12.9329 C   0  0  0  0  0  0  0  0  0  0  0  0
   22.5270  -20.3936  -12.6184 C   0  0  0  0  0  0  0  0  0  0  0  0
   21.8183  -20.0752  -13.9185 C   0  0  0  0  0  0  0  0  0  0  0  0
   20.3923  -19.6410  -13.6671 C   0  0  2  0  0  0  0  0  0  0  0  0
   19.6403  -20.8277  -13.3243 N   0  0  0  0  0  0  0  0  0  0  0  0
   19.8160  -18.8531  -14.7352 C   0  0  0  0  0  0  0  0  0  0  0  0
   19.4002  -19.4042  -15.7742 O   0  0  0  0  0  0  0  0  0  0  0  0
   26.3934  -21.1735   -9.8336 C   0  0  0  0  0  0  0  0  0  0  0  0
   18.8609  -15.2602  -15.1254 C   0  0  1  0  0  0  0  0  0  0  0  0
   19.1619  -16.6146  -15.7050 N   0  0  0  0  0  0  0  0  0  0  0  0
   19.7027  -17.4486  -14.6456 C   0  0  0  0  0  0  0  0  0  0  0  0
   19.9993  -16.5725  -16.8942 O   0  0  0  0  0  0  0  0  0  0  0  0
   19.4556  -16.2569  -18.1203 O   0  0  0  0  0  0  0  0  0  0  0  0
  2  1  1  1
  2  3  1  0
  3  4  1  0
  4  8  1  0
  5  4  2  0
  6  2  1  0
  7  6  2  0
 10 12  1  0
 10  9  1  0
 11 10  2  0
 13 14  1  0
 13 12  1  0
 15 14  1  0
 16 15  1  6
 16 17  1  0
 17  6  1  0
 18 16  1  0
 18 19  2  0
 21 20  1  1
 21 22  1  0
 22 18  1  0
 23 21  1  0
 24 23  1  0
 25 23  2  0
M  END
$$$$
