IPL.pdb
     RDKit          3D

 24 24  0  0  1  0  0  0  0  0999 V2000
   28.8811  -16.6733  -16.8383 C   0  0  0  0  0  0  0  0  0  0  0  0
   27.6062  -17.4399  -16.9267 C   0  0  0  0  0  0  0  0  0  0  0  0
   27.1899  -18.0264  -15.6271 C   0  0  2  0  0  0  0  0  0  0  0  0
   28.2855  -18.9929  -15.1650 C   0  0  0  0  0  0  0  0  0  0  0  0
   25.8684  -18.7653  -15.7677 C   0  0  2  0  0  0  0  0  0  0  0  0
   24.9236  -17.9357  -16.3884 N   0  0  0  0  0  0  0  0  0  0  0  0
   25.4790  -19.4575  -14.5298 C   0  0  0  0  0  0  0  0  0  0  0  0
   25.3199  -18.6561  -13.5277 O   0  0  0  0  0  0  0  0  0  0  0  0
   25.2751  -20.8436  -14.3436 N   0  0  0  0  0  0  0  0  0  0  0  0
   25.3196  -21.8286  -15.3985 C   0  0  0  0  0  0  0  0  0  0  0  0
   25.0891  -23.1884  -14.7147 C   0  0  0  0  0  0  0  0  0  0  0  0
   25.5189  -22.9120  -13.3289 C   0  0  0  0  0  0  0  0  0  0  0  0
   25.0005  -21.4905  -13.0736 C   0  0  1  0  0  0  0  0  0  0  0  0
   25.8355  -20.9778  -11.9546 C   0  0  0  0  0  0  0  0  0  0  0  0
   27.0185  -20.5936  -12.0622 O   0  0  0  0  0  0  0  0  0  0  0  0
   26.8656  -19.5876   -6.8592 C   0  0  0  0  0  0  0  0  0  0  0  0
   27.6661  -19.3724   -8.1322 C   0  0  2  0  0  0  0  0  0  0  0  0
   28.4679  -18.1206   -8.0610 C   0  0  0  0  0  0  0  0  0  0  0  0
   26.8562  -19.5599   -9.3671 C   0  0  0  0  0  0  0  0  0  0  0  0
   26.0270  -20.7969   -9.4408 C   0  0  2  0  0  0  0  0  0  0  0  0
   25.2520  -20.9159  -10.6589 N   0  0  0  0  0  0  0  0  0  0  0  0
   25.2301  -21.0670   -8.2481 C   0  0  0  0  0  0  0  0  0  0  0  0
   25.6309  -22.0099   -7.3236 O   0  0  0  0  0  0  0  0  0  0  0  0
   24.1643  -20.4470   -8.0399 O   0  0  0  0  0  0  0  0  0  0  0  0
  1  2  1  0
  3  2  1  0
  3  4  1  6
  5  3  1  0
  5  6  1  1
  7  8  2  0
  7  5  1  0
  9  7  1  0
 10  9  1  0
 11 10  1  0
 12 11  1  0
 12 13  1  0
 13 14  1  1
 13  9  1  0
 14 15  2  0
 17 16  1  1
 17 19  1  0
 18 17  1  0
 20 19  1  1
 20 21  1  0
 21 14  1  0
 22 20  1  0
 23 22  1  0
 24 22  2  0
M  END
$$$$
