IPL.pdb
     RDKit          3D

 24 24  0  0  1  0  0  0  0  0999 V2000
   24.2066  -15.2090  -15.6633 C   0  0  0  0  0  0  0  0  0  0  0  0
   24.8173  -16.5408  -15.9354 C   0  0  0  0  0  0  0  0  0  0  0  0
   25.1205  -17.3044  -14.6980 C   0  0  2  0  0  0  0  0  0  0  0  0
   26.5350  -16.9333  -14.2406 C   0  0  0  0  0  0  0  0  0  0  0  0
   25.0307  -18.8008  -14.9523 C   0  0  2  0  0  0  0  0  0  0  0  0
   23.8735  -19.0892  -15.6898 N   0  0  0  0  0  0  0  0  0  0  0  0
   25.2985  -19.5921  -13.7418 C   0  0  0  0  0  0  0  0  0  0  0  0
   24.4176  -19.4133  -12.8124 O   0  0  0  0  0  0  0  0  0  0  0  0
   26.3731  -20.4809  -13.5118 N   0  0  0  0  0  0  0  0  0  0  0  0
   27.3103  -20.9139  -14.5214 C   0  0  0  0  0  0  0  0  0  0  0  0
   28.3164  -21.8271  -13.7978 C   0  0  0  0  0  0  0  0  0  0  0  0
   28.2073  -21.3584  -12.4014 C   0  0  0  0  0  0  0  0  0  0  0  0
   26.7065  -21.0855  -12.2352 C   0  0  1  0  0  0  0  0  0  0  0  0
   26.6177  -20.1400  -11.0904 C   0  0  0  0  0  0  0  0  0  0  0  0
   27.2321  -19.0563  -11.0081 O   0  0  0  0  0  0  0  0  0  0  0  0
   27.6905  -18.3171   -6.3087 C   0  0  0  0  0  0  0  0  0  0  0  0
   27.3318  -19.7434   -6.6893 C   0  0  2  0  0  0  0  0  0  0  0  0
   28.0992  -20.7280   -5.8789 C   0  0  0  0  0  0  0  0  0  0  0  0
   27.3291  -19.9694   -8.1607 C   0  0  0  0  0  0  0  0  0  0  0  0
   26.2692  -20.8711   -8.6962 C   0  0  2  0  0  0  0  0  0  0  0  0
   25.7714  -20.4866  -10.0011 N   0  0  0  0  0  0  0  0  0  0  0  0
   25.1918  -21.1681   -7.7573 C   0  0  0  0  0  0  0  0  0  0  0  0
   23.8724  -21.1553   -8.1617 O   0  0  0  0  0  0  0  0  0  0  0  0
   25.4440  -21.4408   -6.5633 O   0  0  0  0  0  0  0  0  0  0  0  0
  1  2  1  0
  3  2  1  0
  3  4  1  6
  5  3  1  0
  5  6  1  1
  7  8  2  0
  7  5  1  0
  9  7  1  0
 10  9  1  0
 11 10  1  0
 12 11  1  0
 12 13  1  0
 13 14  1  1
 13  9  1  0
 14 15  2  0
 17 16  1  6
 17 19  1  0
 18 17  1  0
 20 19  1  1
 20 21  1  0
 21 14  1  0
 22 20  1  0
 23 22  1  0
 24 22  2  0
M  END
$$$$
