IPL.pdb
     RDKit          3D

 24 24  0  0  1  0  0  0  0  0999 V2000
   25.2510  -15.0193  -15.5273 C   0  0  0  0  0  0  0  0  0  0  0  0
   25.3699  -16.4489  -15.9310 C   0  0  0  0  0  0  0  0  0  0  0  0
   25.5284  -17.3677  -14.7748 C   0  0  2  0  0  0  0  0  0  0  0  0
   26.8775  -17.0734  -14.1106 C   0  0  0  0  0  0  0  0  0  0  0  0
   25.4757  -18.8183  -15.2277 C   0  0  2  0  0  0  0  0  0  0  0  0
   24.3441  -19.0252  -16.0294 N   0  0  0  0  0  0  0  0  0  0  0  0
   25.7282  -19.7589  -14.1256 C   0  0  0  0  0  0  0  0  0  0  0  0
   24.7248  -19.8781  -13.3190 O   0  0  0  0  0  0  0  0  0  0  0  0
   26.9038  -20.5036  -13.8787 N   0  0  0  0  0  0  0  0  0  0  0  0
   28.0258  -20.5897  -14.7835 C   0  0  0  0  0  0  0  0  0  0  0  0
   29.0749  -21.4627  -14.0713 C   0  0  0  0  0  0  0  0  0  0  0  0
   28.7042  -21.2916  -12.6519 C   0  0  0  0  0  0  0  0  0  0  0  0
   27.1701  -21.2842  -12.6844 C   0  0  1  0  0  0  0  0  0  0  0  0
   26.7676  -20.5994  -11.4268 C   0  0  0  0  0  0  0  0  0  0  0  0
   26.9864  -19.3986  -11.1644 O   0  0  0  0  0  0  0  0  0  0  0  0
   27.3161  -20.5599   -6.6251 C   0  0  0  0  0  0  0  0  0  0  0  0
   27.6158  -19.6927   -7.8359 C   0  0  2  0  0  0  0  0  0  0  0  0
   28.2543  -18.4091   -7.4362 C   0  0  0  0  0  0  0  0  0  0  0  0
   26.4646  -19.5853   -8.7735 C   0  0  0  0  0  0  0  0  0  0  0  0
   25.7650  -20.8554   -9.1208 C   0  0  2  0  0  0  0  0  0  0  0  0
   26.0806  -21.3607  -10.4412 N   0  0  0  0  0  0  0  0  0  0  0  0
   24.3294  -20.8509   -8.8575 C   0  0  0  0  0  0  0  0  0  0  0  0
   23.4213  -20.6176   -9.8702 O   0  0  0  0  0  0  0  0  0  0  0  0
   23.8923  -21.0589   -7.7045 O   0  0  0  0  0  0  0  0  0  0  0  0
  1  2  1  0
  3  2  1  0
  3  4  1  6
  5  3  1  0
  5  6  1  1
  7  8  2  0
  7  5  1  0
  9  7  1  0
 10  9  1  0
 11 10  1  0
 12 11  1  0
 12 13  1  0
 13 14  1  1
 13  9  1  0
 14 15  2  0
 17 16  1  1
 17 19  1  0
 18 17  1  0
 20 19  1  6
 20 21  1  0
 21 14  1  0
 22 20  1  0
 23 22  1  0
 24 22  2  0
M  END
$$$$
