IPL.pdb
     RDKit          3D

 24 24  0  0  1  0  0  0  0  0999 V2000
   16.0807   -9.6577  -10.1650 C   0  0  0  0  0  0  0  0  0  0  0  0
   15.9996  -10.0230  -11.6075 C   0  0  0  0  0  0  0  0  0  0  0  0
   14.9274   -9.2937  -12.3319 C   0  0  2  0  0  0  0  0  0  0  0  0
   13.5785   -9.8932  -11.9209 C   0  0  0  0  0  0  0  0  0  0  0  0
   15.1148   -9.4142  -13.8360 C   0  0  2  0  0  0  0  0  0  0  0  0
   15.1206  -10.7663  -14.2076 N   0  0  0  0  0  0  0  0  0  0  0  0
   16.1949   -8.5510  -14.3372 C   0  0  0  0  0  0  0  0  0  0  0  0
   17.3157   -9.1769  -14.4914 O   0  0  0  0  0  0  0  0  0  0  0  0
   16.1255   -7.1739  -14.6477 N   0  0  0  0  0  0  0  0  0  0  0  0
   14.8995   -6.4209  -14.7692 C   0  0  0  0  0  0  0  0  0  0  0  0
   15.3236   -4.9712  -15.0664 C   0  0  0  0  0  0  0  0  0  0  0  0
   16.6917   -4.9316  -14.5112 C   0  0  0  0  0  0  0  0  0  0  0  0
   17.2649   -6.3058  -14.8821 C   0  0  1  0  0  0  0  0  0  0  0  0
   18.3817   -6.5219  -13.9237 C   0  0  0  0  0  0  0  0  0  0  0  0
   18.3162   -7.2275  -12.8959 O   0  0  0  0  0  0  0  0  0  0  0  0
   22.6641   -8.8680  -12.6418 C   0  0  0  0  0  0  0  0  0  0  0  0
   22.3804   -8.5210  -14.0933 C   0  0  2  0  0  0  0  0  0  0  0  0
   23.5331   -7.8138  -14.7149 C   0  0  0  0  0  0  0  0  0  0  0  0
   21.0453   -7.8927  -14.2908 C   0  0  0  0  0  0  0  0  0  0  0  0
   20.9080   -6.4690  -13.8694 C   0  0  2  0  0  0  0  0  0  0  0  0
   19.6234   -5.8806  -14.1884 N   0  0  0  0  0  0  0  0  0  0  0  0
   22.0227   -5.6099  -14.2564 C   0  0  0  0  0  0  0  0  0  0  0  0
   23.0474   -5.3337  -13.3741 O   0  0  0  0  0  0  0  0  0  0  0  0
   22.0714   -5.1051  -15.3994 O   0  0  0  0  0  0  0  0  0  0  0  0
  1  2  1  0
  3  2  1  0
  3  4  1  6
  5  3  1  0
  5  6  1  1
  7  8  2  0
  7  5  1  0
  9  7  1  0
 10  9  1  0
 11 10  1  0
 12 11  1  0
 12 13  1  0
 13 14  1  1
 13  9  1  0
 14 15  2  0
 17 16  1  1
 17 19  1  0
 18 17  1  0
 20 19  1  6
 20 21  1  0
 21 14  1  0
 22 20  1  0
 23 22  1  0
 24 22  2  0
M  END
$$$$
