IPL.pdb
     RDKit          3D

 24 24  0  0  1  0  0  0  0  0999 V2000
   20.6049  -21.1810  -13.8069 C   0  0  0  0  0  0  0  0  0  0  0  0
   21.9454  -21.4616  -14.3945 C   0  0  0  0  0  0  0  0  0  0  0  0
   23.0165  -21.5715  -13.3714 C   0  0  2  0  0  0  0  0  0  0  0  0
   23.0895  -20.2438  -12.6098 C   0  0  0  0  0  0  0  0  0  0  0  0
   24.3565  -21.8724  -14.0239 C   0  0  2  0  0  0  0  0  0  0  0  0
   24.2355  -22.9868  -14.8663 N   0  0  0  0  0  0  0  0  0  0  0  0
   25.4674  -21.8469  -13.0603 C   0  0  0  0  0  0  0  0  0  0  0  0
   25.4161  -22.8106  -12.1998 O   0  0  0  0  0  0  0  0  0  0  0  0
   26.5280  -20.9155  -12.9904 N   0  0  0  0  0  0  0  0  0  0  0  0
   26.8266  -19.9341  -14.0066 C   0  0  0  0  0  0  0  0  0  0  0  0
   28.0228  -19.1256  -13.4725 C   0  0  0  0  0  0  0  0  0  0  0  0
   27.9024  -19.3263  -12.0142 C   0  0  0  0  0  0  0  0  0  0  0  0
   27.4697  -20.7935  -11.8926 C   0  0  1  0  0  0  0  0  0  0  0  0
   26.8329  -20.8911  -10.5519 C   0  0  0  0  0  0  0  0  0  0  0  0
   25.6024  -20.8805  -10.3418 O   0  0  0  0  0  0  0  0  0  0  0  0
   28.9500  -19.5394   -4.8705 C   0  0  0  0  0  0  0  0  0  0  0  0
   27.9081  -20.3059   -5.6672 C   0  0  2  0  0  0  0  0  0  0  0  0
   27.4195  -21.4938   -4.9153 C   0  0  0  0  0  0  0  0  0  0  0  0
   28.3175  -20.5489   -7.0776 C   0  0  0  0  0  0  0  0  0  0  0  0
   27.2224  -20.8075   -8.0560 C   0  0  2  0  0  0  0  0  0  0  0  0
   27.6809  -21.0057   -9.4158 N   0  0  0  0  0  0  0  0  0  0  0  0
   26.1043  -19.8725   -7.9787 C   0  0  0  0  0  0  0  0  0  0  0  0
   24.8709  -20.2762   -7.5092 O   0  0  0  0  0  0  0  0  0  0  0  0
   26.2424  -18.6827   -8.3379 O   0  0  0  0  0  0  0  0  0  0  0  0
  1  2  1  0
  3  2  1  0
  3  4  1  6
  5  3  1  0
  5  6  1  1
  7  8  2  0
  7  5  1  0
  9  7  1  0
 10  9  1  0
 11 10  1  0
 12 11  1  0
 12 13  1  0
 13 14  1  1
 13  9  1  0
 14 15  2  0
 17 16  1  1
 17 19  1  0
 18 17  1  0
 20 19  1  1
 20 21  1  0
 21 14  1  0
 22 20  1  0
 23 22  1  0
 24 22  2  0
M  END
$$$$
