IPL.pdb
     RDKit          3D

 24 24  0  0  1  0  0  0  0  0999 V2000
   19.1350  -19.6422    0.1647 C   0  0  0  0  0  0  0  0  0  0  0  0
   17.9374  -19.9029    1.0125 C   0  0  0  0  0  0  0  0  0  0  0  0
   17.8408  -18.9878    2.1783 C   0  0  2  0  0  0  0  0  0  0  0  0
   19.0187  -19.2785    3.1143 C   0  0  0  0  0  0  0  0  0  0  0  0
   16.5267  -19.1910    2.9158 C   0  0  2  0  0  0  0  0  0  0  0  0
   15.4848  -19.3605    1.9927 N   0  0  0  0  0  0  0  0  0  0  0  0
   16.3393  -18.2205    4.0049 C   0  0  0  0  0  0  0  0  0  0  0  0
   16.3315  -16.9937    3.5968 O   0  0  0  0  0  0  0  0  0  0  0  0
   16.1774  -18.4901    5.3828 N   0  0  0  0  0  0  0  0  0  0  0  0
   15.8584  -19.7863    5.9334 C   0  0  0  0  0  0  0  0  0  0  0  0
   15.8325  -19.5998    7.4613 C   0  0  0  0  0  0  0  0  0  0  0  0
   16.6923  -18.4123    7.6402 C   0  0  0  0  0  0  0  0  0  0  0  0
   16.3139  -17.5181    6.4520 C   0  0  1  0  0  0  0  0  0  0  0  0
   17.4760  -16.6059    6.2790 C   0  0  0  0  0  0  0  0  0  0  0  0
   18.3450  -16.7151    5.3893 O   0  0  0  0  0  0  0  0  0  0  0  0
   20.2359  -12.6201    5.2787 C   0  0  0  0  0  0  0  0  0  0  0  0
   18.7283  -12.4406    5.2266 C   0  0  2  0  0  0  0  0  0  0  0  0
   18.3092  -11.1892    5.9146 C   0  0  0  0  0  0  0  0  0  0  0  0
   17.9826  -13.6732    5.6017 C   0  0  0  0  0  0  0  0  0  0  0  0
   18.3663  -14.3205    6.8890 C   0  0  2  0  0  0  0  0  0  0  0  0
   17.6178  -15.5234    7.1906 N   0  0  0  0  0  0  0  0  0  0  0  0
   18.4382  -13.4118    8.0290 C   0  0  0  0  0  0  0  0  0  0  0  0
   19.6545  -12.9942    8.5300 O   0  0  0  0  0  0  0  0  0  0  0  0
   17.3951  -12.9923    8.5764 O   0  0  0  0  0  0  0  0  0  0  0  0
  1  2  1  0
  3  2  1  0
  3  4  1  1
  5  3  1  0
  5  6  1  6
  7  8  2  0
  7  5  1  0
  9  7  1  0
 10  9  1  0
 11 10  1  0
 12 11  1  0
 12 13  1  0
 13 14  1  6
 13  9  1  0
 14 15  2  0
 17 16  1  1
 17 19  1  0
 18 17  1  0
 20 19  1  6
 20 21  1  0
 21 14  1  0
 22 20  1  0
 23 22  1  0
 24 22  2  0
M  END
$$$$
