IPL.pdb
     RDKit          3D

 24 24  0  0  1  0  0  0  0  0999 V2000
   19.5961  -15.4767  -20.0093 C   0  0  0  0  0  0  0  0  0  0  0  0
   20.4059  -15.5734  -18.7620 C   0  0  0  0  0  0  0  0  0  0  0  0
   20.4242  -14.3096  -17.9820 C   0  0  2  0  0  0  0  0  0  0  0  0
   21.1648  -13.2499  -18.8043 C   0  0  0  0  0  0  0  0  0  0  0  0
   21.1193  -14.5114  -16.6447 C   0  0  2  0  0  0  0  0  0  0  0  0
   20.6014  -15.6474  -16.0063 N   0  0  0  0  0  0  0  0  0  0  0  0
   21.2194  -13.2645  -15.8713 C   0  0  0  0  0  0  0  0  0  0  0  0
   20.0707  -12.7216  -15.6312 O   0  0  0  0  0  0  0  0  0  0  0  0
   22.3921  -12.6371  -15.3933 N   0  0  0  0  0  0  0  0  0  0  0  0
   23.7129  -13.2185  -15.4444 C   0  0  0  0  0  0  0  0  0  0  0  0
   24.6626  -12.1580  -14.8584 C   0  0  0  0  0  0  0  0  0  0  0  0
   23.9048  -10.9101  -15.0819 C   0  0  0  0  0  0  0  0  0  0  0  0
   22.4548  -11.3186  -14.7897 C   0  0  1  0  0  0  0  0  0  0  0  0
   21.6260  -10.3042  -15.4944 C   0  0  0  0  0  0  0  0  0  0  0  0
   21.0872  -10.4691  -16.6084 O   0  0  0  0  0  0  0  0  0  0  0  0
   16.8661   -7.8877  -16.4169 C   0  0  0  0  0  0  0  0  0  0  0  0
   18.3241   -7.4612  -16.4291 C   0  0  2  0  0  0  0  0  0  0  0  0
   18.7197   -6.9279  -17.7611 C   0  0  0  0  0  0  0  0  0  0  0  0
   19.2333   -8.4808  -15.8377 C   0  0  0  0  0  0  0  0  0  0  0  0
   20.5787   -8.0056  -15.4050 C   0  0  2  0  0  0  0  0  0  0  0  0
   21.4251   -9.0472  -14.8599 N   0  0  0  0  0  0  0  0  0  0  0  0
   20.5614   -6.8104  -14.5674 C   0  0  0  0  0  0  0  0  0  0  0  0
   21.0863   -6.8286  -13.2913 O   0  0  0  0  0  0  0  0  0  0  0  0
   20.0684   -5.7422  -14.9913 O   0  0  0  0  0  0  0  0  0  0  0  0
  1  2  1  0
  3  2  1  0
  3  4  1  6
  5  3  1  0
  5  6  1  1
  7  8  2  0
  7  5  1  0
  9  7  1  0
 10  9  1  0
 11 10  1  0
 12 11  1  0
 12 13  1  0
 13 14  1  6
 13  9  1  0
 14 15  2  0
 17 16  1  6
 17 19  1  0
 18 17  1  0
 20 19  1  1
 20 21  1  0
 21 14  1  0
 22 20  1  0
 23 22  1  0
 24 22  2  0
M  END
$$$$
