AYP.pdb
     RDKit          3D

 25 26  0  0  1  0  0  0  0  0999 V2000
    6.0853  -20.7330   21.7690 C   0  0  0  0  0  0  0  0  0  0  0  0
    5.0346  -20.1344   22.6723 C   0  0  2  0  0  0  0  0  0  0  0  0
    3.7368  -20.3890   22.1146 N   0  0  0  0  0  0  0  0  0  0  0  0
    5.2766  -18.6887   22.9156 C   0  0  0  0  0  0  0  0  0  0  0  0
    4.7185  -17.8548   22.1825 O   0  0  0  0  0  0  0  0  0  0  0  0
    7.8680  -11.2813   27.0714 O   0  0  0  0  0  0  0  0  0  0  0  0
    7.5020  -12.5777   26.7375 C   0  0  0  0  0  0  0  0  0  0  0  0
    8.4980  -13.4907   26.5375 C   0  0  0  0  0  0  0  0  0  0  0  0
    8.2035  -14.7836   26.2062 C   0  0  0  0  0  0  0  0  0  0  0  0
    6.8923  -15.2369   26.0562 C   0  0  0  0  0  0  0  0  0  0  0  0
    6.6944  -16.6385   25.7069 C   0  0  0  0  0  0  0  0  0  0  0  0
    6.4897  -16.9216   24.2391 C   0  0  2  0  0  0  0  0  0  0  0  0
    6.1164  -18.2635   23.9497 N   0  0  0  0  0  0  0  0  0  0  0  0
    7.7328  -16.5929   23.5125 C   0  0  0  0  0  0  0  0  0  0  0  0
    8.7055  -17.4404   23.4922 O   0  0  0  0  0  0  0  0  0  0  0  0
    5.9196  -14.2946   26.2641 C   0  0  0  0  0  0  0  0  0  0  0  0
    6.2004  -12.9727   26.6021 C   0  0  0  0  0  0  0  0  0  0  0  0
    7.9519  -15.3799   22.8090 N   0  0  0  0  0  0  0  0  0  0  0  0
    7.2001  -14.1324   22.8298 C   0  0  0  0  0  0  0  0  0  0  0  0
    7.3033  -13.6670   21.3669 C   0  0  0  0  0  0  0  0  0  0  0  0
    8.7640  -13.9386   21.0917 C   0  0  0  0  0  0  0  0  0  0  0  0
    9.0480  -15.1855   21.8589 C   0  0  1  0  0  0  0  0  0  0  0  0
   10.3212  -14.9667   22.6038 C   0  0  0  0  0  0  0  0  0  0  0  0
   10.2666  -14.8408   23.8523 O   0  0  0  0  0  0  0  0  0  0  0  0
   11.5682  -14.8931   22.0002 O   0  0  0  0  0  0  0  0  0  0  0  0
  2  1  1  6
  2  3  1  0
  4 13  1  0
  4  2  1  0
  5  4  2  0
  6  7  1  0
  7 17  2  0
  8  9  2  0
  8  7  1  0
  9 10  1  0
 10 16  2  0
 10 11  1  0
 12 11  1  1
 12 13  1  0
 14 12  1  0
 15 14  2  0
 17 16  1  0
 18 14  1  0
 18 22  1  0
 19 20  1  0
 19 18  1  0
 20 21  1  0
 22 21  1  0
 23 25  1  0
 22 23  1  1
 24 23  2  0
M  END
$$$$
