AYP.pdb
     RDKit          3D

 25 26  0  0  1  0  0  0  0  0999 V2000
    6.7201  -21.2646   22.4624 C   0  0  0  0  0  0  0  0  0  0  0  0
    5.6302  -20.5496   23.2234 C   0  0  2  0  0  0  0  0  0  0  0  0
    4.3590  -20.8852   22.6476 N   0  0  0  0  0  0  0  0  0  0  0  0
    5.8641  -19.0831   23.2727 C   0  0  0  0  0  0  0  0  0  0  0  0
    5.4651  -18.3795   22.3293 O   0  0  0  0  0  0  0  0  0  0  0  0
    7.4695  -11.1408   26.9025 O   0  0  0  0  0  0  0  0  0  0  0  0
    7.2884  -12.4974   26.6726 C   0  0  0  0  0  0  0  0  0  0  0  0
    8.4010  -13.2676   26.4869 C   0  0  0  0  0  0  0  0  0  0  0  0
    8.2902  -14.6100   26.2561 C   0  0  0  0  0  0  0  0  0  0  0  0
    7.0563  -15.2594   26.1981 C   0  0  0  0  0  0  0  0  0  0  0  0
    7.0564  -16.6965   25.9520 C   0  0  0  0  0  0  0  0  0  0  0  0
    6.8137  -17.1126   24.5222 C   0  0  2  0  0  0  0  0  0  0  0  0
    6.5212  -18.4951   24.3580 N   0  0  0  0  0  0  0  0  0  0  0  0
    8.0020  -16.7657   23.7166 C   0  0  0  0  0  0  0  0  0  0  0  0
    8.9756  -17.6067   23.6172 O   0  0  0  0  0  0  0  0  0  0  0  0
    5.9627  -14.4564   26.3888 C   0  0  0  0  0  0  0  0  0  0  0  0
    6.0560  -13.0868   26.6250 C   0  0  0  0  0  0  0  0  0  0  0  0
    8.1656  -15.5416   23.0174 N   0  0  0  0  0  0  0  0  0  0  0  0
    7.4289  -14.2899   23.1288 C   0  0  0  0  0  0  0  0  0  0  0  0
    7.4016  -13.7986   21.6710 C   0  0  0  0  0  0  0  0  0  0  0  0
    8.8287  -14.0746   21.2584 C   0  0  0  0  0  0  0  0  0  0  0  0
    9.1717  -15.3370   21.9743 C   0  0  1  0  0  0  0  0  0  0  0  0
   10.5095  -15.1399   22.6032 C   0  0  0  0  0  0  0  0  0  0  0  0
   11.5092  -15.0230   21.8520 O   0  0  0  0  0  0  0  0  0  0  0  0
   10.7189  -15.0776   23.9732 O   0  0  0  0  0  0  0  0  0  0  0  0
  2  1  1  6
  2  3  1  0
  4 13  1  0
  4  2  1  0
  5  4  2  0
  6  7  1  0
  7 17  2  0
  8  9  2  0
  8  7  1  0
  9 10  1  0
 10 16  2  0
 10 11  1  0
 12 11  1  1
 12 13  1  0
 14 12  1  0
 15 14  2  0
 17 16  1  0
 18 14  1  0
 18 22  1  0
 19 20  1  0
 19 18  1  0
 20 21  1  0
 22 21  1  0
 23 25  1  0
 22 23  1  1
 24 23  2  0
M  END
$$$$
