AYP.pdb
     RDKit          3D

 25 26  0  0  1  0  0  0  0  0999 V2000
   12.0791  -18.6202   21.7528 C   0  0  0  0  0  0  0  0  0  0  0  0
   11.6427  -17.2819   21.2082 C   0  0  2  0  0  0  0  0  0  0  0  0
   12.6893  -16.7476   20.3838 N   0  0  0  0  0  0  0  0  0  0  0  0
   11.2407  -16.3504   22.2936 C   0  0  0  0  0  0  0  0  0  0  0  0
   12.0669  -15.5204   22.7093 O   0  0  0  0  0  0  0  0  0  0  0  0
    5.8970  -11.4020   27.2999 O   0  0  0  0  0  0  0  0  0  0  0  0
    6.3790  -12.3885   26.4509 C   0  0  0  0  0  0  0  0  0  0  0  0
    7.0083  -11.9929   25.3050 C   0  0  0  0  0  0  0  0  0  0  0  0
    7.5051  -12.9154   24.4274 C   0  0  0  0  0  0  0  0  0  0  0  0
    7.4000  -14.2894   24.6477 C   0  0  0  0  0  0  0  0  0  0  0  0
    7.9714  -15.1830   23.6474 C   0  0  0  0  0  0  0  0  0  0  0  0
    9.4281  -15.5272   23.8374 C   0  0  2  0  0  0  0  0  0  0  0  0
    9.9564  -16.3988   22.8448 N   0  0  0  0  0  0  0  0  0  0  0  0
    9.6030  -16.1409   25.1693 C   0  0  0  0  0  0  0  0  0  0  0  0
    9.6072  -17.4259   25.2865 O   0  0  0  0  0  0  0  0  0  0  0  0
    6.7633  -14.6495   25.8062 C   0  0  0  0  0  0  0  0  0  0  0  0
    6.2505  -13.7240   26.7122 C   0  0  0  0  0  0  0  0  0  0  0  0
    9.7744  -15.4075   26.3722 N   0  0  0  0  0  0  0  0  0  0  0  0
    9.4056  -14.0364   26.6978 C   0  0  0  0  0  0  0  0  0  0  0  0
   10.5657  -13.5957   27.6074 C   0  0  0  0  0  0  0  0  0  0  0  0
   10.7100  -14.8174   28.4847 C   0  0  0  0  0  0  0  0  0  0  0  0
   10.4207  -15.9556   27.5656 C   0  0  1  0  0  0  0  0  0  0  0  0
    9.4740  -16.8658   28.2723 C   0  0  0  0  0  0  0  0  0  0  0  0
    8.2941  -16.9428   27.8490 O   0  0  0  0  0  0  0  0  0  0  0  0
    9.8179  -17.6362   29.3736 O   0  0  0  0  0  0  0  0  0  0  0  0
  2  1  1  1
  2  3  1  0
  4 13  1  0
  4  2  1  0
  5  4  2  0
  6  7  1  0
  7 17  2  0
  8  9  2  0
  8  7  1  0
  9 10  1  0
 10 16  2  0
 10 11  1  0
 12 11  1  6
 12 13  1  0
 14 12  1  0
 15 14  2  0
 17 16  1  0
 18 14  1  0
 18 22  1  0
 19 20  1  0
 19 18  1  0
 20 21  1  0
 22 21  1  0
 23 25  1  0
 22 23  1  1
 24 23  2  0
M  END
$$$$
