AYP.pdb
     RDKit          3D

 25 26  0  0  1  0  0  0  0  0999 V2000
    8.1775  -12.3930   19.8675 C   0  0  0  0  0  0  0  0  0  0  0  0
    8.0422  -13.8935   19.7764 C   0  0  2  0  0  0  0  0  0  0  0  0
    7.2745  -14.2248   18.6097 N   0  0  0  0  0  0  0  0  0  0  0  0
    7.4680  -14.4710   21.0192 C   0  0  0  0  0  0  0  0  0  0  0  0
    6.2352  -14.5994   21.1078 O   0  0  0  0  0  0  0  0  0  0  0  0
    7.3268  -19.2870   28.4895 O   0  0  0  0  0  0  0  0  0  0  0  0
    7.4673  -18.7090   27.2356 C   0  0  0  0  0  0  0  0  0  0  0  0
    8.7231  -18.3512   26.8348 C   0  0  0  0  0  0  0  0  0  0  0  0
    8.9284  -17.7773   25.6115 C   0  0  0  0  0  0  0  0  0  0  0  0
    7.8858  -17.5287   24.7178 C   0  0  0  0  0  0  0  0  0  0  0  0
    8.2207  -16.9176   23.4371 C   0  0  0  0  0  0  0  0  0  0  0  0
    7.8737  -15.4555   23.3022 C   0  0  2  0  0  0  0  0  0  0  0  0
    8.2927  -14.8665   22.0770 N   0  0  0  0  0  0  0  0  0  0  0  0
    8.4757  -14.7167   24.4305 C   0  0  0  0  0  0  0  0  0  0  0  0
    9.7588  -14.6065   24.5114 O   0  0  0  0  0  0  0  0  0  0  0  0
    6.6408  -17.9001   25.1527 C   0  0  0  0  0  0  0  0  0  0  0  0
    6.4122  -18.4859   26.3957 C   0  0  0  0  0  0  0  0  0  0  0  0
    7.7329  -14.0952   25.4678 N   0  0  0  0  0  0  0  0  0  0  0  0
    6.2999  -14.0980   25.7291 C   0  0  0  0  0  0  0  0  0  0  0  0
    6.0654  -12.6757   26.2671 C   0  0  0  0  0  0  0  0  0  0  0  0
    7.2426  -12.5358   27.2038 C   0  0  0  0  0  0  0  0  0  0  0  0
    8.3412  -13.2693   26.5118 C   0  0  1  0  0  0  0  0  0  0  0  0
    8.9944  -14.1471   27.5251 C   0  0  0  0  0  0  0  0  0  0  0  0
    9.7334  -13.6123   28.3884 O   0  0  0  0  0  0  0  0  0  0  0  0
    8.8356  -15.5245   27.5732 O   0  0  0  0  0  0  0  0  0  0  0  0
  2  1  1  1
  2  3  1  0
  4 13  1  0
  4  2  1  0
  5  4  2  0
  6  7  1  0
  7 17  2  0
  8  9  2  0
  8  7  1  0
  9 10  1  0
 10 16  2  0
 10 11  1  0
 12 11  1  6
 12 13  1  0
 14 12  1  0
 15 14  2  0
 17 16  1  0
 18 14  1  0
 18 22  1  0
 19 20  1  0
 19 18  1  0
 20 21  1  0
 22 21  1  0
 23 25  1  0
 22 23  1  1
 24 23  2  0
M  END
$$$$
