AYP.pdb
     RDKit          3D

 25 26  0  0  1  0  0  0  0  0999 V2000
    7.2203  -19.9327   23.5854 C   0  0  0  0  0  0  0  0  0  0  0  0
    6.4062  -18.9027   24.3301 C   0  0  2  0  0  0  0  0  0  0  0  0
    5.0629  -19.3859   24.4799 N   0  0  0  0  0  0  0  0  0  0  0  0
    6.4631  -17.5732   23.6692 C   0  0  0  0  0  0  0  0  0  0  0  0
    5.5052  -17.2112   22.9652 O   0  0  0  0  0  0  0  0  0  0  0  0
    5.7839  -11.5697   27.9193 O   0  0  0  0  0  0  0  0  0  0  0  0
    6.5429  -12.3088   27.0229 C   0  0  0  0  0  0  0  0  0  0  0  0
    6.0411  -12.4993   25.7669 C   0  0  0  0  0  0  0  0  0  0  0  0
    6.7397  -13.2181   24.8377 C   0  0  0  0  0  0  0  0  0  0  0  0
    7.9832  -13.7880   25.1137 C   0  0  0  0  0  0  0  0  0  0  0  0
    8.6424  -14.5293   24.0452 C   0  0  0  0  0  0  0  0  0  0  0  0
    7.7536  -15.4512   23.2474 C   0  0  2  0  0  0  0  0  0  0  0  0
    7.5714  -16.7359   23.8306 N   0  0  0  0  0  0  0  0  0  0  0  0
    8.3210  -15.6058   21.8927 C   0  0  0  0  0  0  0  0  0  0  0  0
    8.7862  -16.7504   21.5203 O   0  0  0  0  0  0  0  0  0  0  0  0
    8.4554  -13.5768   26.3824 C   0  0  0  0  0  0  0  0  0  0  0  0
    7.7579  -12.8474   27.3425 C   0  0  0  0  0  0  0  0  0  0  0  0
    8.3977  -14.5630   20.9331 N   0  0  0  0  0  0  0  0  0  0  0  0
    7.9913  -13.1673   21.0274 C   0  0  0  0  0  0  0  0  0  0  0  0
    7.4686  -12.8850   19.6081 C   0  0  0  0  0  0  0  0  0  0  0  0
    8.5429  -13.5499   18.7794 C   0  0  0  0  0  0  0  0  0  0  0  0
    8.9228  -14.7494   19.5798 C   0  0  1  0  0  0  0  0  0  0  0  0
   10.4127  -14.7979   19.6249 C   0  0  0  0  0  0  0  0  0  0  0  0
   10.9912  -14.3752   20.6564 O   0  0  0  0  0  0  0  0  0  0  0  0
   11.2027  -15.2833   18.5930 O   0  0  0  0  0  0  0  0  0  0  0  0
  2  1  1  6
  2  3  1  0
  4 13  1  0
  4  2  1  0
  5  4  2  0
  6  7  1  0
  7 17  2  0
  8  9  2  0
  8  7  1  0
  9 10  1  0
 10 16  2  0
 10 11  1  0
 12 11  1  1
 12 13  1  0
 14 12  1  0
 15 14  2  0
 17 16  1  0
 18 14  1  0
 18 22  1  0
 19 20  1  0
 19 18  1  0
 20 21  1  0
 22 21  1  0
 23 25  1  0
 22 23  1  1
 24 23  2  0
M  END
$$$$
