AYP.pdb
     RDKit          3D

 25 26  0  0  1  0  0  0  0  0999 V2000
    6.7903  -14.9428   20.0159 C   0  0  0  0  0  0  0  0  0  0  0  0
    6.9980  -16.2701   20.7038 C   0  0  2  0  0  0  0  0  0  0  0  0
    5.9921  -17.1917   20.2576 N   0  0  0  0  0  0  0  0  0  0  0  0
    7.0231  -16.1259   22.1824 C   0  0  0  0  0  0  0  0  0  0  0  0
    5.9544  -16.2057   22.8116 O   0  0  0  0  0  0  0  0  0  0  0  0
   10.1086  -16.1587   30.4676 O   0  0  0  0  0  0  0  0  0  0  0  0
   10.0222  -16.1404   29.0826 C   0  0  0  0  0  0  0  0  0  0  0  0
    9.4609  -17.2209   28.4637 C   0  0  0  0  0  0  0  0  0  0  0  0
    9.3468  -17.2643   27.1025 C   0  0  0  0  0  0  0  0  0  0  0  0
    9.7889  -16.2260   26.2816 C   0  0  0  0  0  0  0  0  0  0  0  0
    9.6114  -16.3760   24.8422 C   0  0  0  0  0  0  0  0  0  0  0  0
    8.3801  -15.7218   24.2659 C   0  0  2  0  0  0  0  0  0  0  0  0
    8.2239  -15.9041   22.8637 N   0  0  0  0  0  0  0  0  0  0  0  0
    8.4220  -14.2769   24.5689 C   0  0  0  0  0  0  0  0  0  0  0  0
    9.2296  -13.5095   23.9177 O   0  0  0  0  0  0  0  0  0  0  0  0
   10.3462  -15.1591   26.9360 C   0  0  0  0  0  0  0  0  0  0  0  0
   10.4711  -15.0971   28.3220 C   0  0  0  0  0  0  0  0  0  0  0  0
    7.6179  -13.6411   25.5504 N   0  0  0  0  0  0  0  0  0  0  0  0
    6.6519  -14.2052   26.4834 C   0  0  0  0  0  0  0  0  0  0  0  0
    5.5738  -13.1088   26.5365 C   0  0  0  0  0  0  0  0  0  0  0  0
    6.4386  -11.8736   26.6326 C   0  0  0  0  0  0  0  0  0  0  0  0
    7.6207  -12.1960   25.7826 C   0  0  1  0  0  0  0  0  0  0  0  0
    8.8385  -11.8173   26.5556 C   0  0  0  0  0  0  0  0  0  0  0  0
    9.5151  -12.7323   27.0869 O   0  0  0  0  0  0  0  0  0  0  0  0
    9.2721  -10.5104   26.7251 O   0  0  0  0  0  0  0  0  0  0  0  0
  2  1  1  6
  2  3  1  0
  4 13  1  0
  4  2  1  0
  5  4  2  0
  6  7  1  0
  7 17  2  0
  8  9  2  0
  8  7  1  0
  9 10  1  0
 10 16  2  0
 10 11  1  0
 12 11  1  6
 12 13  1  0
 14 12  1  0
 15 14  2  0
 17 16  1  0
 18 14  1  0
 18 22  1  0
 19 20  1  0
 19 18  1  0
 20 21  1  0
 22 21  1  0
 23 25  1  0
 22 23  1  1
 24 23  2  0
M  END
$$$$
