AYP.pdb
     RDKit          3D

 25 26  0  0  1  0  0  0  0  0999 V2000
    6.4115  -20.3455   22.5664 C   0  0  0  0  0  0  0  0  0  0  0  0
    6.2571  -19.4582   23.7776 C   0  0  2  0  0  0  0  0  0  0  0  0
    5.0346  -19.7932   24.4511 N   0  0  0  0  0  0  0  0  0  0  0  0
    6.3338  -18.0184   23.4187 C   0  0  0  0  0  0  0  0  0  0  0  0
    5.3403  -17.4729   22.9092 O   0  0  0  0  0  0  0  0  0  0  0  0
    5.6408  -11.4152   27.4883 O   0  0  0  0  0  0  0  0  0  0  0  0
    6.3766  -12.2760   26.6859 C   0  0  0  0  0  0  0  0  0  0  0  0
    6.3156  -13.6127   26.9599 C   0  0  0  0  0  0  0  0  0  0  0  0
    7.0170  -14.5122   26.2072 C   0  0  0  0  0  0  0  0  0  0  0  0
    7.8211  -14.1239   25.1348 C   0  0  0  0  0  0  0  0  0  0  0  0
    8.5199  -15.1693   24.3968 C   0  0  0  0  0  0  0  0  0  0  0  0
    7.6964  -15.9003   23.3653 C   0  0  2  0  0  0  0  0  0  0  0  0
    7.4998  -17.2809   23.6466 N   0  0  0  0  0  0  0  0  0  0  0  0
    8.3478  -15.7582   22.0475 C   0  0  0  0  0  0  0  0  0  0  0  0
    9.0124  -16.7471   21.5521 O   0  0  0  0  0  0  0  0  0  0  0  0
    7.8586  -12.7765   24.8890 C   0  0  0  0  0  0  0  0  0  0  0  0
    7.1509  -11.8450   25.6452 C   0  0  0  0  0  0  0  0  0  0  0  0
    8.2995  -14.5831   21.2532 N   0  0  0  0  0  0  0  0  0  0  0  0
    7.6787  -13.2928   21.5207 C   0  0  0  0  0  0  0  0  0  0  0  0
    7.1744  -12.8802   20.1268 C   0  0  0  0  0  0  0  0  0  0  0  0
    8.3701  -13.2473   19.2792 C   0  0  0  0  0  0  0  0  0  0  0  0
    8.8996  -14.4844   19.9219 C   0  0  1  0  0  0  0  0  0  0  0  0
   10.3761  -14.3191   20.0511 C   0  0  0  0  0  0  0  0  0  0  0  0
   10.8391  -13.9476   21.1579 O   0  0  0  0  0  0  0  0  0  0  0  0
   11.2739  -14.5514   19.0193 O   0  0  0  0  0  0  0  0  0  0  0  0
  2  1  1  6
  2  3  1  0
  4 13  1  0
  4  2  1  0
  5  4  2  0
  6  7  1  0
  7 17  2  0
  8  9  2  0
  8  7  1  0
  9 10  1  0
 10 16  2  0
 10 11  1  0
 12 11  1  1
 12 13  1  0
 14 12  1  0
 15 14  2  0
 17 16  1  0
 18 14  1  0
 18 22  1  0
 19 20  1  0
 19 18  1  0
 20 21  1  0
 22 21  1  0
 23 25  1  0
 22 23  1  1
 24 23  2  0
M  END
$$$$
