AYP.pdb
     RDKit          3D

 25 26  0  0  1  0  0  0  0  0999 V2000
    3.6490  -20.1235   22.2685 C   0  0  0  0  0  0  0  0  0  0  0  0
    5.1396  -19.8868   22.2795 C   0  0  2  0  0  0  0  0  0  0  0  0
    5.7483  -20.7758   23.2280 N   0  0  0  0  0  0  0  0  0  0  0  0
    5.4689  -18.4618   22.5415 C   0  0  0  0  0  0  0  0  0  0  0  0
    5.0787  -17.5979   21.7380 O   0  0  0  0  0  0  0  0  0  0  0  0
    7.3509  -11.1616   27.1059 O   0  0  0  0  0  0  0  0  0  0  0  0
    7.2949  -12.4893   26.7055 C   0  0  0  0  0  0  0  0  0  0  0  0
    6.0661  -13.0802   26.6242 C   0  0  0  0  0  0  0  0  0  0  0  0
    5.9433  -14.3849   26.2364 C   0  0  0  0  0  0  0  0  0  0  0  0
    7.0461  -15.1740   25.9069 C   0  0  0  0  0  0  0  0  0  0  0  0
    6.7978  -16.5520   25.5003 C   0  0  0  0  0  0  0  0  0  0  0  0
    6.6096  -16.7705   24.0194 C   0  0  2  0  0  0  0  0  0  0  0  0
    6.2050  -18.0890   23.6704 N   0  0  0  0  0  0  0  0  0  0  0  0
    7.8728  -16.4475   23.3257 C   0  0  0  0  0  0  0  0  0  0  0  0
    8.8237  -17.3190   23.2887 O   0  0  0  0  0  0  0  0  0  0  0  0
    8.2618  -14.5490   25.9997 C   0  0  0  0  0  0  0  0  0  0  0  0
    8.4066  -13.2206   26.3931 C   0  0  0  0  0  0  0  0  0  0  0  0
    8.1349  -15.2152   22.6724 N   0  0  0  0  0  0  0  0  0  0  0  0
    7.3988  -13.9586   22.7058 C   0  0  0  0  0  0  0  0  0  0  0  0
    7.5655  -13.4466   21.2645 C   0  0  0  0  0  0  0  0  0  0  0  0
    9.0323  -13.7294   21.0375 C   0  0  0  0  0  0  0  0  0  0  0  0
    9.2700  -15.0048   21.7728 C   0  0  1  0  0  0  0  0  0  0  0  0
   10.5156  -14.8286   22.5738 C   0  0  0  0  0  0  0  0  0  0  0  0
   11.6075  -14.7260   21.9618 O   0  0  0  0  0  0  0  0  0  0  0  0
   10.5427  -14.7710   23.9596 O   0  0  0  0  0  0  0  0  0  0  0  0
  2  1  1  1
  2  3  1  0
  4 13  1  0
  4  2  1  0
  5  4  2  0
  6  7  1  0
  7 17  2  0
  8  9  2  0
  8  7  1  0
  9 10  1  0
 10 16  2  0
 10 11  1  0
 12 11  1  1
 12 13  1  0
 14 12  1  0
 15 14  2  0
 17 16  1  0
 18 14  1  0
 18 22  1  0
 19 20  1  0
 19 18  1  0
 20 21  1  0
 22 21  1  0
 23 25  1  0
 22 23  1  1
 24 23  2  0
M  END
$$$$
