AYP.pdb
     RDKit          3D

 25 26  0  0  1  0  0  0  0  0999 V2000
   12.0796  -18.6654   21.6128 C   0  0  0  0  0  0  0  0  0  0  0  0
   11.4152  -17.4034   21.1188 C   0  0  2  0  0  0  0  0  0  0  0  0
   12.2531  -16.7897   20.1280 N   0  0  0  0  0  0  0  0  0  0  0  0
   11.0850  -16.4814   22.2361 C   0  0  0  0  0  0  0  0  0  0  0  0
   11.9361  -15.6534   22.6028 O   0  0  0  0  0  0  0  0  0  0  0  0
    5.7571  -11.6819   27.5088 O   0  0  0  0  0  0  0  0  0  0  0  0
    6.3106  -12.5191   26.5502 C   0  0  0  0  0  0  0  0  0  0  0  0
    6.1116  -13.8637   26.6855 C   0  0  0  0  0  0  0  0  0  0  0  0
    6.6307  -14.7412   25.7753 C   0  0  0  0  0  0  0  0  0  0  0  0
    7.3799  -14.3216   24.6753 C   0  0  0  0  0  0  0  0  0  0  0  0
    7.8799  -15.3444   23.7645 C   0  0  0  0  0  0  0  0  0  0  0  0
    9.3562  -15.6398   23.8636 C   0  0  2  0  0  0  0  0  0  0  0  0
    9.8402  -16.5364   22.8709 N   0  0  0  0  0  0  0  0  0  0  0  0
    9.6427  -16.1928   25.2028 C   0  0  0  0  0  0  0  0  0  0  0  0
    9.7620  -17.4685   25.3563 O   0  0  0  0  0  0  0  0  0  0  0  0
    7.5593  -12.9672   24.5714 C   0  0  0  0  0  0  0  0  0  0  0  0
    7.0383  -12.0579   25.4890 C   0  0  0  0  0  0  0  0  0  0  0  0
    9.8047  -15.4089   26.3747 N   0  0  0  0  0  0  0  0  0  0  0  0
    9.3946  -14.0392   26.6533 C   0  0  0  0  0  0  0  0  0  0  0  0
   10.5507  -13.5264   27.5296 C   0  0  0  0  0  0  0  0  0  0  0  0
   10.7465  -14.7084   28.4503 C   0  0  0  0  0  0  0  0  0  0  0  0
   10.4837  -15.8896   27.5788 C   0  0  1  0  0  0  0  0  0  0  0  0
    9.5766  -16.8027   28.3323 C   0  0  0  0  0  0  0  0  0  0  0  0
    8.3897  -16.9206   27.9391 O   0  0  0  0  0  0  0  0  0  0  0  0
    9.9649  -17.5333   29.4460 O   0  0  0  0  0  0  0  0  0  0  0  0
  2  1  1  1
  2  3  1  0
  4 13  1  0
  4  2  1  0
  5  4  2  0
  6  7  1  0
  7 17  2  0
  8  9  2  0
  8  7  1  0
  9 10  1  0
 10 16  2  0
 10 11  1  0
 12 11  1  6
 12 13  1  0
 14 12  1  0
 15 14  2  0
 17 16  1  0
 18 14  1  0
 18 22  1  0
 19 20  1  0
 19 18  1  0
 20 21  1  0
 22 21  1  0
 23 25  1  0
 22 23  1  1
 24 23  2  0
M  END
$$$$
