CIV.pdb
     RDKit          3D

 22 21  0  0  1  0  0  0  0  0999 V2000
    5.6647  -16.2320   20.7304 N   0  0  0  0  0  0  0  0  0  0  0  0
    5.6320  -16.5592   22.1373 C   0  0  1  0  0  0  0  0  0  0  0  0
    5.7565  -18.0596   22.2758 C   0  0  0  0  0  0  0  0  0  0  0  0
    4.1626  -18.6616   22.9326 S   0  0  0  0  0  0  0  0  0  0  0  0
    6.6996  -15.8380   22.8506 C   0  0  0  0  0  0  0  0  0  0  0  0
    7.8286  -15.7385   22.3108 O   0  0  0  0  0  0  0  0  0  0  0  0
    5.8886  -11.8273   26.6615 C   0  0  0  0  0  0  0  0  0  0  0  0
    6.4320  -12.5814   25.4659 C   0  0  0  0  0  0  0  0  0  0  0  0
    7.1813  -13.7696   25.9745 C   0  0  2  0  0  0  0  0  0  0  0  0
    8.3668  -13.2961   26.7857 C   0  0  0  0  0  0  0  0  0  0  0  0
    7.6514  -14.6891   24.8699 C   0  0  2  0  0  0  0  0  0  0  0  0
    6.5388  -15.2398   24.1226 N   0  0  0  0  0  0  0  0  0  0  0  0
    8.5248  -15.7770   25.4090 C   0  0  0  0  0  0  0  0  0  0  0  0
    8.0556  -16.6451   26.1918 O   0  0  0  0  0  0  0  0  0  0  0  0
   11.4612  -17.1768   22.8974 C   0  0  0  0  0  0  0  0  0  0  0  0
   11.8629  -17.0860   24.3482 C   0  0  2  0  0  0  0  0  0  0  0  0
   12.7502  -18.2767   24.6428 C   0  0  0  0  0  0  0  0  0  0  0  0
   10.6770  -17.0664   25.2762 C   0  0  2  0  0  0  0  0  0  0  0  0
    9.8962  -15.8723   25.0650 N   0  0  0  0  0  0  0  0  0  0  0  0
   11.1744  -17.1772   26.6662 C   0  0  0  0  0  0  0  0  0  0  0  0
   11.0694  -16.0503   27.4702 O   0  0  0  0  0  0  0  0  0  0  0  0
   11.6756  -18.2305   27.1307 O   0  0  0  0  0  0  0  0  0  0  0  0
  2  1  1  6
  2  5  1  0
  3  2  1  0
  4  3  1  0
  5 12  1  0
  5  6  2  0
  7  8  1  0
  8  9  1  0
  9 10  1  6
 11  9  1  0
 11 13  1  0
 11 12  1  1
 13 14  2  0
 16 15  1  6
 16 17  1  0
 16 18  1  0
 18 20  1  0
 18 19  1  1
 19 13  1  0
 20 21  1  0
 22 20  2  0
M  END
$$$$
