CIV.pdb
     RDKit          3D

 22 21  0  0  1  0  0  0  0  0999 V2000
    8.6362  -15.3348   19.8578 N   0  0  0  0  0  0  0  0  0  0  0  0
    7.7809  -15.6902   20.9668 C   0  0  1  0  0  0  0  0  0  0  0  0
    7.5685  -17.1868   20.9380 C   0  0  0  0  0  0  0  0  0  0  0  0
    6.1536  -17.4963   19.8259 S   0  0  0  0  0  0  0  0  0  0  0  0
    8.3755  -15.2307   22.2333 C   0  0  0  0  0  0  0  0  0  0  0  0
    9.6240  -15.2589   22.3617 O   0  0  0  0  0  0  0  0  0  0  0  0
    7.7130  -11.7251   27.0505 C   0  0  0  0  0  0  0  0  0  0  0  0
    7.9153  -13.2001   26.7726 C   0  0  0  0  0  0  0  0  0  0  0  0
    7.3573  -13.4927   25.4180 C   0  0  2  0  0  0  0  0  0  0  0  0
    5.9800  -14.0987   25.5713 C   0  0  0  0  0  0  0  0  0  0  0  0
    8.2353  -14.4164   24.6041 C   0  0  2  0  0  0  0  0  0  0  0  0
    7.6254  -14.7519   23.3332 N   0  0  0  0  0  0  0  0  0  0  0  0
    8.5797  -15.6509   25.3750 C   0  0  0  0  0  0  0  0  0  0  0  0
    7.6911  -16.4981   25.6562 O   0  0  0  0  0  0  0  0  0  0  0  0
   11.7968  -17.7157   24.5005 C   0  0  0  0  0  0  0  0  0  0  0  0
   11.6839  -17.5390   25.9940 C   0  0  2  0  0  0  0  0  0  0  0  0
   12.1008  -18.8467   26.6326 C   0  0  0  0  0  0  0  0  0  0  0  0
   10.2931  -17.1573   26.4274 C   0  0  2  0  0  0  0  0  0  0  0  0
    9.9017  -15.9124   25.8133 N   0  0  0  0  0  0  0  0  0  0  0  0
   10.2708  -17.0890   27.9061 C   0  0  0  0  0  0  0  0  0  0  0  0
   10.1483  -15.8319   28.4822 O   0  0  0  0  0  0  0  0  0  0  0  0
   10.3569  -18.1052   28.6385 O   0  0  0  0  0  0  0  0  0  0  0  0
  2  1  1  6
  2  5  1  0
  3  2  1  0
  4  3  1  0
  5 12  1  0
  5  6  2  0
  7  8  1  0
  8  9  1  0
  9 10  1  1
 11  9  1  0
 11 13  1  0
 11 12  1  6
 13 14  2  0
 16 15  1  6
 16 17  1  0
 16 18  1  0
 18 20  1  0
 18 19  1  6
 19 13  1  0
 20 21  1  0
 22 20  2  0
M  END
$$$$
