CIV.pdb
     RDKit          3D

 22 21  0  0  1  0  0  0  0  0999 V2000
    8.5602  -15.0498   20.1945 N   0  0  0  0  0  0  0  0  0  0  0  0
    7.6799  -15.3997   21.2854 C   0  0  1  0  0  0  0  0  0  0  0  0
    7.3947  -16.8824   21.2045 C   0  0  0  0  0  0  0  0  0  0  0  0
    6.2396  -17.1208   19.8105 S   0  0  0  0  0  0  0  0  0  0  0  0
    8.2862  -15.0128   22.5705 C   0  0  0  0  0  0  0  0  0  0  0  0
    9.5365  -14.9335   22.6508 O   0  0  0  0  0  0  0  0  0  0  0  0
    6.0151  -11.5506   26.1583 C   0  0  0  0  0  0  0  0  0  0  0  0
    6.9538  -12.2960   25.2326 C   0  0  0  0  0  0  0  0  0  0  0  0
    7.3314  -13.5792   25.8979 C   0  0  2  0  0  0  0  0  0  0  0  0
    8.0716  -13.2718   27.1806 C   0  0  0  0  0  0  0  0  0  0  0  0
    8.1780  -14.4732   25.0201 C   0  0  2  0  0  0  0  0  0  0  0  0
    7.5457  -14.7196   23.7398 N   0  0  0  0  0  0  0  0  0  0  0  0
    8.5023  -15.7584   25.7129 C   0  0  0  0  0  0  0  0  0  0  0  0
    7.5820  -16.5038   26.1418 O   0  0  0  0  0  0  0  0  0  0  0  0
   12.5991  -17.1749   25.8777 C   0  0  0  0  0  0  0  0  0  0  0  0
   11.3742  -18.0472   25.7614 C   0  0  2  0  0  0  0  0  0  0  0  0
   11.0835  -18.2168   24.2854 C   0  0  0  0  0  0  0  0  0  0  0  0
   10.1812  -17.4661   26.4731 C   0  0  2  0  0  0  0  0  0  0  0  0
    9.8399  -16.1823   25.9114 N   0  0  0  0  0  0  0  0  0  0  0  0
   10.4974  -17.3844   27.9171 C   0  0  0  0  0  0  0  0  0  0  0  0
   10.7139  -18.5799   28.5887 O   0  0  0  0  0  0  0  0  0  0  0  0
   10.5744  -16.2964   28.5393 O   0  0  0  0  0  0  0  0  0  0  0  0
  2  1  1  6
  2  5  1  0
  3  2  1  0
  4  3  1  0
  5 12  1  0
  5  6  2  0
  7  8  1  0
  8  9  1  0
  9 10  1  1
 11  9  1  0
 11 13  1  0
 11 12  1  6
 13 14  2  0
 16 15  1  6
 16 17  1  0
 16 18  1  0
 18 20  1  0
 18 19  1  6
 19 13  1  0
 20 21  1  0
 22 20  2  0
M  END
$$$$
