CIV.pdb
     RDKit          3D

 22 21  0  0  1  0  0  0  0  0999 V2000
    7.5578  -15.0784   19.8162 N   0  0  0  0  0  0  0  0  0  0  0  0
    6.8139  -15.0103   21.0529 C   0  0  1  0  0  0  0  0  0  0  0  0
    5.9557  -16.2508   21.1562 C   0  0  0  0  0  0  0  0  0  0  0  0
    7.0938  -17.6787   21.1675 S   0  0  0  0  0  0  0  0  0  0  0  0
    7.7360  -14.8677   22.1923 C   0  0  0  0  0  0  0  0  0  0  0  0
    8.9550  -15.1124   22.0192 O   0  0  0  0  0  0  0  0  0  0  0  0
    6.2473  -12.4716   27.2151 C   0  0  0  0  0  0  0  0  0  0  0  0
    6.5002  -13.5301   26.1619 C   0  0  0  0  0  0  0  0  0  0  0  0
    7.8466  -13.2736   25.5674 C   0  0  2  0  0  0  0  0  0  0  0  0
    7.8351  -11.9260   24.8808 C   0  0  0  0  0  0  0  0  0  0  0  0
    8.2737  -14.3436   24.5880 C   0  0  2  0  0  0  0  0  0  0  0  0
    7.3370  -14.4677   23.4894 N   0  0  0  0  0  0  0  0  0  0  0  0
    8.4691  -15.6572   25.2758 C   0  0  0  0  0  0  0  0  0  0  0  0
    7.4768  -16.3439   25.6370 O   0  0  0  0  0  0  0  0  0  0  0  0
   12.4034  -17.5038   25.5075 C   0  0  0  0  0  0  0  0  0  0  0  0
   11.0709  -18.2044   25.4184 C   0  0  2  0  0  0  0  0  0  0  0  0
   10.7330  -18.3393   23.9489 C   0  0  0  0  0  0  0  0  0  0  0  0
    9.9797  -17.4658   26.1474 C   0  0  2  0  0  0  0  0  0  0  0  0
    9.7609  -16.1739   25.5445 N   0  0  0  0  0  0  0  0  0  0  0  0
   10.3612  -17.3656   27.5743 C   0  0  0  0  0  0  0  0  0  0  0  0
   10.3601  -18.5390   28.3162 O   0  0  0  0  0  0  0  0  0  0  0  0
   10.6779  -16.2812   28.1224 O   0  0  0  0  0  0  0  0  0  0  0  0
  2  1  1  6
  2  5  1  0
  3  2  1  0
  4  3  1  0
  5 12  1  0
  5  6  2  0
  7  8  1  0
  8  9  1  0
  9 10  1  6
 11  9  1  0
 11 13  1  0
 11 12  1  6
 13 14  2  0
 16 15  1  6
 16 17  1  0
 16 18  1  0
 18 20  1  0
 18 19  1  6
 19 13  1  0
 20 21  1  0
 22 20  2  0
M  END
$$$$
