CIV.pdb
     RDKit          3D

 22 21  0  0  1  0  0  0  0  0999 V2000
    7.9701  -14.4625   20.0755 N   0  0  0  0  0  0  0  0  0  0  0  0
    7.2029  -15.0284   21.1611 C   0  0  1  0  0  0  0  0  0  0  0  0
    6.9267  -16.4793   20.8376 C   0  0  0  0  0  0  0  0  0  0  0  0
    5.9714  -17.1582   22.2379 S   0  0  0  0  0  0  0  0  0  0  0  0
    7.9263  -14.8636   22.4333 C   0  0  0  0  0  0  0  0  0  0  0  0
    9.1766  -14.9757   22.4379 O   0  0  0  0  0  0  0  0  0  0  0  0
    6.1027  -11.4731   26.3381 C   0  0  0  0  0  0  0  0  0  0  0  0
    6.9333  -12.2084   25.3072 C   0  0  0  0  0  0  0  0  0  0  0  0
    7.3138  -13.5329   25.8842 C   0  0  2  0  0  0  0  0  0  0  0  0
    8.1709  -13.3100   27.1103 C   0  0  0  0  0  0  0  0  0  0  0  0
    8.0470  -14.4173   24.9009 C   0  0  2  0  0  0  0  0  0  0  0  0
    7.3000  -14.5832   23.6705 N   0  0  0  0  0  0  0  0  0  0  0  0
    8.3766  -15.7430   25.5099 C   0  0  0  0  0  0  0  0  0  0  0  0
    7.4691  -16.4628   26.0050 O   0  0  0  0  0  0  0  0  0  0  0  0
   12.4645  -17.2796   25.4702 C   0  0  0  0  0  0  0  0  0  0  0  0
   11.2157  -18.1075   25.2983 C   0  0  2  0  0  0  0  0  0  0  0  0
   10.9172  -18.1653   23.8152 C   0  0  0  0  0  0  0  0  0  0  0  0
   10.0408  -17.5450   26.0538 C   0  0  2  0  0  0  0  0  0  0  0  0
    9.7049  -16.2347   25.5531 N   0  0  0  0  0  0  0  0  0  0  0  0
   10.3810  -17.5287   27.4945 C   0  0  0  0  0  0  0  0  0  0  0  0
   10.5515  -18.7558   28.1210 O   0  0  0  0  0  0  0  0  0  0  0  0
   10.5170  -16.4680   28.1525 O   0  0  0  0  0  0  0  0  0  0  0  0
  2  1  1  6
  2  5  1  0
  3  2  1  0
  4  3  1  0
  5 12  1  0
  5  6  2  0
  7  8  1  0
  8  9  1  0
  9 10  1  1
 11  9  1  0
 11 13  1  0
 11 12  1  6
 13 14  2  0
 16 15  1  6
 16 17  1  0
 16 18  1  0
 18 20  1  0
 18 19  1  6
 19 13  1  0
 20 21  1  0
 22 20  2  0
M  END
$$$$
