CIV.pdb
     RDKit          3D

 22 21  0  0  1  0  0  0  0  0999 V2000
    8.9101  -15.8517   20.3148 N   0  0  0  0  0  0  0  0  0  0  0  0
    8.0817  -16.2044   21.4448 C   0  0  1  0  0  0  0  0  0  0  0  0
    8.0674  -17.7113   21.5672 C   0  0  0  0  0  0  0  0  0  0  0  0
    6.5531  -18.2931   20.7288 S   0  0  0  0  0  0  0  0  0  0  0  0
    8.5799  -15.5456   22.6641 C   0  0  0  0  0  0  0  0  0  0  0  0
    9.8165  -15.5252   22.8793 O   0  0  0  0  0  0  0  0  0  0  0  0
    6.8124  -11.5570   27.0316 C   0  0  0  0  0  0  0  0  0  0  0  0
    7.8442  -12.5741   26.5910 C   0  0  0  0  0  0  0  0  0  0  0  0
    7.3105  -13.2768   25.3855 C   0  0  2  0  0  0  0  0  0  0  0  0
    6.0057  -13.9524   25.7446 C   0  0  0  0  0  0  0  0  0  0  0  0
    8.2749  -14.2945   24.8193 C   0  0  2  0  0  0  0  0  0  0  0  0
    7.7483  -14.9241   23.6252 N   0  0  0  0  0  0  0  0  0  0  0  0
    8.6432  -15.3179   25.8460 C   0  0  0  0  0  0  0  0  0  0  0  0
    7.7901  -16.1497   26.2546 O   0  0  0  0  0  0  0  0  0  0  0  0
   12.7846  -15.8258   27.1263 C   0  0  0  0  0  0  0  0  0  0  0  0
   11.7418  -16.9055   26.9802 C   0  0  2  0  0  0  0  0  0  0  0  0
   11.8018  -17.3957   25.5491 C   0  0  0  0  0  0  0  0  0  0  0  0
   10.3564  -16.4203   27.3164 C   0  0  2  0  0  0  0  0  0  0  0  0
    9.9488  -15.3909   26.3920 N   0  0  0  0  0  0  0  0  0  0  0  0
   10.3580  -15.9500   28.7202 C   0  0  0  0  0  0  0  0  0  0  0  0
   10.0847  -14.6069   28.9406 O   0  0  0  0  0  0  0  0  0  0  0  0
   10.5926  -16.7070   29.6941 O   0  0  0  0  0  0  0  0  0  0  0  0
  2  1  1  6
  2  5  1  0
  3  2  1  0
  4  3  1  0
  5 12  1  0
  5  6  2  0
  7  8  1  0
  8  9  1  0
  9 10  1  1
 11  9  1  0
 11 13  1  0
 11 12  1  6
 13 14  2  0
 16 15  1  6
 16 17  1  0
 16 18  1  0
 18 20  1  0
 18 19  1  6
 19 13  1  0
 20 21  1  0
 22 20  2  0
M  END
$$$$
