CIV.pdb
     RDKit          3D

 22 21  0  0  1  0  0  0  0  0999 V2000
    8.8132  -15.9210   20.2448 N   0  0  0  0  0  0  0  0  0  0  0  0
    7.9504  -16.1667   21.3773 C   0  0  1  0  0  0  0  0  0  0  0  0
    7.8795  -17.6603   21.6011 C   0  0  0  0  0  0  0  0  0  0  0  0
    6.5237  -18.2862   20.5502 S   0  0  0  0  0  0  0  0  0  0  0  0
    8.4476  -15.4436   22.5600 C   0  0  0  0  0  0  0  0  0  0  0  0
    9.6847  -15.2758   22.6915 O   0  0  0  0  0  0  0  0  0  0  0  0
    6.6392  -11.5987   27.0195 C   0  0  0  0  0  0  0  0  0  0  0  0
    7.6971  -12.5741   26.5474 C   0  0  0  0  0  0  0  0  0  0  0  0
    7.1816  -13.2518   25.3198 C   0  0  2  0  0  0  0  0  0  0  0  0
    5.8589  -13.9125   25.6385 C   0  0  0  0  0  0  0  0  0  0  0  0
    8.1440  -14.2759   24.7617 C   0  0  2  0  0  0  0  0  0  0  0  0
    7.6145  -14.9164   23.5747 N   0  0  0  0  0  0  0  0  0  0  0  0
    8.5130  -15.2897   25.7976 C   0  0  0  0  0  0  0  0  0  0  0  0
    7.6947  -16.1855   26.1359 O   0  0  0  0  0  0  0  0  0  0  0  0
   12.6171  -15.6201   27.1698 C   0  0  0  0  0  0  0  0  0  0  0  0
   11.6246  -16.7426   26.9983 C   0  0  2  0  0  0  0  0  0  0  0  0
   11.7194  -17.2088   25.5611 C   0  0  0  0  0  0  0  0  0  0  0  0
   10.2161  -16.3242   27.3278 C   0  0  2  0  0  0  0  0  0  0  0  0
    9.7809  -15.2822   26.4305 N   0  0  0  0  0  0  0  0  0  0  0  0
   10.1783  -15.9002   28.7458 C   0  0  0  0  0  0  0  0  0  0  0  0
   10.4702  -16.8611   29.7042 O   0  0  0  0  0  0  0  0  0  0  0  0
    9.8979  -14.7292   29.1016 O   0  0  0  0  0  0  0  0  0  0  0  0
  2  1  1  6
  2  5  1  0
  3  2  1  0
  4  3  1  0
  5 12  1  0
  5  6  2  0
  7  8  1  0
  8  9  1  0
  9 10  1  1
 11  9  1  0
 11 13  1  0
 11 12  1  6
 13 14  2  0
 16 15  1  6
 16 17  1  0
 16 18  1  0
 18 20  1  0
 18 19  1  6
 19 13  1  0
 20 21  1  0
 22 20  2  0
M  END
$$$$
