AYI.pdb
     RDKit          3D

 26 26  0  0  1  0  0  0  0  0999 V2000
   32.6480  -21.9952  -20.4215 C   0  0  0  0  0  0  0  0  0  0  0  0
   33.0656  -23.3645  -19.9140 C   0  0  2  0  0  0  0  0  0  0  0  0
   33.4647  -24.2182  -20.9987 N   0  0  0  0  0  0  0  0  0  0  0  0
   31.9377  -23.9579  -19.1085 C   0  0  0  0  0  0  0  0  0  0  0  0
   30.9883  -24.4564  -19.7648 O   0  0  0  0  0  0  0  0  0  0  0  0
   33.3041  -30.3569  -18.0871 O   0  0  0  0  0  0  0  0  0  0  0  0
   32.7886  -29.1647  -17.5590 C   0  0  0  0  0  0  0  0  0  0  0  0
   31.4299  -28.9636  -17.4407 C   0  0  0  0  0  0  0  0  0  0  0  0
   30.9664  -27.7603  -16.9087 C   0  0  0  0  0  0  0  0  0  0  0  0
   31.8259  -26.7698  -16.4999 C   0  0  0  0  0  0  0  0  0  0  0  0
   31.3156  -25.5246  -15.9501 C   0  0  0  0  0  0  0  0  0  0  0  0
   30.8693  -24.4847  -16.9156 C   0  0  2  0  0  0  0  0  0  0  0  0
   31.9550  -23.9512  -17.6988 N   0  0  0  0  0  0  0  0  0  0  0  0
   30.0317  -23.4117  -16.3870 C   0  0  0  0  0  0  0  0  0  0  0  0
   30.3492  -22.8401  -15.2922 O   0  0  0  0  0  0  0  0  0  0  0  0
   33.1874  -26.9604  -16.6134 C   0  0  0  0  0  0  0  0  0  0  0  0
   33.6431  -28.1653  -17.1458 C   0  0  0  0  0  0  0  0  0  0  0  0
   28.1673  -18.0038  -16.9629 C   0  0  0  0  0  0  0  0  0  0  0  0
   27.7413  -19.3393  -16.4276 C   0  0  0  0  0  0  0  0  0  0  0  0
   28.5007  -20.4811  -17.0801 C   0  0  2  0  0  0  0  0  0  0  0  0
   28.0661  -20.5291  -18.5311 C   0  0  0  0  0  0  0  0  0  0  0  0
   28.1017  -21.7944  -16.4371 C   0  0  2  0  0  0  0  0  0  0  0  0
   28.8414  -22.9060  -16.9883 N   0  0  0  0  0  0  0  0  0  0  0  0
   26.6405  -21.9443  -16.5088 C   0  0  0  0  0  0  0  0  0  0  0  0
   25.7687  -21.3447  -15.6143 O   0  0  0  0  0  0  0  0  0  0  0  0
   26.1360  -22.6466  -17.4173 O   0  0  0  0  0  0  0  0  0  0  0  0
  2  3  1  0
  2  1  1  6
  4  2  1  0
  5  4  2  0
  7  6  1  0
  7  8  2  0
  9  8  1  0
 10  9  2  0
 11 10  1  0
 12 11  1  1
 12 13  1  0
 13  4  1  0
 14 23  1  0
 14 12  1  0
 15 14  2  0
 16 17  2  0
 16 10  1  0
 17  7  1  0
 18 19  1  0
 19 20  1  0
 20 22  1  0
 20 21  1  6
 22 23  1  6
 24 25  1  0
 24 22  1  0
 26 24  2  0
M  END
$$$$
