AYI.pdb
     RDKit          3D

 26 26  0  0  1  0  0  0  0  0999 V2000
   26.7789  -20.8360  -17.8525 C   0  0  0  0  0  0  0  0  0  0  0  0
   27.3915  -21.8802  -16.9352 C   0  0  2  0  0  0  0  0  0  0  0  0
   27.3973  -23.1753  -17.5575 N   0  0  0  0  0  0  0  0  0  0  0  0
   26.6480  -21.8826  -15.6236 C   0  0  0  0  0  0  0  0  0  0  0  0
   25.6029  -22.5799  -15.5784 O   0  0  0  0  0  0  0  0  0  0  0  0
   24.8344  -20.2347   -7.0502 O   0  0  0  0  0  0  0  0  0  0  0  0
   25.4379  -20.3191   -8.3130 C   0  0  0  0  0  0  0  0  0  0  0  0
   25.7546  -19.1860   -9.0314 C   0  0  0  0  0  0  0  0  0  0  0  0
   26.3545  -19.3225  -10.2834 C   0  0  0  0  0  0  0  0  0  0  0  0
   26.6378  -20.5546  -10.8207 C   0  0  0  0  0  0  0  0  0  0  0  0
   27.2623  -20.6681  -12.1285 C   0  0  0  0  0  0  0  0  0  0  0  0
   26.4105  -21.1412  -13.2526 C   0  0  2  0  0  0  0  0  0  0  0  0
   27.1064  -21.1428  -14.5145 N   0  0  0  0  0  0  0  0  0  0  0  0
   25.0932  -20.5253  -13.3848 C   0  0  0  0  0  0  0  0  0  0  0  0
   24.9905  -19.3397  -13.8429 O   0  0  0  0  0  0  0  0  0  0  0  0
   26.3255  -21.6951  -10.1104 C   0  0  0  0  0  0  0  0  0  0  0  0
   25.7264  -21.5508   -8.8602 C   0  0  0  0  0  0  0  0  0  0  0  0
   22.0181  -21.1003  -16.9142 C   0  0  0  0  0  0  0  0  0  0  0  0
   22.6504  -20.5622  -15.6643 C   0  0  0  0  0  0  0  0  0  0  0  0
   21.8383  -20.9000  -14.4263 C   0  0  2  0  0  0  0  0  0  0  0  0
   20.5540  -20.0999  -14.5080 C   0  0  0  0  0  0  0  0  0  0  0  0
   22.5837  -20.4478  -13.1864 C   0  0  2  0  0  0  0  0  0  0  0  0
   23.8480  -21.1315  -13.0436 N   0  0  0  0  0  0  0  0  0  0  0  0
   21.6968  -20.5647  -12.0190 C   0  0  0  0  0  0  0  0  0  0  0  0
   20.9985  -19.4948  -11.4832 O   0  0  0  0  0  0  0  0  0  0  0  0
   21.5510  -21.6799  -11.4641 O   0  0  0  0  0  0  0  0  0  0  0  0
  2  3  1  0
  2  1  1  6
  4  2  1  0
  5  4  2  0
  7  6  1  0
  7  8  2  0
  9  8  1  0
 10  9  2  0
 11 10  1  0
 12 11  1  1
 12 13  1  0
 13  4  1  0
 14 23  1  0
 14 12  1  0
 15 14  2  0
 16 17  2  0
 16 10  1  0
 17  7  1  0
 18 19  1  0
 19 20  1  0
 20 22  1  0
 20 21  1  6
 22 23  1  1
 24 25  1  0
 24 22  1  0
 26 24  2  0
M  END
$$$$
