AYI.pdb
     RDKit          3D

 26 26  0  0  1  0  0  0  0  0999 V2000
   26.5913  -20.7458  -17.5284 C   0  0  0  0  0  0  0  0  0  0  0  0
   27.4659  -21.0268  -16.3189 C   0  0  2  0  0  0  0  0  0  0  0  0
   28.3653  -22.1180  -16.5737 N   0  0  0  0  0  0  0  0  0  0  0  0
   26.5858  -21.2827  -15.1217 C   0  0  0  0  0  0  0  0  0  0  0  0
   26.1633  -22.4588  -14.9838 O   0  0  0  0  0  0  0  0  0  0  0  0
   31.1460  -21.8897  -10.2402 O   0  0  0  0  0  0  0  0  0  0  0  0
   29.8819  -21.4092  -10.6105 C   0  0  0  0  0  0  0  0  0  0  0  0
   28.7561  -21.7198   -9.8780 C   0  0  0  0  0  0  0  0  0  0  0  0
   27.5209  -21.2170  -10.2871 C   0  0  0  0  0  0  0  0  0  0  0  0
   27.3949  -20.4215  -11.3998 C   0  0  0  0  0  0  0  0  0  0  0  0
   26.0950  -19.9120  -11.8045 C   0  0  0  0  0  0  0  0  0  0  0  0
   25.4812  -20.5006  -13.0251 C   0  0  2  0  0  0  0  0  0  0  0  0
   26.2607  -20.2558  -14.2122 N   0  0  0  0  0  0  0  0  0  0  0  0
   24.0699  -20.2080  -13.2589 C   0  0  0  0  0  0  0  0  0  0  0  0
   23.7188  -19.0437  -13.6428 O   0  0  0  0  0  0  0  0  0  0  0  0
   28.5148  -20.1041  -12.1401 C   0  0  0  0  0  0  0  0  0  0  0  0
   29.7455  -20.6101  -11.7251 C   0  0  0  0  0  0  0  0  0  0  0  0
   21.1419  -21.9934  -16.8338 C   0  0  0  0  0  0  0  0  0  0  0  0
   21.7010  -21.2076  -15.6843 C   0  0  0  0  0  0  0  0  0  0  0  0
   20.9370  -21.4629  -14.3969 C   0  0  2  0  0  0  0  0  0  0  0  0
   19.5548  -20.8685  -14.5776 C   0  0  0  0  0  0  0  0  0  0  0  0
   21.6062  -20.7305  -13.2510 C   0  0  2  0  0  0  0  0  0  0  0  0
   22.9879  -21.1234  -13.0996 N   0  0  0  0  0  0  0  0  0  0  0  0
   20.7946  -20.8899  -12.0349 C   0  0  0  0  0  0  0  0  0  0  0  0
   19.9206  -19.9206  -11.5703 O   0  0  0  0  0  0  0  0  0  0  0  0
   20.8828  -21.9488  -11.3686 O   0  0  0  0  0  0  0  0  0  0  0  0
  2  3  1  0
  2  1  1  6
  4  2  1  0
  5  4  2  0
  7  6  1  0
  7  8  2  0
  9  8  1  0
 10  9  2  0
 11 10  1  0
 12 11  1  1
 12 13  1  0
 13  4  1  0
 14 23  1  0
 14 12  1  0
 15 14  2  0
 16 17  2  0
 16 10  1  0
 17  7  1  0
 18 19  1  0
 19 20  1  0
 20 22  1  0
 20 21  1  6
 22 23  1  1
 24 25  1  0
 24 22  1  0
 26 24  2  0
M  END
$$$$
