AYI.pdb
     RDKit          3D

 26 26  0  0  1  0  0  0  0  0999 V2000
   17.6938  -20.1090    3.9917 C   0  0  0  0  0  0  0  0  0  0  0  0
   16.3589  -19.4154    3.7825 C   0  0  2  0  0  0  0  0  0  0  0  0
   15.9255  -19.5296    2.4172 N   0  0  0  0  0  0  0  0  0  0  0  0
   16.4741  -17.9785    4.2244 C   0  0  0  0  0  0  0  0  0  0  0  0
   16.8168  -17.1514    3.3418 O   0  0  0  0  0  0  0  0  0  0  0  0
   10.2199  -14.8664    3.8626 O   0  0  0  0  0  0  0  0  0  0  0  0
   11.3921  -15.1361    4.5830 C   0  0  0  0  0  0  0  0  0  0  0  0
   11.6039  -16.3652    5.1702 C   0  0  0  0  0  0  0  0  0  0  0  0
   12.7867  -16.5846    5.8763 C   0  0  0  0  0  0  0  0  0  0  0  0
   13.7462  -15.6099    6.0035 C   0  0  0  0  0  0  0  0  0  0  0  0
   14.9694  -15.8650    6.7463 C   0  0  0  0  0  0  0  0  0  0  0  0
   16.1850  -16.2102    5.9613 C   0  0  2  0  0  0  0  0  0  0  0  0
   16.2093  -17.5923    5.5541 N   0  0  0  0  0  0  0  0  0  0  0  0
   17.4701  -15.8113    6.5283 C   0  0  0  0  0  0  0  0  0  0  0  0
   18.1924  -16.6727    7.1305 O   0  0  0  0  0  0  0  0  0  0  0  0
   13.5449  -14.3763    5.4198 C   0  0  0  0  0  0  0  0  0  0  0  0
   12.3607  -14.1645    4.7158 C   0  0  0  0  0  0  0  0  0  0  0  0
   20.3769  -11.4833    4.6750 C   0  0  0  0  0  0  0  0  0  0  0  0
   19.9189  -12.8137    5.1964 C   0  0  0  0  0  0  0  0  0  0  0  0
   19.8026  -12.8207    6.7105 C   0  0  2  0  0  0  0  0  0  0  0  0
   21.2073  -12.6845    7.2626 C   0  0  0  0  0  0  0  0  0  0  0  0
   19.2533  -14.1547    7.1754 C   0  0  2  0  0  0  0  0  0  0  0  0
   18.0359  -14.5030    6.4804 N   0  0  0  0  0  0  0  0  0  0  0  0
   19.1321  -14.1441    8.6410 C   0  0  0  0  0  0  0  0  0  0  0  0
   20.1362  -14.5780    9.4913 O   0  0  0  0  0  0  0  0  0  0  0  0
   18.0745  -13.7257    9.1697 O   0  0  0  0  0  0  0  0  0  0  0  0
  2  3  1  0
  2  1  1  6
  4  2  1  0
  5  4  2  0
  7  6  1  0
  7  8  2  0
  9  8  1  0
 10  9  2  0
 11 10  1  0
 12 11  1  1
 12 13  1  0
 13  4  1  0
 14 23  1  0
 14 12  1  0
 15 14  2  0
 16 17  2  0
 16 10  1  0
 17  7  1  0
 18 19  1  0
 19 20  1  0
 20 22  1  0
 20 21  1  1
 22 23  1  6
 24 25  1  0
 24 22  1  0
 26 24  2  0
M  END
$$$$
