AYI.pdb
     RDKit          3D

 26 26  0  0  1  0  0  0  0  0999 V2000
   24.5831  -24.1745  -17.0829 C   0  0  0  0  0  0  0  0  0  0  0  0
   26.0732  -24.3525  -17.3170 C   0  0  2  0  0  0  0  0  0  0  0  0
   26.5314  -23.5152  -18.3911 N   0  0  0  0  0  0  0  0  0  0  0  0
   26.3629  -25.8105  -17.5691 C   0  0  0  0  0  0  0  0  0  0  0  0
   26.1053  -26.2369  -18.7233 O   0  0  0  0  0  0  0  0  0  0  0  0
   30.0174  -33.8333  -17.0665 O   0  0  0  0  0  0  0  0  0  0  0  0
   29.6485  -32.4932  -16.8828 C   0  0  0  0  0  0  0  0  0  0  0  0
   29.1527  -32.0469  -15.6764 C   0  0  0  0  0  0  0  0  0  0  0  0
   28.8000  -30.7038  -15.5433 C   0  0  0  0  0  0  0  0  0  0  0  0
   28.9324  -29.8136  -16.5810 C   0  0  0  0  0  0  0  0  0  0  0  0
   28.5559  -28.4193  -16.4153 C   0  0  0  0  0  0  0  0  0  0  0  0
   27.1659  -28.0394  -16.7849 C   0  0  2  0  0  0  0  0  0  0  0  0
   26.8941  -26.6418  -16.5620 N   0  0  0  0  0  0  0  0  0  0  0  0
   26.0917  -28.8710  -16.2495 C   0  0  0  0  0  0  0  0  0  0  0  0
   25.7094  -28.7141  -15.0431 O   0  0  0  0  0  0  0  0  0  0  0  0
   29.4278  -30.2491  -17.7925 C   0  0  0  0  0  0  0  0  0  0  0  0
   29.7781  -31.5924  -17.9179 C   0  0  0  0  0  0  0  0  0  0  0  0
   21.4046  -29.5507  -18.3882 C   0  0  0  0  0  0  0  0  0  0  0  0
   22.5500  -29.4977  -17.4202 C   0  0  0  0  0  0  0  0  0  0  0  0
   23.1531  -30.8702  -17.1785 C   0  0  2  0  0  0  0  0  0  0  0  0
   22.1391  -31.6646  -16.3803 C   0  0  0  0  0  0  0  0  0  0  0  0
   24.4031  -30.7378  -16.3314 C   0  0  2  0  0  0  0  0  0  0  0  0
   25.3872  -29.8874  -16.9599 N   0  0  0  0  0  0  0  0  0  0  0  0
   24.8958  -32.0789  -15.9827 C   0  0  0  0  0  0  0  0  0  0  0  0
   25.6990  -32.8364  -16.8197 O   0  0  0  0  0  0  0  0  0  0  0  0
   24.5849  -32.5822  -14.8769 O   0  0  0  0  0  0  0  0  0  0  0  0
  2  3  1  0
  2  1  1  6
  4  2  1  0
  5  4  2  0
  7  6  1  0
  7  8  2  0
  9  8  1  0
 10  9  2  0
 11 10  1  0
 12 11  1  1
 12 13  1  0
 13  4  1  0
 14 23  1  0
 14 12  1  0
 15 14  2  0
 16 17  2  0
 16 10  1  0
 17  7  1  0
 18 19  1  0
 19 20  1  0
 20 22  1  0
 20 21  1  1
 22 23  1  6
 24 25  1  0
 24 22  1  0
 26 24  2  0
M  END
$$$$
