QSD.pdb
     RDKit          3D

 24 23  0  0  1  0  0  0  0  0999 V2000
   15.4481  -12.4790  -16.6921 N   0  0  0  0  0  0  0  0  0  0  0  0
   15.7226  -13.6177  -15.8988 C   0  0  0  0  0  0  0  0  0  0  0  0
   14.8835  -14.5418  -15.8605 O   0  0  0  0  0  0  0  0  0  0  0  0
   16.9700  -13.7364  -15.1211 C   0  0  0  0  0  0  0  0  0  0  0  0
   17.8023  -12.5116  -15.3109 C   0  0  0  0  0  0  0  0  0  0  0  0
   18.7992  -12.6058  -16.4178 C   0  0  2  0  0  0  0  0  0  0  0  0
   19.6951  -13.7094  -16.2463 N   0  0  0  0  0  0  0  0  0  0  0  0
   19.4914  -11.3153  -16.6818 C   0  0  0  0  0  0  0  0  0  0  0  0
   20.4024  -10.9774  -15.8963 O   0  0  0  0  0  0  0  0  0  0  0  0
   19.9887   -7.4846  -19.7528 O   0  0  0  0  0  0  0  0  0  0  0  0
   19.2489   -8.6403  -19.4009 C   0  0  0  0  0  0  0  0  0  0  0  0
   19.7249   -9.2268  -18.1268 C   0  0  2  0  0  0  0  0  0  0  0  0
   19.1599  -10.4744  -17.7701 N   0  0  0  0  0  0  0  0  0  0  0  0
   19.7509   -8.1917  -17.0544 C   0  0  0  0  0  0  0  0  0  0  0  0
   18.7392   -8.0419  -16.3356 O   0  0  0  0  0  0  0  0  0  0  0  0
   20.8557   -7.3526  -16.7855 N   0  0  0  0  0  0  0  0  0  0  0  0
   20.8541   -6.3498  -15.7423 C   0  0  1  0  0  0  0  0  0  0  0  0
   21.9255   -6.6092  -14.7095 C   0  0  0  0  0  0  0  0  0  0  0  0
   21.8628   -5.6198  -13.6037 C   0  0  0  0  0  0  0  0  0  0  0  0
   20.7871   -5.0810  -13.2422 O   0  0  0  0  0  0  0  0  0  0  0  0
   21.1497   -5.0395  -16.3769 C   0  0  0  0  0  0  0  0  0  0  0  0
   21.6672   -4.9502  -17.5227 O   0  0  0  0  0  0  0  0  0  0  0  0
   23.0122   -5.2464  -12.9154 O   0  0  0  0  0  0  0  0  0  0  0  0
   20.8719   -3.8296  -15.7424 O   0  0  0  0  0  0  0  0  0  0  0  0
  2  1  1  0
  2  3  2  0
  4  5  1  0
  4  2  1  0
  5  6  1  0
  6  8  1  0
  6  7  1  1
  8 13  1  0
  9  8  2  0
 10 11  1  0
 12 11  1  6
 12 14  1  0
 13 12  1  0
 14 15  2  0
 14 16  1  0
 16 17  1  0
 17 21  1  0
 17 18  1  1
 19 18  1  0
 20 19  2  0
 21 22  2  0
 21 24  1  0
 23 19  1  0
M  END
$$$$
