QSD.pdb
     RDKit          3D

 24 23  0  0  1  0  0  0  0  0999 V2000
   16.0500  -12.8619  -14.2506 N   0  0  0  0  0  0  0  0  0  0  0  0
   15.7360  -12.8000  -15.6286 C   0  0  0  0  0  0  0  0  0  0  0  0
   14.8823  -13.5873  -16.0879 O   0  0  0  0  0  0  0  0  0  0  0  0
   16.3906  -11.8323  -16.5286 C   0  0  0  0  0  0  0  0  0  0  0  0
   17.3536  -10.9940  -15.7548 C   0  0  0  0  0  0  0  0  0  0  0  0
   18.0975   -9.9911  -16.5724 C   0  0  2  0  0  0  0  0  0  0  0  0
   18.7800  -10.5933  -17.6777 N   0  0  0  0  0  0  0  0  0  0  0  0
   18.9664   -9.1065  -15.7496 C   0  0  0  0  0  0  0  0  0  0  0  0
   18.4416   -8.5250  -14.7763 O   0  0  0  0  0  0  0  0  0  0  0  0
   23.0572   -8.0595  -16.9461 O   0  0  0  0  0  0  0  0  0  0  0  0
   22.6939   -8.3477  -15.6075 C   0  0  0  0  0  0  0  0  0  0  0  0
   21.2614   -8.0657  -15.3575 C   0  0  2  0  0  0  0  0  0  0  0  0
   20.3391   -8.9053  -16.0264 N   0  0  0  0  0  0  0  0  0  0  0  0
   20.9952   -6.6018  -15.4472 C   0  0  0  0  0  0  0  0  0  0  0  0
   21.6426   -5.8246  -14.7126 O   0  0  0  0  0  0  0  0  0  0  0  0
   20.0480   -6.0174  -16.3179 N   0  0  0  0  0  0  0  0  0  0  0  0
   19.7369   -4.6043  -16.3175 C   0  0  1  0  0  0  0  0  0  0  0  0
   19.5871   -4.0597  -17.7186 C   0  0  0  0  0  0  0  0  0  0  0  0
   19.2119   -2.6229  -17.7041 C   0  0  0  0  0  0  0  0  0  0  0  0
   18.3079   -2.1554  -18.4407 O   0  0  0  0  0  0  0  0  0  0  0  0
   18.4335   -4.4304  -15.6262 C   0  0  0  0  0  0  0  0  0  0  0  0
   17.5409   -5.3201  -15.6430 O   0  0  0  0  0  0  0  0  0  0  0  0
   19.8581   -1.7259  -16.8602 O   0  0  0  0  0  0  0  0  0  0  0  0
   18.1197   -3.2718  -14.9172 O   0  0  0  0  0  0  0  0  0  0  0  0
  2  1  1  0
  2  3  2  0
  4  5  1  0
  4  2  1  0
  5  6  1  0
  6  8  1  0
  6  7  1  6
  8 13  1  0
  9  8  2  0
 10 11  1  0
 12 11  1  6
 12 14  1  0
 13 12  1  0
 14 15  2  0
 14 16  1  0
 16 17  1  0
 17 21  1  0
 17 18  1  6
 19 18  1  0
 20 19  2  0
 21 22  2  0
 21 24  1  0
 23 19  1  0
M  END
$$$$
