QSD.pdb
     RDKit          3D

 24 23  0  0  1  0  0  0  0  0999 V2000
   17.8593  -14.9216  -15.2683 N   0  0  0  0  0  0  0  0  0  0  0  0
   17.2868  -14.3632  -16.4353 C   0  0  0  0  0  0  0  0  0  0  0  0
   16.1414  -14.7253  -16.7769 O   0  0  0  0  0  0  0  0  0  0  0  0
   18.0083  -13.3694  -17.2519 C   0  0  0  0  0  0  0  0  0  0  0  0
   18.6003  -12.3227  -16.3672 C   0  0  0  0  0  0  0  0  0  0  0  0
   19.4642  -11.3313  -17.0734 C   0  0  2  0  0  0  0  0  0  0  0  0
   20.4086  -11.9614  -17.9459 N   0  0  0  0  0  0  0  0  0  0  0  0
   20.0798  -10.3409  -16.1490 C   0  0  0  0  0  0  0  0  0  0  0  0
   19.3138   -9.6880  -15.4088 O   0  0  0  0  0  0  0  0  0  0  0  0
   24.3173   -9.2120  -16.3653 O   0  0  0  0  0  0  0  0  0  0  0  0
   23.6407   -9.4396  -15.1417 C   0  0  0  0  0  0  0  0  0  0  0  0
   22.1846   -9.2002  -15.2698 C   0  0  2  0  0  0  0  0  0  0  0  0
   21.4752  -10.1176  -16.0810 N   0  0  0  0  0  0  0  0  0  0  0  0
   21.9146   -7.7570  -15.5273 C   0  0  0  0  0  0  0  0  0  0  0  0
   21.8741   -7.3522  -16.7093 O   0  0  0  0  0  0  0  0  0  0  0  0
   21.6967   -6.7955  -14.5149 N   0  0  0  0  0  0  0  0  0  0  0  0
   21.4834   -5.3908  -14.7884 C   0  0  1  0  0  0  0  0  0  0  0  0
   20.0145   -5.0396  -14.8214 C   0  0  0  0  0  0  0  0  0  0  0  0
   19.8106   -3.5774  -14.9828 C   0  0  0  0  0  0  0  0  0  0  0  0
   20.2811   -2.9350  -15.9545 O   0  0  0  0  0  0  0  0  0  0  0  0
   22.1055   -4.6173  -13.6831 C   0  0  0  0  0  0  0  0  0  0  0  0
   22.1608   -3.3582  -13.6932 O   0  0  0  0  0  0  0  0  0  0  0  0
   19.0786   -2.8524  -14.0485 O   0  0  0  0  0  0  0  0  0  0  0  0
   22.6656   -5.2387  -12.5678 O   0  0  0  0  0  0  0  0  0  0  0  0
  2  1  1  0
  2  3  2  0
  4  5  1  0
  4  2  1  0
  5  6  1  0
  6  8  1  0
  6  7  1  1
  8 13  1  0
  9  8  2  0
 10 11  1  0
 12 11  1  6
 12 14  1  0
 13 12  1  0
 14 15  2  0
 14 16  1  0
 16 17  1  0
 17 21  1  0
 17 18  1  1
 19 18  1  0
 20 19  2  0
 21 22  2  0
 21 24  1  0
 23 19  1  0
M  END
$$$$
