QSD.pdb
     RDKit          3D

 24 23  0  0  1  0  0  0  0  0999 V2000
   15.7573  -12.7290  -17.4426 N   0  0  0  0  0  0  0  0  0  0  0  0
   16.3228  -12.8940  -18.7288 C   0  0  0  0  0  0  0  0  0  0  0  0
   16.0354  -13.9159  -19.3867 O   0  0  0  0  0  0  0  0  0  0  0  0
   17.2384  -11.8922  -19.3059 C   0  0  0  0  0  0  0  0  0  0  0  0
   17.3984  -10.7492  -18.3589 C   0  0  0  0  0  0  0  0  0  0  0  0
   18.8144  -10.4114  -18.0296 C   0  0  2  0  0  0  0  0  0  0  0  0
   19.6157  -11.5801  -17.8246 N   0  0  0  0  0  0  0  0  0  0  0  0
   18.9289   -9.4137  -16.9314 C   0  0  0  0  0  0  0  0  0  0  0  0
   18.2344   -8.3787  -17.0168 O   0  0  0  0  0  0  0  0  0  0  0  0
   19.3778  -10.0997  -12.8912 O   0  0  0  0  0  0  0  0  0  0  0  0
   20.4306   -9.3424  -13.4612 C   0  0  0  0  0  0  0  0  0  0  0  0
   20.0208   -8.7104  -14.7365 C   0  0  2  0  0  0  0  0  0  0  0  0
   19.7806   -9.5935  -15.8161 N   0  0  0  0  0  0  0  0  0  0  0  0
   20.8850   -7.5334  -15.0360 C   0  0  0  0  0  0  0  0  0  0  0  0
   21.8062   -7.6582  -15.8718 O   0  0  0  0  0  0  0  0  0  0  0  0
   20.7363   -6.2636  -14.4340 N   0  0  0  0  0  0  0  0  0  0  0  0
   21.5762   -5.1303  -14.7562 C   0  0  1  0  0  0  0  0  0  0  0  0
   20.7633   -3.9245  -15.1653 C   0  0  0  0  0  0  0  0  0  0  0  0
   21.6355   -2.7635  -15.4767 C   0  0  0  0  0  0  0  0  0  0  0  0
   22.8894   -2.8361  -15.4473 O   0  0  0  0  0  0  0  0  0  0  0  0
   22.3323   -4.7673  -13.5300 C   0  0  0  0  0  0  0  0  0  0  0  0
   23.1545   -3.8123  -13.5065 O   0  0  0  0  0  0  0  0  0  0  0  0
   21.0876   -1.5317  -15.8185 O   0  0  0  0  0  0  0  0  0  0  0  0
   22.1774   -5.4619  -12.3312 O   0  0  0  0  0  0  0  0  0  0  0  0
  2  1  1  0
  2  3  2  0
  4  5  1  0
  4  2  1  0
  5  6  1  0
  6  8  1  0
  6  7  1  1
  8 13  1  0
  9  8  2  0
 10 11  1  0
 12 11  1  1
 12 14  1  0
 13 12  1  0
 14 15  2  0
 14 16  1  0
 16 17  1  0
 17 21  1  0
 17 18  1  1
 19 18  1  0
 20 19  2  0
 21 22  2  0
 21 24  1  0
 23 19  1  0
M  END
$$$$
