QSD.pdb
     RDKit          3D

 24 23  0  0  1  0  0  0  0  0999 V2000
   16.7957  -12.0682  -12.0113 N   0  0  0  0  0  0  0  0  0  0  0  0
   15.5246  -12.5936  -11.6804 C   0  0  0  0  0  0  0  0  0  0  0  0
   15.2014  -13.7146  -12.1261 O   0  0  0  0  0  0  0  0  0  0  0  0
   14.5789  -11.8515  -10.8261 C   0  0  0  0  0  0  0  0  0  0  0  0
   15.1810  -10.5466  -10.4212 C   0  0  0  0  0  0  0  0  0  0  0  0
   14.3345   -9.7339   -9.4988 C   0  0  2  0  0  0  0  0  0  0  0  0
   13.0085  -10.2600   -9.3766 N   0  0  0  0  0  0  0  0  0  0  0  0
   14.3690   -8.2802   -9.8150 C   0  0  0  0  0  0  0  0  0  0  0  0
   13.4397   -7.8183  -10.5107 O   0  0  0  0  0  0  0  0  0  0  0  0
   15.5272   -5.2379   -7.3916 O   0  0  0  0  0  0  0  0  0  0  0  0
   16.2714   -5.2568   -8.5969 C   0  0  0  0  0  0  0  0  0  0  0  0
   15.5894   -6.0470   -9.6478 C   0  0  2  0  0  0  0  0  0  0  0  0
   15.3977   -7.4201   -9.3637 N   0  0  0  0  0  0  0  0  0  0  0  0
   16.1586   -5.7313  -10.9888 C   0  0  0  0  0  0  0  0  0  0  0  0
   17.2849   -6.1835  -11.2880 O   0  0  0  0  0  0  0  0  0  0  0  0
   15.5062   -4.9444  -11.9647 N   0  0  0  0  0  0  0  0  0  0  0  0
   16.0589   -4.6909  -13.2776 C   0  0  1  0  0  0  0  0  0  0  0  0
   14.9842   -4.3673  -14.2888 C   0  0  0  0  0  0  0  0  0  0  0  0
   14.2070   -5.5772  -14.6594 C   0  0  0  0  0  0  0  0  0  0  0  0
   14.6671   -6.7391  -14.5300 O   0  0  0  0  0  0  0  0  0  0  0  0
   16.9471   -3.5049  -13.1709 C   0  0  0  0  0  0  0  0  0  0  0  0
   16.9575   -2.7637  -12.1516 O   0  0  0  0  0  0  0  0  0  0  0  0
   12.9189   -5.4676  -15.1723 O   0  0  0  0  0  0  0  0  0  0  0  0
   17.8228   -3.1408  -14.1928 O   0  0  0  0  0  0  0  0  0  0  0  0
  2  1  1  0
  2  3  2  0
  4  5  1  0
  4  2  1  0
  5  6  1  0
  6  8  1  0
  6  7  1  6
  8 13  1  0
  9  8  2  0
 10 11  1  0
 12 11  1  1
 12 14  1  0
 13 12  1  0
 14 15  2  0
 14 16  1  0
 16 17  1  0
 17 21  1  0
 17 18  1  6
 19 18  1  0
 20 19  2  0
 21 22  2  0
 21 24  1  0
 23 19  1  0
M  END
$$$$
