QSD.pdb
     RDKit          3D

 24 23  0  0  1  0  0  0  0  0999 V2000
   14.4576  -12.9991  -14.0570 N   0  0  0  0  0  0  0  0  0  0  0  0
   14.0844  -13.0729  -15.4196 C   0  0  0  0  0  0  0  0  0  0  0  0
   12.9619  -13.5353  -15.7126 O   0  0  0  0  0  0  0  0  0  0  0  0
   14.9861  -12.6186  -16.4946 C   0  0  0  0  0  0  0  0  0  0  0  0
   16.2216  -12.0267  -15.9012 C   0  0  0  0  0  0  0  0  0  0  0  0
   17.4732  -12.7861  -16.1920 C   0  0  2  0  0  0  0  0  0  0  0  0
   17.3810  -14.1563  -15.7871 N   0  0  0  0  0  0  0  0  0  0  0  0
   18.6941  -12.0999  -15.6891 C   0  0  0  0  0  0  0  0  0  0  0  0
   18.8705  -12.0676  -14.4526 O   0  0  0  0  0  0  0  0  0  0  0  0
   23.1980  -10.5457  -16.4560 O   0  0  0  0  0  0  0  0  0  0  0  0
   22.0305  -11.1375  -16.9979 C   0  0  0  0  0  0  0  0  0  0  0  0
   20.8273  -10.7999  -16.2026 C   0  0  2  0  0  0  0  0  0  0  0  0
   19.6431  -11.4946  -16.5462 N   0  0  0  0  0  0  0  0  0  0  0  0
   20.6978   -9.3222  -16.0555 C   0  0  0  0  0  0  0  0  0  0  0  0
   20.0301   -8.6879  -16.9008 O   0  0  0  0  0  0  0  0  0  0  0  0
   21.2846   -8.5723  -15.0114 N   0  0  0  0  0  0  0  0  0  0  0  0
   21.2791   -7.1259  -14.9743 C   0  0  1  0  0  0  0  0  0  0  0  0
   21.6089   -6.5960  -13.5987 C   0  0  0  0  0  0  0  0  0  0  0  0
   21.6307   -5.1112  -13.5810 C   0  0  0  0  0  0  0  0  0  0  0  0
   20.5820   -4.4215  -13.6357 O   0  0  0  0  0  0  0  0  0  0  0  0
   22.3340   -6.6477  -15.9047 C   0  0  0  0  0  0  0  0  0  0  0  0
   23.2999   -7.3770  -16.2562 O   0  0  0  0  0  0  0  0  0  0  0  0
   22.8332   -4.4168  -13.5017 O   0  0  0  0  0  0  0  0  0  0  0  0
   22.3183   -5.3625  -16.4449 O   0  0  0  0  0  0  0  0  0  0  0  0
  2  1  1  0
  2  3  2  0
  4  5  1  0
  4  2  1  0
  5  6  1  0
  6  8  1  0
  6  7  1  1
  8 13  1  0
  9  8  2  0
 10 11  1  0
 12 11  1  6
 12 14  1  0
 13 12  1  0
 14 15  2  0
 14 16  1  0
 16 17  1  0
 17 21  1  0
 17 18  1  1
 19 18  1  0
 20 19  2  0
 21 22  2  0
 21 24  1  0
 23 19  1  0
M  END
$$$$
