QSD.pdb
     RDKit          3D

 24 23  0  0  1  0  0  0  0  0999 V2000
   16.4393  -14.2651  -17.3742 N   0  0  0  0  0  0  0  0  0  0  0  0
   16.2511  -12.8636  -17.4150 C   0  0  0  0  0  0  0  0  0  0  0  0
   15.2303  -12.3772  -16.8849 O   0  0  0  0  0  0  0  0  0  0  0  0
   17.2277  -11.9703  -18.0656 C   0  0  0  0  0  0  0  0  0  0  0  0
   17.6690  -10.9178  -17.1030 C   0  0  0  0  0  0  0  0  0  0  0  0
   19.1429  -10.6839  -17.0743 C   0  0  2  0  0  0  0  0  0  0  0  0
   19.8780  -11.8913  -16.8467 N   0  0  0  0  0  0  0  0  0  0  0  0
   19.5327   -9.5719  -16.1655 C   0  0  0  0  0  0  0  0  0  0  0  0
   18.6491   -9.0992  -15.4193 O   0  0  0  0  0  0  0  0  0  0  0  0
   23.6499   -8.3053  -15.8988 O   0  0  0  0  0  0  0  0  0  0  0  0
   22.7395   -8.1734  -14.8215 C   0  0  0  0  0  0  0  0  0  0  0  0
   21.3480   -8.0036  -15.2997 C   0  0  2  0  0  0  0  0  0  0  0  0
   20.8436   -9.0420  -16.1185 N   0  0  0  0  0  0  0  0  0  0  0  0
   21.1348   -6.6159  -15.8003 C   0  0  0  0  0  0  0  0  0  0  0  0
   21.1156   -6.4157  -17.0341 O   0  0  0  0  0  0  0  0  0  0  0  0
   20.9488   -5.4896  -14.9674 N   0  0  0  0  0  0  0  0  0  0  0  0
   20.8162   -4.1412  -15.4753 C   0  0  1  0  0  0  0  0  0  0  0  0
   20.0892   -3.2417  -14.5035 C   0  0  0  0  0  0  0  0  0  0  0  0
   19.8959   -1.8808  -15.0658 C   0  0  0  0  0  0  0  0  0  0  0  0
   19.1381   -1.6570  -16.0426 O   0  0  0  0  0  0  0  0  0  0  0  0
   22.1846   -3.5923  -15.6579 C   0  0  0  0  0  0  0  0  0  0  0  0
   23.1378   -3.8970  -14.8917 O   0  0  0  0  0  0  0  0  0  0  0  0
   20.5576   -0.7846  -14.5228 O   0  0  0  0  0  0  0  0  0  0  0  0
   22.4961   -2.7067  -16.6886 O   0  0  0  0  0  0  0  0  0  0  0  0
  2  1  1  0
  2  3  2  0
  4  5  1  0
  4  2  1  0
  5  6  1  0
  6  8  1  0
  6  7  1  1
  8 13  1  0
  9  8  2  0
 10 11  1  0
 12 11  1  6
 12 14  1  0
 13 12  1  0
 14 15  2  0
 14 16  1  0
 16 17  1  0
 17 21  1  0
 17 18  1  1
 19 18  1  0
 20 19  2  0
 21 22  2  0
 21 24  1  0
 23 19  1  0
M  END
$$$$
