QSD.pdb
     RDKit          3D

 24 23  0  0  1  0  0  0  0  0999 V2000
   18.0019  -14.3452  -13.9860 N   0  0  0  0  0  0  0  0  0  0  0  0
   16.6732  -14.7609  -14.2368 C   0  0  0  0  0  0  0  0  0  0  0  0
   16.2908  -15.8610  -13.7858 O   0  0  0  0  0  0  0  0  0  0  0  0
   15.7358  -13.9290  -15.0141 C   0  0  0  0  0  0  0  0  0  0  0  0
   16.4106  -12.6651  -15.4337 C   0  0  0  0  0  0  0  0  0  0  0  0
   15.5644  -11.7572  -16.2628 C   0  0  2  0  0  0  0  0  0  0  0  0
   15.1032  -12.3915  -17.4606 N   0  0  0  0  0  0  0  0  0  0  0  0
   16.2005  -10.4330  -16.5000 C   0  0  0  0  0  0  0  0  0  0  0  0
   17.0943  -10.3693  -17.3707 O   0  0  0  0  0  0  0  0  0  0  0  0
   14.6814   -6.8409  -14.5824 O   0  0  0  0  0  0  0  0  0  0  0  0
   15.2862   -6.8741  -15.8630 C   0  0  0  0  0  0  0  0  0  0  0  0
   16.3070   -7.9432  -15.9575 C   0  0  2  0  0  0  0  0  0  0  0  0
   15.8352   -9.2666  -15.7874 N   0  0  0  0  0  0  0  0  0  0  0  0
   17.5196   -7.5766  -15.1720 C   0  0  0  0  0  0  0  0  0  0  0  0
   17.6873   -8.0917  -14.0454 O   0  0  0  0  0  0  0  0  0  0  0  0
   18.5119   -6.6736  -15.6157 N   0  0  0  0  0  0  0  0  0  0  0  0
   19.6588   -6.3006  -14.8163 C   0  0  1  0  0  0  0  0  0  0  0  0
   20.9291   -6.9471  -15.3169 C   0  0  0  0  0  0  0  0  0  0  0  0
   22.1095   -6.4991  -14.5349 C   0  0  0  0  0  0  0  0  0  0  0  0
   22.0127   -5.7113  -13.5611 O   0  0  0  0  0  0  0  0  0  0  0  0
   19.8283   -4.8291  -14.9311 C   0  0  0  0  0  0  0  0  0  0  0  0
   19.3213   -4.1668  -15.8760 O   0  0  0  0  0  0  0  0  0  0  0  0
   23.3878   -6.9426  -14.8568 O   0  0  0  0  0  0  0  0  0  0  0  0
   20.5588   -4.0926  -13.9997 O   0  0  0  0  0  0  0  0  0  0  0  0
  2  1  1  0
  2  3  2  0
  4  5  1  0
  4  2  1  0
  5  6  1  0
  6  8  1  0
  6  7  1  6
  8 13  1  0
  9  8  2  0
 10 11  1  0
 12 11  1  1
 12 14  1  0
 13 12  1  0
 14 15  2  0
 14 16  1  0
 16 17  1  0
 17 21  1  0
 17 18  1  6
 19 18  1  0
 20 19  2  0
 21 22  2  0
 21 24  1  0
 23 19  1  0
M  END
$$$$
