ACR.pdb
     RDKit          3D

 23 22  0  0  1  0  0  0  0  0999 V2000
   29.2391  -23.0994  -17.0728 C   0  0  0  0  0  0  0  0  0  0  0  0
   27.8173  -22.5901  -17.1449 C   0  0  2  0  0  0  0  0  0  0  0  0
   27.7643  -21.3428  -16.4088 N   0  0  0  0  0  0  0  0  0  0  0  0
   26.9425  -23.6237  -16.5067 C   0  0  0  0  0  0  0  0  0  0  0  0
   27.2534  -24.1715  -15.4184 O   0  0  0  0  0  0  0  0  0  0  0  0
   25.7166  -24.0399  -17.0966 N   0  0  0  0  0  0  0  0  0  0  0  0
   24.7944  -24.9131  -16.3974 C   0  0  1  0  0  0  0  0  0  0  0  0
   23.5175  -24.1661  -16.1793 C   0  0  0  0  0  0  0  0  0  0  0  0
   22.3251  -25.0987  -15.1829 S   0  0  0  0  0  0  0  0  0  0  0  0
   24.5964  -26.1716  -17.1531 C   0  0  0  0  0  0  0  0  0  0  0  0
   24.3883  -26.2254  -18.3785 O   0  0  0  0  0  0  0  0  0  0  0  0
   27.7620  -32.7037  -17.5218 N   0  0  0  0  0  0  0  0  0  0  0  0
   27.6064  -32.4224  -16.1460 C   0  0  0  0  0  0  0  0  0  0  0  0
   28.6143  -32.5194  -15.3333 N   0  0  0  0  0  0  0  0  0  0  0  0
   26.3640  -32.0247  -15.5779 N   0  0  0  0  0  0  0  0  0  0  0  0
   25.1264  -32.3457  -16.2421 C   0  0  0  0  0  0  0  0  0  0  0  0
   24.6525  -31.1789  -17.1146 C   0  0  0  0  0  0  0  0  0  0  0  0
   24.7459  -29.8810  -16.3528 C   0  0  0  0  0  0  0  0  0  0  0  0
   24.3629  -28.6827  -17.1563 C   0  0  2  0  0  0  0  0  0  0  0  0
   24.6396  -27.4346  -16.4636 N   0  0  0  0  0  0  0  0  0  0  0  0
   22.8917  -28.7421  -17.3599 C   0  0  0  0  0  0  0  0  0  0  0  0
   22.0548  -28.4906  -16.4355 O   0  0  0  0  0  0  0  0  0  0  0  0
   22.3366  -29.0792  -18.5852 O   0  0  0  0  0  0  0  0  0  0  0  0
  2  1  1  1
  2  3  1  0
  4  5  2  0
  4  2  1  0
  6  4  1  0
  7 10  1  0
  7  6  1  0
  7  8  1  6
  9  8  1  0
 10 20  1  0
 11 10  2  0
 12 13  1  0
 13 15  1  0
 13 14  2  0
 15 16  1  0
 17 16  1  0
 18 17  1  0
 19 18  1  1
 20 19  1  0
 21 23  1  0
 21 19  1  0
 22 21  2  0
M  END
$$$$
