ACR.pdb
     RDKit          3D

 23 22  0  0  1  0  0  0  0  0999 V2000
   21.1547  -19.1149  -17.2139 C   0  0  0  0  0  0  0  0  0  0  0  0
   22.0473  -18.8658  -18.4086 C   0  0  2  0  0  0  0  0  0  0  0  0
   23.0130  -19.9452  -18.4625 N   0  0  0  0  0  0  0  0  0  0  0  0
   22.7285  -17.5512  -18.1875 C   0  0  0  0  0  0  0  0  0  0  0  0
   23.4804  -17.3549  -17.1990 O   0  0  0  0  0  0  0  0  0  0  0  0
   22.5610  -16.4574  -19.0817 N   0  0  0  0  0  0  0  0  0  0  0  0
   23.3128  -15.2274  -18.9274 C   0  0  1  0  0  0  0  0  0  0  0  0
   24.1439  -15.0305  -20.1548 C   0  0  0  0  0  0  0  0  0  0  0  0
   25.6106  -16.0947  -20.1823 S   0  0  0  0  0  0  0  0  0  0  0  0
   22.4001  -14.0898  -18.6686 C   0  0  0  0  0  0  0  0  0  0  0  0
   21.2769  -13.9629  -19.1883 O   0  0  0  0  0  0  0  0  0  0  0  0
   21.9928   -8.1825  -11.8741 N   0  0  0  0  0  0  0  0  0  0  0  0
   21.0391   -7.7782  -12.8348 C   0  0  0  0  0  0  0  0  0  0  0  0
   20.2674   -6.7582  -12.6117 N   0  0  0  0  0  0  0  0  0  0  0  0
   20.8681   -8.4482  -14.0783 N   0  0  0  0  0  0  0  0  0  0  0  0
   21.7507   -9.5247  -14.4500 C   0  0  0  0  0  0  0  0  0  0  0  0
   21.3117  -10.1636  -15.7715 C   0  0  0  0  0  0  0  0  0  0  0  0
   22.2335  -11.2991  -16.1383 C   0  0  0  0  0  0  0  0  0  0  0  0
   21.9093  -11.9384  -17.4476 C   0  0  2  0  0  0  0  0  0  0  0  0
   22.8002  -13.0428  -17.7651 N   0  0  0  0  0  0  0  0  0  0  0  0
   22.1109  -10.9094  -18.5010 C   0  0  0  0  0  0  0  0  0  0  0  0
   23.2112  -10.7620  -19.1223 O   0  0  0  0  0  0  0  0  0  0  0  0
   21.0991  -10.0378  -18.8744 O   0  0  0  0  0  0  0  0  0  0  0  0
  2  1  1  1
  2  3  1  0
  4  5  2  0
  4  2  1  0
  6  4  1  0
  7 10  1  0
  7  6  1  0
  7  8  1  6
  9  8  1  0
 10 20  1  0
 11 10  2  0
 12 13  1  0
 13 15  1  0
 13 14  2  0
 15 16  1  0
 17 16  1  0
 18 17  1  0
 19 18  1  1
 20 19  1  0
 21 23  1  0
 21 19  1  0
 22 21  2  0
M  END
$$$$
