ACR.pdb
     RDKit          3D

 23 22  0  0  1  0  0  0  0  0999 V2000
   29.8733  -23.5474  -16.2625 C   0  0  0  0  0  0  0  0  0  0  0  0
   28.5965  -23.1509  -16.9688 C   0  0  2  0  0  0  0  0  0  0  0  0
   28.9695  -22.4228  -18.1651 N   0  0  0  0  0  0  0  0  0  0  0  0
   27.8237  -22.2764  -16.0313 C   0  0  0  0  0  0  0  0  0  0  0  0
   27.3645  -22.7149  -14.9460 O   0  0  0  0  0  0  0  0  0  0  0  0
   27.5682  -20.9066  -16.3185 N   0  0  0  0  0  0  0  0  0  0  0  0
   26.7726  -20.0797  -15.4324 C   0  0  1  0  0  0  0  0  0  0  0  0
   27.2860  -18.6776  -15.5151 C   0  0  0  0  0  0  0  0  0  0  0  0
   26.2561  -17.5023  -14.5973 S   0  0  0  0  0  0  0  0  0  0  0  0
   25.3358  -20.1817  -15.7775 C   0  0  0  0  0  0  0  0  0  0  0  0
   24.8824  -20.0479  -16.9283 O   0  0  0  0  0  0  0  0  0  0  0  0
   19.7177  -24.3191  -14.1707 N   0  0  0  0  0  0  0  0  0  0  0  0
   19.9393  -24.0261  -12.8064 C   0  0  0  0  0  0  0  0  0  0  0  0
   19.6759  -24.9072  -11.8898 N   0  0  0  0  0  0  0  0  0  0  0  0
   20.4530  -22.7760  -12.3617 N   0  0  0  0  0  0  0  0  0  0  0  0
   19.9199  -21.5444  -12.8860 C   0  0  0  0  0  0  0  0  0  0  0  0
   20.6708  -21.1151  -14.1506 C   0  0  0  0  0  0  0  0  0  0  0  0
   22.1351  -20.9166  -13.8506 C   0  0  0  0  0  0  0  0  0  0  0  0
   22.9509  -20.5553  -15.0474 C   0  0  2  0  0  0  0  0  0  0  0  0
   24.3694  -20.4512  -14.7451 N   0  0  0  0  0  0  0  0  0  0  0  0
   22.5078  -19.2075  -15.4906 C   0  0  0  0  0  0  0  0  0  0  0  0
   21.7100  -19.0274  -16.4650 O   0  0  0  0  0  0  0  0  0  0  0  0
   22.9427  -18.0513  -14.8604 O   0  0  0  0  0  0  0  0  0  0  0  0
  2  1  1  1
  2  3  1  0
  4  5  2  0
  4  2  1  0
  6  4  1  0
  7 10  1  0
  7  6  1  0
  7  8  1  6
  9  8  1  0
 10 20  1  0
 11 10  2  0
 12 13  1  0
 13 15  1  0
 13 14  2  0
 15 16  1  0
 17 16  1  0
 18 17  1  0
 19 18  1  1
 20 19  1  0
 21 23  1  0
 21 19  1  0
 22 21  2  0
M  END
$$$$
