ACR.pdb
     RDKit          3D

 23 22  0  0  1  0  0  0  0  0999 V2000
   27.6256  -18.6937  -15.3030 C   0  0  0  0  0  0  0  0  0  0  0  0
   28.1775  -19.9857  -14.7443 C   0  0  2  0  0  0  0  0  0  0  0  0
   28.6031  -20.7981  -15.8665 N   0  0  0  0  0  0  0  0  0  0  0  0
   27.0688  -20.6537  -13.9923 C   0  0  0  0  0  0  0  0  0  0  0  0
   26.2509  -21.4192  -14.5633 O   0  0  0  0  0  0  0  0  0  0  0  0
   26.8824  -20.4577  -12.5956 N   0  0  0  0  0  0  0  0  0  0  0  0
   25.7656  -21.0515  -11.8870 C   0  0  1  0  0  0  0  0  0  0  0  0
   25.9730  -20.8349  -10.4221 C   0  0  0  0  0  0  0  0  0  0  0  0
   24.5237  -21.2960   -9.4365 S   0  0  0  0  0  0  0  0  0  0  0  0
   24.4843  -20.4870  -12.3707 C   0  0  0  0  0  0  0  0  0  0  0  0
   24.2852  -19.2749  -12.5684 O   0  0  0  0  0  0  0  0  0  0  0  0
   17.9244  -20.9975  -17.8490 N   0  0  0  0  0  0  0  0  0  0  0  0
   19.1318  -21.7077  -18.0336 C   0  0  0  0  0  0  0  0  0  0  0  0
   19.4899  -22.1065  -19.2162 N   0  0  0  0  0  0  0  0  0  0  0  0
   20.0104  -22.0234  -16.9600 N   0  0  0  0  0  0  0  0  0  0  0  0
   19.5946  -21.8142  -15.5964 C   0  0  0  0  0  0  0  0  0  0  0  0
   20.4128  -20.6990  -14.9375 C   0  0  0  0  0  0  0  0  0  0  0  0
   21.7425  -21.2309  -14.4659 C   0  0  0  0  0  0  0  0  0  0  0  0
   22.0861  -20.8381  -13.0674 C   0  0  2  0  0  0  0  0  0  0  0  0
   23.3736  -21.3621  -12.6409 N   0  0  0  0  0  0  0  0  0  0  0  0
   21.0615  -21.4431  -12.1767 C   0  0  0  0  0  0  0  0  0  0  0  0
   21.1585  -22.6236  -11.7127 O   0  0  0  0  0  0  0  0  0  0  0  0
   19.9244  -20.7481  -11.7932 O   0  0  0  0  0  0  0  0  0  0  0  0
  2  1  1  6
  2  3  1  0
  4  5  2  0
  4  2  1  0
  6  4  1  0
  7 10  1  0
  7  6  1  0
  7  8  1  1
  9  8  1  0
 10 20  1  0
 11 10  2  0
 12 13  1  0
 13 15  1  0
 13 14  2  0
 15 16  1  0
 17 16  1  0
 18 17  1  0
 19 18  1  6
 20 19  1  0
 21 23  1  0
 21 19  1  0
 22 21  2  0
M  END
$$$$
