ACR.pdb
     RDKit          3D

 23 22  0  0  1  0  0  0  0  0999 V2000
   35.1206  -33.7819   -9.5010 C   0  0  0  0  0  0  0  0  0  0  0  0
   35.4575  -35.2461   -9.3322 C   0  0  2  0  0  0  0  0  0  0  0  0
   35.3510  -35.8700  -10.6360 N   0  0  0  0  0  0  0  0  0  0  0  0
   34.4574  -35.8250   -8.3806 C   0  0  0  0  0  0  0  0  0  0  0  0
   33.3100  -36.1732   -8.7592 O   0  0  0  0  0  0  0  0  0  0  0  0
   34.7515  -36.0108   -7.0011 N   0  0  0  0  0  0  0  0  0  0  0  0
   33.7413  -36.4571   -6.0618 C   0  0  1  0  0  0  0  0  0  0  0  0
   34.4129  -36.7544   -4.7593 C   0  0  0  0  0  0  0  0  0  0  0  0
   33.2575  -37.3592   -3.5008 S   0  0  0  0  0  0  0  0  0  0  0  0
   32.6689  -35.4435   -5.9318 C   0  0  0  0  0  0  0  0  0  0  0  0
   32.7876  -34.2531   -6.2734 O   0  0  0  0  0  0  0  0  0  0  0  0
   25.8392  -33.9661   -9.7772 N   0  0  0  0  0  0  0  0  0  0  0  0
   25.8543  -32.7961   -8.9854 C   0  0  0  0  0  0  0  0  0  0  0  0
   24.8934  -31.9272   -9.0715 N   0  0  0  0  0  0  0  0  0  0  0  0
   26.8994  -32.5032   -8.0654 N   0  0  0  0  0  0  0  0  0  0  0  0
   28.1134  -33.2793   -8.0750 C   0  0  0  0  0  0  0  0  0  0  0  0
   28.5576  -33.6220   -6.6494 C   0  0  0  0  0  0  0  0  0  0  0  0
   29.7412  -34.5557   -6.6776 C   0  0  0  0  0  0  0  0  0  0  0  0
   30.2877  -34.8755   -5.3259 C   0  0  2  0  0  0  0  0  0  0  0  0
   31.3933  -35.8184   -5.3798 N   0  0  0  0  0  0  0  0  0  0  0  0
   29.2000  -35.5350   -4.5569 C   0  0  0  0  0  0  0  0  0  0  0  0
   29.2219  -36.7686   -4.2469 O   0  0  0  0  0  0  0  0  0  0  0  0
   28.0825  -34.8362   -4.1258 O   0  0  0  0  0  0  0  0  0  0  0  0
  2  1  1  6
  2  3  1  0
  4  5  2  0
  4  2  1  0
  6  4  1  0
  7 10  1  0
  7  6  1  0
  7  8  1  1
  9  8  1  0
 10 20  1  0
 11 10  2  0
 12 13  1  0
 13 15  1  0
 13 14  2  0
 15 16  1  0
 17 16  1  0
 18 17  1  0
 19 18  1  6
 20 19  1  0
 21 23  1  0
 21 19  1  0
 22 21  2  0
M  END
$$$$
