ACR.pdb
     RDKit          3D

 23 22  0  0  1  0  0  0  0  0999 V2000
   17.1189  -13.0662  -14.9514 C   0  0  0  0  0  0  0  0  0  0  0  0
   16.0818  -12.0024  -15.2321 C   0  0  2  0  0  0  0  0  0  0  0  0
   15.1101  -12.5723  -16.1440 N   0  0  0  0  0  0  0  0  0  0  0  0
   16.7919  -10.8458  -15.8639 C   0  0  0  0  0  0  0  0  0  0  0  0
   17.4742  -10.9820  -16.9112 O   0  0  0  0  0  0  0  0  0  0  0  0
   16.7326   -9.5352  -15.3137 N   0  0  0  0  0  0  0  0  0  0  0  0
   17.4610   -8.4293  -15.9039 C   0  0  1  0  0  0  0  0  0  0  0  0
   16.6825   -7.1754  -15.6635 C   0  0  0  0  0  0  0  0  0  0  0  0
   17.6062   -5.6833  -16.1157 S   0  0  0  0  0  0  0  0  0  0  0  0
   18.8353   -8.3609  -15.3554 C   0  0  0  0  0  0  0  0  0  0  0  0
   19.1127   -8.4808  -14.1486 O   0  0  0  0  0  0  0  0  0  0  0  0
   25.8963  -12.4734  -16.8458 N   0  0  0  0  0  0  0  0  0  0  0  0
   26.4542  -11.2661  -16.3689 C   0  0  0  0  0  0  0  0  0  0  0  0
   27.7212  -11.1855  -16.0968 N   0  0  0  0  0  0  0  0  0  0  0  0
   25.6805  -10.0903  -16.1614 N   0  0  0  0  0  0  0  0  0  0  0  0
   24.3268  -10.0168  -16.6492 C   0  0  0  0  0  0  0  0  0  0  0  0
   23.7194   -8.6365  -16.3786 C   0  0  0  0  0  0  0  0  0  0  0  0
   22.2834   -8.5951  -16.8364 C   0  0  0  0  0  0  0  0  0  0  0  0
   21.3199   -8.2142  -15.7618 C   0  0  2  0  0  0  0  0  0  0  0  0
   19.9490   -8.1426  -16.2411 N   0  0  0  0  0  0  0  0  0  0  0  0
   21.6864   -6.8473  -15.3073 C   0  0  0  0  0  0  0  0  0  0  0  0
   22.7563   -6.5949  -14.6670 O   0  0  0  0  0  0  0  0  0  0  0  0
   20.8739   -5.7517  -15.5573 O   0  0  0  0  0  0  0  0  0  0  0  0
  2  1  1  6
  2  3  1  0
  4  5  2  0
  4  2  1  0
  6  4  1  0
  7 10  1  0
  7  6  1  0
  7  8  1  1
  9  8  1  0
 10 20  1  0
 11 10  2  0
 12 13  1  0
 13 15  1  0
 13 14  2  0
 15 16  1  0
 17 16  1  0
 18 17  1  0
 19 18  1  6
 20 19  1  0
 21 23  1  0
 21 19  1  0
 22 21  2  0
M  END
$$$$
