NFP.pdb
     RDKit          3D

 27 28  0  0  1  0  0  0  0  0999 V2000
   27.8219  -21.0924  -21.3744 N   0  0  0  0  0  0  0  0  0  0  0  0
   28.1877  -20.5751  -20.1167 C   0  0  0  0  0  0  0  0  0  0  0  0
   29.1771  -19.8117  -20.0232 O   0  0  0  0  0  0  0  0  0  0  0  0
   27.4468  -20.8920  -18.8608 C   0  0  0  0  0  0  0  0  0  0  0  0
   28.4702  -21.2986  -17.8350 C   0  0  2  0  0  0  0  0  0  0  0  0
   29.2439  -22.3957  -18.3484 N   0  0  0  0  0  0  0  0  0  0  0  0
   27.8598  -21.6121  -16.5166 C   0  0  0  0  0  0  0  0  0  0  0  0
   27.4005  -22.7776  -16.3661 O   0  0  0  0  0  0  0  0  0  0  0  0
   27.7925  -20.6580  -15.4768 N   0  0  0  0  0  0  0  0  0  0  0  0
   26.9819  -20.9540  -14.3097 C   0  0  1  0  0  0  0  0  0  0  0  0
   27.5662  -20.0938  -13.1987 C   0  0  0  0  0  0  0  0  0  0  0  0
   26.7464  -20.2834  -11.9749 C   0  0  0  0  0  0  0  0  0  0  0  0
   27.0684  -21.2429  -11.0255 C   0  0  0  0  0  0  0  0  0  0  0  0
   26.2961  -21.4151   -9.8817 C   0  0  0  0  0  0  0  0  0  0  0  0
   25.1818  -20.6256   -9.6668 C   0  0  0  0  0  0  0  0  0  0  0  0
   24.8457  -19.6677  -10.5976 C   0  0  0  0  0  0  0  0  0  0  0  0
   25.6210  -19.5151  -11.7178 C   0  0  0  0  0  0  0  0  0  0  0  0
   25.5554  -20.6532  -14.5401 C   0  0  0  0  0  0  0  0  0  0  0  0
   25.3206  -19.5473  -15.1370 O   0  0  0  0  0  0  0  0  0  0  0  0
   24.4600  -21.4398  -14.1801 N   0  0  0  0  0  0  0  0  0  0  0  0
   24.5641  -22.6877  -13.3985 C   0  0  0  0  0  0  0  0  0  0  0  0
   23.8107  -23.6342  -14.3430 C   0  0  0  0  0  0  0  0  0  0  0  0
   22.6612  -22.7544  -14.7867 C   0  0  0  0  0  0  0  0  0  0  0  0
   23.0355  -21.3350  -14.4167 C   0  0  1  0  0  0  0  0  0  0  0  0
   22.3187  -20.8643  -13.1937 C   0  0  0  0  0  0  0  0  0  0  0  0
   22.8328  -20.9718  -12.0577 O   0  0  0  0  0  0  0  0  0  0  0  0
   21.0619  -20.2955  -13.2932 O   0  0  0  0  0  0  0  0  0  0  0  0
  2  1  1  0
  3  2  2  0
  4  2  1  0
  5  4  1  0
  5  6  1  6
  7  5  1  0
  7  8  2  0
  9  7  1  0
 10  9  1  0
 10 11  1  1
 11 12  1  0
 12 13  2  0
 12 17  1  0
 13 14  1  0
 14 15  2  0
 16 15  1  0
 17 16  2  0
 18 10  1  0
 19 18  2  0
 20 18  1  0
 20 24  1  0
 21 22  1  0
 21 20  1  0
 22 23  1  0
 23 24  1  0
 24 25  1  1
 25 27  1  0
 26 25  2  0
M  END
$$$$
