NFP.pdb
     RDKit          3D

 27 28  0  0  1  0  0  0  0  0999 V2000
   22.4212   -9.8461  -21.1239 N   0  0  0  0  0  0  0  0  0  0  0  0
   21.9892  -11.0006  -20.4429 C   0  0  0  0  0  0  0  0  0  0  0  0
   22.3665  -12.1298  -20.8341 O   0  0  0  0  0  0  0  0  0  0  0  0
   21.0872  -10.9539  -19.2551 C   0  0  0  0  0  0  0  0  0  0  0  0
   21.9457  -11.1783  -18.0396 C   0  0  2  0  0  0  0  0  0  0  0  0
   22.2830  -12.5727  -17.9500 N   0  0  0  0  0  0  0  0  0  0  0  0
   21.3101  -10.6746  -16.7941 C   0  0  0  0  0  0  0  0  0  0  0  0
   20.4685  -11.4333  -16.2390 O   0  0  0  0  0  0  0  0  0  0  0  0
   21.6265   -9.4093  -16.2509 N   0  0  0  0  0  0  0  0  0  0  0  0
   20.8726   -8.9336  -15.1054 C   0  0  1  0  0  0  0  0  0  0  0  0
   21.9254   -8.5457  -14.0774 C   0  0  0  0  0  0  0  0  0  0  0  0
   22.7634   -7.4601  -14.6473 C   0  0  0  0  0  0  0  0  0  0  0  0
   22.4986   -6.1234  -14.3851 C   0  0  0  0  0  0  0  0  0  0  0  0
   23.2877   -5.1118  -14.9223 C   0  0  0  0  0  0  0  0  0  0  0  0
   24.3615   -5.4221  -15.7357 C   0  0  0  0  0  0  0  0  0  0  0  0
   24.6406   -6.7431  -16.0077 C   0  0  0  0  0  0  0  0  0  0  0  0
   23.8497   -7.7240  -15.4677 C   0  0  0  0  0  0  0  0  0  0  0  0
   20.0038   -7.7925  -15.4542 C   0  0  0  0  0  0  0  0  0  0  0  0
   20.3693   -7.1221  -16.4796 O   0  0  0  0  0  0  0  0  0  0  0  0
   18.8463   -7.3816  -14.7910 N   0  0  0  0  0  0  0  0  0  0  0  0
   18.3174   -8.0344  -13.5773 C   0  0  0  0  0  0  0  0  0  0  0  0
   16.8845   -8.3129  -14.0513 C   0  0  0  0  0  0  0  0  0  0  0  0
   16.5641   -7.0310  -14.7904 C   0  0  0  0  0  0  0  0  0  0  0  0
   17.8831   -6.3266  -15.0257 C   0  0  1  0  0  0  0  0  0  0  0  0
   18.0895   -5.1879  -14.0812 C   0  0  0  0  0  0  0  0  0  0  0  0
   18.8364   -5.2991  -13.0831 O   0  0  0  0  0  0  0  0  0  0  0  0
   17.4541   -3.9777  -14.2927 O   0  0  0  0  0  0  0  0  0  0  0  0
  2  1  1  0
  3  2  2  0
  4  2  1  0
  5  4  1  0
  5  6  1  1
  7  5  1  0
  7  8  2  0
  9  7  1  0
 10  9  1  0
 10 11  1  1
 11 12  1  0
 12 13  2  0
 12 17  1  0
 13 14  1  0
 14 15  2  0
 16 15  1  0
 17 16  2  0
 18 10  1  0
 19 18  2  0
 20 18  1  0
 20 24  1  0
 21 22  1  0
 21 20  1  0
 22 23  1  0
 23 24  1  0
 24 25  1  1
 25 27  1  0
 26 25  2  0
M  END
$$$$
