NFP.pdb
     RDKit          3D

 27 28  0  0  1  0  0  0  0  0999 V2000
   15.5307   -6.8375  -17.3997 N   0  0  0  0  0  0  0  0  0  0  0  0
   16.5485   -5.8851  -17.6006 C   0  0  0  0  0  0  0  0  0  0  0  0
   16.3237   -4.6760  -17.3597 O   0  0  0  0  0  0  0  0  0  0  0  0
   17.9101   -6.2428  -18.0952 C   0  0  0  0  0  0  0  0  0  0  0  0
   18.8990   -5.4732  -17.2616 C   0  0  2  0  0  0  0  0  0  0  0  0
   18.9641   -4.1181  -17.7365 N   0  0  0  0  0  0  0  0  0  0  0  0
   20.2370   -6.1193  -17.2265 C   0  0  0  0  0  0  0  0  0  0  0  0
   20.9534   -5.9984  -18.2581 O   0  0  0  0  0  0  0  0  0  0  0  0
   20.6930   -6.8358  -16.0975 N   0  0  0  0  0  0  0  0  0  0  0  0
   22.0059   -7.4531  -16.1465 C   0  0  1  0  0  0  0  0  0  0  0  0
   22.7399   -6.9094  -14.9294 C   0  0  0  0  0  0  0  0  0  0  0  0
   23.1763   -5.5206  -15.2235 C   0  0  0  0  0  0  0  0  0  0  0  0
   22.4203   -4.4234  -14.8358 C   0  0  0  0  0  0  0  0  0  0  0  0
   22.8351   -3.1255  -15.1145 C   0  0  0  0  0  0  0  0  0  0  0  0
   24.0204   -2.9017  -15.7899 C   0  0  0  0  0  0  0  0  0  0  0  0
   24.7848   -3.9777  -16.1831 C   0  0  0  0  0  0  0  0  0  0  0  0
   24.3570   -5.2485  -15.8979 C   0  0  0  0  0  0  0  0  0  0  0  0
   21.9222   -8.9265  -16.1203 C   0  0  0  0  0  0  0  0  0  0  0  0
   20.9730   -9.4064  -15.4111 O   0  0  0  0  0  0  0  0  0  0  0  0
   22.7578   -9.8293  -16.7800 N   0  0  0  0  0  0  0  0  0  0  0  0
   23.9796   -9.4378  -17.5099 C   0  0  0  0  0  0  0  0  0  0  0  0
   23.6766  -10.0896  -18.8659 C   0  0  0  0  0  0  0  0  0  0  0  0
   23.0796  -11.4112  -18.4309 C   0  0  0  0  0  0  0  0  0  0  0  0
   22.7267  -11.2647  -16.9662 C   0  0  1  0  0  0  0  0  0  0  0  0
   23.7160  -11.9455  -16.0779 C   0  0  0  0  0  0  0  0  0  0  0  0
   23.6035  -13.1582  -15.7898 O   0  0  0  0  0  0  0  0  0  0  0  0
   24.7851  -11.2433  -15.5516 O   0  0  0  0  0  0  0  0  0  0  0  0
  2  1  1  0
  3  2  2  0
  4  2  1  0
  5  4  1  0
  5  6  1  6
  7  5  1  0
  7  8  2  0
  9  7  1  0
 10  9  1  0
 10 11  1  1
 11 12  1  0
 12 13  2  0
 12 17  1  0
 13 14  1  0
 14 15  2  0
 16 15  1  0
 17 16  2  0
 18 10  1  0
 19 18  2  0
 20 18  1  0
 20 24  1  0
 21 22  1  0
 21 20  1  0
 22 23  1  0
 23 24  1  0
 24 25  1  1
 25 27  1  0
 26 25  2  0
M  END
$$$$
