NFP.pdb
     RDKit          3D

 27 28  0  0  1  0  0  0  0  0999 V2000
   22.8075  -22.1858  -13.8086 N   0  0  0  0  0  0  0  0  0  0  0  0
   22.9000  -21.4460  -12.6139 C   0  0  0  0  0  0  0  0  0  0  0  0
   21.9331  -20.7396  -12.2445 O   0  0  0  0  0  0  0  0  0  0  0  0
   24.1120  -21.4561  -11.7434 C   0  0  0  0  0  0  0  0  0  0  0  0
   24.6519  -20.0515  -11.7217 C   0  0  2  0  0  0  0  0  0  0  0  0
   24.9933  -19.6556  -13.0606 N   0  0  0  0  0  0  0  0  0  0  0  0
   25.7938  -19.8961  -10.7832 C   0  0  0  0  0  0  0  0  0  0  0  0
   26.9229  -19.6635  -11.2961 O   0  0  0  0  0  0  0  0  0  0  0  0
   25.6324  -20.0019   -9.3837 N   0  0  0  0  0  0  0  0  0  0  0  0
   26.8150  -19.9873   -8.5420 C   0  0  1  0  0  0  0  0  0  0  0  0
   26.2820  -19.8985   -7.1194 C   0  0  0  0  0  0  0  0  0  0  0  0
   27.4299  -19.7054   -6.1970 C   0  0  0  0  0  0  0  0  0  0  0  0
   28.0590  -18.4754   -6.0668 C   0  0  0  0  0  0  0  0  0  0  0  0
   29.1336  -18.3017   -5.2011 C   0  0  0  0  0  0  0  0  0  0  0  0
   29.5999  -19.3619   -4.4463 C   0  0  0  0  0  0  0  0  0  0  0  0
   28.9886  -20.5907   -4.5615 C   0  0  0  0  0  0  0  0  0  0  0  0
   27.9311  -20.7395   -5.4210 C   0  0  0  0  0  0  0  0  0  0  0  0
   27.6456  -21.1912   -8.7395 C   0  0  0  0  0  0  0  0  0  0  0  0
   26.9971  -22.2821   -8.8935 O   0  0  0  0  0  0  0  0  0  0  0  0
   29.0395  -21.2561   -8.7756 N   0  0  0  0  0  0  0  0  0  0  0  0
   29.9246  -20.1107   -8.4866 C   0  0  0  0  0  0  0  0  0  0  0  0
   30.7730  -20.1254   -9.7654 C   0  0  0  0  0  0  0  0  0  0  0  0
   30.9912  -21.6113   -9.9574 C   0  0  0  0  0  0  0  0  0  0  0  0
   29.9817  -22.3138   -9.0748 C   0  0  1  0  0  0  0  0  0  0  0  0
   30.6026  -22.8519   -7.8273 C   0  0  0  0  0  0  0  0  0  0  0  0
   30.5472  -22.2189   -6.7490 O   0  0  0  0  0  0  0  0  0  0  0  0
   31.2566  -24.0705   -7.8390 O   0  0  0  0  0  0  0  0  0  0  0  0
  2  1  1  0
  3  2  2  0
  4  2  1  0
  5  4  1  0
  5  6  1  6
  7  5  1  0
  7  8  2  0
  9  7  1  0
 10  9  1  0
 10 11  1  1
 11 12  1  0
 12 13  2  0
 12 17  1  0
 13 14  1  0
 14 15  2  0
 16 15  1  0
 17 16  2  0
 18 10  1  0
 19 18  2  0
 20 18  1  0
 20 24  1  0
 21 22  1  0
 21 20  1  0
 22 23  1  0
 23 24  1  0
 24 25  1  1
 25 27  1  0
 26 25  2  0
M  END
$$$$
