NFP.pdb
     RDKit          3D

 27 28  0  0  1  0  0  0  0  0999 V2000
   15.1417  -12.6836  -16.3532 N   0  0  0  0  0  0  0  0  0  0  0  0
   15.4337  -11.3210  -16.1496 C   0  0  0  0  0  0  0  0  0  0  0  0
   15.3519  -10.5185  -17.1087 O   0  0  0  0  0  0  0  0  0  0  0  0
   15.8443  -10.7666  -14.8265 C   0  0  0  0  0  0  0  0  0  0  0  0
   17.2767  -10.3240  -14.9584 C   0  0  2  0  0  0  0  0  0  0  0  0
   18.1213  -11.4822  -15.0645 N   0  0  0  0  0  0  0  0  0  0  0  0
   17.6972   -9.4234  -13.8534 C   0  0  0  0  0  0  0  0  0  0  0  0
   17.6114   -9.8836  -12.6817 O   0  0  0  0  0  0  0  0  0  0  0  0
   18.1711   -8.1143  -14.0937 N   0  0  0  0  0  0  0  0  0  0  0  0
   18.4667   -7.2600  -12.9580 C   0  0  1  0  0  0  0  0  0  0  0  0
   19.8120   -6.6275  -13.2835 C   0  0  0  0  0  0  0  0  0  0  0  0
   20.8667   -7.6633  -13.1415 C   0  0  0  0  0  0  0  0  0  0  0  0
   21.3853   -8.0077  -11.9013 C   0  0  0  0  0  0  0  0  0  0  0  0
   22.3730   -8.9789  -11.7756 C   0  0  0  0  0  0  0  0  0  0  0  0
   22.8617   -9.6259  -12.8953 C   0  0  0  0  0  0  0  0  0  0  0  0
   22.3597   -9.2980  -14.1352 C   0  0  0  0  0  0  0  0  0  0  0  0
   21.3864   -8.3379  -14.2359 C   0  0  0  0  0  0  0  0  0  0  0  0
   17.4202   -6.2402  -12.7498 C   0  0  0  0  0  0  0  0  0  0  0  0
   16.7690   -5.9050  -13.7977 O   0  0  0  0  0  0  0  0  0  0  0  0
   17.0766   -5.6192  -11.5479 N   0  0  0  0  0  0  0  0  0  0  0  0
   17.7537   -5.8818  -10.2628 C   0  0  0  0  0  0  0  0  0  0  0  0
   16.5300   -6.2354   -9.4067 C   0  0  0  0  0  0  0  0  0  0  0  0
   15.5278   -5.2066   -9.8858 C   0  0  0  0  0  0  0  0  0  0  0  0
   16.0729   -4.6427  -11.1806 C   0  0  1  0  0  0  0  0  0  0  0  0
   16.6787   -3.2900  -10.9947 C   0  0  0  0  0  0  0  0  0  0  0  0
   17.9190   -3.1381  -10.9235 O   0  0  0  0  0  0  0  0  0  0  0  0
   15.8744   -2.1691  -10.8968 O   0  0  0  0  0  0  0  0  0  0  0  0
  2  1  1  0
  3  2  2  0
  4  2  1  0
  5  4  1  0
  5  6  1  1
  7  5  1  0
  7  8  2  0
  9  7  1  0
 10  9  1  0
 10 11  1  6
 11 12  1  0
 12 13  2  0
 12 17  1  0
 13 14  1  0
 14 15  2  0
 16 15  1  0
 17 16  2  0
 18 10  1  0
 19 18  2  0
 20 18  1  0
 20 24  1  0
 21 22  1  0
 21 20  1  0
 22 23  1  0
 23 24  1  0
 24 25  1  1
 25 27  1  0
 26 25  2  0
M  END
$$$$
