NFP.pdb
     RDKit          3D

 27 28  0  0  1  0  0  0  0  0999 V2000
   29.0687  -19.6758  -20.4203 N   0  0  0  0  0  0  0  0  0  0  0  0
   28.0042  -19.4940  -19.5164 C   0  0  0  0  0  0  0  0  0  0  0  0
   27.6002  -18.3363  -19.2576 O   0  0  0  0  0  0  0  0  0  0  0  0
   27.3146  -20.6278  -18.8340 C   0  0  0  0  0  0  0  0  0  0  0  0
   28.2668  -21.1661  -17.8004 C   0  0  2  0  0  0  0  0  0  0  0  0
   28.9831  -22.2828  -18.3535 N   0  0  0  0  0  0  0  0  0  0  0  0
   27.5853  -21.5134  -16.5261 C   0  0  0  0  0  0  0  0  0  0  0  0
   26.9023  -22.5743  -16.5181 O   0  0  0  0  0  0  0  0  0  0  0  0
   27.6914  -20.7014  -15.3748 N   0  0  0  0  0  0  0  0  0  0  0  0
   26.8522  -21.0021  -14.2292 C   0  0  1  0  0  0  0  0  0  0  0  0
   27.5572  -20.3542  -13.0465 C   0  0  0  0  0  0  0  0  0  0  0  0
   26.6927  -20.4955  -11.8472 C   0  0  0  0  0  0  0  0  0  0  0  0
   26.7547  -21.6187  -11.0345 C   0  0  0  0  0  0  0  0  0  0  0  0
   25.9421  -21.7444   -9.9128 C   0  0  0  0  0  0  0  0  0  0  0  0
   25.0483  -20.7427   -9.5829 C   0  0  0  0  0  0  0  0  0  0  0  0
   24.9720  -19.6200  -10.3771 C   0  0  0  0  0  0  0  0  0  0  0  0
   25.7823  -19.5169  -11.4780 C   0  0  0  0  0  0  0  0  0  0  0  0
   25.4816  -20.4817  -14.3997 C   0  0  0  0  0  0  0  0  0  0  0  0
   25.4037  -19.2848  -14.8422 O   0  0  0  0  0  0  0  0  0  0  0  0
   24.2868  -21.1523  -14.1329 N   0  0  0  0  0  0  0  0  0  0  0  0
   24.2138  -22.4828  -13.4979 C   0  0  0  0  0  0  0  0  0  0  0  0
   23.3587  -23.2095  -14.5447 C   0  0  0  0  0  0  0  0  0  0  0  0
   22.3416  -22.1415  -14.8876 C   0  0  0  0  0  0  0  0  0  0  0  0
   22.8924  -20.8346  -14.3584 C   0  0  1  0  0  0  0  0  0  0  0  0
   22.2234  -20.4137  -13.0909 C   0  0  0  0  0  0  0  0  0  0  0  0
   21.1763  -19.7281  -13.1058 O   0  0  0  0  0  0  0  0  0  0  0  0
   22.7520  -20.7761  -11.8653 O   0  0  0  0  0  0  0  0  0  0  0  0
  2  1  1  0
  3  2  2  0
  4  2  1  0
  5  4  1  0
  5  6  1  6
  7  5  1  0
  7  8  2  0
  9  7  1  0
 10  9  1  0
 10 11  1  1
 11 12  1  0
 12 13  2  0
 12 17  1  0
 13 14  1  0
 14 15  2  0
 16 15  1  0
 17 16  2  0
 18 10  1  0
 19 18  2  0
 20 18  1  0
 20 24  1  0
 21 22  1  0
 21 20  1  0
 22 23  1  0
 23 24  1  0
 24 25  1  1
 25 27  1  0
 26 25  2  0
M  END
$$$$
