NFP.pdb
     RDKit          3D

 27 28  0  0  1  0  0  0  0  0999 V2000
   27.0446  -20.1090  -21.2923 N   0  0  0  0  0  0  0  0  0  0  0  0
   26.7083  -20.0207  -19.9277 C   0  0  0  0  0  0  0  0  0  0  0  0
   26.3668  -18.9169  -19.4425 O   0  0  0  0  0  0  0  0  0  0  0  0
   26.7363  -21.1940  -19.0061 C   0  0  0  0  0  0  0  0  0  0  0  0
   27.4854  -20.7685  -17.7721 C   0  0  2  0  0  0  0  0  0  0  0  0
   28.7842  -21.3844  -17.7717 N   0  0  0  0  0  0  0  0  0  0  0  0
   26.7308  -21.0517  -16.5234 C   0  0  0  0  0  0  0  0  0  0  0  0
   26.3995  -22.2521  -16.3198 O   0  0  0  0  0  0  0  0  0  0  0  0
   26.3964  -20.0330  -15.6034 N   0  0  0  0  0  0  0  0  0  0  0  0
   25.6082  -20.3796  -14.4348 C   0  0  1  0  0  0  0  0  0  0  0  0
   26.1123  -19.4570  -13.3346 C   0  0  0  0  0  0  0  0  0  0  0  0
   27.2621  -20.1117  -12.6602 C   0  0  0  0  0  0  0  0  0  0  0  0
   28.5665  -19.9139  -13.0909 C   0  0  0  0  0  0  0  0  0  0  0  0
   29.6386  -20.5303  -12.4546 C   0  0  0  0  0  0  0  0  0  0  0  0
   29.4230  -21.3601  -11.3701 C   0  0  0  0  0  0  0  0  0  0  0  0
   28.1356  -21.5690  -10.9276 C   0  0  0  0  0  0  0  0  0  0  0  0
   27.0937  -20.9514  -11.5697 C   0  0  0  0  0  0  0  0  0  0  0  0
   24.1624  -20.2039  -14.6746 C   0  0  0  0  0  0  0  0  0  0  0  0
   23.8570  -19.3081  -15.5340 O   0  0  0  0  0  0  0  0  0  0  0  0
   23.1173  -20.9046  -14.0704 N   0  0  0  0  0  0  0  0  0  0  0  0
   23.2984  -21.8490  -12.9505 C   0  0  0  0  0  0  0  0  0  0  0  0
   22.6001  -23.0778  -13.5483 C   0  0  0  0  0  0  0  0  0  0  0  0
   21.3985  -22.4399  -14.2128 C   0  0  0  0  0  0  0  0  0  0  0  0
   21.6883  -20.9565  -14.2974 C   0  0  1  0  0  0  0  0  0  0  0  0
   20.9485  -20.1782  -13.2590 C   0  0  0  0  0  0  0  0  0  0  0  0
   19.7323  -19.9136  -13.3895 O   0  0  0  0  0  0  0  0  0  0  0  0
   21.5984  -19.7307  -12.1230 O   0  0  0  0  0  0  0  0  0  0  0  0
  2  1  1  0
  3  2  2  0
  4  2  1  0
  5  4  1  0
  5  6  1  1
  7  5  1  0
  7  8  2  0
  9  7  1  0
 10  9  1  0
 10 11  1  1
 11 12  1  0
 12 13  2  0
 12 17  1  0
 13 14  1  0
 14 15  2  0
 16 15  1  0
 17 16  2  0
 18 10  1  0
 19 18  2  0
 20 18  1  0
 20 24  1  0
 21 22  1  0
 21 20  1  0
 22 23  1  0
 23 24  1  0
 24 25  1  1
 25 27  1  0
 26 25  2  0
M  END
$$$$
