NFP.pdb
     RDKit          3D

 27 28  0  0  1  0  0  0  0  0999 V2000
   24.3660  -17.4995  -17.7624 N   0  0  0  0  0  0  0  0  0  0  0  0
   23.6363  -18.6129  -17.3028 C   0  0  0  0  0  0  0  0  0  0  0  0
   22.5792  -18.9466  -17.8873 O   0  0  0  0  0  0  0  0  0  0  0  0
   24.0606  -19.4362  -16.1329 C   0  0  0  0  0  0  0  0  0  0  0  0
   25.5620  -19.3615  -16.0615 C   0  0  2  0  0  0  0  0  0  0  0  0
   26.1215  -19.9534  -17.2459 N   0  0  0  0  0  0  0  0  0  0  0  0
   26.1031  -19.9739  -14.8201 C   0  0  0  0  0  0  0  0  0  0  0  0
   26.1951  -21.2321  -14.8008 O   0  0  0  0  0  0  0  0  0  0  0  0
   26.4976  -19.1931  -13.7106 N   0  0  0  0  0  0  0  0  0  0  0  0
   26.7806  -19.8607  -12.4531 C   0  0  1  0  0  0  0  0  0  0  0  0
   27.6429  -18.8785  -11.6738 C   0  0  0  0  0  0  0  0  0  0  0  0
   27.8710  -19.4280  -10.3130 C   0  0  0  0  0  0  0  0  0  0  0  0
   28.8457  -20.3854  -10.0695 C   0  0  0  0  0  0  0  0  0  0  0  0
   29.0539  -20.8957   -8.7926 C   0  0  0  0  0  0  0  0  0  0  0  0
   28.2861  -20.4544   -7.7311 C   0  0  0  0  0  0  0  0  0  0  0  0
   27.3137  -19.5045   -7.9525 C   0  0  0  0  0  0  0  0  0  0  0  0
   27.1255  -19.0152   -9.2192 C   0  0  0  0  0  0  0  0  0  0  0  0
   25.5450  -20.2022  -11.7214 C   0  0  0  0  0  0  0  0  0  0  0  0
   24.6406  -19.2986  -11.7267 O   0  0  0  0  0  0  0  0  0  0  0  0
   25.2706  -21.3889  -11.0397 N   0  0  0  0  0  0  0  0  0  0  0  0
   26.2258  -22.5076  -10.9172 C   0  0  0  0  0  0  0  0  0  0  0  0
   25.3434  -23.6451  -11.4488 C   0  0  0  0  0  0  0  0  0  0  0  0
   24.0137  -23.3117  -10.8060 C   0  0  0  0  0  0  0  0  0  0  0  0
   24.1153  -21.8818  -10.3198 C   0  0  1  0  0  0  0  0  0  0  0  0
   24.3259  -21.8029   -8.8431 C   0  0  0  0  0  0  0  0  0  0  0  0
   24.8772  -22.7345   -8.2149 O   0  0  0  0  0  0  0  0  0  0  0  0
   23.9124  -20.6894   -8.1345 O   0  0  0  0  0  0  0  0  0  0  0  0
  2  1  1  0
  3  2  2  0
  4  2  1  0
  5  4  1  0
  5  6  1  6
  7  5  1  0
  7  8  2  0
  9  7  1  0
 10  9  1  0
 10 11  1  1
 11 12  1  0
 12 13  2  0
 12 17  1  0
 13 14  1  0
 14 15  2  0
 16 15  1  0
 17 16  2  0
 18 10  1  0
 19 18  2  0
 20 18  1  0
 20 24  1  0
 21 22  1  0
 21 20  1  0
 22 23  1  0
 23 24  1  0
 24 25  1  1
 25 27  1  0
 26 25  2  0
M  END
$$$$
