SKA.pdb
     RDKit          3D

 21 20  0  0  1  0  0  0  0  0999 V2000
    9.3064  -14.0851   19.8808 O   0  0  0  0  0  0  0  0  0  0  0  0
    8.6160  -13.9109   21.0796 C   0  0  0  0  0  0  0  0  0  0  0  0
    7.6257  -15.0632   21.2267 C   0  0  2  0  0  0  0  0  0  0  0  0
    6.5036  -14.8670   20.3388 N   0  0  0  0  0  0  0  0  0  0  0  0
    7.2287  -15.2620   22.6262 C   0  0  0  0  0  0  0  0  0  0  0  0
    6.3656  -14.5682   23.2198 O   0  0  0  0  0  0  0  0  0  0  0  0
    7.8506  -16.2971   23.3623 N   0  0  0  0  0  0  0  0  0  0  0  0
    7.6565  -16.5096   24.7735 C   0  0  1  0  0  0  0  0  0  0  0  0
    7.6604  -17.9976   25.0196 C   0  0  0  0  0  0  0  0  0  0  0  0
    6.4866  -18.7138   24.4481 C   0  0  0  0  0  0  0  0  0  0  0  0
    6.5542  -20.2132   24.5930 C   0  0  0  0  0  0  0  0  0  0  0  0
    5.4065  -20.9200   23.9624 C   0  0  0  0  0  0  0  0  0  0  0  0
    5.4748  -22.3550   24.0448 N   0  0  0  0  0  0  0  0  0  0  0  0
    8.7217  -15.8741   25.5894 C   0  0  0  0  0  0  0  0  0  0  0  0
    9.9273  -15.9958   25.2515 O   0  0  0  0  0  0  0  0  0  0  0  0
    8.9148  -13.1468   28.0870 C   0  0  0  0  0  0  0  0  0  0  0  0
    9.4713  -14.4432   27.5302 C   0  0  2  0  0  0  0  0  0  0  0  0
    8.4624  -15.1138   26.7633 N   0  0  0  0  0  0  0  0  0  0  0  0
   10.0941  -15.2774   28.5545 C   0  0  0  0  0  0  0  0  0  0  0  0
    9.6042  -16.4069   28.8077 O   0  0  0  0  0  0  0  0  0  0  0  0
   11.2129  -14.8928   29.2779 O   0  0  0  0  0  0  0  0  0  0  0  0
  1  2  1  0
  2  3  1  0
  3  4  1  6
  5  3  1  0
  5  7  1  0
  6  5  2  0
  8  7  1  0
  8 14  1  0
  8  9  1  6
 10  9  1  0
 11 10  1  0
 12 11  1  0
 13 12  1  0
 14 15  2  0
 17 16  1  1
 17 19  1  0
 18 14  1  0
 18 17  1  0
 19 21  1  0
 20 19  2  0
M  END
$$$$
