SKA.pdb
     RDKit          3D

 21 20  0  0  1  0  0  0  0  0999 V2000
    9.9939  -13.8822   19.3495 O   0  0  0  0  0  0  0  0  0  0  0  0
    9.3779  -13.6280   20.5743 C   0  0  0  0  0  0  0  0  0  0  0  0
    8.0512  -14.3825   20.6017 C   0  0  2  0  0  0  0  0  0  0  0  0
    7.0885  -13.7210   19.7524 N   0  0  0  0  0  0  0  0  0  0  0  0
    7.5702  -14.5842   21.9743 C   0  0  0  0  0  0  0  0  0  0  0  0
    6.8080  -13.7887   22.5785 O   0  0  0  0  0  0  0  0  0  0  0  0
    7.9847  -15.7437   22.6698 N   0  0  0  0  0  0  0  0  0  0  0  0
    7.6359  -16.0293   24.0377 C   0  0  1  0  0  0  0  0  0  0  0  0
    7.5747  -17.5282   24.1936 C   0  0  0  0  0  0  0  0  0  0  0  0
    6.3085  -18.1415   23.7055 C   0  0  0  0  0  0  0  0  0  0  0  0
    6.2612  -19.6421   23.8456 C   0  0  0  0  0  0  0  0  0  0  0  0
    5.0291  -20.2502   23.2743 C   0  0  0  0  0  0  0  0  0  0  0  0
    5.0110  -21.6889   23.2977 N   0  0  0  0  0  0  0  0  0  0  0  0
    8.6243  -15.4757   24.9972 C   0  0  0  0  0  0  0  0  0  0  0  0
    9.8464  -15.7420   24.8624 O   0  0  0  0  0  0  0  0  0  0  0  0
    8.6472  -12.8095   27.6210 C   0  0  0  0  0  0  0  0  0  0  0  0
    9.2129  -14.0812   27.0184 C   0  0  2  0  0  0  0  0  0  0  0  0
    8.2713  -14.6389   26.0920 N   0  0  0  0  0  0  0  0  0  0  0  0
    9.6849  -15.0244   28.0286 C   0  0  0  0  0  0  0  0  0  0  0  0
    9.0706  -16.1090   28.1904 O   0  0  0  0  0  0  0  0  0  0  0  0
   10.7893  -14.7925   28.8346 O   0  0  0  0  0  0  0  0  0  0  0  0
  1  2  1  0
  2  3  1  0
  3  4  1  6
  5  3  1  0
  5  7  1  0
  6  5  2  0
  8  7  1  0
  8 14  1  0
  8  9  1  6
 10  9  1  0
 11 10  1  0
 12 11  1  0
 13 12  1  0
 14 15  2  0
 17 16  1  1
 17 19  1  0
 18 14  1  0
 18 17  1  0
 19 21  1  0
 20 19  2  0
M  END
$$$$
