SKA.pdb
     RDKit          3D

 21 20  0  0  1  0  0  0  0  0999 V2000
    9.9399  -14.0851   17.1903 O   0  0  0  0  0  0  0  0  0  0  0  0
    8.8757  -14.7140   16.5452 C   0  0  0  0  0  0  0  0  0  0  0  0
    7.5984  -14.3921   17.3167 C   0  0  2  0  0  0  0  0  0  0  0  0
    7.2812  -12.9893   17.1844 N   0  0  0  0  0  0  0  0  0  0  0  0
    7.6814  -14.8376   18.7133 C   0  0  0  0  0  0  0  0  0  0  0  0
    7.5515  -14.0772   19.7050 O   0  0  0  0  0  0  0  0  0  0  0  0
    7.9225  -16.2073   18.9702 N   0  0  0  0  0  0  0  0  0  0  0  0
    7.8264  -16.8104   20.2746 C   0  0  1  0  0  0  0  0  0  0  0  0
    7.7948  -18.3067   20.0884 C   0  0  0  0  0  0  0  0  0  0  0  0
    6.5655  -18.8125   19.4171 C   0  0  0  0  0  0  0  0  0  0  0  0
    6.5742  -20.2988   19.1626 C   0  0  0  0  0  0  0  0  0  0  0  0
    5.3433  -20.7894   18.4855 C   0  0  0  0  0  0  0  0  0  0  0  0
    5.3617  -22.1917   18.1628 N   0  0  0  0  0  0  0  0  0  0  0  0
    8.9716  -16.4482   21.1472 C   0  0  0  0  0  0  0  0  0  0  0  0
   10.1436  -16.4864   20.6919 O   0  0  0  0  0  0  0  0  0  0  0  0
    9.4354  -14.8044   24.4818 C   0  0  0  0  0  0  0  0  0  0  0  0
    9.9222  -15.7104   23.3671 C   0  0  2  0  0  0  0  0  0  0  0  0
    8.8278  -16.0487   22.5047 N   0  0  0  0  0  0  0  0  0  0  0  0
   10.6698  -16.8636   23.8614 C   0  0  0  0  0  0  0  0  0  0  0  0
   11.6917  -16.6754   24.5686 O   0  0  0  0  0  0  0  0  0  0  0  0
   10.3148  -18.1771   23.5935 O   0  0  0  0  0  0  0  0  0  0  0  0
  1  2  1  0
  2  3  1  0
  3  4  1  1
  5  3  1  0
  5  7  1  0
  6  5  2  0
  8  7  1  0
  8 14  1  0
  8  9  1  6
 10  9  1  0
 11 10  1  0
 12 11  1  0
 13 12  1  0
 14 15  2  0
 17 16  1  1
 17 19  1  0
 18 14  1  0
 18 17  1  0
 19 21  1  0
 20 19  2  0
M  END
$$$$
