SKA.pdb
     RDKit          3D

 21 20  0  0  1  0  0  0  0  0999 V2000
   10.5693  -13.7381   17.7258 O   0  0  0  0  0  0  0  0  0  0  0  0
    9.8776  -13.7535   18.9363 C   0  0  0  0  0  0  0  0  0  0  0  0
    8.4542  -14.2316   18.6614 C   0  0  2  0  0  0  0  0  0  0  0  0
    7.7605  -13.2703   17.8365 N   0  0  0  0  0  0  0  0  0  0  0  0
    7.7398  -14.5508   19.9038 C   0  0  0  0  0  0  0  0  0  0  0  0
    7.0464  -13.7263   20.5504 O   0  0  0  0  0  0  0  0  0  0  0  0
    7.8308  -15.8666   20.4142 N   0  0  0  0  0  0  0  0  0  0  0  0
    7.1749  -16.3102   21.6173 C   0  0  1  0  0  0  0  0  0  0  0  0
    7.0766  -17.8141   21.5600 C   0  0  0  0  0  0  0  0  0  0  0  0
    6.5260  -18.4373   22.7952 C   0  0  0  0  0  0  0  0  0  0  0  0
    6.4013  -19.9382   22.7206 C   0  0  0  0  0  0  0  0  0  0  0  0
    5.6862  -20.5301   23.8836 C   0  0  0  0  0  0  0  0  0  0  0  0
    5.5155  -21.9573   23.8123 N   0  0  0  0  0  0  0  0  0  0  0  0
    7.9159  -15.9127   22.8408 C   0  0  0  0  0  0  0  0  0  0  0  0
    9.1447  -16.1636   22.9392 O   0  0  0  0  0  0  0  0  0  0  0  0
    7.1762  -13.8200   25.8848 C   0  0  0  0  0  0  0  0  0  0  0  0
    8.0180  -14.8191   25.1145 C   0  0  2  0  0  0  0  0  0  0  0  0
    7.3111  -15.2469   23.9427 N   0  0  0  0  0  0  0  0  0  0  0  0
    8.5027  -15.9139   25.9509 C   0  0  0  0  0  0  0  0  0  0  0  0
    7.8883  -17.0104   25.9436 O   0  0  0  0  0  0  0  0  0  0  0  0
    9.6195  -15.8160   26.7671 O   0  0  0  0  0  0  0  0  0  0  0  0
  1  2  1  0
  2  3  1  0
  3  4  1  1
  5  3  1  0
  5  7  1  0
  6  5  2  0
  8  7  1  0
  8 14  1  0
  8  9  1  6
 10  9  1  0
 11 10  1  0
 12 11  1  0
 13 12  1  0
 14 15  2  0
 17 16  1  1
 17 19  1  0
 18 14  1  0
 18 17  1  0
 19 21  1  0
 20 19  2  0
M  END
$$$$
