SKA.pdb
     RDKit          3D

 21 20  0  0  1  0  0  0  0  0999 V2000
   10.4347  -13.8005   18.8861 O   0  0  0  0  0  0  0  0  0  0  0  0
    9.6602  -13.3164   19.9396 C   0  0  0  0  0  0  0  0  0  0  0  0
    8.2946  -13.9953   19.8733 C   0  0  2  0  0  0  0  0  0  0  0  0
    7.4183  -13.2582   18.9931 N   0  0  0  0  0  0  0  0  0  0  0  0
    7.7278  -14.2056   21.2113 C   0  0  0  0  0  0  0  0  0  0  0  0
    7.0027  -13.3716   21.8091 O   0  0  0  0  0  0  0  0  0  0  0  0
    8.0094  -15.4202   21.8789 N   0  0  0  0  0  0  0  0  0  0  0  0
    7.4871  -15.7654   23.1760 C   0  0  1  0  0  0  0  0  0  0  0  0
    7.6383  -17.2557   23.3512 C   0  0  0  0  0  0  0  0  0  0  0  0
    7.2030  -17.7611   24.6825 C   0  0  0  0  0  0  0  0  0  0  0  0
    7.4280  -19.2389   24.8800 C   0  0  0  0  0  0  0  0  0  0  0  0
    6.9585  -19.7366   26.2014 C   0  0  0  0  0  0  0  0  0  0  0  0
    7.1760  -21.1426   26.4181 N   0  0  0  0  0  0  0  0  0  0  0  0
    8.2018  -15.0668   24.2738 C   0  0  0  0  0  0  0  0  0  0  0  0
    9.4581  -15.1030   24.3271 O   0  0  0  0  0  0  0  0  0  0  0  0
    7.3350  -12.4761   26.8238 C   0  0  0  0  0  0  0  0  0  0  0  0
    8.2151  -13.6115   26.3373 C   0  0  2  0  0  0  0  0  0  0  0  0
    7.5410  -14.3371   25.3006 N   0  0  0  0  0  0  0  0  0  0  0  0
    8.7103  -14.4496   27.4261 C   0  0  0  0  0  0  0  0  0  0  0  0
    9.3667  -13.9205   28.3583 O   0  0  0  0  0  0  0  0  0  0  0  0
    8.4968  -15.8180   27.4956 O   0  0  0  0  0  0  0  0  0  0  0  0
  1  2  1  0
  2  3  1  0
  3  4  1  6
  5  3  1  0
  5  7  1  0
  6  5  2  0
  8  7  1  0
  8 14  1  0
  8  9  1  1
 10  9  1  0
 11 10  1  0
 12 11  1  0
 13 12  1  0
 14 15  2  0
 17 16  1  1
 17 19  1  0
 18 14  1  0
 18 17  1  0
 19 21  1  0
 20 19  2  0
M  END
$$$$
