SKA.pdb
     RDKit          3D

 21 20  0  0  1  0  0  0  0  0999 V2000
    8.7351  -13.0196   15.6950 O   0  0  0  0  0  0  0  0  0  0  0  0
    8.4479  -13.6643   16.8975 C   0  0  0  0  0  0  0  0  0  0  0  0
    8.6085  -15.1664   16.6786 C   0  0  2  0  0  0  0  0  0  0  0  0
    7.7042  -15.6150   15.6457 N   0  0  0  0  0  0  0  0  0  0  0  0
    8.4707  -15.9153   17.9340 C   0  0  0  0  0  0  0  0  0  0  0  0
    7.3693  -16.2134   18.4601 O   0  0  0  0  0  0  0  0  0  0  0  0
    9.6453  -16.3327   18.6019 N   0  0  0  0  0  0  0  0  0  0  0  0
    9.6489  -17.1294   19.8017 C   0  0  1  0  0  0  0  0  0  0  0  0
   10.3360  -18.4342   19.4856 C   0  0  0  0  0  0  0  0  0  0  0  0
   11.7494  -18.2876   19.0403 C   0  0  0  0  0  0  0  0  0  0  0  0
   12.4358  -19.5963   18.7402 C   0  0  0  0  0  0  0  0  0  0  0  0
   13.8066  -19.4308   18.1855 C   0  0  0  0  0  0  0  0  0  0  0  0
   14.4717  -20.6665   17.8669 N   0  0  0  0  0  0  0  0  0  0  0  0
   10.3591  -16.4587   20.9198 C   0  0  0  0  0  0  0  0  0  0  0  0
   11.4467  -15.8641   20.7051 O   0  0  0  0  0  0  0  0  0  0  0  0
    9.6093  -15.5330   24.4775 C   0  0  0  0  0  0  0  0  0  0  0  0
   10.5838  -15.8647   23.3637 C   0  0  2  0  0  0  0  0  0  0  0  0
    9.8774  -16.4430   22.2580 N   0  0  0  0  0  0  0  0  0  0  0  0
   11.7208  -16.6572   23.8244 C   0  0  0  0  0  0  0  0  0  0  0  0
   11.7611  -17.8851   23.5588 O   0  0  0  0  0  0  0  0  0  0  0  0
   12.7776  -16.1284   24.5500 O   0  0  0  0  0  0  0  0  0  0  0  0
  1  2  1  0
  2  3  1  0
  3  4  1  6
  5  3  1  0
  5  7  1  0
  6  5  2  0
  8  7  1  0
  8 14  1  0
  8  9  1  6
 10  9  1  0
 11 10  1  0
 12 11  1  0
 13 12  1  0
 14 15  2  0
 17 16  1  1
 17 19  1  0
 18 14  1  0
 18 17  1  0
 19 21  1  0
 20 19  2  0
M  END
$$$$
