SKA.pdb
     RDKit          3D

 21 20  0  0  1  0  0  0  0  0999 V2000
   10.4594  -18.6908   19.3198 O   0  0  0  0  0  0  0  0  0  0  0  0
    9.5889  -19.4606   18.5492 C   0  0  0  0  0  0  0  0  0  0  0  0
    8.3864  -18.5932   18.1858 C   0  0  2  0  0  0  0  0  0  0  0  0
    8.8184  -17.4416   17.4288 N   0  0  0  0  0  0  0  0  0  0  0  0
    7.5926  -18.2428   19.3703 C   0  0  0  0  0  0  0  0  0  0  0  0
    7.4427  -17.0707   19.7974 O   0  0  0  0  0  0  0  0  0  0  0  0
    6.9517  -19.2825   20.0833 N   0  0  0  0  0  0  0  0  0  0  0  0
    6.1528  -19.0752   21.2637 C   0  0  1  0  0  0  0  0  0  0  0  0
    5.2779  -20.2900   21.4463 C   0  0  0  0  0  0  0  0  0  0  0  0
    4.4615  -20.2725   22.6916 C   0  0  0  0  0  0  0  0  0  0  0  0
    3.6208  -21.5085   22.8899 C   0  0  0  0  0  0  0  0  0  0  0  0
    2.7957  -21.4693   24.1276 C   0  0  0  0  0  0  0  0  0  0  0  0
    2.0121  -22.6544   24.3569 N   0  0  0  0  0  0  0  0  0  0  0  0
    6.9843  -18.8816   22.4783 C   0  0  0  0  0  0  0  0  0  0  0  0
    7.9486  -19.6561   22.7082 O   0  0  0  0  0  0  0  0  0  0  0  0
    7.2556  -16.2824   25.1966 C   0  0  0  0  0  0  0  0  0  0  0  0
    7.5400  -17.6533   24.6134 C   0  0  2  0  0  0  0  0  0  0  0  0
    6.7566  -17.8477   23.4283 N   0  0  0  0  0  0  0  0  0  0  0  0
    7.4083  -18.7248   25.5971 C   0  0  0  0  0  0  0  0  0  0  0  0
    6.3575  -19.4141   25.6170 O   0  0  0  0  0  0  0  0  0  0  0  0
    8.3894  -19.0338   26.5271 O   0  0  0  0  0  0  0  0  0  0  0  0
  1  2  1  0
  2  3  1  0
  3  4  1  1
  5  3  1  0
  5  7  1  0
  6  5  2  0
  8  7  1  0
  8 14  1  0
  8  9  1  1
 10  9  1  0
 11 10  1  0
 12 11  1  0
 13 12  1  0
 14 15  2  0
 17 16  1  1
 17 19  1  0
 18 14  1  0
 18 17  1  0
 19 21  1  0
 20 19  2  0
M  END
$$$$
