SKA.pdb
     RDKit          3D

 21 20  0  0  1  0  0  0  0  0999 V2000
    8.6966  -19.8819   17.0759 O   0  0  0  0  0  0  0  0  0  0  0  0
    8.4437  -19.5259   18.4001 C   0  0  0  0  0  0  0  0  0  0  0  0
    7.3201  -18.4926   18.4055 C   0  0  2  0  0  0  0  0  0  0  0  0
    7.6615  -17.3865   17.5419 N   0  0  0  0  0  0  0  0  0  0  0  0
    6.9728  -18.0760   19.7700 C   0  0  0  0  0  0  0  0  0  0  0  0
    7.4687  -17.0780   20.3503 O   0  0  0  0  0  0  0  0  0  0  0  0
    6.0211  -18.8390   20.4856 N   0  0  0  0  0  0  0  0  0  0  0  0
    5.5927  -18.5377   21.8273 C   0  0  1  0  0  0  0  0  0  0  0  0
    4.3219  -19.3069   22.0881 C   0  0  0  0  0  0  0  0  0  0  0  0
    3.1992  -18.9590   21.1738 C   0  0  0  0  0  0  0  0  0  0  0  0
    1.9460  -19.7640   21.4089 C   0  0  0  0  0  0  0  0  0  0  0  0
    0.8523  -19.4478   20.4507 C   0  0  0  0  0  0  0  0  0  0  0  0
   -0.3646  -20.1826   20.6749 N   0  0  0  0  0  0  0  0  0  0  0  0
    6.6109  -18.9136   22.8402 C   0  0  0  0  0  0  0  0  0  0  0  0
    7.2555  -19.9864   22.7134 O   0  0  0  0  0  0  0  0  0  0  0  0
    8.7145  -17.2664   25.3449 C   0  0  0  0  0  0  0  0  0  0  0  0
    7.8758  -18.4767   24.9816 C   0  0  2  0  0  0  0  0  0  0  0  0
    6.9156  -18.1177   23.9791 N   0  0  0  0  0  0  0  0  0  0  0  0
    7.2990  -19.1365   26.1499 C   0  0  0  0  0  0  0  0  0  0  0  0
    6.0526  -19.1195   26.3115 O   0  0  0  0  0  0  0  0  0  0  0  0
    8.0559  -19.7922   27.1092 O   0  0  0  0  0  0  0  0  0  0  0  0
  1  2  1  0
  2  3  1  0
  3  4  1  6
  5  3  1  0
  5  7  1  0
  6  5  2  0
  8  7  1  0
  8 14  1  0
  8  9  1  1
 10  9  1  0
 11 10  1  0
 12 11  1  0
 13 12  1  0
 14 15  2  0
 17 16  1  1
 17 19  1  0
 18 14  1  0
 18 17  1  0
 19 21  1  0
 20 19  2  0
M  END
$$$$
