SKA.pdb
     RDKit          3D

 21 20  0  0  1  0  0  0  0  0999 V2000
   15.9666  -18.2709   23.6662 O   0  0  0  0  0  0  0  0  0  0  0  0
   15.5914  -16.9588   23.9521 C   0  0  0  0  0  0  0  0  0  0  0  0
   14.5816  -16.5152   22.8968 C   0  0  2  0  0  0  0  0  0  0  0  0
   15.2405  -15.7241   21.8839 N   0  0  0  0  0  0  0  0  0  0  0  0
   13.4278  -15.8374   23.5011 C   0  0  0  0  0  0  0  0  0  0  0  0
   13.4284  -14.6357   23.8678 O   0  0  0  0  0  0  0  0  0  0  0  0
   12.2351  -16.5743   23.6868 N   0  0  0  0  0  0  0  0  0  0  0  0
   11.0454  -16.0391   24.2973 C   0  0  1  0  0  0  0  0  0  0  0  0
    9.8803  -16.8907   23.8590 C   0  0  0  0  0  0  0  0  0  0  0  0
    9.5425  -16.7658   22.4141 C   0  0  0  0  0  0  0  0  0  0  0  0
    8.4365  -17.6858   21.9622 C   0  0  0  0  0  0  0  0  0  0  0  0
    8.1707  -17.6160   20.4997 C   0  0  0  0  0  0  0  0  0  0  0  0
    7.1803  -18.5489   20.0309 N   0  0  0  0  0  0  0  0  0  0  0  0
   11.1249  -16.0411   25.7799 C   0  0  0  0  0  0  0  0  0  0  0  0
   11.6559  -17.0119   26.3782 O   0  0  0  0  0  0  0  0  0  0  0  0
   10.1625  -13.6503   28.5496 C   0  0  0  0  0  0  0  0  0  0  0  0
   10.6904  -14.9722   28.0259 C   0  0  2  0  0  0  0  0  0  0  0  0
   10.6256  -14.9867   26.5936 N   0  0  0  0  0  0  0  0  0  0  0  0
   10.0596  -16.1252   28.6627 C   0  0  0  0  0  0  0  0  0  0  0  0
   10.3479  -16.4025   29.8543 O   0  0  0  0  0  0  0  0  0  0  0  0
    9.1455  -16.9478   28.0216 O   0  0  0  0  0  0  0  0  0  0  0  0
  1  2  1  0
  2  3  1  0
  3  4  1  6
  5  3  1  0
  5  7  1  0
  6  5  2  0
  8  7  1  0
  8 14  1  0
  8  9  1  1
 10  9  1  0
 11 10  1  0
 12 11  1  0
 13 12  1  0
 14 15  2  0
 17 16  1  1
 17 19  1  0
 18 14  1  0
 18 17  1  0
 19 21  1  0
 20 19  2  0
M  END
$$$$
