TQM.pdb
     RDKit          3D

 25 24  0  0  1  0  0  0  0  0999 V2000
    7.9218  -13.0615   18.8204 C   0  0  0  0  0  0  0  0  0  0  0  0
    8.3297  -13.8338   20.0629 C   0  0  1  0  0  0  0  0  0  0  0  0
    7.6006  -13.3240   21.1320 O   0  0  0  0  0  0  0  0  0  0  0  0
    8.0470  -15.2798   19.8086 C   0  0  2  0  0  0  0  0  0  0  0  0
    6.6938  -15.5652   19.4191 N   0  0  0  0  0  0  0  0  0  0  0  0
    8.4444  -16.1445   20.9703 C   0  0  0  0  0  0  0  0  0  0  0  0
    7.5790  -16.7239   21.6752 O   0  0  0  0  0  0  0  0  0  0  0  0
   14.1500  -18.7183   21.5892 N   0  0  0  0  0  0  0  0  0  0  0  0
   13.5119  -19.1028   22.7923 C   0  0  0  0  0  0  0  0  0  0  0  0
   14.1252  -19.8463   23.5837 O   0  0  0  0  0  0  0  0  0  0  0  0
   12.1563  -18.6396   23.1075 C   0  0  0  0  0  0  0  0  0  0  0  0
   11.5500  -17.7244   22.1010 C   0  0  0  0  0  0  0  0  0  0  0  0
   10.1760  -17.2306   22.4138 C   0  0  2  0  0  0  0  0  0  0  0  0
    9.8032  -16.3371   21.3123 N   0  0  0  0  0  0  0  0  0  0  0  0
   10.1163  -16.4163   23.6698 C   0  0  0  0  0  0  0  0  0  0  0  0
   10.6734  -15.2872   23.6584 O   0  0  0  0  0  0  0  0  0  0  0  0
    6.2738  -11.6893   27.1600 C   0  0  0  0  0  0  0  0  0  0  0  0
    7.3272  -12.6246   26.0253 S   0  0  0  0  0  0  0  0  0  0  0  0
    8.0078  -14.0941   26.8775 C   0  0  0  0  0  0  0  0  0  0  0  0
    8.0359  -15.2768   25.9534 C   0  0  0  0  0  0  0  0  0  0  0  0
    9.3649  -15.9483   25.9740 C   0  0  2  0  0  0  0  0  0  0  0  0
    9.4601  -16.8902   24.8318 N   0  0  0  0  0  0  0  0  0  0  0  0
    9.5414  -16.7541   27.1960 C   0  0  0  0  0  0  0  0  0  0  0  0
   10.1746  -16.3363   28.1869 O   0  0  0  0  0  0  0  0  0  0  0  0
    8.9776  -18.0433   27.2543 O   0  0  0  0  0  0  0  0  0  0  0  0
  2  1  1  6
  3  2  1  0
  4  5  1  1
  4  6  1  0
  4  2  1  0
  6 14  1  0
  7  6  2  0
  9  8  1  0
 10  9  2  0
 11  9  1  0
 12 11  1  0
 13 12  1  6
 14 13  1  0
 15 22  1  0
 15 13  1  0
 16 15  2  0
 18 17  1  0
 18 19  1  0
 19 20  1  0
 21 20  1  1
 21 22  1  0
 21 23  1  0
 23 25  1  0
 24 23  2  0
M  END
$$$$
