TQM.pdb
     RDKit          3D

 25 24  0  0  1  0  0  0  0  0999 V2000
    9.4414  -12.6498   20.1628 C   0  0  0  0  0  0  0  0  0  0  0  0
    8.2687  -13.0840   19.3009 C   0  0  1  0  0  0  0  0  0  0  0  0
    8.2357  -12.2516   18.1872 O   0  0  0  0  0  0  0  0  0  0  0  0
    8.4795  -14.5202   18.9423 C   0  0  2  0  0  0  0  0  0  0  0  0
    7.5512  -15.0377   17.9754 N   0  0  0  0  0  0  0  0  0  0  0  0
    8.5104  -15.4051   20.1552 C   0  0  0  0  0  0  0  0  0  0  0  0
    7.4486  -15.8418   20.6684 O   0  0  0  0  0  0  0  0  0  0  0  0
   11.3014  -20.3176   21.4144 N   0  0  0  0  0  0  0  0  0  0  0  0
   11.4768  -19.7840   22.7132 C   0  0  0  0  0  0  0  0  0  0  0  0
   11.7611  -20.5613   23.6461 O   0  0  0  0  0  0  0  0  0  0  0  0
   11.3281  -18.3463   22.9635 C   0  0  0  0  0  0  0  0  0  0  0  0
   10.9568  -17.5317   21.7734 C   0  0  0  0  0  0  0  0  0  0  0  0
    9.7459  -16.6713   21.9249 C   0  0  2  0  0  0  0  0  0  0  0  0
    9.7323  -15.7777   20.7622 N   0  0  0  0  0  0  0  0  0  0  0  0
    9.7947  -15.7975   23.1409 C   0  0  0  0  0  0  0  0  0  0  0  0
   10.7108  -14.9359   23.2019 O   0  0  0  0  0  0  0  0  0  0  0  0
    5.8784  -11.7017   25.6084 C   0  0  0  0  0  0  0  0  0  0  0  0
    7.3877  -11.6624   26.6046 S   0  0  0  0  0  0  0  0  0  0  0  0
    8.0333  -13.3609   26.8221 C   0  0  0  0  0  0  0  0  0  0  0  0
    7.9310  -14.1348   25.5400 C   0  0  0  0  0  0  0  0  0  0  0  0
    9.0671  -15.0857   25.3897 C   0  0  2  0  0  0  0  0  0  0  0  0
    8.8503  -15.9282   24.1879 N   0  0  0  0  0  0  0  0  0  0  0  0
    9.1519  -16.0079   26.5368 C   0  0  0  0  0  0  0  0  0  0  0  0
    8.9169  -17.2290   26.4319 O   0  0  0  0  0  0  0  0  0  0  0  0
    9.5106  -15.4994   27.8002 O   0  0  0  0  0  0  0  0  0  0  0  0
  2  1  1  1
  3  2  1  0
  4  5  1  6
  4  6  1  0
  4  2  1  0
  6 14  1  0
  7  6  2  0
  9  8  1  0
 10  9  2  0
 11  9  1  0
 12 11  1  0
 13 12  1  6
 14 13  1  0
 15 22  1  0
 15 13  1  0
 16 15  2  0
 18 17  1  0
 18 19  1  0
 19 20  1  0
 21 20  1  1
 21 22  1  0
 21 23  1  0
 23 25  1  0
 24 23  2  0
M  END
$$$$
