TQM.pdb
     RDKit          3D

 25 24  0  0  1  0  0  0  0  0999 V2000
    9.1919  -12.6706   20.1837 C   0  0  0  0  0  0  0  0  0  0  0  0
    8.2760  -13.1089   19.0543 C   0  0  1  0  0  0  0  0  0  0  0  0
    8.4424  -12.2098   18.0063 O   0  0  0  0  0  0  0  0  0  0  0  0
    8.6555  -14.5063   18.6819 C   0  0  2  0  0  0  0  0  0  0  0  0
    7.9551  -15.0331   17.5433 N   0  0  0  0  0  0  0  0  0  0  0  0
    8.5387  -15.4506   19.8438 C   0  0  0  0  0  0  0  0  0  0  0  0
    7.4351  -15.9696   20.1509 O   0  0  0  0  0  0  0  0  0  0  0  0
   12.6108  -19.6791   21.5130 N   0  0  0  0  0  0  0  0  0  0  0  0
   11.7283  -19.7081   22.6188 C   0  0  0  0  0  0  0  0  0  0  0  0
   11.8829  -20.5923   23.4846 O   0  0  0  0  0  0  0  0  0  0  0  0
   10.6512  -18.7210   22.7492 C   0  0  0  0  0  0  0  0  0  0  0  0
   10.5602  -17.7329   21.6386 C   0  0  0  0  0  0  0  0  0  0  0  0
    9.5213  -16.6718   21.7943 C   0  0  2  0  0  0  0  0  0  0  0  0
    9.6631  -15.7885   20.6322 N   0  0  0  0  0  0  0  0  0  0  0  0
    9.7276  -15.8218   23.0107 C   0  0  0  0  0  0  0  0  0  0  0  0
   10.8007  -15.1677   23.0884 O   0  0  0  0  0  0  0  0  0  0  0  0
    5.5615  -11.9807   25.4340 C   0  0  0  0  0  0  0  0  0  0  0  0
    6.9287  -11.6274   26.5644 S   0  0  0  0  0  0  0  0  0  0  0  0
    8.1222  -13.0145   26.5490 C   0  0  0  0  0  0  0  0  0  0  0  0
    7.9611  -13.8383   25.3045 C   0  0  0  0  0  0  0  0  0  0  0  0
    9.0550  -14.8402   25.1733 C   0  0  2  0  0  0  0  0  0  0  0  0
    8.7578  -15.7503   24.0400 N   0  0  0  0  0  0  0  0  0  0  0  0
    9.1546  -15.6882   26.3753 C   0  0  0  0  0  0  0  0  0  0  0  0
    8.8137  -16.8886   26.3769 O   0  0  0  0  0  0  0  0  0  0  0  0
    9.6517  -15.1298   27.5688 O   0  0  0  0  0  0  0  0  0  0  0  0
  2  1  1  1
  3  2  1  0
  4  5  1  6
  4  6  1  0
  4  2  1  0
  6 14  1  0
  7  6  2  0
  9  8  1  0
 10  9  2  0
 11  9  1  0
 12 11  1  0
 13 12  1  6
 14 13  1  0
 15 22  1  0
 15 13  1  0
 16 15  2  0
 18 17  1  0
 18 19  1  0
 19 20  1  0
 21 20  1  1
 21 22  1  0
 21 23  1  0
 23 25  1  0
 24 23  2  0
M  END
$$$$
