TQM.pdb
     RDKit          3D

 25 24  0  0  1  0  0  0  0  0999 V2000
    8.9035  -16.0163   18.5621 C   0  0  0  0  0  0  0  0  0  0  0  0
    8.6998  -15.9924   20.0670 C   0  0  1  0  0  0  0  0  0  0  0  0
    9.1139  -14.7468   20.5266 O   0  0  0  0  0  0  0  0  0  0  0  0
    7.2513  -16.2528   20.3305 C   0  0  2  0  0  0  0  0  0  0  0  0
    6.3510  -15.3506   19.6673 N   0  0  0  0  0  0  0  0  0  0  0  0
    6.9458  -16.3015   21.8001 C   0  0  0  0  0  0  0  0  0  0  0  0
    6.3752  -15.3410   22.3774 O   0  0  0  0  0  0  0  0  0  0  0  0
    7.3334  -21.6047   25.3577 N   0  0  0  0  0  0  0  0  0  0  0  0
    6.6942  -20.6423   26.1747 C   0  0  0  0  0  0  0  0  0  0  0  0
    6.0968  -21.0289   27.1989 O   0  0  0  0  0  0  0  0  0  0  0  0
    6.7296  -19.2173   25.8288 C   0  0  0  0  0  0  0  0  0  0  0  0
    6.9174  -18.9217   24.3813 C   0  0  0  0  0  0  0  0  0  0  0  0
    6.9440  -17.4758   24.0098 C   0  0  2  0  0  0  0  0  0  0  0  0
    7.2885  -17.4270   22.5851 N   0  0  0  0  0  0  0  0  0  0  0  0
    8.0010  -16.7019   24.7366 C   0  0  0  0  0  0  0  0  0  0  0  0
    9.1719  -16.7412   24.2751 O   0  0  0  0  0  0  0  0  0  0  0  0
    6.2122  -10.4163   26.0304 C   0  0  0  0  0  0  0  0  0  0  0  0
    6.5934  -11.8153   27.1117 S   0  0  0  0  0  0  0  0  0  0  0  0
    7.8819  -12.8625   26.3424 C   0  0  0  0  0  0  0  0  0  0  0  0
    8.2448  -14.0054   27.2456 C   0  0  0  0  0  0  0  0  0  0  0  0
    8.8105  -15.1464   26.4739 C   0  0  2  0  0  0  0  0  0  0  0  0
    7.7042  -15.9514   25.9002 N   0  0  0  0  0  0  0  0  0  0  0  0
    9.5807  -16.0544   27.3434 C   0  0  0  0  0  0  0  0  0  0  0  0
    9.1863  -17.2041   27.6260 O   0  0  0  0  0  0  0  0  0  0  0  0
   10.8072  -15.6150   27.8782 O   0  0  0  0  0  0  0  0  0  0  0  0
  2  1  1  6
  3  2  1  0
  4  5  1  6
  4  6  1  0
  4  2  1  0
  6 14  1  0
  7  6  2  0
  9  8  1  0
 10  9  2  0
 11  9  1  0
 12 11  1  0
 13 12  1  1
 14 13  1  0
 15 22  1  0
 15 13  1  0
 16 15  2  0
 18 17  1  0
 18 19  1  0
 19 20  1  0
 21 20  1  1
 21 22  1  0
 21 23  1  0
 23 25  1  0
 24 23  2  0
M  END
$$$$
