TQM.pdb
     RDKit          3D

 25 24  0  0  1  0  0  0  0  0999 V2000
    9.1881  -12.6983   20.4289 C   0  0  0  0  0  0  0  0  0  0  0  0
    7.7975  -13.0852   19.9566 C   0  0  1  0  0  0  0  0  0  0  0  0
    7.4701  -12.2539   18.8907 O   0  0  0  0  0  0  0  0  0  0  0  0
    7.8372  -14.5294   19.5716 C   0  0  2  0  0  0  0  0  0  0  0  0
    6.6184  -15.0292   18.9979 N   0  0  0  0  0  0  0  0  0  0  0  0
    8.2693  -15.4051   20.7125 C   0  0  0  0  0  0  0  0  0  0  0  0
    7.4335  -15.8629   21.5331 O   0  0  0  0  0  0  0  0  0  0  0  0
   14.2154  -17.7884   21.4051 N   0  0  0  0  0  0  0  0  0  0  0  0
   13.3653  -18.5336   22.2563 C   0  0  0  0  0  0  0  0  0  0  0  0
   13.7592  -19.6401   22.6757 O   0  0  0  0  0  0  0  0  0  0  0  0
   12.0460  -18.0204   22.6407 C   0  0  0  0  0  0  0  0  0  0  0  0
   11.3655  -17.1884   21.6099 C   0  0  0  0  0  0  0  0  0  0  0  0
   10.0262  -16.6481   21.9891 C   0  0  2  0  0  0  0  0  0  0  0  0
    9.6287  -15.7449   20.9042 N   0  0  0  0  0  0  0  0  0  0  0  0
   10.0568  -15.8294   23.2434 C   0  0  0  0  0  0  0  0  0  0  0  0
   10.3260  -14.6044   23.1324 O   0  0  0  0  0  0  0  0  0  0  0  0
    5.6478  -13.0945   26.0572 C   0  0  0  0  0  0  0  0  0  0  0  0
    7.2461  -12.3547   26.4693 S   0  0  0  0  0  0  0  0  0  0  0  0
    8.4863  -13.6707   26.7502 C   0  0  0  0  0  0  0  0  0  0  0  0
    8.6507  -14.5150   25.5199 C   0  0  0  0  0  0  0  0  0  0  0  0
    9.7772  -15.4773   25.6705 C   0  0  2  0  0  0  0  0  0  0  0  0
    9.7943  -16.4029   24.5113 N   0  0  0  0  0  0  0  0  0  0  0  0
    9.6116  -16.3153   26.8722 C   0  0  0  0  0  0  0  0  0  0  0  0
    9.3469  -17.5331   26.8068 O   0  0  0  0  0  0  0  0  0  0  0  0
    9.7559  -15.7269   28.1435 O   0  0  0  0  0  0  0  0  0  0  0  0
  2  1  1  6
  3  2  1  0
  4  5  1  1
  4  6  1  0
  4  2  1  0
  6 14  1  0
  7  6  2  0
  9  8  1  0
 10  9  2  0
 11  9  1  0
 12 11  1  0
 13 12  1  6
 14 13  1  0
 15 22  1  0
 15 13  1  0
 16 15  2  0
 18 17  1  0
 18 19  1  0
 19 20  1  0
 21 20  1  6
 21 22  1  0
 21 23  1  0
 23 25  1  0
 24 23  2  0
M  END
$$$$
