TQM.pdb
     RDKit          3D

 25 24  0  0  1  0  0  0  0  0999 V2000
    8.7597  -11.8542   18.7512 C   0  0  0  0  0  0  0  0  0  0  0  0
    8.8355  -12.9007   19.8494 C   0  0  1  0  0  0  0  0  0  0  0  0
    8.1891  -12.3835   20.9670 O   0  0  0  0  0  0  0  0  0  0  0  0
    8.1879  -14.1452   19.3323 C   0  0  2  0  0  0  0  0  0  0  0  0
    6.8715  -13.9534   18.7895 N   0  0  0  0  0  0  0  0  0  0  0  0
    8.1694  -15.2397   20.3604 C   0  0  0  0  0  0  0  0  0  0  0  0
    7.0869  -15.6580   20.8448 O   0  0  0  0  0  0  0  0  0  0  0  0
   12.5095  -19.6418   20.8972 N   0  0  0  0  0  0  0  0  0  0  0  0
   11.2294  -19.8465   20.3301 C   0  0  0  0  0  0  0  0  0  0  0  0
   11.0617  -20.8182   19.5665 O   0  0  0  0  0  0  0  0  0  0  0  0
   10.1181  -18.9373   20.6302 C   0  0  0  0  0  0  0  0  0  0  0  0
   10.4516  -17.8105   21.5451 C   0  0  0  0  0  0  0  0  0  0  0  0
    9.3329  -16.8723   21.8578 C   0  0  2  0  0  0  0  0  0  0  0  0
    9.3663  -15.8373   20.8194 N   0  0  0  0  0  0  0  0  0  0  0  0
    9.5033  -16.1722   23.1713 C   0  0  0  0  0  0  0  0  0  0  0  0
   10.0811  -15.0536   23.1639 O   0  0  0  0  0  0  0  0  0  0  0  0
    7.0890  -10.8669   26.4129 C   0  0  0  0  0  0  0  0  0  0  0  0
    6.6647  -12.6225   26.3129 S   0  0  0  0  0  0  0  0  0  0  0  0
    7.9513  -13.5201   25.3706 C   0  0  0  0  0  0  0  0  0  0  0  0
    7.6356  -14.9863   25.3074 C   0  0  0  0  0  0  0  0  0  0  0  0
    8.8552  -15.8124   25.5258 C   0  0  2  0  0  0  0  0  0  0  0  0
    9.0353  -16.7394   24.3815 N   0  0  0  0  0  0  0  0  0  0  0  0
    8.7260  -16.6543   26.7293 C   0  0  0  0  0  0  0  0  0  0  0  0
    8.1728  -17.7727   26.7068 O   0  0  0  0  0  0  0  0  0  0  0  0
    9.2433  -16.1856   27.9524 O   0  0  0  0  0  0  0  0  0  0  0  0
  2  1  1  6
  3  2  1  0
  4  5  1  1
  4  6  1  0
  4  2  1  0
  6 14  1  0
  7  6  2  0
  9  8  1  0
 10  9  2  0
 11  9  1  0
 12 11  1  0
 13 12  1  6
 14 13  1  0
 15 22  1  0
 15 13  1  0
 16 15  2  0
 18 17  1  0
 18 19  1  0
 19 20  1  0
 21 20  1  6
 21 22  1  0
 21 23  1  0
 23 25  1  0
 24 23  2  0
M  END
$$$$
