TQM.pdb
     RDKit          3D

 25 24  0  0  1  0  0  0  0  0999 V2000
    8.2338  -12.4112   19.8059 C   0  0  0  0  0  0  0  0  0  0  0  0
    7.4676  -13.2246   18.7773 C   0  0  1  0  0  0  0  0  0  0  0  0
    6.9532  -12.3364   17.8388 O   0  0  0  0  0  0  0  0  0  0  0  0
    8.4210  -14.2088   18.1789 C   0  0  2  0  0  0  0  0  0  0  0  0
    7.8979  -14.9447   17.0612 N   0  0  0  0  0  0  0  0  0  0  0  0
    8.9747  -15.1533   19.2068 C   0  0  0  0  0  0  0  0  0  0  0  0
    8.5412  -16.3294   19.3092 O   0  0  0  0  0  0  0  0  0  0  0  0
   14.5456  -16.6470   19.8634 N   0  0  0  0  0  0  0  0  0  0  0  0
   14.1314  -15.2940   19.8513 C   0  0  0  0  0  0  0  0  0  0  0  0
   14.9394  -14.4243   19.4691 O   0  0  0  0  0  0  0  0  0  0  0  0
   12.7802  -14.9158   20.2791 C   0  0  0  0  0  0  0  0  0  0  0  0
   11.8965  -16.0516   20.6624 C   0  0  0  0  0  0  0  0  0  0  0  0
   10.5181  -15.6843   21.1036 C   0  0  2  0  0  0  0  0  0  0  0  0
   10.0010  -14.7542   20.0944 N   0  0  0  0  0  0  0  0  0  0  0  0
   10.4948  -14.9573   22.4133 C   0  0  0  0  0  0  0  0  0  0  0  0
   10.6606  -13.7093   22.3892 O   0  0  0  0  0  0  0  0  0  0  0  0
    6.6320  -12.1188   27.0711 C   0  0  0  0  0  0  0  0  0  0  0  0
    7.8365  -12.7848   25.8975 S   0  0  0  0  0  0  0  0  0  0  0  0
    7.0854  -14.1563   24.9468 C   0  0  0  0  0  0  0  0  0  0  0  0
    8.0711  -14.7243   23.9675 C   0  0  0  0  0  0  0  0  0  0  0  0
    9.3831  -14.9973   24.6169 C   0  0  2  0  0  0  0  0  0  0  0  0
   10.2945  -15.6394   23.6380 N   0  0  0  0  0  0  0  0  0  0  0  0
    9.2414  -15.9433   25.7388 C   0  0  0  0  0  0  0  0  0  0  0  0
    9.4391  -15.6086   26.9247 O   0  0  0  0  0  0  0  0  0  0  0  0
    8.8696  -17.2748   25.4700 O   0  0  0  0  0  0  0  0  0  0  0  0
  2  1  1  1
  3  2  1  0
  4  5  1  6
  4  6  1  0
  4  2  1  0
  6 14  1  0
  7  6  2  0
  9  8  1  0
 10  9  2  0
 11  9  1  0
 12 11  1  0
 13 12  1  6
 14 13  1  0
 15 22  1  0
 15 13  1  0
 16 15  2  0
 18 17  1  0
 18 19  1  0
 19 20  1  0
 21 20  1  6
 21 22  1  0
 21 23  1  0
 23 25  1  0
 24 23  2  0
M  END
$$$$
