TQM.pdb
     RDKit          3D

 25 24  0  0  1  0  0  0  0  0999 V2000
    9.4137  -12.5056   20.3256 C   0  0  0  0  0  0  0  0  0  0  0  0
    8.3491  -12.8410   19.2957 C   0  0  1  0  0  0  0  0  0  0  0  0
    8.4989  -11.9553   18.2339 O   0  0  0  0  0  0  0  0  0  0  0  0
    8.5462  -14.2667   18.8907 C   0  0  2  0  0  0  0  0  0  0  0  0
    7.7024  -14.7046   17.8134 N   0  0  0  0  0  0  0  0  0  0  0  0
    8.4260  -15.2055   20.0566 C   0  0  0  0  0  0  0  0  0  0  0  0
    7.3250  -15.7362   20.3528 O   0  0  0  0  0  0  0  0  0  0  0  0
   12.6531  -19.9242   23.4513 N   0  0  0  0  0  0  0  0  0  0  0  0
   11.6788  -19.5745   22.4866 C   0  0  0  0  0  0  0  0  0  0  0  0
   11.6911  -20.1587   21.3848 O   0  0  0  0  0  0  0  0  0  0  0  0
   10.6724  -18.5458   22.7707 C   0  0  0  0  0  0  0  0  0  0  0  0
   10.5100  -17.5100   21.7131 C   0  0  0  0  0  0  0  0  0  0  0  0
    9.4281  -16.5072   21.9442 C   0  0  2  0  0  0  0  0  0  0  0  0
    9.5443  -15.5249   20.8614 N   0  0  0  0  0  0  0  0  0  0  0  0
    9.5898  -15.7544   23.2294 C   0  0  0  0  0  0  0  0  0  0  0  0
   10.5825  -14.9869   23.3334 O   0  0  0  0  0  0  0  0  0  0  0  0
    6.2554  -11.3842   26.8690 C   0  0  0  0  0  0  0  0  0  0  0  0
    5.7916  -12.5839   25.5972 S   0  0  0  0  0  0  0  0  0  0  0  0
    7.2814  -13.4608   24.9969 C   0  0  0  0  0  0  0  0  0  0  0  0
    7.7638  -14.4474   26.0203 C   0  0  0  0  0  0  0  0  0  0  0  0
    8.9791  -15.1667   25.5478 C   0  0  2  0  0  0  0  0  0  0  0  0
    8.6658  -15.8944   24.2934 N   0  0  0  0  0  0  0  0  0  0  0  0
    9.4156  -16.1830   26.5226 C   0  0  0  0  0  0  0  0  0  0  0  0
    9.7843  -15.8869   27.6775 O   0  0  0  0  0  0  0  0  0  0  0  0
    9.4193  -17.5394   26.1437 O   0  0  0  0  0  0  0  0  0  0  0  0
  2  1  1  1
  3  2  1  0
  4  5  1  6
  4  6  1  0
  4  2  1  0
  6 14  1  0
  7  6  2  0
  9  8  1  0
 10  9  2  0
 11  9  1  0
 12 11  1  0
 13 12  1  6
 14 13  1  0
 15 22  1  0
 15 13  1  0
 16 15  2  0
 18 17  1  0
 18 19  1  0
 19 20  1  0
 21 20  1  1
 21 22  1  0
 21 23  1  0
 23 25  1  0
 24 23  2  0
M  END
$$$$
