QCP.pdb
     RDKit          3D

 23 23  0  0  1  0  0  0  0  0999 V2000
   19.4590   -9.7214  -20.8388 N   0  0  0  0  0  0  0  0  0  0  0  0
   18.3414  -10.3382  -20.2031 C   0  0  0  0  0  0  0  0  0  0  0  0
   17.2083  -10.4274  -20.7084 O   0  0  0  0  0  0  0  0  0  0  0  0
   18.5665  -10.9080  -18.8426 C   0  0  0  0  0  0  0  0  0  0  0  0
   20.0135  -10.7435  -18.4924 C   0  0  0  0  0  0  0  0  0  0  0  0
   20.3463  -11.1052  -17.0850 C   0  0  2  0  0  0  0  0  0  0  0  0
   19.6231  -12.3474  -16.7831 N   0  0  0  0  0  0  0  0  0  0  0  0
   19.9828  -10.0530  -16.1112 C   0  0  0  0  0  0  0  0  0  0  0  0
   18.8303  -10.0074  -15.6509 O   0  0  0  0  0  0  0  0  0  0  0  0
   20.9388   -9.0800  -15.6861 N   0  0  0  0  0  0  0  0  0  0  0  0
   20.5409   -8.1090  -14.6778 C   0  0  1  0  0  0  0  0  0  0  0  0
   20.9372   -8.7142  -13.3493 C   0  0  0  0  0  0  0  0  0  0  0  0
   20.7220   -7.5825  -11.9693 S   0  0  0  0  0  0  0  0  0  0  0  0
   21.1922   -6.8126  -14.9596 C   0  0  0  0  0  0  0  0  0  0  0  0
   22.4148   -6.8853  -15.3470 O   0  0  0  0  0  0  0  0  0  0  0  0
   20.6244   -5.5412  -14.8508 N   0  0  0  0  0  0  0  0  0  0  0  0
   19.2484   -5.3081  -14.3622 C   0  0  0  0  0  0  0  0  0  0  0  0
   18.7207   -4.4336  -15.4995 C   0  0  0  0  0  0  0  0  0  0  0  0
   19.8918   -3.5050  -15.7284 C   0  0  0  0  0  0  0  0  0  0  0  0
   21.1022   -4.2213  -15.1348 C   0  0  1  0  0  0  0  0  0  0  0  0
   21.4912   -3.4896  -13.8838 C   0  0  0  0  0  0  0  0  0  0  0  0
   21.9604   -2.3346  -14.0414 O   0  0  0  0  0  0  0  0  0  0  0  0
   21.3584   -4.0164  -12.6165 O   0  0  0  0  0  0  0  0  0  0  0  0
  2  1  1  0
  2  3  2  0
  4  2  1  0
  5  4  1  0
  5  6  1  0
  6  7  1  1
  8  6  1  0
  8  9  2  0
 10  8  1  0
 11 14  1  0
 11 10  1  0
 11 12  1  1
 13 12  1  0
 14 16  1  0
 15 14  2  0
 16 20  1  0
 17 16  1  0
 18 19  1  0
 18 17  1  0
 19 20  1  0
 20 21  1  1
 21 23  1  0
 22 21  2  0
M  END
$$$$
