QCP.pdb
     RDKit          3D

 23 23  0  0  1  0  0  0  0  0999 V2000
   35.5046   -9.3793  -22.2810 N   0  0  0  0  0  0  0  0  0  0  0  0
   34.7027   -9.2454  -21.1093 C   0  0  0  0  0  0  0  0  0  0  0  0
   34.6161   -8.2046  -20.4338 O   0  0  0  0  0  0  0  0  0  0  0  0
   33.9236  -10.4441  -20.6822 C   0  0  0  0  0  0  0  0  0  0  0  0
   34.8221  -11.3324  -19.8777 C   0  0  0  0  0  0  0  0  0  0  0  0
   34.1952  -11.8742  -18.6385 C   0  0  2  0  0  0  0  0  0  0  0  0
   32.9101  -12.4643  -19.0354 N   0  0  0  0  0  0  0  0  0  0  0  0
   33.9852  -10.8477  -17.5946 C   0  0  0  0  0  0  0  0  0  0  0  0
   32.8317  -10.5129  -17.2792 O   0  0  0  0  0  0  0  0  0  0  0  0
   35.0920  -10.2285  -16.9364 N   0  0  0  0  0  0  0  0  0  0  0  0
   34.8229   -9.2981  -15.8504 C   0  0  1  0  0  0  0  0  0  0  0  0
   35.4811   -9.8970  -14.6271 C   0  0  0  0  0  0  0  0  0  0  0  0
   35.5733   -8.7500  -13.2460 S   0  0  0  0  0  0  0  0  0  0  0  0
   35.3388   -7.9605  -16.2094 C   0  0  0  0  0  0  0  0  0  0  0  0
   36.3639   -7.9573  -16.9836 O   0  0  0  0  0  0  0  0  0  0  0  0
   34.8343   -6.7236  -15.8018 N   0  0  0  0  0  0  0  0  0  0  0  0
   33.6617   -6.5807  -14.9125 C   0  0  0  0  0  0  0  0  0  0  0  0
   32.8303   -5.6044  -15.7445 C   0  0  0  0  0  0  0  0  0  0  0  0
   33.8891   -4.6257  -16.2000 C   0  0  0  0  0  0  0  0  0  0  0  0
   35.2160   -5.3687  -16.0655 C   0  0  1  0  0  0  0  0  0  0  0  0
   35.9566   -4.7644  -14.9087 C   0  0  0  0  0  0  0  0  0  0  0  0
   35.5361   -5.0666  -13.7637 O   0  0  0  0  0  0  0  0  0  0  0  0
   37.0394   -3.9224  -15.0491 O   0  0  0  0  0  0  0  0  0  0  0  0
  2  1  1  0
  2  3  2  0
  4  2  1  0
  5  4  1  0
  5  6  1  0
  6  7  1  6
  8  6  1  0
  8  9  2  0
 10  8  1  0
 11 14  1  0
 11 10  1  0
 11 12  1  1
 13 12  1  0
 14 16  1  0
 15 14  2  0
 16 20  1  0
 17 16  1  0
 18 19  1  0
 18 17  1  0
 19 20  1  0
 20 21  1  1
 21 23  1  0
 22 21  2  0
M  END
$$$$
