QCP.pdb
     RDKit          3D

 23 23  0  0  1  0  0  0  0  0999 V2000
   22.7263  -20.7897  -10.3229 N   0  0  0  0  0  0  0  0  0  0  0  0
   21.4106  -21.3356  -10.3922 C   0  0  0  0  0  0  0  0  0  0  0  0
   20.9567  -22.1753   -9.5947 O   0  0  0  0  0  0  0  0  0  0  0  0
   20.5364  -20.8549  -11.5017 C   0  0  0  0  0  0  0  0  0  0  0  0
   21.2725  -19.7938  -12.2605 C   0  0  0  0  0  0  0  0  0  0  0  0
   21.8050  -20.2433  -13.5783 C   0  0  2  0  0  0  0  0  0  0  0  0
   21.4983  -21.6750  -13.6946 N   0  0  0  0  0  0  0  0  0  0  0  0
   23.2593  -20.0189  -13.7267 C   0  0  0  0  0  0  0  0  0  0  0  0
   23.7142  -18.8640  -13.6888 O   0  0  0  0  0  0  0  0  0  0  0  0
   24.1588  -21.1133  -13.9142 N   0  0  0  0  0  0  0  0  0  0  0  0
   25.5556  -20.8234  -14.2011 C   0  0  1  0  0  0  0  0  0  0  0  0
   26.3076  -22.1015  -13.9018 C   0  0  0  0  0  0  0  0  0  0  0  0
   27.9167  -22.1735  -14.7000 S   0  0  0  0  0  0  0  0  0  0  0  0
   25.6861  -20.3698  -15.6016 C   0  0  0  0  0  0  0  0  0  0  0  0
   24.7900  -20.8136  -16.4080 O   0  0  0  0  0  0  0  0  0  0  0  0
   26.6647  -19.5232  -16.1271 N   0  0  0  0  0  0  0  0  0  0  0  0
   27.7768  -18.9734  -15.3225 C   0  0  0  0  0  0  0  0  0  0  0  0
   27.6271  -17.4908  -15.6633 C   0  0  0  0  0  0  0  0  0  0  0  0
   27.3808  -17.5519  -17.1539 C   0  0  0  0  0  0  0  0  0  0  0  0
   26.8954  -18.9729  -17.4291 C   0  0  1  0  0  0  0  0  0  0  0  0
   27.9958  -19.6941  -18.1507 C   0  0  0  0  0  0  0  0  0  0  0  0
   28.2186  -19.3247  -19.3309 O   0  0  0  0  0  0  0  0  0  0  0  0
   28.7430  -20.7079  -17.5893 O   0  0  0  0  0  0  0  0  0  0  0  0
  2  1  1  0
  2  3  2  0
  4  2  1  0
  5  4  1  0
  5  6  1  0
  6  7  1  1
  8  6  1  0
  8  9  2  0
 10  8  1  0
 11 14  1  0
 11 10  1  0
 11 12  1  6
 13 12  1  0
 14 16  1  0
 15 14  2  0
 16 20  1  0
 17 16  1  0
 18 19  1  0
 18 17  1  0
 19 20  1  0
 20 21  1  1
 21 23  1  0
 22 21  2  0
M  END
$$$$
