QCP.pdb
     RDKit          3D

 23 23  0  0  1  0  0  0  0  0999 V2000
   25.0447  -34.9632  -12.4843 N   0  0  0  0  0  0  0  0  0  0  0  0
   25.3854  -33.6142  -12.1719 C   0  0  0  0  0  0  0  0  0  0  0  0
   26.4122  -33.0389  -12.5743 O   0  0  0  0  0  0  0  0  0  0  0  0
   24.4348  -32.8600  -11.3036 C   0  0  0  0  0  0  0  0  0  0  0  0
   23.3490  -33.7940  -10.8653 C   0  0  0  0  0  0  0  0  0  0  0  0
   22.3120  -33.1622  -10.0004 C   0  0  2  0  0  0  0  0  0  0  0  0
   21.6945  -32.0898  -10.7917 N   0  0  0  0  0  0  0  0  0  0  0  0
   22.8585  -32.6163   -8.7391 C   0  0  0  0  0  0  0  0  0  0  0  0
   22.6181  -31.4410   -8.4180 O   0  0  0  0  0  0  0  0  0  0  0  0
   23.6641  -33.4207   -7.8756 N   0  0  0  0  0  0  0  0  0  0  0  0
   23.9858  -32.9112   -6.5510 C   0  0  1  0  0  0  0  0  0  0  0  0
   22.6590  -32.7496   -5.8424 C   0  0  0  0  0  0  0  0  0  0  0  0
   21.8552  -34.3184   -5.4896 S   0  0  0  0  0  0  0  0  0  0  0  0
   24.9114  -33.8451   -5.8763 C   0  0  0  0  0  0  0  0  0  0  0  0
   24.9750  -35.0211   -6.3893 O   0  0  0  0  0  0  0  0  0  0  0  0
   25.7093  -33.5840   -4.7602 N   0  0  0  0  0  0  0  0  0  0  0  0
   25.5743  -32.3639   -3.9359 C   0  0  0  0  0  0  0  0  0  0  0  0
   27.0304  -31.8986   -3.9320 C   0  0  0  0  0  0  0  0  0  0  0  0
   27.7591  -33.2044   -3.7078 C   0  0  0  0  0  0  0  0  0  0  0  0
   26.7765  -34.2962   -4.1238 C   0  0  1  0  0  0  0  0  0  0  0  0
   26.3158  -34.9888   -2.8749 C   0  0  0  0  0  0  0  0  0  0  0  0
   25.1480  -34.7238   -2.4938 O   0  0  0  0  0  0  0  0  0  0  0  0
   27.0953  -35.8710   -2.1571 O   0  0  0  0  0  0  0  0  0  0  0  0
  2  1  1  0
  2  3  2  0
  4  2  1  0
  5  4  1  0
  5  6  1  0
  6  7  1  6
  8  6  1  0
  8  9  2  0
 10  8  1  0
 11 14  1  0
 11 10  1  0
 11 12  1  1
 13 12  1  0
 14 16  1  0
 15 14  2  0
 16 20  1  0
 17 16  1  0
 18 19  1  0
 18 17  1  0
 19 20  1  0
 20 21  1  1
 21 23  1  0
 22 21  2  0
M  END
$$$$
