QCP.pdb
     RDKit          3D

 23 23  0  0  1  0  0  0  0  0999 V2000
   15.1881  -27.4557    3.6124 N   0  0  0  0  0  0  0  0  0  0  0  0
   13.8228  -27.0518    3.5323 C   0  0  0  0  0  0  0  0  0  0  0  0
   12.8645  -27.8369    3.4210 O   0  0  0  0  0  0  0  0  0  0  0  0
   13.5465  -25.5866    3.5873 C   0  0  0  0  0  0  0  0  0  0  0  0
   14.8392  -24.8683    3.8252 C   0  0  0  0  0  0  0  0  0  0  0  0
   15.3259  -24.0830    2.6552 C   0  0  2  0  0  0  0  0  0  0  0  0
   15.7579  -25.0542    1.6415 N   0  0  0  0  0  0  0  0  0  0  0  0
   16.4371  -23.1661    2.9902 C   0  0  0  0  0  0  0  0  0  0  0  0
   17.5791  -23.6185    3.1724 O   0  0  0  0  0  0  0  0  0  0  0  0
   16.2210  -21.7587    3.1093 N   0  0  0  0  0  0  0  0  0  0  0  0
   17.3585  -20.9045    3.4163 C   0  0  1  0  0  0  0  0  0  0  0  0
   17.1621  -19.6512    2.5921 C   0  0  0  0  0  0  0  0  0  0  0  0
   18.2098  -18.2901    3.1223 S   0  0  0  0  0  0  0  0  0  0  0  0
   17.4092  -20.6576    4.8726 C   0  0  0  0  0  0  0  0  0  0  0  0
   16.2949  -20.8080    5.4938 O   0  0  0  0  0  0  0  0  0  0  0  0
   18.5238  -20.2858    5.6275 N   0  0  0  0  0  0  0  0  0  0  0  0
   19.8828  -20.1624    5.0582 C   0  0  0  0  0  0  0  0  0  0  0  0
   20.6538  -21.0301    6.0528 C   0  0  0  0  0  0  0  0  0  0  0  0
   20.0545  -20.5807    7.3663 C   0  0  0  0  0  0  0  0  0  0  0  0
   18.7117  -19.9496    7.0069 C   0  0  1  0  0  0  0  0  0  0  0  0
   18.8417  -18.4678    7.2053 C   0  0  0  0  0  0  0  0  0  0  0  0
   19.0095  -17.7828    6.1652 O   0  0  0  0  0  0  0  0  0  0  0  0
   18.7860  -17.8530    8.4382 O   0  0  0  0  0  0  0  0  0  0  0  0
  2  1  1  0
  2  3  2  0
  4  2  1  0
  5  4  1  0
  5  6  1  0
  6  7  1  6
  8  6  1  0
  8  9  2  0
 10  8  1  0
 11 14  1  0
 11 10  1  0
 11 12  1  6
 13 12  1  0
 14 16  1  0
 15 14  2  0
 16 20  1  0
 17 16  1  0
 18 19  1  0
 18 17  1  0
 19 20  1  0
 20 21  1  6
 21 23  1  0
 22 21  2  0
M  END
$$$$
