QCP.pdb
     RDKit          3D

 23 23  0  0  1  0  0  0  0  0999 V2000
   18.2227  -14.4716  -14.2151 N   0  0  0  0  0  0  0  0  0  0  0  0
   17.3838  -14.8247  -15.3129 C   0  0  0  0  0  0  0  0  0  0  0  0
   16.4542  -15.6487  -15.2487 O   0  0  0  0  0  0  0  0  0  0  0  0
   17.6551  -14.1502  -16.6159 C   0  0  0  0  0  0  0  0  0  0  0  0
   18.7630  -13.1620  -16.4173 C   0  0  0  0  0  0  0  0  0  0  0  0
   18.3034  -11.7526  -16.2592 C   0  0  2  0  0  0  0  0  0  0  0  0
   17.6272  -11.3833  -17.5097 N   0  0  0  0  0  0  0  0  0  0  0  0
   19.4060  -10.8082  -15.9767 C   0  0  0  0  0  0  0  0  0  0  0  0
   20.2088  -11.0503  -15.0606 O   0  0  0  0  0  0  0  0  0  0  0  0
   19.5674   -9.6129  -16.7429 N   0  0  0  0  0  0  0  0  0  0  0  0
   20.6529   -8.7074  -16.3977 C   0  0  1  0  0  0  0  0  0  0  0  0
   21.4615   -8.5376  -17.6650 C   0  0  0  0  0  0  0  0  0  0  0  0
   20.4689   -8.0051  -19.0659 S   0  0  0  0  0  0  0  0  0  0  0  0
   20.0919   -7.4437  -15.8755 C   0  0  0  0  0  0  0  0  0  0  0  0
   18.8408   -7.2629  -16.1038 O   0  0  0  0  0  0  0  0  0  0  0  0
   20.7701   -6.4461  -15.1717 N   0  0  0  0  0  0  0  0  0  0  0  0
   22.2193   -6.5011  -14.8834 C   0  0  0  0  0  0  0  0  0  0  0  0
   22.1872   -6.2523  -13.3755 C   0  0  0  0  0  0  0  0  0  0  0  0
   21.1708   -5.1369  -13.2799 C   0  0  0  0  0  0  0  0  0  0  0  0
   20.3605   -5.2119  -14.5716 C   0  0  1  0  0  0  0  0  0  0  0  0
   20.7430   -4.0303  -15.4137 C   0  0  0  0  0  0  0  0  0  0  0  0
   21.5871   -4.2461  -16.3193 O   0  0  0  0  0  0  0  0  0  0  0  0
   20.2234   -2.7652  -15.2383 O   0  0  0  0  0  0  0  0  0  0  0  0
  2  1  1  0
  2  3  2  0
  4  2  1  0
  5  4  1  0
  5  6  1  0
  6  7  1  6
  8  6  1  0
  8  9  2  0
 10  8  1  0
 11 14  1  0
 11 10  1  0
 11 12  1  6
 13 12  1  0
 14 16  1  0
 15 14  2  0
 16 20  1  0
 17 16  1  0
 18 19  1  0
 18 17  1  0
 19 20  1  0
 20 21  1  6
 21 23  1  0
 22 21  2  0
M  END
$$$$
