MMI.pdb
     RDKit          3D

 25 24  0  0  1  0  0  0  0  0999 V2000
    9.8118  -20.8122   22.0759 C   0  0  0  0  0  0  0  0  0  0  0  0
   11.2873  -20.2266   21.2158 S   0  0  0  0  0  0  0  0  0  0  0  0
   11.1937  -18.4091   21.0858 C   0  0  0  0  0  0  0  0  0  0  0  0
    9.7470  -18.0587   20.7980 C   0  0  0  0  0  0  0  0  0  0  0  0
    9.6565  -16.5639   20.6493 C   0  0  2  0  0  0  0  0  0  0  0  0
   10.7581  -16.0364   19.8705 N   0  0  0  0  0  0  0  0  0  0  0  0
    9.6767  -15.8733   21.9730 C   0  0  0  0  0  0  0  0  0  0  0  0
   10.7171  -15.2981   22.4219 O   0  0  0  0  0  0  0  0  0  0  0  0
    5.5204  -12.5504   26.3885 C   0  0  0  0  0  0  0  0  0  0  0  0
    6.6234  -12.3483   24.9661 S   0  0  0  0  0  0  0  0  0  0  0  0
    6.4675  -13.7792   23.8276 C   0  0  0  0  0  0  0  0  0  0  0  0
    7.1489  -14.9255   24.5083 C   0  0  0  0  0  0  0  0  0  0  0  0
    8.5706  -15.1555   24.1204 C   0  0  2  0  0  0  0  0  0  0  0  0
    8.5318  -15.8178   22.8121 N   0  0  0  0  0  0  0  0  0  0  0  0
    9.1980  -16.0781   25.1042 C   0  0  0  0  0  0  0  0  0  0  0  0
    9.4277  -17.2856   24.9004 O   0  0  0  0  0  0  0  0  0  0  0  0
   10.3090  -13.1779   29.2796 C   0  0  0  0  0  0  0  0  0  0  0  0
   10.9601  -14.1744   28.3287 C   0  0  0  0  0  0  0  0  0  0  0  0
   10.5148  -15.5666   28.6301 C   0  0  2  0  0  0  0  0  0  0  0  0
   11.3936  -16.2655   29.6318 C   0  0  0  0  0  0  0  0  0  0  0  0
   10.2468  -16.3843   27.3883 C   0  0  2  0  0  0  0  0  0  0  0  0
    9.5788  -15.5864   26.3865 N   0  0  0  0  0  0  0  0  0  0  0  0
    9.5723  -17.6679   27.6438 C   0  0  0  0  0  0  0  0  0  0  0  0
    8.3160  -17.7443   27.5794 O   0  0  0  0  0  0  0  0  0  0  0  0
   10.2316  -18.8445   27.9609 O   0  0  0  0  0  0  0  0  0  0  0  0
  1  2  1  0
  3  2  1  0
  3  4  1  0
  5  6  1  6
  5  4  1  0
  7  5  1  0
  8  7  2  0
 10  9  1  0
 10 11  1  0
 12 11  1  0
 13 12  1  1
 13 14  1  0
 14  7  1  0
 15 13  1  0
 15 16  2  0
 17 18  1  0
 18 19  1  0
 19 20  1  6
 21 19  1  0
 21 22  1  6
 22 15  1  0
 23 21  1  0
 24 23  2  0
 25 23  1  0
M  END
$$$$
