MMI.pdb
     RDKit          3D

 25 24  0  0  1  0  0  0  0  0999 V2000
    7.4233  -17.7354   28.7326 C   0  0  0  0  0  0  0  0  0  0  0  0
    6.8179  -19.3444   28.1807 S   0  0  0  0  0  0  0  0  0  0  0  0
    7.8438  -19.8935   26.7754 C   0  0  0  0  0  0  0  0  0  0  0  0
    6.9055  -20.5027   25.7522 C   0  0  0  0  0  0  0  0  0  0  0  0
    6.2498  -19.3757   25.0008 C   0  0  2  0  0  0  0  0  0  0  0  0
    5.2530  -19.8627   24.0694 N   0  0  0  0  0  0  0  0  0  0  0  0
    7.2417  -18.5821   24.2160 C   0  0  0  0  0  0  0  0  0  0  0  0
    8.2252  -19.1239   23.6209 O   0  0  0  0  0  0  0  0  0  0  0  0
    7.3058  -12.1166   19.8164 C   0  0  0  0  0  0  0  0  0  0  0  0
    6.5760  -13.3229   20.9535 S   0  0  0  0  0  0  0  0  0  0  0  0
    7.8620  -14.4752   21.5751 C   0  0  0  0  0  0  0  0  0  0  0  0
    7.1852  -15.3406   22.5922 C   0  0  0  0  0  0  0  0  0  0  0  0
    8.0260  -16.4207   23.1846 C   0  0  2  0  0  0  0  0  0  0  0  0
    7.1457  -17.1707   24.0873 N   0  0  0  0  0  0  0  0  0  0  0  0
    9.1159  -15.8019   23.9858 C   0  0  0  0  0  0  0  0  0  0  0  0
   10.1003  -15.2068   23.5070 O   0  0  0  0  0  0  0  0  0  0  0  0
    7.8001  -12.5228   27.6725 C   0  0  0  0  0  0  0  0  0  0  0  0
    8.4776  -13.3961   26.6241 C   0  0  0  0  0  0  0  0  0  0  0  0
    9.4404  -14.3421   27.2609 C   0  0  2  0  0  0  0  0  0  0  0  0
   10.4359  -13.6586   28.1586 C   0  0  0  0  0  0  0  0  0  0  0  0
   10.0727  -15.2963   26.2748 C   0  0  2  0  0  0  0  0  0  0  0  0
    9.0707  -15.8725   25.4085 N   0  0  0  0  0  0  0  0  0  0  0  0
   10.9504  -16.3063   26.8890 C   0  0  0  0  0  0  0  0  0  0  0  0
   12.1951  -16.1145   26.9383 O   0  0  0  0  0  0  0  0  0  0  0  0
   10.5023  -17.4964   27.4391 O   0  0  0  0  0  0  0  0  0  0  0  0
  1  2  1  0
  3  2  1  0
  3  4  1  0
  5  6  1  6
  5  4  1  0
  7  5  1  0
  8  7  2  0
 10  9  1  0
 10 11  1  0
 12 11  1  0
 13 12  1  1
 13 14  1  0
 14  7  1  0
 15 13  1  0
 15 16  2  0
 17 18  1  0
 18 19  1  0
 19 20  1  6
 21 19  1  0
 21 22  1  1
 22 15  1  0
 23 21  1  0
 24 23  2  0
 25 23  1  0
M  END
$$$$
