MMI.pdb
     RDKit          3D

 25 24  0  0  1  0  0  0  0  0999 V2000
   11.1849  -21.1912   21.5543 C   0  0  0  0  0  0  0  0  0  0  0  0
   11.7772  -20.5208   19.9860 S   0  0  0  0  0  0  0  0  0  0  0  0
   10.7843  -19.0449   19.5802 C   0  0  0  0  0  0  0  0  0  0  0  0
   10.8503  -18.1217   20.7810 C   0  0  0  0  0  0  0  0  0  0  0  0
    9.9930  -16.9207   20.4856 C   0  0  2  0  0  0  0  0  0  0  0  0
   10.6036  -16.0587   19.4944 N   0  0  0  0  0  0  0  0  0  0  0  0
    9.7558  -16.0954   21.7071 C   0  0  0  0  0  0  0  0  0  0  0  0
   10.4770  -15.0900   21.9968 O   0  0  0  0  0  0  0  0  0  0  0  0
    6.6947  -11.9747   26.2897 C   0  0  0  0  0  0  0  0  0  0  0  0
    6.5255  -13.0277   24.8256 S   0  0  0  0  0  0  0  0  0  0  0  0
    6.6085  -14.7989   25.2988 C   0  0  0  0  0  0  0  0  0  0  0  0
    7.0459  -15.5350   24.0707 C   0  0  0  0  0  0  0  0  0  0  0  0
    8.5189  -15.6008   23.8462 C   0  0  2  0  0  0  0  0  0  0  0  0
    8.7077  -16.3853   22.6211 N   0  0  0  0  0  0  0  0  0  0  0  0
    9.1499  -16.3274   24.9805 C   0  0  0  0  0  0  0  0  0  0  0  0
    9.2844  -17.5643   25.0457 O   0  0  0  0  0  0  0  0  0  0  0  0
   10.4752  -12.8537   29.0799 C   0  0  0  0  0  0  0  0  0  0  0  0
   10.7955  -13.8610   27.9830 C   0  0  0  0  0  0  0  0  0  0  0  0
   10.3809  -15.2369   28.3862 C   0  0  2  0  0  0  0  0  0  0  0  0
   11.1535  -15.7667   29.5638 C   0  0  0  0  0  0  0  0  0  0  0  0
   10.3164  -16.2002   27.2242 C   0  0  2  0  0  0  0  0  0  0  0  0
    9.6499  -15.5936   26.0953 N   0  0  0  0  0  0  0  0  0  0  0  0
    9.7742  -17.5254   27.5671 C   0  0  0  0  0  0  0  0  0  0  0  0
    8.5319  -17.7315   27.5154 O   0  0  0  0  0  0  0  0  0  0  0  0
   10.5482  -18.6065   27.9565 O   0  0  0  0  0  0  0  0  0  0  0  0
  1  2  1  0
  3  2  1  0
  3  4  1  0
  5  6  1  6
  5  4  1  0
  7  5  1  0
  8  7  2  0
 10  9  1  0
 10 11  1  0
 12 11  1  0
 13 12  1  1
 13 14  1  0
 14  7  1  0
 15 13  1  0
 15 16  2  0
 17 18  1  0
 18 19  1  0
 19 20  1  1
 21 19  1  0
 21 22  1  6
 22 15  1  0
 23 21  1  0
 24 23  2  0
 25 23  1  0
M  END
$$$$
