MMI.pdb
     RDKit          3D

 25 24  0  0  1  0  0  0  0  0999 V2000
   12.2675  -18.7512   21.7907 C   0  0  0  0  0  0  0  0  0  0  0  0
   13.1079  -19.7412   23.0451 S   0  0  0  0  0  0  0  0  0  0  0  0
   12.5781  -19.1554   24.6898 C   0  0  0  0  0  0  0  0  0  0  0  0
   11.0813  -18.9252   24.6179 C   0  0  0  0  0  0  0  0  0  0  0  0
   10.6404  -18.3505   25.9370 C   0  0  2  0  0  0  0  0  0  0  0  0
   10.5232  -19.3752   26.9542 N   0  0  0  0  0  0  0  0  0  0  0  0
    9.3129  -17.6752   25.8311 C   0  0  0  0  0  0  0  0  0  0  0  0
    8.2180  -18.3127   25.9292 O   0  0  0  0  0  0  0  0  0  0  0  0
    5.8720  -10.6475   26.6637 C   0  0  0  0  0  0  0  0  0  0  0  0
    7.2198  -11.8467   26.8260 S   0  0  0  0  0  0  0  0  0  0  0  0
    6.8446  -13.3643   25.8648 C   0  0  0  0  0  0  0  0  0  0  0  0
    8.0127  -14.2794   26.0638 C   0  0  0  0  0  0  0  0  0  0  0  0
    7.8850  -15.6337   25.4521 C   0  0  2  0  0  0  0  0  0  0  0  0
    9.1937  -16.2765   25.6134 N   0  0  0  0  0  0  0  0  0  0  0  0
    7.6022  -15.4844   23.9993 C   0  0  0  0  0  0  0  0  0  0  0  0
    6.5347  -15.0528   23.5234 O   0  0  0  0  0  0  0  0  0  0  0  0
    7.7408  -12.0408   21.2739 C   0  0  0  0  0  0  0  0  0  0  0  0
    7.5786  -13.4576   21.8099 C   0  0  0  0  0  0  0  0  0  0  0  0
    8.4870  -14.4034   21.0974 C   0  0  2  0  0  0  0  0  0  0  0  0
    8.3860  -14.3059   19.5993 C   0  0  0  0  0  0  0  0  0  0  0  0
    8.3940  -15.8188   21.6177 C   0  0  2  0  0  0  0  0  0  0  0  0
    8.5975  -15.8510   23.0474 N   0  0  0  0  0  0  0  0  0  0  0  0
    9.2383  -16.7849   20.8955 C   0  0  0  0  0  0  0  0  0  0  0  0
    9.0961  -16.9420   19.6531 O   0  0  0  0  0  0  0  0  0  0  0  0
   10.2147  -17.5652   21.4933 O   0  0  0  0  0  0  0  0  0  0  0  0
  1  2  1  0
  3  2  1  0
  3  4  1  0
  5  6  1  1
  5  4  1  0
  7  5  1  0
  8  7  2  0
 10  9  1  0
 10 11  1  0
 12 11  1  0
 13 12  1  1
 13 14  1  0
 14  7  1  0
 15 13  1  0
 15 16  2  0
 17 18  1  0
 18 19  1  0
 19 20  1  6
 21 19  1  0
 21 22  1  1
 22 15  1  0
 23 21  1  0
 24 23  2  0
 25 23  1  0
M  END
$$$$
