MMI.pdb
     RDKit          3D

 25 24  0  0  1  0  0  0  0  0999 V2000
   10.6343  -19.9146   23.4297 C   0  0  0  0  0  0  0  0  0  0  0  0
   10.7374  -20.4467   21.7075 S   0  0  0  0  0  0  0  0  0  0  0  0
    9.9173  -19.1914   20.6679 C   0  0  0  0  0  0  0  0  0  0  0  0
   10.6921  -17.8994   20.8380 C   0  0  0  0  0  0  0  0  0  0  0  0
    9.7224  -16.7583   20.6883 C   0  0  2  0  0  0  0  0  0  0  0  0
   10.0243  -15.9493   19.5252 N   0  0  0  0  0  0  0  0  0  0  0  0
    9.7430  -15.8542   21.8764 C   0  0  0  0  0  0  0  0  0  0  0  0
   10.7115  -15.0660   22.1120 O   0  0  0  0  0  0  0  0  0  0  0  0
    5.4145  -11.4946   24.7192 C   0  0  0  0  0  0  0  0  0  0  0  0
    5.4496  -13.1214   25.5150 S   0  0  0  0  0  0  0  0  0  0  0  0
    7.1654  -13.7704   25.5680 C   0  0  0  0  0  0  0  0  0  0  0  0
    7.3724  -14.4984   24.2763 C   0  0  0  0  0  0  0  0  0  0  0  0
    8.7546  -15.0029   24.0325 C   0  0  2  0  0  0  0  0  0  0  0  0
    8.6792  -15.8211   22.8172 N   0  0  0  0  0  0  0  0  0  0  0  0
    9.1604  -15.8726   25.1691 C   0  0  0  0  0  0  0  0  0  0  0  0
    9.1871  -17.1178   25.1373 O   0  0  0  0  0  0  0  0  0  0  0  0
   11.4221  -14.8071   30.9152 C   0  0  0  0  0  0  0  0  0  0  0  0
   11.2994  -15.7349   29.7131 C   0  0  0  0  0  0  0  0  0  0  0  0
   10.6170  -15.0475   28.5777 C   0  0  2  0  0  0  0  0  0  0  0  0
    9.4617  -14.1879   29.0144 C   0  0  0  0  0  0  0  0  0  0  0  0
   10.2783  -15.9801   27.4384 C   0  0  2  0  0  0  0  0  0  0  0  0
    9.5540  -15.2792   26.4036 N   0  0  0  0  0  0  0  0  0  0  0  0
    9.6194  -17.2291   27.8552 C   0  0  0  0  0  0  0  0  0  0  0  0
    8.3814  -17.3803   27.6740 O   0  0  0  0  0  0  0  0  0  0  0  0
   10.2749  -18.2933   28.4531 O   0  0  0  0  0  0  0  0  0  0  0  0
  1  2  1  0
  3  2  1  0
  3  4  1  0
  5  6  1  6
  5  4  1  0
  7  5  1  0
  8  7  2  0
 10  9  1  0
 10 11  1  0
 12 11  1  0
 13 12  1  1
 13 14  1  0
 14  7  1  0
 15 13  1  0
 15 16  2  0
 17 18  1  0
 18 19  1  0
 19 20  1  1
 21 19  1  0
 21 22  1  6
 22 15  1  0
 23 21  1  0
 24 23  2  0
 25 23  1  0
M  END
$$$$
