MMI.pdb
     RDKit          3D

 25 24  0  0  1  0  0  0  0  0999 V2000
    8.2865  -21.9908   19.1339 C   0  0  0  0  0  0  0  0  0  0  0  0
    7.6968  -22.9015   20.5771 S   0  0  0  0  0  0  0  0  0  0  0  0
    7.4989  -21.7252   21.9577 C   0  0  0  0  0  0  0  0  0  0  0  0
    8.1950  -20.4415   21.5502 C   0  0  0  0  0  0  0  0  0  0  0  0
    8.0850  -19.4742   22.6978 C   0  0  2  0  0  0  0  0  0  0  0  0
    6.7065  -19.1217   22.9696 N   0  0  0  0  0  0  0  0  0  0  0  0
    8.8231  -18.2051   22.4253 C   0  0  0  0  0  0  0  0  0  0  0  0
   10.0696  -18.1852   22.1787 O   0  0  0  0  0  0  0  0  0  0  0  0
    7.1866  -12.9297   18.5258 C   0  0  0  0  0  0  0  0  0  0  0  0
    7.1297  -12.5429   20.2945 S   0  0  0  0  0  0  0  0  0  0  0  0
    8.4797  -13.4123   21.1829 C   0  0  0  0  0  0  0  0  0  0  0  0
    7.9619  -14.7850   21.4810 C   0  0  0  0  0  0  0  0  0  0  0  0
    8.9148  -15.6994   22.1742 C   0  0  2  0  0  0  0  0  0  0  0  0
    8.1751  -16.9410   22.4257 N   0  0  0  0  0  0  0  0  0  0  0  0
    9.2987  -15.0995   23.4802 C   0  0  0  0  0  0  0  0  0  0  0  0
   10.1988  -14.2524   23.6364 O   0  0  0  0  0  0  0  0  0  0  0  0
    6.4518  -12.2295   26.2372 C   0  0  0  0  0  0  0  0  0  0  0  0
    7.5432  -13.0973   25.6238 C   0  0  0  0  0  0  0  0  0  0  0  0
    7.9980  -14.1414   26.5884 C   0  0  2  0  0  0  0  0  0  0  0  0
    8.4137  -13.5766   27.9197 C   0  0  0  0  0  0  0  0  0  0  0  0
    9.0085  -15.0953   25.9955 C   0  0  2  0  0  0  0  0  0  0  0  0
    8.6128  -15.4954   24.6651 N   0  0  0  0  0  0  0  0  0  0  0  0
    9.3433  -16.2370   26.8628 C   0  0  0  0  0  0  0  0  0  0  0  0
    8.9451  -17.3947   26.5637 O   0  0  0  0  0  0  0  0  0  0  0  0
   10.0899  -16.1387   28.0258 O   0  0  0  0  0  0  0  0  0  0  0  0
  1  2  1  0
  3  2  1  0
  3  4  1  0
  5  6  1  6
  5  4  1  0
  7  5  1  0
  8  7  2  0
 10  9  1  0
 10 11  1  0
 12 11  1  0
 13 12  1  1
 13 14  1  0
 14  7  1  0
 15 13  1  0
 15 16  2  0
 17 18  1  0
 18 19  1  0
 19 20  1  1
 21 19  1  0
 21 22  1  6
 22 15  1  0
 23 21  1  0
 24 23  2  0
 25 23  1  0
M  END
$$$$
