YDV.pdb
     RDKit          3D

 28 28  0  0  1  0  0  0  0  0999 V2000
   24.3477  -17.4584  -23.2037 O   0  0  0  0  0  0  0  0  0  0  0  0
   24.2317  -17.5803  -21.8146 C   0  0  0  0  0  0  0  0  0  0  0  0
   24.1641  -18.8334  -21.2529 C   0  0  0  0  0  0  0  0  0  0  0  0
   24.0491  -18.9883  -19.8762 C   0  0  0  0  0  0  0  0  0  0  0  0
   24.0007  -17.8873  -19.0591 C   0  0  0  0  0  0  0  0  0  0  0  0
   23.8729  -18.0463  -17.6034 C   0  0  0  0  0  0  0  0  0  0  0  0
   22.5027  -18.4920  -17.1415 C   0  0  2  0  0  0  0  0  0  0  0  0
   21.5520  -17.4359  -17.4635 N   0  0  0  0  0  0  0  0  0  0  0  0
   22.5430  -18.7720  -15.6990 C   0  0  0  0  0  0  0  0  0  0  0  0
   22.6830  -17.8295  -14.8893 O   0  0  0  0  0  0  0  0  0  0  0  0
   24.0696  -16.6422  -19.6360 C   0  0  0  0  0  0  0  0  0  0  0  0
   24.1844  -16.4629  -21.0006 C   0  0  0  0  0  0  0  0  0  0  0  0
   22.4296  -20.0863  -15.1175 N   0  0  0  0  0  0  0  0  0  0  0  0
   22.4448  -20.2795  -13.6954 C   0  0  1  0  0  0  0  0  0  0  0  0
   21.1557  -20.9039  -13.2149 C   0  0  0  0  0  0  0  0  0  0  0  0
   20.0195  -19.9961  -13.2554 C   0  0  0  0  0  0  0  0  0  0  0  0
   19.8936  -19.0248  -12.4619 O   0  0  0  0  0  0  0  0  0  0  0  0
   23.6253  -21.0892  -13.2554 C   0  0  0  0  0  0  0  0  0  0  0  0
   23.8678  -22.2079  -13.7627 O   0  0  0  0  0  0  0  0  0  0  0  0
   19.0098  -20.1703  -14.1886 O   0  0  0  0  0  0  0  0  0  0  0  0
   26.0332  -19.7330   -9.8507 C   0  0  0  0  0  0  0  0  0  0  0  0
   26.6278  -20.4789  -11.0305 C   0  0  2  0  0  0  0  0  0  0  0  0
   27.1762  -19.4498  -11.9880 C   0  0  0  0  0  0  0  0  0  0  0  0
   25.5941  -21.3838  -11.6714 C   0  0  2  0  0  0  0  0  0  0  0  0
   24.5094  -20.6151  -12.2481 N   0  0  0  0  0  0  0  0  0  0  0  0
   25.1116  -22.4279  -10.7526 C   0  0  0  0  0  0  0  0  0  0  0  0
   25.9127  -23.3356  -10.4103 O   0  0  0  0  0  0  0  0  0  0  0  0
   23.8362  -22.4811  -10.2371 O   0  0  0  0  0  0  0  0  0  0  0  0
  2  1  1  0
  2 12  2  0
  3  2  1  0
  4  3  2  0
  4  5  1  0
  5 11  2  0
  6  5  1  0
  7  8  1  1
  7  6  1  0
  9  7  1  0
 10  9  2  0
 11 12  1  0
 13  9  1  0
 14 13  1  0
 14 15  1  6
 15 16  1  0
 16 20  1  0
 17 16  2  0
 18 14  1  0
 19 18  2  0
 22 21  1  1
 22 23  1  0
 22 24  1  0
 24 26  1  0
 24 25  1  1
 25 18  1  0
 26 28  1  0
 27 26  2  0
M  END
$$$$
