YDV.pdb
     RDKit          3D

 28 28  0  0  1  0  0  0  0  0999 V2000
   29.5815   -7.5451  -18.4127 O   0  0  0  0  0  0  0  0  0  0  0  0
   28.8286   -8.4437  -17.6486 C   0  0  0  0  0  0  0  0  0  0  0  0
   29.3738   -9.6596  -17.3101 C   0  0  0  0  0  0  0  0  0  0  0  0
   28.6519  -10.5741  -16.5516 C   0  0  0  0  0  0  0  0  0  0  0  0
   27.3813  -10.2722  -16.1314 C   0  0  0  0  0  0  0  0  0  0  0  0
   26.6120  -11.2386  -15.3346 C   0  0  0  0  0  0  0  0  0  0  0  0
   25.6294  -12.0661  -16.1341 C   0  0  2  0  0  0  0  0  0  0  0  0
   26.3349  -12.6199  -17.2825 N   0  0  0  0  0  0  0  0  0  0  0  0
   24.4990  -11.2195  -16.5416 C   0  0  0  0  0  0  0  0  0  0  0  0
   24.4600  -10.7554  -17.7020 O   0  0  0  0  0  0  0  0  0  0  0  0
   26.8510   -9.0530  -16.4781 C   0  0  0  0  0  0  0  0  0  0  0  0
   27.5485   -8.1282  -17.2301 C   0  0  0  0  0  0  0  0  0  0  0  0
   23.3918  -10.8672  -15.6882 N   0  0  0  0  0  0  0  0  0  0  0  0
   22.3203  -10.0353  -16.1571 C   0  0  1  0  0  0  0  0  0  0  0  0
   20.9981  -10.7642  -16.1012 C   0  0  0  0  0  0  0  0  0  0  0  0
   19.8838   -9.9881  -16.6234 C   0  0  0  0  0  0  0  0  0  0  0  0
   19.8831   -9.4885  -17.7806 O   0  0  0  0  0  0  0  0  0  0  0  0
   22.2480   -8.7424  -15.4050 C   0  0  0  0  0  0  0  0  0  0  0  0
   22.3664   -8.7113  -14.1589 O   0  0  0  0  0  0  0  0  0  0  0  0
   18.7561   -9.7635  -15.8496 O   0  0  0  0  0  0  0  0  0  0  0  0
   22.8423   -3.8357  -15.6476 C   0  0  0  0  0  0  0  0  0  0  0  0
   22.7260   -5.1740  -16.3527 C   0  0  2  0  0  0  0  0  0  0  0  0
   21.9517   -4.9490  -17.6281 C   0  0  0  0  0  0  0  0  0  0  0  0
   22.0790   -6.2043  -15.4483 C   0  0  2  0  0  0  0  0  0  0  0  0
   22.0430   -7.5081  -16.0799 N   0  0  0  0  0  0  0  0  0  0  0  0
   20.7539   -5.7800  -14.9676 C   0  0  0  0  0  0  0  0  0  0  0  0
   19.7357   -6.2467  -15.5408 O   0  0  0  0  0  0  0  0  0  0  0  0
   20.5486   -4.9025  -13.9270 O   0  0  0  0  0  0  0  0  0  0  0  0
  2  1  1  0
  2 12  2  0
  3  2  1  0
  4  3  2  0
  4  5  1  0
  5 11  2  0
  6  5  1  0
  7  8  1  6
  7  6  1  0
  9  7  1  0
 10  9  2  0
 11 12  1  0
 13  9  1  0
 14 13  1  0
 14 15  1  1
 15 16  1  0
 16 20  1  0
 17 16  2  0
 18 14  1  0
 19 18  2  0
 22 21  1  1
 22 23  1  0
 22 24  1  0
 24 26  1  0
 24 25  1  6
 25 18  1  0
 26 28  1  0
 27 26  2  0
M  END
$$$$
