YDV.pdb
     RDKit          3D

 28 28  0  0  1  0  0  0  0  0999 V2000
   13.3320  -17.3493  -17.6576 O   0  0  0  0  0  0  0  0  0  0  0  0
   13.9807  -16.2167  -17.1530 C   0  0  0  0  0  0  0  0  0  0  0  0
   14.1518  -15.1217  -17.9664 C   0  0  0  0  0  0  0  0  0  0  0  0
   14.7917  -13.9810  -17.4949 C   0  0  0  0  0  0  0  0  0  0  0  0
   15.2623  -13.9358  -16.2071 C   0  0  0  0  0  0  0  0  0  0  0  0
   15.9450  -12.7342  -15.7063 C   0  0  0  0  0  0  0  0  0  0  0  0
   17.3750  -12.5857  -16.1780 C   0  0  2  0  0  0  0  0  0  0  0  0
   18.1530  -13.6803  -15.6126 N   0  0  0  0  0  0  0  0  0  0  0  0
   17.8911  -11.2740  -15.7609 C   0  0  0  0  0  0  0  0  0  0  0  0
   18.1325  -11.0595  -14.5530 O   0  0  0  0  0  0  0  0  0  0  0  0
   15.0832  -15.0384  -15.4070 C   0  0  0  0  0  0  0  0  0  0  0  0
   14.4506  -16.1824  -15.8525 C   0  0  0  0  0  0  0  0  0  0  0  0
   18.1530  -10.1756  -16.6571 N   0  0  0  0  0  0  0  0  0  0  0  0
   18.5943   -8.9000  -16.1689 C   0  0  1  0  0  0  0  0  0  0  0  0
   19.8769   -8.4712  -16.8425 C   0  0  0  0  0  0  0  0  0  0  0  0
   20.3490   -7.1632  -16.4148 C   0  0  0  0  0  0  0  0  0  0  0  0
   21.0635   -6.4237  -17.1438 O   0  0  0  0  0  0  0  0  0  0  0  0
   17.5372   -7.8498  -16.3182 C   0  0  0  0  0  0  0  0  0  0  0  0
   17.0623   -7.5650  -17.4411 O   0  0  0  0  0  0  0  0  0  0  0  0
   20.0241   -6.6709  -15.1606 O   0  0  0  0  0  0  0  0  0  0  0  0
   14.3623   -7.4255  -14.0177 C   0  0  0  0  0  0  0  0  0  0  0  0
   15.1269   -6.1156  -14.0581 C   0  0  2  0  0  0  0  0  0  0  0  0
   14.1126   -4.9986  -14.0712 C   0  0  0  0  0  0  0  0  0  0  0  0
   16.0602   -6.0740  -15.2519 C   0  0  2  0  0  0  0  0  0  0  0  0
   17.0378   -7.1420  -15.1910 N   0  0  0  0  0  0  0  0  0  0  0  0
   16.6861   -4.7538  -15.4326 C   0  0  0  0  0  0  0  0  0  0  0  0
   17.7647   -4.5192  -14.8289 O   0  0  0  0  0  0  0  0  0  0  0  0
   16.1709   -3.7506  -16.2220 O   0  0  0  0  0  0  0  0  0  0  0  0
  2  1  1  0
  2 12  2  0
  3  2  1  0
  4  3  2  0
  4  5  1  0
  5 11  2  0
  6  5  1  0
  7  8  1  1
  7  6  1  0
  9  7  1  0
 10  9  2  0
 11 12  1  0
 13  9  1  0
 14 13  1  0
 14 15  1  6
 15 16  1  0
 16 20  1  0
 17 16  2  0
 18 14  1  0
 19 18  2  0
 22 21  1  6
 22 23  1  0
 22 24  1  0
 24 26  1  0
 24 25  1  1
 25 18  1  0
 26 28  1  0
 27 26  2  0
M  END
$$$$
