YDV.pdb
     RDKit          3D

 28 28  0  0  1  0  0  0  0  0999 V2000
   28.9295  -18.5829   -2.9141 O   0  0  0  0  0  0  0  0  0  0  0  0
   28.4376  -19.0208   -4.1488 C   0  0  0  0  0  0  0  0  0  0  0  0
   28.4610  -20.3635   -4.4437 C   0  0  0  0  0  0  0  0  0  0  0  0
   27.9795  -20.8306   -5.6613 C   0  0  0  0  0  0  0  0  0  0  0  0
   27.4741  -19.9528   -6.5866 C   0  0  0  0  0  0  0  0  0  0  0  0
   26.9695  -20.4417   -7.8778 C   0  0  0  0  0  0  0  0  0  0  0  0
   25.4735  -20.6644   -7.9203 C   0  0  2  0  0  0  0  0  0  0  0  0
   25.1498  -21.7352   -6.9867 N   0  0  0  0  0  0  0  0  0  0  0  0
   25.0698  -20.9948   -9.2945 C   0  0  0  0  0  0  0  0  0  0  0  0
   25.1695  -22.1726   -9.7026 O   0  0  0  0  0  0  0  0  0  0  0  0
   27.4577  -18.6144   -6.2764 C   0  0  0  0  0  0  0  0  0  0  0  0
   27.9299  -18.1265   -5.0738 C   0  0  0  0  0  0  0  0  0  0  0  0
   24.5493  -20.0441  -10.2450 N   0  0  0  0  0  0  0  0  0  0  0  0
   24.1722  -20.4417  -11.5716 C   0  0  1  0  0  0  0  0  0  0  0  0
   22.6758  -20.3584  -11.7624 C   0  0  0  0  0  0  0  0  0  0  0  0
   22.2446  -20.6642  -13.1178 C   0  0  0  0  0  0  0  0  0  0  0  0
   22.6462  -21.6785  -13.7491 O   0  0  0  0  0  0  0  0  0  0  0  0
   24.8878  -19.6436  -12.6174 C   0  0  0  0  0  0  0  0  0  0  0  0
   24.6219  -18.4342  -12.8028 O   0  0  0  0  0  0  0  0  0  0  0  0
   21.3565  -19.8319  -13.7806 O   0  0  0  0  0  0  0  0  0  0  0  0
   28.2983  -21.4058  -14.6343 C   0  0  0  0  0  0  0  0  0  0  0  0
   28.1374  -19.9229  -14.3568 C   0  0  2  0  0  0  0  0  0  0  0  0
   28.7620  -19.6426  -13.0122 C   0  0  0  0  0  0  0  0  0  0  0  0
   26.6777  -19.5187  -14.4209 C   0  0  2  0  0  0  0  0  0  0  0  0
   25.8922  -20.2317  -13.4336 N   0  0  0  0  0  0  0  0  0  0  0  0
   26.1171  -19.6431  -15.7764 C   0  0  0  0  0  0  0  0  0  0  0  0
   26.6178  -18.9426  -16.6938 O   0  0  0  0  0  0  0  0  0  0  0  0
   25.0763  -20.4787  -16.1136 O   0  0  0  0  0  0  0  0  0  0  0  0
  2  1  1  0
  2 12  2  0
  3  2  1  0
  4  3  2  0
  4  5  1  0
  5 11  2  0
  6  5  1  0
  7  8  1  1
  7  6  1  0
  9  7  1  0
 10  9  2  0
 11 12  1  0
 13  9  1  0
 14 13  1  0
 14 15  1  1
 15 16  1  0
 16 20  1  0
 17 16  2  0
 18 14  1  0
 19 18  2  0
 22 21  1  1
 22 23  1  0
 22 24  1  0
 24 26  1  0
 24 25  1  1
 25 18  1  0
 26 28  1  0
 27 26  2  0
M  END
$$$$
