YDV.pdb
     RDKit          3D

 28 28  0  0  1  0  0  0  0  0999 V2000
   19.2953  -15.6213  -21.8879 O   0  0  0  0  0  0  0  0  0  0  0  0
   19.1272  -14.4933  -21.0771 C   0  0  0  0  0  0  0  0  0  0  0  0
   17.9604  -14.3449  -20.3653 C   0  0  0  0  0  0  0  0  0  0  0  0
   17.7628  -13.2360  -19.5505 C   0  0  0  0  0  0  0  0  0  0  0  0
   18.7341  -12.2726  -19.4480 C   0  0  0  0  0  0  0  0  0  0  0  0
   18.5269  -11.0953  -18.5925 C   0  0  0  0  0  0  0  0  0  0  0  0
   19.2370  -11.1599  -17.2579 C   0  0  2  0  0  0  0  0  0  0  0  0
   18.6581  -12.2553  -16.4911 N   0  0  0  0  0  0  0  0  0  0  0  0
   19.0921   -9.8707  -16.5670 C   0  0  0  0  0  0  0  0  0  0  0  0
   17.9686   -9.5156  -16.1484 O   0  0  0  0  0  0  0  0  0  0  0  0
   19.8944  -12.4359  -20.1657 C   0  0  0  0  0  0  0  0  0  0  0  0
   20.1138  -13.5286  -20.9812 C   0  0  0  0  0  0  0  0  0  0  0  0
   20.1727   -8.9487  -16.3208 N   0  0  0  0  0  0  0  0  0  0  0  0
   19.9571   -7.7107  -15.6274 C   0  0  1  0  0  0  0  0  0  0  0  0
   20.9193   -7.5564  -14.4728 C   0  0  0  0  0  0  0  0  0  0  0  0
   20.5578   -8.3455  -13.3052 C   0  0  0  0  0  0  0  0  0  0  0  0
   19.5175   -9.0556  -13.2570 O   0  0  0  0  0  0  0  0  0  0  0  0
   20.0385   -6.5336  -16.5496 C   0  0  0  0  0  0  0  0  0  0  0  0
   21.0287   -6.3646  -17.2970 O   0  0  0  0  0  0  0  0  0  0  0  0
   21.3619   -8.3448  -12.1763 O   0  0  0  0  0  0  0  0  0  0  0  0
   16.4586   -4.4389  -17.6201 C   0  0  0  0  0  0  0  0  0  0  0  0
   17.7383   -4.5274  -18.4303 C   0  0  2  0  0  0  0  0  0  0  0  0
   17.6834   -5.8079  -19.2267 C   0  0  0  0  0  0  0  0  0  0  0  0
   18.9534   -4.4506  -17.5271 C   0  0  2  0  0  0  0  0  0  0  0  0
   18.9951   -5.5697  -16.6075 N   0  0  0  0  0  0  0  0  0  0  0  0
   19.0609   -3.1554  -16.8356 C   0  0  0  0  0  0  0  0  0  0  0  0
   19.3540   -2.1395  -17.5176 O   0  0  0  0  0  0  0  0  0  0  0  0
   18.8613   -2.9760  -15.4855 O   0  0  0  0  0  0  0  0  0  0  0  0
  2  1  1  0
  2 12  2  0
  3  2  1  0
  4  3  2  0
  4  5  1  0
  5 11  2  0
  6  5  1  0
  7  8  1  1
  7  6  1  0
  9  7  1  0
 10  9  2  0
 11 12  1  0
 13  9  1  0
 14 13  1  0
 14 15  1  1
 15 16  1  0
 16 20  1  0
 17 16  2  0
 18 14  1  0
 19 18  2  0
 22 21  1  1
 22 23  1  0
 22 24  1  0
 24 26  1  0
 24 25  1  1
 25 18  1  0
 26 28  1  0
 27 26  2  0
M  END
$$$$
