YDV.pdb
     RDKit          3D

 28 28  0  0  1  0  0  0  0  0999 V2000
   30.9141  -21.4698   -7.6719 O   0  0  0  0  0  0  0  0  0  0  0  0
   29.8724  -21.1669   -8.5558 C   0  0  0  0  0  0  0  0  0  0  0  0
   28.6843  -20.6886   -8.0560 C   0  0  0  0  0  0  0  0  0  0  0  0
   27.6305  -20.3778   -8.9078 C   0  0  0  0  0  0  0  0  0  0  0  0
   27.7648  -20.5466  -10.2626 C   0  0  0  0  0  0  0  0  0  0  0  0
   26.6510  -20.2253  -11.1663 C   0  0  0  0  0  0  0  0  0  0  0  0
   25.5175  -21.2273  -11.1421 C   0  0  2  0  0  0  0  0  0  0  0  0
   26.0804  -22.5514  -11.3727 N   0  0  0  0  0  0  0  0  0  0  0  0
   24.5274  -20.8667  -12.1669 C   0  0  0  0  0  0  0  0  0  0  0  0
   24.1217  -19.6867  -12.2473 O   0  0  0  0  0  0  0  0  0  0  0  0
   28.9585  -21.0255  -10.7460 C   0  0  0  0  0  0  0  0  0  0  0  0
   30.0196  -21.3407   -9.9201 C   0  0  0  0  0  0  0  0  0  0  0  0
   23.9653  -21.7892  -13.1215 N   0  0  0  0  0  0  0  0  0  0  0  0
   22.9946  -21.3653  -14.0901 C   0  0  1  0  0  0  0  0  0  0  0  0
   22.9463  -22.3127  -15.2659 C   0  0  0  0  0  0  0  0  0  0  0  0
   24.1437  -22.2764  -16.0915 C   0  0  0  0  0  0  0  0  0  0  0  0
   24.6929  -21.2000  -16.4501 O   0  0  0  0  0  0  0  0  0  0  0  0
   21.6358  -21.2006  -13.4825 C   0  0  0  0  0  0  0  0  0  0  0  0
   21.1672  -22.0607  -12.7026 O   0  0  0  0  0  0  0  0  0  0  0  0
   24.7379  -23.4510  -16.5251 O   0  0  0  0  0  0  0  0  0  0  0  0
   19.9049  -17.5695  -14.2521 C   0  0  0  0  0  0  0  0  0  0  0  0
   19.2799  -18.3025  -13.0800 C   0  0  2  0  0  0  0  0  0  0  0  0
   19.8370  -17.6953  -11.8160 C   0  0  0  0  0  0  0  0  0  0  0  0
   19.5386  -19.7930  -13.1777 C   0  0  2  0  0  0  0  0  0  0  0  0
   20.8332  -20.0630  -13.7703 N   0  0  0  0  0  0  0  0  0  0  0  0
   18.4506  -20.5105  -13.8624 C   0  0  0  0  0  0  0  0  0  0  0  0
   17.3239  -20.5551  -13.3042 O   0  0  0  0  0  0  0  0  0  0  0  0
   18.5799  -21.1402  -15.0797 O   0  0  0  0  0  0  0  0  0  0  0  0
  2  1  1  0
  2 12  2  0
  3  2  1  0
  4  3  2  0
  4  5  1  0
  5 11  2  0
  6  5  1  0
  7  8  1  6
  7  6  1  0
  9  7  1  0
 10  9  2  0
 11 12  1  0
 13  9  1  0
 14 13  1  0
 14 15  1  6
 15 16  1  0
 16 20  1  0
 17 16  2  0
 18 14  1  0
 19 18  2  0
 22 21  1  6
 22 23  1  0
 22 24  1  0
 24 26  1  0
 24 25  1  6
 25 18  1  0
 26 28  1  0
 27 26  2  0
M  END
$$$$
