YDV.pdb
     RDKit          3D

 28 28  0  0  1  0  0  0  0  0999 V2000
   31.7401  -21.6839   -9.9571 O   0  0  0  0  0  0  0  0  0  0  0  0
   30.6249  -21.2471  -10.6806 C   0  0  0  0  0  0  0  0  0  0  0  0
   30.7612  -20.1964  -11.5567 C   0  0  0  0  0  0  0  0  0  0  0  0
   29.6727  -19.7390  -12.2906 C   0  0  0  0  0  0  0  0  0  0  0  0
   28.4446  -20.3333  -12.1473 C   0  0  0  0  0  0  0  0  0  0  0  0
   27.2895  -19.8490  -12.9167 C   0  0  0  0  0  0  0  0  0  0  0  0
   27.0258  -20.6131  -14.1958 C   0  0  2  0  0  0  0  0  0  0  0  0
   28.1242  -20.3469  -15.1153 N   0  0  0  0  0  0  0  0  0  0  0  0
   25.7311  -20.1963  -14.7532 C   0  0  0  0  0  0  0  0  0  0  0  0
   25.5847  -19.0268  -15.1707 O   0  0  0  0  0  0  0  0  0  0  0  0
   28.3251  -21.3823  -11.2679 C   0  0  0  0  0  0  0  0  0  0  0  0
   29.3915  -21.8545  -10.5283 C   0  0  0  0  0  0  0  0  0  0  0  0
   24.5756  -21.0510  -14.8650 N   0  0  0  0  0  0  0  0  0  0  0  0
   23.2798  -20.5205  -15.1808 C   0  0  1  0  0  0  0  0  0  0  0  0
   22.7904  -21.0323  -16.5154 C   0  0  0  0  0  0  0  0  0  0  0  0
   21.5159  -20.4625  -16.9247 C   0  0  0  0  0  0  0  0  0  0  0  0
   20.5978  -21.1497  -17.4478 O   0  0  0  0  0  0  0  0  0  0  0  0
   22.2818  -20.8072  -14.1018 C   0  0  0  0  0  0  0  0  0  0  0  0
   22.2105  -21.9387  -13.5705 O   0  0  0  0  0  0  0  0  0  0  0  0
   21.2585  -19.1117  -16.7517 O   0  0  0  0  0  0  0  0  0  0  0  0
   19.3299  -19.0612  -10.5554 C   0  0  0  0  0  0  0  0  0  0  0  0
   20.3160  -18.8090  -11.6805 C   0  0  2  0  0  0  0  0  0  0  0  0
   19.8922  -17.5406  -12.3792 C   0  0  0  0  0  0  0  0  0  0  0  0
   20.3809  -20.0000  -12.6162 C   0  0  2  0  0  0  0  0  0  0  0  0
   21.3830  -19.8051  -13.6447 N   0  0  0  0  0  0  0  0  0  0  0  0
   19.0653  -20.3486  -13.1773 C   0  0  0  0  0  0  0  0  0  0  0  0
   18.8034  -19.9816  -14.3519 O   0  0  0  0  0  0  0  0  0  0  0  0
   18.0944  -21.0537  -12.5026 O   0  0  0  0  0  0  0  0  0  0  0  0
  2  1  1  0
  2 12  2  0
  3  2  1  0
  4  3  2  0
  4  5  1  0
  5 11  2  0
  6  5  1  0
  7  8  1  6
  7  6  1  0
  9  7  1  0
 10  9  2  0
 11 12  1  0
 13  9  1  0
 14 13  1  0
 14 15  1  6
 15 16  1  0
 16 20  1  0
 17 16  2  0
 18 14  1  0
 19 18  2  0
 22 21  1  1
 22 23  1  0
 22 24  1  0
 24 26  1  0
 24 25  1  6
 25 18  1  0
 26 28  1  0
 27 26  2  0
M  END
$$$$
