YDV.pdb
     RDKit          3D

 28 28  0  0  1  0  0  0  0  0999 V2000
   24.0164  -11.0230  -24.0370 O   0  0  0  0  0  0  0  0  0  0  0  0
   23.2342  -10.4451  -23.0309 C   0  0  0  0  0  0  0  0  0  0  0  0
   21.8817  -10.3004  -23.2306 C   0  0  0  0  0  0  0  0  0  0  0  0
   21.0770   -9.7307  -22.2505 C   0  0  0  0  0  0  0  0  0  0  0  0
   21.6264   -9.3039  -21.0681 C   0  0  0  0  0  0  0  0  0  0  0  0
   20.7803   -8.6953  -20.0316 C   0  0  0  0  0  0  0  0  0  0  0  0
   20.7328   -9.4671  -18.7310 C   0  0  2  0  0  0  0  0  0  0  0  0
   20.0500  -10.7300  -18.9801 N   0  0  0  0  0  0  0  0  0  0  0  0
   20.0426   -8.6625  -17.7128 C   0  0  0  0  0  0  0  0  0  0  0  0
   18.7928   -8.6270  -17.6946 O   0  0  0  0  0  0  0  0  0  0  0  0
   22.9795   -9.4558  -20.8841 C   0  0  0  0  0  0  0  0  0  0  0  0
   23.7992  -10.0189  -21.8424 C   0  0  0  0  0  0  0  0  0  0  0  0
   20.7065   -7.8844  -16.6969 N   0  0  0  0  0  0  0  0  0  0  0  0
   19.9644   -7.1516  -15.7108 C   0  0  1  0  0  0  0  0  0  0  0  0
   20.6898   -7.1300  -14.3857 C   0  0  0  0  0  0  0  0  0  0  0  0
   20.7289   -8.4247  -13.7231 C   0  0  0  0  0  0  0  0  0  0  0  0
   19.7037   -9.1401  -13.5623 O   0  0  0  0  0  0  0  0  0  0  0  0
   19.6505   -5.7609  -16.1690 C   0  0  0  0  0  0  0  0  0  0  0  0
   20.5065   -5.0669  -16.7634 O   0  0  0  0  0  0  0  0  0  0  0  0
   21.9221   -8.9303  -13.2317 O   0  0  0  0  0  0  0  0  0  0  0  0
   15.5158   -4.4963  -16.3308 C   0  0  0  0  0  0  0  0  0  0  0  0
   16.6390   -4.0427  -17.2444 C   0  0  2  0  0  0  0  0  0  0  0  0
   16.7342   -5.0377  -18.3747 C   0  0  0  0  0  0  0  0  0  0  0  0
   17.9371   -3.9052  -16.4737 C   0  0  2  0  0  0  0  0  0  0  0  0
   18.3713   -5.1827  -15.9450 N   0  0  0  0  0  0  0  0  0  0  0  0
   17.8683   -2.8650  -15.4342 C   0  0  0  0  0  0  0  0  0  0  0  0
   17.6929   -3.2263  -14.2419 O   0  0  0  0  0  0  0  0  0  0  0  0
   17.9838   -1.5149  -15.6765 O   0  0  0  0  0  0  0  0  0  0  0  0
  2  1  1  0
  2 12  2  0
  3  2  1  0
  4  3  2  0
  4  5  1  0
  5 11  2  0
  6  5  1  0
  7  8  1  6
  7  6  1  0
  9  7  1  0
 10  9  2  0
 11 12  1  0
 13  9  1  0
 14 13  1  0
 14 15  1  1
 15 16  1  0
 16 20  1  0
 17 16  2  0
 18 14  1  0
 19 18  2  0
 22 21  1  1
 22 23  1  0
 22 24  1  0
 24 26  1  0
 24 25  1  1
 25 18  1  0
 26 28  1  0
 27 26  2  0
M  END
$$$$
