YDV.pdb
     RDKit          3D

 28 28  0  0  1  0  0  0  0  0999 V2000
   28.7991  -18.7074   -3.2105 O   0  0  0  0  0  0  0  0  0  0  0  0
   28.3749  -19.0830   -4.4900 C   0  0  0  0  0  0  0  0  0  0  0  0
   28.6207  -20.3617   -4.9314 C   0  0  0  0  0  0  0  0  0  0  0  0
   28.2116  -20.7660   -6.1970 C   0  0  0  0  0  0  0  0  0  0  0  0
   27.5560  -19.8892   -7.0237 C   0  0  0  0  0  0  0  0  0  0  0  0
   27.1272  -20.3105   -8.3651 C   0  0  0  0  0  0  0  0  0  0  0  0
   25.6840  -20.7573   -8.4481 C   0  0  2  0  0  0  0  0  0  0  0  0
   25.5375  -21.9628   -7.6430 N   0  0  0  0  0  0  0  0  0  0  0  0
   25.3274  -20.9911   -9.8548 C   0  0  0  0  0  0  0  0  0  0  0  0
   25.8080  -21.9742  -10.4600 O   0  0  0  0  0  0  0  0  0  0  0  0
   27.3180  -18.6151   -6.5675 C   0  0  0  0  0  0  0  0  0  0  0  0
   27.7142  -18.1904   -5.3146 C   0  0  0  0  0  0  0  0  0  0  0  0
   24.4387  -20.1555  -10.6231 N   0  0  0  0  0  0  0  0  0  0  0  0
   24.1099  -20.4660  -11.9853 C   0  0  1  0  0  0  0  0  0  0  0  0
   22.6454  -20.8077  -12.1296 C   0  0  0  0  0  0  0  0  0  0  0  0
   22.2557  -21.1323  -13.4933 C   0  0  0  0  0  0  0  0  0  0  0  0
   22.9754  -21.8249  -14.2621 O   0  0  0  0  0  0  0  0  0  0  0  0
   24.4929  -19.3584  -12.9176 C   0  0  0  0  0  0  0  0  0  0  0  0
   23.9401  -18.2369  -12.8515 O   0  0  0  0  0  0  0  0  0  0  0  0
   21.0514  -20.6806  -14.0097 O   0  0  0  0  0  0  0  0  0  0  0  0
   28.1125  -19.5481  -15.4337 C   0  0  0  0  0  0  0  0  0  0  0  0
   27.3994  -18.3368  -14.8627 C   0  0  2  0  0  0  0  0  0  0  0  0
   27.9447  -18.1015  -13.4756 C   0  0  0  0  0  0  0  0  0  0  0  0
   25.8974  -18.5413  -14.8752 C   0  0  2  0  0  0  0  0  0  0  0  0
   25.4962  -19.5429  -13.9078 N   0  0  0  0  0  0  0  0  0  0  0  0
   25.3784  -18.8272  -16.2228 C   0  0  0  0  0  0  0  0  0  0  0  0
   24.7954  -19.9254  -16.4151 O   0  0  0  0  0  0  0  0  0  0  0  0
   25.4863  -17.9709  -17.2953 O   0  0  0  0  0  0  0  0  0  0  0  0
  2  1  1  0
  2 12  2  0
  3  2  1  0
  4  3  2  0
  4  5  1  0
  5 11  2  0
  6  5  1  0
  7  8  1  1
  7  6  1  0
  9  7  1  0
 10  9  2  0
 11 12  1  0
 13  9  1  0
 14 13  1  0
 14 15  1  1
 15 16  1  0
 16 20  1  0
 17 16  2  0
 18 14  1  0
 19 18  2  0
 22 21  1  1
 22 23  1  0
 22 24  1  0
 24 26  1  0
 24 25  1  1
 25 18  1  0
 26 28  1  0
 27 26  2  0
M  END
$$$$
