CSV.pdb
     RDKit          3D

 20 19  0  0  1  0  0  0  0  0999 V2000
    7.1638  -16.8848   18.7987 N   0  0  0  0  0  0  0  0  0  0  0  0
    7.7155  -15.8581   19.6271 C   0  0  1  0  0  0  0  0  0  0  0  0
    7.6629  -14.4904   18.9857 C   0  0  0  0  0  0  0  0  0  0  0  0
    8.4100  -13.2989   20.1400 S   0  0  0  0  0  0  0  0  0  0  0  0
    7.0292  -15.8097   20.9367 C   0  0  0  0  0  0  0  0  0  0  0  0
    5.8046  -15.7052   20.9787 O   0  0  0  0  0  0  0  0  0  0  0  0
    8.2361  -17.8624   24.2027 O   0  0  0  0  0  0  0  0  0  0  0  0
    7.0160  -17.2619   23.8922 C   0  0  0  0  0  0  0  0  0  0  0  0
    7.1884  -15.8321   23.4507 C   0  0  2  0  0  0  0  0  0  0  0  0
    7.7660  -15.8822   22.1206 N   0  0  0  0  0  0  0  0  0  0  0  0
    7.9369  -14.9954   24.3795 C   0  0  0  0  0  0  0  0  0  0  0  0
    9.1874  -14.8934   24.3008 O   0  0  0  0  0  0  0  0  0  0  0  0
    6.9620  -11.3423   25.9364 C   0  0  0  0  0  0  0  0  0  0  0  0
    7.3376  -12.3794   26.9530 C   0  0  1  0  0  0  0  0  0  0  0  0
    6.0709  -12.8781   27.6027 C   0  0  0  0  0  0  0  0  0  0  0  0
    8.1316  -13.4979   26.3207 C   0  0  2  0  0  0  0  0  0  0  0  0
    7.3255  -14.2519   25.4157 N   0  0  0  0  0  0  0  0  0  0  0  0
    8.5242  -14.4190   27.4439 C   0  0  0  0  0  0  0  0  0  0  0  0
    7.9945  -15.5492   27.5964 O   0  0  0  0  0  0  0  0  0  0  0  0
    9.4967  -14.0583   28.3691 O   0  0  0  0  0  0  0  0  0  0  0  0
  2  3  1  0
  2  1  1  6
  4  3  1  0
  5  2  1  0
  5  6  2  0
  7  8  1  0
  9  8  1  1
  9 10  1  0
 10  5  1  0
 11  9  1  0
 11 17  1  0
 12 11  2  0
 14 13  1  6
 14 15  1  0
 14 16  1  0
 16 17  1  6
 16 18  1  0
 18 19  2  0
 18 20  1  0
M  END
$$$$
