CSV.pdb
     RDKit          3D

 20 19  0  0  1  0  0  0  0  0999 V2000
    9.7606  -14.8368   19.1889 N   0  0  0  0  0  0  0  0  0  0  0  0
    9.1227  -13.5899   19.4770 C   0  0  1  0  0  0  0  0  0  0  0  0
    8.2784  -13.0803   18.3315 C   0  0  0  0  0  0  0  0  0  0  0  0
    7.0337  -14.3490   17.9423 S   0  0  0  0  0  0  0  0  0  0  0  0
    8.2853  -13.6929   20.6922 C   0  0  0  0  0  0  0  0  0  0  0  0
    7.7286  -12.6896   21.1347 O   0  0  0  0  0  0  0  0  0  0  0  0
    8.1324  -17.3589   23.0048 O   0  0  0  0  0  0  0  0  0  0  0  0
    7.0395  -16.5748   22.6359 C   0  0  0  0  0  0  0  0  0  0  0  0
    7.3919  -15.1118   22.5723 C   0  0  2  0  0  0  0  0  0  0  0  0
    8.1264  -14.9220   21.3354 N   0  0  0  0  0  0  0  0  0  0  0  0
    8.0879  -14.6028   23.7468 C   0  0  0  0  0  0  0  0  0  0  0  0
    9.3313  -14.4176   23.7371 O   0  0  0  0  0  0  0  0  0  0  0  0
    7.3255  -11.4820   26.0360 C   0  0  0  0  0  0  0  0  0  0  0  0
    7.4231  -12.7497   26.8318 C   0  0  1  0  0  0  0  0  0  0  0  0
    6.0238  -13.1932   27.1791 C   0  0  0  0  0  0  0  0  0  0  0  0
    8.1848  -13.8106   26.0731 C   0  0  2  0  0  0  0  0  0  0  0  0
    7.4306  -14.2859   24.9583 N   0  0  0  0  0  0  0  0  0  0  0  0
    8.3536  -14.9647   27.0238 C   0  0  0  0  0  0  0  0  0  0  0  0
    7.7068  -16.0354   26.8953 O   0  0  0  0  0  0  0  0  0  0  0  0
    9.2385  -14.8976   28.0935 O   0  0  0  0  0  0  0  0  0  0  0  0
  2  3  1  0
  2  1  1  6
  4  3  1  0
  5  2  1  0
  5  6  2  0
  7  8  1  0
  9  8  1  1
  9 10  1  0
 10  5  1  0
 11  9  1  0
 11 17  1  0
 12 11  2  0
 14 13  1  6
 14 15  1  0
 14 16  1  0
 16 17  1  6
 16 18  1  0
 18 19  2  0
 18 20  1  0
M  END
$$$$
