CSV.pdb
     RDKit          3D

 20 19  0  0  1  0  0  0  0  0999 V2000
    8.0010  -15.7549   17.8051 N   0  0  0  0  0  0  0  0  0  0  0  0
    8.2847  -14.8345   18.8620 C   0  0  1  0  0  0  0  0  0  0  0  0
    8.0901  -13.3915   18.4562 C   0  0  0  0  0  0  0  0  0  0  0  0
    8.4631  -12.3466   19.8981 S   0  0  0  0  0  0  0  0  0  0  0  0
    7.4539  -15.1231   20.0516 C   0  0  0  0  0  0  0  0  0  0  0  0
    6.3093  -15.5486   19.9060 O   0  0  0  0  0  0  0  0  0  0  0  0
    7.2855  -17.7695   23.4628 O   0  0  0  0  0  0  0  0  0  0  0  0
    7.6680  -17.0374   22.3388 C   0  0  0  0  0  0  0  0  0  0  0  0
    7.4605  -15.5582   22.5329 C   0  0  2  0  0  0  0  0  0  0  0  0
    7.9647  -14.9144   21.3343 N   0  0  0  0  0  0  0  0  0  0  0  0
    8.0258  -15.0216   23.7638 C   0  0  0  0  0  0  0  0  0  0  0  0
    9.2650  -14.8529   23.8915 O   0  0  0  0  0  0  0  0  0  0  0  0
    7.3693  -12.2254   27.7254 C   0  0  0  0  0  0  0  0  0  0  0  0
    6.7550  -13.1201   26.6899 C   0  0  1  0  0  0  0  0  0  0  0  0
    5.9113  -12.2671   25.7755 C   0  0  0  0  0  0  0  0  0  0  0  0
    7.8155  -13.8866   25.9355 C   0  0  2  0  0  0  0  0  0  0  0  0
    7.2396  -14.6584   24.8820 N   0  0  0  0  0  0  0  0  0  0  0  0
    8.4147  -14.8523   26.9217 C   0  0  0  0  0  0  0  0  0  0  0  0
    9.1588  -14.4714   27.8610 O   0  0  0  0  0  0  0  0  0  0  0  0
    8.1701  -16.2179   26.8372 O   0  0  0  0  0  0  0  0  0  0  0  0
  2  3  1  0
  2  1  1  6
  4  3  1  0
  5  2  1  0
  5  6  2  0
  7  8  1  0
  9  8  1  6
  9 10  1  0
 10  5  1  0
 11  9  1  0
 11 17  1  0
 12 11  2  0
 14 13  1  1
 14 15  1  0
 14 16  1  0
 16 17  1  6
 16 18  1  0
 18 19  2  0
 18 20  1  0
M  END
$$$$
