CSV.pdb
     RDKit          3D

 20 19  0  0  1  0  0  0  0  0999 V2000
    6.5872  -17.0679   19.9039 N   0  0  0  0  0  0  0  0  0  0  0  0
    7.6885  -16.5945   20.6834 C   0  0  1  0  0  0  0  0  0  0  0  0
    8.3539  -15.3758   20.0861 C   0  0  0  0  0  0  0  0  0  0  0  0
    9.8477  -15.0162   21.0605 S   0  0  0  0  0  0  0  0  0  0  0  0
    7.2642  -16.2897   22.0675 C   0  0  0  0  0  0  0  0  0  0  0  0
    6.0812  -16.0497   22.3027 O   0  0  0  0  0  0  0  0  0  0  0  0
    7.8036  -18.6520   24.9497 O   0  0  0  0  0  0  0  0  0  0  0  0
    7.0217  -17.5166   24.7376 C   0  0  0  0  0  0  0  0  0  0  0  0
    7.8629  -16.2872   24.5145 C   0  0  2  0  0  0  0  0  0  0  0  0
    8.2004  -16.2739   23.1033 N   0  0  0  0  0  0  0  0  0  0  0  0
    9.0212  -16.1760   25.3913 C   0  0  0  0  0  0  0  0  0  0  0  0
   10.1086  -16.7395   25.1078 O   0  0  0  0  0  0  0  0  0  0  0  0
    9.8554  -12.8518   27.6441 C   0  0  0  0  0  0  0  0  0  0  0  0
   10.0943  -14.1570   28.3437 C   0  0  1  0  0  0  0  0  0  0  0  0
    8.9703  -14.3740   29.3260 C   0  0  0  0  0  0  0  0  0  0  0  0
   10.2116  -15.2912   27.3532 C   0  0  2  0  0  0  0  0  0  0  0  0
    9.0084  -15.4419   26.6001 N   0  0  0  0  0  0  0  0  0  0  0  0
   10.3881  -16.5429   28.1695 C   0  0  0  0  0  0  0  0  0  0  0  0
    9.4756  -17.4008   28.2817 O   0  0  0  0  0  0  0  0  0  0  0  0
   11.5761  -16.8077   28.8405 O   0  0  0  0  0  0  0  0  0  0  0  0
  2  3  1  0
  2  1  1  6
  4  3  1  0
  5  2  1  0
  5  6  2  0
  7  8  1  0
  9  8  1  1
  9 10  1  0
 10  5  1  0
 11  9  1  0
 11 17  1  0
 12 11  2  0
 14 13  1  6
 14 15  1  0
 14 16  1  0
 16 17  1  1
 16 18  1  0
 18 19  2  0
 18 20  1  0
M  END
$$$$
