CSV.pdb
     RDKit          3D

 20 19  0  0  1  0  0  0  0  0999 V2000
    7.3532  -15.7871   19.3313 N   0  0  0  0  0  0  0  0  0  0  0  0
    8.3094  -15.3545   20.3025 C   0  0  1  0  0  0  0  0  0  0  0  0
    8.8485  -13.9701   20.0242 C   0  0  0  0  0  0  0  0  0  0  0  0
    7.4443  -12.8134   20.0040 S   0  0  0  0  0  0  0  0  0  0  0  0
    7.7323  -15.3888   21.6643 C   0  0  0  0  0  0  0  0  0  0  0  0
    6.5112  -15.3682   21.8087 O   0  0  0  0  0  0  0  0  0  0  0  0
    6.9453  -17.5939   25.2094 O   0  0  0  0  0  0  0  0  0  0  0  0
    7.3829  -17.1093   23.9768 C   0  0  0  0  0  0  0  0  0  0  0  0
    8.1300  -15.8088   24.1161 C   0  0  2  0  0  0  0  0  0  0  0  0
    8.5678  -15.4444   22.7816 N   0  0  0  0  0  0  0  0  0  0  0  0
    9.2070  -15.8288   25.0972 C   0  0  0  0  0  0  0  0  0  0  0  0
   10.3185  -16.3533   24.8330 O   0  0  0  0  0  0  0  0  0  0  0  0
    9.9720  -12.8360   27.7963 C   0  0  0  0  0  0  0  0  0  0  0  0
   10.0318  -14.2246   28.3604 C   0  0  1  0  0  0  0  0  0  0  0  0
    8.7728  -14.4606   29.1570 C   0  0  0  0  0  0  0  0  0  0  0  0
   10.2130  -15.2489   27.2653 C   0  0  2  0  0  0  0  0  0  0  0  0
    9.0847  -15.2714   26.3913 N   0  0  0  0  0  0  0  0  0  0  0  0
   10.2750  -16.5872   27.9504 C   0  0  0  0  0  0  0  0  0  0  0  0
    9.3056  -17.3880   27.9396 O   0  0  0  0  0  0  0  0  0  0  0  0
   11.4148  -16.9999   28.6303 O   0  0  0  0  0  0  0  0  0  0  0  0
  2  3  1  0
  2  1  1  6
  4  3  1  0
  5  2  1  0
  5  6  2  0
  7  8  1  0
  9  8  1  6
  9 10  1  0
 10  5  1  0
 11  9  1  0
 11 17  1  0
 12 11  2  0
 14 13  1  6
 14 15  1  0
 14 16  1  0
 16 17  1  6
 16 18  1  0
 18 19  2  0
 18 20  1  0
M  END
$$$$
