CSV.pdb
     RDKit          3D

 20 19  0  0  1  0  0  0  0  0999 V2000
    7.9073  -15.4873   18.1621 N   0  0  0  0  0  0  0  0  0  0  0  0
    8.2264  -14.6349   19.2650 C   0  0  1  0  0  0  0  0  0  0  0  0
    7.7849  -13.2050   19.0528 C   0  0  0  0  0  0  0  0  0  0  0  0
    8.9604  -12.4172   17.9091 S   0  0  0  0  0  0  0  0  0  0  0  0
    7.6324  -15.1481   20.5189 C   0  0  0  0  0  0  0  0  0  0  0  0
    6.4293  -15.3985   20.5647 O   0  0  0  0  0  0  0  0  0  0  0  0
    9.6703  -17.3571   23.3969 O   0  0  0  0  0  0  0  0  0  0  0  0
    8.3140  -17.2059   23.1086 C   0  0  0  0  0  0  0  0  0  0  0  0
    7.9311  -15.7584   22.9447 C   0  0  2  0  0  0  0  0  0  0  0  0
    8.4319  -15.3480   21.6462 N   0  0  0  0  0  0  0  0  0  0  0  0
    8.3574  -14.8899   24.0342 C   0  0  0  0  0  0  0  0  0  0  0  0
    9.5032  -14.3729   24.0442 O   0  0  0  0  0  0  0  0  0  0  0  0
    7.2565  -11.9254   27.7750 C   0  0  0  0  0  0  0  0  0  0  0  0
    6.7961  -12.9486   26.7794 C   0  0  1  0  0  0  0  0  0  0  0  0
    5.8817  -12.2643   25.7940 C   0  0  0  0  0  0  0  0  0  0  0  0
    7.9702  -13.6130   26.1002 C   0  0  2  0  0  0  0  0  0  0  0  0
    7.5316  -14.5710   25.1373 N   0  0  0  0  0  0  0  0  0  0  0  0
    8.7055  -14.3647   27.1765 C   0  0  0  0  0  0  0  0  0  0  0  0
    8.5319  -15.5952   27.3687 O   0  0  0  0  0  0  0  0  0  0  0  0
    9.6154  -13.7274   28.0117 O   0  0  0  0  0  0  0  0  0  0  0  0
  2  3  1  0
  2  1  1  6
  4  3  1  0
  5  2  1  0
  5  6  2  0
  7  8  1  0
  9  8  1  1
  9 10  1  0
 10  5  1  0
 11  9  1  0
 11 17  1  0
 12 11  2  0
 14 13  1  1
 14 15  1  0
 14 16  1  0
 16 17  1  6
 16 18  1  0
 18 19  2  0
 18 20  1  0
M  END
$$$$
