CSV.pdb
     RDKit          3D

 20 19  0  0  1  0  0  0  0  0999 V2000
    8.0027  -15.4901   17.9586 N   0  0  0  0  0  0  0  0  0  0  0  0
    8.2630  -14.7024   19.1232 C   0  0  1  0  0  0  0  0  0  0  0  0
    7.8301  -13.2623   18.9707 C   0  0  0  0  0  0  0  0  0  0  0  0
    8.9847  -12.4462   17.8255 S   0  0  0  0  0  0  0  0  0  0  0  0
    7.6064  -15.2858   20.3137 C   0  0  0  0  0  0  0  0  0  0  0  0
    6.6433  -16.0371   20.1708 O   0  0  0  0  0  0  0  0  0  0  0  0
    7.6317  -17.7952   23.8342 O   0  0  0  0  0  0  0  0  0  0  0  0
    7.8574  -17.0943   22.6495 C   0  0  0  0  0  0  0  0  0  0  0  0
    7.6012  -15.6188   22.8107 C   0  0  2  0  0  0  0  0  0  0  0  0
    8.0761  -14.9865   21.5941 N   0  0  0  0  0  0  0  0  0  0  0  0
    8.1555  -15.0349   24.0250 C   0  0  0  0  0  0  0  0  0  0  0  0
    9.3894  -14.8239   24.1413 O   0  0  0  0  0  0  0  0  0  0  0  0
    7.3893  -12.0896   27.8538 C   0  0  0  0  0  0  0  0  0  0  0  0
    6.8153  -13.0312   26.8369 C   0  0  1  0  0  0  0  0  0  0  0  0
    5.9927  -12.2240   25.8637 C   0  0  0  0  0  0  0  0  0  0  0  0
    7.9053  -13.8164   26.1467 C   0  0  2  0  0  0  0  0  0  0  0  0
    7.3639  -14.6698   25.1388 N   0  0  0  0  0  0  0  0  0  0  0  0
    8.5155  -14.7001   27.2007 C   0  0  0  0  0  0  0  0  0  0  0  0
    8.0835  -15.8580   27.4329 O   0  0  0  0  0  0  0  0  0  0  0  0
    9.5915  -14.2724   27.9695 O   0  0  0  0  0  0  0  0  0  0  0  0
  2  3  1  0
  2  1  1  6
  4  3  1  0
  5  2  1  0
  5  6  2  0
  7  8  1  0
  9  8  1  6
  9 10  1  0
 10  5  1  0
 11  9  1  0
 11 17  1  0
 12 11  2  0
 14 13  1  1
 14 15  1  0
 14 16  1  0
 16 17  1  6
 16 18  1  0
 18 19  2  0
 18 20  1  0
M  END
$$$$
