CSV.pdb
     RDKit          3D

 20 19  0  0  1  0  0  0  0  0999 V2000
    8.2558  -14.8971   18.9266 N   0  0  0  0  0  0  0  0  0  0  0  0
    9.2777  -14.8873   19.9268 C   0  0  1  0  0  0  0  0  0  0  0  0
   10.0216  -13.5735   19.9977 C   0  0  0  0  0  0  0  0  0  0  0  0
    8.7928  -12.2373   20.1201 S   0  0  0  0  0  0  0  0  0  0  0  0
    8.7166  -15.2030   21.2588 C   0  0  0  0  0  0  0  0  0  0  0  0
    7.5800  -14.8304   21.5445 O   0  0  0  0  0  0  0  0  0  0  0  0
   10.2922  -18.3387   23.4072 O   0  0  0  0  0  0  0  0  0  0  0  0
    9.0025  -17.8198   23.5214 C   0  0  0  0  0  0  0  0  0  0  0  0
    8.9979  -16.3136   23.5024 C   0  0  2  0  0  0  0  0  0  0  0  0
    9.4720  -15.9203   22.1886 N   0  0  0  0  0  0  0  0  0  0  0  0
    9.7302  -15.6898   24.5966 C   0  0  0  0  0  0  0  0  0  0  0  0
   10.9258  -15.3276   24.4565 O   0  0  0  0  0  0  0  0  0  0  0  0
   10.0230  -13.4227   28.8987 C   0  0  0  0  0  0  0  0  0  0  0  0
    9.1579  -14.0441   27.8426 C   0  0  1  0  0  0  0  0  0  0  0  0
    8.4566  -12.9343   27.0995 C   0  0  0  0  0  0  0  0  0  0  0  0
    9.9710  -14.9215   26.9205 C   0  0  2  0  0  0  0  0  0  0  0  0
    9.1626  -15.4504   25.8698 N   0  0  0  0  0  0  0  0  0  0  0  0
   10.4384  -16.0840   27.7538 C   0  0  0  0  0  0  0  0  0  0  0  0
   11.3383  -15.9626   28.6236 O   0  0  0  0  0  0  0  0  0  0  0  0
    9.8921  -17.3523   27.5975 O   0  0  0  0  0  0  0  0  0  0  0  0
  2  3  1  0
  2  1  1  6
  4  3  1  0
  5  2  1  0
  5  6  2  0
  7  8  1  0
  9  8  1  1
  9 10  1  0
 10  5  1  0
 11  9  1  0
 11 17  1  0
 12 11  2  0
 14 13  1  1
 14 15  1  0
 14 16  1  0
 16 17  1  6
 16 18  1  0
 18 19  2  0
 18 20  1  0
M  END
$$$$
