QID.pdb
     RDKit          3D

 26 25  0  0  1  0  0  0  0  0999 V2000
   23.5531  -17.2774  -21.7393 N   0  0  0  0  0  0  0  0  0  0  0  0
   22.2815  -16.5930  -21.7339 C   0  0  0  0  0  0  0  0  0  0  0  0
   21.3276  -17.2149  -22.2173 O   0  0  0  0  0  0  0  0  0  0  0  0
   22.2579  -15.2658  -21.1720 C   0  0  0  0  0  0  0  0  0  0  0  0
   23.5063  -14.6613  -20.6629 C   0  0  0  0  0  0  0  0  0  0  0  0
   23.7065  -14.6084  -19.1925 C   0  0  2  0  0  0  0  0  0  0  0  0
   22.4595  -14.5093  -18.5058 N   0  0  0  0  0  0  0  0  0  0  0  0
   24.4822  -13.3623  -18.8881 C   0  0  0  0  0  0  0  0  0  0  0  0
   23.8300  -12.2981  -18.7761 O   0  0  0  0  0  0  0  0  0  0  0  0
   28.2281  -13.3624  -15.2306 C   0  0  0  0  0  0  0  0  0  0  0  0
   27.0815  -12.9352  -16.1252 C   0  0  0  0  0  0  0  0  0  0  0  0
   27.6563  -12.4274  -17.4137 C   0  0  2  0  0  0  0  0  0  0  0  0
   28.3868  -11.1262  -17.0926 C   0  0  0  0  0  0  0  0  0  0  0  0
   26.6112  -12.1043  -18.4371 C   0  0  2  0  0  0  0  0  0  0  0  0
   25.8847  -13.3332  -18.7263 N   0  0  0  0  0  0  0  0  0  0  0  0
   27.1647  -11.5336  -19.6789 C   0  0  0  0  0  0  0  0  0  0  0  0
   27.7840  -12.2960  -20.4733 O   0  0  0  0  0  0  0  0  0  0  0  0
   27.0558  -10.1864  -20.0547 N   0  0  0  0  0  0  0  0  0  0  0  0
   27.3297   -9.6975  -21.3970 C   0  0  1  0  0  0  0  0  0  0  0  0
   26.6076  -10.4491  -22.4506 C   0  0  0  0  0  0  0  0  0  0  0  0
   26.9689   -9.9397  -23.7870 C   0  0  0  0  0  0  0  0  0  0  0  0
   26.5515   -8.8292  -24.1994 O   0  0  0  0  0  0  0  0  0  0  0  0
   27.0834   -8.2485  -21.5091 C   0  0  0  0  0  0  0  0  0  0  0  0
   26.2125   -7.6506  -20.5811 O   0  0  0  0  0  0  0  0  0  0  0  0
   27.7854  -10.6764  -24.6328 O   0  0  0  0  0  0  0  0  0  0  0  0
   27.6086   -7.5361  -22.3827 O   0  0  0  0  0  0  0  0  0  0  0  0
  1  2  1  0
  2  4  1  0
  2  3  2  0
  4  5  1  0
  5  6  1  0
  6  8  1  0
  6  7  1  1
  8  9  2  0
 11 10  1  0
 12 11  1  0
 12 14  1  0
 12 13  1  1
 14 15  1  6
 15  8  1  0
 16 17  2  0
 16 14  1  0
 18 16  1  0
 19 18  1  0
 19 23  1  0
 19 20  1  6
 21 20  1  0
 22 21  2  0
 23 24  1  0
 25 21  1  0
 26 23  2  0
M  END
$$$$
