QID.pdb
     RDKit          3D

 26 25  0  0  1  0  0  0  0  0999 V2000
   18.9646  -10.7513  -20.2682 N   0  0  0  0  0  0  0  0  0  0  0  0
   17.7086  -11.4150  -20.0090 C   0  0  0  0  0  0  0  0  0  0  0  0
   17.0760  -11.7889  -21.0042 O   0  0  0  0  0  0  0  0  0  0  0  0
   17.3253  -11.5689  -18.6280 C   0  0  0  0  0  0  0  0  0  0  0  0
   18.2190  -11.0781  -17.5586 C   0  0  0  0  0  0  0  0  0  0  0  0
   19.2807  -11.9905  -17.0634 C   0  0  2  0  0  0  0  0  0  0  0  0
   18.7206  -13.1033  -16.3674 N   0  0  0  0  0  0  0  0  0  0  0  0
   20.1114  -11.2229  -16.0795 C   0  0  0  0  0  0  0  0  0  0  0  0
   19.7336  -11.2325  -14.8847 O   0  0  0  0  0  0  0  0  0  0  0  0
   25.7801  -10.3632  -14.7188 C   0  0  0  0  0  0  0  0  0  0  0  0
   24.4107   -9.7422  -14.5267 C   0  0  0  0  0  0  0  0  0  0  0  0
   23.4818  -10.3312  -15.5460 C   0  0  2  0  0  0  0  0  0  0  0  0
   24.0151   -9.9293  -16.9186 C   0  0  0  0  0  0  0  0  0  0  0  0
   22.0845   -9.8010  -15.4442 C   0  0  2  0  0  0  0  0  0  0  0  0
   21.2749  -10.5039  -16.4303 N   0  0  0  0  0  0  0  0  0  0  0  0
   21.9945   -8.3442  -15.6538 C   0  0  0  0  0  0  0  0  0  0  0  0
   22.1909   -7.8853  -16.8142 O   0  0  0  0  0  0  0  0  0  0  0  0
   21.7027   -7.4109  -14.6481 N   0  0  0  0  0  0  0  0  0  0  0  0
   21.5383   -5.9862  -14.8912 C   0  0  1  0  0  0  0  0  0  0  0  0
   20.1567   -5.5082  -14.6480 C   0  0  0  0  0  0  0  0  0  0  0  0
   20.0372   -4.0790  -14.9931 C   0  0  0  0  0  0  0  0  0  0  0  0
   20.2749   -3.1796  -14.1493 O   0  0  0  0  0  0  0  0  0  0  0  0
   22.5212   -5.1884  -14.1361 C   0  0  0  0  0  0  0  0  0  0  0  0
   22.9986   -4.0010  -14.7185 O   0  0  0  0  0  0  0  0  0  0  0  0
   19.6566   -3.6837  -16.2673 O   0  0  0  0  0  0  0  0  0  0  0  0
   22.9442   -5.5172  -13.0138 O   0  0  0  0  0  0  0  0  0  0  0  0
  1  2  1  0
  2  4  1  0
  2  3  2  0
  4  5  1  0
  5  6  1  0
  6  8  1  0
  6  7  1  1
  8  9  2  0
 11 10  1  0
 12 11  1  0
 12 14  1  0
 12 13  1  6
 14 15  1  6
 15  8  1  0
 16 17  2  0
 16 14  1  0
 18 16  1  0
 19 18  1  0
 19 23  1  0
 19 20  1  1
 21 20  1  0
 22 21  2  0
 23 24  1  0
 25 21  1  0
 26 23  2  0
M  END
$$$$
