QID.pdb
     RDKit          3D

 26 25  0  0  1  0  0  0  0  0999 V2000
   12.1224  -20.0565    1.0529 N   0  0  0  0  0  0  0  0  0  0  0  0
   11.4171  -21.3146    0.9812 C   0  0  0  0  0  0  0  0  0  0  0  0
   10.2729  -21.2703    0.5129 O   0  0  0  0  0  0  0  0  0  0  0  0
   12.1143  -22.4812    1.4616 C   0  0  0  0  0  0  0  0  0  0  0  0
   13.4953  -22.3536    1.9713 C   0  0  0  0  0  0  0  0  0  0  0  0
   14.5514  -21.9177    1.0228 C   0  0  2  0  0  0  0  0  0  0  0  0
   14.8882  -22.9625    0.1109 N   0  0  0  0  0  0  0  0  0  0  0  0
   15.7806  -21.6147    1.8256 C   0  0  0  0  0  0  0  0  0  0  0  0
   16.5716  -22.5634    2.0368 O   0  0  0  0  0  0  0  0  0  0  0  0
   19.3385  -18.2020    0.5239 C   0  0  0  0  0  0  0  0  0  0  0  0
   18.6805  -19.4108    1.1591 C   0  0  0  0  0  0  0  0  0  0  0  0
   18.0346  -18.9739    2.4400 C   0  0  2  0  0  0  0  0  0  0  0  0
   19.1577  -18.5452    3.3807 C   0  0  0  0  0  0  0  0  0  0  0  0
   17.2829  -20.0739    3.1248 C   0  0  2  0  0  0  0  0  0  0  0  0
   16.0810  -20.3363    2.3447 N   0  0  0  0  0  0  0  0  0  0  0  0
   16.9275  -19.7591    4.5207 C   0  0  0  0  0  0  0  0  0  0  0  0
   15.9610  -18.9754    4.7385 O   0  0  0  0  0  0  0  0  0  0  0  0
   17.5900  -20.2707    5.6465 N   0  0  0  0  0  0  0  0  0  0  0  0
   17.2581  -19.9049    7.0147 C   0  0  1  0  0  0  0  0  0  0  0  0
   17.7842  -20.8602    8.0182 C   0  0  0  0  0  0  0  0  0  0  0  0
   16.9846  -20.8000    9.2563 C   0  0  0  0  0  0  0  0  0  0  0  0
   16.0319  -19.9912    9.3819 O   0  0  0  0  0  0  0  0  0  0  0  0
   17.6694  -18.5235    7.3237 C   0  0  0  0  0  0  0  0  0  0  0  0
   16.9283  -17.8102    8.2824 O   0  0  0  0  0  0  0  0  0  0  0  0
   17.2628  -21.6399   10.3250 O   0  0  0  0  0  0  0  0  0  0  0  0
   18.6368  -17.9648    6.7772 O   0  0  0  0  0  0  0  0  0  0  0  0
  1  2  1  0
  2  4  1  0
  2  3  2  0
  4  5  1  0
  5  6  1  0
  6  8  1  0
  6  7  1  6
  8  9  2  0
 11 10  1  0
 12 11  1  0
 12 14  1  0
 12 13  1  1
 14 15  1  6
 15  8  1  0
 16 17  2  0
 16 14  1  0
 18 16  1  0
 19 18  1  0
 19 23  1  0
 19 20  1  1
 21 20  1  0
 22 21  2  0
 23 24  1  0
 25 21  1  0
 26 23  2  0
M  END
$$$$
