QID.pdb
     RDKit          3D

 26 25  0  0  1  0  0  0  0  0999 V2000
   27.5190  -20.1004  -18.5258 N   0  0  0  0  0  0  0  0  0  0  0  0
   28.2473  -18.9407  -18.0676 C   0  0  0  0  0  0  0  0  0  0  0  0
   28.9731  -18.3893  -18.9040 O   0  0  0  0  0  0  0  0  0  0  0  0
   28.0555  -18.5515  -16.6930 C   0  0  0  0  0  0  0  0  0  0  0  0
   27.0966  -19.2917  -15.8469 C   0  0  0  0  0  0  0  0  0  0  0  0
   27.6401  -20.2510  -14.8523 C   0  0  2  0  0  0  0  0  0  0  0  0
   28.2792  -21.3532  -15.4952 N   0  0  0  0  0  0  0  0  0  0  0  0
   26.4811  -20.8000  -14.0761 C   0  0  0  0  0  0  0  0  0  0  0  0
   25.8786  -21.7819  -14.5694 O   0  0  0  0  0  0  0  0  0  0  0  0
   26.7107  -20.6087   -8.7401 C   0  0  0  0  0  0  0  0  0  0  0  0
   26.4447  -21.1741  -10.1211 C   0  0  0  0  0  0  0  0  0  0  0  0
   25.1768  -20.5650  -10.6408 C   0  0  2  0  0  0  0  0  0  0  0  0
   24.0270  -21.2009   -9.8640 C   0  0  0  0  0  0  0  0  0  0  0  0
   24.9387  -20.8508  -12.0919 C   0  0  2  0  0  0  0  0  0  0  0  0
   26.0456  -20.2718  -12.8411 N   0  0  0  0  0  0  0  0  0  0  0  0
   23.6543  -20.3242  -12.5890 C   0  0  0  0  0  0  0  0  0  0  0  0
   23.5375  -19.0791  -12.7672 O   0  0  0  0  0  0  0  0  0  0  0  0
   22.5314  -21.1112  -12.8852 N   0  0  0  0  0  0  0  0  0  0  0  0
   21.3329  -20.5983  -13.5305 C   0  0  1  0  0  0  0  0  0  0  0  0
   21.6124  -19.8889  -14.8014 C   0  0  0  0  0  0  0  0  0  0  0  0
   20.3666  -19.3431  -15.3722 C   0  0  0  0  0  0  0  0  0  0  0  0
   19.4766  -18.8411  -14.6418 O   0  0  0  0  0  0  0  0  0  0  0  0
   20.3218  -21.6543  -13.7184 C   0  0  0  0  0  0  0  0  0  0  0  0
   19.0182  -21.2674  -14.0761 O   0  0  0  0  0  0  0  0  0  0  0  0
   20.1397  -19.3681  -16.7407 O   0  0  0  0  0  0  0  0  0  0  0  0
   20.5694  -22.8646  -13.5753 O   0  0  0  0  0  0  0  0  0  0  0  0
  1  2  1  0
  2  4  1  0
  2  3  2  0
  4  5  1  0
  5  6  1  0
  6  8  1  0
  6  7  1  6
  8  9  2  0
 11 10  1  0
 12 11  1  0
 12 14  1  0
 12 13  1  1
 14 15  1  6
 15  8  1  0
 16 17  2  0
 16 14  1  0
 18 16  1  0
 19 18  1  0
 19 23  1  0
 19 20  1  6
 21 20  1  0
 22 21  2  0
 23 24  1  0
 25 21  1  0
 26 23  2  0
M  END
$$$$
