QID.pdb
     RDKit          3D

 26 25  0  0  1  0  0  0  0  0999 V2000
   22.6065  -24.0668  -13.3904 N   0  0  0  0  0  0  0  0  0  0  0  0
   21.2032  -23.8346  -13.1414 C   0  0  0  0  0  0  0  0  0  0  0  0
   20.4698  -24.8295  -13.1948 O   0  0  0  0  0  0  0  0  0  0  0  0
   20.8066  -22.4774  -12.8613 C   0  0  0  0  0  0  0  0  0  0  0  0
   21.8228  -21.4050  -12.8381 C   0  0  0  0  0  0  0  0  0  0  0  0
   22.8678  -21.4571  -11.7845 C   0  0  2  0  0  0  0  0  0  0  0  0
   22.3640  -20.9861  -10.5352 N   0  0  0  0  0  0  0  0  0  0  0  0
   23.9705  -20.5294  -12.1976 C   0  0  0  0  0  0  0  0  0  0  0  0
   23.8302  -19.3164  -11.9160 O   0  0  0  0  0  0  0  0  0  0  0  0
   28.9488  -21.3525  -10.9859 C   0  0  0  0  0  0  0  0  0  0  0  0
   27.6192  -20.7033  -11.3145 C   0  0  0  0  0  0  0  0  0  0  0  0
   27.4945  -20.6194  -12.8065 C   0  0  2  0  0  0  0  0  0  0  0  0
   28.6035  -19.6908  -13.2940 C   0  0  0  0  0  0  0  0  0  0  0  0
   26.1944  -20.0260  -13.2556 C   0  0  2  0  0  0  0  0  0  0  0  0
   25.1349  -20.9508  -12.8762 N   0  0  0  0  0  0  0  0  0  0  0  0
   26.1433  -19.7570  -14.7045 C   0  0  0  0  0  0  0  0  0  0  0  0
   26.0910  -20.7357  -15.5015 O   0  0  0  0  0  0  0  0  0  0  0  0
   26.1483  -18.4768  -15.2780 N   0  0  0  0  0  0  0  0  0  0  0  0
   26.1167  -18.2339  -16.7119 C   0  0  1  0  0  0  0  0  0  0  0  0
   25.8214  -16.8235  -17.0585 C   0  0  0  0  0  0  0  0  0  0  0  0
   25.7851  -16.6491  -18.5228 C   0  0  0  0  0  0  0  0  0  0  0  0
   25.6221  -17.6263  -19.2948 O   0  0  0  0  0  0  0  0  0  0  0  0
   27.3508  -18.6995  -17.3700 C   0  0  0  0  0  0  0  0  0  0  0  0
   27.2469  -19.7324  -18.3183 O   0  0  0  0  0  0  0  0  0  0  0  0
   25.9307  -15.3931  -19.0940 O   0  0  0  0  0  0  0  0  0  0  0  0
   28.4726  -18.2220  -17.1249 O   0  0  0  0  0  0  0  0  0  0  0  0
  1  2  1  0
  2  4  1  0
  2  3  2  0
  4  5  1  0
  5  6  1  0
  6  8  1  0
  6  7  1  1
  8  9  2  0
 11 10  1  0
 12 11  1  0
 12 14  1  0
 12 13  1  1
 14 15  1  6
 15  8  1  0
 16 17  2  0
 16 14  1  0
 18 16  1  0
 19 18  1  0
 19 23  1  0
 19 20  1  1
 21 20  1  0
 22 21  2  0
 23 24  1  0
 25 21  1  0
 26 23  2  0
M  END
$$$$
