QID.pdb
     RDKit          3D

 26 25  0  0  1  0  0  0  0  0999 V2000
   27.6985  -16.5407  -15.3968 N   0  0  0  0  0  0  0  0  0  0  0  0
   28.3070  -17.5316  -16.2531 C   0  0  0  0  0  0  0  0  0  0  0  0
   29.5344  -17.4542  -16.3869 O   0  0  0  0  0  0  0  0  0  0  0  0
   27.4265  -18.4983  -16.8596 C   0  0  0  0  0  0  0  0  0  0  0  0
   26.6908  -19.4569  -16.0093 C   0  0  0  0  0  0  0  0  0  0  0  0
   27.4608  -20.2287  -15.0012 C   0  0  2  0  0  0  0  0  0  0  0  0
   28.2484  -21.2445  -15.6212 N   0  0  0  0  0  0  0  0  0  0  0  0
   26.4717  -20.9158  -14.1084 C   0  0  0  0  0  0  0  0  0  0  0  0
   26.0701  -22.0473  -14.4671 O   0  0  0  0  0  0  0  0  0  0  0  0
   26.4696  -20.3483   -8.6779 C   0  0  0  0  0  0  0  0  0  0  0  0
   26.3538  -21.0210  -10.0313 C   0  0  0  0  0  0  0  0  0  0  0  0
   25.1056  -20.5232  -10.6968 C   0  0  2  0  0  0  0  0  0  0  0  0
   23.9263  -21.0785   -9.9025 C   0  0  0  0  0  0  0  0  0  0  0  0
   24.9558  -21.0104  -12.1055 C   0  0  2  0  0  0  0  0  0  0  0  0
   25.9815  -20.3574  -12.9076 N   0  0  0  0  0  0  0  0  0  0  0  0
   23.6204  -20.7526  -12.6751 C   0  0  0  0  0  0  0  0  0  0  0  0
   23.2374  -19.5559  -12.8053 O   0  0  0  0  0  0  0  0  0  0  0  0
   22.7256  -21.7495  -13.0914 N   0  0  0  0  0  0  0  0  0  0  0  0
   21.3289  -21.4989  -13.4115 C   0  0  1  0  0  0  0  0  0  0  0  0
   20.4787  -22.7078  -13.3009 C   0  0  0  0  0  0  0  0  0  0  0  0
   19.1109  -22.4213  -13.7730 C   0  0  0  0  0  0  0  0  0  0  0  0
   18.7924  -21.2867  -14.2074 O   0  0  0  0  0  0  0  0  0  0  0  0
   20.7803  -20.3844  -12.6179 C   0  0  0  0  0  0  0  0  0  0  0  0
   20.4188  -19.2052  -13.2930 O   0  0  0  0  0  0  0  0  0  0  0  0
   18.1302  -23.4023  -13.7513 O   0  0  0  0  0  0  0  0  0  0  0  0
   20.6240  -20.4410  -11.3854 O   0  0  0  0  0  0  0  0  0  0  0  0
  1  2  1  0
  2  4  1  0
  2  3  2  0
  4  5  1  0
  5  6  1  0
  6  8  1  0
  6  7  1  6
  8  9  2  0
 11 10  1  0
 12 11  1  0
 12 14  1  0
 12 13  1  1
 14 15  1  6
 15  8  1  0
 16 17  2  0
 16 14  1  0
 18 16  1  0
 19 18  1  0
 19 23  1  0
 19 20  1  1
 21 20  1  0
 22 21  2  0
 23 24  1  0
 25 21  1  0
 26 23  2  0
M  END
$$$$
