QID.pdb
     RDKit          3D

 26 25  0  0  1  0  0  0  0  0999 V2000
   23.9238  -24.6930  -14.7933 N   0  0  0  0  0  0  0  0  0  0  0  0
   23.3980  -23.7056  -15.7065 C   0  0  0  0  0  0  0  0  0  0  0  0
   23.8802  -23.7076  -16.8457 O   0  0  0  0  0  0  0  0  0  0  0  0
   22.3756  -22.8260  -15.1978 C   0  0  0  0  0  0  0  0  0  0  0  0
   21.9434  -22.9392  -13.7894 C   0  0  0  0  0  0  0  0  0  0  0  0
   21.9999  -21.7208  -12.9424 C   0  0  2  0  0  0  0  0  0  0  0  0
   20.9695  -20.7990  -13.2960 N   0  0  0  0  0  0  0  0  0  0  0  0
   23.3114  -21.0462  -13.2108 C   0  0  0  0  0  0  0  0  0  0  0  0
   23.2807  -19.9847  -13.8762 O   0  0  0  0  0  0  0  0  0  0  0  0
   27.2827  -21.1461   -9.5525 C   0  0  0  0  0  0  0  0  0  0  0  0
   26.2896  -20.6952  -10.6051 C   0  0  0  0  0  0  0  0  0  0  0  0
   26.7642  -21.1888  -11.9392 C   0  0  2  0  0  0  0  0  0  0  0  0
   28.0703  -20.4601  -12.2441 C   0  0  0  0  0  0  0  0  0  0  0  0
   25.8144  -20.8750  -13.0543 C   0  0  2  0  0  0  0  0  0  0  0  0
   24.5538  -21.5422  -12.7587 N   0  0  0  0  0  0  0  0  0  0  0  0
   26.3118  -21.2864  -14.3800 C   0  0  0  0  0  0  0  0  0  0  0  0
   26.2650  -22.5095  -14.6925 O   0  0  0  0  0  0  0  0  0  0  0  0
   26.8424  -20.4108  -15.3391 N   0  0  0  0  0  0  0  0  0  0  0  0
   26.6024  -20.5365  -16.7682 C   0  0  1  0  0  0  0  0  0  0  0  0
   25.1657  -20.6605  -17.1101 C   0  0  0  0  0  0  0  0  0  0  0  0
   24.9952  -20.8400  -18.5643 C   0  0  0  0  0  0  0  0  0  0  0  0
   25.4081  -21.8718  -19.1495 O   0  0  0  0  0  0  0  0  0  0  0  0
   27.2403  -19.4443  -17.5252 C   0  0  0  0  0  0  0  0  0  0  0  0
   27.8813  -19.7630  -18.7354 O   0  0  0  0  0  0  0  0  0  0  0  0
   24.3701  -19.8689  -19.3330 O   0  0  0  0  0  0  0  0  0  0  0  0
   27.2363  -18.2608  -17.1430 O   0  0  0  0  0  0  0  0  0  0  0  0
  1  2  1  0
  2  4  1  0
  2  3  2  0
  4  5  1  0
  5  6  1  0
  6  8  1  0
  6  7  1  6
  8  9  2  0
 11 10  1  0
 12 11  1  0
 12 14  1  0
 12 13  1  6
 14 15  1  1
 15  8  1  0
 16 17  2  0
 16 14  1  0
 18 16  1  0
 19 18  1  0
 19 23  1  0
 19 20  1  1
 21 20  1  0
 22 21  2  0
 23 24  1  0
 25 21  1  0
 26 23  2  0
M  END
$$$$
