QID.pdb
     RDKit          3D

 26 25  0  0  1  0  0  0  0  0999 V2000
   25.9205  -24.8842  -15.3464 N   0  0  0  0  0  0  0  0  0  0  0  0
   24.6081  -24.8328  -14.7463 C   0  0  0  0  0  0  0  0  0  0  0  0
   24.3985  -25.6350  -13.8281 O   0  0  0  0  0  0  0  0  0  0  0  0
   23.6857  -23.8609  -15.2778 C   0  0  0  0  0  0  0  0  0  0  0  0
   23.4761  -22.5822  -14.5679 C   0  0  0  0  0  0  0  0  0  0  0  0
   24.6736  -21.8436  -14.0930 C   0  0  2  0  0  0  0  0  0  0  0  0
   24.9436  -22.1276  -12.7208 N   0  0  0  0  0  0  0  0  0  0  0  0
   24.3683  -20.3793  -14.1924 C   0  0  0  0  0  0  0  0  0  0  0  0
   23.7961  -19.8486  -13.2119 O   0  0  0  0  0  0  0  0  0  0  0  0
   28.1000  -17.1539  -15.3107 C   0  0  0  0  0  0  0  0  0  0  0  0
   26.8335  -17.7935  -14.7772 C   0  0  0  0  0  0  0  0  0  0  0  0
   25.7133  -17.4738  -15.7215 C   0  0  2  0  0  0  0  0  0  0  0  0
   25.4660  -15.9707  -15.6254 C   0  0  0  0  0  0  0  0  0  0  0  0
   24.4285  -18.1550  -15.3619 C   0  0  2  0  0  0  0  0  0  0  0  0
   24.6884  -19.5876  -15.3170 N   0  0  0  0  0  0  0  0  0  0  0  0
   23.3292  -17.8642  -16.3006 C   0  0  0  0  0  0  0  0  0  0  0  0
   23.0378  -18.7245  -17.1785 O   0  0  0  0  0  0  0  0  0  0  0  0
   22.5675  -16.6862  -16.2954 N   0  0  0  0  0  0  0  0  0  0  0  0
   21.1392  -16.6465  -16.5682 C   0  0  1  0  0  0  0  0  0  0  0  0
   20.3412  -17.4596  -15.6202 C   0  0  0  0  0  0  0  0  0  0  0  0
   18.9163  -17.4457  -16.0017 C   0  0  0  0  0  0  0  0  0  0  0  0
   18.5443  -17.0370  -17.1295 O   0  0  0  0  0  0  0  0  0  0  0  0
   20.6373  -15.2624  -16.6403 C   0  0  0  0  0  0  0  0  0  0  0  0
   19.9329  -14.8722  -17.7929 O   0  0  0  0  0  0  0  0  0  0  0  0
   17.9392  -17.8865  -15.1208 O   0  0  0  0  0  0  0  0  0  0  0  0
   20.8083  -14.4301  -15.7323 O   0  0  0  0  0  0  0  0  0  0  0  0
  1  2  1  0
  2  4  1  0
  2  3  2  0
  4  5  1  0
  5  6  1  0
  6  8  1  0
  6  7  1  1
  8  9  2  0
 11 10  1  0
 12 11  1  0
 12 14  1  0
 12 13  1  1
 14 15  1  6
 15  8  1  0
 16 17  2  0
 16 14  1  0
 18 16  1  0
 19 18  1  0
 19 23  1  0
 19 20  1  1
 21 20  1  0
 22 21  2  0
 23 24  1  0
 25 21  1  0
 26 23  2  0
M  END
$$$$
