QID.pdb
     RDKit          3D

 26 25  0  0  1  0  0  0  0  0999 V2000
   20.2693  -14.1976  -21.7705 N   0  0  0  0  0  0  0  0  0  0  0  0
   19.7198  -13.0243  -21.1328 C   0  0  0  0  0  0  0  0  0  0  0  0
   19.8092  -11.9674  -21.7695 O   0  0  0  0  0  0  0  0  0  0  0  0
   19.1310  -13.2059  -19.8296 C   0  0  0  0  0  0  0  0  0  0  0  0
   19.7767  -12.6090  -18.6422 C   0  0  0  0  0  0  0  0  0  0  0  0
   20.9492  -13.3096  -18.0597 C   0  0  2  0  0  0  0  0  0  0  0  0
   20.5627  -14.5386  -17.4459 N   0  0  0  0  0  0  0  0  0  0  0  0
   21.5091  -12.4310  -16.9819 C   0  0  0  0  0  0  0  0  0  0  0  0
   20.9790  -12.5103  -15.8492 O   0  0  0  0  0  0  0  0  0  0  0  0
   26.6901  -10.6487  -14.8147 C   0  0  0  0  0  0  0  0  0  0  0  0
   25.2431  -10.2056  -14.9010 C   0  0  0  0  0  0  0  0  0  0  0  0
   24.5680  -11.0147  -15.9678 C   0  0  2  0  0  0  0  0  0  0  0  0
   25.2367  -10.6521  -17.2911 C   0  0  0  0  0  0  0  0  0  0  0  0
   23.1103  -10.7001  -16.1107 C   0  0  2  0  0  0  0  0  0  0  0  0
   22.5832  -11.5361  -17.1808 N   0  0  0  0  0  0  0  0  0  0  0  0
   22.8436   -9.2780  -16.3946 C   0  0  0  0  0  0  0  0  0  0  0  0
   23.0011   -8.8553  -17.5745 O   0  0  0  0  0  0  0  0  0  0  0  0
   22.4210   -8.3405  -15.4405 N   0  0  0  0  0  0  0  0  0  0  0  0
   21.7298   -7.1046  -15.7733 C   0  0  1  0  0  0  0  0  0  0  0  0
   20.5690   -7.3088  -16.6718 C   0  0  0  0  0  0  0  0  0  0  0  0
   19.9308   -6.0179  -16.9913 C   0  0  0  0  0  0  0  0  0  0  0  0
   20.4638   -5.2023  -17.7839 O   0  0  0  0  0  0  0  0  0  0  0  0
   21.3453   -6.3537  -14.5645 C   0  0  0  0  0  0  0  0  0  0  0  0
   21.5055   -6.9805  -13.3161 O   0  0  0  0  0  0  0  0  0  0  0  0
   18.7157   -5.6644  -16.4226 O   0  0  0  0  0  0  0  0  0  0  0  0
   20.8883   -5.1977  -14.6001 O   0  0  0  0  0  0  0  0  0  0  0  0
  1  2  1  0
  2  4  1  0
  2  3  2  0
  4  5  1  0
  5  6  1  0
  6  8  1  0
  6  7  1  1
  8  9  2  0
 11 10  1  0
 12 11  1  0
 12 14  1  0
 12 13  1  6
 14 15  1  6
 15  8  1  0
 16 17  2  0
 16 14  1  0
 18 16  1  0
 19 18  1  0
 19 23  1  0
 19 20  1  1
 21 20  1  0
 22 21  2  0
 23 24  1  0
 25 21  1  0
 26 23  2  0
M  END
$$$$
