LKE.pdb
     RDKit          3D

 27 26  0  0  1  0  0  0  0  0999 V2000
   29.8802  -19.8989  -11.7385 C   0  0  0  0  0  0  0  0  0  0  0  0
   28.8109  -20.9516  -11.9780 C   0  0  1  0  0  0  0  0  0  0  0  0
   28.9071  -21.9195  -10.7949 C   0  0  0  0  0  0  0  0  0  0  0  0
   27.4828  -20.2910  -12.0358 C   0  0  0  0  0  0  0  0  0  0  0  0
   26.3761  -21.2950  -12.2044 C   0  0  2  0  0  0  0  0  0  0  0  0
   26.7205  -22.0996  -13.3943 N   0  0  0  0  0  0  0  0  0  0  0  0
   25.0533  -20.6658  -12.3990 C   0  0  0  0  0  0  0  0  0  0  0  0
   24.5461  -19.9575  -11.5026 O   0  0  0  0  0  0  0  0  0  0  0  0
   24.3578  -20.8690  -13.6122 N   0  0  0  0  0  0  0  0  0  0  0  0
   23.0953  -20.2132  -13.8695 C   0  0  1  0  0  0  0  0  0  0  0  0
   23.3073  -19.3256  -15.0634 C   0  0  0  0  0  0  0  0  0  0  0  0
   22.6041  -19.7497  -16.3064 C   0  0  0  0  0  0  0  0  0  0  0  0
   21.6659  -18.6082  -16.7040 C   0  0  0  0  0  0  0  0  0  0  0  0
   20.8944  -18.9635  -17.9558 C   0  0  0  0  0  0  0  0  0  0  0  0
   20.0792  -17.8235  -18.3283 N   0  0  0  0  0  0  0  0  0  0  0  0
   22.0540  -21.2422  -14.0662 C   0  0  0  0  0  0  0  0  0  0  0  0
   22.3380  -22.3105  -14.6188 O   0  0  0  0  0  0  0  0  0  0  0  0
   20.7337  -21.0196  -13.6292 N   0  0  0  0  0  0  0  0  0  0  0  0
   19.6448  -21.9776  -13.7928 C   0  0  1  0  0  0  0  0  0  0  0  0
   18.8110  -22.0924  -12.5787 C   0  0  0  0  0  0  0  0  0  0  0  0
   18.9020  -23.3922  -11.8768 C   0  0  0  0  0  0  0  0  0  0  0  0
   18.0999  -23.5360  -10.6582 C   0  0  0  0  0  0  0  0  0  0  0  0
   17.3395  -22.6165  -10.2893 O   0  0  0  0  0  0  0  0  0  0  0  0
   18.8685  -21.5937  -14.9975 C   0  0  0  0  0  0  0  0  0  0  0  0
   18.5448  -22.4486  -15.8436 O   0  0  0  0  0  0  0  0  0  0  0  0
   18.1537  -24.6795   -9.8810 O   0  0  0  0  0  0  0  0  0  0  0  0
   18.4875  -20.2937  -15.2100 O   0  0  0  0  0  0  0  0  0  0  0  0
  2  1  1  1
  3  2  1  0
  4  2  1  0
  4  5  1  0
  5  6  1  6
  7  8  2  0
  7  5  1  0
  9  7  1  0
 10  9  1  0
 10 11  1  6
 12 11  1  0
 13 12  1  0
 14 13  1  0
 15 14  1  0
 16 10  1  0
 17 16  2  0
 18 16  1  0
 19 18  1  0
 19 20  1  1
 20 21  1  0
 21 22  1  0
 22 26  1  0
 23 22  2  0
 24 27  1  0
 24 19  1  0
 25 24  2  0
M  END
$$$$
