LKE.pdb
     RDKit          3D

 27 26  0  0  1  0  0  0  0  0999 V2000
   14.3026  -10.2001  -15.8687 C   0  0  0  0  0  0  0  0  0  0  0  0
   15.5275  -10.9453  -16.3720 C   0  0  1  0  0  0  0  0  0  0  0  0
   15.5620  -10.7154  -17.8858 C   0  0  0  0  0  0  0  0  0  0  0  0
   16.7369  -10.3962  -15.7091 C   0  0  0  0  0  0  0  0  0  0  0  0
   17.9939  -11.0039  -16.2674 C   0  0  2  0  0  0  0  0  0  0  0  0
   18.0249  -12.4038  -15.7972 N   0  0  0  0  0  0  0  0  0  0  0  0
   19.2176  -10.3055  -15.8219 C   0  0  0  0  0  0  0  0  0  0  0  0
   19.4875  -10.2053  -14.6056 O   0  0  0  0  0  0  0  0  0  0  0  0
   20.0891   -9.7466  -16.7837 N   0  0  0  0  0  0  0  0  0  0  0  0
   21.3231   -9.1040  -16.3910 C   0  0  1  0  0  0  0  0  0  0  0  0
   22.3436   -9.4576  -17.4359 C   0  0  0  0  0  0  0  0  0  0  0  0
   22.8070  -10.8734  -17.4216 C   0  0  0  0  0  0  0  0  0  0  0  0
   24.0078  -10.9439  -16.4758 C   0  0  0  0  0  0  0  0  0  0  0  0
   24.5835  -12.3426  -16.4485 C   0  0  0  0  0  0  0  0  0  0  0  0
   25.6776  -12.3670  -15.4970 N   0  0  0  0  0  0  0  0  0  0  0  0
   21.0837   -7.6527  -16.2555 C   0  0  0  0  0  0  0  0  0  0  0  0
   20.4544   -7.0464  -17.1293 O   0  0  0  0  0  0  0  0  0  0  0  0
   21.5665   -6.9473  -15.1361 N   0  0  0  0  0  0  0  0  0  0  0  0
   21.3744   -5.5160  -14.9252 C   0  0  1  0  0  0  0  0  0  0  0  0
   19.9514   -5.1248  -14.9914 C   0  0  0  0  0  0  0  0  0  0  0  0
   19.6760   -3.7064  -14.6711 C   0  0  0  0  0  0  0  0  0  0  0  0
   18.2710   -3.2889  -14.7016 C   0  0  0  0  0  0  0  0  0  0  0  0
   17.3791   -4.0944  -15.0416 O   0  0  0  0  0  0  0  0  0  0  0  0
   22.0201   -5.1472  -13.6413 C   0  0  0  0  0  0  0  0  0  0  0  0
   22.2680   -3.9561  -13.3740 O   0  0  0  0  0  0  0  0  0  0  0  0
   17.8846   -2.0051  -14.3596 O   0  0  0  0  0  0  0  0  0  0  0  0
   22.3584   -6.1032  -12.7184 O   0  0  0  0  0  0  0  0  0  0  0  0
  2  1  1  1
  3  2  1  0
  4  2  1  0
  4  5  1  0
  5  6  1  1
  7  8  2  0
  7  5  1  0
  9  7  1  0
 10  9  1  0
 10 11  1  6
 12 11  1  0
 13 12  1  0
 14 13  1  0
 15 14  1  0
 16 10  1  0
 17 16  2  0
 18 16  1  0
 19 18  1  0
 19 20  1  1
 20 21  1  0
 21 22  1  0
 22 26  1  0
 23 22  2  0
 24 27  1  0
 24 19  1  0
 25 24  2  0
M  END
$$$$
