LKE.pdb
     RDKit          3D

 27 26  0  0  1  0  0  0  0  0999 V2000
   29.6832  -20.6623  -12.3431 C   0  0  0  0  0  0  0  0  0  0  0  0
   28.3818  -21.2177  -11.7891 C   0  0  1  0  0  0  0  0  0  0  0  0
   28.5967  -21.3539  -10.2788 C   0  0  0  0  0  0  0  0  0  0  0  0
   27.2790  -20.2740  -12.1003 C   0  0  0  0  0  0  0  0  0  0  0  0
   25.9761  -20.7365  -11.5091 C   0  0  2  0  0  0  0  0  0  0  0  0
   26.1861  -22.1338  -11.0784 N   0  0  0  0  0  0  0  0  0  0  0  0
   24.8554  -20.6787  -12.4706 C   0  0  0  0  0  0  0  0  0  0  0  0
   24.5574  -19.6059  -13.0386 O   0  0  0  0  0  0  0  0  0  0  0  0
   24.1156  -21.8503  -12.7481 N   0  0  0  0  0  0  0  0  0  0  0  0
   23.0449  -21.8462  -13.7196 C   0  0  1  0  0  0  0  0  0  0  0  0
   22.9354  -23.2498  -14.2448 C   0  0  0  0  0  0  0  0  0  0  0  0
   23.6694  -23.5152  -15.5138 C   0  0  0  0  0  0  0  0  0  0  0  0
   25.1638  -23.4442  -15.1922 C   0  0  0  0  0  0  0  0  0  0  0  0
   25.9890  -23.6847  -16.4369 C   0  0  0  0  0  0  0  0  0  0  0  0
   27.3911  -23.5758  -16.0828 N   0  0  0  0  0  0  0  0  0  0  0  0
   21.8132  -21.3523  -13.0707 C   0  0  0  0  0  0  0  0  0  0  0  0
   21.8729  -20.8193  -11.9573 O   0  0  0  0  0  0  0  0  0  0  0  0
   20.5645  -21.4820  -13.7091 N   0  0  0  0  0  0  0  0  0  0  0  0
   19.6922  -20.3587  -14.0370 C   0  0  1  0  0  0  0  0  0  0  0  0
   20.3950  -19.3058  -14.7983 C   0  0  0  0  0  0  0  0  0  0  0  0
   20.0198  -17.9190  -14.4424 C   0  0  0  0  0  0  0  0  0  0  0  0
   20.0724  -16.9287  -15.5221 C   0  0  0  0  0  0  0  0  0  0  0  0
   19.7501  -15.7413  -15.3076 O   0  0  0  0  0  0  0  0  0  0  0  0
   18.5002  -20.8899  -14.7430 C   0  0  0  0  0  0  0  0  0  0  0  0
   17.3521  -20.6268  -14.3377 O   0  0  0  0  0  0  0  0  0  0  0  0
   20.4754  -17.2667  -16.8019 O   0  0  0  0  0  0  0  0  0  0  0  0
   18.6301  -21.6801  -15.8562 O   0  0  0  0  0  0  0  0  0  0  0  0
  2  1  1  6
  3  2  1  0
  4  2  1  0
  4  5  1  0
  5  6  1  6
  7  8  2  0
  7  5  1  0
  9  7  1  0
 10  9  1  0
 10 11  1  1
 12 11  1  0
 13 12  1  0
 14 13  1  0
 15 14  1  0
 16 10  1  0
 17 16  2  0
 18 16  1  0
 19 18  1  0
 19 20  1  6
 20 21  1  0
 21 22  1  0
 22 26  1  0
 23 22  2  0
 24 27  1  0
 24 19  1  0
 25 24  2  0
M  END
$$$$
