LKE.pdb
     RDKit          3D

 27 26  0  0  1  0  0  0  0  0999 V2000
   15.3278  -11.0027  -17.5145 C   0  0  0  0  0  0  0  0  0  0  0  0
   16.6752  -11.7026  -17.4526 C   0  0  1  0  0  0  0  0  0  0  0  0
   17.1607  -11.8002  -18.9019 C   0  0  0  0  0  0  0  0  0  0  0  0
   17.6032  -10.8977  -16.6193 C   0  0  0  0  0  0  0  0  0  0  0  0
   18.9610  -11.5381  -16.5332 C   0  0  2  0  0  0  0  0  0  0  0  0
   18.7634  -12.8489  -15.8816 N   0  0  0  0  0  0  0  0  0  0  0  0
   19.9260  -10.7377  -15.7511 C   0  0  0  0  0  0  0  0  0  0  0  0
   19.7422  -10.5300  -14.5323 O   0  0  0  0  0  0  0  0  0  0  0  0
   21.0670  -10.2033  -16.3910 N   0  0  0  0  0  0  0  0  0  0  0  0
   22.0582   -9.4553  -15.6508 C   0  0  1  0  0  0  0  0  0  0  0  0
   23.3998   -9.8818  -16.1764 C   0  0  0  0  0  0  0  0  0  0  0  0
   23.9737  -11.1028  -15.5445 C   0  0  0  0  0  0  0  0  0  0  0  0
   25.3050  -11.3872  -16.2432 C   0  0  0  0  0  0  0  0  0  0  0  0
   25.8504  -12.7342  -15.8232 C   0  0  0  0  0  0  0  0  0  0  0  0
   27.0574  -12.9949  -16.5836 N   0  0  0  0  0  0  0  0  0  0  0  0
   21.7844   -8.0124  -15.8095 C   0  0  0  0  0  0  0  0  0  0  0  0
   21.5666   -7.5451  -16.9327 O   0  0  0  0  0  0  0  0  0  0  0  0
   21.7684   -7.1578  -14.6902 N   0  0  0  0  0  0  0  0  0  0  0  0
   21.4817   -5.7282  -14.7558 C   0  0  1  0  0  0  0  0  0  0  0  0
   20.0338   -5.4496  -14.8462 C   0  0  0  0  0  0  0  0  0  0  0  0
   19.6703   -4.0149  -14.8409 C   0  0  0  0  0  0  0  0  0  0  0  0
   18.2465   -3.6995  -14.9911 C   0  0  0  0  0  0  0  0  0  0  0  0
   17.8498   -2.5173  -14.9216 O   0  0  0  0  0  0  0  0  0  0  0  0
   22.1287   -5.0732  -13.5922 C   0  0  0  0  0  0  0  0  0  0  0  0
   22.3374   -5.7079  -12.5409 O   0  0  0  0  0  0  0  0  0  0  0  0
   17.3011   -4.6853  -15.2125 O   0  0  0  0  0  0  0  0  0  0  0  0
   22.5135   -3.7580  -13.6435 O   0  0  0  0  0  0  0  0  0  0  0  0
  2  1  1  6
  3  2  1  0
  4  2  1  0
  4  5  1  0
  5  6  1  1
  7  8  2  0
  7  5  1  0
  9  7  1  0
 10  9  1  0
 10 11  1  6
 12 11  1  0
 13 12  1  0
 14 13  1  0
 15 14  1  0
 16 10  1  0
 17 16  2  0
 18 16  1  0
 19 18  1  0
 19 20  1  1
 20 21  1  0
 21 22  1  0
 22 26  1  0
 23 22  2  0
 24 27  1  0
 24 19  1  0
 25 24  2  0
M  END
$$$$
