LKE.pdb
     RDKit          3D

 27 26  0  0  1  0  0  0  0  0999 V2000
   28.6305  -18.8197   -5.8506 C   0  0  0  0  0  0  0  0  0  0  0  0
   27.7851  -19.9475   -6.4185 C   0  0  1  0  0  0  0  0  0  0  0  0
   26.8850  -20.4123   -5.2698 C   0  0  0  0  0  0  0  0  0  0  0  0
   26.9896  -19.4310   -7.5604 C   0  0  0  0  0  0  0  0  0  0  0  0
   26.2828  -20.5427   -8.2857 C   0  0  2  0  0  0  0  0  0  0  0  0
   27.2532  -21.6507   -8.3978 N   0  0  0  0  0  0  0  0  0  0  0  0
   25.8237  -20.1492   -9.6340 C   0  0  0  0  0  0  0  0  0  0  0  0
   25.0757  -19.1599   -9.7894 O   0  0  0  0  0  0  0  0  0  0  0  0
   26.2367  -20.9014  -10.7567 N   0  0  0  0  0  0  0  0  0  0  0  0
   25.8693  -20.5064  -12.0980 C   0  0  1  0  0  0  0  0  0  0  0  0
   26.9404  -21.0342  -13.0104 C   0  0  0  0  0  0  0  0  0  0  0  0
   26.7118  -20.8016  -14.4640 C   0  0  0  0  0  0  0  0  0  0  0  0
   27.9119  -21.3913  -15.2079 C   0  0  0  0  0  0  0  0  0  0  0  0
   27.7739  -21.1748  -16.6987 C   0  0  0  0  0  0  0  0  0  0  0  0
   28.8336  -21.9063  -17.3659 N   0  0  0  0  0  0  0  0  0  0  0  0
   24.5194  -21.0266  -12.3962 C   0  0  0  0  0  0  0  0  0  0  0  0
   24.2100  -22.1732  -12.0544 O   0  0  0  0  0  0  0  0  0  0  0  0
   23.5750  -20.2273  -13.0692 N   0  0  0  0  0  0  0  0  0  0  0  0
   22.2015  -20.6381  -13.3429 C   0  0  1  0  0  0  0  0  0  0  0  0
   21.2993  -19.4851  -13.5400 C   0  0  0  0  0  0  0  0  0  0  0  0
   19.9113  -19.8330  -13.9177 C   0  0  0  0  0  0  0  0  0  0  0  0
   18.8426  -19.2084  -13.1322 C   0  0  0  0  0  0  0  0  0  0  0  0
   19.0954  -18.2553  -12.3657 O   0  0  0  0  0  0  0  0  0  0  0  0
   22.2188  -21.5677  -14.4992 C   0  0  0  0  0  0  0  0  0  0  0  0
   22.9895  -21.3740  -15.4584 O   0  0  0  0  0  0  0  0  0  0  0  0
   17.5317  -19.6446  -13.2087 O   0  0  0  0  0  0  0  0  0  0  0  0
   21.3915  -22.6604  -14.5419 O   0  0  0  0  0  0  0  0  0  0  0  0
  2  1  1  1
  3  2  1  0
  4  2  1  0
  4  5  1  0
  5  6  1  6
  7  8  2  0
  7  5  1  0
  9  7  1  0
 10  9  1  0
 10 11  1  6
 12 11  1  0
 13 12  1  0
 14 13  1  0
 15 14  1  0
 16 10  1  0
 17 16  2  0
 18 16  1  0
 19 18  1  0
 19 20  1  6
 20 21  1  0
 21 22  1  0
 22 26  1  0
 23 22  2  0
 24 27  1  0
 24 19  1  0
 25 24  2  0
M  END
$$$$
