LKE.pdb
     RDKit          3D

 27 26  0  0  1  0  0  0  0  0999 V2000
   22.9424  -12.8486  -20.4594 C   0  0  0  0  0  0  0  0  0  0  0  0
   23.4351  -13.2983  -19.0941 C   0  0  1  0  0  0  0  0  0  0  0  0
   22.8370  -12.3094  -18.0891 C   0  0  0  0  0  0  0  0  0  0  0  0
   22.9670  -14.6840  -18.8407 C   0  0  0  0  0  0  0  0  0  0  0  0
   23.3604  -15.1548  -17.4678 C   0  0  2  0  0  0  0  0  0  0  0  0
   24.7993  -14.8554  -17.3205 N   0  0  0  0  0  0  0  0  0  0  0  0
   23.1335  -16.6014  -17.2688 C   0  0  0  0  0  0  0  0  0  0  0  0
   21.9967  -17.0963  -17.4276 O   0  0  0  0  0  0  0  0  0  0  0  0
   24.2152  -17.4305  -16.8954 N   0  0  0  0  0  0  0  0  0  0  0  0
   24.0292  -18.8462  -16.6693 C   0  0  1  0  0  0  0  0  0  0  0  0
   25.3840  -19.4837  -16.7966 C   0  0  0  0  0  0  0  0  0  0  0  0
   25.4119  -20.9630  -16.6222 C   0  0  0  0  0  0  0  0  0  0  0  0
   26.8421  -21.4231  -16.9127 C   0  0  0  0  0  0  0  0  0  0  0  0
   26.9600  -22.9238  -16.7635 C   0  0  0  0  0  0  0  0  0  0  0  0
   28.3306  -23.3040  -17.0464 N   0  0  0  0  0  0  0  0  0  0  0  0
   23.3984  -19.0401  -15.3478 C   0  0  0  0  0  0  0  0  0  0  0  0
   23.9339  -18.5783  -14.3342 O   0  0  0  0  0  0  0  0  0  0  0  0
   22.1871  -19.7486  -15.2279 N   0  0  0  0  0  0  0  0  0  0  0  0
   21.4863  -19.9642  -13.9660 C   0  0  1  0  0  0  0  0  0  0  0  0
   20.1140  -19.4179  -13.9854 C   0  0  0  0  0  0  0  0  0  0  0  0
   19.3072  -19.7073  -12.7789 C   0  0  0  0  0  0  0  0  0  0  0  0
   17.9487  -19.1568  -12.7519 C   0  0  0  0  0  0  0  0  0  0  0  0
   17.6943  -18.0725  -13.3171 O   0  0  0  0  0  0  0  0  0  0  0  0
   21.5309  -21.4142  -13.6544 C   0  0  0  0  0  0  0  0  0  0  0  0
   21.5612  -22.2598  -14.5685 O   0  0  0  0  0  0  0  0  0  0  0  0
   16.9112  -19.8080  -12.1085 O   0  0  0  0  0  0  0  0  0  0  0  0
   21.5412  -21.8599  -12.3576 O   0  0  0  0  0  0  0  0  0  0  0  0
  2  1  1  6
  3  2  1  0
  4  2  1  0
  4  5  1  0
  5  6  1  6
  7  8  2  0
  7  5  1  0
  9  7  1  0
 10  9  1  0
 10 11  1  1
 12 11  1  0
 13 12  1  0
 14 13  1  0
 15 14  1  0
 16 10  1  0
 17 16  2  0
 18 16  1  0
 19 18  1  0
 19 20  1  6
 20 21  1  0
 21 22  1  0
 22 26  1  0
 23 22  2  0
 24 27  1  0
 24 19  1  0
 25 24  2  0
M  END
$$$$
