LKE.pdb
     RDKit          3D

 27 26  0  0  1  0  0  0  0  0999 V2000
   31.6277  -33.3312  -16.0043 C   0  0  0  0  0  0  0  0  0  0  0  0
   33.0860  -33.4485  -15.5937 C   0  0  1  0  0  0  0  0  0  0  0  0
   33.5588  -32.0170  -15.3232 C   0  0  0  0  0  0  0  0  0  0  0  0
   33.1819  -34.2938  -14.3773 C   0  0  0  0  0  0  0  0  0  0  0  0
   34.6046  -34.4217  -13.9073 C   0  0  2  0  0  0  0  0  0  0  0  0
   35.3768  -34.9453  -15.0525 N   0  0  0  0  0  0  0  0  0  0  0  0
   34.7497  -35.3345  -12.7544 C   0  0  0  0  0  0  0  0  0  0  0  0
   34.9867  -36.5494  -12.9289 O   0  0  0  0  0  0  0  0  0  0  0  0
   34.6185  -34.8252  -11.4428 N   0  0  0  0  0  0  0  0  0  0  0  0
   35.0287  -35.6018  -10.2944 C   0  0  1  0  0  0  0  0  0  0  0  0
   36.5173  -35.7764  -10.4027 C   0  0  0  0  0  0  0  0  0  0  0  0
   37.1477  -36.5695   -9.3105 C   0  0  0  0  0  0  0  0  0  0  0  0
   37.1274  -38.0351   -9.7497 C   0  0  0  0  0  0  0  0  0  0  0  0
   37.7871  -38.9127   -8.7091 C   0  0  0  0  0  0  0  0  0  0  0  0
   37.7526  -40.2838   -9.1804 N   0  0  0  0  0  0  0  0  0  0  0  0
   34.5958  -34.9038   -9.0666 C   0  0  0  0  0  0  0  0  0  0  0  0
   35.0981  -33.8156   -8.7652 O   0  0  0  0  0  0  0  0  0  0  0  0
   33.6121  -35.4664   -8.2304 N   0  0  0  0  0  0  0  0  0  0  0  0
   33.1455  -34.8556   -6.9897 C   0  0  1  0  0  0  0  0  0  0  0  0
   31.6868  -34.6220   -6.9928 C   0  0  0  0  0  0  0  0  0  0  0  0
   31.1441  -34.0323   -5.7486 C   0  0  0  0  0  0  0  0  0  0  0  0
   29.7018  -33.7707   -5.7227 C   0  0  0  0  0  0  0  0  0  0  0  0
   28.8978  -34.6861   -5.4484 O   0  0  0  0  0  0  0  0  0  0  0  0
   33.5965  -35.7037   -5.8589 C   0  0  0  0  0  0  0  0  0  0  0  0
   33.5990  -35.2612   -4.6945 O   0  0  0  0  0  0  0  0  0  0  0  0
   29.1835  -32.5175   -5.9972 O   0  0  0  0  0  0  0  0  0  0  0  0
   34.0194  -36.9918   -6.0644 O   0  0  0  0  0  0  0  0  0  0  0  0
  2  1  1  1
  3  2  1  0
  4  2  1  0
  4  5  1  0
  5  6  1  6
  7  8  2  0
  7  5  1  0
  9  7  1  0
 10  9  1  0
 10 11  1  1
 12 11  1  0
 13 12  1  0
 14 13  1  0
 15 14  1  0
 16 10  1  0
 17 16  2  0
 18 16  1  0
 19 18  1  0
 19 20  1  6
 20 21  1  0
 21 22  1  0
 22 26  1  0
 23 22  2  0
 24 27  1  0
 24 19  1  0
 25 24  2  0
M  END
$$$$
