LKE.pdb
     RDKit          3D

 27 26  0  0  1  0  0  0  0  0999 V2000
   27.2930  -19.6050   -7.9752 C   0  0  0  0  0  0  0  0  0  0  0  0
   26.6550  -20.6990   -8.8150 C   0  0  1  0  0  0  0  0  0  0  0  0
   25.2915  -20.9741   -8.1740 C   0  0  0  0  0  0  0  0  0  0  0  0
   26.5140  -20.2190  -10.2126 C   0  0  0  0  0  0  0  0  0  0  0  0
   25.8319  -21.2414  -11.0790 C   0  0  2  0  0  0  0  0  0  0  0  0
   26.8961  -21.9000  -11.8636 N   0  0  0  0  0  0  0  0  0  0  0  0
   24.8375  -20.6469  -11.9961 C   0  0  0  0  0  0  0  0  0  0  0  0
   23.8728  -19.9885  -11.5506 O   0  0  0  0  0  0  0  0  0  0  0  0
   24.9818  -20.8265  -13.3903 N   0  0  0  0  0  0  0  0  0  0  0  0
   24.0501  -20.2310  -14.3216 C   0  0  1  0  0  0  0  0  0  0  0  0
   24.6716  -20.3467  -15.6849 C   0  0  0  0  0  0  0  0  0  0  0  0
   23.8925  -19.7312  -16.7955 C   0  0  0  0  0  0  0  0  0  0  0  0
   24.7030  -19.9309  -18.0779 C   0  0  0  0  0  0  0  0  0  0  0  0
   23.9662  -19.3588  -19.2688 C   0  0  0  0  0  0  0  0  0  0  0  0
   24.7761  -19.5734  -20.4524 N   0  0  0  0  0  0  0  0  0  0  0  0
   22.7474  -20.9162  -14.1977 C   0  0  0  0  0  0  0  0  0  0  0  0
   22.7071  -22.1373  -14.0119 O   0  0  0  0  0  0  0  0  0  0  0  0
   21.5436  -20.1908  -14.2892 N   0  0  0  0  0  0  0  0  0  0  0  0
   20.2252  -20.7549  -14.0178 C   0  0  1  0  0  0  0  0  0  0  0  0
   19.2056  -19.7120  -13.7834 C   0  0  0  0  0  0  0  0  0  0  0  0
   17.8486  -20.2192  -13.4808 C   0  0  0  0  0  0  0  0  0  0  0  0
   16.7277  -19.4884  -14.0797 C   0  0  0  0  0  0  0  0  0  0  0  0
   16.8019  -18.2550  -14.2618 O   0  0  0  0  0  0  0  0  0  0  0  0
   19.8758  -21.6702  -15.1321 C   0  0  0  0  0  0  0  0  0  0  0  0
   20.0703  -21.3334  -16.3155 O   0  0  0  0  0  0  0  0  0  0  0  0
   15.5612  -20.1277  -14.4607 O   0  0  0  0  0  0  0  0  0  0  0  0
   19.3332  -22.9060  -14.8900 O   0  0  0  0  0  0  0  0  0  0  0  0
  2  1  1  1
  3  2  1  0
  4  2  1  0
  4  5  1  0
  5  6  1  6
  7  8  2  0
  7  5  1  0
  9  7  1  0
 10  9  1  0
 10 11  1  6
 12 11  1  0
 13 12  1  0
 14 13  1  0
 15 14  1  0
 16 10  1  0
 17 16  2  0
 18 16  1  0
 19 18  1  0
 19 20  1  6
 20 21  1  0
 21 22  1  0
 22 26  1  0
 23 22  2  0
 24 27  1  0
 24 19  1  0
 25 24  2  0
M  END
$$$$
