FCI.pdb
     RDKit          3D

 26 26  0  0  1  0  0  0  0  0999 V2000
    5.7675  -18.4426   23.7280 N   0  0  0  0  0  0  0  0  0  0  0  0
    6.3235  -17.1722   24.0647 C   0  0  1  0  0  0  0  0  0  0  0  0
    6.0031  -16.9459   25.5403 C   0  0  0  0  0  0  0  0  0  0  0  0
    6.2989  -15.5279   25.8381 C   0  0  0  0  0  0  0  0  0  0  0  0
    7.2857  -15.1789   26.7270 C   0  0  0  0  0  0  0  0  0  0  0  0
    7.5817  -13.8255   26.9712 C   0  0  0  0  0  0  0  0  0  0  0  0
    6.8550  -12.8611   26.2956 C   0  0  0  0  0  0  0  0  0  0  0  0
    5.8568  -13.1893   25.3967 C   0  0  0  0  0  0  0  0  0  0  0  0
    5.6080  -14.5269   25.1940 C   0  0  0  0  0  0  0  0  0  0  0  0
    7.7743  -17.0297   23.8057 C   0  0  0  0  0  0  0  0  0  0  0  0
    8.5480  -17.9614   24.2468 O   0  0  0  0  0  0  0  0  0  0  0  0
    8.4084  -15.9797   23.1237 N   0  0  0  0  0  0  0  0  0  0  0  0
    9.8342  -15.8324   22.9339 C   0  0  1  0  0  0  0  0  0  0  0  0
   10.1830  -14.6277   22.0807 C   0  0  0  0  0  0  0  0  0  0  0  0
    8.9820  -14.4979   20.7361 S   0  0  0  0  0  0  0  0  0  0  0  0
   10.6096  -15.7601   24.1686 C   0  0  0  0  0  0  0  0  0  0  0  0
   11.8371  -15.5149   24.1027 O   0  0  0  0  0  0  0  0  0  0  0  0
    9.6624  -12.6298   28.3331 C   0  0  0  0  0  0  0  0  0  0  0  0
   10.3279  -13.5059   27.2935 C   0  0  0  0  0  0  0  0  0  0  0  0
   10.3578  -14.9482   27.7189 C   0  0  2  0  0  0  0  0  0  0  0  0
   11.0023  -15.0966   29.0679 C   0  0  0  0  0  0  0  0  0  0  0  0
   10.8144  -15.9152   26.6847 C   0  0  2  0  0  0  0  0  0  0  0  0
   10.0542  -15.9526   25.4694 N   0  0  0  0  0  0  0  0  0  0  0  0
   10.9782  -17.2344   27.3127 C   0  0  0  0  0  0  0  0  0  0  0  0
   11.8552  -17.4380   28.1742 O   0  0  0  0  0  0  0  0  0  0  0  0
   10.1442  -18.2653   26.9402 O   0  0  0  0  0  0  0  0  0  0  0  0
  2  1  1  1
  2 10  1  0
  3  2  1  0
  3  4  1  0
  4  5  2  0
  4  9  1  0
  5  6  1  0
  6  7  2  0
  8  7  1  0
  9  8  2  0
 10 11  2  0
 12 13  1  0
 12 10  1  0
 13 16  1  0
 14 15  1  0
 13 14  1  1
 16 17  2  0
 18 19  1  0
 20 21  1  1
 20 19  1  0
 22 20  1  0
 23 16  1  0
 22 23  1  6
 24 26  1  0
 24 22  1  0
 25 24  2  0
M  END
$$$$
