FCI.pdb
     RDKit          3D

 26 26  0  0  1  0  0  0  0  0999 V2000
    7.0344  -18.2531   19.3944 N   0  0  0  0  0  0  0  0  0  0  0  0
    7.3112  -17.0629   20.1314 C   0  0  1  0  0  0  0  0  0  0  0  0
    6.5535  -15.9406   19.4259 C   0  0  0  0  0  0  0  0  0  0  0  0
    7.0701  -14.6624   19.9609 C   0  0  0  0  0  0  0  0  0  0  0  0
    6.6512  -14.1790   21.1761 C   0  0  0  0  0  0  0  0  0  0  0  0
    7.1803  -12.9810   21.6897 C   0  0  0  0  0  0  0  0  0  0  0  0
    8.1287  -12.3066   20.9409 C   0  0  0  0  0  0  0  0  0  0  0  0
    8.5647  -12.7743   19.7149 C   0  0  0  0  0  0  0  0  0  0  0  0
    8.0159  -13.9504   19.2591 C   0  0  0  0  0  0  0  0  0  0  0  0
    6.9664  -17.1171   21.5703 C   0  0  0  0  0  0  0  0  0  0  0  0
    5.7695  -17.4831   21.8782 O   0  0  0  0  0  0  0  0  0  0  0  0
    7.8094  -16.8111   22.6499 N   0  0  0  0  0  0  0  0  0  0  0  0
    7.4724  -16.9398   24.0500 C   0  0  1  0  0  0  0  0  0  0  0  0
    7.1766  -18.3743   24.4445 C   0  0  0  0  0  0  0  0  0  0  0  0
    8.7086  -19.3299   24.3606 S   0  0  0  0  0  0  0  0  0  0  0  0
    8.4736  -16.4083   24.9698 C   0  0  0  0  0  0  0  0  0  0  0  0
    9.6840  -16.4604   24.6479 O   0  0  0  0  0  0  0  0  0  0  0  0
    6.7385  -11.8801   27.1118 C   0  0  0  0  0  0  0  0  0  0  0  0
    7.6196  -12.9128   26.4423 C   0  0  0  0  0  0  0  0  0  0  0  0
    8.4441  -13.6736   27.4441 C   0  0  2  0  0  0  0  0  0  0  0  0
    9.3900  -12.7574   28.1671 C   0  0  0  0  0  0  0  0  0  0  0  0
    9.0388  -14.9464   26.9548 C   0  0  2  0  0  0  0  0  0  0  0  0
    8.1618  -15.8220   26.2334 N   0  0  0  0  0  0  0  0  0  0  0  0
    9.7309  -15.6035   28.0731 C   0  0  0  0  0  0  0  0  0  0  0  0
   10.7011  -15.0659   28.6410 O   0  0  0  0  0  0  0  0  0  0  0  0
    9.2968  -16.8388   28.5008 O   0  0  0  0  0  0  0  0  0  0  0  0
  2  1  1  6
  2 10  1  0
  3  2  1  0
  3  4  1  0
  4  5  2  0
  4  9  1  0
  5  6  1  0
  6  7  2  0
  8  7  1  0
  9  8  2  0
 10 11  2  0
 12 13  1  0
 12 10  1  0
 13 16  1  0
 14 15  1  0
 13 14  1  1
 16 17  2  0
 18 19  1  0
 20 21  1  6
 20 19  1  0
 22 20  1  0
 23 16  1  0
 22 23  1  1
 24 26  1  0
 24 22  1  0
 25 24  2  0
M  END
$$$$
