FCI.pdb
     RDKit          3D

 26 26  0  0  1  0  0  0  0  0999 V2000
    5.6811  -17.6900   23.5951 N   0  0  0  0  0  0  0  0  0  0  0  0
    6.5692  -16.6508   24.0048 C   0  0  1  0  0  0  0  0  0  0  0  0
    6.1549  -16.2734   25.4251 C   0  0  0  0  0  0  0  0  0  0  0  0
    6.4378  -14.8317   25.5932 C   0  0  0  0  0  0  0  0  0  0  0  0
    5.6479  -14.0402   26.3903 C   0  0  0  0  0  0  0  0  0  0  0  0
    5.9520  -12.6787   26.5712 C   0  0  0  0  0  0  0  0  0  0  0  0
    7.0623  -12.1616   25.9271 C   0  0  0  0  0  0  0  0  0  0  0  0
    7.8714  -12.9397   25.1196 C   0  0  0  0  0  0  0  0  0  0  0  0
    7.5299  -14.2645   24.9770 C   0  0  0  0  0  0  0  0  0  0  0  0
    8.0090  -16.9898   23.9413 C   0  0  0  0  0  0  0  0  0  0  0  0
    8.3959  -18.0472   24.5686 O   0  0  0  0  0  0  0  0  0  0  0  0
    9.0121  -16.2787   23.2643 N   0  0  0  0  0  0  0  0  0  0  0  0
   10.4330  -16.5323   23.3483 C   0  0  1  0  0  0  0  0  0  0  0  0
   11.2198  -15.7703   22.2988 C   0  0  0  0  0  0  0  0  0  0  0  0
   10.6401  -16.2672   20.6605 S   0  0  0  0  0  0  0  0  0  0  0  0
   11.0253  -16.2585   24.6541 C   0  0  0  0  0  0  0  0  0  0  0  0
   12.0500  -15.5393   24.7187 O   0  0  0  0  0  0  0  0  0  0  0  0
    9.5316  -12.8466   27.5980 C   0  0  0  0  0  0  0  0  0  0  0  0
   10.4166  -13.9239   27.0088 C   0  0  0  0  0  0  0  0  0  0  0  0
   10.3461  -15.1981   27.8047 C   0  0  2  0  0  0  0  0  0  0  0  0
   10.7050  -14.9531   29.2428 C   0  0  0  0  0  0  0  0  0  0  0  0
   10.9913  -16.3840   27.1800 C   0  0  2  0  0  0  0  0  0  0  0  0
   10.5068  -16.7630   25.8847 N   0  0  0  0  0  0  0  0  0  0  0  0
   10.9888  -17.4879   28.1510 C   0  0  0  0  0  0  0  0  0  0  0  0
   11.6528  -17.4270   29.2037 O   0  0  0  0  0  0  0  0  0  0  0  0
   10.2364  -18.6118   27.8904 O   0  0  0  0  0  0  0  0  0  0  0  0
  2  1  1  1
  2 10  1  0
  3  2  1  0
  3  4  1  0
  4  5  2  0
  4  9  1  0
  5  6  1  0
  6  7  2  0
  8  7  1  0
  9  8  2  0
 10 11  2  0
 12 13  1  0
 12 10  1  0
 13 16  1  0
 14 15  1  0
 13 14  1  6
 16 17  2  0
 18 19  1  0
 20 21  1  1
 20 19  1  0
 22 20  1  0
 23 16  1  0
 22 23  1  6
 24 26  1  0
 24 22  1  0
 25 24  2  0
M  END
$$$$
