FCI.pdb
     RDKit          3D

 26 26  0  0  1  0  0  0  0  0999 V2000
    5.6872  -16.9993   22.6026 N   0  0  0  0  0  0  0  0  0  0  0  0
    6.6883  -16.3022   23.3431 C   0  0  1  0  0  0  0  0  0  0  0  0
    6.1160  -16.0989   24.7439 C   0  0  0  0  0  0  0  0  0  0  0  0
    6.3573  -14.6873   25.1128 C   0  0  0  0  0  0  0  0  0  0  0  0
    5.6076  -14.0674   26.0820 C   0  0  0  0  0  0  0  0  0  0  0  0
    5.8740  -12.7359   26.4493 C   0  0  0  0  0  0  0  0  0  0  0  0
    6.9061  -12.0715   25.8104 C   0  0  0  0  0  0  0  0  0  0  0  0
    7.6736  -12.6754   24.8315 C   0  0  0  0  0  0  0  0  0  0  0  0
    7.3718  -13.9785   24.5106 C   0  0  0  0  0  0  0  0  0  0  0  0
    8.0101  -16.9670   23.3979 C   0  0  0  0  0  0  0  0  0  0  0  0
    8.3000  -17.7863   22.4461 O   0  0  0  0  0  0  0  0  0  0  0  0
    8.9954  -16.8012   24.3837 N   0  0  0  0  0  0  0  0  0  0  0  0
   10.3945  -17.1395   24.2476 C   0  0  1  0  0  0  0  0  0  0  0  0
   11.0142  -16.5458   22.9968 C   0  0  0  0  0  0  0  0  0  0  0  0
   12.6940  -17.1884   22.8168 S   0  0  0  0  0  0  0  0  0  0  0  0
   11.2250  -16.7713   25.3902 C   0  0  0  0  0  0  0  0  0  0  0  0
   12.1866  -15.9862   25.2156 O   0  0  0  0  0  0  0  0  0  0  0  0
    9.5759  -13.2026   27.5343 C   0  0  0  0  0  0  0  0  0  0  0  0
   10.4733  -14.3504   27.1244 C   0  0  0  0  0  0  0  0  0  0  0  0
   10.6720  -15.3296   28.2486 C   0  0  2  0  0  0  0  0  0  0  0  0
   11.1219  -14.6277   29.4984 C   0  0  0  0  0  0  0  0  0  0  0  0
   11.4289  -16.5625   27.9025 C   0  0  2  0  0  0  0  0  0  0  0  0
   11.0119  -17.2529   26.7169 N   0  0  0  0  0  0  0  0  0  0  0  0
   11.4914  -17.4262   29.0906 C   0  0  0  0  0  0  0  0  0  0  0  0
   12.0885  -17.0661   30.1233 O   0  0  0  0  0  0  0  0  0  0  0  0
   10.8766  -18.6584   29.0600 O   0  0  0  0  0  0  0  0  0  0  0  0
  2  1  1  6
  2 10  1  0
  3  2  1  0
  3  4  1  0
  4  5  2  0
  4  9  1  0
  5  6  1  0
  6  7  2  0
  8  7  1  0
  9  8  2  0
 10 11  2  0
 12 13  1  0
 12 10  1  0
 13 16  1  0
 14 15  1  0
 13 14  1  6
 16 17  2  0
 18 19  1  0
 20 21  1  1
 20 19  1  0
 22 20  1  0
 23 16  1  0
 22 23  1  6
 24 26  1  0
 24 22  1  0
 25 24  2  0
M  END
$$$$
