FCI.pdb
     RDKit          3D

 26 26  0  0  1  0  0  0  0  0999 V2000
    7.8844  -17.3863   18.6044 N   0  0  0  0  0  0  0  0  0  0  0  0
    8.6538  -17.2890   19.8023 C   0  0  1  0  0  0  0  0  0  0  0  0
    9.5500  -16.0644   19.6331 C   0  0  0  0  0  0  0  0  0  0  0  0
    8.7125  -14.8727   19.8884 C   0  0  0  0  0  0  0  0  0  0  0  0
    8.5437  -14.3811   21.1594 C   0  0  0  0  0  0  0  0  0  0  0  0
    7.7754  -13.2240   21.3821 C   0  0  0  0  0  0  0  0  0  0  0  0
    7.1972  -12.5985   20.2916 C   0  0  0  0  0  0  0  0  0  0  0  0
    7.3532  -13.0760   19.0033 C   0  0  0  0  0  0  0  0  0  0  0  0
    8.1145  -14.2100   18.8408 C   0  0  0  0  0  0  0  0  0  0  0  0
    7.8662  -17.2051   21.0531 C   0  0  0  0  0  0  0  0  0  0  0  0
    6.5976  -17.4167   20.9684 O   0  0  0  0  0  0  0  0  0  0  0  0
    8.3541  -16.9180   22.3374 N   0  0  0  0  0  0  0  0  0  0  0  0
    7.6574  -17.1590   23.5811 C   0  0  1  0  0  0  0  0  0  0  0  0
    7.3142  -18.6234   23.7778 C   0  0  0  0  0  0  0  0  0  0  0  0
    6.5955  -18.8383   25.4223 S   0  0  0  0  0  0  0  0  0  0  0  0
    8.3560  -16.6875   24.7730 C   0  0  0  0  0  0  0  0  0  0  0  0
    9.5364  -17.0591   24.9733 O   0  0  0  0  0  0  0  0  0  0  0  0
    6.0566  -11.9454   26.6376 C   0  0  0  0  0  0  0  0  0  0  0  0
    6.9244  -13.0150   26.0099 C   0  0  0  0  0  0  0  0  0  0  0  0
    7.7958  -13.6938   27.0307 C   0  0  2  0  0  0  0  0  0  0  0  0
    8.6302  -12.6910   27.7759 C   0  0  0  0  0  0  0  0  0  0  0  0
    8.5236  -14.9010   26.5554 C   0  0  2  0  0  0  0  0  0  0  0  0
    7.7757  -15.8156   25.7429 N   0  0  0  0  0  0  0  0  0  0  0  0
    9.1766  -15.5411   27.7067 C   0  0  0  0  0  0  0  0  0  0  0  0
    8.7310  -16.5942   28.2018 O   0  0  0  0  0  0  0  0  0  0  0  0
   10.3041  -14.9638   28.2477 O   0  0  0  0  0  0  0  0  0  0  0  0
  2  1  1  6
  2 10  1  0
  3  2  1  0
  3  4  1  0
  4  5  2  0
  4  9  1  0
  5  6  1  0
  6  7  2  0
  8  7  1  0
  9  8  2  0
 10 11  2  0
 12 13  1  0
 12 10  1  0
 13 16  1  0
 14 15  1  0
 13 14  1  1
 16 17  2  0
 18 19  1  0
 20 21  1  6
 20 19  1  0
 22 20  1  0
 23 16  1  0
 22 23  1  1
 24 26  1  0
 24 22  1  0
 25 24  2  0
M  END
$$$$
