FCI.pdb
     RDKit          3D

 26 26  0  0  1  0  0  0  0  0999 V2000
    7.8681  -17.5825   19.0257 N   0  0  0  0  0  0  0  0  0  0  0  0
    8.6918  -17.1794   20.1192 C   0  0  1  0  0  0  0  0  0  0  0  0
    9.4335  -15.9286   19.6536 C   0  0  0  0  0  0  0  0  0  0  0  0
    8.5272  -14.7797   19.8667 C   0  0  0  0  0  0  0  0  0  0  0  0
    8.4818  -14.1239   21.0723 C   0  0  0  0  0  0  0  0  0  0  0  0
    7.6428  -13.0085   21.2481 C   0  0  0  0  0  0  0  0  0  0  0  0
    6.8686  -12.5929   20.1792 C   0  0  0  0  0  0  0  0  0  0  0  0
    6.8979  -13.2383   18.9566 C   0  0  0  0  0  0  0  0  0  0  0  0
    7.7357  -14.3227   18.8378 C   0  0  0  0  0  0  0  0  0  0  0  0
    7.9756  -16.9326   21.3912 C   0  0  0  0  0  0  0  0  0  0  0  0
    6.6888  -16.8760   21.3441 O   0  0  0  0  0  0  0  0  0  0  0  0
    8.5499  -16.7520   22.6591 N   0  0  0  0  0  0  0  0  0  0  0  0
    7.9086  -17.0258   23.9257 C   0  0  1  0  0  0  0  0  0  0  0  0
    7.3991  -18.4515   24.0200 C   0  0  0  0  0  0  0  0  0  0  0  0
    6.7331  -18.7244   25.6780 S   0  0  0  0  0  0  0  0  0  0  0  0
    8.7344  -16.7553   25.0986 C   0  0  0  0  0  0  0  0  0  0  0  0
    9.8987  -17.2177   25.1427 O   0  0  0  0  0  0  0  0  0  0  0  0
    6.8440  -12.1173   27.4065 C   0  0  0  0  0  0  0  0  0  0  0  0
    7.6833  -13.1323   26.6607 C   0  0  0  0  0  0  0  0  0  0  0  0
    8.5457  -13.9351   27.5956 C   0  0  2  0  0  0  0  0  0  0  0  0
    9.4856  -13.0441   28.3571 C   0  0  0  0  0  0  0  0  0  0  0  0
    9.1588  -15.1596   27.0145 C   0  0  2  0  0  0  0  0  0  0  0  0
    8.2980  -15.9854   26.2187 N   0  0  0  0  0  0  0  0  0  0  0  0
    9.8482  -15.8947   28.0849 C   0  0  0  0  0  0  0  0  0  0  0  0
    9.4032  -16.9739   28.5209 O   0  0  0  0  0  0  0  0  0  0  0  0
   11.0099  -15.3787   28.6155 O   0  0  0  0  0  0  0  0  0  0  0  0
  2  1  1  6
  2 10  1  0
  3  2  1  0
  3  4  1  0
  4  5  2  0
  4  9  1  0
  5  6  1  0
  6  7  2  0
  8  7  1  0
  9  8  2  0
 10 11  2  0
 12 13  1  0
 12 10  1  0
 13 16  1  0
 14 15  1  0
 13 14  1  6
 16 17  2  0
 18 19  1  0
 20 21  1  6
 20 19  1  0
 22 20  1  0
 23 16  1  0
 22 23  1  1
 24 26  1  0
 24 22  1  0
 25 24  2  0
M  END
$$$$
