FCI.pdb
     RDKit          3D

 26 26  0  0  1  0  0  0  0  0999 V2000
    5.3501  -17.1506   24.4470 N   0  0  0  0  0  0  0  0  0  0  0  0
    6.4578  -16.2578   24.5582 C   0  0  1  0  0  0  0  0  0  0  0  0
    6.4595  -15.7610   26.0020 C   0  0  0  0  0  0  0  0  0  0  0  0
    6.5601  -14.2863   25.9554 C   0  0  0  0  0  0  0  0  0  0  0  0
    5.5110  -13.4893   26.3425 C   0  0  0  0  0  0  0  0  0  0  0  0
    5.6349  -12.0882   26.3293 C   0  0  0  0  0  0  0  0  0  0  0  0
    6.8360  -11.5380   25.9174 C   0  0  0  0  0  0  0  0  0  0  0  0
    7.9053  -12.3209   25.5229 C   0  0  0  0  0  0  0  0  0  0  0  0
    7.7317  -13.6851   25.5552 C   0  0  0  0  0  0  0  0  0  0  0  0
    7.7714  -16.8333   24.1904 C   0  0  0  0  0  0  0  0  0  0  0  0
    8.0895  -17.9656   24.7176 O   0  0  0  0  0  0  0  0  0  0  0  0
    8.7204  -16.2758   23.3195 N   0  0  0  0  0  0  0  0  0  0  0  0
   10.1359  -16.5703   23.3092 C   0  0  1  0  0  0  0  0  0  0  0  0
   10.8580  -15.9001   22.1558 C   0  0  0  0  0  0  0  0  0  0  0  0
   12.5718  -16.4739   22.1282 S   0  0  0  0  0  0  0  0  0  0  0  0
   10.8373  -16.2369   24.5452 C   0  0  0  0  0  0  0  0  0  0  0  0
   11.5748  -15.2237   24.5721 O   0  0  0  0  0  0  0  0  0  0  0  0
    8.8903  -13.6480   27.8379 C   0  0  0  0  0  0  0  0  0  0  0  0
    9.9857  -14.3808   27.0935 C   0  0  0  0  0  0  0  0  0  0  0  0
   10.3853  -15.6478   27.7986 C   0  0  2  0  0  0  0  0  0  0  0  0
   10.8511  -15.3594   29.1975 C   0  0  0  0  0  0  0  0  0  0  0  0
   11.2482  -16.5745   27.0179 C   0  0  2  0  0  0  0  0  0  0  0  0
   10.7377  -17.0003   25.7474 N   0  0  0  0  0  0  0  0  0  0  0  0
   11.6522  -17.6881   27.8886 C   0  0  0  0  0  0  0  0  0  0  0  0
   11.2501  -18.8497   27.6843 O   0  0  0  0  0  0  0  0  0  0  0  0
   12.4927  -17.4409   28.9514 O   0  0  0  0  0  0  0  0  0  0  0  0
  2  1  1  1
  2 10  1  0
  3  2  1  0
  3  4  1  0
  4  5  2  0
  4  9  1  0
  5  6  1  0
  6  7  2  0
  8  7  1  0
  9  8  2  0
 10 11  2  0
 12 13  1  0
 12 10  1  0
 13 16  1  0
 14 15  1  0
 13 14  1  6
 16 17  2  0
 18 19  1  0
 20 21  1  1
 20 19  1  0
 22 20  1  0
 23 16  1  0
 22 23  1  6
 24 26  1  0
 24 22  1  0
 25 24  2  0
M  END
$$$$
