FCI.pdb
     RDKit          3D

 26 26  0  0  1  0  0  0  0  0999 V2000
    7.8695  -15.3855   20.2979 N   0  0  0  0  0  0  0  0  0  0  0  0
    8.0149  -14.9659   21.6541 C   0  0  1  0  0  0  0  0  0  0  0  0
    6.6001  -14.7472   22.1850 C   0  0  0  0  0  0  0  0  0  0  0  0
    6.7262  -14.2817   23.5830 C   0  0  0  0  0  0  0  0  0  0  0  0
    6.4213  -15.1067   24.6375 C   0  0  0  0  0  0  0  0  0  0  0  0
    6.5830  -14.6627   25.9625 C   0  0  0  0  0  0  0  0  0  0  0  0
    7.0545  -13.3789   26.1729 C   0  0  0  0  0  0  0  0  0  0  0  0
    7.3673  -12.5308   25.1266 C   0  0  0  0  0  0  0  0  0  0  0  0
    7.1917  -13.0145   23.8509 C   0  0  0  0  0  0  0  0  0  0  0  0
    8.7737  -15.8933   22.5236 C   0  0  0  0  0  0  0  0  0  0  0  0
    8.1756  -16.9696   22.9045 O   0  0  0  0  0  0  0  0  0  0  0  0
   10.0893  -15.7287   22.9843 N   0  0  0  0  0  0  0  0  0  0  0  0
   10.8039  -16.6413   23.8486 C   0  0  1  0  0  0  0  0  0  0  0  0
   12.0673  -17.1792   23.2040 C   0  0  0  0  0  0  0  0  0  0  0  0
   13.1823  -15.7978   22.8640 S   0  0  0  0  0  0  0  0  0  0  0  0
   11.1531  -16.0953   25.1567 C   0  0  0  0  0  0  0  0  0  0  0  0
   11.7803  -15.0116   25.2160 O   0  0  0  0  0  0  0  0  0  0  0  0
    8.5151  -14.2017   29.2364 C   0  0  0  0  0  0  0  0  0  0  0  0
    9.1255  -15.2590   28.3418 C   0  0  0  0  0  0  0  0  0  0  0  0
   10.6269  -15.1718   28.3229 C   0  0  2  0  0  0  0  0  0  0  0  0
   11.0797  -13.8047   27.8948 C   0  0  0  0  0  0  0  0  0  0  0  0
   11.3298  -16.3091   27.6707 C   0  0  2  0  0  0  0  0  0  0  0  0
   10.8220  -16.7232   26.3951 N   0  0  0  0  0  0  0  0  0  0  0  0
   11.4454  -17.4093   28.6390 C   0  0  0  0  0  0  0  0  0  0  0  0
   11.9624  -17.2352   29.7594 O   0  0  0  0  0  0  0  0  0  0  0  0
   10.9720  -18.6573   28.2994 O   0  0  0  0  0  0  0  0  0  0  0  0
  2  1  1  6
  2 10  1  0
  3  2  1  0
  3  4  1  0
  4  5  2  0
  4  9  1  0
  5  6  1  0
  6  7  2  0
  8  7  1  0
  9  8  2  0
 10 11  2  0
 12 13  1  0
 12 10  1  0
 13 16  1  0
 14 15  1  0
 13 14  1  6
 16 17  2  0
 18 19  1  0
 20 21  1  6
 20 19  1  0
 22 20  1  0
 23 16  1  0
 22 23  1  6
 24 26  1  0
 24 22  1  0
 25 24  2  0
M  END
$$$$
