FCI.pdb
     RDKit          3D

 26 26  0  0  1  0  0  0  0  0999 V2000
    7.2273  -18.7757   18.9039 N   0  0  0  0  0  0  0  0  0  0  0  0
    7.4922  -17.5218   19.5315 C   0  0  1  0  0  0  0  0  0  0  0  0
    6.8516  -16.4583   18.6428 C   0  0  0  0  0  0  0  0  0  0  0  0
    7.1453  -15.1443   19.2544 C   0  0  0  0  0  0  0  0  0  0  0  0
    6.4003  -14.6660   20.3041 C   0  0  0  0  0  0  0  0  0  0  0  0
    6.7158  -13.4317   20.9007 C   0  0  0  0  0  0  0  0  0  0  0  0
    7.7910  -12.7166   20.4034 C   0  0  0  0  0  0  0  0  0  0  0  0
    8.5547  -13.1785   19.3472 C   0  0  0  0  0  0  0  0  0  0  0  0
    8.2040  -14.3911   18.8006 C   0  0  0  0  0  0  0  0  0  0  0  0
    7.0201  -17.4038   20.9298 C   0  0  0  0  0  0  0  0  0  0  0  0
    5.8173  -17.7918   21.1826 O   0  0  0  0  0  0  0  0  0  0  0  0
    7.7467  -16.9107   22.0248 N   0  0  0  0  0  0  0  0  0  0  0  0
    7.3384  -16.9760   23.4102 C   0  0  1  0  0  0  0  0  0  0  0  0
    7.2874  -18.3994   23.9319 C   0  0  0  0  0  0  0  0  0  0  0  0
    6.8227  -18.3642   25.6783 S   0  0  0  0  0  0  0  0  0  0  0  0
    8.1532  -16.1813   24.3243 C   0  0  0  0  0  0  0  0  0  0  0  0
    9.3745  -16.4416   24.4337 O   0  0  0  0  0  0  0  0  0  0  0  0
    6.2340  -11.5977   27.6334 C   0  0  0  0  0  0  0  0  0  0  0  0
    6.7190  -12.9832   27.2642 C   0  0  0  0  0  0  0  0  0  0  0  0
    7.8610  -12.9303   26.2869 C   0  0  2  0  0  0  0  0  0  0  0  0
    7.5371  -12.0261   25.1316 C   0  0  0  0  0  0  0  0  0  0  0  0
    8.4567  -14.2433   25.9209 C   0  0  2  0  0  0  0  0  0  0  0  0
    7.6440  -15.1080   25.1159 N   0  0  0  0  0  0  0  0  0  0  0  0
    8.9642  -14.8870   27.1413 C   0  0  0  0  0  0  0  0  0  0  0  0
    8.4974  -15.9694   27.5456 O   0  0  0  0  0  0  0  0  0  0  0  0
    9.9766  -14.2801   27.8513 O   0  0  0  0  0  0  0  0  0  0  0  0
  2  1  1  6
  2 10  1  0
  3  2  1  0
  3  4  1  0
  4  5  2  0
  4  9  1  0
  5  6  1  0
  6  7  2  0
  8  7  1  0
  9  8  2  0
 10 11  2  0
 12 13  1  0
 12 10  1  0
 13 16  1  0
 14 15  1  0
 13 14  1  1
 16 17  2  0
 18 19  1  0
 20 21  1  6
 20 19  1  0
 22 20  1  0
 23 16  1  0
 22 23  1  1
 24 26  1  0
 24 22  1  0
 25 24  2  0
M  END
$$$$
