GRI.pdb
     RDKit          3D

 24 23  0  0  1  0  0  0  0  0999 V2000
    7.5576  -12.5791   18.6041 N   0  0  0  0  0  0  0  0  0  0  0  0
    8.5158  -13.5511   19.0897 C   0  0  0  0  0  0  0  0  0  0  0  0
    8.0731  -14.1914   20.3387 C   0  0  0  0  0  0  0  0  0  0  0  0
    7.0503  -13.8367   20.9349 O   0  0  0  0  0  0  0  0  0  0  0  0
   11.1686  -18.6457   18.5238 N   0  0  0  0  0  0  0  0  0  0  0  0
   10.4024  -19.8285   18.5992 C   0  0  0  0  0  0  0  0  0  0  0  0
   10.1937  -20.5239   17.5323 N   0  0  0  0  0  0  0  0  0  0  0  0
    9.8571  -20.2625   19.8352 N   0  0  0  0  0  0  0  0  0  0  0  0
   10.0578  -19.4322   21.0352 C   0  0  0  0  0  0  0  0  0  0  0  0
    9.2500  -18.1649   20.9159 C   0  0  0  0  0  0  0  0  0  0  0  0
    9.2253  -17.2919   22.1069 C   0  0  0  0  0  0  0  0  0  0  0  0
    8.4468  -16.0216   22.0280 C   0  0  2  0  0  0  0  0  0  0  0  0
    8.8530  -15.2568   20.8767 N   0  0  0  0  0  0  0  0  0  0  0  0
    8.8979  -15.2015   23.2276 C   0  0  0  0  0  0  0  0  0  0  0  0
    9.9582  -14.5641   23.1272 O   0  0  0  0  0  0  0  0  0  0  0  0
    9.7213  -21.4460   17.5211 C   0  0  0  0  0  0  0  0  0  0  0  0
    6.5270  -11.3395   27.0114 C   0  0  0  0  0  0  0  0  0  0  0  0
    7.6999  -12.2765   26.8378 C   0  0  2  0  0  0  0  0  0  0  0  0
    7.3971  -13.1981   25.6772 C   0  0  0  0  0  0  0  0  0  0  0  0
    6.0850  -13.8965   25.9509 C   0  0  2  0  0  0  0  0  0  0  0  0
    8.4580  -14.2696   25.5269 N   0  0  0  0  0  0  0  0  0  0  0  0
    8.1470  -15.1582   24.4174 C   0  0  0  0  0  0  0  0  0  0  0  0
    8.4994  -15.0372   26.7845 O   0  0  0  0  0  0  0  0  0  0  0  0
    9.1529  -14.5200   27.8816 O   0  0  0  0  0  0  0  0  0  0  0  0
  2  1  1  0
  2  3  1  0
  3  4  2  0
  3 13  1  0
  6  7  2  0
  6  5  1  0
  8  6  1  0
  9  8  1  0
 10  9  1  0
 11 10  1  0
 12 14  1  0
 12 11  1  6
 13 12  1  0
 14 15  2  0
 16 17  1  0
 17 18  1  0
 18 19  1  6
 20 22  1  0
 20 18  1  0
 20 21  1  1
 21 14  1  0
 22 23  1  0
 24 22  2  0
M  END
$$$$
