GRI.pdb
     RDKit          3D

 24 23  0  0  1  0  0  0  0  0999 V2000
    7.6926  -12.8377   18.4847 N   0  0  0  0  0  0  0  0  0  0  0  0
    8.4321  -13.9148   19.1107 C   0  0  0  0  0  0  0  0  0  0  0  0
    7.7909  -14.3816   20.3503 C   0  0  0  0  0  0  0  0  0  0  0  0
    6.8193  -13.8027   20.8487 O   0  0  0  0  0  0  0  0  0  0  0  0
    8.4546  -21.9362   22.2522 N   0  0  0  0  0  0  0  0  0  0  0  0
    7.2883  -21.6821   23.0051 C   0  0  0  0  0  0  0  0  0  0  0  0
    6.3029  -22.5140   22.9574 N   0  0  0  0  0  0  0  0  0  0  0  0
    7.1854  -20.5211   23.8145 N   0  0  0  0  0  0  0  0  0  0  0  0
    8.3109  -19.5713   23.8471 C   0  0  0  0  0  0  0  0  0  0  0  0
    7.7950  -18.1671   23.6602 C   0  0  0  0  0  0  0  0  0  0  0  0
    8.2080  -17.4797   22.4199 C   0  0  0  0  0  0  0  0  0  0  0  0
    7.7619  -16.0702   22.2188 C   0  0  2  0  0  0  0  0  0  0  0  0
    8.3109  -15.5416   20.9962 N   0  0  0  0  0  0  0  0  0  0  0  0
    8.4328  -15.2765   23.3301 C   0  0  0  0  0  0  0  0  0  0  0  0
    9.6339  -14.9937   23.1953 O   0  0  0  0  0  0  0  0  0  0  0  0
    5.4283  -22.4129   23.5037 C   0  0  0  0  0  0  0  0  0  0  0  0
    6.7374  -10.9361   27.2135 C   0  0  0  0  0  0  0  0  0  0  0  0
    7.8149  -11.9427   26.8822 C   0  0  2  0  0  0  0  0  0  0  0  0
    7.2859  -12.8581   25.8004 C   0  0  0  0  0  0  0  0  0  0  0  0
    6.0245  -13.5185   26.3074 C   0  0  2  0  0  0  0  0  0  0  0  0
    8.2736  -13.9594   25.4722 N   0  0  0  0  0  0  0  0  0  0  0  0
    7.7265  -14.8700   24.4777 C   0  0  0  0  0  0  0  0  0  0  0  0
    8.5555  -14.6932   26.7190 O   0  0  0  0  0  0  0  0  0  0  0  0
    9.3779  -14.1336   27.6723 O   0  0  0  0  0  0  0  0  0  0  0  0
  2  1  1  0
  2  3  1  0
  3  4  2  0
  3 13  1  0
  6  7  2  0
  6  5  1  0
  8  6  1  0
  9  8  1  0
 10  9  1  0
 11 10  1  0
 12 14  1  0
 12 11  1  1
 13 12  1  0
 14 15  2  0
 16 17  1  0
 17 18  1  0
 18 19  1  6
 20 22  1  0
 20 18  1  0
 20 21  1  1
 21 14  1  0
 22 23  1  0
 24 22  2  0
M  END
$$$$
