GRI.pdb
     RDKit          3D

 24 23  0  0  1  0  0  0  0  0999 V2000
    8.2938  -20.0007   21.5721 N   0  0  0  0  0  0  0  0  0  0  0  0
    7.3091  -18.9574   21.7736 C   0  0  0  0  0  0  0  0  0  0  0  0
    7.9120  -17.7155   22.2833 C   0  0  0  0  0  0  0  0  0  0  0  0
    9.0232  -17.6954   22.8239 O   0  0  0  0  0  0  0  0  0  0  0  0
    9.8447  -15.0062   18.5062 N   0  0  0  0  0  0  0  0  0  0  0  0
    9.0481  -14.0908   17.7858 C   0  0  0  0  0  0  0  0  0  0  0  0
    9.0764  -14.0961   16.4957 N   0  0  0  0  0  0  0  0  0  0  0  0
    8.2159  -13.1626   18.4637 N   0  0  0  0  0  0  0  0  0  0  0  0
    8.2199  -13.1430   19.9366 C   0  0  0  0  0  0  0  0  0  0  0  0
    7.0999  -14.0068   20.4583 C   0  0  0  0  0  0  0  0  0  0  0  0
    6.9828  -14.1072   21.9272 C   0  0  0  0  0  0  0  0  0  0  0  0
    7.6913  -15.2281   22.6111 C   0  0  2  0  0  0  0  0  0  0  0  0
    7.1867  -16.4954   22.1476 N   0  0  0  0  0  0  0  0  0  0  0  0
    7.2637  -15.1407   24.0687 C   0  0  0  0  0  0  0  0  0  0  0  0
    6.1503  -15.5967   24.3736 O   0  0  0  0  0  0  0  0  0  0  0  0
    8.5699  -13.4170   15.8991 C   0  0  0  0  0  0  0  0  0  0  0  0
   11.0962  -14.2959   28.0321 C   0  0  0  0  0  0  0  0  0  0  0  0
    9.8313  -14.9304   27.5017 C   0  0  2  0  0  0  0  0  0  0  0  0
    8.8168  -13.8326   27.2697 C   0  0  0  0  0  0  0  0  0  0  0  0
    8.2478  -13.4170   28.6068 C   0  0  2  0  0  0  0  0  0  0  0  0
    7.6617  -14.3147   26.4156 N   0  0  0  0  0  0  0  0  0  0  0  0
    8.0937  -14.5645   25.0487 C   0  0  0  0  0  0  0  0  0  0  0  0
    6.6276  -13.2645   26.4281 O   0  0  0  0  0  0  0  0  0  0  0  0
    5.6592  -13.2682   27.4081 O   0  0  0  0  0  0  0  0  0  0  0  0
  2  1  1  0
  2  3  1  0
  3  4  2  0
  3 13  1  0
  6  7  2  0
  6  5  1  0
  8  6  1  0
  9  8  1  0
 10  9  1  0
 11 10  1  0
 12 14  1  0
 12 11  1  6
 13 12  1  0
 14 15  2  0
 16 17  1  0
 17 18  1  0
 18 19  1  6
 20 22  1  0
 20 18  1  0
 20 21  1  1
 21 14  1  0
 22 23  1  0
 24 22  2  0
M  END
$$$$
