GRI.pdb
     RDKit          3D

 24 23  0  0  1  0  0  0  0  0999 V2000
    6.8716  -12.9450   18.7027 N   0  0  0  0  0  0  0  0  0  0  0  0
    8.1161  -13.4592   19.2370 C   0  0  0  0  0  0  0  0  0  0  0  0
    7.9260  -14.1464   20.5245 C   0  0  0  0  0  0  0  0  0  0  0  0
    6.9235  -13.9686   21.2251 O   0  0  0  0  0  0  0  0  0  0  0  0
    9.5541  -21.0667   20.3886 N   0  0  0  0  0  0  0  0  0  0  0  0
   10.5015  -20.6280   19.4391 C   0  0  0  0  0  0  0  0  0  0  0  0
   10.6787  -21.3035   18.3539 N   0  0  0  0  0  0  0  0  0  0  0  0
   11.2634  -19.4522   19.6638 N   0  0  0  0  0  0  0  0  0  0  0  0
   11.1544  -18.7681   20.9638 C   0  0  0  0  0  0  0  0  0  0  0  0
   10.0478  -17.7458   20.9077 C   0  0  0  0  0  0  0  0  0  0  0  0
    9.8226  -16.9595   22.1375 C   0  0  0  0  0  0  0  0  0  0  0  0
    8.7596  -15.9128   22.1145 C   0  0  2  0  0  0  0  0  0  0  0  0
    8.9347  -15.0472   20.9763 N   0  0  0  0  0  0  0  0  0  0  0  0
    9.0370  -15.0351   23.3260 C   0  0  0  0  0  0  0  0  0  0  0  0
   10.0935  -14.3837   23.3390 O   0  0  0  0  0  0  0  0  0  0  0  0
   11.3571  -21.0487   17.6134 C   0  0  0  0  0  0  0  0  0  0  0  0
    6.3229  -11.1304   26.8476 C   0  0  0  0  0  0  0  0  0  0  0  0
    7.3777  -12.2111   26.9048 C   0  0  2  0  0  0  0  0  0  0  0  0
    7.1736  -13.1298   25.7205 C   0  0  0  0  0  0  0  0  0  0  0  0
    5.9357  -13.9610   25.9678 C   0  0  2  0  0  0  0  0  0  0  0  0
    8.3362  -14.0870   25.5528 N   0  0  0  0  0  0  0  0  0  0  0  0
    8.1340  -14.9553   24.4027 C   0  0  0  0  0  0  0  0  0  0  0  0
    8.4282  -14.8979   26.7801 O   0  0  0  0  0  0  0  0  0  0  0  0
    8.1753  -16.2513   26.7277 O   0  0  0  0  0  0  0  0  0  0  0  0
  2  1  1  0
  2  3  1  0
  3  4  2  0
  3 13  1  0
  6  7  2  0
  6  5  1  0
  8  6  1  0
  9  8  1  0
 10  9  1  0
 11 10  1  0
 12 14  1  0
 12 11  1  6
 13 12  1  0
 14 15  2  0
 16 17  1  0
 17 18  1  0
 18 19  1  6
 20 22  1  0
 20 18  1  0
 20 21  1  1
 21 14  1  0
 22 23  1  0
 24 22  2  0
M  END
$$$$
