GRI.pdb
     RDKit          3D

 24 23  0  0  1  0  0  0  0  0999 V2000
   13.8929  -16.8507   20.0434 N   0  0  0  0  0  0  0  0  0  0  0  0
   12.7063  -17.3207   20.7289 C   0  0  0  0  0  0  0  0  0  0  0  0
   12.0751  -16.2636   21.5350 C   0  0  0  0  0  0  0  0  0  0  0  0
   12.7364  -15.4274   22.1601 O   0  0  0  0  0  0  0  0  0  0  0  0
    8.2773  -15.4564   17.6656 N   0  0  0  0  0  0  0  0  0  0  0  0
    7.6632  -14.1879   17.5910 C   0  0  0  0  0  0  0  0  0  0  0  0
    7.7361  -13.5059   16.4979 N   0  0  0  0  0  0  0  0  0  0  0  0
    6.9665  -13.6521   18.7050 N   0  0  0  0  0  0  0  0  0  0  0  0
    6.9819  -14.3906   19.9795 C   0  0  0  0  0  0  0  0  0  0  0  0
    8.3874  -14.4346   20.5231 C   0  0  0  0  0  0  0  0  0  0  0  0
    8.5536  -15.0539   21.8536 C   0  0  0  0  0  0  0  0  0  0  0  0
    9.9400  -15.2267   22.3773 C   0  0  2  0  0  0  0  0  0  0  0  0
   10.6517  -16.2049   21.5949 N   0  0  0  0  0  0  0  0  0  0  0  0
    9.7723  -15.8627   23.7493 C   0  0  0  0  0  0  0  0  0  0  0  0
    9.8283  -17.1004   23.8243 O   0  0  0  0  0  0  0  0  0  0  0  0
    7.4397  -12.5172   16.4073 C   0  0  0  0  0  0  0  0  0  0  0  0
   10.2131  -13.7843   29.5772 C   0  0  0  0  0  0  0  0  0  0  0  0
   10.1907  -14.9669   28.6365 C   0  0  2  0  0  0  0  0  0  0  0  0
    9.8807  -14.4560   27.2469 C   0  0  0  0  0  0  0  0  0  0  0  0
    8.5552  -13.7311   27.2886 C   0  0  2  0  0  0  0  0  0  0  0  0
    9.7446  -15.5928   26.2543 N   0  0  0  0  0  0  0  0  0  0  0  0
    9.5604  -15.0849   24.9032 C   0  0  0  0  0  0  0  0  0  0  0  0
    8.5725  -16.3940   26.6503 O   0  0  0  0  0  0  0  0  0  0  0  0
    8.6841  -17.3135   27.6703 O   0  0  0  0  0  0  0  0  0  0  0  0
  2  1  1  0
  2  3  1  0
  3  4  2  0
  3 13  1  0
  6  7  2  0
  6  5  1  0
  8  6  1  0
  9  8  1  0
 10  9  1  0
 11 10  1  0
 12 14  1  0
 12 11  1  6
 13 12  1  0
 14 15  2  0
 16 17  1  0
 17 18  1  0
 18 19  1  6
 20 22  1  0
 20 18  1  0
 20 21  1  1
 21 14  1  0
 22 23  1  0
 24 22  2  0
M  END
$$$$
