GRI.pdb
     RDKit          3D

 24 23  0  0  1  0  0  0  0  0999 V2000
    7.7315  -12.4271   18.7307 N   0  0  0  0  0  0  0  0  0  0  0  0
    8.6369  -13.3810   19.3382 C   0  0  0  0  0  0  0  0  0  0  0  0
    8.0786  -13.9737   20.5641 C   0  0  0  0  0  0  0  0  0  0  0  0
    7.0571  -13.5339   21.1031 O   0  0  0  0  0  0  0  0  0  0  0  0
    9.9958  -19.0680   18.6225 N   0  0  0  0  0  0  0  0  0  0  0  0
    8.9782  -20.0269   18.8138 C   0  0  0  0  0  0  0  0  0  0  0  0
    8.5340  -20.6974   17.8046 N   0  0  0  0  0  0  0  0  0  0  0  0
    8.4362  -20.2626   20.1038 N   0  0  0  0  0  0  0  0  0  0  0  0
    8.9450  -19.4832   21.2456 C   0  0  0  0  0  0  0  0  0  0  0  0
    8.3878  -18.0834   21.1926 C   0  0  0  0  0  0  0  0  0  0  0  0
    8.7433  -17.1962   22.3186 C   0  0  0  0  0  0  0  0  0  0  0  0
    8.2290  -15.7959   22.2962 C   0  0  2  0  0  0  0  0  0  0  0  0
    8.7411  -15.0934   21.1474 N   0  0  0  0  0  0  0  0  0  0  0  0
    8.8714  -15.1152   23.4957 C   0  0  0  0  0  0  0  0  0  0  0  0
   10.0945  -14.9077   23.4570 O   0  0  0  0  0  0  0  0  0  0  0  0
    7.7475  -21.3702   17.8529 C   0  0  0  0  0  0  0  0  0  0  0  0
    5.6979  -12.1183   27.0570 C   0  0  0  0  0  0  0  0  0  0  0  0
    6.4404  -13.3364   26.5581 C   0  0  2  0  0  0  0  0  0  0  0  0
    7.8652  -12.9272   26.2567 C   0  0  0  0  0  0  0  0  0  0  0  0
    7.8455  -11.9228   25.1275 C   0  0  1  0  0  0  0  0  0  0  0  0
    8.6973  -14.1078   25.7987 N   0  0  0  0  0  0  0  0  0  0  0  0
    8.1153  -14.7283   24.6182 C   0  0  0  0  0  0  0  0  0  0  0  0
    8.7392  -15.0812   26.9047 O   0  0  0  0  0  0  0  0  0  0  0  0
    9.3768  -14.7541   28.0814 O   0  0  0  0  0  0  0  0  0  0  0  0
  2  1  1  0
  2  3  1  0
  3  4  2  0
  3 13  1  0
  6  7  2  0
  6  5  1  0
  8  6  1  0
  9  8  1  0
 10  9  1  0
 11 10  1  0
 12 14  1  0
 12 11  1  6
 13 12  1  0
 14 15  2  0
 16 17  1  0
 17 18  1  0
 18 19  1  1
 20 22  1  0
 20 18  1  0
 20 21  1  6
 21 14  1  0
 22 23  1  0
 24 22  2  0
M  END
$$$$
