GRI.pdb
     RDKit          3D

 24 23  0  0  1  0  0  0  0  0999 V2000
   13.9538  -17.9363   21.9956 N   0  0  0  0  0  0  0  0  0  0  0  0
   12.5432  -18.1391   22.2562 C   0  0  0  0  0  0  0  0  0  0  0  0
   11.8366  -16.8724   22.5053 C   0  0  0  0  0  0  0  0  0  0  0  0
   12.4129  -15.8713   22.9447 O   0  0  0  0  0  0  0  0  0  0  0  0
    7.9671  -12.4514   18.5883 N   0  0  0  0  0  0  0  0  0  0  0  0
    7.7683  -13.7437   18.0573 C   0  0  0  0  0  0  0  0  0  0  0  0
    8.1605  -14.0086   16.8567 N   0  0  0  0  0  0  0  0  0  0  0  0
    7.1409  -14.7565   18.8280 N   0  0  0  0  0  0  0  0  0  0  0  0
    6.6349  -14.4221   20.1704 C   0  0  0  0  0  0  0  0  0  0  0  0
    7.7852  -14.3494   21.1422 C   0  0  0  0  0  0  0  0  0  0  0  0
    8.5779  -15.5843   21.3090 C   0  0  0  0  0  0  0  0  0  0  0  0
    9.6872  -15.5749   22.3067 C   0  0  2  0  0  0  0  0  0  0  0  0
   10.4395  -16.8011   22.2296 N   0  0  0  0  0  0  0  0  0  0  0  0
    9.0029  -15.6148   23.6651 C   0  0  0  0  0  0  0  0  0  0  0  0
    8.8582  -16.7216   24.2080 O   0  0  0  0  0  0  0  0  0  0  0  0
    8.0900  -14.9425   16.4136 C   0  0  0  0  0  0  0  0  0  0  0  0
    6.7048  -11.5429   27.7828 C   0  0  0  0  0  0  0  0  0  0  0  0
    7.0646  -12.9748   27.4604 C   0  0  2  0  0  0  0  0  0  0  0  0
    7.5744  -13.0220   26.0370 C   0  0  0  0  0  0  0  0  0  0  0  0
    6.4506  -12.6129   25.1129 C   0  0  2  0  0  0  0  0  0  0  0  0
    7.9969  -14.4232   25.6442 N   0  0  0  0  0  0  0  0  0  0  0  0
    8.5447  -14.4431   24.2962 C   0  0  0  0  0  0  0  0  0  0  0  0
    6.8032  -15.2852   25.7105 O   0  0  0  0  0  0  0  0  0  0  0  0
    6.4494  -15.8748   26.9044 O   0  0  0  0  0  0  0  0  0  0  0  0
  2  1  1  0
  2  3  1  0
  3  4  2  0
  3 13  1  0
  6  7  2  0
  6  5  1  0
  8  6  1  0
  9  8  1  0
 10  9  1  0
 11 10  1  0
 12 14  1  0
 12 11  1  6
 13 12  1  0
 14 15  2  0
 16 17  1  0
 17 18  1  0
 18 19  1  6
 20 22  1  0
 20 18  1  0
 20 21  1  1
 21 14  1  0
 22 23  1  0
 24 22  2  0
M  END
$$$$
