AVK.pdb
     RDKit          3D

 22 21  0  0  1  0  0  0  0  0999 V2000
    5.6945  -19.0320   20.3771 C   0  0  0  0  0  0  0  0  0  0  0  0
    6.0580  -18.0676   19.2747 C   0  0  2  0  0  0  0  0  0  0  0  0
    6.4457  -18.7173   18.0540 N   0  0  0  0  0  0  0  0  0  0  0  0
    7.1487  -17.1439   19.7012 C   0  0  0  0  0  0  0  0  0  0  0  0
    8.3561  -17.5089   19.7346 O   0  0  0  0  0  0  0  0  0  0  0  0
    8.5206  -12.5763   20.8806 C   0  0  0  0  0  0  0  0  0  0  0  0
    7.3645  -13.5032   20.5629 C   0  0  1  0  0  0  0  0  0  0  0  0
    6.9235  -13.2197   19.1375 C   0  0  0  0  0  0  0  0  0  0  0  0
    7.8958  -14.9173   20.6099 C   0  0  2  0  0  0  0  0  0  0  0  0
    6.8942  -15.7932   20.0968 N   0  0  0  0  0  0  0  0  0  0  0  0
    8.3988  -15.2929   21.9364 C   0  0  0  0  0  0  0  0  0  0  0  0
    7.5814  -15.3300   22.8892 O   0  0  0  0  0  0  0  0  0  0  0  0
    9.7576  -15.6133   22.1868 N   0  0  0  0  0  0  0  0  0  0  0  0
   10.2352  -16.0460   23.5016 C   0  0  1  0  0  0  0  0  0  0  0  0
    9.9667  -17.5235   23.6976 C   0  0  0  0  0  0  0  0  0  0  0  0
   10.5255  -18.0635   24.9885 C   0  0  0  0  0  0  0  0  0  0  0  0
   10.1862  -19.5333   25.1406 C   0  0  0  0  0  0  0  0  0  0  0  0
   10.6427  -19.9926   26.5218 C   0  0  0  0  0  0  0  0  0  0  0  0
   10.3160  -21.3768   26.6709 N   0  0  0  0  0  0  0  0  0  0  0  0
   11.6612  -15.6889   23.6683 C   0  0  0  0  0  0  0  0  0  0  0  0
   12.1326  -15.6480   24.8324 O   0  0  0  0  0  0  0  0  0  0  0  0
   12.5280  -15.3933   22.6318 O   0  0  0  0  0  0  0  0  0  0  0  0
  2  4  1  0
  2  3  1  0
  2  1  1  1
  4  5  2  0
  7  6  1  6
  7  8  1  0
  7  9  1  0
  9 11  1  0
 10  4  1  0
  9 10  1  1
 11 12  2  0
 11 13  1  0
 13 14  1  0
 14 15  1  6
 15 16  1  0
 16 17  1  0
 17 18  1  0
 19 18  1  0
 20 22  1  0
 20 14  1  0
 21 20  2  0
M  END
$$$$
