AVK.pdb
     RDKit          3D

 22 21  0  0  1  0  0  0  0  0999 V2000
    6.4680  -14.7531   20.6071 C   0  0  0  0  0  0  0  0  0  0  0  0
    6.9688  -13.4420   21.1616 C   0  0  2  0  0  0  0  0  0  0  0  0
    7.8825  -12.7641   20.2851 N   0  0  0  0  0  0  0  0  0  0  0  0
    7.6191  -13.6293   22.4908 C   0  0  0  0  0  0  0  0  0  0  0  0
    8.8381  -13.9367   22.5989 O   0  0  0  0  0  0  0  0  0  0  0  0
    7.2176  -13.2451   27.3956 C   0  0  0  0  0  0  0  0  0  0  0  0
    6.5662  -13.0506   26.0412 C   0  0  1  0  0  0  0  0  0  0  0  0
    6.4724  -11.5567   25.7842 C   0  0  0  0  0  0  0  0  0  0  0  0
    7.4960  -13.6403   25.0061 C   0  0  2  0  0  0  0  0  0  0  0  0
    6.9041  -13.4725   23.7195 N   0  0  0  0  0  0  0  0  0  0  0  0
    7.8855  -15.0219   25.3115 C   0  0  0  0  0  0  0  0  0  0  0  0
    6.9951  -15.9071   25.2804 O   0  0  0  0  0  0  0  0  0  0  0  0
    9.2136  -15.3976   25.6379 N   0  0  0  0  0  0  0  0  0  0  0  0
    9.6065  -16.7909   25.8578 C   0  0  1  0  0  0  0  0  0  0  0  0
   10.6012  -17.2286   24.8030 C   0  0  0  0  0  0  0  0  0  0  0  0
   11.0318  -18.6649   24.9511 C   0  0  0  0  0  0  0  0  0  0  0  0
   12.1021  -19.0063   23.9330 C   0  0  0  0  0  0  0  0  0  0  0  0
   12.5010  -20.4662   24.1247 C   0  0  0  0  0  0  0  0  0  0  0  0
   13.5999  -20.7543   23.2561 N   0  0  0  0  0  0  0  0  0  0  0  0
   10.1100  -16.9665   27.2378 C   0  0  0  0  0  0  0  0  0  0  0  0
   10.2636  -18.1358   27.6714 O   0  0  0  0  0  0  0  0  0  0  0  0
   10.4299  -15.9329   28.0994 O   0  0  0  0  0  0  0  0  0  0  0  0
  2  4  1  0
  2  3  1  0
  2  1  1  6
  4  5  2  0
  7  6  1  1
  7  8  1  0
  7  9  1  0
  9 11  1  0
 10  4  1  0
  9 10  1  6
 11 12  2  0
 11 13  1  0
 13 14  1  0
 14 15  1  6
 15 16  1  0
 16 17  1  0
 17 18  1  0
 19 18  1  0
 20 22  1  0
 20 14  1  0
 21 20  2  0
M  END
$$$$
