AVK.pdb
     RDKit          3D

 22 21  0  0  1  0  0  0  0  0999 V2000
    7.0877  -18.9103   18.0725 C   0  0  0  0  0  0  0  0  0  0  0  0
    7.2213  -17.5439   17.4460 C   0  0  2  0  0  0  0  0  0  0  0  0
    7.7088  -17.5812   16.0957 N   0  0  0  0  0  0  0  0  0  0  0  0
    8.1067  -16.6600   18.2581 C   0  0  0  0  0  0  0  0  0  0  0  0
    9.3645  -16.7410   18.1988 O   0  0  0  0  0  0  0  0  0  0  0  0
    8.4572  -12.9427   21.4879 C   0  0  0  0  0  0  0  0  0  0  0  0
    7.5636  -13.7622   20.5788 C   0  0  1  0  0  0  0  0  0  0  0  0
    7.1626  -12.8810   19.4088 C   0  0  0  0  0  0  0  0  0  0  0  0
    8.3967  -14.9004   20.0362 C   0  0  2  0  0  0  0  0  0  0  0  0
    7.5867  -15.6704   19.1503 N   0  0  0  0  0  0  0  0  0  0  0  0
    9.0443  -15.6864   21.0929 C   0  0  0  0  0  0  0  0  0  0  0  0
    8.3103  -16.2824   21.9196 O   0  0  0  0  0  0  0  0  0  0  0  0
   10.4522  -15.8012   21.2197 N   0  0  0  0  0  0  0  0  0  0  0  0
   11.0862  -16.5741   22.2896 C   0  0  1  0  0  0  0  0  0  0  0  0
   11.9311  -17.6862   21.7040 C   0  0  0  0  0  0  0  0  0  0  0  0
   11.7074  -19.0180   22.3722 C   0  0  0  0  0  0  0  0  0  0  0  0
   12.5673  -20.0871   21.7270 C   0  0  0  0  0  0  0  0  0  0  0  0
   12.3784  -21.3886   22.5000 C   0  0  0  0  0  0  0  0  0  0  0  0
   13.1460  -22.4119   21.8607 N   0  0  0  0  0  0  0  0  0  0  0  0
   11.8493  -15.6757   23.1837 C   0  0  0  0  0  0  0  0  0  0  0  0
   12.1280  -16.0822   24.3395 O   0  0  0  0  0  0  0  0  0  0  0  0
   12.2863  -14.4082   22.8442 O   0  0  0  0  0  0  0  0  0  0  0  0
  2  4  1  0
  2  3  1  0
  2  1  1  1
  4  5  2  0
  7  6  1  1
  7  8  1  0
  7  9  1  0
  9 11  1  0
 10  4  1  0
  9 10  1  1
 11 12  2  0
 11 13  1  0
 13 14  1  0
 14 15  1  6
 15 16  1  0
 16 17  1  0
 17 18  1  0
 19 18  1  0
 20 22  1  0
 20 14  1  0
 21 20  2  0
M  END
$$$$
