AVK.pdb
     RDKit          3D

 22 21  0  0  1  0  0  0  0  0999 V2000
    6.8858  -16.2549   21.5415 C   0  0  0  0  0  0  0  0  0  0  0  0
    7.1409  -14.7680   21.5800 C   0  0  2  0  0  0  0  0  0  0  0  0
    7.9285  -14.2960   20.4757 N   0  0  0  0  0  0  0  0  0  0  0  0
    7.8013  -14.3647   22.8552 C   0  0  0  0  0  0  0  0  0  0  0  0
    9.0539  -14.4093   23.0001 O   0  0  0  0  0  0  0  0  0  0  0  0
    7.3197  -12.5967   27.4343 C   0  0  0  0  0  0  0  0  0  0  0  0
    6.6582  -12.8741   26.0994 C   0  0  1  0  0  0  0  0  0  0  0  0
    6.4478  -11.5414   25.4024 C   0  0  0  0  0  0  0  0  0  0  0  0
    7.6339  -13.6793   25.2726 C   0  0  2  0  0  0  0  0  0  0  0  0
    7.0583  -13.9046   23.9874 N   0  0  0  0  0  0  0  0  0  0  0  0
    8.0832  -14.9007   25.9511 C   0  0  0  0  0  0  0  0  0  0  0  0
    7.2771  -15.8602   26.0349 O   0  0  0  0  0  0  0  0  0  0  0  0
    9.3781  -15.0431   26.5118 N   0  0  0  0  0  0  0  0  0  0  0  0
    9.8485  -16.2995   27.0983 C   0  0  1  0  0  0  0  0  0  0  0  0
   10.9337  -16.9081   26.2348 C   0  0  0  0  0  0  0  0  0  0  0  0
   11.4186  -18.2418   26.7410 C   0  0  0  0  0  0  0  0  0  0  0  0
   12.4746  -18.8102   25.8133 C   0  0  0  0  0  0  0  0  0  0  0  0
   12.9258  -20.1586   26.3658 C   0  0  0  0  0  0  0  0  0  0  0  0
   13.7408  -20.8022   25.3827 N   0  0  0  0  0  0  0  0  0  0  0  0
   10.2760  -16.0800   28.4975 C   0  0  0  0  0  0  0  0  0  0  0  0
   10.5636  -14.9105   28.8558 O   0  0  0  0  0  0  0  0  0  0  0  0
   10.3854  -17.0722   29.4550 O   0  0  0  0  0  0  0  0  0  0  0  0
  2  4  1  0
  2  3  1  0
  2  1  1  1
  4  5  2  0
  7  6  1  1
  7  8  1  0
  7  9  1  0
  9 11  1  0
 10  4  1  0
  9 10  1  6
 11 12  2  0
 11 13  1  0
 13 14  1  0
 14 15  1  6
 15 16  1  0
 16 17  1  0
 17 18  1  0
 19 18  1  0
 20 22  1  0
 20 14  1  0
 21 20  2  0
M  END
$$$$
