AVK.pdb
     RDKit          3D

 22 21  0  0  1  0  0  0  0  0999 V2000
    7.5359  -18.9194   18.0864 C   0  0  0  0  0  0  0  0  0  0  0  0
    7.7769  -17.5271   17.5567 C   0  0  2  0  0  0  0  0  0  0  0  0
    8.5134  -17.5058   16.3239 N   0  0  0  0  0  0  0  0  0  0  0  0
    8.4849  -16.6808   18.5604 C   0  0  0  0  0  0  0  0  0  0  0  0
    9.7098  -16.8380   18.8193 O   0  0  0  0  0  0  0  0  0  0  0  0
    8.2231  -12.9598   21.7981 C   0  0  0  0  0  0  0  0  0  0  0  0
    7.5447  -13.7309   20.6838 C   0  0  1  0  0  0  0  0  0  0  0  0
    7.4948  -12.8296   19.4625 C   0  0  0  0  0  0  0  0  0  0  0  0
    8.4278  -14.9114   20.3514 C   0  0  2  0  0  0  0  0  0  0  0  0
    7.8217  -15.6434   19.2881 N   0  0  0  0  0  0  0  0  0  0  0  0
    8.7580  -15.7248   21.5275 C   0  0  0  0  0  0  0  0  0  0  0  0
    7.8215  -16.3208   22.1151 O   0  0  0  0  0  0  0  0  0  0  0  0
   10.0785  -15.8656   22.0254 N   0  0  0  0  0  0  0  0  0  0  0  0
   10.3933  -16.6735   23.2053 C   0  0  1  0  0  0  0  0  0  0  0  0
   11.6757  -17.4483   22.9840 C   0  0  0  0  0  0  0  0  0  0  0  0
   11.5907  -18.4247   21.8395 C   0  0  0  0  0  0  0  0  0  0  0  0
   12.9092  -19.1519   21.6626 C   0  0  0  0  0  0  0  0  0  0  0  0
   12.7319  -20.2147   20.5828 C   0  0  0  0  0  0  0  0  0  0  0  0
   14.0069  -20.8027   20.3109 N   0  0  0  0  0  0  0  0  0  0  0  0
   10.4335  -15.8186   24.4121 C   0  0  0  0  0  0  0  0  0  0  0  0
   10.2687  -16.3624   25.5327 O   0  0  0  0  0  0  0  0  0  0  0  0
   10.6413  -14.4512   24.4048 O   0  0  0  0  0  0  0  0  0  0  0  0
  2  4  1  0
  2  3  1  0
  2  1  1  1
  4  5  2  0
  7  6  1  1
  7  8  1  0
  7  9  1  0
  9 11  1  0
 10  4  1  0
  9 10  1  6
 11 12  2  0
 11 13  1  0
 13 14  1  0
 14 15  1  6
 15 16  1  0
 16 17  1  0
 17 18  1  0
 19 18  1  0
 20 22  1  0
 20 14  1  0
 21 20  2  0
M  END
$$$$
