LFT.pdb
     RDKit          3D

 27 27  0  0  1  0  0  0  0  0999 V2000
    7.8625  -11.9486   19.5936 C   0  0  0  0  0  0  0  0  0  0  0  0
    7.7902  -13.4497   19.7797 C   0  0  1  0  0  0  0  0  0  0  0  0
    7.7956  -14.1453   18.4583 C   0  0  0  0  0  0  0  0  0  0  0  0
    8.7904  -13.9511   20.7669 C   0  0  0  0  0  0  0  0  0  0  0  0
    8.5930  -15.3594   21.2188 C   0  0  2  0  0  0  0  0  0  0  0  0
    7.2509  -15.8238   20.9501 N   0  0  0  0  0  0  0  0  0  0  0  0
    8.8427  -15.4063   22.6831 C   0  0  0  0  0  0  0  0  0  0  0  0
    9.9285  -14.9555   23.1826 O   0  0  0  0  0  0  0  0  0  0  0  0
    7.9035  -15.9471   23.6025 N   0  0  0  0  0  0  0  0  0  0  0  0
    8.1678  -16.0282   25.0133 C   0  0  1  0  0  0  0  0  0  0  0  0
    7.0155  -15.6410   25.8831 C   0  0  0  0  0  0  0  0  0  0  0  0
    6.9250  -14.1745   26.0948 C   0  0  0  0  0  0  0  0  0  0  0  0
    5.8301  -13.4394   25.6520 C   0  0  0  0  0  0  0  0  0  0  0  0
    5.7338  -12.0774   25.8445 C   0  0  0  0  0  0  0  0  0  0  0  0
    6.7814  -11.4520   26.5051 C   0  0  0  0  0  0  0  0  0  0  0  0
    7.8892  -12.1405   26.9627 C   0  0  0  0  0  0  0  0  0  0  0  0
    7.9481  -13.5188   26.7478 C   0  0  0  0  0  0  0  0  0  0  0  0
    8.7549  -17.3415   25.3977 C   0  0  0  0  0  0  0  0  0  0  0  0
    8.0398  -18.3817   25.4544 O   0  0  0  0  0  0  0  0  0  0  0  0
   11.5090  -19.1178   23.6855 C   0  0  0  0  0  0  0  0  0  0  0  0
   11.8765  -19.1197   25.1606 C   0  0  1  0  0  0  0  0  0  0  0  0
   12.9010  -18.2011   25.3556 O   0  0  0  0  0  0  0  0  0  0  0  0
   10.6698  -18.8100   26.0212 C   0  0  2  0  0  0  0  0  0  0  0  0
   10.1304  -17.4944   25.7167 N   0  0  0  0  0  0  0  0  0  0  0  0
   10.9991  -18.9346   27.4587 C   0  0  0  0  0  0  0  0  0  0  0  0
   11.0129  -17.9443   28.2319 O   0  0  0  0  0  0  0  0  0  0  0  0
   11.3036  -20.1751   27.9834 O   0  0  0  0  0  0  0  0  0  0  0  0
  2  4  1  0
  2  1  1  6
  2  3  1  0
  5  4  1  0
  5  6  1  1
  7  5  1  0
  8  7  2  0
  9  7  1  0
 10  9  1  0
 11 12  1  0
 10 11  1  1
 12 13  2  0
 13 14  1  0
 15 14  2  0
 16 15  1  0
 17 16  2  0
 17 12  1  0
 18 10  1  0
 18 19  2  0
 21 20  1  6
 21 22  1  0
 21 23  1  0
 23 24  1  1
 24 18  1  0
 25 23  1  0
 25 27  1  0
 26 25  2  0
M  END
$$$$
