LFT.pdb
     RDKit          3D

 27 27  0  0  1  0  0  0  0  0999 V2000
    7.8016  -11.7797   19.2050 C   0  0  0  0  0  0  0  0  0  0  0  0
    7.7454  -13.2478   19.5721 C   0  0  1  0  0  0  0  0  0  0  0  0
    8.0843  -14.0991   18.3931 C   0  0  0  0  0  0  0  0  0  0  0  0
    8.5072  -13.5540   20.8181 C   0  0  0  0  0  0  0  0  0  0  0  0
    8.4518  -14.9753   21.2690 C   0  0  2  0  0  0  0  0  0  0  0  0
    7.0917  -15.4571   21.3519 N   0  0  0  0  0  0  0  0  0  0  0  0
    9.0801  -15.0505   22.6138 C   0  0  0  0  0  0  0  0  0  0  0  0
   10.2427  -14.5662   22.8276 O   0  0  0  0  0  0  0  0  0  0  0  0
    8.4361  -15.6563   23.7264 N   0  0  0  0  0  0  0  0  0  0  0  0
    9.0541  -15.7379   25.0218 C   0  0  1  0  0  0  0  0  0  0  0  0
    8.1202  -15.5216   26.1688 C   0  0  0  0  0  0  0  0  0  0  0  0
    7.6091  -14.1295   26.2368 C   0  0  0  0  0  0  0  0  0  0  0  0
    6.3008  -13.8145   25.8845 C   0  0  0  0  0  0  0  0  0  0  0  0
    5.8140  -12.5258   25.9453 C   0  0  0  0  0  0  0  0  0  0  0  0
    6.6852  -11.5357   26.3762 C   0  0  0  0  0  0  0  0  0  0  0  0
    7.9932  -11.8008   26.7363 C   0  0  0  0  0  0  0  0  0  0  0  0
    8.4471  -13.1190   26.6607 C   0  0  0  0  0  0  0  0  0  0  0  0
    9.8682  -16.9750   25.1764 C   0  0  0  0  0  0  0  0  0  0  0  0
    9.4895  -17.9120   25.9348 O   0  0  0  0  0  0  0  0  0  0  0  0
   10.4525  -19.5035   22.7182 C   0  0  0  0  0  0  0  0  0  0  0  0
   11.8409  -19.1076   23.1942 C   0  0  1  0  0  0  0  0  0  0  0  0
   12.4073  -18.2720   22.2389 O   0  0  0  0  0  0  0  0  0  0  0  0
   11.7806  -18.4481   24.5558 C   0  0  2  0  0  0  0  0  0  0  0  0
   11.0966  -17.1666   24.4896 N   0  0  0  0  0  0  0  0  0  0  0  0
   13.1351  -18.3033   25.1342 C   0  0  0  0  0  0  0  0  0  0  0  0
   13.6679  -17.1810   25.3218 O   0  0  0  0  0  0  0  0  0  0  0  0
   13.8508  -19.4310   25.4850 O   0  0  0  0  0  0  0  0  0  0  0  0
  2  4  1  0
  2  1  1  6
  2  3  1  0
  5  4  1  0
  5  6  1  1
  7  5  1  0
  8  7  2  0
  9  7  1  0
 10  9  1  0
 11 12  1  0
 10 11  1  1
 12 13  2  0
 13 14  1  0
 15 14  2  0
 16 15  1  0
 17 16  2  0
 17 12  1  0
 18 10  1  0
 18 19  2  0
 21 20  1  6
 21 22  1  0
 21 23  1  0
 23 24  1  6
 24 18  1  0
 25 23  1  0
 25 27  1  0
 26 25  2  0
M  END
$$$$
