LFT.pdb
     RDKit          3D

 27 27  0  0  1  0  0  0  0  0999 V2000
    8.4421  -12.0003   19.8259 C   0  0  0  0  0  0  0  0  0  0  0  0
    8.1032  -13.3430   20.4388 C   0  0  1  0  0  0  0  0  0  0  0  0
    6.6777  -13.6991   20.1722 C   0  0  0  0  0  0  0  0  0  0  0  0
    9.0989  -14.3977   20.0886 C   0  0  0  0  0  0  0  0  0  0  0  0
    8.9237  -15.7018   20.7923 C   0  0  2  0  0  0  0  0  0  0  0  0
    7.5306  -16.0745   20.8884 N   0  0  0  0  0  0  0  0  0  0  0  0
    9.4874  -15.5596   22.1601 C   0  0  0  0  0  0  0  0  0  0  0  0
   10.7043  -15.2155   22.3405 O   0  0  0  0  0  0  0  0  0  0  0  0
    8.7191  -15.7943   23.3325 N   0  0  0  0  0  0  0  0  0  0  0  0
    9.2886  -15.7288   24.6509 C   0  0  1  0  0  0  0  0  0  0  0  0
    8.4240  -15.0541   25.6666 C   0  0  0  0  0  0  0  0  0  0  0  0
    9.1330  -14.8034   26.9466 C   0  0  0  0  0  0  0  0  0  0  0  0
    9.6613  -13.5542   27.2558 C   0  0  0  0  0  0  0  0  0  0  0  0
   10.3200  -13.3087   28.4420 C   0  0  0  0  0  0  0  0  0  0  0  0
   10.4418  -14.3651   29.3332 C   0  0  0  0  0  0  0  0  0  0  0  0
    9.9335  -15.6232   29.0696 C   0  0  0  0  0  0  0  0  0  0  0  0
    9.2732  -15.8304   27.8570 C   0  0  0  0  0  0  0  0  0  0  0  0
    9.7813  -17.0553   25.1140 C   0  0  0  0  0  0  0  0  0  0  0  0
    8.9762  -17.9958   25.3671 O   0  0  0  0  0  0  0  0  0  0  0  0
   11.6424  -19.4277   23.2750 C   0  0  0  0  0  0  0  0  0  0  0  0
   12.4408  -19.2891   24.5612 C   0  0  1  0  0  0  0  0  0  0  0  0
   13.5759  -18.5341   24.2902 O   0  0  0  0  0  0  0  0  0  0  0  0
   11.6003  -18.6701   25.6580 C   0  0  2  0  0  0  0  0  0  0  0  0
   11.1627  -17.3321   25.2936 N   0  0  0  0  0  0  0  0  0  0  0  0
   12.3315  -18.6629   26.9448 C   0  0  0  0  0  0  0  0  0  0  0  0
   12.6982  -17.5981   27.5019 O   0  0  0  0  0  0  0  0  0  0  0  0
   12.6282  -19.8594   27.5670 O   0  0  0  0  0  0  0  0  0  0  0  0
  2  4  1  0
  2  1  1  6
  2  3  1  0
  5  4  1  0
  5  6  1  1
  7  5  1  0
  8  7  2  0
  9  7  1  0
 10  9  1  0
 11 12  1  0
 10 11  1  1
 12 13  2  0
 13 14  1  0
 15 14  2  0
 16 15  1  0
 17 16  2  0
 17 12  1  0
 18 10  1  0
 18 19  2  0
 21 20  1  6
 21 22  1  0
 21 23  1  0
 23 24  1  6
 24 18  1  0
 25 23  1  0
 25 27  1  0
 26 25  2  0
M  END
$$$$
