LFT.pdb
     RDKit          3D

 27 27  0  0  1  0  0  0  0  0999 V2000
    7.6450  -12.3442   18.2231 C   0  0  0  0  0  0  0  0  0  0  0  0
    7.8641  -13.8023   18.5687 C   0  0  1  0  0  0  0  0  0  0  0  0
    8.1445  -14.5992   17.3375 C   0  0  0  0  0  0  0  0  0  0  0  0
    8.8418  -13.9843   19.6811 C   0  0  0  0  0  0  0  0  0  0  0  0
    8.7791  -15.3018   20.3788 C   0  0  2  0  0  0  0  0  0  0  0  0
    7.4897  -15.9334   20.2136 N   0  0  0  0  0  0  0  0  0  0  0  0
    9.0247  -15.0625   21.8250 C   0  0  0  0  0  0  0  0  0  0  0  0
   10.1517  -14.6276   22.2403 O   0  0  0  0  0  0  0  0  0  0  0  0
    8.0364  -15.2993   22.8183 N   0  0  0  0  0  0  0  0  0  0  0  0
    8.2500  -14.9871   24.2053 C   0  0  1  0  0  0  0  0  0  0  0  0
    7.1657  -14.1702   24.8309 C   0  0  0  0  0  0  0  0  0  0  0  0
    7.4661  -13.7998   26.2367 C   0  0  0  0  0  0  0  0  0  0  0  0
    6.7817  -14.3717   27.3042 C   0  0  0  0  0  0  0  0  0  0  0  0
    7.0530  -14.0372   28.6142 C   0  0  0  0  0  0  0  0  0  0  0  0
    8.0474  -13.0959   28.8381 C   0  0  0  0  0  0  0  0  0  0  0  0
    8.7537  -12.5008   27.8098 C   0  0  0  0  0  0  0  0  0  0  0  0
    8.4485  -12.8671   26.4975 C   0  0  0  0  0  0  0  0  0  0  0  0
    8.5847  -16.1971   25.0059 C   0  0  0  0  0  0  0  0  0  0  0  0
    7.7282  -17.1054   25.2005 O   0  0  0  0  0  0  0  0  0  0  0  0
   10.6515  -18.9140   24.2726 C   0  0  0  0  0  0  0  0  0  0  0  0
   11.1692  -18.4673   25.6303 C   0  0  1  0  0  0  0  0  0  0  0  0
   12.3727  -17.7988   25.4394 O   0  0  0  0  0  0  0  0  0  0  0  0
   10.1504  -17.6025   26.3422 C   0  0  2  0  0  0  0  0  0  0  0  0
    9.8663  -16.3936   25.5857 N   0  0  0  0  0  0  0  0  0  0  0  0
   10.5962  -17.2822   27.7166 C   0  0  0  0  0  0  0  0  0  0  0  0
   10.8877  -16.1128   28.0718 O   0  0  0  0  0  0  0  0  0  0  0  0
   10.7004  -18.2923   28.6524 O   0  0  0  0  0  0  0  0  0  0  0  0
  2  4  1  0
  2  1  1  6
  2  3  1  0
  5  4  1  0
  5  6  1  1
  7  5  1  0
  8  7  2  0
  9  7  1  0
 10  9  1  0
 11 12  1  0
 10 11  1  1
 12 13  2  0
 13 14  1  0
 15 14  2  0
 16 15  1  0
 17 16  2  0
 17 12  1  0
 18 10  1  0
 18 19  2  0
 21 20  1  6
 21 22  1  0
 21 23  1  0
 23 24  1  6
 24 18  1  0
 25 23  1  0
 25 27  1  0
 26 25  2  0
M  END
$$$$
