LFT.pdb
     RDKit          3D

 27 27  0  0  1  0  0  0  0  0999 V2000
    8.6545  -11.9505   19.9455 C   0  0  0  0  0  0  0  0  0  0  0  0
    8.1777  -13.2634   20.5305 C   0  0  1  0  0  0  0  0  0  0  0  0
    6.6998  -13.4054   20.3711 C   0  0  0  0  0  0  0  0  0  0  0  0
    8.9836  -14.4259   20.0556 C   0  0  0  0  0  0  0  0  0  0  0  0
    8.7252  -15.7148   20.7617 C   0  0  2  0  0  0  0  0  0  0  0  0
    7.3126  -16.0127   20.8305 N   0  0  0  0  0  0  0  0  0  0  0  0
    9.2673  -15.5946   22.1403 C   0  0  0  0  0  0  0  0  0  0  0  0
   10.5148  -15.4120   22.3458 O   0  0  0  0  0  0  0  0  0  0  0  0
    8.4439  -15.6744   23.2959 N   0  0  0  0  0  0  0  0  0  0  0  0
    8.9803  -15.6098   24.6282 C   0  0  1  0  0  0  0  0  0  0  0  0
    8.0538  -15.0189   25.6414 C   0  0  0  0  0  0  0  0  0  0  0  0
    8.7255  -14.7329   26.9340 C   0  0  0  0  0  0  0  0  0  0  0  0
    8.9616  -15.7336   27.8709 C   0  0  0  0  0  0  0  0  0  0  0  0
    9.5862  -15.4807   29.0739 C   0  0  0  0  0  0  0  0  0  0  0  0
    9.9788  -14.1738   29.3252 C   0  0  0  0  0  0  0  0  0  0  0  0
    9.7654  -13.1468   28.4250 C   0  0  0  0  0  0  0  0  0  0  0  0
    9.1297  -13.4448   27.2182 C   0  0  0  0  0  0  0  0  0  0  0  0
    9.5460  -16.9152   25.0673 C   0  0  0  0  0  0  0  0  0  0  0  0
    8.8078  -17.9322   25.1995 O   0  0  0  0  0  0  0  0  0  0  0  0
   11.4546  -19.2703   23.4403 C   0  0  0  0  0  0  0  0  0  0  0  0
   12.2752  -19.0205   24.6953 C   0  0  1  0  0  0  0  0  0  0  0  0
   13.3638  -18.2270   24.3535 O   0  0  0  0  0  0  0  0  0  0  0  0
   11.4306  -18.3832   25.7785 C   0  0  2  0  0  0  0  0  0  0  0  0
   10.9259  -17.0862   25.3569 N   0  0  0  0  0  0  0  0  0  0  0  0
   12.1872  -18.2776   27.0461 C   0  0  0  0  0  0  0  0  0  0  0  0
   12.5091  -17.1702   27.5448 O   0  0  0  0  0  0  0  0  0  0  0  0
   12.5593  -19.4265   27.7157 O   0  0  0  0  0  0  0  0  0  0  0  0
  2  4  1  0
  2  1  1  6
  2  3  1  0
  5  4  1  0
  5  6  1  1
  7  5  1  0
  8  7  2  0
  9  7  1  0
 10  9  1  0
 11 12  1  0
 10 11  1  1
 12 13  2  0
 13 14  1  0
 15 14  2  0
 16 15  1  0
 17 16  2  0
 17 12  1  0
 18 10  1  0
 18 19  2  0
 21 20  1  6
 21 22  1  0
 21 23  1  0
 23 24  1  6
 24 18  1  0
 25 23  1  0
 25 27  1  0
 26 25  2  0
M  END
$$$$
