MEC.pdb
     RDKit          3D

 24 23  0  0  1  0  0  0  0  0999 V2000
    7.7659  -12.0575   19.3063 C   0  0  0  0  0  0  0  0  0  0  0  0
    7.1743  -12.7530   20.8484 S   0  0  0  0  0  0  0  0  0  0  0  0
    7.4894  -14.4854   21.0889 C   0  0  0  0  0  0  0  0  0  0  0  0
    8.5362  -15.0826   20.2063 C   0  0  0  0  0  0  0  0  0  0  0  0
    8.6709  -16.5417   20.4295 C   0  0  2  0  0  0  0  0  0  0  0  0
    7.3887  -17.1684   20.2595 N   0  0  0  0  0  0  0  0  0  0  0  0
    9.1519  -16.8360   21.8376 C   0  0  0  0  0  0  0  0  0  0  0  0
    8.3282  -17.1447   22.7428 O   0  0  0  0  0  0  0  0  0  0  0  0
   10.5195  -16.7614   22.1230 N   0  0  0  0  0  0  0  0  0  0  0  0
   11.0598  -17.1261   23.4404 C   0  0  1  0  0  0  0  0  0  0  0  0
   12.5330  -17.3457   23.2589 C   0  0  0  0  0  0  0  0  0  0  0  0
   12.9341  -18.6025   22.5872 C   0  0  0  0  0  0  0  0  0  0  0  0
   14.3951  -18.7138   22.4126 C   0  0  0  0  0  0  0  0  0  0  0  0
   15.1764  -18.6804   23.4251 O   0  0  0  0  0  0  0  0  0  0  0  0
   10.7902  -16.0033   24.3818 C   0  0  0  0  0  0  0  0  0  0  0  0
   10.6136  -14.8419   23.9390 O   0  0  0  0  0  0  0  0  0  0  0  0
   14.9556  -18.8540   21.1669 O   0  0  0  0  0  0  0  0  0  0  0  0
   10.7235  -16.1971   25.7871 N   0  0  0  0  0  0  0  0  0  0  0  0
   10.3874  -15.1395   26.7377 C   0  0  1  0  0  0  0  0  0  0  0  0
    8.9355  -14.7620   26.4950 C   0  0  0  0  0  0  0  0  0  0  0  0
    8.3876  -13.5508   27.7255 S   0  0  0  0  0  0  0  0  0  0  0  0
   10.5725  -15.5860   28.1301 C   0  0  0  0  0  0  0  0  0  0  0  0
   10.5842  -16.8000   28.4283 O   0  0  0  0  0  0  0  0  0  0  0  0
   10.7378  -14.6571   29.1404 O   0  0  0  0  0  0  0  0  0  0  0  0
  1  2  1  0
  2  3  1  0
  4  5  1  0
  4  3  1  0
  5  7  1  0
  5  6  1  1
  7  8  2  0
  9  7  1  0
  9 10  1  0
 10 15  1  0
 10 11  1  6
 12 13  1  0
 12 11  1  0
 13 14  2  0
 15 16  2  0
 17 13  1  0
 18 15  1  0
 18 19  1  0
 19 22  1  0
 20 21  1  0
 19 20  1  1
 22 24  1  0
 23 22  2  0
M  END
$$$$
