MEC.pdb
     RDKit          3D

 24 23  0  0  1  0  0  0  0  0999 V2000
    8.3015  -12.6494   18.3229 C   0  0  0  0  0  0  0  0  0  0  0  0
    8.1794  -12.7049   20.1100 S   0  0  0  0  0  0  0  0  0  0  0  0
    6.7231  -13.4863   20.7636 C   0  0  0  0  0  0  0  0  0  0  0  0
    6.9575  -14.5066   21.8292 C   0  0  0  0  0  0  0  0  0  0  0  0
    7.7350  -15.6604   21.3186 C   0  0  2  0  0  0  0  0  0  0  0  0
    6.8803  -16.4908   20.5150 N   0  0  0  0  0  0  0  0  0  0  0  0
    8.2698  -16.5055   22.4590 C   0  0  0  0  0  0  0  0  0  0  0  0
    7.5238  -17.3431   23.0381 O   0  0  0  0  0  0  0  0  0  0  0  0
    9.5997  -16.3465   22.8632 N   0  0  0  0  0  0  0  0  0  0  0  0
   10.1605  -17.0891   24.0011 C   0  0  1  0  0  0  0  0  0  0  0  0
   11.3194  -17.8820   23.4722 C   0  0  0  0  0  0  0  0  0  0  0  0
   12.4357  -17.1064   22.8857 C   0  0  0  0  0  0  0  0  0  0  0  0
   13.5178  -17.9668   22.3699 C   0  0  0  0  0  0  0  0  0  0  0  0
   13.4180  -18.5207   21.2210 O   0  0  0  0  0  0  0  0  0  0  0  0
   10.6003  -16.1045   25.0289 C   0  0  0  0  0  0  0  0  0  0  0  0
   10.9354  -14.9447   24.6841 O   0  0  0  0  0  0  0  0  0  0  0  0
   14.6556  -18.1981   23.1032 O   0  0  0  0  0  0  0  0  0  0  0  0
   10.6570  -16.4306   26.4100 N   0  0  0  0  0  0  0  0  0  0  0  0
   10.6767  -15.4351   27.4794 C   0  0  1  0  0  0  0  0  0  0  0  0
    9.3726  -14.6595   27.3953 C   0  0  0  0  0  0  0  0  0  0  0  0
    9.2894  -13.4256   28.7190 S   0  0  0  0  0  0  0  0  0  0  0  0
   10.8093  -16.0679   28.8040 C   0  0  0  0  0  0  0  0  0  0  0  0
   10.3118  -17.1898   29.0421 O   0  0  0  0  0  0  0  0  0  0  0  0
   11.4945  -15.4220   29.8160 O   0  0  0  0  0  0  0  0  0  0  0  0
  1  2  1  0
  2  3  1  0
  4  5  1  0
  4  3  1  0
  5  7  1  0
  5  6  1  6
  7  8  2  0
  9  7  1  0
  9 10  1  0
 10 15  1  0
 10 11  1  6
 12 13  1  0
 12 11  1  0
 13 14  2  0
 15 16  2  0
 17 13  1  0
 18 15  1  0
 18 19  1  0
 19 22  1  0
 20 21  1  0
 19 20  1  1
 22 24  1  0
 23 22  2  0
M  END
$$$$
