MEC.pdb
     RDKit          3D

 24 23  0  0  1  0  0  0  0  0999 V2000
    7.9297  -11.6241   20.3465 C   0  0  0  0  0  0  0  0  0  0  0  0
    7.7064  -12.7134   18.9411 S   0  0  0  0  0  0  0  0  0  0  0  0
    6.8866  -14.2540   19.2770 C   0  0  0  0  0  0  0  0  0  0  0  0
    7.5267  -15.1161   20.3157 C   0  0  0  0  0  0  0  0  0  0  0  0
    8.1721  -16.3071   19.7144 C   0  0  2  0  0  0  0  0  0  0  0  0
    7.1608  -17.1716   19.1706 N   0  0  0  0  0  0  0  0  0  0  0  0
    8.9470  -17.0918   20.7558 C   0  0  0  0  0  0  0  0  0  0  0  0
    8.3453  -17.8647   21.5520 O   0  0  0  0  0  0  0  0  0  0  0  0
   10.3371  -16.9495   20.8252 N   0  0  0  0  0  0  0  0  0  0  0  0
   11.1257  -17.5414   21.9153 C   0  0  1  0  0  0  0  0  0  0  0  0
   12.5506  -17.5815   21.4468 C   0  0  0  0  0  0  0  0  0  0  0  0
   13.5540  -18.0527   22.4282 C   0  0  0  0  0  0  0  0  0  0  0  0
   14.9168  -18.1116   21.8657 C   0  0  0  0  0  0  0  0  0  0  0  0
   15.2703  -17.3141   20.9299 O   0  0  0  0  0  0  0  0  0  0  0  0
   10.9747  -16.6795   23.1209 C   0  0  0  0  0  0  0  0  0  0  0  0
   11.3987  -15.4979   23.1047 O   0  0  0  0  0  0  0  0  0  0  0  0
   15.8393  -19.0189   22.3257 O   0  0  0  0  0  0  0  0  0  0  0  0
   10.3585  -17.1490   24.3112 N   0  0  0  0  0  0  0  0  0  0  0  0
   10.3661  -16.4142   25.5741 C   0  0  1  0  0  0  0  0  0  0  0  0
    9.1103  -15.5591   25.6040 C   0  0  0  0  0  0  0  0  0  0  0  0
    7.6366  -16.6027   25.4607 S   0  0  0  0  0  0  0  0  0  0  0  0
   10.3888  -17.3279   26.7305 C   0  0  0  0  0  0  0  0  0  0  0  0
   10.4372  -16.8941   27.9019 O   0  0  0  0  0  0  0  0  0  0  0  0
   10.3566  -18.6959   26.5345 O   0  0  0  0  0  0  0  0  0  0  0  0
  1  2  1  0
  2  3  1  0
  4  5  1  0
  4  3  1  0
  5  7  1  0
  5  6  1  1
  7  8  2  0
  9  7  1  0
  9 10  1  0
 10 15  1  0
 10 11  1  6
 12 13  1  0
 12 11  1  0
 13 14  2  0
 15 16  2  0
 17 13  1  0
 18 15  1  0
 18 19  1  0
 19 22  1  0
 20 21  1  0
 19 20  1  1
 22 24  1  0
 23 22  2  0
M  END
$$$$
