MEC.pdb
     RDKit          3D

 24 23  0  0  1  0  0  0  0  0999 V2000
    7.5218  -10.9091   26.0861 C   0  0  0  0  0  0  0  0  0  0  0  0
    6.1009  -11.7240   25.3588 S   0  0  0  0  0  0  0  0  0  0  0  0
    5.5883  -13.2344   26.1426 C   0  0  0  0  0  0  0  0  0  0  0  0
    6.6200  -14.3126   26.2098 C   0  0  0  0  0  0  0  0  0  0  0  0
    6.5331  -15.2247   25.0448 C   0  0  2  0  0  0  0  0  0  0  0  0
    5.3658  -16.0529   25.1762 N   0  0  0  0  0  0  0  0  0  0  0  0
    7.7452  -16.1336   24.9719 C   0  0  0  0  0  0  0  0  0  0  0  0
    7.9170  -17.0400   25.8335 O   0  0  0  0  0  0  0  0  0  0  0  0
    8.6720  -15.9567   23.9389 N   0  0  0  0  0  0  0  0  0  0  0  0
    9.9237  -16.7247   23.8774 C   0  0  1  0  0  0  0  0  0  0  0  0
   10.5356  -16.4493   22.5353 C   0  0  0  0  0  0  0  0  0  0  0  0
   11.8640  -17.0509   22.2806 C   0  0  0  0  0  0  0  0  0  0  0  0
   12.0108  -17.5429   20.8972 C   0  0  0  0  0  0  0  0  0  0  0  0
   12.0297  -16.7249   19.9137 O   0  0  0  0  0  0  0  0  0  0  0  0
   10.8090  -16.2624   24.9828 C   0  0  0  0  0  0  0  0  0  0  0  0
   11.7082  -15.4165   24.7546 O   0  0  0  0  0  0  0  0  0  0  0  0
   12.1290  -18.8839   20.6262 O   0  0  0  0  0  0  0  0  0  0  0  0
   10.6745  -16.7490   26.3102 N   0  0  0  0  0  0  0  0  0  0  0  0
   11.5926  -16.4116   27.3957 C   0  0  1  0  0  0  0  0  0  0  0  0
   10.7786  -15.7118   28.4714 C   0  0  0  0  0  0  0  0  0  0  0  0
   10.0615  -14.1811   27.8200 S   0  0  0  0  0  0  0  0  0  0  0  0
   12.2409  -17.6145   27.9483 C   0  0  0  0  0  0  0  0  0  0  0  0
   13.0620  -17.5379   28.8878 O   0  0  0  0  0  0  0  0  0  0  0  0
   11.9471  -18.8614   27.4291 O   0  0  0  0  0  0  0  0  0  0  0  0
  1  2  1  0
  2  3  1  0
  4  5  1  0
  4  3  1  0
  5  7  1  0
  5  6  1  1
  7  8  2  0
  9  7  1  0
  9 10  1  0
 10 15  1  0
 10 11  1  6
 12 13  1  0
 12 11  1  0
 13 14  2  0
 15 16  2  0
 17 13  1  0
 18 15  1  0
 18 19  1  0
 19 22  1  0
 20 21  1  0
 19 20  1  1
 22 24  1  0
 23 22  2  0
M  END
$$$$
