MEC.pdb
     RDKit          3D

 24 23  0  0  1  0  0  0  0  0999 V2000
    6.4248  -10.5888   25.0854 C   0  0  0  0  0  0  0  0  0  0  0  0
    6.5280  -12.1237   26.0047 S   0  0  0  0  0  0  0  0  0  0  0  0
    6.6760  -13.6025   25.0301 C   0  0  0  0  0  0  0  0  0  0  0  0
    7.4547  -13.4683   23.7624 C   0  0  0  0  0  0  0  0  0  0  0  0
    7.4486  -14.7285   22.9822 C   0  0  2  0  0  0  0  0  0  0  0  0
    6.1180  -15.2716   22.9677 N   0  0  0  0  0  0  0  0  0  0  0  0
    8.3681  -15.7609   23.6062 C   0  0  0  0  0  0  0  0  0  0  0  0
    7.9202  -16.5924   24.4436 O   0  0  0  0  0  0  0  0  0  0  0  0
    9.7192  -15.7818   23.2438 N   0  0  0  0  0  0  0  0  0  0  0  0
   10.6647  -16.7466   23.8233 C   0  0  1  0  0  0  0  0  0  0  0  0
   11.8348  -16.8223   22.8870 C   0  0  0  0  0  0  0  0  0  0  0  0
   12.9409  -17.7219   23.2859 C   0  0  0  0  0  0  0  0  0  0  0  0
   13.8190  -18.0807   22.1556 C   0  0  0  0  0  0  0  0  0  0  0  0
   13.3879  -18.8209   21.2054 O   0  0  0  0  0  0  0  0  0  0  0  0
   11.0750  -16.2482   25.1659 C   0  0  0  0  0  0  0  0  0  0  0  0
   11.2707  -15.0213   25.3470 O   0  0  0  0  0  0  0  0  0  0  0  0
   15.1163  -17.6351   22.0913 O   0  0  0  0  0  0  0  0  0  0  0  0
   11.2574  -17.1213   26.2710 N   0  0  0  0  0  0  0  0  0  0  0  0
   11.6153  -16.6686   27.6134 C   0  0  1  0  0  0  0  0  0  0  0  0
   10.5339  -15.7009   28.0644 C   0  0  0  0  0  0  0  0  0  0  0  0
   10.7814  -15.2475   29.8006 S   0  0  0  0  0  0  0  0  0  0  0  0
   11.7148  -17.7977   28.5556 C   0  0  0  0  0  0  0  0  0  0  0  0
   12.3416  -17.6938   29.6322 O   0  0  0  0  0  0  0  0  0  0  0  0
   11.1087  -19.0041   28.2590 O   0  0  0  0  0  0  0  0  0  0  0  0
  1  2  1  0
  2  3  1  0
  4  5  1  0
  4  3  1  0
  5  7  1  0
  5  6  1  1
  7  8  2  0
  9  7  1  0
  9 10  1  0
 10 15  1  0
 10 11  1  6
 12 13  1  0
 12 11  1  0
 13 14  2  0
 15 16  2  0
 17 13  1  0
 18 15  1  0
 18 19  1  0
 19 22  1  0
 20 21  1  0
 19 20  1  1
 22 24  1  0
 23 22  2  0
M  END
$$$$
