MEC.pdb
     RDKit          3D

 24 23  0  0  1  0  0  0  0  0999 V2000
    8.7681  -11.8193   20.2399 C   0  0  0  0  0  0  0  0  0  0  0  0
    7.4348  -12.6811   19.4083 S   0  0  0  0  0  0  0  0  0  0  0  0
    7.0461  -14.2977   20.0362 C   0  0  0  0  0  0  0  0  0  0  0  0
    8.2028  -15.0861   20.5577 C   0  0  0  0  0  0  0  0  0  0  0  0
    7.7670  -16.3835   21.1264 C   0  0  2  0  0  0  0  0  0  0  0  0
    6.3348  -16.3921   21.2468 N   0  0  0  0  0  0  0  0  0  0  0  0
    8.3536  -16.5978   22.5087 C   0  0  0  0  0  0  0  0  0  0  0  0
    7.5999  -16.6679   23.5188 O   0  0  0  0  0  0  0  0  0  0  0  0
    9.7401  -16.7168   22.6526 N   0  0  0  0  0  0  0  0  0  0  0  0
   10.3568  -17.1405   23.9178 C   0  0  1  0  0  0  0  0  0  0  0  0
   11.7585  -17.5676   23.5949 C   0  0  0  0  0  0  0  0  0  0  0  0
   12.6099  -17.9561   24.7420 C   0  0  0  0  0  0  0  0  0  0  0  0
   13.9389  -18.4437   24.3256 C   0  0  0  0  0  0  0  0  0  0  0  0
   15.0038  -17.8859   24.7630 O   0  0  0  0  0  0  0  0  0  0  0  0
   10.3445  -15.9813   24.8535 C   0  0  0  0  0  0  0  0  0  0  0  0
   10.2099  -14.8157   24.4068 O   0  0  0  0  0  0  0  0  0  0  0  0
   14.0711  -19.5024   23.4610 O   0  0  0  0  0  0  0  0  0  0  0  0
   10.4814  -16.1441   26.2576 N   0  0  0  0  0  0  0  0  0  0  0  0
   10.0545  -15.1467   27.2364 C   0  0  1  0  0  0  0  0  0  0  0  0
    8.5441  -15.0234   27.1226 C   0  0  0  0  0  0  0  0  0  0  0  0
    8.0404  -13.2924   27.3002 S   0  0  0  0  0  0  0  0  0  0  0  0
   10.4326  -15.5378   28.6062 C   0  0  0  0  0  0  0  0  0  0  0  0
   10.6308  -16.7341   28.9103 O   0  0  0  0  0  0  0  0  0  0  0  0
   10.5754  -14.5754   29.5881 O   0  0  0  0  0  0  0  0  0  0  0  0
  1  2  1  0
  2  3  1  0
  4  5  1  0
  4  3  1  0
  5  7  1  0
  5  6  1  1
  7  8  2  0
  9  7  1  0
  9 10  1  0
 10 15  1  0
 10 11  1  6
 12 13  1  0
 12 11  1  0
 13 14  2  0
 15 16  2  0
 17 13  1  0
 18 15  1  0
 18 19  1  0
 19 22  1  0
 20 21  1  0
 19 20  1  1
 22 24  1  0
 23 22  2  0
M  END
$$$$
