MEC.pdb
     RDKit          3D

 24 23  0  0  1  0  0  0  0  0999 V2000
    8.4539  -12.1549   18.5228 C   0  0  0  0  0  0  0  0  0  0  0  0
    7.9358  -12.2880   20.2332 S   0  0  0  0  0  0  0  0  0  0  0  0
    7.3736  -13.8927   20.7503 C   0  0  0  0  0  0  0  0  0  0  0  0
    8.0552  -15.0565   20.1080 C   0  0  0  0  0  0  0  0  0  0  0  0
    7.5887  -16.3436   20.6758 C   0  0  2  0  0  0  0  0  0  0  0  0
    6.2031  -16.5342   20.3450 N   0  0  0  0  0  0  0  0  0  0  0  0
    7.7135  -16.3501   22.1875 C   0  0  0  0  0  0  0  0  0  0  0  0
    6.7157  -16.0805   22.9122 O   0  0  0  0  0  0  0  0  0  0  0  0
    8.9473  -16.6579   22.7709 N   0  0  0  0  0  0  0  0  0  0  0  0
    9.0999  -16.8278   24.2229 C   0  0  1  0  0  0  0  0  0  0  0  0
   10.2725  -17.7405   24.4315 C   0  0  0  0  0  0  0  0  0  0  0  0
   11.4887  -17.4417   23.6421 C   0  0  0  0  0  0  0  0  0  0  0  0
   12.5859  -18.3929   23.9045 C   0  0  0  0  0  0  0  0  0  0  0  0
   12.5120  -19.6021   23.4933 O   0  0  0  0  0  0  0  0  0  0  0  0
    9.3412  -15.4873   24.8262 C   0  0  0  0  0  0  0  0  0  0  0  0
   10.2343  -14.7397   24.3574 O   0  0  0  0  0  0  0  0  0  0  0  0
   13.7103  -18.0115   24.5944 O   0  0  0  0  0  0  0  0  0  0  0  0
    8.5875  -15.0110   25.9316 N   0  0  0  0  0  0  0  0  0  0  0  0
    9.0117  -13.9059   26.7882 C   0  0  1  0  0  0  0  0  0  0  0  0
    7.8368  -12.9487   26.9015 C   0  0  0  0  0  0  0  0  0  0  0  0
    6.2892  -13.8728   27.0817 S   0  0  0  0  0  0  0  0  0  0  0  0
    9.4129  -14.3814   28.1244 C   0  0  0  0  0  0  0  0  0  0  0  0
    9.2555  -15.5738   28.4653 O   0  0  0  0  0  0  0  0  0  0  0  0
    9.9764  -13.5048   29.0325 O   0  0  0  0  0  0  0  0  0  0  0  0
  1  2  1  0
  2  3  1  0
  4  5  1  0
  4  3  1  0
  5  7  1  0
  5  6  1  1
  7  8  2  0
  9  7  1  0
  9 10  1  0
 10 15  1  0
 10 11  1  6
 12 13  1  0
 12 11  1  0
 13 14  2  0
 15 16  2  0
 17 13  1  0
 18 15  1  0
 18 19  1  0
 19 22  1  0
 20 21  1  0
 19 20  1  1
 22 24  1  0
 23 22  2  0
M  END
$$$$
