TMI.pdb
     RDKit          3D

 24 23  0  0  1  0  0  0  0  0999 V2000
    9.1298  -18.7504   19.8781 C   0  0  0  0  0  0  0  0  0  0  0  0
    9.7690  -17.9075   20.9415 C   0  0  1  0  0  0  0  0  0  0  0  0
   11.1622  -18.0667   20.8459 O   0  0  0  0  0  0  0  0  0  0  0  0
    9.4026  -16.4464   20.7451 C   0  0  2  0  0  0  0  0  0  0  0  0
   10.2938  -15.8932   19.7682 N   0  0  0  0  0  0  0  0  0  0  0  0
    9.5637  -15.7566   22.0490 C   0  0  0  0  0  0  0  0  0  0  0  0
   10.5438  -15.0497   22.3540 O   0  0  0  0  0  0  0  0  0  0  0  0
    6.5918  -11.7849   26.2838 C   0  0  0  0  0  0  0  0  0  0  0  0
    5.5213  -12.8039   25.2474 S   0  0  0  0  0  0  0  0  0  0  0  0
    6.4993  -13.7682   24.0642 C   0  0  0  0  0  0  0  0  0  0  0  0
    7.1721  -14.9088   24.8223 C   0  0  0  0  0  0  0  0  0  0  0  0
    8.5476  -15.1855   24.2888 C   0  0  2  0  0  0  0  0  0  0  0  0
    8.5475  -15.8951   23.0313 N   0  0  0  0  0  0  0  0  0  0  0  0
    9.3527  -15.9762   25.2552 C   0  0  0  0  0  0  0  0  0  0  0  0
    9.6513  -17.1813   25.0532 O   0  0  0  0  0  0  0  0  0  0  0  0
   10.1933  -13.2890   29.8928 C   0  0  0  0  0  0  0  0  0  0  0  0
   10.8365  -14.0451   28.7844 C   0  0  0  0  0  0  0  0  0  0  0  0
   10.5640  -15.5180   28.7963 C   0  0  2  0  0  0  0  0  0  0  0  0
   11.5795  -16.1846   29.6998 C   0  0  0  0  0  0  0  0  0  0  0  0
   10.5924  -16.1574   27.4477 C   0  0  2  0  0  0  0  0  0  0  0  0
    9.8316  -15.3998   26.4740 N   0  0  0  0  0  0  0  0  0  0  0  0
    9.9974  -17.5155   27.5578 C   0  0  0  0  0  0  0  0  0  0  0  0
    8.6224  -17.6626   27.6275 O   0  0  0  0  0  0  0  0  0  0  0  0
   10.6925  -18.5690   27.5923 O   0  0  0  0  0  0  0  0  0  0  0  0
  2  1  1  6
  2  4  1  0
  3  2  1  0
  4  5  1  6
  6 13  1  0
  6  4  1  0
  7  6  2  0
  8  9  1  0
  9 10  1  0
 11 10  1  0
 12 11  1  1
 12 13  1  0
 14 15  2  0
 14 12  1  0
 16 17  1  0
 17 18  1  0
 18 20  1  0
 18 19  1  1
 20 21  1  6
 20 22  1  0
 21 14  1  0
 22 23  1  0
 24 22  2  0
M  END
$$$$
