TMI.pdb
     RDKit          3D

 24 23  0  0  1  0  0  0  0  0999 V2000
    8.2994  -18.6128   19.2783 C   0  0  0  0  0  0  0  0  0  0  0  0
    8.7032  -17.9429   20.5581 C   0  0  1  0  0  0  0  0  0  0  0  0
    9.8341  -18.6088   21.0613 O   0  0  0  0  0  0  0  0  0  0  0  0
    9.0355  -16.4824   20.3049 C   0  0  2  0  0  0  0  0  0  0  0  0
   10.1502  -16.4307   19.4053 N   0  0  0  0  0  0  0  0  0  0  0  0
    9.3857  -15.8619   21.6066 C   0  0  0  0  0  0  0  0  0  0  0  0
   10.5515  -15.6936   22.0141 O   0  0  0  0  0  0  0  0  0  0  0  0
    4.9271  -13.1584   26.4508 C   0  0  0  0  0  0  0  0  0  0  0  0
    6.2535  -12.1041   25.8278 S   0  0  0  0  0  0  0  0  0  0  0  0
    7.7130  -13.0908   25.4004 C   0  0  0  0  0  0  0  0  0  0  0  0
    7.3815  -13.9169   24.1611 C   0  0  0  0  0  0  0  0  0  0  0  0
    8.5662  -14.7164   23.7021 C   0  0  2  0  0  0  0  0  0  0  0  0
    8.3415  -15.4225   22.4629 N   0  0  0  0  0  0  0  0  0  0  0  0
    8.9732  -15.7142   24.7249 C   0  0  0  0  0  0  0  0  0  0  0  0
    8.6169  -16.9192   24.6669 O   0  0  0  0  0  0  0  0  0  0  0  0
   10.2778  -14.3941   30.0686 C   0  0  0  0  0  0  0  0  0  0  0  0
    9.7911  -15.0267   28.8128 C   0  0  0  0  0  0  0  0  0  0  0  0
   10.8555  -15.7022   28.0037 C   0  0  2  0  0  0  0  0  0  0  0  0
   11.9292  -14.6846   27.6819 C   0  0  0  0  0  0  0  0  0  0  0  0
   10.3613  -16.3297   26.7427 C   0  0  2  0  0  0  0  0  0  0  0  0
    9.7977  -15.3494   25.8358 N   0  0  0  0  0  0  0  0  0  0  0  0
    9.3027  -17.3142   27.0899 C   0  0  0  0  0  0  0  0  0  0  0  0
    9.6496  -18.5302   27.6538 O   0  0  0  0  0  0  0  0  0  0  0  0
    8.0739  -17.0988   26.8946 O   0  0  0  0  0  0  0  0  0  0  0  0
  2  1  1  6
  2  4  1  0
  3  2  1  0
  4  5  1  6
  6 13  1  0
  6  4  1  0
  7  6  2  0
  8  9  1  0
  9 10  1  0
 11 10  1  0
 12 11  1  1
 12 13  1  0
 14 15  2  0
 14 12  1  0
 16 17  1  0
 17 18  1  0
 18 20  1  0
 18 19  1  6
 20 21  1  6
 20 22  1  0
 21 14  1  0
 22 23  1  0
 24 22  2  0
M  END
$$$$
