TMI.pdb
     RDKit          3D

 24 23  0  0  1  0  0  0  0  0999 V2000
    5.1581  -19.8046   24.8902 C   0  0  0  0  0  0  0  0  0  0  0  0
    6.2907  -18.9524   24.3995 C   0  0  1  0  0  0  0  0  0  0  0  0
    7.4395  -19.2863   25.1373 O   0  0  0  0  0  0  0  0  0  0  0  0
    6.5361  -19.2041   22.9217 C   0  0  2  0  0  0  0  0  0  0  0  0
    6.7533  -20.6094   22.7413 N   0  0  0  0  0  0  0  0  0  0  0  0
    7.7398  -18.4341   22.5216 C   0  0  0  0  0  0  0  0  0  0  0  0
    8.8632  -18.9371   22.3261 O   0  0  0  0  0  0  0  0  0  0  0  0
    7.1565  -11.1016   20.6639 C   0  0  0  0  0  0  0  0  0  0  0  0
    7.9179  -12.6429   20.1130 S   0  0  0  0  0  0  0  0  0  0  0  0
    7.9174  -13.8731   21.4445 C   0  0  0  0  0  0  0  0  0  0  0  0
    8.3707  -15.2071   20.8586 C   0  0  0  0  0  0  0  0  0  0  0  0
    8.7304  -16.1861   21.9383 C   0  0  2  0  0  0  0  0  0  0  0  0
    7.6306  -17.0295   22.3430 N   0  0  0  0  0  0  0  0  0  0  0  0
    9.2385  -15.4916   23.1494 C   0  0  0  0  0  0  0  0  0  0  0  0
   10.1964  -14.6775   23.1047 O   0  0  0  0  0  0  0  0  0  0  0  0
    5.6961  -13.0562   25.9055 C   0  0  0  0  0  0  0  0  0  0  0  0
    7.0194  -13.4530   25.3528 C   0  0  0  0  0  0  0  0  0  0  0  0
    7.8372  -14.3208   26.2594 C   0  0  2  0  0  0  0  0  0  0  0  0
    8.2813  -13.4894   27.4440 C   0  0  0  0  0  0  0  0  0  0  0  0
    9.0264  -14.9418   25.6050 C   0  0  2  0  0  0  0  0  0  0  0  0
    8.6575  -15.7173   24.4372 N   0  0  0  0  0  0  0  0  0  0  0  0
    9.6834  -15.8475   26.5840 C   0  0  0  0  0  0  0  0  0  0  0  0
    9.6634  -17.2166   26.3786 O   0  0  0  0  0  0  0  0  0  0  0  0
   10.2736  -15.4283   27.6186 O   0  0  0  0  0  0  0  0  0  0  0  0
  2  1  1  1
  2  4  1  0
  3  2  1  0
  4  5  1  1
  6 13  1  0
  6  4  1  0
  7  6  2  0
  8  9  1  0
  9 10  1  0
 11 10  1  0
 12 11  1  6
 12 13  1  0
 14 15  2  0
 14 12  1  0
 16 17  1  0
 17 18  1  0
 18 20  1  0
 18 19  1  1
 20 21  1  6
 20 22  1  0
 21 14  1  0
 22 23  1  0
 24 22  2  0
M  END
$$$$
