TMI.pdb
     RDKit          3D

 24 23  0  0  1  0  0  0  0  0999 V2000
    6.5808  -20.7498   23.8867 C   0  0  0  0  0  0  0  0  0  0  0  0
    7.3613  -19.4728   23.9861 C   0  0  1  0  0  0  0  0  0  0  0  0
    8.7123  -19.8019   24.1912 O   0  0  0  0  0  0  0  0  0  0  0  0
    7.2157  -18.6668   22.7068 C   0  0  2  0  0  0  0  0  0  0  0  0
    7.7618  -19.4403   21.6307 N   0  0  0  0  0  0  0  0  0  0  0  0
    7.9718  -17.4013   22.8765 C   0  0  0  0  0  0  0  0  0  0  0  0
    9.1143  -17.1986   22.4216 O   0  0  0  0  0  0  0  0  0  0  0  0
    5.6703  -12.5522   26.7368 C   0  0  0  0  0  0  0  0  0  0  0  0
    6.7817  -11.6288   25.6547 S   0  0  0  0  0  0  0  0  0  0  0  0
    7.8903  -12.7512   24.7617 C   0  0  0  0  0  0  0  0  0  0  0  0
    7.1843  -14.0955   24.6109 C   0  0  0  0  0  0  0  0  0  0  0  0
    8.0478  -15.0906   23.8914 C   0  0  2  0  0  0  0  0  0  0  0  0
    7.3759  -16.3352   23.6012 N   0  0  0  0  0  0  0  0  0  0  0  0
    9.2716  -15.4074   24.6719 C   0  0  0  0  0  0  0  0  0  0  0  0
   10.4191  -15.0575   24.2934 O   0  0  0  0  0  0  0  0  0  0  0  0
    9.7355  -13.2614   29.1336 C   0  0  0  0  0  0  0  0  0  0  0  0
   10.0687  -14.0142   27.8941 C   0  0  0  0  0  0  0  0  0  0  0  0
   10.1315  -15.5008   28.0673 C   0  0  2  0  0  0  0  0  0  0  0  0
   11.2458  -15.8218   29.0406 C   0  0  0  0  0  0  0  0  0  0  0  0
   10.3377  -16.2576   26.7973 C   0  0  2  0  0  0  0  0  0  0  0  0
    9.2037  -16.1327   25.9033 N   0  0  0  0  0  0  0  0  0  0  0  0
   10.5197  -17.6952   27.1300 C   0  0  0  0  0  0  0  0  0  0  0  0
    9.5369  -18.6108   26.7940 O   0  0  0  0  0  0  0  0  0  0  0  0
   11.5456  -18.1398   27.7167 O   0  0  0  0  0  0  0  0  0  0  0  0
  2  1  1  6
  2  4  1  0
  3  2  1  0
  4  5  1  6
  6 13  1  0
  6  4  1  0
  7  6  2  0
  8  9  1  0
  9 10  1  0
 11 10  1  0
 12 11  1  1
 12 13  1  0
 14 15  2  0
 14 12  1  0
 16 17  1  0
 17 18  1  0
 18 20  1  0
 18 19  1  1
 20 21  1  6
 20 22  1  0
 21 14  1  0
 22 23  1  0
 24 22  2  0
M  END
$$$$
