TMI.pdb
     RDKit          3D

 24 23  0  0  1  0  0  0  0  0999 V2000
   10.3889  -17.0444   18.2688 C   0  0  0  0  0  0  0  0  0  0  0  0
   10.3412  -16.2218   19.5222 C   0  0  1  0  0  0  0  0  0  0  0  0
    9.3713  -15.2193   19.3496 O   0  0  0  0  0  0  0  0  0  0  0  0
    9.9743  -17.0947   20.7101 C   0  0  2  0  0  0  0  0  0  0  0  0
    8.6524  -17.6051   20.4939 N   0  0  0  0  0  0  0  0  0  0  0  0
   10.0143  -16.2478   21.9280 C   0  0  0  0  0  0  0  0  0  0  0  0
   11.0235  -15.6326   22.3236 O   0  0  0  0  0  0  0  0  0  0  0  0
    5.6884  -11.6189   25.9271 C   0  0  0  0  0  0  0  0  0  0  0  0
    5.6876  -13.4194   25.7963 S   0  0  0  0  0  0  0  0  0  0  0  0
    7.3702  -14.0476   25.5501 C   0  0  0  0  0  0  0  0  0  0  0  0
    7.3798  -14.8944   24.2807 C   0  0  0  0  0  0  0  0  0  0  0  0
    8.7702  -15.3363   23.9270 C   0  0  2  0  0  0  0  0  0  0  0  0
    8.8379  -16.1131   22.7119 N   0  0  0  0  0  0  0  0  0  0  0  0
    9.3730  -16.1463   25.0169 C   0  0  0  0  0  0  0  0  0  0  0  0
    9.5958  -17.3782   24.8938 O   0  0  0  0  0  0  0  0  0  0  0  0
   10.3887  -13.2964   29.6604 C   0  0  0  0  0  0  0  0  0  0  0  0
   10.8626  -14.1209   28.5159 C   0  0  0  0  0  0  0  0  0  0  0  0
   10.4806  -15.5673   28.5913 C   0  0  2  0  0  0  0  0  0  0  0  0
   11.4215  -16.2606   29.5535 C   0  0  0  0  0  0  0  0  0  0  0  0
   10.4933  -16.2739   27.2765 C   0  0  2  0  0  0  0  0  0  0  0  0
    9.7324  -15.5590   26.2710 N   0  0  0  0  0  0  0  0  0  0  0  0
    9.8866  -17.6190   27.4587 C   0  0  0  0  0  0  0  0  0  0  0  0
    8.5136  -17.7742   27.3702 O   0  0  0  0  0  0  0  0  0  0  0  0
   10.5698  -18.6541   27.6957 O   0  0  0  0  0  0  0  0  0  0  0  0
  2  1  1  6
  2  4  1  0
  3  2  1  0
  4  5  1  6
  6 13  1  0
  6  4  1  0
  7  6  2  0
  8  9  1  0
  9 10  1  0
 11 10  1  0
 12 11  1  1
 12 13  1  0
 14 15  2  0
 14 12  1  0
 16 17  1  0
 17 18  1  0
 18 20  1  0
 18 19  1  1
 20 21  1  6
 20 22  1  0
 21 14  1  0
 22 23  1  0
 24 22  2  0
M  END
$$$$
