TMI.pdb
     RDKit          3D

 24 23  0  0  1  0  0  0  0  0999 V2000
    8.0353  -17.3433   20.0605 C   0  0  0  0  0  0  0  0  0  0  0  0
    6.8578  -16.4157   20.1136 C   0  0  1  0  0  0  0  0  0  0  0  0
    6.0878  -16.7518   21.2404 O   0  0  0  0  0  0  0  0  0  0  0  0
    7.3278  -14.9752   20.2217 C   0  0  2  0  0  0  0  0  0  0  0  0
    8.1475  -14.6895   19.0810 N   0  0  0  0  0  0  0  0  0  0  0  0
    8.1123  -14.8442   21.4745 C   0  0  0  0  0  0  0  0  0  0  0  0
    9.2992  -15.2027   21.6014 O   0  0  0  0  0  0  0  0  0  0  0  0
    5.4342  -12.2264   26.9828 C   0  0  0  0  0  0  0  0  0  0  0  0
    7.1982  -11.9177   27.2104 S   0  0  0  0  0  0  0  0  0  0  0  0
    8.1839  -12.9915   26.1326 C   0  0  0  0  0  0  0  0  0  0  0  0
    7.4078  -13.2044   24.8362 C   0  0  0  0  0  0  0  0  0  0  0  0
    8.1680  -14.0756   23.8789 C   0  0  2  0  0  0  0  0  0  0  0  0
    7.4923  -14.2757   22.6187 N   0  0  0  0  0  0  0  0  0  0  0  0
    8.4391  -15.4136   24.4652 C   0  0  0  0  0  0  0  0  0  0  0  0
    7.5783  -16.3308   24.4722 O   0  0  0  0  0  0  0  0  0  0  0  0
   12.5431  -18.1816   22.8823 C   0  0  0  0  0  0  0  0  0  0  0  0
   11.2587  -17.7306   23.4830 C   0  0  0  0  0  0  0  0  0  0  0  0
   11.2890  -17.5768   24.9728 C   0  0  2  0  0  0  0  0  0  0  0  0
   11.6134  -18.9226   25.5855 C   0  0  0  0  0  0  0  0  0  0  0  0
   10.0230  -17.0473   25.5602 C   0  0  2  0  0  0  0  0  0  0  0  0
    9.7041  -15.7263   25.0559 N   0  0  0  0  0  0  0  0  0  0  0  0
   10.1880  -16.9616   27.0353 C   0  0  0  0  0  0  0  0  0  0  0  0
    9.9624  -18.0793   27.8207 O   0  0  0  0  0  0  0  0  0  0  0  0
   10.5307  -15.9004   27.6274 O   0  0  0  0  0  0  0  0  0  0  0  0
  2  1  1  1
  2  4  1  0
  3  2  1  0
  4  5  1  6
  6 13  1  0
  6  4  1  0
  7  6  2  0
  8  9  1  0
  9 10  1  0
 11 10  1  0
 12 11  1  1
 12 13  1  0
 14 15  2  0
 14 12  1  0
 16 17  1  0
 17 18  1  0
 18 20  1  0
 18 19  1  1
 20 21  1  6
 20 22  1  0
 21 14  1  0
 22 23  1  0
 24 22  2  0
M  END
$$$$
