TMI.pdb
     RDKit          3D

 24 23  0  0  1  0  0  0  0  0999 V2000
    7.2246  -20.4851   22.4529 C   0  0  0  0  0  0  0  0  0  0  0  0
    7.9135  -19.2044   22.8207 C   0  0  1  0  0  0  0  0  0  0  0  0
    9.2909  -19.4642   22.9253 O   0  0  0  0  0  0  0  0  0  0  0  0
    7.6673  -18.1503   21.7550 C   0  0  2  0  0  0  0  0  0  0  0  0
    8.2697  -18.6031   20.5358 N   0  0  0  0  0  0  0  0  0  0  0  0
    8.2967  -16.8859   22.2103 C   0  0  0  0  0  0  0  0  0  0  0  0
    9.4062  -16.4728   21.8207 O   0  0  0  0  0  0  0  0  0  0  0  0
    4.9606  -12.0088   25.5593 C   0  0  0  0  0  0  0  0  0  0  0  0
    6.6109  -12.0890   26.2866 S   0  0  0  0  0  0  0  0  0  0  0  0
    7.7900  -12.8311   25.1267 C   0  0  0  0  0  0  0  0  0  0  0  0
    7.2354  -14.1823   24.6851 C   0  0  0  0  0  0  0  0  0  0  0  0
    8.1544  -14.8602   23.7107 C   0  0  2  0  0  0  0  0  0  0  0  0
    7.6095  -16.0749   23.1520 N   0  0  0  0  0  0  0  0  0  0  0  0
    9.4571  -15.1959   24.3412 C   0  0  0  0  0  0  0  0  0  0  0  0
   10.5357  -14.6573   23.9823 O   0  0  0  0  0  0  0  0  0  0  0  0
   10.7359  -13.8615   29.6180 C   0  0  0  0  0  0  0  0  0  0  0  0
   11.1096  -14.8894   28.6091 C   0  0  0  0  0  0  0  0  0  0  0  0
   10.1510  -15.0150   27.4649 C   0  0  2  0  0  0  0  0  0  0  0  0
    8.7769  -15.3175   28.0237 C   0  0  0  0  0  0  0  0  0  0  0  0
   10.5272  -16.0541   26.4614 C   0  0  2  0  0  0  0  0  0  0  0  0
    9.5488  -16.1571   25.3970 N   0  0  0  0  0  0  0  0  0  0  0  0
   10.6118  -17.3677   27.1527 C   0  0  0  0  0  0  0  0  0  0  0  0
   11.7049  -17.6578   27.9515 O   0  0  0  0  0  0  0  0  0  0  0  0
    9.7207  -18.2563   27.0501 O   0  0  0  0  0  0  0  0  0  0  0  0
  2  1  1  6
  2  4  1  0
  3  2  1  0
  4  5  1  6
  6 13  1  0
  6  4  1  0
  7  6  2  0
  8  9  1  0
  9 10  1  0
 11 10  1  0
 12 11  1  1
 12 13  1  0
 14 15  2  0
 14 12  1  0
 16 17  1  0
 17 18  1  0
 18 20  1  0
 18 19  1  1
 20 21  1  6
 20 22  1  0
 21 14  1  0
 22 23  1  0
 24 22  2  0
M  END
$$$$
