TMI.pdb
     RDKit          3D

 24 23  0  0  1  0  0  0  0  0999 V2000
    6.8923  -17.4059   21.5197 C   0  0  0  0  0  0  0  0  0  0  0  0
    8.0337  -17.1652   20.5767 C   0  0  1  0  0  0  0  0  0  0  0  0
    7.6448  -17.6048   19.2996 O   0  0  0  0  0  0  0  0  0  0  0  0
    8.3744  -15.6855   20.5308 C   0  0  2  0  0  0  0  0  0  0  0  0
    9.3371  -15.4843   19.4880 N   0  0  0  0  0  0  0  0  0  0  0  0
    8.9444  -15.3077   21.8478 C   0  0  0  0  0  0  0  0  0  0  0  0
   10.1331  -15.4869   22.1768 O   0  0  0  0  0  0  0  0  0  0  0  0
    5.3833  -11.8730   26.3175 C   0  0  0  0  0  0  0  0  0  0  0  0
    7.0512  -11.8626   27.0079 S   0  0  0  0  0  0  0  0  0  0  0  0
    8.0437  -13.2114   26.3136 C   0  0  0  0  0  0  0  0  0  0  0  0
    7.6367  -13.3983   24.8549 C   0  0  0  0  0  0  0  0  0  0  0  0
    8.5149  -14.4012   24.1648 C   0  0  2  0  0  0  0  0  0  0  0  0
    8.1002  -14.6999   22.8145 N   0  0  0  0  0  0  0  0  0  0  0  0
    8.5665  -15.6816   24.9168 C   0  0  0  0  0  0  0  0  0  0  0  0
    7.6052  -16.4927   24.9288 O   0  0  0  0  0  0  0  0  0  0  0  0
   12.0812  -20.3987   25.3986 C   0  0  0  0  0  0  0  0  0  0  0  0
   11.1727  -19.5203   26.1843 C   0  0  0  0  0  0  0  0  0  0  0  0
   10.9286  -18.1740   25.5746 C   0  0  2  0  0  0  0  0  0  0  0  0
   12.2337  -17.4070   25.5718 C   0  0  0  0  0  0  0  0  0  0  0  0
    9.8739  -17.3721   26.2621 C   0  0  2  0  0  0  0  0  0  0  0  0
    9.7229  -16.0573   25.6708 N   0  0  0  0  0  0  0  0  0  0  0  0
   10.2626  -17.2060   27.6875 C   0  0  0  0  0  0  0  0  0  0  0  0
   10.2153  -18.2910   28.5464 O   0  0  0  0  0  0  0  0  0  0  0  0
   10.6431  -16.1037   28.1716 O   0  0  0  0  0  0  0  0  0  0  0  0
  2  1  1  1
  2  4  1  0
  3  2  1  0
  4  5  1  6
  6 13  1  0
  6  4  1  0
  7  6  2  0
  8  9  1  0
  9 10  1  0
 11 10  1  0
 12 11  1  1
 12 13  1  0
 14 15  2  0
 14 12  1  0
 16 17  1  0
 17 18  1  0
 18 20  1  0
 18 19  1  1
 20 21  1  6
 20 22  1  0
 21 14  1  0
 22 23  1  0
 24 22  2  0
M  END
$$$$
