DCM.pdb
     RDKit          3D

 23 22  0  0  1  0  0  0  0  0999 V2000
   11.8824  -19.3316   19.4293 N   0  0  0  0  0  0  0  0  0  0  0  0
   12.2497  -18.0316   19.9165 C   0  0  1  0  0  0  0  0  0  0  0  0
   12.3423  -17.0530   18.7708 C   0  0  0  0  0  0  0  0  0  0  0  0
   13.6231  -17.0978   18.0548 C   0  0  0  0  0  0  0  0  0  0  0  0
   13.8904  -16.4627   17.0248 O   0  0  0  0  0  0  0  0  0  0  0  0
   11.1961  -17.5115   20.8229 C   0  0  0  0  0  0  0  0  0  0  0  0
   11.2776  -16.3105   21.1736 O   0  0  0  0  0  0  0  0  0  0  0  0
   14.6237  -17.9213   18.5728 O   0  0  0  0  0  0  0  0  0  0  0  0
   10.1441  -18.3177   21.2780 N   0  0  0  0  0  0  0  0  0  0  0  0
    9.1004  -17.8319   22.1842 C   0  0  1  0  0  0  0  0  0  0  0  0
    8.0315  -18.8867   22.3486 C   0  0  0  0  0  0  0  0  0  0  0  0
    7.1266  -19.0573   20.8030 S   0  0  0  0  0  0  0  0  0  0  0  0
    9.7614  -17.6782   23.5155 C   0  0  0  0  0  0  0  0  0  0  0  0
   10.6884  -18.4841   23.7801 O   0  0  0  0  0  0  0  0  0  0  0  0
   10.5273  -12.3273   28.0501 C   0  0  0  0  0  0  0  0  0  0  0  0
    9.7162  -13.7492   28.7737 S   0  0  0  0  0  0  0  0  0  0  0  0
   10.1914  -15.3071   27.9264 C   0  0  0  0  0  0  0  0  0  0  0  0
    9.5859  -15.3626   26.5471 C   0  0  0  0  0  0  0  0  0  0  0  0
   10.0511  -16.5718   25.7822 C   0  0  2  0  0  0  0  0  0  0  0  0
    9.4553  -16.7345   24.4848 N   0  0  0  0  0  0  0  0  0  0  0  0
    9.7464  -17.7974   26.5364 C   0  0  0  0  0  0  0  0  0  0  0  0
   10.7489  -18.3310   27.3406 O   0  0  0  0  0  0  0  0  0  0  0  0
    8.6363  -18.3741   26.4862 O   0  0  0  0  0  0  0  0  0  0  0  0
  2  1  1  6
  2  3  1  0
  3  4  1  0
  4  5  2  0
  4  8  1  0
  6  9  1  0
  6  2  1  0
  7  6  2  0
 10 13  1  0
 10  9  1  0
 10 11  1  1
 11 12  1  0
 13 20  1  0
 14 13  2  0
 16 15  1  0
 17 16  1  0
 18 17  1  0
 19 18  1  1
 19 21  1  0
 20 19  1  0
 21 22  1  0
 23 21  2  0
M  END
$$$$
