DCM.pdb
     RDKit          3D

 23 22  0  0  1  0  0  0  0  0999 V2000
   10.7686  -13.3162   19.2203 N   0  0  0  0  0  0  0  0  0  0  0  0
    9.3792  -13.0680   19.4850 C   0  0  1  0  0  0  0  0  0  0  0  0
    8.5844  -13.1365   18.2034 C   0  0  0  0  0  0  0  0  0  0  0  0
    8.9094  -14.2973   17.3655 C   0  0  0  0  0  0  0  0  0  0  0  0
    9.7087  -15.1956   17.6654 O   0  0  0  0  0  0  0  0  0  0  0  0
    8.8328  -14.1265   20.3698 C   0  0  0  0  0  0  0  0  0  0  0  0
    7.6064  -14.0869   20.6280 O   0  0  0  0  0  0  0  0  0  0  0  0
    8.2683  -14.4016   16.1303 O   0  0  0  0  0  0  0  0  0  0  0  0
    9.6419  -15.1383   20.9040 N   0  0  0  0  0  0  0  0  0  0  0  0
    9.1471  -16.1385   21.8535 C   0  0  1  0  0  0  0  0  0  0  0  0
    9.4362  -17.5270   21.3337 C   0  0  0  0  0  0  0  0  0  0  0  0
   11.1127  -17.5775   20.6827 S   0  0  0  0  0  0  0  0  0  0  0  0
    9.9680  -15.9622   23.0895 C   0  0  0  0  0  0  0  0  0  0  0  0
   11.1546  -15.5819   22.9277 O   0  0  0  0  0  0  0  0  0  0  0  0
    9.0094  -12.6865   28.7075 C   0  0  0  0  0  0  0  0  0  0  0  0
    9.6066  -14.2768   29.2709 S   0  0  0  0  0  0  0  0  0  0  0  0
   10.4893  -15.1820   27.9396 C   0  0  0  0  0  0  0  0  0  0  0  0
    9.6215  -15.2915   26.7120 C   0  0  0  0  0  0  0  0  0  0  0  0
   10.3148  -16.0360   25.6035 C   0  0  2  0  0  0  0  0  0  0  0  0
    9.5499  -16.1740   24.3950 N   0  0  0  0  0  0  0  0  0  0  0  0
   10.6509  -17.3995   26.0410 C   0  0  0  0  0  0  0  0  0  0  0  0
   11.8555  -17.5879   26.7118 O   0  0  0  0  0  0  0  0  0  0  0  0
    9.9078  -18.3865   25.8380 O   0  0  0  0  0  0  0  0  0  0  0  0
  2  1  1  6
  2  3  1  0
  3  4  1  0
  4  5  2  0
  4  8  1  0
  6  9  1  0
  6  2  1  0
  7  6  2  0
 10 13  1  0
 10  9  1  0
 10 11  1  6
 11 12  1  0
 13 20  1  0
 14 13  2  0
 16 15  1  0
 17 16  1  0
 18 17  1  0
 19 18  1  1
 19 21  1  0
 20 19  1  0
 21 22  1  0
 23 21  2  0
M  END
$$$$
