DCM.pdb
     RDKit          3D

 23 22  0  0  1  0  0  0  0  0999 V2000
    8.6782  -15.7828   19.1529 N   0  0  0  0  0  0  0  0  0  0  0  0
    9.2913  -16.5678   20.1873 C   0  0  1  0  0  0  0  0  0  0  0  0
   10.7816  -16.6530   19.9624 C   0  0  0  0  0  0  0  0  0  0  0  0
   11.1564  -17.3730   18.7392 C   0  0  0  0  0  0  0  0  0  0  0  0
   10.6256  -18.4156   18.3307 O   0  0  0  0  0  0  0  0  0  0  0  0
    9.1069  -15.9081   21.5036 C   0  0  0  0  0  0  0  0  0  0  0  0
    9.2073  -14.6589   21.5423 O   0  0  0  0  0  0  0  0  0  0  0  0
   12.1943  -16.8436   17.9709 O   0  0  0  0  0  0  0  0  0  0  0  0
    8.8303  -16.6379   22.6675 N   0  0  0  0  0  0  0  0  0  0  0  0
    8.4451  -16.0073   23.9327 C   0  0  1  0  0  0  0  0  0  0  0  0
    7.1150  -16.5542   24.3948 C   0  0  0  0  0  0  0  0  0  0  0  0
    6.6481  -15.7505   25.9352 S   0  0  0  0  0  0  0  0  0  0  0  0
    9.4636  -16.4518   24.9316 C   0  0  0  0  0  0  0  0  0  0  0  0
   10.1747  -17.4367   24.6104 O   0  0  0  0  0  0  0  0  0  0  0  0
    8.9865  -12.8363   27.7116 C   0  0  0  0  0  0  0  0  0  0  0  0
   10.6449  -12.7040   28.3714 S   0  0  0  0  0  0  0  0  0  0  0  0
   11.5824  -14.2700   28.1731 C   0  0  0  0  0  0  0  0  0  0  0  0
   10.6835  -15.4562   28.4122 C   0  0  0  0  0  0  0  0  0  0  0  0
   10.5978  -16.3440   27.2005 C   0  0  2  0  0  0  0  0  0  0  0  0
    9.7028  -15.8846   26.1745 N   0  0  0  0  0  0  0  0  0  0  0  0
   10.1344  -17.6856   27.5864 C   0  0  0  0  0  0  0  0  0  0  0  0
   11.0138  -18.4968   28.2973 O   0  0  0  0  0  0  0  0  0  0  0  0
    8.9957  -18.1238   27.3057 O   0  0  0  0  0  0  0  0  0  0  0  0
  2  1  1  6
  2  3  1  0
  3  4  1  0
  4  5  2  0
  4  8  1  0
  6  9  1  0
  6  2  1  0
  7  6  2  0
 10 13  1  0
 10  9  1  0
 10 11  1  1
 11 12  1  0
 13 20  1  0
 14 13  2  0
 16 15  1  0
 17 16  1  0
 18 17  1  0
 19 18  1  1
 19 21  1  0
 20 19  1  0
 21 22  1  0
 23 21  2  0
M  END
$$$$
