DCM.pdb
     RDKit          3D

 23 22  0  0  1  0  0  0  0  0999 V2000
   10.4855  -17.8550   18.9059 N   0  0  0  0  0  0  0  0  0  0  0  0
   11.1068  -18.2729   20.1312 C   0  0  1  0  0  0  0  0  0  0  0  0
   12.5132  -17.7305   20.2136 C   0  0  0  0  0  0  0  0  0  0  0  0
   13.4513  -18.3714   19.2839 C   0  0  0  0  0  0  0  0  0  0  0  0
   13.2510  -19.4386   18.6868 O   0  0  0  0  0  0  0  0  0  0  0  0
   10.3748  -17.7075   21.2916 C   0  0  0  0  0  0  0  0  0  0  0  0
   10.5126  -16.4822   21.5196 O   0  0  0  0  0  0  0  0  0  0  0  0
   14.6686  -17.7300   19.0507 O   0  0  0  0  0  0  0  0  0  0  0  0
    9.5571  -18.4979   22.1103 N   0  0  0  0  0  0  0  0  0  0  0  0
    8.7144  -17.9418   23.1720 C   0  0  1  0  0  0  0  0  0  0  0  0
    7.6272  -18.9264   23.5332 C   0  0  0  0  0  0  0  0  0  0  0  0
    6.6449  -18.2541   24.8822 S   0  0  0  0  0  0  0  0  0  0  0  0
    9.6006  -17.8212   24.3691 C   0  0  0  0  0  0  0  0  0  0  0  0
   10.4466  -18.7348   24.5375 O   0  0  0  0  0  0  0  0  0  0  0  0
    9.5485  -12.7704   28.6311 C   0  0  0  0  0  0  0  0  0  0  0  0
   10.6428  -13.8763   29.5158 S   0  0  0  0  0  0  0  0  0  0  0  0
   10.8800  -15.4600   28.6178 C   0  0  0  0  0  0  0  0  0  0  0  0
   10.0932  -15.4597   27.3321 C   0  0  0  0  0  0  0  0  0  0  0  0
   10.3414  -16.7057   26.5261 C   0  0  2  0  0  0  0  0  0  0  0  0
    9.5834  -16.8015   25.3092 N   0  0  0  0  0  0  0  0  0  0  0  0
   10.0067  -17.8982   27.3195 C   0  0  0  0  0  0  0  0  0  0  0  0
   11.0398  -18.5377   27.9980 O   0  0  0  0  0  0  0  0  0  0  0  0
    8.8453  -18.3570   27.4095 O   0  0  0  0  0  0  0  0  0  0  0  0
  2  1  1  6
  2  3  1  0
  3  4  1  0
  4  5  2  0
  4  8  1  0
  6  9  1  0
  6  2  1  0
  7  6  2  0
 10 13  1  0
 10  9  1  0
 10 11  1  1
 11 12  1  0
 13 20  1  0
 14 13  2  0
 16 15  1  0
 17 16  1  0
 18 17  1  0
 19 18  1  1
 19 21  1  0
 20 19  1  0
 21 22  1  0
 23 21  2  0
M  END
$$$$
