DCM.pdb
     RDKit          3D

 23 22  0  0  1  0  0  0  0  0999 V2000
    6.5533  -14.3609   20.9302 N   0  0  0  0  0  0  0  0  0  0  0  0
    7.6200  -15.2773   21.2211 C   0  0  1  0  0  0  0  0  0  0  0  0
    8.5859  -15.3370   20.0624 C   0  0  0  0  0  0  0  0  0  0  0  0
    8.2119  -16.3096   19.0283 C   0  0  0  0  0  0  0  0  0  0  0  0
    7.0601  -16.5114   18.6180 O   0  0  0  0  0  0  0  0  0  0  0  0
    8.4002  -14.7960   22.3879 C   0  0  0  0  0  0  0  0  0  0  0  0
    9.6231  -14.5797   22.2151 O   0  0  0  0  0  0  0  0  0  0  0  0
    9.2334  -17.0708   18.4584 O   0  0  0  0  0  0  0  0  0  0  0  0
    7.8087  -14.5858   23.6408 N   0  0  0  0  0  0  0  0  0  0  0  0
    8.5794  -14.2546   24.8421 C   0  0  1  0  0  0  0  0  0  0  0  0
    7.7207  -13.4640   25.8010 C   0  0  0  0  0  0  0  0  0  0  0  0
    6.0822  -14.2034   25.8750 S   0  0  0  0  0  0  0  0  0  0  0  0
    8.8741  -15.5609   25.5052 C   0  0  0  0  0  0  0  0  0  0  0  0
    7.9079  -16.3519   25.6450 O   0  0  0  0  0  0  0  0  0  0  0  0
   12.3840  -20.3842   24.3317 C   0  0  0  0  0  0  0  0  0  0  0  0
   13.1535  -20.0926   25.9211 S   0  0  0  0  0  0  0  0  0  0  0  0
   12.0989  -19.0529   27.0064 C   0  0  0  0  0  0  0  0  0  0  0  0
   11.8460  -17.7115   26.3669 C   0  0  0  0  0  0  0  0  0  0  0  0
   10.4336  -17.2441   26.5916 C   0  0  2  0  0  0  0  0  0  0  0  0
   10.1065  -15.9865   25.9783 N   0  0  0  0  0  0  0  0  0  0  0  0
   10.1749  -17.0848   28.0308 C   0  0  0  0  0  0  0  0  0  0  0  0
    9.9455  -15.7990   28.5109 O   0  0  0  0  0  0  0  0  0  0  0  0
   10.1525  -18.0458   28.8330 O   0  0  0  0  0  0  0  0  0  0  0  0
  2  1  1  6
  2  3  1  0
  3  4  1  0
  4  5  2  0
  4  8  1  0
  6  9  1  0
  6  2  1  0
  7  6  2  0
 10 13  1  0
 10  9  1  0
 10 11  1  1
 11 12  1  0
 13 20  1  0
 14 13  2  0
 16 15  1  0
 17 16  1  0
 18 17  1  0
 19 18  1  1
 19 21  1  0
 20 19  1  0
 21 22  1  0
 23 21  2  0
M  END
$$$$
