DCM.pdb
     RDKit          3D

 23 22  0  0  1  0  0  0  0  0999 V2000
    8.9256  -15.4560   20.1868 N   0  0  0  0  0  0  0  0  0  0  0  0
    8.7673  -16.2740   21.3565 C   0  0  1  0  0  0  0  0  0  0  0  0
    9.8036  -17.3716   21.3688 C   0  0  0  0  0  0  0  0  0  0  0  0
    9.6301  -18.3628   20.2999 C   0  0  0  0  0  0  0  0  0  0  0  0
    8.8348  -18.2649   19.3546 O   0  0  0  0  0  0  0  0  0  0  0  0
    9.0036  -15.4657   22.5784 C   0  0  0  0  0  0  0  0  0  0  0  0
   10.1915  -15.3174   22.9515 O   0  0  0  0  0  0  0  0  0  0  0  0
   10.4234  -19.5099   20.3484 O   0  0  0  0  0  0  0  0  0  0  0  0
    7.9518  -14.8837   23.2984 N   0  0  0  0  0  0  0  0  0  0  0  0
    8.1642  -13.9835   24.4347 C   0  0  1  0  0  0  0  0  0  0  0  0
    6.8577  -13.3342   24.8265 C   0  0  0  0  0  0  0  0  0  0  0  0
    7.1231  -12.2964   26.2719 S   0  0  0  0  0  0  0  0  0  0  0  0
    8.5673  -14.8611   25.5749 C   0  0  0  0  0  0  0  0  0  0  0  0
    7.8745  -15.8922   25.7640 O   0  0  0  0  0  0  0  0  0  0  0  0
   14.1567  -18.4162   29.7420 C   0  0  0  0  0  0  0  0  0  0  0  0
   13.7066  -17.1665   28.5424 S   0  0  0  0  0  0  0  0  0  0  0  0
   11.9141  -16.7752   28.6084 C   0  0  0  0  0  0  0  0  0  0  0  0
   11.5454  -15.8071   27.5133 C   0  0  0  0  0  0  0  0  0  0  0  0
   10.0738  -15.4938   27.5181 C   0  0  2  0  0  0  0  0  0  0  0  0
    9.6298  -14.6519   26.4417 N   0  0  0  0  0  0  0  0  0  0  0  0
    9.7060  -14.8044   28.7643 C   0  0  0  0  0  0  0  0  0  0  0  0
    9.6587  -15.5575   29.9335 O   0  0  0  0  0  0  0  0  0  0  0  0
    9.4368  -13.5828   28.8172 O   0  0  0  0  0  0  0  0  0  0  0  0
  2  1  1  6
  2  3  1  0
  3  4  1  0
  4  5  2  0
  4  8  1  0
  6  9  1  0
  6  2  1  0
  7  6  2  0
 10 13  1  0
 10  9  1  0
 10 11  1  1
 11 12  1  0
 13 20  1  0
 14 13  2  0
 16 15  1  0
 17 16  1  0
 18 17  1  0
 19 18  1  1
 19 21  1  0
 20 19  1  0
 21 22  1  0
 23 21  2  0
M  END
$$$$
