DCM.pdb
     RDKit          3D

 23 22  0  0  1  0  0  0  0  0999 V2000
    9.6402  -19.1690   17.9279 N   0  0  0  0  0  0  0  0  0  0  0  0
    9.4175  -17.7738   18.1851 C   0  0  1  0  0  0  0  0  0  0  0  0
    8.7819  -17.1176   16.9833 C   0  0  0  0  0  0  0  0  0  0  0  0
    9.7097  -16.8996   15.8668 C   0  0  0  0  0  0  0  0  0  0  0  0
   10.8997  -17.2452   15.8466 O   0  0  0  0  0  0  0  0  0  0  0  0
    8.4573  -17.6097   19.3044 C   0  0  0  0  0  0  0  0  0  0  0  0
    7.2498  -17.4443   19.0096 O   0  0  0  0  0  0  0  0  0  0  0  0
    9.2157  -16.2511   14.7340 O   0  0  0  0  0  0  0  0  0  0  0  0
    8.8673  -17.6365   20.6442 N   0  0  0  0  0  0  0  0  0  0  0  0
    7.9262  -17.6770   21.7664 C   0  0  1  0  0  0  0  0  0  0  0  0
    8.0444  -18.9988   22.4880 C   0  0  0  0  0  0  0  0  0  0  0  0
    7.0649  -18.9390   23.9959 S   0  0  0  0  0  0  0  0  0  0  0  0
    8.3893  -16.6236   22.7196 C   0  0  0  0  0  0  0  0  0  0  0  0
    9.6230  -16.5799   22.9544 O   0  0  0  0  0  0  0  0  0  0  0  0
    6.5146  -10.6902   27.7758 C   0  0  0  0  0  0  0  0  0  0  0  0
    5.9520  -11.9349   26.6193 S   0  0  0  0  0  0  0  0  0  0  0  0
    7.3381  -12.9741   26.0114 C   0  0  0  0  0  0  0  0  0  0  0  0
    6.8536  -13.9325   24.9536 C   0  0  0  0  0  0  0  0  0  0  0  0
    7.9809  -14.7491   24.3826 C   0  0  2  0  0  0  0  0  0  0  0  0
    7.5943  -15.6897   23.3675 N   0  0  0  0  0  0  0  0  0  0  0  0
    8.6316  -15.5292   25.4463 C   0  0  0  0  0  0  0  0  0  0  0  0
    9.8509  -15.0700   25.9351 O   0  0  0  0  0  0  0  0  0  0  0  0
    8.1408  -16.5767   25.9252 O   0  0  0  0  0  0  0  0  0  0  0  0
  2  1  1  6
  2  3  1  0
  3  4  1  0
  4  5  2  0
  4  8  1  0
  6  9  1  0
  6  2  1  0
  7  6  2  0
 10 13  1  0
 10  9  1  0
 10 11  1  1
 11 12  1  0
 13 20  1  0
 14 13  2  0
 16 15  1  0
 17 16  1  0
 18 17  1  0
 19 18  1  1
 19 21  1  0
 20 19  1  0
 21 22  1  0
 23 21  2  0
M  END
$$$$
