DCM.pdb
     RDKit          3D

 23 22  0  0  1  0  0  0  0  0999 V2000
    6.3017  -20.3971   21.4604 N   0  0  0  0  0  0  0  0  0  0  0  0
    6.7492  -19.6515   22.6032 C   0  0  1  0  0  0  0  0  0  0  0  0
    7.5108  -20.5511   23.5464 C   0  0  0  0  0  0  0  0  0  0  0  0
    6.7691  -21.7525   23.9484 C   0  0  0  0  0  0  0  0  0  0  0  0
    6.9634  -22.8947   23.5085 O   0  0  0  0  0  0  0  0  0  0  0  0
    7.6996  -18.5934   22.1800 C   0  0  0  0  0  0  0  0  0  0  0  0
    8.8359  -18.9584   21.7953 O   0  0  0  0  0  0  0  0  0  0  0  0
    5.7628  -21.6005   24.9033 O   0  0  0  0  0  0  0  0  0  0  0  0
    7.3565  -17.2350   22.2028 N   0  0  0  0  0  0  0  0  0  0  0  0
    8.2708  -16.1732   21.7746 C   0  0  1  0  0  0  0  0  0  0  0  0
    7.6166  -15.3337   20.7027 C   0  0  0  0  0  0  0  0  0  0  0  0
    5.9832  -14.8281   21.2623 S   0  0  0  0  0  0  0  0  0  0  0  0
    8.4478  -15.2885   22.9657 C   0  0  0  0  0  0  0  0  0  0  0  0
    7.7069  -14.2757   23.0297 O   0  0  0  0  0  0  0  0  0  0  0  0
    6.6005  -11.1557   25.7577 C   0  0  0  0  0  0  0  0  0  0  0  0
    6.8296  -12.1887   27.2012 S   0  0  0  0  0  0  0  0  0  0  0  0
    8.1982  -13.3900   26.9671 C   0  0  0  0  0  0  0  0  0  0  0  0
    8.1338  -14.0005   25.5904 C   0  0  0  0  0  0  0  0  0  0  0  0
    9.3271  -14.8731   25.3109 C   0  0  2  0  0  0  0  0  0  0  0  0
    9.3453  -15.4756   24.0066 N   0  0  0  0  0  0  0  0  0  0  0  0
    9.3859  -15.9779   26.2803 C   0  0  0  0  0  0  0  0  0  0  0  0
    9.8778  -15.7004   27.5521 O   0  0  0  0  0  0  0  0  0  0  0  0
    9.0162  -17.1438   26.0129 O   0  0  0  0  0  0  0  0  0  0  0  0
  2  1  1  6
  2  3  1  0
  3  4  1  0
  4  5  2  0
  4  8  1  0
  6  9  1  0
  6  2  1  0
  7  6  2  0
 10 13  1  0
 10  9  1  0
 10 11  1  6
 11 12  1  0
 13 20  1  0
 14 13  2  0
 16 15  1  0
 17 16  1  0
 18 17  1  0
 19 18  1  1
 19 21  1  0
 20 19  1  0
 21 22  1  0
 23 21  2  0
M  END
$$$$
