IIL.pdb
     RDKit          3D

 25 24  0  0  1  0  0  0  0  0999 V2000
    6.1592  -20.9064   26.9976 C   0  0  0  0  0  0  0  0  0  0  0  0
    5.9111  -20.6988   25.5154 C   0  0  0  0  0  0  0  0  0  0  0  0
    6.8234  -19.6199   25.0378 C   0  0  2  0  0  0  0  0  0  0  0  0
    6.5519  -18.3799   25.8726 C   0  0  0  0  0  0  0  0  0  0  0  0
    6.6691  -19.2430   23.6044 C   0  0  2  0  0  0  0  0  0  0  0  0
    6.7111  -20.4351   22.7919 N   0  0  0  0  0  0  0  0  0  0  0  0
    7.6351  -18.2392   23.1195 C   0  0  0  0  0  0  0  0  0  0  0  0
    8.8077  -18.5455   22.8097 O   0  0  0  0  0  0  0  0  0  0  0  0
    6.1517  -14.0719   19.7454 C   0  0  0  0  0  0  0  0  0  0  0  0
    6.9722  -15.1016   20.4773 C   0  0  0  0  0  0  0  0  0  0  0  0
    7.4175  -14.7586   21.8360 C   0  0  2  0  0  0  0  0  0  0  0  0
    8.2549  -13.4703   21.7483 C   0  0  0  0  0  0  0  0  0  0  0  0
    8.0793  -15.7880   22.6691 C   0  0  2  0  0  0  0  0  0  0  0  0
    7.2237  -16.8865   23.0011 N   0  0  0  0  0  0  0  0  0  0  0  0
    8.7941  -15.2258   23.8446 C   0  0  0  0  0  0  0  0  0  0  0  0
    9.9191  -14.6608   23.7645 O   0  0  0  0  0  0  0  0  0  0  0  0
    7.3096  -12.2665   25.4098 C   0  0  0  0  0  0  0  0  0  0  0  0
    7.5950  -12.5373   26.8620 C   0  0  1  0  0  0  0  0  0  0  0  0
    6.4935  -11.9962   27.7583 C   0  0  0  0  0  0  0  0  0  0  0  0
    8.0109  -13.9072   27.2044 C   0  0  0  0  0  0  0  0  0  0  0  0
    8.9012  -14.6590   26.2972 C   0  0  2  0  0  0  0  0  0  0  0  0
    8.2563  -15.2838   25.1616 N   0  0  0  0  0  0  0  0  0  0  0  0
    9.7073  -15.7127   26.9659 C   0  0  0  0  0  0  0  0  0  0  0  0
    9.5767  -16.9318   26.6895 O   0  0  0  0  0  0  0  0  0  0  0  0
   10.6544  -15.4247   27.9361 O   0  0  0  0  0  0  0  0  0  0  0  0
  2  1  1  0
  3  5  1  0
  3  2  1  0
  3  4  1  1
  5  6  1  6
  7  5  1  0
  7  8  2  0
 10  9  1  0
 11 10  1  0
 11 13  1  0
 11 12  1  6
 13 14  1  1
 14  7  1  0
 15 13  1  0
 16 15  2  0
 18 17  1  6
 18 20  1  0
 19 18  1  0
 21 20  1  1
 21 22  1  0
 21 23  1  0
 22 15  1  0
 23 25  1  0
 24 23  2  0
M  END
$$$$
