IIL.pdb
     RDKit          3D

 25 24  0  0  1  0  0  0  0  0999 V2000
    7.9086  -12.0494   18.7620 C   0  0  0  0  0  0  0  0  0  0  0  0
    8.1989  -13.5384   18.7530 C   0  0  0  0  0  0  0  0  0  0  0  0
    7.5463  -14.1466   19.9483 C   0  0  2  0  0  0  0  0  0  0  0  0
    8.0919  -13.4463   21.1811 C   0  0  0  0  0  0  0  0  0  0  0  0
    7.7715  -15.6094   20.1220 C   0  0  2  0  0  0  0  0  0  0  0  0
    7.2332  -16.3122   18.9821 N   0  0  0  0  0  0  0  0  0  0  0  0
    7.2516  -16.1716   21.3828 C   0  0  0  0  0  0  0  0  0  0  0  0
    6.0249  -16.2894   21.5981 O   0  0  0  0  0  0  0  0  0  0  0  0
    7.3971  -20.8387   23.2427 C   0  0  0  0  0  0  0  0  0  0  0  0
    7.1807  -19.3622   23.0362 C   0  0  0  0  0  0  0  0  0  0  0  0
    7.9068  -18.4489   23.9310 C   0  0  2  0  0  0  0  0  0  0  0  0
    7.5580  -18.8303   25.3808 C   0  0  0  0  0  0  0  0  0  0  0  0
    7.8180  -16.9875   23.7112 C   0  0  2  0  0  0  0  0  0  0  0  0
    8.1682  -16.5908   22.3813 N   0  0  0  0  0  0  0  0  0  0  0  0
    8.5047  -16.1901   24.7607 C   0  0  0  0  0  0  0  0  0  0  0  0
    9.7582  -16.0635   24.8234 O   0  0  0  0  0  0  0  0  0  0  0  0
    6.1147  -11.5922   27.0536 C   0  0  0  0  0  0  0  0  0  0  0  0
    7.1360  -12.5247   26.4612 C   0  0  1  0  0  0  0  0  0  0  0  0
    8.2328  -11.7639   25.7349 C   0  0  0  0  0  0  0  0  0  0  0  0
    7.6441  -13.5873   27.3443 C   0  0  0  0  0  0  0  0  0  0  0  0
    8.4495  -14.6919   26.7856 C   0  0  2  0  0  0  0  0  0  0  0  0
    7.7911  -15.5031   25.7834 N   0  0  0  0  0  0  0  0  0  0  0  0
    8.9951  -15.6266   27.8033 C   0  0  0  0  0  0  0  0  0  0  0  0
    9.8978  -15.2862   28.6089 O   0  0  0  0  0  0  0  0  0  0  0  0
    8.5479  -16.9320   27.9337 O   0  0  0  0  0  0  0  0  0  0  0  0
  2  1  1  0
  3  5  1  0
  3  2  1  0
  3  4  1  1
  5  6  1  6
  7  5  1  0
  7  8  2  0
 10  9  1  0
 11 10  1  0
 11 13  1  0
 11 12  1  1
 13 14  1  6
 14  7  1  0
 15 13  1  0
 16 15  2  0
 18 17  1  1
 18 20  1  0
 19 18  1  0
 21 20  1  1
 21 22  1  0
 21 23  1  0
 22 15  1  0
 23 25  1  0
 24 23  2  0
M  END
$$$$
