IIL.pdb
     RDKit          3D

 25 24  0  0  1  0  0  0  0  0999 V2000
   13.5105  -20.3264   22.0801 C   0  0  0  0  0  0  0  0  0  0  0  0
   13.1372  -19.4752   20.8811 C   0  0  0  0  0  0  0  0  0  0  0  0
   12.5557  -18.1962   21.3817 C   0  0  2  0  0  0  0  0  0  0  0  0
   11.4576  -18.5426   22.3726 C   0  0  0  0  0  0  0  0  0  0  0  0
   11.9615  -17.3146   20.3375 C   0  0  2  0  0  0  0  0  0  0  0  0
   12.9727  -16.9837   19.3624 N   0  0  0  0  0  0  0  0  0  0  0  0
   11.3064  -16.0975   20.8528 C   0  0  0  0  0  0  0  0  0  0  0  0
   11.9600  -15.1579   21.3576 O   0  0  0  0  0  0  0  0  0  0  0  0
    7.1650  -13.5772   18.2175 C   0  0  0  0  0  0  0  0  0  0  0  0
    8.3273  -13.8914   19.1227 C   0  0  0  0  0  0  0  0  0  0  0  0
    8.0138  -14.4815   20.4324 C   0  0  2  0  0  0  0  0  0  0  0  0
    7.0387  -13.5358   21.1562 C   0  0  0  0  0  0  0  0  0  0  0  0
    9.1160  -14.9175   21.3195 C   0  0  2  0  0  0  0  0  0  0  0  0
    9.8939  -15.9883   20.7746 N   0  0  0  0  0  0  0  0  0  0  0  0
    8.6846  -15.1605   22.7209 C   0  0  0  0  0  0  0  0  0  0  0  0
    8.6111  -16.3115   23.2319 O   0  0  0  0  0  0  0  0  0  0  0  0
    8.0343  -13.1507   28.1928 C   0  0  0  0  0  0  0  0  0  0  0  0
    7.0025  -13.2674   27.1040 C   0  0  1  0  0  0  0  0  0  0  0  0
    5.7785  -12.4168   27.4005 C   0  0  0  0  0  0  0  0  0  0  0  0
    7.4898  -13.1335   25.7215 C   0  0  0  0  0  0  0  0  0  0  0  0
    7.9614  -14.3232   24.9844 C   0  0  2  0  0  0  0  0  0  0  0  0
    8.3189  -14.1013   23.5992 N   0  0  0  0  0  0  0  0  0  0  0  0
    7.0170  -15.4698   25.0053 C   0  0  0  0  0  0  0  0  0  0  0  0
    5.9992  -15.5121   24.2691 O   0  0  0  0  0  0  0  0  0  0  0  0
    7.1927  -16.5664   25.8346 O   0  0  0  0  0  0  0  0  0  0  0  0
  2  1  1  0
  3  5  1  0
  3  2  1  0
  3  4  1  1
  5  6  1  6
  7  5  1  0
  7  8  2  0
 10  9  1  0
 11 10  1  0
 11 13  1  0
 11 12  1  1
 13 14  1  6
 14  7  1  0
 15 13  1  0
 16 15  2  0
 18 17  1  1
 18 20  1  0
 19 18  1  0
 21 20  1  6
 21 22  1  0
 21 23  1  0
 22 15  1  0
 23 25  1  0
 24 23  2  0
M  END
$$$$
