IIL.pdb
     RDKit          3D

 25 24  0  0  1  0  0  0  0  0999 V2000
    6.4895  -18.0664   19.1304 C   0  0  0  0  0  0  0  0  0  0  0  0
    6.5924  -16.5686   19.3482 C   0  0  0  0  0  0  0  0  0  0  0  0
    7.2994  -16.3341   20.6404 C   0  0  2  0  0  0  0  0  0  0  0  0
    6.5581  -17.1032   21.7207 C   0  0  0  0  0  0  0  0  0  0  0  0
    7.3806  -14.9105   21.0732 C   0  0  2  0  0  0  0  0  0  0  0  0
    7.9660  -14.1239   20.0141 N   0  0  0  0  0  0  0  0  0  0  0  0
    8.0884  -14.6892   22.3484 C   0  0  0  0  0  0  0  0  0  0  0  0
    9.3341  -14.5903   22.4047 O   0  0  0  0  0  0  0  0  0  0  0  0
    5.8661  -11.3709   26.0735 C   0  0  0  0  0  0  0  0  0  0  0  0
    6.8076  -12.1964   25.2359 C   0  0  0  0  0  0  0  0  0  0  0  0
    7.1442  -13.5379   25.7346 C   0  0  2  0  0  0  0  0  0  0  0  0
    7.8215  -13.3763   27.1072 C   0  0  0  0  0  0  0  0  0  0  0  0
    7.8872  -14.4758   24.8628 C   0  0  2  0  0  0  0  0  0  0  0  0
    7.3356  -14.5860   23.5466 N   0  0  0  0  0  0  0  0  0  0  0  0
    8.1494  -15.7924   25.5005 C   0  0  0  0  0  0  0  0  0  0  0  0
    7.2848  -16.7076   25.5778 O   0  0  0  0  0  0  0  0  0  0  0  0
   12.5609  -18.7570   23.8296 C   0  0  0  0  0  0  0  0  0  0  0  0
   11.0563  -18.7545   23.8256 C   0  0  1  0  0  0  0  0  0  0  0  0
   10.4936  -20.0172   24.4568 C   0  0  0  0  0  0  0  0  0  0  0  0
   10.4012  -17.5220   24.2932 C   0  0  0  0  0  0  0  0  0  0  0  0
   10.1354  -17.3253   25.7325 C   0  0  2  0  0  0  0  0  0  0  0  0
    9.4090  -16.1214   26.0770 N   0  0  0  0  0  0  0  0  0  0  0  0
   11.3496  -17.3533   26.5881 C   0  0  0  0  0  0  0  0  0  0  0  0
   12.0676  -16.3369   26.7645 O   0  0  0  0  0  0  0  0  0  0  0  0
   11.7720  -18.4970   27.2474 O   0  0  0  0  0  0  0  0  0  0  0  0
  2  1  1  0
  3  5  1  0
  3  2  1  0
  3  4  1  1
  5  6  1  6
  7  5  1  0
  7  8  2  0
 10  9  1  0
 11 10  1  0
 11 13  1  0
 11 12  1  1
 13 14  1  6
 14  7  1  0
 15 13  1  0
 16 15  2  0
 18 17  1  1
 18 20  1  0
 19 18  1  0
 21 20  1  6
 21 22  1  0
 21 23  1  0
 22 15  1  0
 23 25  1  0
 24 23  2  0
M  END
$$$$
