IIL.pdb
     RDKit          3D

 25 24  0  0  1  0  0  0  0  0999 V2000
    6.0102  -22.0528   25.3268 C   0  0  0  0  0  0  0  0  0  0  0  0
    5.1733  -20.8090   25.0940 C   0  0  0  0  0  0  0  0  0  0  0  0
    6.0819  -19.7143   24.6462 C   0  0  2  0  0  0  0  0  0  0  0  0
    7.1522  -19.5361   25.7095 C   0  0  0  0  0  0  0  0  0  0  0  0
    5.4296  -18.3913   24.4345 C   0  0  2  0  0  0  0  0  0  0  0  0
    4.4166  -18.5181   23.4143 N   0  0  0  0  0  0  0  0  0  0  0  0
    6.3556  -17.2856   24.1248 C   0  0  0  0  0  0  0  0  0  0  0  0
    6.7611  -17.0689   22.9614 O   0  0  0  0  0  0  0  0  0  0  0  0
    5.9213  -12.5637   26.9056 C   0  0  0  0  0  0  0  0  0  0  0  0
    6.3215  -13.4590   25.7621 C   0  0  0  0  0  0  0  0  0  0  0  0
    7.5467  -14.2538   25.9329 C   0  0  2  0  0  0  0  0  0  0  0  0
    8.7420  -13.2842   25.9428 C   0  0  0  0  0  0  0  0  0  0  0  0
    7.7910  -15.4174   25.0508 C   0  0  2  0  0  0  0  0  0  0  0  0
    6.8004  -16.4430   25.1760 N   0  0  0  0  0  0  0  0  0  0  0  0
    9.1824  -15.9341   25.1273 C   0  0  0  0  0  0  0  0  0  0  0  0
    9.6161  -16.6109   26.0995 O   0  0  0  0  0  0  0  0  0  0  0  0
   12.7752  -18.8434   21.9708 C   0  0  0  0  0  0  0  0  0  0  0  0
   13.0193  -17.3760   22.1962 C   0  0  1  0  0  0  0  0  0  0  0  0
   13.8934  -16.7807   21.1048 C   0  0  0  0  0  0  0  0  0  0  0  0
   11.8391  -16.5562   22.5158 C   0  0  0  0  0  0  0  0  0  0  0  0
   11.2805  -16.5643   23.8828 C   0  0  2  0  0  0  0  0  0  0  0  0
   10.1385  -15.7010   24.0984 N   0  0  0  0  0  0  0  0  0  0  0  0
   12.2659  -16.2461   24.9481 C   0  0  0  0  0  0  0  0  0  0  0  0
   12.5477  -15.0637   25.2677 O   0  0  0  0  0  0  0  0  0  0  0  0
   12.9390  -17.2271   25.6594 O   0  0  0  0  0  0  0  0  0  0  0  0
  2  1  1  0
  3  5  1  0
  3  2  1  0
  3  4  1  1
  5  6  1  6
  7  5  1  0
  7  8  2  0
 10  9  1  0
 11 10  1  0
 11 13  1  0
 11 12  1  6
 13 14  1  1
 14  7  1  0
 15 13  1  0
 16 15  2  0
 18 17  1  6
 18 20  1  0
 19 18  1  0
 21 20  1  6
 21 22  1  0
 21 23  1  0
 22 15  1  0
 23 25  1  0
 24 23  2  0
M  END
$$$$
