IIL.pdb
     RDKit          3D

 25 24  0  0  1  0  0  0  0  0999 V2000
   10.1735  -18.4357   18.3881 C   0  0  0  0  0  0  0  0  0  0  0  0
    9.0602  -18.3744   19.4169 C   0  0  0  0  0  0  0  0  0  0  0  0
    9.5570  -17.6057   20.5945 C   0  0  2  0  0  0  0  0  0  0  0  0
    9.2898  -18.4376   21.8373 C   0  0  0  0  0  0  0  0  0  0  0  0
    8.9244  -16.2719   20.7980 C   0  0  2  0  0  0  0  0  0  0  0  0
    9.1964  -15.4368   19.6528 N   0  0  0  0  0  0  0  0  0  0  0  0
    9.3027  -15.5906   22.0503 C   0  0  0  0  0  0  0  0  0  0  0  0
   10.3583  -14.9266   22.1491 O   0  0  0  0  0  0  0  0  0  0  0  0
    5.6496  -12.6554   24.6645 C   0  0  0  0  0  0  0  0  0  0  0  0
    6.9446  -13.2505   24.1764 C   0  0  0  0  0  0  0  0  0  0  0  0
    7.5241  -14.3384   24.9779 C   0  0  2  0  0  0  0  0  0  0  0  0
    7.7873  -13.7947   26.3935 C   0  0  0  0  0  0  0  0  0  0  0  0
    8.6859  -15.0920   24.4543 C   0  0  2  0  0  0  0  0  0  0  0  0
    8.4457  -15.6907   23.1766 N   0  0  0  0  0  0  0  0  0  0  0  0
    9.2715  -16.0350   25.4426 C   0  0  0  0  0  0  0  0  0  0  0  0
    9.2176  -17.2891   25.3177 O   0  0  0  0  0  0  0  0  0  0  0  0
   11.5066  -13.7178   29.9308 C   0  0  0  0  0  0  0  0  0  0  0  0
   10.9474  -15.0404   29.4816 C   0  0  1  0  0  0  0  0  0  0  0  0
    9.4448  -14.9679   29.2667 C   0  0  0  0  0  0  0  0  0  0  0  0
   11.6648  -15.7190   28.3899 C   0  0  0  0  0  0  0  0  0  0  0  0
   10.9097  -16.4033   27.3210 C   0  0  2  0  0  0  0  0  0  0  0  0
    9.9437  -15.5880   26.6154 N   0  0  0  0  0  0  0  0  0  0  0  0
   10.1948  -17.6277   27.7649 C   0  0  0  0  0  0  0  0  0  0  0  0
   10.8021  -18.6288   28.2217 O   0  0  0  0  0  0  0  0  0  0  0  0
    8.8154  -17.7493   27.7059 O   0  0  0  0  0  0  0  0  0  0  0  0
  2  1  1  0
  3  5  1  0
  3  2  1  0
  3  4  1  1
  5  6  1  6
  7  5  1  0
  7  8  2  0
 10  9  1  0
 11 10  1  0
 11 13  1  0
 11 12  1  1
 13 14  1  6
 14  7  1  0
 15 13  1  0
 16 15  2  0
 18 17  1  6
 18 20  1  0
 19 18  1  0
 21 20  1  1
 21 22  1  0
 21 23  1  0
 22 15  1  0
 23 25  1  0
 24 23  2  0
M  END
$$$$
