IIL.pdb
     RDKit          3D

 25 24  0  0  1  0  0  0  0  0999 V2000
    6.7251  -20.3814   28.9565 C   0  0  0  0  0  0  0  0  0  0  0  0
    6.1110  -20.3161   27.5708 C   0  0  0  0  0  0  0  0  0  0  0  0
    6.9897  -19.4704   26.7122 C   0  0  2  0  0  0  0  0  0  0  0  0
    7.1645  -18.1301   27.4057 C   0  0  0  0  0  0  0  0  0  0  0  0
    6.4747  -19.2056   25.3391 C   0  0  2  0  0  0  0  0  0  0  0  0
    6.1051  -20.4560   24.7203 N   0  0  0  0  0  0  0  0  0  0  0  0
    7.3873  -18.4367   24.4720 C   0  0  0  0  0  0  0  0  0  0  0  0
    8.3332  -18.9806   23.8602 O   0  0  0  0  0  0  0  0  0  0  0  0
    5.7270  -14.6020   20.9493 C   0  0  0  0  0  0  0  0  0  0  0  0
    6.4877  -15.6442   21.7268 C   0  0  0  0  0  0  0  0  0  0  0  0
    7.3838  -15.1638   22.7888 C   0  0  2  0  0  0  0  0  0  0  0  0
    8.3662  -14.1594   22.1606 C   0  0  0  0  0  0  0  0  0  0  0  0
    8.0785  -16.1422   23.6560 C   0  0  2  0  0  0  0  0  0  0  0  0
    7.1878  -17.0394   24.3271 N   0  0  0  0  0  0  0  0  0  0  0  0
    9.0782  -15.5210   24.5634 C   0  0  0  0  0  0  0  0  0  0  0  0
    8.8845  -14.4265   25.1600 O   0  0  0  0  0  0  0  0  0  0  0  0
    9.6070  -14.7369   29.2608 C   0  0  0  0  0  0  0  0  0  0  0  0
    9.8153  -14.7352   27.7708 C   0  0  1  0  0  0  0  0  0  0  0  0
   10.0589  -13.3314   27.2421 C   0  0  0  0  0  0  0  0  0  0  0  0
   10.7563  -15.7345   27.2389 C   0  0  0  0  0  0  0  0  0  0  0  0
   11.2426  -15.6270   25.8487 C   0  0  2  0  0  0  0  0  0  0  0  0
   10.3415  -16.1215   24.8293 N   0  0  0  0  0  0  0  0  0  0  0  0
   12.5581  -16.2746   25.6091 C   0  0  0  0  0  0  0  0  0  0  0  0
   12.6639  -17.3712   25.0041 O   0  0  0  0  0  0  0  0  0  0  0  0
   13.7533  -15.7164   26.0345 O   0  0  0  0  0  0  0  0  0  0  0  0
  2  1  1  0
  3  5  1  0
  3  2  1  0
  3  4  1  1
  5  6  1  6
  7  5  1  0
  7  8  2  0
 10  9  1  0
 11 10  1  0
 11 13  1  0
 11 12  1  6
 13 14  1  1
 14  7  1  0
 15 13  1  0
 16 15  2  0
 18 17  1  1
 18 20  1  0
 19 18  1  0
 21 20  1  1
 21 22  1  0
 21 23  1  0
 22 15  1  0
 23 25  1  0
 24 23  2  0
M  END
$$$$
