IIL.pdb
     RDKit          3D

 25 24  0  0  1  0  0  0  0  0999 V2000
    6.4427  -21.6828   24.8269 C   0  0  0  0  0  0  0  0  0  0  0  0
    5.7017  -20.5179   24.1980 C   0  0  0  0  0  0  0  0  0  0  0  0
    6.5950  -19.3242   24.2345 C   0  0  2  0  0  0  0  0  0  0  0  0
    6.9703  -19.0701   25.6845 C   0  0  0  0  0  0  0  0  0  0  0  0
    6.0029  -18.0682   23.6935 C   0  0  2  0  0  0  0  0  0  0  0  0
    5.4504  -18.3277   22.3856 N   0  0  0  0  0  0  0  0  0  0  0  0
    6.9208  -16.9141   23.6596 C   0  0  0  0  0  0  0  0  0  0  0  0
    7.7259  -16.7369   22.7187 O   0  0  0  0  0  0  0  0  0  0  0  0
    5.0315  -12.2579   26.1351 C   0  0  0  0  0  0  0  0  0  0  0  0
    5.7045  -13.2300   25.2016 C   0  0  0  0  0  0  0  0  0  0  0  0
    7.0428  -13.7050   25.5827 C   0  0  2  0  0  0  0  0  0  0  0  0
    7.9609  -12.4767   25.7148 C   0  0  0  0  0  0  0  0  0  0  0  0
    7.6831  -14.7875   24.8018 C   0  0  2  0  0  0  0  0  0  0  0  0
    6.8911  -15.9772   24.7247 N   0  0  0  0  0  0  0  0  0  0  0  0
    9.0923  -15.0462   25.1970 C   0  0  0  0  0  0  0  0  0  0  0  0
   10.0039  -14.1781   25.1150 O   0  0  0  0  0  0  0  0  0  0  0  0
    9.5956  -14.1188   29.8432 C   0  0  0  0  0  0  0  0  0  0  0  0
    9.9428  -14.5051   28.4312 C   0  0  1  0  0  0  0  0  0  0  0  0
   11.2037  -13.8038   27.9539 C   0  0  0  0  0  0  0  0  0  0  0  0
    9.9171  -15.9435   28.1196 C   0  0  0  0  0  0  0  0  0  0  0  0
   10.4307  -16.4293   26.8229 C   0  0  2  0  0  0  0  0  0  0  0  0
    9.5219  -16.3058   25.7028 N   0  0  0  0  0  0  0  0  0  0  0  0
   10.9009  -17.8384   26.8405 C   0  0  0  0  0  0  0  0  0  0  0  0
   11.7408  -18.2533   27.6784 O   0  0  0  0  0  0  0  0  0  0  0  0
   10.4476  -18.7878   25.9381 O   0  0  0  0  0  0  0  0  0  0  0  0
  2  1  1  0
  3  5  1  0
  3  2  1  0
  3  4  1  1
  5  6  1  6
  7  5  1  0
  7  8  2  0
 10  9  1  0
 11 10  1  0
 11 13  1  0
 11 12  1  6
 13 14  1  1
 14  7  1  0
 15 13  1  0
 16 15  2  0
 18 17  1  1
 18 20  1  0
 19 18  1  0
 21 20  1  1
 21 22  1  0
 21 23  1  0
 22 15  1  0
 23 25  1  0
 24 23  2  0
M  END
$$$$
