IIL.pdb
     RDKit          3D

 25 24  0  0  1  0  0  0  0  0999 V2000
   12.0608  -21.5781   21.0221 C   0  0  0  0  0  0  0  0  0  0  0  0
   11.5238  -20.4409   20.1737 C   0  0  0  0  0  0  0  0  0  0  0  0
   11.4071  -19.2309   21.0378 C   0  0  2  0  0  0  0  0  0  0  0  0
   10.5556  -19.6006   22.2405 C   0  0  0  0  0  0  0  0  0  0  0  0
   10.7833  -18.0428   20.3898 C   0  0  2  0  0  0  0  0  0  0  0  0
   11.5442  -17.6868   19.2162 N   0  0  0  0  0  0  0  0  0  0  0  0
   10.6021  -16.8771   21.2753 C   0  0  0  0  0  0  0  0  0  0  0  0
   11.5645  -16.1627   21.6335 O   0  0  0  0  0  0  0  0  0  0  0  0
    6.8792  -13.1015   20.4632 C   0  0  0  0  0  0  0  0  0  0  0  0
    8.0817  -13.8450   20.9833 C   0  0  0  0  0  0  0  0  0  0  0  0
    7.9043  -14.6210   22.2195 C   0  0  2  0  0  0  0  0  0  0  0  0
    7.4654  -13.6491   23.3293 C   0  0  0  0  0  0  0  0  0  0  0  0
    8.9851  -15.5239   22.6762 C   0  0  2  0  0  0  0  0  0  0  0  0
    9.2989  -16.5558   21.7351 N   0  0  0  0  0  0  0  0  0  0  0  0
    8.7846  -16.0324   24.0583 C   0  0  0  0  0  0  0  0  0  0  0  0
    7.8733  -16.8470   24.3699 O   0  0  0  0  0  0  0  0  0  0  0  0
    9.4427  -12.8319   28.4156 C   0  0  0  0  0  0  0  0  0  0  0  0
    9.9638  -13.8963   27.4887 C   0  0  1  0  0  0  0  0  0  0  0  0
   11.4810  -13.9755   27.5255 C   0  0  0  0  0  0  0  0  0  0  0  0
    9.3052  -15.2107   27.5632 C   0  0  0  0  0  0  0  0  0  0  0  0
    9.4842  -16.1912   26.4735 C   0  0  2  0  0  0  0  0  0  0  0  0
    9.6151  -15.6337   25.1438 N   0  0  0  0  0  0  0  0  0  0  0  0
    8.4214  -17.2267   26.4017 C   0  0  0  0  0  0  0  0  0  0  0  0
    7.4336  -17.1197   25.6321 O   0  0  0  0  0  0  0  0  0  0  0  0
    8.4462  -18.3766   27.1752 O   0  0  0  0  0  0  0  0  0  0  0  0
  2  1  1  0
  3  5  1  0
  3  2  1  0
  3  4  1  1
  5  6  1  6
  7  5  1  0
  7  8  2  0
 10  9  1  0
 11 10  1  0
 11 13  1  0
 11 12  1  1
 13 14  1  6
 14  7  1  0
 15 13  1  0
 16 15  2  0
 18 17  1  1
 18 20  1  0
 19 18  1  0
 21 20  1  1
 21 22  1  0
 21 23  1  0
 22 15  1  0
 23 25  1  0
 24 23  2  0
M  END
$$$$
