LLV.pdb
     RDKit          3D

 24 23  0  0  1  0  0  0  0  0999 V2000
   23.5055  -19.1815  -12.4624 C   0  0  0  0  0  0  0  0  0  0  0  0
   23.5635  -20.0646  -11.2312 C   0  0  1  0  0  0  0  0  0  0  0  0
   22.1436  -20.2245  -10.7318 C   0  0  0  0  0  0  0  0  0  0  0  0
   24.1707  -21.3772  -11.6194 C   0  0  0  0  0  0  0  0  0  0  0  0
   25.6571  -21.2717  -11.8838 C   0  0  2  0  0  0  0  0  0  0  0  0
   25.9865  -22.2752  -12.8789 N   0  0  0  0  0  0  0  0  0  0  0  0
   26.4650  -21.5093  -10.6853 C   0  0  0  0  0  0  0  0  0  0  0  0
   26.2254  -22.4975   -9.9101 O   0  0  0  0  0  0  0  0  0  0  0  0
   30.3623  -23.1482   -9.7558 C   0  0  0  0  0  0  0  0  0  0  0  0
   30.4274  -21.7796  -10.4763 C   0  0  2  0  0  0  0  0  0  0  0  0
   31.8292  -21.6062  -10.9297 C   0  0  0  0  0  0  0  0  0  0  0  0
   29.8605  -20.7164   -9.5904 C   0  0  0  0  0  0  0  0  0  0  0  0
   28.4399  -20.9154   -9.2016 C   0  0  2  0  0  0  0  0  0  0  0  0
   27.5572  -20.6882  -10.2850 N   0  0  0  0  0  0  0  0  0  0  0  0
   28.0715  -20.1530   -7.9758 C   0  0  0  0  0  0  0  0  0  0  0  0
   27.6361  -18.9906   -8.1443 O   0  0  0  0  0  0  0  0  0  0  0  0
   27.8715  -19.7622   -2.9799 C   0  0  0  0  0  0  0  0  0  0  0  0
   28.0230  -20.6155   -4.2206 C   0  0  1  0  0  0  0  0  0  0  0  0
   26.8803  -21.6063   -4.2312 C   0  0  0  0  0  0  0  0  0  0  0  0
   27.9481  -19.8040   -5.4937 C   0  0  2  0  0  0  0  0  0  0  0  0
   28.1832  -20.6564   -6.6618 N   0  0  0  0  0  0  0  0  0  0  0  0
   28.9181  -18.7081   -5.4786 C   0  0  0  0  0  0  0  0  0  0  0  0
   30.2516  -18.9622   -5.7288 O   0  0  0  0  0  0  0  0  0  0  0  0
   28.5498  -17.5350   -5.2396 O   0  0  0  0  0  0  0  0  0  0  0  0
  2  3  1  6
  2  1  1  0
  4  2  1  0
  5  4  1  0
  5  6  1  6
  7  8  2  0
  7  5  1  0
 10  9  1  1
 10 12  1  0
 10 11  1  0
 13 12  1  6
 13 14  1  0
 14  7  1  0
 15 13  1  0
 15 16  2  0
 18 17  1  1
 19 18  1  0
 20 18  1  0
 20 21  1  6
 21 15  1  0
 22 20  1  0
 23 22  1  0
 24 22  2  0
M  END
$$$$
