LLV.pdb
     RDKit          3D

 24 23  0  0  1  0  0  0  0  0999 V2000
   26.5825  -15.7694  -17.0814 C   0  0  0  0  0  0  0  0  0  0  0  0
   27.3406  -16.8189  -16.2923 C   0  0  1  0  0  0  0  0  0  0  0  0
   27.9818  -16.1136  -15.1166 C   0  0  0  0  0  0  0  0  0  0  0  0
   26.3704  -17.8710  -15.8518 C   0  0  0  0  0  0  0  0  0  0  0  0
   27.0122  -18.9145  -14.9632 C   0  0  2  0  0  0  0  0  0  0  0  0
   27.9482  -19.6589  -15.7852 N   0  0  0  0  0  0  0  0  0  0  0  0
   26.0394  -19.8473  -14.3894 C   0  0  0  0  0  0  0  0  0  0  0  0
   25.6106  -20.8505  -15.0560 O   0  0  0  0  0  0  0  0  0  0  0  0
   26.5917  -21.9265  -10.8023 C   0  0  0  0  0  0  0  0  0  0  0  0
   25.9342  -20.5811  -10.4102 C   0  0  2  0  0  0  0  0  0  0  0  0
   26.0438  -20.4704   -8.9349 C   0  0  0  0  0  0  0  0  0  0  0  0
   24.5625  -20.4998  -11.0004 C   0  0  0  0  0  0  0  0  0  0  0  0
   24.5139  -20.5543  -12.4848 C   0  0  2  0  0  0  0  0  0  0  0  0
   25.4981  -19.7272  -13.0779 N   0  0  0  0  0  0  0  0  0  0  0  0
   23.1449  -20.3124  -13.0203 C   0  0  0  0  0  0  0  0  0  0  0  0
   22.7575  -19.1218  -13.0608 O   0  0  0  0  0  0  0  0  0  0  0  0
   19.3883  -21.4737  -15.9434 C   0  0  0  0  0  0  0  0  0  0  0  0
   20.7588  -21.7251  -15.3526 C   0  0  1  0  0  0  0  0  0  0  0  0
   21.7793  -21.1872  -16.3307 C   0  0  0  0  0  0  0  0  0  0  0  0
   20.9591  -21.0156  -14.0329 C   0  0  2  0  0  0  0  0  0  0  0  0
   22.2772  -21.3285  -13.4754 N   0  0  0  0  0  0  0  0  0  0  0  0
   19.9168  -21.3827  -13.0731 C   0  0  0  0  0  0  0  0  0  0  0  0
   20.1018  -22.4605  -12.2309 O   0  0  0  0  0  0  0  0  0  0  0  0
   18.8523  -20.7259  -13.0069 O   0  0  0  0  0  0  0  0  0  0  0  0
  2  3  1  1
  2  1  1  0
  4  2  1  0
  5  4  1  0
  5  6  1  6
  7  8  2  0
  7  5  1  0
 10  9  1  1
 10 12  1  0
 10 11  1  0
 13 12  1  1
 13 14  1  0
 14  7  1  0
 15 13  1  0
 15 16  2  0
 18 17  1  6
 19 18  1  0
 20 18  1  0
 20 21  1  1
 21 15  1  0
 22 20  1  0
 23 22  1  0
 24 22  2  0
M  END
$$$$
