LLV.pdb
     RDKit          3D

 24 23  0  0  1  0  0  0  0  0999 V2000
   15.5913   -7.6731  -20.5717 C   0  0  0  0  0  0  0  0  0  0  0  0
   16.0721   -8.9100  -19.8384 C   0  0  1  0  0  0  0  0  0  0  0  0
   17.0941   -9.5848  -20.7278 C   0  0  0  0  0  0  0  0  0  0  0  0
   16.6638   -8.4838  -18.5305 C   0  0  0  0  0  0  0  0  0  0  0  0
   17.2212   -9.6481  -17.7405 C   0  0  2  0  0  0  0  0  0  0  0  0
   16.0896  -10.3915  -17.2187 N   0  0  0  0  0  0  0  0  0  0  0  0
   18.0654   -9.2225  -16.6217 C   0  0  0  0  0  0  0  0  0  0  0  0
   17.5572   -8.7151  -15.5639 O   0  0  0  0  0  0  0  0  0  0  0  0
   23.5966  -10.5189  -14.2437 C   0  0  0  0  0  0  0  0  0  0  0  0
   22.3954   -9.5425  -14.2394 C   0  0  2  0  0  0  0  0  0  0  0  0
   21.8444   -9.5556  -12.8621 C   0  0  0  0  0  0  0  0  0  0  0  0
   21.4589   -9.8910  -15.3521 C   0  0  0  0  0  0  0  0  0  0  0  0
   20.3604   -8.9152  -15.5763 C   0  0  2  0  0  0  0  0  0  0  0  0
   19.4851   -9.3306  -16.6086 N   0  0  0  0  0  0  0  0  0  0  0  0
   20.8613   -7.5238  -15.7572 C   0  0  0  0  0  0  0  0  0  0  0  0
   21.4911   -7.2841  -16.8132 O   0  0  0  0  0  0  0  0  0  0  0  0
   20.5501   -2.7109  -15.2713 C   0  0  0  0  0  0  0  0  0  0  0  0
   20.0602   -4.1407  -15.1936 C   0  0  1  0  0  0  0  0  0  0  0  0
   19.3224   -4.4372  -16.4802 C   0  0  0  0  0  0  0  0  0  0  0  0
   21.1923   -5.1342  -15.0661 C   0  0  2  0  0  0  0  0  0  0  0  0
   20.6699   -6.4814  -14.8249 N   0  0  0  0  0  0  0  0  0  0  0  0
   22.1053   -4.7576  -13.9859 C   0  0  0  0  0  0  0  0  0  0  0  0
   23.2850   -4.1019  -14.2754 O   0  0  0  0  0  0  0  0  0  0  0  0
   21.8269   -5.0254  -12.7943 O   0  0  0  0  0  0  0  0  0  0  0  0
  2  3  1  6
  2  1  1  0
  4  2  1  0
  5  4  1  0
  5  6  1  1
  7  8  2  0
  7  5  1  0
 10  9  1  1
 10 12  1  0
 10 11  1  0
 13 12  1  6
 13 14  1  0
 14  7  1  0
 15 13  1  0
 15 16  2  0
 18 17  1  6
 19 18  1  0
 20 18  1  0
 20 21  1  1
 21 15  1  0
 22 20  1  0
 23 22  1  0
 24 22  2  0
M  END
$$$$
