LLV.pdb
     RDKit          3D

 24 23  0  0  1  0  0  0  0  0999 V2000
   31.2194  -20.5081  -11.3380 C   0  0  0  0  0  0  0  0  0  0  0  0
   30.9911  -21.4692  -12.4882 C   0  0  1  0  0  0  0  0  0  0  0  0
   32.0561  -22.5403  -12.3902 C   0  0  0  0  0  0  0  0  0  0  0  0
   29.6121  -22.0389  -12.3613 C   0  0  0  0  0  0  0  0  0  0  0  0
   28.5359  -21.0316  -12.7041 C   0  0  2  0  0  0  0  0  0  0  0  0
   29.0116  -19.7322  -12.2670 N   0  0  0  0  0  0  0  0  0  0  0  0
   27.2604  -21.3166  -12.0427 C   0  0  0  0  0  0  0  0  0  0  0  0
   26.5914  -22.3704  -12.3197 O   0  0  0  0  0  0  0  0  0  0  0  0
   26.0741  -21.4124   -7.6710 C   0  0  0  0  0  0  0  0  0  0  0  0
   26.2266  -19.9888   -8.2597 C   0  0  2  0  0  0  0  0  0  0  0  0
   26.2448  -19.0542   -7.1078 C   0  0  0  0  0  0  0  0  0  0  0  0
   25.1824  -19.7618   -9.3060 C   0  0  0  0  0  0  0  0  0  0  0  0
   25.3508  -20.5650  -10.5451 C   0  0  2  0  0  0  0  0  0  0  0  0
   26.6660  -20.4735  -11.0613 N   0  0  0  0  0  0  0  0  0  0  0  0
   24.3009  -20.2737  -11.5611 C   0  0  0  0  0  0  0  0  0  0  0  0
   24.4678  -19.2528  -12.2676 O   0  0  0  0  0  0  0  0  0  0  0  0
   21.3816  -21.5642  -15.0968 C   0  0  0  0  0  0  0  0  0  0  0  0
   22.3611  -21.7953  -13.9665 C   0  0  1  0  0  0  0  0  0  0  0  0
   23.7542  -21.6571  -14.5391 C   0  0  0  0  0  0  0  0  0  0  0  0
   22.2115  -20.7818  -12.8550 C   0  0  2  0  0  0  0  0  0  0  0  0
   23.1520  -21.0671  -11.7686 N   0  0  0  0  0  0  0  0  0  0  0  0
   20.8439  -20.7685  -12.3338 C   0  0  0  0  0  0  0  0  0  0  0  0
   20.5684  -21.3276  -11.1021 O   0  0  0  0  0  0  0  0  0  0  0  0
   19.9148  -20.2525  -12.9967 O   0  0  0  0  0  0  0  0  0  0  0  0
  2  3  1  1
  2  1  1  0
  4  2  1  0
  5  4  1  0
  5  6  1  1
  7  8  2  0
  7  5  1  0
 10  9  1  1
 10 12  1  0
 10 11  1  0
 13 12  1  1
 13 14  1  0
 14  7  1  0
 15 13  1  0
 15 16  2  0
 18 17  1  6
 19 18  1  0
 20 18  1  0
 20 21  1  1
 21 15  1  0
 22 20  1  0
 23 22  1  0
 24 22  2  0
M  END
$$$$
