LLV.pdb
     RDKit          3D

 24 23  0  0  1  0  0  0  0  0999 V2000
   17.7171  -23.6177   -9.7704 C   0  0  0  0  0  0  0  0  0  0  0  0
   18.9384  -23.6184   -8.8718 C   0  0  1  0  0  0  0  0  0  0  0  0
   19.6824  -24.9102   -9.1343 C   0  0  0  0  0  0  0  0  0  0  0  0
   19.7694  -22.4176   -9.2029 C   0  0  0  0  0  0  0  0  0  0  0  0
   21.1584  -22.4925   -8.6066 C   0  0  2  0  0  0  0  0  0  0  0  0
   21.0223  -22.2788   -7.1778 N   0  0  0  0  0  0  0  0  0  0  0  0
   22.0659  -21.4809   -9.1530 C   0  0  0  0  0  0  0  0  0  0  0  0
   21.6658  -20.2893   -9.3874 O   0  0  0  0  0  0  0  0  0  0  0  0
   25.5036  -18.9723   -8.0365 C   0  0  0  0  0  0  0  0  0  0  0  0
   25.8439  -20.4788   -8.1408 C   0  0  2  0  0  0  0  0  0  0  0  0
   27.1705  -20.6584   -7.5015 C   0  0  0  0  0  0  0  0  0  0  0  0
   25.7038  -20.9299   -9.5598 C   0  0  0  0  0  0  0  0  0  0  0  0
   24.3279  -20.8379  -10.1143 C   0  0  2  0  0  0  0  0  0  0  0  0
   23.4342  -21.7226   -9.4640 N   0  0  0  0  0  0  0  0  0  0  0  0
   24.3012  -20.9644  -11.5985 C   0  0  0  0  0  0  0  0  0  0  0  0
   24.7666  -22.0218  -12.0828 O   0  0  0  0  0  0  0  0  0  0  0  0
   22.0992  -19.9529  -15.8733 C   0  0  0  0  0  0  0  0  0  0  0  0
   22.2509  -19.8685  -14.3698 C   0  0  1  0  0  0  0  0  0  0  0  0
   21.2826  -20.8580  -13.7607 C   0  0  0  0  0  0  0  0  0  0  0  0
   23.6429  -20.2338  -13.9073 C   0  0  2  0  0  0  0  0  0  0  0  0
   23.7915  -19.9798  -12.4722 N   0  0  0  0  0  0  0  0  0  0  0  0
   24.6586  -19.4853  -14.6493 C   0  0  0  0  0  0  0  0  0  0  0  0
   25.0095  -18.2122  -14.2476 O   0  0  0  0  0  0  0  0  0  0  0  0
   25.2165  -19.9900  -15.6508 O   0  0  0  0  0  0  0  0  0  0  0  0
  2  3  1  6
  2  1  1  0
  4  2  1  0
  5  4  1  0
  5  6  1  1
  7  8  2  0
  7  5  1  0
 10  9  1  6
 10 12  1  0
 10 11  1  0
 13 12  1  1
 13 14  1  0
 14  7  1  0
 15 13  1  0
 15 16  2  0
 18 17  1  6
 19 18  1  0
 20 18  1  0
 20 21  1  1
 21 15  1  0
 22 20  1  0
 23 22  1  0
 24 22  2  0
M  END
$$$$
