LLV.pdb
     RDKit          3D

 24 23  0  0  1  0  0  0  0  0999 V2000
   13.0049  -23.6118   -6.8753 C   0  0  0  0  0  0  0  0  0  0  0  0
   14.2915  -23.6410   -6.0737 C   0  0  1  0  0  0  0  0  0  0  0  0
   15.0144  -22.3393   -6.3460 C   0  0  0  0  0  0  0  0  0  0  0  0
   13.9426  -23.7943   -4.6255 C   0  0  0  0  0  0  0  0  0  0  0  0
   15.1633  -23.7776   -3.7311 C   0  0  2  0  0  0  0  0  0  0  0  0
   15.9140  -24.9878   -4.0098 N   0  0  0  0  0  0  0  0  0  0  0  0
   14.8228  -23.7484   -2.3068 C   0  0  0  0  0  0  0  0  0  0  0  0
   14.5361  -24.8206   -1.6720 O   0  0  0  0  0  0  0  0  0  0  0  0
   16.6638  -22.1820    2.9718 C   0  0  0  0  0  0  0  0  0  0  0  0
   15.3463  -22.4076    2.1912 C   0  0  2  0  0  0  0  0  0  0  0  0
   14.6826  -23.5806    2.8111 C   0  0  0  0  0  0  0  0  0  0  0  0
   15.6355  -22.4830    0.7258 C   0  0  0  0  0  0  0  0  0  0  0  0
   14.4366  -22.4586   -0.1523 C   0  0  2  0  0  0  0  0  0  0  0  0
   14.7807  -22.5612   -1.5218 N   0  0  0  0  0  0  0  0  0  0  0  0
   13.5375  -21.3076    0.1414 C   0  0  0  0  0  0  0  0  0  0  0  0
   13.9662  -20.1679   -0.1523 O   0  0  0  0  0  0  0  0  0  0  0  0
   10.2082  -20.6760   -1.3602 C   0  0  0  0  0  0  0  0  0  0  0  0
   10.0484  -20.5448    0.1391 C   0  0  1  0  0  0  0  0  0  0  0  0
    9.5089  -21.8607    0.6539 C   0  0  0  0  0  0  0  0  0  0  0  0
   11.3602  -20.2731    0.8393 C   0  0  2  0  0  0  0  0  0  0  0  0
   12.2555  -21.4266    0.7202 N   0  0  0  0  0  0  0  0  0  0  0  0
   11.1481  -19.9561    2.2523 C   0  0  0  0  0  0  0  0  0  0  0  0
   10.6664  -18.7150    2.6173 O   0  0  0  0  0  0  0  0  0  0  0  0
   11.4004  -20.8032    3.1399 O   0  0  0  0  0  0  0  0  0  0  0  0
  2  3  1  1
  2  1  1  0
  4  2  1  0
  5  4  1  0
  5  6  1  1
  7  8  2  0
  7  5  1  0
 10  9  1  1
 10 12  1  0
 10 11  1  0
 13 12  1  1
 13 14  1  0
 14  7  1  0
 15 13  1  0
 15 16  2  0
 18 17  1  6
 19 18  1  0
 20 18  1  0
 20 21  1  1
 21 15  1  0
 22 20  1  0
 23 22  1  0
 24 22  2  0
M  END
$$$$
