NEW.pdb
     RDKit          3D

 32 33  0  0  1  0  0  0  0  0999 V2000
    5.6673  -14.5921   20.4782 N   0  0  0  0  0  0  0  0  0  0  0  0
    7.0701  -14.5446   20.6017 C   0  0  0  0  0  0  0  0  0  0  0  0
    7.7646  -14.0465   19.6977 O   0  0  0  0  0  0  0  0  0  0  0  0
    7.7222  -15.0903   21.8096 C   0  0  0  0  0  0  0  0  0  0  0  0
    8.4112  -16.4192   21.5042 C   0  0  2  0  0  0  0  0  0  0  0  0
    7.4281  -17.4027   21.0713 N   0  0  0  0  0  0  0  0  0  0  0  0
    9.1722  -16.8638   22.6705 C   0  0  0  0  0  0  0  0  0  0  0  0
    8.9314  -17.9027   23.3382 O   0  0  0  0  0  0  0  0  0  0  0  0
   10.2809  -16.0985   23.1258 N   0  0  0  0  0  0  0  0  0  0  0  0
   11.5342  -16.6803   23.5811 C   0  0  1  0  0  0  0  0  0  0  0  0
   12.7150  -16.1628   22.8559 C   0  0  0  0  0  0  0  0  0  0  0  0
   13.9737  -16.8441   23.3151 C   0  0  0  0  0  0  0  0  0  0  0  0
   15.0489  -16.7214   22.2680 C   0  0  0  0  0  0  0  0  0  0  0  0
   16.1403  -16.2205   22.5747 O   0  0  0  0  0  0  0  0  0  0  0  0
   11.6149  -16.6910   25.0597 C   0  0  0  0  0  0  0  0  0  0  0  0
   12.5647  -17.1991   25.7136 O   0  0  0  0  0  0  0  0  0  0  0  0
   14.8113  -17.1629   20.9943 O   0  0  0  0  0  0  0  0  0  0  0  0
   10.5641  -16.0930   25.8437 N   0  0  0  0  0  0  0  0  0  0  0  0
   10.6175  -16.1724   27.2809 C   0  0  1  0  0  0  0  0  0  0  0  0
    9.6243  -15.2220   27.9250 C   0  0  0  0  0  0  0  0  0  0  0  0
    8.4966  -14.9625   26.9971 C   0  0  0  0  0  0  0  0  0  0  0  0
    7.6234  -15.8138   26.3696 C   0  0  0  0  0  0  0  0  0  0  0  0
    6.7516  -15.1234   25.6043 N   0  0  0  0  0  0  0  0  0  0  0  0
    7.0315  -13.8217   25.7126 C   0  0  0  0  0  0  0  0  0  0  0  0
    6.4677  -12.6960   25.1567 C   0  0  0  0  0  0  0  0  0  0  0  0
    6.9580  -11.4496   25.4412 C   0  0  0  0  0  0  0  0  0  0  0  0
    8.0266  -11.2999   26.2899 C   0  0  0  0  0  0  0  0  0  0  0  0
    8.5890  -12.4226   26.8436 C   0  0  0  0  0  0  0  0  0  0  0  0
    8.1146  -13.6903   26.5744 C   0  0  0  0  0  0  0  0  0  0  0  0
   10.2871  -17.5608   27.6870 C   0  0  0  0  0  0  0  0  0  0  0  0
   10.0156  -18.5132   26.7157 O   0  0  0  0  0  0  0  0  0  0  0  0
   10.2530  -17.8794   28.9254 O   0  0  0  0  0  0  0  0  0  0  0  0
  2  1  1  0
  3  2  2  0
  4  2  1  0
  4  5  1  0
  5  6  1  1
  7  5  1  0
  7  8  2  0
  9  7  1  0
 10  9  1  0
 10 11  1  6
 12 11  1  0
 12 13  1  0
 13 14  2  0
 15 18  1  0
 15 10  1  0
 16 15  2  0
 17 13  1  0
 19 18  1  0
 19 30  1  0
 20 21  1  0
 19 20  1  1
 21 29  1  0
 21 22  2  0
 22 23  1  0
 24 23  1  0
 24 25  2  0
 26 25  1  0
 27 26  2  0
 28 27  1  0
 28 29  2  0
 29 24  1  0
 30 31  1  0
 32 30  2  0
M  END
$$$$
