NEW.pdb
     RDKit          3D

 32 33  0  0  1  0  0  0  0  0999 V2000
   12.6554  -17.7667   12.9177 N   0  0  0  0  0  0  0  0  0  0  0  0
   12.7470  -16.4836   13.4928 C   0  0  0  0  0  0  0  0  0  0  0  0
   13.5333  -15.6399   13.0262 O   0  0  0  0  0  0  0  0  0  0  0  0
   11.9069  -16.1365   14.6571 C   0  0  0  0  0  0  0  0  0  0  0  0
   11.0726  -17.3355   15.1045 C   0  0  2  0  0  0  0  0  0  0  0  0
    9.9672  -17.5466   14.1802 N   0  0  0  0  0  0  0  0  0  0  0  0
   10.6221  -17.1412   16.4816 C   0  0  0  0  0  0  0  0  0  0  0  0
   10.1656  -16.0656   16.9483 O   0  0  0  0  0  0  0  0  0  0  0  0
   10.6829  -18.2208   17.4051 N   0  0  0  0  0  0  0  0  0  0  0  0
   10.1628  -18.1559   18.7622 C   0  0  1  0  0  0  0  0  0  0  0  0
    9.5621  -19.4283   19.2184 C   0  0  0  0  0  0  0  0  0  0  0  0
    8.2881  -19.7221   18.4768 C   0  0  0  0  0  0  0  0  0  0  0  0
    7.7212  -21.0475   18.9119 C   0  0  0  0  0  0  0  0  0  0  0  0
    6.6673  -21.4538   18.4016 O   0  0  0  0  0  0  0  0  0  0  0  0
   11.1326  -17.5132   19.6784 C   0  0  0  0  0  0  0  0  0  0  0  0
   12.3840  -17.5818   19.5468 O   0  0  0  0  0  0  0  0  0  0  0  0
    8.3729  -21.7871   19.8617 O   0  0  0  0  0  0  0  0  0  0  0  0
   10.6624  -16.7488   20.8058 N   0  0  0  0  0  0  0  0  0  0  0  0
   11.6146  -16.1776   21.7233 C   0  0  1  0  0  0  0  0  0  0  0  0
   11.1751  -14.8023   22.1921 C   0  0  0  0  0  0  0  0  0  0  0  0
    9.6940  -14.7268   22.2225 C   0  0  0  0  0  0  0  0  0  0  0  0
    8.7739  -15.2887   23.0703 C   0  0  0  0  0  0  0  0  0  0  0  0
    7.5198  -14.9451   22.7079 N   0  0  0  0  0  0  0  0  0  0  0  0
    7.5903  -14.1610   21.6287 C   0  0  0  0  0  0  0  0  0  0  0  0
    6.6315  -13.5399   20.8614 C   0  0  0  0  0  0  0  0  0  0  0  0
    6.9816  -12.7724   19.7829 C   0  0  0  0  0  0  0  0  0  0  0  0
    8.3022  -12.6084   19.4456 C   0  0  0  0  0  0  0  0  0  0  0  0
    9.2582  -13.2284   20.2106 C   0  0  0  0  0  0  0  0  0  0  0  0
    8.9332  -14.0069   21.3028 C   0  0  0  0  0  0  0  0  0  0  0  0
   11.7277  -17.0735   22.9007 C   0  0  0  0  0  0  0  0  0  0  0  0
   12.7465  -16.8722   23.8202 O   0  0  0  0  0  0  0  0  0  0  0  0
   10.8908  -18.0263   23.0685 O   0  0  0  0  0  0  0  0  0  0  0  0
  2  1  1  0
  3  2  2  0
  4  2  1  0
  4  5  1  0
  5  6  1  6
  7  5  1  0
  7  8  2  0
  9  7  1  0
 10  9  1  0
 10 11  1  1
 12 11  1  0
 12 13  1  0
 13 14  2  0
 15 18  1  0
 15 10  1  0
 16 15  2  0
 17 13  1  0
 19 18  1  0
 19 30  1  0
 20 21  1  0
 19 20  1  1
 21 29  1  0
 21 22  2  0
 22 23  1  0
 24 23  1  0
 24 25  2  0
 26 25  1  0
 27 26  2  0
 28 27  1  0
 28 29  2  0
 29 24  1  0
 30 31  1  0
 32 30  2  0
M  END
$$$$
