NEW.pdb
     RDKit          3D

 32 33  0  0  1  0  0  0  0  0999 V2000
    4.5455  -18.8969   18.5160 N   0  0  0  0  0  0  0  0  0  0  0  0
    5.8855  -18.8831   18.9514 C   0  0  0  0  0  0  0  0  0  0  0  0
    6.8154  -18.9416   18.1270 O   0  0  0  0  0  0  0  0  0  0  0  0
    6.1904  -18.8007   20.3944 C   0  0  0  0  0  0  0  0  0  0  0  0
    6.9612  -17.5216   20.7167 C   0  0  2  0  0  0  0  0  0  0  0  0
    7.5669  -16.9857   19.5056 N   0  0  0  0  0  0  0  0  0  0  0  0
    7.9446  -17.7851   21.7656 C   0  0  0  0  0  0  0  0  0  0  0  0
    7.7533  -18.5210   22.7682 O   0  0  0  0  0  0  0  0  0  0  0  0
    9.2334  -17.1883   21.6936 N   0  0  0  0  0  0  0  0  0  0  0  0
   10.2706  -17.3775   22.6960 C   0  0  1  0  0  0  0  0  0  0  0  0
   11.6159  -17.5748   22.1136 C   0  0  0  0  0  0  0  0  0  0  0  0
   12.1143  -16.3149   21.4628 C   0  0  0  0  0  0  0  0  0  0  0  0
   13.4837  -16.5336   20.8760 C   0  0  0  0  0  0  0  0  0  0  0  0
   13.5896  -16.8354   19.6785 O   0  0  0  0  0  0  0  0  0  0  0  0
   10.1570  -16.3763   23.7812 C   0  0  0  0  0  0  0  0  0  0  0  0
    9.5913  -15.2573   23.6562 O   0  0  0  0  0  0  0  0  0  0  0  0
   14.5924  -16.3968   21.6670 O   0  0  0  0  0  0  0  0  0  0  0  0
   10.7127  -16.6554   25.0812 N   0  0  0  0  0  0  0  0  0  0  0  0
    9.9667  -16.3050   26.2624 C   0  0  1  0  0  0  0  0  0  0  0  0
    8.6141  -16.9937   26.2874 C   0  0  0  0  0  0  0  0  0  0  0  0
    7.5370  -16.0039   26.0417 C   0  0  0  0  0  0  0  0  0  0  0  0
    6.2392  -16.1594   25.6264 C   0  0  0  0  0  0  0  0  0  0  0  0
    5.6210  -14.9627   25.5364 N   0  0  0  0  0  0  0  0  0  0  0  0
    6.4894  -14.0098   25.8861 C   0  0  0  0  0  0  0  0  0  0  0  0
    6.3884  -12.6399   25.9711 C   0  0  0  0  0  0  0  0  0  0  0  0
    7.4555  -11.8789   26.3673 C   0  0  0  0  0  0  0  0  0  0  0  0
    8.6515  -12.4718   26.6879 C   0  0  0  0  0  0  0  0  0  0  0  0
    8.7521  -13.8378   26.6025 C   0  0  0  0  0  0  0  0  0  0  0  0
    7.6926  -14.6286   26.2066 C   0  0  0  0  0  0  0  0  0  0  0  0
   10.7447  -16.7299   27.4523 C   0  0  0  0  0  0  0  0  0  0  0  0
   11.9617  -17.3734   27.2819 O   0  0  0  0  0  0  0  0  0  0  0  0
   10.2972  -16.5044   28.6292 O   0  0  0  0  0  0  0  0  0  0  0  0
  2  1  1  0
  3  2  2  0
  4  2  1  0
  4  5  1  0
  5  6  1  6
  7  5  1  0
  7  8  2  0
  9  7  1  0
 10  9  1  0
 10 11  1  6
 12 11  1  0
 12 13  1  0
 13 14  2  0
 15 18  1  0
 15 10  1  0
 16 15  2  0
 17 13  1  0
 19 18  1  0
 19 30  1  0
 20 21  1  0
 19 20  1  6
 21 29  1  0
 21 22  2  0
 22 23  1  0
 24 23  1  0
 24 25  2  0
 26 25  1  0
 27 26  2  0
 28 27  1  0
 28 29  2  0
 29 24  1  0
 30 31  1  0
 32 30  2  0
M  END
$$$$
