NEW.pdb
     RDKit          3D

 32 33  0  0  1  0  0  0  0  0999 V2000
    9.0724  -13.6212   16.9201 N   0  0  0  0  0  0  0  0  0  0  0  0
    7.7182  -13.7985   17.2666 C   0  0  0  0  0  0  0  0  0  0  0  0
    6.8538  -13.9256   16.3810 O   0  0  0  0  0  0  0  0  0  0  0  0
    7.3199  -13.8322   18.6887 C   0  0  0  0  0  0  0  0  0  0  0  0
    8.5404  -13.7131   19.5998 C   0  0  2  0  0  0  0  0  0  0  0  0
    9.7525  -13.6116   18.7990 N   0  0  0  0  0  0  0  0  0  0  0  0
    8.5769  -14.8392   20.5311 C   0  0  0  0  0  0  0  0  0  0  0  0
    7.6740  -15.1212   21.3609 O   0  0  0  0  0  0  0  0  0  0  0  0
    9.6972  -15.7149   20.5393 N   0  0  0  0  0  0  0  0  0  0  0  0
    9.8738  -16.7952   21.4975 C   0  0  1  0  0  0  0  0  0  0  0  0
   10.6399  -17.9379   20.9540 C   0  0  0  0  0  0  0  0  0  0  0  0
   10.8361  -19.0030   21.9963 C   0  0  0  0  0  0  0  0  0  0  0  0
   11.7028  -20.1106   21.4582 C   0  0  0  0  0  0  0  0  0  0  0  0
   12.9350  -20.0170   21.5520 O   0  0  0  0  0  0  0  0  0  0  0  0
   10.3007  -16.2771   22.8175 C   0  0  0  0  0  0  0  0  0  0  0  0
   11.2584  -15.4761   22.9881 O   0  0  0  0  0  0  0  0  0  0  0  0
   11.1235  -21.2047   20.8742 O   0  0  0  0  0  0  0  0  0  0  0  0
    9.6057  -16.6859   24.0119 N   0  0  0  0  0  0  0  0  0  0  0  0
   10.1306  -16.3151   25.3009 C   0  0  1  0  0  0  0  0  0  0  0  0
    9.8123  -14.8684   25.6328 C   0  0  0  0  0  0  0  0  0  0  0  0
    8.3458  -14.6498   25.5903 C   0  0  0  0  0  0  0  0  0  0  0  0
    7.3070  -15.5095   25.3395 C   0  0  0  0  0  0  0  0  0  0  0  0
    6.1251  -14.8605   25.4037 N   0  0  0  0  0  0  0  0  0  0  0  0
    6.3612  -13.5781   25.6941 C   0  0  0  0  0  0  0  0  0  0  0  0
    5.5331  -12.4938   25.8744 C   0  0  0  0  0  0  0  0  0  0  0  0
    6.0448  -11.2595   26.1733 C   0  0  0  0  0  0  0  0  0  0  0  0
    7.4003  -11.0805   26.2984 C   0  0  0  0  0  0  0  0  0  0  0  0
    8.2258  -12.1618   26.1179 C   0  0  0  0  0  0  0  0  0  0  0  0
    7.7367  -13.4166   25.8165 C   0  0  0  0  0  0  0  0  0  0  0  0
    9.5147  -17.1909   26.3282 C   0  0  0  0  0  0  0  0  0  0  0  0
    9.8657  -17.0360   27.6612 O   0  0  0  0  0  0  0  0  0  0  0  0
    8.6642  -18.0838   25.9881 O   0  0  0  0  0  0  0  0  0  0  0  0
  2  1  1  0
  3  2  2  0
  4  2  1  0
  4  5  1  0
  5  6  1  6
  7  5  1  0
  7  8  2  0
  9  7  1  0
 10  9  1  0
 10 11  1  6
 12 11  1  0
 12 13  1  0
 13 14  2  0
 15 18  1  0
 15 10  1  0
 16 15  2  0
 17 13  1  0
 19 18  1  0
 19 30  1  0
 20 21  1  0
 19 20  1  1
 21 29  1  0
 21 22  2  0
 22 23  1  0
 24 23  1  0
 24 25  2  0
 26 25  1  0
 27 26  2  0
 28 27  1  0
 28 29  2  0
 29 24  1  0
 30 31  1  0
 32 30  2  0
M  END
$$$$
