NEW.pdb
     RDKit          3D

 32 33  0  0  1  0  0  0  0  0999 V2000
    7.0530  -12.1993   19.0251 N   0  0  0  0  0  0  0  0  0  0  0  0
    8.2174  -12.9267   19.3420 C   0  0  0  0  0  0  0  0  0  0  0  0
    9.2177  -12.8650   18.6049 O   0  0  0  0  0  0  0  0  0  0  0  0
    8.2525  -13.7692   20.5548 C   0  0  0  0  0  0  0  0  0  0  0  0
    8.5557  -15.2238   20.1999 C   0  0  2  0  0  0  0  0  0  0  0  0
    7.4831  -15.7713   19.3810 N   0  0  0  0  0  0  0  0  0  0  0  0
    8.7792  -15.9968   21.4203 C   0  0  0  0  0  0  0  0  0  0  0  0
    7.9328  -16.1629   22.3364 O   0  0  0  0  0  0  0  0  0  0  0  0
   10.0333  -16.6313   21.6366 N   0  0  0  0  0  0  0  0  0  0  0  0
   10.3223  -17.4862   22.7776 C   0  0  1  0  0  0  0  0  0  0  0  0
   11.3249  -18.5332   22.4832 C   0  0  0  0  0  0  0  0  0  0  0  0
   11.5839  -19.3898   23.6908 C   0  0  0  0  0  0  0  0  0  0  0  0
   12.6920  -20.3703   23.4110 C   0  0  0  0  0  0  0  0  0  0  0  0
   13.7987  -19.9476   23.0469 O   0  0  0  0  0  0  0  0  0  0  0  0
   10.5373  -16.6874   24.0058 C   0  0  0  0  0  0  0  0  0  0  0  0
   11.3588  -15.7364   24.0976 O   0  0  0  0  0  0  0  0  0  0  0  0
   12.4669  -21.7120   23.5614 O   0  0  0  0  0  0  0  0  0  0  0  0
    9.7805  -16.9784   25.1972 N   0  0  0  0  0  0  0  0  0  0  0  0
   10.0868  -16.2826   26.4205 C   0  0  1  0  0  0  0  0  0  0  0  0
    8.8485  -16.1032   27.2801 C   0  0  0  0  0  0  0  0  0  0  0  0
    7.7816  -15.4324   26.4978 C   0  0  0  0  0  0  0  0  0  0  0  0
    6.7625  -15.9391   25.7325 C   0  0  0  0  0  0  0  0  0  0  0  0
    6.0276  -14.9415   25.1967 N   0  0  0  0  0  0  0  0  0  0  0  0
    6.5429  -13.7749   25.5942 C   0  0  0  0  0  0  0  0  0  0  0  0
    6.1922  -12.4671   25.3485 C   0  0  0  0  0  0  0  0  0  0  0  0
    6.9054  -11.4330   25.8934 C   0  0  0  0  0  0  0  0  0  0  0  0
    7.9890  -11.6837   26.6982 C   0  0  0  0  0  0  0  0  0  0  0  0
    8.3388  -12.9881   26.9426 C   0  0  0  0  0  0  0  0  0  0  0  0
    7.6374  -14.0490   26.4067 C   0  0  0  0  0  0  0  0  0  0  0  0
   11.0853  -17.0787   27.1761 C   0  0  0  0  0  0  0  0  0  0  0  0
   11.4152  -18.3544   26.7427 O   0  0  0  0  0  0  0  0  0  0  0  0
   11.6400  -16.5924   28.2212 O   0  0  0  0  0  0  0  0  0  0  0  0
  2  1  1  0
  3  2  2  0
  4  2  1  0
  4  5  1  0
  5  6  1  1
  7  5  1  0
  7  8  2  0
  9  7  1  0
 10  9  1  0
 10 11  1  6
 12 11  1  0
 12 13  1  0
 13 14  2  0
 15 18  1  0
 15 10  1  0
 16 15  2  0
 17 13  1  0
 19 18  1  0
 19 30  1  0
 20 21  1  0
 19 20  1  1
 21 29  1  0
 21 22  2  0
 22 23  1  0
 24 23  1  0
 24 25  2  0
 26 25  1  0
 27 26  2  0
 28 27  1  0
 28 29  2  0
 29 24  1  0
 30 31  1  0
 32 30  2  0
M  END
$$$$
