INH.pdb
     RDKit          3D

 27 27  0  0  1  0  0  0  0  0999 V2000
    6.1094  -12.2317   27.1671 C   0  0  0  0  0  0  0  0  0  0  0  0
    5.9676  -13.3131   26.1530 C   0  0  0  0  0  0  0  0  0  0  0  0
    7.2886  -13.8946   25.7351 C   0  0  2  0  0  0  0  0  0  0  0  0
    8.2799  -12.7769   25.4355 C   0  0  0  0  0  0  0  0  0  0  0  0
    7.1763  -14.8360   24.5728 C   0  0  2  0  0  0  0  0  0  0  0  0
    6.3450  -15.9601   25.0821 N   0  0  0  0  0  0  0  0  0  0  0  0
    8.4433  -15.4600   24.1475 C   0  0  0  0  0  0  0  0  0  0  0  0
    9.4231  -14.7567   23.7010 O   0  0  0  0  0  0  0  0  0  0  0  0
    9.4681  -17.8945   20.9355 N   0  0  0  0  0  0  0  0  0  0  0  0
   10.2023  -16.6912   21.3122 C   0  0  0  0  0  0  0  0  0  0  0  0
   10.5766  -15.9651   20.3659 O   0  0  0  0  0  0  0  0  0  0  0  0
   10.4558  -16.3990   22.6975 C   0  0  0  0  0  0  0  0  0  0  0  0
   10.0341  -17.4012   23.7149 C   0  0  2  0  0  0  0  0  0  0  0  0
    8.7106  -16.8400   24.1842 N   0  0  0  0  0  0  0  0  0  0  0  0
   10.8961  -17.5327   24.8973 C   0  0  0  0  0  0  0  0  0  0  0  0
   12.1240  -17.8333   24.6760 O   0  0  0  0  0  0  0  0  0  0  0  0
   10.5665  -17.3687   26.2527 N   0  0  0  0  0  0  0  0  0  0  0  0
   11.4758  -17.7167   27.3513 C   0  0  1  0  0  0  0  0  0  0  0  0
   11.0589  -17.0518   28.6222 C   0  0  0  0  0  0  0  0  0  0  0  0
   10.7824  -15.6153   28.4284 C   0  0  0  0  0  0  0  0  0  0  0  0
   11.3326  -14.8238   27.4228 C   0  0  0  0  0  0  0  0  0  0  0  0
   10.8631  -13.5540   27.5875 N   0  0  0  0  0  0  0  0  0  0  0  0
   10.0537  -13.5399   28.6472 C   0  0  0  0  0  0  0  0  0  0  0  0
   10.0030  -14.7745   29.1540 N   0  0  0  0  0  0  0  0  0  0  0  0
   11.5995  -19.1551   27.5265 C   0  0  0  0  0  0  0  0  0  0  0  0
   10.8417  -19.9108   26.8227 O   0  0  0  0  0  0  0  0  0  0  0  0
   12.4641  -19.7763   28.3834 O   0  0  0  0  0  0  0  0  0  0  0  0
  2  1  1  0
  2  3  1  0
  3  4  1  6
  5  3  1  0
  5  6  1  1
  7  5  1  0
  8  7  2  0
 10 11  2  0
 10  9  1  0
 12 10  1  0
 13 12  1  6
 13 14  1  0
 14  7  1  0
 15 16  2  0
 15 13  1  0
 17 15  1  0
 18 25  1  0
 18 17  1  0
 18 19  1  1
 20 21  2  0
 20 19  1  0
 22 21  1  0
 23 24  2  0
 23 22  1  0
 24 20  1  0
 25 27  1  0
 26 25  2  0
M  END
$$$$
