INH.pdb
     RDKit          3D

 27 27  0  0  1  0  0  0  0  0999 V2000
    7.8689  -11.7440   18.5454 C   0  0  0  0  0  0  0  0  0  0  0  0
    7.2161  -12.9812   19.0565 C   0  0  0  0  0  0  0  0  0  0  0  0
    7.9956  -13.6350   20.1623 C   0  0  2  0  0  0  0  0  0  0  0  0
    9.4071  -13.9565   19.6870 C   0  0  0  0  0  0  0  0  0  0  0  0
    7.3244  -14.8585   20.7121 C   0  0  2  0  0  0  0  0  0  0  0  0
    5.9603  -14.3984   21.0887 N   0  0  0  0  0  0  0  0  0  0  0  0
    7.9078  -15.3857   21.9599 C   0  0  0  0  0  0  0  0  0  0  0  0
    7.7509  -14.7809   23.0841 O   0  0  0  0  0  0  0  0  0  0  0  0
    6.9391  -16.8854   25.5930 N   0  0  0  0  0  0  0  0  0  0  0  0
    7.1131  -17.5623   24.3122 C   0  0  0  0  0  0  0  0  0  0  0  0
    6.0714  -17.7327   23.6423 O   0  0  0  0  0  0  0  0  0  0  0  0
    8.4194  -17.9889   23.8879 C   0  0  0  0  0  0  0  0  0  0  0  0
    9.3512  -16.9621   23.3448 C   0  0  2  0  0  0  0  0  0  0  0  0
    8.6689  -16.5642   22.0552 N   0  0  0  0  0  0  0  0  0  0  0  0
   10.7020  -17.4249   22.9989 C   0  0  0  0  0  0  0  0  0  0  0  0
   10.9030  -17.7249   21.7674 O   0  0  0  0  0  0  0  0  0  0  0  0
   11.8215  -17.5825   23.8322 N   0  0  0  0  0  0  0  0  0  0  0  0
   13.1542  -17.0659   23.4983 C   0  0  1  0  0  0  0  0  0  0  0  0
   13.0865  -15.6282   23.0989 C   0  0  0  0  0  0  0  0  0  0  0  0
   13.1850  -15.4566   21.6365 C   0  0  0  0  0  0  0  0  0  0  0  0
   13.3114  -16.4948   20.7165 C   0  0  0  0  0  0  0  0  0  0  0  0
   13.4013  -15.9417   19.4731 N   0  0  0  0  0  0  0  0  0  0  0  0
   13.3354  -14.6157   19.5978 C   0  0  0  0  0  0  0  0  0  0  0  0
   13.2057  -14.3212   20.8940 N   0  0  0  0  0  0  0  0  0  0  0  0
   14.1072  -17.2671   24.5782 C   0  0  0  0  0  0  0  0  0  0  0  0
   15.3537  -17.1579   24.3042 O   0  0  0  0  0  0  0  0  0  0  0  0
   13.7849  -17.5629   25.8730 O   0  0  0  0  0  0  0  0  0  0  0  0
  2  1  1  0
  2  3  1  0
  3  4  1  6
  5  3  1  0
  5  6  1  1
  7  5  1  0
  8  7  2  0
 10 11  2  0
 10  9  1  0
 12 10  1  0
 13 12  1  6
 13 14  1  0
 14  7  1  0
 15 16  2  0
 15 13  1  0
 17 15  1  0
 18 25  1  0
 18 17  1  0
 18 19  1  1
 20 21  2  0
 20 19  1  0
 22 21  1  0
 23 24  2  0
 23 22  1  0
 24 20  1  0
 25 27  1  0
 26 25  2  0
M  END
$$$$
