INH.pdb
     RDKit          3D

 27 27  0  0  1  0  0  0  0  0999 V2000
    7.5221  -11.6147   19.8871 C   0  0  0  0  0  0  0  0  0  0  0  0
    7.6686  -12.9389   19.2217 C   0  0  0  0  0  0  0  0  0  0  0  0
    8.3137  -13.9665   20.1082 C   0  0  2  0  0  0  0  0  0  0  0  0
    9.6406  -13.4387   20.6396 C   0  0  0  0  0  0  0  0  0  0  0  0
    8.4970  -15.2939   19.4344 C   0  0  2  0  0  0  0  0  0  0  0  0
    7.1206  -15.7130   19.0549 N   0  0  0  0  0  0  0  0  0  0  0  0
    8.9990  -16.3740   20.3043 C   0  0  0  0  0  0  0  0  0  0  0  0
    8.1977  -17.1403   20.9560 O   0  0  0  0  0  0  0  0  0  0  0  0
   12.3790  -20.5474   21.4171 N   0  0  0  0  0  0  0  0  0  0  0  0
   12.9359  -19.2013   21.3352 C   0  0  0  0  0  0  0  0  0  0  0  0
   14.0935  -19.0642   21.7868 O   0  0  0  0  0  0  0  0  0  0  0  0
   12.1652  -18.1303   20.7626 C   0  0  0  0  0  0  0  0  0  0  0  0
   10.7875  -17.9023   21.2798 C   0  0  2  0  0  0  0  0  0  0  0  0
   10.3573  -16.6753   20.5076 N   0  0  0  0  0  0  0  0  0  0  0  0
   10.6722  -17.5812   22.7088 C   0  0  0  0  0  0  0  0  0  0  0  0
   10.8918  -18.5442   23.5282 O   0  0  0  0  0  0  0  0  0  0  0  0
   10.3578  -16.3540   23.3152 N   0  0  0  0  0  0  0  0  0  0  0  0
   10.2647  -16.1736   24.7690 C   0  0  1  0  0  0  0  0  0  0  0  0
    8.8622  -16.3697   25.2441 C   0  0  0  0  0  0  0  0  0  0  0  0
    8.0153  -15.1943   24.9634 C   0  0  0  0  0  0  0  0  0  0  0  0
    8.4590  -14.0104   24.3787 C   0  0  0  0  0  0  0  0  0  0  0  0
    7.3984  -13.1559   24.3101 N   0  0  0  0  0  0  0  0  0  0  0  0
    6.3322  -13.7678   24.8268 C   0  0  0  0  0  0  0  0  0  0  0  0
    6.6986  -14.9906   25.2197 N   0  0  0  0  0  0  0  0  0  0  0  0
   11.1890  -17.0351   25.4892 C   0  0  0  0  0  0  0  0  0  0  0  0
   12.4278  -16.9848   25.1675 O   0  0  0  0  0  0  0  0  0  0  0  0
   10.8473  -17.9001   26.4906 O   0  0  0  0  0  0  0  0  0  0  0  0
  2  1  1  0
  2  3  1  0
  3  4  1  6
  5  3  1  0
  5  6  1  1
  7  5  1  0
  8  7  2  0
 10 11  2  0
 10  9  1  0
 12 10  1  0
 13 12  1  1
 13 14  1  0
 14  7  1  0
 15 16  2  0
 15 13  1  0
 17 15  1  0
 18 25  1  0
 18 17  1  0
 18 19  1  1
 20 21  2  0
 20 19  1  0
 22 21  1  0
 23 24  2  0
 23 22  1  0
 24 20  1  0
 25 27  1  0
 26 25  2  0
M  END
$$$$
