INH.pdb
     RDKit          3D

 27 27  0  0  1  0  0  0  0  0999 V2000
    7.3110  -11.5594   19.8526 C   0  0  0  0  0  0  0  0  0  0  0  0
    7.7935  -12.9173   19.4769 C   0  0  0  0  0  0  0  0  0  0  0  0
    8.0489  -13.7940   20.6703 C   0  0  2  0  0  0  0  0  0  0  0  0
    9.0835  -13.1462   21.5823 C   0  0  0  0  0  0  0  0  0  0  0  0
    8.4602  -15.1879   20.2997 C   0  0  2  0  0  0  0  0  0  0  0  0
    7.2991  -15.7311   19.5440 N   0  0  0  0  0  0  0  0  0  0  0  0
    8.6417  -16.1105   21.4360 C   0  0  0  0  0  0  0  0  0  0  0  0
    7.6501  -16.7481   21.9501 O   0  0  0  0  0  0  0  0  0  0  0  0
   12.6849  -19.8140   23.6842 N   0  0  0  0  0  0  0  0  0  0  0  0
   11.2801  -19.4226   23.6366 C   0  0  0  0  0  0  0  0  0  0  0  0
   10.5219  -20.0236   24.4284 O   0  0  0  0  0  0  0  0  0  0  0  0
   10.8406  -18.4045   22.7206 C   0  0  0  0  0  0  0  0  0  0  0  0
    9.9668  -17.3185   23.2446 C   0  0  2  0  0  0  0  0  0  0  0  0
    9.8724  -16.3862   22.0577 N   0  0  0  0  0  0  0  0  0  0  0  0
   10.4993  -16.5390   24.3704 C   0  0  0  0  0  0  0  0  0  0  0  0
   11.7203  -16.7667   24.6934 O   0  0  0  0  0  0  0  0  0  0  0  0
    9.8574  -15.5633   25.1504 N   0  0  0  0  0  0  0  0  0  0  0  0
    9.6335  -15.7044   26.5943 C   0  0  1  0  0  0  0  0  0  0  0  0
    8.1755  -15.6646   26.9163 C   0  0  0  0  0  0  0  0  0  0  0  0
    7.5215  -14.4618   26.3659 C   0  0  0  0  0  0  0  0  0  0  0  0
    7.9112  -13.1500   26.6261 C   0  0  0  0  0  0  0  0  0  0  0  0
    7.0532  -12.3210   25.9654 N   0  0  0  0  0  0  0  0  0  0  0  0
    6.1612  -13.0706   25.3169 C   0  0  0  0  0  0  0  0  0  0  0  0
    6.4390  -14.3551   25.5548 N   0  0  0  0  0  0  0  0  0  0  0  0
   10.2581  -16.9027   27.1319 C   0  0  0  0  0  0  0  0  0  0  0  0
   10.1199  -17.9947   26.4769 O   0  0  0  0  0  0  0  0  0  0  0  0
   10.9888  -16.9646   28.2852 O   0  0  0  0  0  0  0  0  0  0  0  0
  2  1  1  0
  2  3  1  0
  3  4  1  1
  5  3  1  0
  5  6  1  6
  7  5  1  0
  8  7  2  0
 10 11  2  0
 10  9  1  0
 12 10  1  0
 13 12  1  6
 13 14  1  0
 14  7  1  0
 15 16  2  0
 15 13  1  0
 17 15  1  0
 18 25  1  0
 18 17  1  0
 18 19  1  6
 20 21  2  0
 20 19  1  0
 22 21  1  0
 23 24  2  0
 23 22  1  0
 24 20  1  0
 25 27  1  0
 26 25  2  0
M  END
$$$$
