INH.pdb
     RDKit          3D

 27 27  0  0  1  0  0  0  0  0999 V2000
    7.0983  -11.9976   19.8751 C   0  0  0  0  0  0  0  0  0  0  0  0
    7.6245  -13.3268   19.4576 C   0  0  0  0  0  0  0  0  0  0  0  0
    7.9858  -14.2014   20.6249 C   0  0  2  0  0  0  0  0  0  0  0  0
    8.9585  -13.4717   21.5429 C   0  0  0  0  0  0  0  0  0  0  0  0
    8.5359  -15.5347   20.2135 C   0  0  2  0  0  0  0  0  0  0  0  0
    7.4170  -16.1914   19.4849 N   0  0  0  0  0  0  0  0  0  0  0  0
    8.8571  -16.4497   21.3249 C   0  0  0  0  0  0  0  0  0  0  0  0
    7.9507  -17.1660   21.8901 O   0  0  0  0  0  0  0  0  0  0  0  0
   10.7372  -20.4109   21.8531 N   0  0  0  0  0  0  0  0  0  0  0  0
   11.5218  -19.1914   21.6910 C   0  0  0  0  0  0  0  0  0  0  0  0
   12.1002  -19.0602   20.5904 O   0  0  0  0  0  0  0  0  0  0  0  0
   11.5963  -18.2288   22.7571 C   0  0  0  0  0  0  0  0  0  0  0  0
   10.3625  -17.4718   23.1068 C   0  0  2  0  0  0  0  0  0  0  0  0
   10.1413  -16.6347   21.8670 N   0  0  0  0  0  0  0  0  0  0  0  0
   10.4647  -16.5479   24.2445 C   0  0  0  0  0  0  0  0  0  0  0  0
   10.5589  -15.3005   23.9582 O   0  0  0  0  0  0  0  0  0  0  0  0
   10.4682  -16.8371   25.6189 N   0  0  0  0  0  0  0  0  0  0  0  0
    9.7895  -16.0047   26.6195 C   0  0  1  0  0  0  0  0  0  0  0  0
    8.3723  -15.7435   26.2264 C   0  0  0  0  0  0  0  0  0  0  0  0
    7.9560  -14.3646   26.5472 C   0  0  0  0  0  0  0  0  0  0  0  0
    8.7719  -13.3986   27.1314 C   0  0  0  0  0  0  0  0  0  0  0  0
    8.0277  -12.2676   27.2955 N   0  0  0  0  0  0  0  0  0  0  0  0
    6.7978  -12.5043   26.8376 C   0  0  0  0  0  0  0  0  0  0  0  0
    6.7512  -13.7611   26.3880 N   0  0  0  0  0  0  0  0  0  0  0  0
    9.8678  -16.5773   27.9540 C   0  0  0  0  0  0  0  0  0  0  0  0
   10.0446  -15.7775   28.9388 O   0  0  0  0  0  0  0  0  0  0  0  0
    9.7657  -17.9073   28.2516 O   0  0  0  0  0  0  0  0  0  0  0  0
  2  1  1  0
  2  3  1  0
  3  4  1  6
  5  3  1  0
  5  6  1  6
  7  5  1  0
  8  7  2  0
 10 11  2  0
 10  9  1  0
 12 10  1  0
 13 12  1  6
 13 14  1  0
 14  7  1  0
 15 16  2  0
 15 13  1  0
 17 15  1  0
 18 25  1  0
 18 17  1  0
 18 19  1  6
 20 21  2  0
 20 19  1  0
 22 21  1  0
 23 24  2  0
 23 22  1  0
 24 20  1  0
 25 27  1  0
 26 25  2  0
M  END
$$$$
