INH.pdb
     RDKit          3D

 27 27  0  0  1  0  0  0  0  0999 V2000
    7.0713  -11.8981   19.8017 C   0  0  0  0  0  0  0  0  0  0  0  0
    7.4606  -13.2601   19.3421 C   0  0  0  0  0  0  0  0  0  0  0  0
    8.0992  -14.0793   20.4280 C   0  0  2  0  0  0  0  0  0  0  0  0
    9.2745  -13.3206   21.0318 C   0  0  0  0  0  0  0  0  0  0  0  0
    8.5225  -15.4420   19.9658 C   0  0  2  0  0  0  0  0  0  0  0  0
    7.2634  -16.0878   19.5056 N   0  0  0  0  0  0  0  0  0  0  0  0
    9.0421  -16.3288   21.0237 C   0  0  0  0  0  0  0  0  0  0  0  0
    8.2534  -16.9914   21.7937 O   0  0  0  0  0  0  0  0  0  0  0  0
   13.2511  -19.9885   22.7961 N   0  0  0  0  0  0  0  0  0  0  0  0
   13.0413  -18.5513   22.9349 C   0  0  0  0  0  0  0  0  0  0  0  0
   13.6221  -18.0085   23.8997 O   0  0  0  0  0  0  0  0  0  0  0  0
   12.2106  -17.8449   21.9970 C   0  0  0  0  0  0  0  0  0  0  0  0
   10.8550  -17.4186   22.4421 C   0  0  2  0  0  0  0  0  0  0  0  0
   10.4052  -16.5415   21.2952 N   0  0  0  0  0  0  0  0  0  0  0  0
   10.7957  -16.6042   23.6634 C   0  0  0  0  0  0  0  0  0  0  0  0
   10.5912  -15.3477   23.5005 O   0  0  0  0  0  0  0  0  0  0  0  0
   10.9264  -17.0094   25.0018 N   0  0  0  0  0  0  0  0  0  0  0  0
    9.8639  -16.8451   26.0013 C   0  0  1  0  0  0  0  0  0  0  0  0
    8.5142  -16.9431   25.3690 C   0  0  0  0  0  0  0  0  0  0  0  0
    7.9008  -15.6159   25.1693 C   0  0  0  0  0  0  0  0  0  0  0  0
    8.5039  -14.4007   25.4853 C   0  0  0  0  0  0  0  0  0  0  0  0
    7.6203  -13.4060   25.1855 N   0  0  0  0  0  0  0  0  0  0  0  0
    6.5092  -13.9631   24.7024 C   0  0  0  0  0  0  0  0  0  0  0  0
    6.6739  -15.2885   24.6913 N   0  0  0  0  0  0  0  0  0  0  0  0
    9.9975  -17.7842   27.1036 C   0  0  0  0  0  0  0  0  0  0  0  0
    9.2908  -17.5802   28.1523 O   0  0  0  0  0  0  0  0  0  0  0  0
   10.8176  -18.8774   27.1167 O   0  0  0  0  0  0  0  0  0  0  0  0
  2  1  1  0
  2  3  1  0
  3  4  1  6
  5  3  1  0
  5  6  1  1
  7  5  1  0
  8  7  2  0
 10 11  2  0
 10  9  1  0
 12 10  1  0
 13 12  1  6
 13 14  1  0
 14  7  1  0
 15 16  2  0
 15 13  1  0
 17 15  1  0
 18 25  1  0
 18 17  1  0
 18 19  1  6
 20 21  2  0
 20 19  1  0
 22 21  1  0
 23 24  2  0
 23 22  1  0
 24 20  1  0
 25 27  1  0
 26 25  2  0
M  END
$$$$
