INH.pdb
     RDKit          3D

 27 27  0  0  1  0  0  0  0  0999 V2000
    7.1174  -11.7479   18.8883 C   0  0  0  0  0  0  0  0  0  0  0  0
    7.8285  -12.7939   18.1021 C   0  0  0  0  0  0  0  0  0  0  0  0
    8.7685  -13.6127   18.9411 C   0  0  2  0  0  0  0  0  0  0  0  0
    9.7913  -12.7063   19.6150 C   0  0  0  0  0  0  0  0  0  0  0  0
    9.4476  -14.7047   18.1691 C   0  0  2  0  0  0  0  0  0  0  0  0
    8.3337  -15.5488   17.6584 N   0  0  0  0  0  0  0  0  0  0  0  0
   10.2798  -15.6174   18.9753 C   0  0  0  0  0  0  0  0  0  0  0  0
    9.7583  -16.5621   19.6751 O   0  0  0  0  0  0  0  0  0  0  0  0
   12.6217  -19.2390   18.2203 N   0  0  0  0  0  0  0  0  0  0  0  0
   13.0614  -17.8713   17.9657 C   0  0  0  0  0  0  0  0  0  0  0  0
   13.0323  -17.5051   16.7707 O   0  0  0  0  0  0  0  0  0  0  0  0
   13.4926  -17.0330   19.0521 C   0  0  0  0  0  0  0  0  0  0  0  0
   12.4563  -16.4871   19.9716 C   0  0  2  0  0  0  0  0  0  0  0  0
   11.6820  -15.5593   19.0625 N   0  0  0  0  0  0  0  0  0  0  0  0
   12.9442  -15.6843   21.1011 C   0  0  0  0  0  0  0  0  0  0  0  0
   14.0612  -15.0767   20.9272 O   0  0  0  0  0  0  0  0  0  0  0  0
   12.3532  -15.4788   22.3585 N   0  0  0  0  0  0  0  0  0  0  0  0
   12.6496  -16.3069   23.5337 C   0  0  1  0  0  0  0  0  0  0  0  0
   11.8913  -17.5930   23.4873 C   0  0  0  0  0  0  0  0  0  0  0  0
   12.1632  -18.4366   24.6671 C   0  0  0  0  0  0  0  0  0  0  0  0
   13.0206  -18.0982   25.7115 C   0  0  0  0  0  0  0  0  0  0  0  0
   13.0314  -19.1365   26.5956 N   0  0  0  0  0  0  0  0  0  0  0  0
   12.2198  -20.0888   26.1345 C   0  0  0  0  0  0  0  0  0  0  0  0
   11.6974  -19.6724   24.9780 N   0  0  0  0  0  0  0  0  0  0  0  0
   14.0757  -16.5430   23.6932 C   0  0  0  0  0  0  0  0  0  0  0  0
   14.7106  -17.0587   22.7075 O   0  0  0  0  0  0  0  0  0  0  0  0
   14.8045  -16.2572   24.8134 O   0  0  0  0  0  0  0  0  0  0  0  0
  2  1  1  0
  2  3  1  0
  3  4  1  6
  5  3  1  0
  5  6  1  1
  7  5  1  0
  8  7  2  0
 10 11  2  0
 10  9  1  0
 12 10  1  0
 13 12  1  6
 13 14  1  0
 14  7  1  0
 15 16  2  0
 15 13  1  0
 17 15  1  0
 18 25  1  0
 18 17  1  0
 18 19  1  6
 20 21  2  0
 20 19  1  0
 22 21  1  0
 23 24  2  0
 23 22  1  0
 24 20  1  0
 25 27  1  0
 26 25  2  0
M  END
$$$$
