INH.pdb
     RDKit          3D

 27 27  0  0  1  0  0  0  0  0999 V2000
    7.7609  -11.4977   19.2756 C   0  0  0  0  0  0  0  0  0  0  0  0
    7.7797  -12.9524   18.9574 C   0  0  0  0  0  0  0  0  0  0  0  0
    8.2234  -13.7957   20.1193 C   0  0  2  0  0  0  0  0  0  0  0  0
    9.6296  -13.3954   20.5483 C   0  0  0  0  0  0  0  0  0  0  0  0
    8.1472  -15.2676   19.8416 C   0  0  2  0  0  0  0  0  0  0  0  0
    6.7100  -15.5182   19.5487 N   0  0  0  0  0  0  0  0  0  0  0  0
    8.4605  -16.1387   20.9899 C   0  0  0  0  0  0  0  0  0  0  0  0
    7.5738  -16.4305   21.8747 O   0  0  0  0  0  0  0  0  0  0  0  0
   10.0629  -20.7280   23.4044 N   0  0  0  0  0  0  0  0  0  0  0  0
   10.9768  -19.9225   22.6013 C   0  0  0  0  0  0  0  0  0  0  0  0
   12.1885  -20.2132   22.7023 O   0  0  0  0  0  0  0  0  0  0  0  0
   10.4706  -18.8710   21.7607 C   0  0  0  0  0  0  0  0  0  0  0  0
    9.9420  -17.6422   22.4150 C   0  0  2  0  0  0  0  0  0  0  0  0
    9.7146  -16.7260   21.2335 N   0  0  0  0  0  0  0  0  0  0  0  0
   10.8540  -16.9494   23.3351 C   0  0  0  0  0  0  0  0  0  0  0  0
   12.1062  -17.1838   23.1794 O   0  0  0  0  0  0  0  0  0  0  0  0
   10.5488  -16.0509   24.3705 N   0  0  0  0  0  0  0  0  0  0  0  0
   10.0223  -16.4722   25.6744 C   0  0  1  0  0  0  0  0  0  0  0  0
    8.5431  -16.6711   25.6156 C   0  0  0  0  0  0  0  0  0  0  0  0
    7.8143  -15.3881   25.5952 C   0  0  0  0  0  0  0  0  0  0  0  0
    8.4113  -14.1298   25.5697 C   0  0  0  0  0  0  0  0  0  0  0  0
    7.4175  -13.1960   25.5857 N   0  0  0  0  0  0  0  0  0  0  0  0
    6.2454  -13.8311   25.6200 C   0  0  0  0  0  0  0  0  0  0  0  0
    6.4796  -15.1460   25.6259 N   0  0  0  0  0  0  0  0  0  0  0  0
   10.6928  -17.6599   26.1792 C   0  0  0  0  0  0  0  0  0  0  0  0
   10.0182  -18.7470   26.2409 O   0  0  0  0  0  0  0  0  0  0  0  0
   11.9933  -17.7177   26.5952 O   0  0  0  0  0  0  0  0  0  0  0  0
  2  1  1  0
  2  3  1  0
  3  4  1  6
  5  3  1  0
  5  6  1  1
  7  5  1  0
  8  7  2  0
 10 11  2  0
 10  9  1  0
 12 10  1  0
 13 12  1  6
 13 14  1  0
 14  7  1  0
 15 16  2  0
 15 13  1  0
 17 15  1  0
 18 25  1  0
 18 17  1  0
 18 19  1  6
 20 21  2  0
 20 19  1  0
 22 21  1  0
 23 24  2  0
 23 22  1  0
 24 20  1  0
 25 27  1  0
 26 25  2  0
M  END
$$$$
