KRC.pdb
     RDKit          3D

 27 26  0  0  1  0  0  0  0  0999 V2000
   18.5271  -22.7374  -12.2536 N   0  0  0  0  0  0  0  0  0  0  0  0
   18.1698  -22.6467  -13.6492 C   0  0  1  0  0  0  0  0  0  0  0  0
   16.7055  -22.4127  -13.7527 C   0  0  0  0  0  0  0  0  0  0  0  0
   16.0396  -23.5223  -14.5011 C   0  0  0  0  0  0  0  0  0  0  0  0
   16.3143  -24.8668  -13.8876 C   0  0  0  0  0  0  0  0  0  0  0  0
   15.6672  -25.9618  -14.7211 C   0  0  0  0  0  0  0  0  0  0  0  0
   16.1074  -27.2389  -14.1934 N   0  0  0  0  0  0  0  0  0  0  0  0
   18.9757  -21.6238  -14.3655 C   0  0  0  0  0  0  0  0  0  0  0  0
   18.8132  -20.4100  -14.0547 O   0  0  0  0  0  0  0  0  0  0  0  0
   25.3344  -24.7506  -14.9427 N   0  0  0  0  0  0  0  0  0  0  0  0
   24.8008  -23.8088  -15.8690 C   0  0  0  0  0  0  0  0  0  0  0  0
   24.1346  -24.1882  -16.8945 N   0  0  0  0  0  0  0  0  0  0  0  0
   25.0006  -22.4132  -15.6711 N   0  0  0  0  0  0  0  0  0  0  0  0
   24.5440  -21.3894  -16.5830 C   0  0  0  0  0  0  0  0  0  0  0  0
   23.2708  -20.8144  -15.9917 C   0  0  0  0  0  0  0  0  0  0  0  0
   22.0416  -21.4733  -16.4659 C   0  0  0  0  0  0  0  0  0  0  0  0
   20.7533  -20.8612  -16.0015 C   0  0  2  0  0  0  0  0  0  0  0  0
   19.9199  -21.8995  -15.3777 N   0  0  0  0  0  0  0  0  0  0  0  0
   19.9181  -20.2807  -17.0685 C   0  0  0  0  0  0  0  0  0  0  0  0
   19.3684  -21.0431  -17.9104 O   0  0  0  0  0  0  0  0  0  0  0  0
   23.7980  -23.5014  -17.5805 N   0  0  0  0  0  0  0  0  0  0  0  0
   19.6634  -18.9003  -17.2411 C   0  0  2  0  0  0  0  0  0  0  0  0
   18.8081  -18.4419  -18.3579 C   0  0  0  0  0  0  0  0  0  0  0  0
   17.8245  -17.3925  -17.8240 S   0  0  0  0  0  0  0  0  0  0  0  0
   17.5115  -16.1012  -19.0466 C   0  0  0  0  0  0  0  0  0  0  0  0
   19.6333  -17.9331  -19.4558 O   0  0  0  0  0  0  0  0  0  0  0  0
   19.0923  -17.5674  -20.5341 O   0  0  0  0  0  0  0  0  0  0  0  0
  2  1  1  1
  2  3  1  0
  2  8  1  0
  4  5  1  0
  4  3  1  0
  5  6  1  0
  7  6  1  0
  8 18  1  0
  8  9  2  0
 10 11  1  0
 11 12  2  0
 13 14  1  0
 13 11  1  0
 14 15  1  0
 15 16  1  0
 17 16  1  6
 18 17  1  0
 19 17  1  0
 19 21  1  0
 20 19  2  0
 22 23  1  1
 22 21  1  0
 22 25  1  0
 24 23  1  0
 25 27  1  0
 26 25  2  0
M  END
$$$$
