KRC.pdb
     RDKit          3D

 27 26  0  0  1  0  0  0  0  0999 V2000
   21.3467  -18.8576  -16.6170 N   0  0  0  0  0  0  0  0  0  0  0  0
   22.3174  -17.8184  -16.8646 C   0  0  1  0  0  0  0  0  0  0  0  0
   21.7756  -16.5293  -16.3602 C   0  0  0  0  0  0  0  0  0  0  0  0
   20.2903  -16.4756  -16.5211 C   0  0  0  0  0  0  0  0  0  0  0  0
   19.5713  -16.5963  -15.2065 C   0  0  0  0  0  0  0  0  0  0  0  0
   18.0687  -16.5131  -15.4249 C   0  0  0  0  0  0  0  0  0  0  0  0
   17.4566  -17.6237  -14.7212 N   0  0  0  0  0  0  0  0  0  0  0  0
   23.6493  -18.1530  -16.2966 C   0  0  0  0  0  0  0  0  0  0  0  0
   24.5896  -17.3230  -16.4491 O   0  0  0  0  0  0  0  0  0  0  0  0
   22.8457  -21.0203  -10.2095 N   0  0  0  0  0  0  0  0  0  0  0  0
   24.1987  -20.6760   -9.9259 C   0  0  0  0  0  0  0  0  0  0  0  0
   24.6695  -20.7513   -8.7376 N   0  0  0  0  0  0  0  0  0  0  0  0
   25.0625  -20.2362  -10.9686 N   0  0  0  0  0  0  0  0  0  0  0  0
   26.1441  -21.0239  -11.5145 C   0  0  0  0  0  0  0  0  0  0  0  0
   26.3537  -20.5491  -12.9400 C   0  0  0  0  0  0  0  0  0  0  0  0
   25.1129  -20.1438  -13.6227 C   0  0  0  0  0  0  0  0  0  0  0  0
   25.2798  -19.6067  -15.0134 C   0  0  2  0  0  0  0  0  0  0  0  0
   23.9551  -19.3369  -15.5914 N   0  0  0  0  0  0  0  0  0  0  0  0
   25.9388  -20.5234  -15.9612 C   0  0  0  0  0  0  0  0  0  0  0  0
   25.2400  -21.3398  -16.6226 O   0  0  0  0  0  0  0  0  0  0  0  0
   25.6660  -20.5751   -8.5597 N   0  0  0  0  0  0  0  0  0  0  0  0
   27.3301  -20.5730  -16.2100 C   0  0  2  0  0  0  0  0  0  0  0  0
   27.8704  -21.5420  -17.1888 C   0  0  0  0  0  0  0  0  0  0  0  0
   29.3070  -21.1346  -17.5409 S   0  0  0  0  0  0  0  0  0  0  0  0
   30.0659  -22.3139  -18.6781 C   0  0  0  0  0  0  0  0  0  0  0  0
   27.7857  -22.9040  -16.6569 O   0  0  0  0  0  0  0  0  0  0  0  0
   27.8999  -23.1053  -15.4177 O   0  0  0  0  0  0  0  0  0  0  0  0
  2  1  1  1
  2  3  1  0
  2  8  1  0
  4  5  1  0
  4  3  1  0
  5  6  1  0
  7  6  1  0
  8 18  1  0
  8  9  2  0
 10 11  1  0
 11 12  2  0
 13 14  1  0
 13 11  1  0
 14 15  1  0
 15 16  1  0
 17 16  1  1
 18 17  1  0
 19 17  1  0
 19 21  1  0
 20 19  2  0
 22 23  1  1
 22 21  1  0
 22 25  1  0
 24 23  1  0
 25 27  1  0
 26 25  2  0
M  END
$$$$
