KRC.pdb
     RDKit          3D

 27 26  0  0  1  0  0  0  0  0999 V2000
   26.6725  -18.3920  -20.4999 N   0  0  0  0  0  0  0  0  0  0  0  0
   26.3023  -17.5144  -19.4154 C   0  0  1  0  0  0  0  0  0  0  0  0
   25.2192  -16.6095  -19.8823 C   0  0  0  0  0  0  0  0  0  0  0  0
   24.2286  -17.3516  -20.7207 C   0  0  0  0  0  0  0  0  0  0  0  0
   22.8147  -16.9227  -20.4433 C   0  0  0  0  0  0  0  0  0  0  0  0
   21.8579  -17.6470  -21.3773 C   0  0  0  0  0  0  0  0  0  0  0  0
   20.5178  -17.1690  -21.0964 N   0  0  0  0  0  0  0  0  0  0  0  0
   25.9425  -18.2683  -18.1862 C   0  0  0  0  0  0  0  0  0  0  0  0
   25.6715  -19.4974  -18.2970 O   0  0  0  0  0  0  0  0  0  0  0  0
   25.8416  -20.9633  -10.6960 N   0  0  0  0  0  0  0  0  0  0  0  0
   26.1444  -21.4719  -11.9918 C   0  0  0  0  0  0  0  0  0  0  0  0
   25.7281  -22.6225  -12.3692 N   0  0  0  0  0  0  0  0  0  0  0  0
   26.9244  -20.7035  -12.9017 N   0  0  0  0  0  0  0  0  0  0  0  0
   27.2849  -19.3194  -12.6954 C   0  0  0  0  0  0  0  0  0  0  0  0
   26.1233  -18.4856  -13.2022 C   0  0  0  0  0  0  0  0  0  0  0  0
   26.3602  -17.8699  -14.5193 C   0  0  0  0  0  0  0  0  0  0  0  0
   25.6800  -18.5327  -15.6804 C   0  0  2  0  0  0  0  0  0  0  0  0
   25.8776  -17.7178  -16.8881 N   0  0  0  0  0  0  0  0  0  0  0  0
   24.2196  -18.6816  -15.5459 C   0  0  0  0  0  0  0  0  0  0  0  0
   23.4879  -17.6535  -15.5515 O   0  0  0  0  0  0  0  0  0  0  0  0
   25.9566  -22.9780  -13.3057 N   0  0  0  0  0  0  0  0  0  0  0  0
   23.5371  -19.9128  -15.4095 C   0  0  2  0  0  0  0  0  0  0  0  0
   22.0851  -19.9240  -15.1265 C   0  0  0  0  0  0  0  0  0  0  0  0
   21.4676  -21.1680  -15.7784 S   0  0  0  0  0  0  0  0  0  0  0  0
   20.9955  -20.8480  -17.4915 C   0  0  0  0  0  0  0  0  0  0  0  0
   21.8472  -19.8683  -13.6823 O   0  0  0  0  0  0  0  0  0  0  0  0
   22.7935  -20.0871  -12.8786 O   0  0  0  0  0  0  0  0  0  0  0  0
  2  1  1  6
  2  3  1  0
  2  8  1  0
  4  5  1  0
  4  3  1  0
  5  6  1  0
  7  6  1  0
  8 18  1  0
  8  9  2  0
 10 11  1  0
 11 12  2  0
 13 14  1  0
 13 11  1  0
 14 15  1  0
 15 16  1  0
 17 16  1  1
 18 17  1  0
 19 17  1  0
 19 21  1  0
 20 19  2  0
 22 23  1  6
 22 21  1  0
 22 25  1  0
 24 23  1  0
 25 27  1  0
 26 25  2  0
M  END
$$$$
