KRC.pdb
     RDKit          3D

 27 26  0  0  1  0  0  0  0  0999 V2000
   26.9549  -24.2677  -16.0688 N   0  0  0  0  0  0  0  0  0  0  0  0
   26.4411  -22.9362  -16.2847 C   0  0  1  0  0  0  0  0  0  0  0  0
   26.3901  -22.6757  -17.7473 C   0  0  0  0  0  0  0  0  0  0  0  0
   27.7500  -22.3564  -18.2799 C   0  0  0  0  0  0  0  0  0  0  0  0
   27.8560  -20.9330  -18.7515 C   0  0  0  0  0  0  0  0  0  0  0  0
   29.2609  -20.6572  -19.2640 C   0  0  0  0  0  0  0  0  0  0  0  0
   29.2947  -19.2915  -19.7509 N   0  0  0  0  0  0  0  0  0  0  0  0
   25.1338  -22.7271  -15.6095 C   0  0  0  0  0  0  0  0  0  0  0  0
   24.3512  -23.7134  -15.5039 O   0  0  0  0  0  0  0  0  0  0  0  0
   23.2927  -21.1141   -8.5523 N   0  0  0  0  0  0  0  0  0  0  0  0
   24.2180  -20.9434   -9.6220 C   0  0  0  0  0  0  0  0  0  0  0  0
   25.4687  -21.1660   -9.4620 N   0  0  0  0  0  0  0  0  0  0  0  0
   23.7657  -20.5171  -10.9028 N   0  0  0  0  0  0  0  0  0  0  0  0
   22.4734  -19.9198  -11.1511 C   0  0  0  0  0  0  0  0  0  0  0  0
   22.3183  -19.8252  -12.6572 C   0  0  0  0  0  0  0  0  0  0  0  0
   23.5403  -20.1662  -13.4058 C   0  0  0  0  0  0  0  0  0  0  0  0
   23.4458  -21.3718  -14.2934 C   0  0  2  0  0  0  0  0  0  0  0  0
   24.6879  -21.5016  -15.0692 N   0  0  0  0  0  0  0  0  0  0  0  0
   22.3645  -21.3263  -15.2943 C   0  0  0  0  0  0  0  0  0  0  0  0
   22.4504  -20.5241  -16.2645 O   0  0  0  0  0  0  0  0  0  0  0  0
   26.1262  -21.0283  -10.2394 N   0  0  0  0  0  0  0  0  0  0  0  0
   21.2000  -22.1285  -15.2699 C   0  0  2  0  0  0  0  0  0  0  0  0
   20.1955  -22.0036  -16.3488 C   0  0  0  0  0  0  0  0  0  0  0  0
   19.3749  -23.2985  -16.4075 S   0  0  0  0  0  0  0  0  0  0  0  0
   18.8168  -23.7996  -14.7651 C   0  0  0  0  0  0  0  0  0  0  0  0
   19.3624  -20.8183  -16.1343 O   0  0  0  0  0  0  0  0  0  0  0  0
   19.4093  -20.2054  -15.0337 O   0  0  0  0  0  0  0  0  0  0  0  0
  2  1  1  6
  2  3  1  0
  2  8  1  0
  4  5  1  0
  4  3  1  0
  5  6  1  0
  7  6  1  0
  8 18  1  0
  8  9  2  0
 10 11  1  0
 11 12  2  0
 13 14  1  0
 13 11  1  0
 14 15  1  0
 15 16  1  0
 17 16  1  6
 18 17  1  0
 19 17  1  0
 19 21  1  0
 20 19  2  0
 22 23  1  6
 22 21  1  0
 22 25  1  0
 24 23  1  0
 25 27  1  0
 26 25  2  0
M  END
$$$$
