KRC.pdb
     RDKit          3D

 27 26  0  0  1  0  0  0  0  0999 V2000
   16.5197  -24.9119   -3.4993 N   0  0  0  0  0  0  0  0  0  0  0  0
   17.4503  -25.4648   -4.4542 C   0  0  1  0  0  0  0  0  0  0  0  0
   17.5678  -26.9271   -4.2143 C   0  0  0  0  0  0  0  0  0  0  0  0
   18.2993  -27.2015   -2.9398 C   0  0  0  0  0  0  0  0  0  0  0  0
   18.4489  -28.6737   -2.6757 C   0  0  0  0  0  0  0  0  0  0  0  0
   19.2260  -28.8957   -1.3876 C   0  0  0  0  0  0  0  0  0  0  0  0
   19.2768  -30.3240   -1.1414 N   0  0  0  0  0  0  0  0  0  0  0  0
   17.0767  -25.1319   -5.8536 C   0  0  0  0  0  0  0  0  0  0  0  0
   15.8579  -24.9240   -6.1133 O   0  0  0  0  0  0  0  0  0  0  0  0
   20.9906  -23.9145  -13.4520 N   0  0  0  0  0  0  0  0  0  0  0  0
   19.8347  -23.0919  -13.5826 C   0  0  0  0  0  0  0  0  0  0  0  0
   19.3740  -22.7694  -14.7329 N   0  0  0  0  0  0  0  0  0  0  0  0
   19.1628  -22.6069  -12.4250 N   0  0  0  0  0  0  0  0  0  0  0  0
   19.5749  -22.8876  -11.0686 C   0  0  0  0  0  0  0  0  0  0  0  0
   18.4317  -23.6375  -10.4114 C   0  0  0  0  0  0  0  0  0  0  0  0
   18.6538  -23.9343   -8.9857 C   0  0  0  0  0  0  0  0  0  0  0  0
   17.5636  -24.7060   -8.3030 C   0  0  2  0  0  0  0  0  0  0  0  0
   17.9827  -25.0274   -6.9310 N   0  0  0  0  0  0  0  0  0  0  0  0
   17.2342  -26.0021   -8.9233 C   0  0  0  0  0  0  0  0  0  0  0  0
   18.0689  -26.9468   -8.8670 O   0  0  0  0  0  0  0  0  0  0  0  0
   18.5356  -22.1808  -14.8121 N   0  0  0  0  0  0  0  0  0  0  0  0
   16.0262  -26.2974   -9.5967 C   0  0  2  0  0  0  0  0  0  0  0  0
   15.8736  -27.5861  -10.3072 C   0  0  0  0  0  0  0  0  0  0  0  0
   14.4661  -28.1327  -10.0355 S   0  0  0  0  0  0  0  0  0  0  0  0
   13.9878  -27.8921   -8.3111 C   0  0  0  0  0  0  0  0  0  0  0  0
   16.1450  -27.4150  -11.7363 O   0  0  0  0  0  0  0  0  0  0  0  0
   16.2108  -28.4228  -12.4907 O   0  0  0  0  0  0  0  0  0  0  0  0
  2  1  1  1
  2  3  1  0
  2  8  1  0
  4  5  1  0
  4  3  1  0
  5  6  1  0
  7  6  1  0
  8 18  1  0
  8  9  2  0
 10 11  1  0
 11 12  2  0
 13 14  1  0
 13 11  1  0
 14 15  1  0
 15 16  1  0
 17 16  1  6
 18 17  1  0
 19 17  1  0
 19 21  1  0
 20 19  2  0
 22 23  1  1
 22 21  1  0
 22 25  1  0
 24 23  1  0
 25 27  1  0
 26 25  2  0
M  END
$$$$
