KRC.pdb
     RDKit          3D

 27 26  0  0  1  0  0  0  0  0999 V2000
   21.4305  -21.7708  -16.5363 N   0  0  0  0  0  0  0  0  0  0  0  0
   20.9262  -20.5893  -15.8780 C   0  0  1  0  0  0  0  0  0  0  0  0
   19.6037  -20.9055  -15.2774 C   0  0  0  0  0  0  0  0  0  0  0  0
   19.0059  -22.1196  -15.9126 C   0  0  0  0  0  0  0  0  0  0  0  0
   19.2960  -23.3710  -15.1317 C   0  0  0  0  0  0  0  0  0  0  0  0
   18.5434  -24.5472  -15.7339 C   0  0  0  0  0  0  0  0  0  0  0  0
   18.8654  -25.7259  -14.9527 N   0  0  0  0  0  0  0  0  0  0  0  0
   21.8969  -20.0419  -14.8948 C   0  0  0  0  0  0  0  0  0  0  0  0
   21.5719  -19.0070  -14.2470 O   0  0  0  0  0  0  0  0  0  0  0  0
   26.6645  -19.8414   -8.8505 N   0  0  0  0  0  0  0  0  0  0  0  0
   25.5832  -20.6516   -9.3022 C   0  0  0  0  0  0  0  0  0  0  0  0
   24.4990  -20.7505   -8.6284 N   0  0  0  0  0  0  0  0  0  0  0  0
   25.6883  -21.3752  -10.5237 N   0  0  0  0  0  0  0  0  0  0  0  0
   26.8008  -21.2666  -11.4396 C   0  0  0  0  0  0  0  0  0  0  0  0
   26.3388  -20.3860  -12.5852 C   0  0  0  0  0  0  0  0  0  0  0  0
   25.1898  -20.9294  -13.3300 C   0  0  0  0  0  0  0  0  0  0  0  0
   24.1575  -19.9283  -13.7569 C   0  0  2  0  0  0  0  0  0  0  0  0
   23.1688  -20.5894  -14.6212 N   0  0  0  0  0  0  0  0  0  0  0  0
   24.6746  -18.7986  -14.5503 C   0  0  0  0  0  0  0  0  0  0  0  0
   24.5842  -17.6261  -14.0927 O   0  0  0  0  0  0  0  0  0  0  0  0
   23.7030  -21.2850   -8.9974 N   0  0  0  0  0  0  0  0  0  0  0  0
   25.2872  -18.9100  -15.8201 C   0  0  1  0  0  0  0  0  0  0  0  0
   25.8720  -17.7136  -16.4646 C   0  0  0  0  0  0  0  0  0  0  0  0
   27.3751  -17.6772  -16.1597 S   0  0  0  0  0  0  0  0  0  0  0  0
   27.6892  -17.1700  -14.4555 C   0  0  0  0  0  0  0  0  0  0  0  0
   25.5890  -17.7197  -17.9017 O   0  0  0  0  0  0  0  0  0  0  0  0
   24.8316  -18.6005  -18.3915 O   0  0  0  0  0  0  0  0  0  0  0  0
  2  1  1  1
  2  3  1  0
  2  8  1  0
  4  5  1  0
  4  3  1  0
  5  6  1  0
  7  6  1  0
  8 18  1  0
  8  9  2  0
 10 11  1  0
 11 12  2  0
 13 14  1  0
 13 11  1  0
 14 15  1  0
 15 16  1  0
 17 16  1  6
 18 17  1  0
 19 17  1  0
 19 21  1  0
 20 19  2  0
 22 23  1  1
 22 21  1  0
 22 25  1  0
 24 23  1  0
 25 27  1  0
 26 25  2  0
M  END
$$$$
