KRC.pdb
     RDKit          3D

 27 26  0  0  1  0  0  0  0  0999 V2000
   26.8456  -22.7863  -15.2585 N   0  0  0  0  0  0  0  0  0  0  0  0
   26.2678  -21.8570  -16.1998 C   0  0  1  0  0  0  0  0  0  0  0  0
   26.7561  -22.1930  -17.5630 C   0  0  0  0  0  0  0  0  0  0  0  0
   28.2477  -22.2912  -17.5861 C   0  0  0  0  0  0  0  0  0  0  0  0
   28.7754  -22.6063  -18.9580 C   0  0  0  0  0  0  0  0  0  0  0  0
   30.2959  -22.6277  -18.9391 C   0  0  0  0  0  0  0  0  0  0  0  0
   30.7620  -21.2985  -19.2842 N   0  0  0  0  0  0  0  0  0  0  0  0
   24.7852  -21.8171  -16.1051 C   0  0  0  0  0  0  0  0  0  0  0  0
   24.1483  -21.1600  -16.9762 O   0  0  0  0  0  0  0  0  0  0  0  0
   21.7580  -26.9915  -11.9642 N   0  0  0  0  0  0  0  0  0  0  0  0
   20.7082  -26.2146  -12.5335 C   0  0  0  0  0  0  0  0  0  0  0  0
   19.7365  -25.7839  -11.8195 N   0  0  0  0  0  0  0  0  0  0  0  0
   20.7186  -25.8993  -13.9218 N   0  0  0  0  0  0  0  0  0  0  0  0
   21.7886  -26.2511  -14.8271 C   0  0  0  0  0  0  0  0  0  0  0  0
   22.3133  -24.9519  -15.4087 C   0  0  0  0  0  0  0  0  0  0  0  0
   22.0581  -23.7731  -14.5628 C   0  0  0  0  0  0  0  0  0  0  0  0
   22.5492  -22.4634  -15.1048 C   0  0  2  0  0  0  0  0  0  0  0  0
   24.0194  -22.4610  -15.1094 N   0  0  0  0  0  0  0  0  0  0  0  0
   22.1604  -21.2781  -14.3194 C   0  0  0  0  0  0  0  0  0  0  0  0
   22.7562  -21.0293  -13.2352 O   0  0  0  0  0  0  0  0  0  0  0  0
   18.9806  -25.2337  -12.2456 N   0  0  0  0  0  0  0  0  0  0  0  0
   21.1483  -20.3591  -14.6816 C   0  0  2  0  0  0  0  0  0  0  0  0
   20.7982  -19.2493  -13.7682 C   0  0  0  0  0  0  0  0  0  0  0  0
   21.1838  -17.9233  -14.4367 S   0  0  0  0  0  0  0  0  0  0  0  0
   20.2186  -16.5477  -13.7763 C   0  0  0  0  0  0  0  0  0  0  0  0
   19.3782  -19.3094  -13.4144 O   0  0  0  0  0  0  0  0  0  0  0  0
   18.5714  -19.9400  -14.1496 O   0  0  0  0  0  0  0  0  0  0  0  0
  2  1  1  1
  2  3  1  0
  2  8  1  0
  4  5  1  0
  4  3  1  0
  5  6  1  0
  7  6  1  0
  8 18  1  0
  8  9  2  0
 10 11  1  0
 11 12  2  0
 13 14  1  0
 13 11  1  0
 14 15  1  0
 15 16  1  0
 17 16  1  1
 18 17  1  0
 19 17  1  0
 19 21  1  0
 20 19  2  0
 22 23  1  6
 22 21  1  0
 22 25  1  0
 24 23  1  0
 25 27  1  0
 26 25  2  0
M  END
$$$$
