KRC.pdb
     RDKit          3D

 27 26  0  0  1  0  0  0  0  0999 V2000
   18.8348  -22.8035  -14.9643 N   0  0  0  0  0  0  0  0  0  0  0  0
   18.4899  -21.5776  -15.6439 C   0  0  1  0  0  0  0  0  0  0  0  0
   17.2322  -21.0447  -15.0576 C   0  0  0  0  0  0  0  0  0  0  0  0
   16.1059  -22.0100  -15.2440 C   0  0  0  0  0  0  0  0  0  0  0  0
   15.7781  -22.2279  -16.6947 C   0  0  0  0  0  0  0  0  0  0  0  0
   14.5134  -23.0625  -16.8234 C   0  0  0  0  0  0  0  0  0  0  0  0
   14.2094  -23.1911  -18.2356 N   0  0  0  0  0  0  0  0  0  0  0  0
   19.6051  -20.5955  -15.6220 C   0  0  0  0  0  0  0  0  0  0  0  0
   19.3331  -19.3881  -15.3677 O   0  0  0  0  0  0  0  0  0  0  0  0
   24.7676  -25.3118  -15.7166 N   0  0  0  0  0  0  0  0  0  0  0  0
   25.0212  -23.9137  -15.6136 C   0  0  0  0  0  0  0  0  0  0  0  0
   25.5988  -23.2707  -16.5583 N   0  0  0  0  0  0  0  0  0  0  0  0
   24.6342  -23.1967  -14.4461 N   0  0  0  0  0  0  0  0  0  0  0  0
   24.9452  -21.8061  -14.2059 C   0  0  0  0  0  0  0  0  0  0  0  0
   23.6412  -21.0402  -14.3252 C   0  0  0  0  0  0  0  0  0  0  0  0
   23.3524  -20.5618  -15.6882 C   0  0  0  0  0  0  0  0  0  0  0  0
   22.0248  -19.8889  -15.8751 C   0  0  2  0  0  0  0  0  0  0  0  0
   20.9610  -20.9037  -15.8651 N   0  0  0  0  0  0  0  0  0  0  0  0
   21.8644  -19.1692  -17.1515 C   0  0  0  0  0  0  0  0  0  0  0  0
   21.6257  -19.8207  -18.2055 O   0  0  0  0  0  0  0  0  0  0  0  0
   25.7503  -22.2573  -16.4824 N   0  0  0  0  0  0  0  0  0  0  0  0
   21.9528  -17.7667  -17.3106 C   0  0  2  0  0  0  0  0  0  0  0  0
   21.8418  -17.1688  -18.6593 C   0  0  0  0  0  0  0  0  0  0  0  0
   21.0146  -15.8807  -18.5585 S   0  0  0  0  0  0  0  0  0  0  0  0
   20.4227  -15.6084  -16.8746 C   0  0  0  0  0  0  0  0  0  0  0  0
   23.1728  -16.9402  -19.2262 O   0  0  0  0  0  0  0  0  0  0  0  0
   24.2005  -17.1497  -18.5268 O   0  0  0  0  0  0  0  0  0  0  0  0
  2  1  1  1
  2  3  1  0
  2  8  1  0
  4  5  1  0
  4  3  1  0
  5  6  1  0
  7  6  1  0
  8 18  1  0
  8  9  2  0
 10 11  1  0
 11 12  2  0
 13 14  1  0
 13 11  1  0
 14 15  1  0
 15 16  1  0
 17 16  1  6
 18 17  1  0
 19 17  1  0
 19 21  1  0
 20 19  2  0
 22 23  1  1
 22 21  1  0
 22 25  1  0
 24 23  1  0
 25 27  1  0
 26 25  2  0
M  END
$$$$
