KRC.pdb
     RDKit          3D

 27 26  0  0  1  0  0  0  0  0999 V2000
   20.9869  -17.4289  -18.0319 N   0  0  0  0  0  0  0  0  0  0  0  0
   19.9266  -18.3051  -17.5942 C   0  0  1  0  0  0  0  0  0  0  0  0
   19.2399  -18.8579  -18.7910 C   0  0  0  0  0  0  0  0  0  0  0  0
   18.6582  -17.7625  -19.6257 C   0  0  0  0  0  0  0  0  0  0  0  0
   17.3501  -17.2638  -19.0779 C   0  0  0  0  0  0  0  0  0  0  0  0
   16.6866  -16.3325  -20.0804 C   0  0  0  0  0  0  0  0  0  0  0  0
   15.3990  -15.9431  -19.5384 N   0  0  0  0  0  0  0  0  0  0  0  0
   20.4197  -19.3570  -16.6673 C   0  0  0  0  0  0  0  0  0  0  0  0
   19.6212  -20.2747  -16.3259 O   0  0  0  0  0  0  0  0  0  0  0  0
   24.5531  -25.0659  -17.3128 N   0  0  0  0  0  0  0  0  0  0  0  0
   25.1856  -24.2317  -16.3466 C   0  0  0  0  0  0  0  0  0  0  0  0
   25.2085  -24.5491  -15.1063 N   0  0  0  0  0  0  0  0  0  0  0  0
   25.8105  -23.0162  -16.7449 N   0  0  0  0  0  0  0  0  0  0  0  0
   25.1983  -21.7121  -16.6307 C   0  0  0  0  0  0  0  0  0  0  0  0
   24.2428  -21.7800  -15.4544 C   0  0  0  0  0  0  0  0  0  0  0  0
   23.6388  -20.4839  -15.1003 C   0  0  0  0  0  0  0  0  0  0  0  0
   22.1405  -20.4284  -15.1478 C   0  0  2  0  0  0  0  0  0  0  0  0
   21.7234  -19.4165  -16.1295 N   0  0  0  0  0  0  0  0  0  0  0  0
   21.4903  -20.0363  -13.8843 C   0  0  0  0  0  0  0  0  0  0  0  0
   21.3732  -18.8123  -13.6005 O   0  0  0  0  0  0  0  0  0  0  0  0
   25.6496  -23.9276  -14.4174 N   0  0  0  0  0  0  0  0  0  0  0  0
   20.9640  -20.9352  -12.9278 C   0  0  1  0  0  0  0  0  0  0  0  0
   20.4194  -20.4198  -11.6524 C   0  0  0  0  0  0  0  0  0  0  0  0
   21.3575  -19.3267  -11.1243 S   0  0  0  0  0  0  0  0  0  0  0  0
   22.7060  -20.0299  -10.1510 C   0  0  0  0  0  0  0  0  0  0  0  0
   19.0477  -19.9421  -11.8403 O   0  0  0  0  0  0  0  0  0  0  0  0
   18.5565  -19.8753  -12.9994 O   0  0  0  0  0  0  0  0  0  0  0  0
  2  1  1  6
  2  3  1  0
  2  8  1  0
  4  5  1  0
  4  3  1  0
  5  6  1  0
  7  6  1  0
  8 18  1  0
  8  9  2  0
 10 11  1  0
 11 12  2  0
 13 14  1  0
 13 11  1  0
 14 15  1  0
 15 16  1  0
 17 16  1  1
 18 17  1  0
 19 17  1  0
 19 21  1  0
 20 19  2  0
 22 23  1  1
 22 21  1  0
 22 25  1  0
 24 23  1  0
 25 27  1  0
 26 25  2  0
M  END
$$$$
