KRC.pdb
     RDKit          3D

 27 26  0  0  1  0  0  0  0  0999 V2000
   26.9306  -20.4520  -18.2350 N   0  0  0  0  0  0  0  0  0  0  0  0
   26.0788  -19.7059  -17.3398 C   0  0  1  0  0  0  0  0  0  0  0  0
   24.8424  -19.3194  -18.0690 C   0  0  0  0  0  0  0  0  0  0  0  0
   25.1224  -18.2300  -19.0537 C   0  0  0  0  0  0  0  0  0  0  0  0
   24.7625  -18.6269  -20.4583 C   0  0  0  0  0  0  0  0  0  0  0  0
   25.0646  -17.4850  -21.4160 C   0  0  0  0  0  0  0  0  0  0  0  0
   24.0411  -16.4734  -21.2359 N   0  0  0  0  0  0  0  0  0  0  0  0
   25.8056  -20.4486  -16.0819 C   0  0  0  0  0  0  0  0  0  0  0  0
   25.2539  -21.5822  -16.1651 O   0  0  0  0  0  0  0  0  0  0  0  0
   31.0859  -22.8500  -10.7291 N   0  0  0  0  0  0  0  0  0  0  0  0
   30.2158  -21.8552  -10.1973 C   0  0  0  0  0  0  0  0  0  0  0  0
   30.2372  -21.5477   -8.9545 N   0  0  0  0  0  0  0  0  0  0  0  0
   29.2955  -21.1769  -11.0456 N   0  0  0  0  0  0  0  0  0  0  0  0
   29.1900  -21.3958  -12.4701 C   0  0  0  0  0  0  0  0  0  0  0  0
   28.2653  -20.3210  -13.0096 C   0  0  0  0  0  0  0  0  0  0  0  0
   26.8772  -20.4312  -12.5288 C   0  0  0  0  0  0  0  0  0  0  0  0
   25.8519  -20.7712  -13.5696 C   0  0  2  0  0  0  0  0  0  0  0  0
   26.1154  -19.9865  -14.7847 N   0  0  0  0  0  0  0  0  0  0  0  0
   24.4596  -20.4594  -13.1990 C   0  0  0  0  0  0  0  0  0  0  0  0
   24.1876  -19.3325  -12.7007 O   0  0  0  0  0  0  0  0  0  0  0  0
   29.6340  -20.7991   -8.5924 N   0  0  0  0  0  0  0  0  0  0  0  0
   23.3605  -21.3350  -13.3584 C   0  0  1  0  0  0  0  0  0  0  0  0
   21.9916  -20.8635  -13.0543 C   0  0  0  0  0  0  0  0  0  0  0  0
   21.6480  -19.7088  -14.0042 S   0  0  0  0  0  0  0  0  0  0  0  0
   20.0557  -18.9657  -13.5886 C   0  0  0  0  0  0  0  0  0  0  0  0
   21.0386  -21.9718  -13.1476 O   0  0  0  0  0  0  0  0  0  0  0  0
   21.3026  -22.9713  -13.8692 O   0  0  0  0  0  0  0  0  0  0  0  0
  2  1  1  6
  2  3  1  0
  2  8  1  0
  4  5  1  0
  4  3  1  0
  5  6  1  0
  7  6  1  0
  8 18  1  0
  8  9  2  0
 10 11  1  0
 11 12  2  0
 13 14  1  0
 13 11  1  0
 14 15  1  0
 15 16  1  0
 17 16  1  1
 18 17  1  0
 19 17  1  0
 19 21  1  0
 20 19  2  0
 22 23  1  1
 22 21  1  0
 22 25  1  0
 24 23  1  0
 25 27  1  0
 26 25  2  0
M  END
$$$$
