TWS.pdb
     RDKit          3D

 28 29  0  0  1  0  0  0  0  0999 V2000
   27.1453  -17.9469  -14.3218 C   0  0  0  0  0  0  0  0  0  0  0  0
   27.4100  -19.1224  -15.2647 C   0  0  1  0  0  0  0  0  0  0  0  0
   28.1721  -18.7044  -16.3516 O   0  0  0  0  0  0  0  0  0  0  0  0
   28.1338  -20.2358  -14.4877 C   0  0  2  0  0  0  0  0  0  0  0  0
   28.4890  -21.2222  -15.4144 N   0  0  0  0  0  0  0  0  0  0  0  0
   27.2820  -20.6876  -13.3567 C   0  0  0  0  0  0  0  0  0  0  0  0
   26.4528  -21.5752  -13.6391 O   0  0  0  0  0  0  0  0  0  0  0  0
   27.3869  -20.1719  -12.0629 N   0  0  0  0  0  0  0  0  0  0  0  0
   26.6107  -20.4219  -10.8916 C   0  0  1  0  0  0  0  0  0  0  0  0
   27.0745  -19.7651   -9.6162 C   0  0  0  0  0  0  0  0  0  0  0  0
   26.4591  -20.2816   -8.3899 C   0  0  0  0  0  0  0  0  0  0  0  0
   25.2582  -20.9307   -8.1498 C   0  0  0  0  0  0  0  0  0  0  0  0
   25.1094  -21.1840   -6.8409 N   0  0  0  0  0  0  0  0  0  0  0  0
   26.2134  -20.7008   -6.2051 C   0  0  0  0  0  0  0  0  0  0  0  0
   26.5535  -20.7009   -4.8654 C   0  0  0  0  0  0  0  0  0  0  0  0
   27.7361  -20.1458   -4.4318 C   0  0  0  0  0  0  0  0  0  0  0  0
   28.6118  -19.5713   -5.3590 C   0  0  0  0  0  0  0  0  0  0  0  0
   28.2390  -19.5890   -6.6912 C   0  0  0  0  0  0  0  0  0  0  0  0
   27.0564  -20.1432   -7.1329 C   0  0  0  0  0  0  0  0  0  0  0  0
   25.1866  -20.3023  -11.1644 C   0  0  0  0  0  0  0  0  0  0  0  0
   24.7223  -19.1079  -11.2893 O   0  0  0  0  0  0  0  0  0  0  0  0
   22.9500  -23.3847  -12.5771 O   0  0  0  0  0  0  0  0  0  0  0  0
   22.6182  -22.0778  -12.9996 C   0  0  0  0  0  0  0  0  0  0  0  0
   22.9825  -21.1258  -11.9015 C   0  0  2  0  0  0  0  0  0  0  0  0
   24.2704  -21.3885  -11.3003 N   0  0  0  0  0  0  0  0  0  0  0  0
   21.9161  -21.1300  -10.8244 C   0  0  0  0  0  0  0  0  0  0  0  0
   20.5805  -20.9505  -11.0735 O   0  0  0  0  0  0  0  0  0  0  0  0
   22.2803  -21.3093   -9.6131 O   0  0  0  0  0  0  0  0  0  0  0  0
  2  4  1  0
  2  1  1  1
  3  2  1  0
  4  5  1  6
  4  6  1  0
  6  7  2  0
  8  6  1  0
  8  9  1  0
  9 10  1  1
 10 11  1  0
 11 12  2  0
 12 13  1  0
 14 13  1  0
 15 14  2  0
 16 15  1  0
 17 18  1  0
 17 16  2  0
 18 19  2  0
 19 11  1  0
 19 14  1  0
 20  9  1  0
 20 21  2  0
 22 23  1  0
 24 23  1  6
 24 25  1  0
 24 26  1  0
 25 20  1  0
 26 27  1  0
 28 26  2  0
M  END
$$$$
