TWS.pdb
     RDKit          3D

 28 29  0  0  1  0  0  0  0  0999 V2000
   21.8949  -22.8180  -13.0871 C   0  0  0  0  0  0  0  0  0  0  0  0
   23.1576  -22.0072  -12.7890 C   0  0  1  0  0  0  0  0  0  0  0  0
   23.4018  -21.1025  -13.8180 O   0  0  0  0  0  0  0  0  0  0  0  0
   22.9776  -21.2728  -11.4490 C   0  0  2  0  0  0  0  0  0  0  0  0
   21.8236  -20.4892  -11.5594 N   0  0  0  0  0  0  0  0  0  0  0  0
   24.2263  -20.5410  -11.1113 C   0  0  0  0  0  0  0  0  0  0  0  0
   24.1823  -19.3073  -11.2879 O   0  0  0  0  0  0  0  0  0  0  0  0
   25.3766  -21.1683  -10.6270 N   0  0  0  0  0  0  0  0  0  0  0  0
   26.7001  -20.6712  -10.4319 C   0  0  1  0  0  0  0  0  0  0  0  0
   27.4394  -21.1667   -9.2148 C   0  0  0  0  0  0  0  0  0  0  0  0
   27.4019  -20.2704   -8.0553 C   0  0  0  0  0  0  0  0  0  0  0  0
   26.6706  -19.1246   -7.7842 C   0  0  0  0  0  0  0  0  0  0  0  0
   27.0057  -18.6201   -6.5872 N   0  0  0  0  0  0  0  0  0  0  0  0
   27.9650  -19.4305   -6.0585 C   0  0  0  0  0  0  0  0  0  0  0  0
   28.6461  -19.3555   -4.8582 C   0  0  0  0  0  0  0  0  0  0  0  0
   29.5949  -20.2933   -4.5189 C   0  0  0  0  0  0  0  0  0  0  0  0
   29.8774  -21.3420   -5.4004 C   0  0  0  0  0  0  0  0  0  0  0  0
   29.1767  -21.3856   -6.5925 C   0  0  0  0  0  0  0  0  0  0  0  0
   28.2251  -20.4500   -6.9390 C   0  0  0  0  0  0  0  0  0  0  0  0
   27.4636  -20.6968  -11.6701 C   0  0  0  0  0  0  0  0  0  0  0  0
   28.6685  -21.1442  -11.5947 O   0  0  0  0  0  0  0  0  0  0  0  0
   26.9251  -22.4856  -14.8311 O   0  0  0  0  0  0  0  0  0  0  0  0
   28.1366  -21.8849  -14.4213 C   0  0  0  0  0  0  0  0  0  0  0  0
   27.8580  -20.4502  -14.0914 C   0  0  2  0  0  0  0  0  0  0  0  0
   26.9930  -20.2683  -12.9478 N   0  0  0  0  0  0  0  0  0  0  0  0
   27.2608  -19.7398  -15.2898 C   0  0  0  0  0  0  0  0  0  0  0  0
   27.8602  -19.6869  -16.5211 O   0  0  0  0  0  0  0  0  0  0  0  0
   26.1345  -19.1541  -15.1466 O   0  0  0  0  0  0  0  0  0  0  0  0
  2  4  1  0
  2  1  1  6
  3  2  1  0
  4  5  1  6
  4  6  1  0
  6  7  2  0
  8  6  1  0
  8  9  1  0
  9 10  1  1
 10 11  1  0
 11 12  2  0
 12 13  1  0
 14 13  1  0
 15 14  2  0
 16 15  1  0
 17 18  1  0
 17 16  2  0
 18 19  2  0
 19 11  1  0
 19 14  1  0
 20  9  1  0
 20 21  2  0
 22 23  1  0
 24 23  1  6
 24 25  1  0
 24 26  1  0
 25 20  1  0
 26 27  1  0
 28 26  2  0
M  END
$$$$
