TWS.pdb
     RDKit          3D

 28 29  0  0  1  0  0  0  0  0999 V2000
   21.8749  -14.1240  -20.3520 C   0  0  0  0  0  0  0  0  0  0  0  0
   21.3428  -12.9808  -19.4855 C   0  0  1  0  0  0  0  0  0  0  0  0
   20.0345  -12.6731  -19.8466 O   0  0  0  0  0  0  0  0  0  0  0  0
   21.4163  -13.3965  -18.0060 C   0  0  2  0  0  0  0  0  0  0  0  0
   20.6706  -14.5726  -17.8700 N   0  0  0  0  0  0  0  0  0  0  0  0
   20.9924  -12.2592  -17.1481 C   0  0  0  0  0  0  0  0  0  0  0  0
   19.7638  -12.1710  -16.9535 O   0  0  0  0  0  0  0  0  0  0  0  0
   21.8876  -11.3451  -16.5877 N   0  0  0  0  0  0  0  0  0  0  0  0
   21.6604  -10.1868  -15.7856 C   0  0  1  0  0  0  0  0  0  0  0  0
   22.7957   -9.7408  -14.8992 C   0  0  0  0  0  0  0  0  0  0  0  0
   22.5801   -8.4688  -14.2031 C   0  0  0  0  0  0  0  0  0  0  0  0
   21.8445   -8.1337  -13.0771 C   0  0  0  0  0  0  0  0  0  0  0  0
   21.9215   -6.8165  -12.8350 N   0  0  0  0  0  0  0  0  0  0  0  0
   22.7091   -6.2703  -13.8034 C   0  0  0  0  0  0  0  0  0  0  0  0
   23.0994   -4.9614  -14.0151 C   0  0  0  0  0  0  0  0  0  0  0  0
   23.9087   -4.6232  -15.0759 C   0  0  0  0  0  0  0  0  0  0  0  0
   24.3464   -5.6176  -15.9569 C   0  0  0  0  0  0  0  0  0  0  0  0
   23.9363   -6.9165  -15.7145 C   0  0  0  0  0  0  0  0  0  0  0  0
   23.1259   -7.2628  -14.6542 C   0  0  0  0  0  0  0  0  0  0  0  0
   21.0246   -9.1271  -16.5534 C   0  0  0  0  0  0  0  0  0  0  0  0
   21.5447   -8.8543  -17.6992 O   0  0  0  0  0  0  0  0  0  0  0  0
   17.1514   -8.0310  -16.6405 O   0  0  0  0  0  0  0  0  0  0  0  0
   18.0624   -7.7133  -17.6728 C   0  0  0  0  0  0  0  0  0  0  0  0
   19.3758   -7.3607  -17.0440 C   0  0  2  0  0  0  0  0  0  0  0  0
   19.8855   -8.3705  -16.1441 N   0  0  0  0  0  0  0  0  0  0  0  0
   19.2705   -6.0400  -16.3077 C   0  0  0  0  0  0  0  0  0  0  0  0
   19.0525   -4.8373  -16.9274 O   0  0  0  0  0  0  0  0  0  0  0  0
   19.3933   -6.0448  -15.0361 O   0  0  0  0  0  0  0  0  0  0  0  0
  2  4  1  0
  2  1  1  6
  3  2  1  0
  4  5  1  6
  4  6  1  0
  6  7  2  0
  8  6  1  0
  8  9  1  0
  9 10  1  6
 10 11  1  0
 11 12  2  0
 12 13  1  0
 14 13  1  0
 15 14  2  0
 16 15  1  0
 17 18  1  0
 17 16  2  0
 18 19  2  0
 19 11  1  0
 19 14  1  0
 20  9  1  0
 20 21  2  0
 22 23  1  0
 24 23  1  1
 24 25  1  0
 24 26  1  0
 25 20  1  0
 26 27  1  0
 28 26  2  0
M  END
$$$$
