TWS.pdb
     RDKit          3D

 28 29  0  0  1  0  0  0  0  0999 V2000
   26.4205  -21.1723  -18.1228 C   0  0  0  0  0  0  0  0  0  0  0  0
   27.5328  -22.2194  -18.0384 C   0  0  1  0  0  0  0  0  0  0  0  0
   28.3424  -22.1526  -19.1683 O   0  0  0  0  0  0  0  0  0  0  0  0
   28.3567  -21.9744  -16.7623 C   0  0  2  0  0  0  0  0  0  0  0  0
   29.3786  -22.9300  -16.7408 N   0  0  0  0  0  0  0  0  0  0  0  0
   27.4543  -21.9659  -15.5815 C   0  0  0  0  0  0  0  0  0  0  0  0
   27.0889  -23.0904  -15.1853 O   0  0  0  0  0  0  0  0  0  0  0  0
   27.0351  -20.7958  -14.9441 N   0  0  0  0  0  0  0  0  0  0  0  0
   26.2701  -20.6023  -13.7549 C   0  0  1  0  0  0  0  0  0  0  0  0
   26.8035  -19.6042  -12.7587 C   0  0  0  0  0  0  0  0  0  0  0  0
   27.6353  -20.1712  -11.6930 C   0  0  0  0  0  0  0  0  0  0  0  0
   28.9153  -20.7030  -11.6907 C   0  0  0  0  0  0  0  0  0  0  0  0
   29.2472  -21.1349  -10.4648 N   0  0  0  0  0  0  0  0  0  0  0  0
   28.1849  -20.8926   -9.6468 C   0  0  0  0  0  0  0  0  0  0  0  0
   28.0082  -21.1488   -8.3001 C   0  0  0  0  0  0  0  0  0  0  0  0
   26.8336  -20.8208   -7.6618 C   0  0  0  0  0  0  0  0  0  0  0  0
   25.7988  -20.2175   -8.3840 C   0  0  0  0  0  0  0  0  0  0  0  0
   26.0103  -19.9761   -9.7297 C   0  0  0  0  0  0  0  0  0  0  0  0
   27.1840  -20.3017  -10.3758 C   0  0  0  0  0  0  0  0  0  0  0  0
   24.8512  -20.4791  -14.0521 C   0  0  0  0  0  0  0  0  0  0  0  0
   24.5069  -19.5097  -14.8264 O   0  0  0  0  0  0  0  0  0  0  0  0
   21.7118  -23.1785  -13.2451 O   0  0  0  0  0  0  0  0  0  0  0  0
   21.6704  -22.2721  -14.3283 C   0  0  0  0  0  0  0  0  0  0  0  0
   22.4558  -21.0542  -13.9479 C   0  0  2  0  0  0  0  0  0  0  0  0
   23.8195  -21.3333  -13.5585 N   0  0  0  0  0  0  0  0  0  0  0  0
   21.7586  -20.3048  -12.8300 C   0  0  0  0  0  0  0  0  0  0  0  0
   20.4775  -19.8258  -12.9168 O   0  0  0  0  0  0  0  0  0  0  0  0
   22.4001  -20.1051  -11.7434 O   0  0  0  0  0  0  0  0  0  0  0  0
  2  4  1  0
  2  1  1  6
  3  2  1  0
  4  5  1  1
  4  6  1  0
  6  7  2  0
  8  6  1  0
  8  9  1  0
  9 10  1  6
 10 11  1  0
 11 12  2  0
 12 13  1  0
 14 13  1  0
 15 14  2  0
 16 15  1  0
 17 18  1  0
 17 16  2  0
 18 19  2  0
 19 11  1  0
 19 14  1  0
 20  9  1  0
 20 21  2  0
 22 23  1  0
 24 23  1  1
 24 25  1  0
 24 26  1  0
 25 20  1  0
 26 27  1  0
 28 26  2  0
M  END
$$$$
