TWS.pdb
     RDKit          3D

 28 29  0  0  1  0  0  0  0  0999 V2000
   27.9048  -20.3506  -18.5082 C   0  0  0  0  0  0  0  0  0  0  0  0
   27.0090  -20.7247  -17.3257 C   0  0  1  0  0  0  0  0  0  0  0  0
   25.8018  -21.2447  -17.7829 O   0  0  0  0  0  0  0  0  0  0  0  0
   27.7442  -21.7488  -16.4436 C   0  0  2  0  0  0  0  0  0  0  0  0
   27.9045  -22.9109  -17.2063 N   0  0  0  0  0  0  0  0  0  0  0  0
   27.0146  -21.9137  -15.1593 C   0  0  0  0  0  0  0  0  0  0  0  0
   26.3790  -22.9804  -15.0437 O   0  0  0  0  0  0  0  0  0  0  0  0
   27.0279  -20.9580  -14.1408 N   0  0  0  0  0  0  0  0  0  0  0  0
   26.4097  -20.9548  -12.8544 C   0  0  1  0  0  0  0  0  0  0  0  0
   27.0552  -20.1011  -11.7925 C   0  0  0  0  0  0  0  0  0  0  0  0
   26.4510  -20.2006  -10.4605 C   0  0  0  0  0  0  0  0  0  0  0  0
   25.1332  -20.2648  -10.0356 C   0  0  0  0  0  0  0  0  0  0  0  0
   25.0685  -20.3136   -8.6966 N   0  0  0  0  0  0  0  0  0  0  0  0
   26.3468  -20.2799   -8.2261 C   0  0  0  0  0  0  0  0  0  0  0  0
   26.8311  -20.3008   -6.9318 C   0  0  0  0  0  0  0  0  0  0  0  0
   28.1830  -20.2532   -6.6773 C   0  0  0  0  0  0  0  0  0  0  0  0
   29.0857  -20.1828   -7.7434 C   0  0  0  0  0  0  0  0  0  0  0  0
   28.5657  -20.1636   -9.0254 C   0  0  0  0  0  0  0  0  0  0  0  0
   27.2130  -20.2111   -9.2879 C   0  0  0  0  0  0  0  0  0  0  0  0
   24.9651  -20.8189  -12.9613 C   0  0  0  0  0  0  0  0  0  0  0  0
   24.5252  -19.7097  -13.4450 O   0  0  0  0  0  0  0  0  0  0  0  0
   21.0745  -20.0645  -11.2167 O   0  0  0  0  0  0  0  0  0  0  0  0
   22.4592  -20.2801  -11.3977 C   0  0  0  0  0  0  0  0  0  0  0  0
   22.6331  -21.3846  -12.3950 C   0  0  2  0  0  0  0  0  0  0  0  0
   24.0051  -21.8021  -12.5751 N   0  0  0  0  0  0  0  0  0  0  0  0
   22.0518  -20.9812  -13.7355 C   0  0  0  0  0  0  0  0  0  0  0  0
   20.9279  -21.5458  -14.2798 O   0  0  0  0  0  0  0  0  0  0  0  0
   22.6423  -20.0634  -14.3995 O   0  0  0  0  0  0  0  0  0  0  0  0
  2  4  1  0
  2  1  1  6
  3  2  1  0
  4  5  1  6
  4  6  1  0
  6  7  2  0
  8  6  1  0
  8  9  1  0
  9 10  1  1
 10 11  1  0
 11 12  2  0
 12 13  1  0
 14 13  1  0
 15 14  2  0
 16 15  1  0
 17 18  1  0
 17 16  2  0
 18 19  2  0
 19 11  1  0
 19 14  1  0
 20  9  1  0
 20 21  2  0
 22 23  1  0
 24 23  1  1
 24 25  1  0
 24 26  1  0
 25 20  1  0
 26 27  1  0
 28 26  2  0
M  END
$$$$
