TWS.pdb
     RDKit          3D

 28 29  0  0  1  0  0  0  0  0999 V2000
   28.4018  -17.7748  -15.5764 C   0  0  0  0  0  0  0  0  0  0  0  0
   27.3500  -18.6700  -14.9184 C   0  0  1  0  0  0  0  0  0  0  0  0
   26.3606  -19.0048  -15.8381 O   0  0  0  0  0  0  0  0  0  0  0  0
   28.0372  -19.9340  -14.3730 C   0  0  2  0  0  0  0  0  0  0  0  0
   28.5954  -20.6049  -15.4667 N   0  0  0  0  0  0  0  0  0  0  0  0
   27.0687  -20.7155  -13.5606 C   0  0  0  0  0  0  0  0  0  0  0  0
   26.7891  -21.8446  -14.0099 O   0  0  0  0  0  0  0  0  0  0  0  0
   26.5022  -20.2410  -12.3752 N   0  0  0  0  0  0  0  0  0  0  0  0
   25.5546  -20.8356  -11.4891 C   0  0  1  0  0  0  0  0  0  0  0  0
   25.7495  -20.5813  -10.0158 C   0  0  0  0  0  0  0  0  0  0  0  0
   27.0930  -20.8712   -9.5058 C   0  0  0  0  0  0  0  0  0  0  0  0
   28.1268  -21.6563   -9.9918 C   0  0  0  0  0  0  0  0  0  0  0  0
   29.1704  -21.6410   -9.1492 N   0  0  0  0  0  0  0  0  0  0  0  0
   28.8317  -20.8450   -8.0965 C   0  0  0  0  0  0  0  0  0  0  0  0
   29.5420  -20.5015   -6.9617 C   0  0  0  0  0  0  0  0  0  0  0  0
   28.9991  -19.6724   -6.0065 C   0  0  0  0  0  0  0  0  0  0  0  0
   27.7073  -19.1659   -6.1833 C   0  0  0  0  0  0  0  0  0  0  0  0
   27.0257  -19.5305   -7.3307 C   0  0  0  0  0  0  0  0  0  0  0  0
   27.5630  -20.3604   -8.2917 C   0  0  0  0  0  0  0  0  0  0  0  0
   24.1936  -20.6565  -11.9711 C   0  0  0  0  0  0  0  0  0  0  0  0
   23.6814  -19.4839  -11.8280 O   0  0  0  0  0  0  0  0  0  0  0  0
   22.4484  -22.2722  -15.1669 O   0  0  0  0  0  0  0  0  0  0  0  0
   21.5218  -22.2127  -14.1018 C   0  0  0  0  0  0  0  0  0  0  0  0
   22.0724  -21.2930  -13.0550 C   0  0  2  0  0  0  0  0  0  0  0  0
   23.3864  -21.6639  -12.5803 N   0  0  0  0  0  0  0  0  0  0  0  0
   21.1211  -21.2035  -11.8783 C   0  0  0  0  0  0  0  0  0  0  0  0
   21.4973  -21.4101  -10.5768 O   0  0  0  0  0  0  0  0  0  0  0  0
   19.8970  -20.9211  -12.1101 O   0  0  0  0  0  0  0  0  0  0  0  0
  2  4  1  0
  2  1  1  6
  3  2  1  0
  4  5  1  6
  4  6  1  0
  6  7  2  0
  8  6  1  0
  8  9  1  0
  9 10  1  1
 10 11  1  0
 11 12  2  0
 12 13  1  0
 14 13  1  0
 15 14  2  0
 16 15  1  0
 17 18  1  0
 17 16  2  0
 18 19  2  0
 19 11  1  0
 19 14  1  0
 20  9  1  0
 20 21  2  0
 22 23  1  0
 24 23  1  6
 24 25  1  0
 24 26  1  0
 25 20  1  0
 26 27  1  0
 28 26  2  0
M  END
$$$$
