TWS.pdb
     RDKit          3D

 28 29  0  0  1  0  0  0  0  0999 V2000
   26.9009  -19.8853  -17.7137 C   0  0  0  0  0  0  0  0  0  0  0  0
   27.8568  -21.0076  -18.1230 C   0  0  1  0  0  0  0  0  0  0  0  0
   28.5940  -20.6272  -19.2404 O   0  0  0  0  0  0  0  0  0  0  0  0
   28.7869  -21.3305  -16.9407 C   0  0  2  0  0  0  0  0  0  0  0  0
   29.6943  -22.2999  -17.3820 N   0  0  0  0  0  0  0  0  0  0  0  0
   27.9724  -21.6999  -15.7536 C   0  0  0  0  0  0  0  0  0  0  0  0
   27.5706  -22.8802  -15.7327 O   0  0  0  0  0  0  0  0  0  0  0  0
   27.6690  -20.8073  -14.7230 N   0  0  0  0  0  0  0  0  0  0  0  0
   27.0015  -21.0099  -13.4779 C   0  0  1  0  0  0  0  0  0  0  0  0
   27.3772  -20.0857  -12.3474 C   0  0  0  0  0  0  0  0  0  0  0  0
   26.5864  -20.2450  -11.1233 C   0  0  0  0  0  0  0  0  0  0  0  0
   25.2212  -20.3260  -10.8977 C   0  0  0  0  0  0  0  0  0  0  0  0
   24.9629  -20.4360   -9.5860 N   0  0  0  0  0  0  0  0  0  0  0  0
   26.1591  -20.4265   -8.9337 C   0  0  0  0  0  0  0  0  0  0  0  0
   26.4504  -20.5078   -7.5851 C   0  0  0  0  0  0  0  0  0  0  0  0
   27.7508  -20.4746   -7.1349 C   0  0  0  0  0  0  0  0  0  0  0  0
   28.7984  -20.3571   -8.0542 C   0  0  0  0  0  0  0  0  0  0  0  0
   28.4700  -20.2781   -9.3959 C   0  0  0  0  0  0  0  0  0  0  0  0
   27.1701  -20.3108   -9.8541 C   0  0  0  0  0  0  0  0  0  0  0  0
   25.5720  -21.2020  -13.6683 C   0  0  0  0  0  0  0  0  0  0  0  0
   24.9529  -20.2935  -14.3384 O   0  0  0  0  0  0  0  0  0  0  0  0
   24.0885  -24.6031  -14.7096 O   0  0  0  0  0  0  0  0  0  0  0  0
   23.1373  -23.9826  -13.8689 C   0  0  0  0  0  0  0  0  0  0  0  0
   23.4984  -22.5338  -13.7452 C   0  0  2  0  0  0  0  0  0  0  0  0
   24.8065  -22.3015  -13.1757 N   0  0  0  0  0  0  0  0  0  0  0  0
   22.4569  -21.7988  -12.9251 C   0  0  0  0  0  0  0  0  0  0  0  0
   21.1154  -21.8159  -13.2048 O   0  0  0  0  0  0  0  0  0  0  0  0
   22.8493  -21.1218  -11.9152 O   0  0  0  0  0  0  0  0  0  0  0  0
  2  4  1  0
  2  1  1  1
  3  2  1  0
  4  5  1  6
  4  6  1  0
  6  7  2  0
  8  6  1  0
  8  9  1  0
  9 10  1  1
 10 11  1  0
 11 12  2  0
 12 13  1  0
 14 13  1  0
 15 14  2  0
 16 15  1  0
 17 18  1  0
 17 16  2  0
 18 19  2  0
 19 11  1  0
 19 14  1  0
 20  9  1  0
 20 21  2  0
 22 23  1  0
 24 23  1  1
 24 25  1  0
 24 26  1  0
 25 20  1  0
 26 27  1  0
 28 26  2  0
M  END
$$$$
