TWS.pdb
     RDKit          3D

 28 29  0  0  1  0  0  0  0  0999 V2000
   19.9923  -12.2715  -22.0770 C   0  0  0  0  0  0  0  0  0  0  0  0
   19.5230  -11.4019  -20.9089 C   0  0  1  0  0  0  0  0  0  0  0  0
   18.1865  -11.0521  -21.0770 O   0  0  0  0  0  0  0  0  0  0  0  0
   19.7224  -12.1767  -19.5947 C   0  0  2  0  0  0  0  0  0  0  0  0
   18.9921  -13.3655  -19.7014 N   0  0  0  0  0  0  0  0  0  0  0  0
   19.3718  -11.3034  -18.4443 C   0  0  0  0  0  0  0  0  0  0  0  0
   18.1660  -11.3038  -18.1264 O   0  0  0  0  0  0  0  0  0  0  0  0
   20.3086  -10.5318  -17.7529 N   0  0  0  0  0  0  0  0  0  0  0  0
   20.1548   -9.6493  -16.6419 C   0  0  1  0  0  0  0  0  0  0  0  0
   21.3373   -9.5087  -15.7171 C   0  0  0  0  0  0  0  0  0  0  0  0
   21.1487   -8.5760  -14.6019 C   0  0  0  0  0  0  0  0  0  0  0  0
   20.5374   -8.7107  -13.3653 C   0  0  0  0  0  0  0  0  0  0  0  0
   20.5832   -7.5553  -12.6851 N   0  0  0  0  0  0  0  0  0  0  0  0
   21.2253   -6.6460  -13.4709 C   0  0  0  0  0  0  0  0  0  0  0  0
   21.5286   -5.3164  -13.2463 C   0  0  0  0  0  0  0  0  0  0  0  0
   22.1906   -4.5681  -14.1931 C   0  0  0  0  0  0  0  0  0  0  0  0
   22.5651   -5.1591  -15.4043 C   0  0  0  0  0  0  0  0  0  0  0  0
   22.2453   -6.4916  -15.5949 C   0  0  0  0  0  0  0  0  0  0  0  0
   21.5826   -7.2473  -14.6513 C   0  0  0  0  0  0  0  0  0  0  0  0
   19.5328   -8.3966  -17.0426 C   0  0  0  0  0  0  0  0  0  0  0  0
   19.9550   -7.8684  -18.1383 O   0  0  0  0  0  0  0  0  0  0  0  0
   16.2789   -4.9785  -17.3515 O   0  0  0  0  0  0  0  0  0  0  0  0
   16.5734   -6.2718  -16.8643 C   0  0  0  0  0  0  0  0  0  0  0  0
   18.0630   -6.4287  -16.8277 C   0  0  2  0  0  0  0  0  0  0  0  0
   18.5060   -7.7102  -16.3269 N   0  0  0  0  0  0  0  0  0  0  0  0
   18.6896   -5.3235  -16.0009 C   0  0  0  0  0  0  0  0  0  0  0  0
   18.6491   -3.9977  -16.3453 O   0  0  0  0  0  0  0  0  0  0  0  0
   19.2927   -5.6434  -14.9211 O   0  0  0  0  0  0  0  0  0  0  0  0
  2  4  1  0
  2  1  1  6
  3  2  1  0
  4  5  1  6
  4  6  1  0
  6  7  2  0
  8  6  1  0
  8  9  1  0
  9 10  1  6
 10 11  1  0
 11 12  2  0
 12 13  1  0
 14 13  1  0
 15 14  2  0
 16 15  1  0
 17 18  1  0
 17 16  2  0
 18 19  2  0
 19 11  1  0
 19 14  1  0
 20  9  1  0
 20 21  2  0
 22 23  1  0
 24 23  1  1
 24 25  1  0
 24 26  1  0
 25 20  1  0
 26 27  1  0
 28 26  2  0
M  END
$$$$
