TWS.pdb
     RDKit          3D

 28 29  0  0  1  0  0  0  0  0999 V2000
   11.3386  -16.2135    5.7956 C   0  0  0  0  0  0  0  0  0  0  0  0
   11.6343  -15.0329    4.8684 C   0  0  1  0  0  0  0  0  0  0  0  0
   10.5133  -14.2156    4.7587 O   0  0  0  0  0  0  0  0  0  0  0  0
   12.8314  -14.2440    5.4269 C   0  0  2  0  0  0  0  0  0  0  0  0
   12.9007  -13.0408    4.7160 N   0  0  0  0  0  0  0  0  0  0  0  0
   14.0507  -15.0926    5.3823 C   0  0  0  0  0  0  0  0  0  0  0  0
   14.1783  -15.7838    4.3523 O   0  0  0  0  0  0  0  0  0  0  0  0
   14.9996  -15.1273    6.4067 N   0  0  0  0  0  0  0  0  0  0  0  0
   16.2484  -15.8117    6.5007 C   0  0  1  0  0  0  0  0  0  0  0  0
   17.4159  -15.0242    7.0394 C   0  0  0  0  0  0  0  0  0  0  0  0
   17.9017  -13.9530    6.1643 C   0  0  0  0  0  0  0  0  0  0  0  0
   18.0860  -12.5941    6.3659 C   0  0  0  0  0  0  0  0  0  0  0  0
   18.5263  -12.0037    5.2447 N   0  0  0  0  0  0  0  0  0  0  0  0
   18.6344  -12.9710    4.2912 C   0  0  0  0  0  0  0  0  0  0  0  0
   19.0359  -12.8934    2.9709 C   0  0  0  0  0  0  0  0  0  0  0  0
   19.0673  -14.0125    2.1701 C   0  0  0  0  0  0  0  0  0  0  0  0
   18.6879  -15.2514    2.6971 C   0  0  0  0  0  0  0  0  0  0  0  0
   18.2917  -15.2918    4.0221 C   0  0  0  0  0  0  0  0  0  0  0  0
   18.2578  -14.1752    4.8302 C   0  0  0  0  0  0  0  0  0  0  0  0
   16.0833  -17.1391    7.0730 C   0  0  0  0  0  0  0  0  0  0  0  0
   15.3236  -17.2295    8.1086 O   0  0  0  0  0  0  0  0  0  0  0  0
   15.9964  -21.8886    7.1842 O   0  0  0  0  0  0  0  0  0  0  0  0
   16.4000  -20.7810    6.4052 C   0  0  0  0  0  0  0  0  0  0  0  0
   16.4222  -19.5717    7.2895 C   0  0  2  0  0  0  0  0  0  0  0  0
   16.6903  -18.3366    6.5881 N   0  0  0  0  0  0  0  0  0  0  0  0
   17.4390  -19.7486    8.3995 C   0  0  0  0  0  0  0  0  0  0  0  0
   17.2168  -20.4999    9.5240 O   0  0  0  0  0  0  0  0  0  0  0  0
   18.5688  -19.1635    8.2842 O   0  0  0  0  0  0  0  0  0  0  0  0
  2  4  1  0
  2  1  1  1
  3  2  1  0
  4  5  1  6
  4  6  1  0
  6  7  2  0
  8  6  1  0
  8  9  1  0
  9 10  1  1
 10 11  1  0
 11 12  2  0
 12 13  1  0
 14 13  1  0
 15 14  2  0
 16 15  1  0
 17 18  1  0
 17 16  2  0
 18 19  2  0
 19 11  1  0
 19 14  1  0
 20  9  1  0
 20 21  2  0
 22 23  1  0
 24 23  1  6
 24 25  1  0
 24 26  1  0
 25 20  1  0
 26 27  1  0
 28 26  2  0
M  END
$$$$
