LRY.pdb
     RDKit          3D

 32 32  0  0  1  0  0  0  0  0999 V2000
   24.7098  -22.2432  -14.9443 C   0  0  0  0  0  0  0  0  0  0  0  0
   24.9199  -21.7628  -16.3788 C   0  0  2  0  0  0  0  0  0  0  0  0
   23.7798  -20.8208  -16.6778 C   0  0  0  0  0  0  0  0  0  0  0  0
   24.9965  -22.9365  -17.3266 C   0  0  0  0  0  0  0  0  0  0  0  0
   26.0910  -23.8459  -16.8579 C   0  0  2  0  0  0  0  0  0  0  0  0
   27.3828  -23.2055  -16.9760 N   0  0  0  0  0  0  0  0  0  0  0  0
   26.1125  -25.1451  -17.5268 C   0  0  0  0  0  0  0  0  0  0  0  0
   26.0510  -25.2002  -18.7780 O   0  0  0  0  0  0  0  0  0  0  0  0
   32.8810  -27.8881  -17.2908 N   0  0  0  0  0  0  0  0  0  0  0  0
   31.9814  -28.6447  -16.4845 C   0  0  0  0  0  0  0  0  0  0  0  0
   32.4057  -29.1970  -15.4121 N   0  0  0  0  0  0  0  0  0  0  0  0
   30.6303  -28.7744  -16.8819 N   0  0  0  0  0  0  0  0  0  0  0  0
   30.0684  -28.0056  -17.9848 C   0  0  0  0  0  0  0  0  0  0  0  0
   28.7598  -27.3883  -17.6049 C   0  0  0  0  0  0  0  0  0  0  0  0
   27.5704  -28.2877  -17.6951 C   0  0  0  0  0  0  0  0  0  0  0  0
   26.2439  -27.6698  -17.4838 C   0  0  2  0  0  0  0  0  0  0  0  0
   26.2014  -26.3989  -16.8395 N   0  0  0  0  0  0  0  0  0  0  0  0
   25.4841  -28.6059  -16.5640 C   0  0  0  0  0  0  0  0  0  0  0  0
   25.8560  -28.8283  -15.3880 O   0  0  0  0  0  0  0  0  0  0  0  0
   31.8477  -29.7653  -14.7501 O   0  0  0  0  0  0  0  0  0  0  0  0
   26.6047  -36.4056  -19.1553 C   0  0  0  0  0  0  0  0  0  0  0  0
   26.4597  -35.0683  -18.8568 C   0  0  0  0  0  0  0  0  0  0  0  0
   27.2050  -34.0718  -19.4507 C   0  0  0  0  0  0  0  0  0  0  0  0
   26.9958  -32.7550  -19.0933 C   0  0  0  0  0  0  0  0  0  0  0  0
   26.0558  -32.3702  -18.1479 C   0  0  0  0  0  0  0  0  0  0  0  0
   25.8397  -30.9555  -17.7652 C   0  0  1  0  0  0  0  0  0  0  0  0
   24.3911  -30.6587  -17.4583 N   0  0  0  0  0  0  0  0  0  0  0  0
   24.3122  -29.2655  -17.0183 C   0  0  0  0  0  0  0  0  0  0  0  0
   23.8262  -31.5233  -16.4094 O   0  0  0  0  0  0  0  0  0  0  0  0
   22.7728  -32.1923  -16.5567 C   0  0  0  0  0  0  0  0  0  0  0  0
   25.3184  -33.3680  -17.5620 C   0  0  0  0  0  0  0  0  0  0  0  0
   25.5095  -34.6868  -17.9023 O   0  0  0  0  0  0  0  0  0  0  0  0
  2  1  1  1
  2  3  1  0
  4  5  1  0
  4  2  1  0
  5  6  1  6
  7  8  2  0
  7  5  1  0
  9 10  1  0
 10 12  1  0
 10 11  2  0
 12 13  1  0
 13 14  1  0
 14 15  1  0
 16 15  1  1
 16 18  1  0
 16 17  1  0
 17  7  1  0
 18 27  1  0
 19 18  2  0
 21 20  1  0
 22 21  2  0
 23 22  1  0
 24 30  1  0
 24 23  2  0
 25 24  1  0
 26 25  1  6
 27 26  1  0
 28 26  1  0
 29 28  2  0
 30 31  2  0
 31 21  1  0
 32 28  1  0
M  END
$$$$
