LRY.pdb
     RDKit          3D

 32 32  0  0  1  0  0  0  0  0999 V2000
   25.7531  -13.6015  -15.9752 C   0  0  0  0  0  0  0  0  0  0  0  0
   25.3003  -13.3078  -17.4040 C   0  0  2  0  0  0  0  0  0  0  0  0
   26.5597  -13.1299  -18.2157 C   0  0  0  0  0  0  0  0  0  0  0  0
   24.3878  -12.1044  -17.4356 C   0  0  0  0  0  0  0  0  0  0  0  0
   23.1382  -12.4447  -16.6824 C   0  0  2  0  0  0  0  0  0  0  0  0
   22.4813  -13.5961  -17.2617 N   0  0  0  0  0  0  0  0  0  0  0  0
   22.1940  -11.3356  -16.5642 C   0  0  0  0  0  0  0  0  0  0  0  0
   22.0827  -10.5123  -17.5034 O   0  0  0  0  0  0  0  0  0  0  0  0
   15.3529  -12.0904  -13.1836 N   0  0  0  0  0  0  0  0  0  0  0  0
   15.1679  -12.0742  -14.5969 C   0  0  0  0  0  0  0  0  0  0  0  0
   13.9890  -11.9580  -15.0787 N   0  0  0  0  0  0  0  0  0  0  0  0
   16.2917  -12.1869  -15.4481 N   0  0  0  0  0  0  0  0  0  0  0  0
   17.6535  -11.9998  -14.9645 C   0  0  0  0  0  0  0  0  0  0  0  0
   17.9349  -10.5586  -14.6789 C   0  0  0  0  0  0  0  0  0  0  0  0
   19.3366  -10.2421  -14.2707 C   0  0  0  0  0  0  0  0  0  0  0  0
   20.3389  -10.1194  -15.3507 C   0  0  2  0  0  0  0  0  0  0  0  0
   21.3602  -11.1114  -15.4210 N   0  0  0  0  0  0  0  0  0  0  0  0
   21.0704   -8.8147  -15.1010 C   0  0  0  0  0  0  0  0  0  0  0  0
   22.0398   -8.7374  -14.3103 O   0  0  0  0  0  0  0  0  0  0  0  0
   13.7370  -11.8996  -16.0815 O   0  0  0  0  0  0  0  0  0  0  0  0
   22.9369   -0.1559  -15.5758 C   0  0  0  0  0  0  0  0  0  0  0  0
   22.5133   -1.4408  -15.8366 C   0  0  0  0  0  0  0  0  0  0  0  0
   23.3245   -2.4121  -16.3841 C   0  0  0  0  0  0  0  0  0  0  0  0
   22.8198   -3.6763  -16.6134 C   0  0  0  0  0  0  0  0  0  0  0  0
   21.5118   -4.0315  -16.3167 C   0  0  0  0  0  0  0  0  0  0  0  0
   20.9749   -5.3888  -16.5700 C   0  0  1  0  0  0  0  0  0  0  0  0
   21.3737   -6.3733  -15.4965 N   0  0  0  0  0  0  0  0  0  0  0  0
   20.6699   -7.6271  -15.7674 C   0  0  0  0  0  0  0  0  0  0  0  0
   21.0390   -5.9226  -14.1357 O   0  0  0  0  0  0  0  0  0  0  0  0
   19.8978   -6.0495  -13.6255 C   0  0  0  0  0  0  0  0  0  0  0  0
   20.7115   -3.0592  -15.7721 C   0  0  0  0  0  0  0  0  0  0  0  0
   21.1926   -1.7928  -15.5348 O   0  0  0  0  0  0  0  0  0  0  0  0
  2  1  1  1
  2  3  1  0
  4  5  1  0
  4  2  1  0
  5  6  1  6
  7  8  2  0
  7  5  1  0
  9 10  1  0
 10 12  1  0
 10 11  2  0
 12 13  1  0
 13 14  1  0
 14 15  1  0
 16 15  1  1
 16 18  1  0
 16 17  1  0
 17  7  1  0
 18 27  1  0
 19 18  2  0
 21 20  1  0
 22 21  2  0
 23 22  1  0
 24 30  1  0
 24 23  2  0
 25 24  1  0
 26 25  1  6
 27 26  1  0
 28 26  1  0
 29 28  2  0
 30 31  2  0
 31 21  1  0
 32 28  1  0
M  END
$$$$
