LRY.pdb
     RDKit          3D

 32 32  0  0  1  0  0  0  0  0999 V2000
   26.6188  -14.6805  -14.7560 C   0  0  0  0  0  0  0  0  0  0  0  0
   26.0068  -14.5011  -16.1438 C   0  0  2  0  0  0  0  0  0  0  0  0
   25.3710  -13.1328  -16.1490 C   0  0  0  0  0  0  0  0  0  0  0  0
   25.0355  -15.6182  -16.4447 C   0  0  0  0  0  0  0  0  0  0  0  0
   25.7626  -16.9207  -16.3059 C   0  0  2  0  0  0  0  0  0  0  0  0
   26.7772  -17.0591  -17.3279 N   0  0  0  0  0  0  0  0  0  0  0  0
   24.8893  -18.0925  -16.3046 C   0  0  0  0  0  0  0  0  0  0  0  0
   24.0308  -18.2279  -17.2083 O   0  0  0  0  0  0  0  0  0  0  0  0
   27.0529  -24.9359  -17.3351 N   0  0  0  0  0  0  0  0  0  0  0  0
   25.7150  -25.3805  -17.1251 C   0  0  0  0  0  0  0  0  0  0  0  0
   25.2984  -26.4336  -17.7190 N   0  0  0  0  0  0  0  0  0  0  0  0
   24.8655  -24.6502  -16.2619 N   0  0  0  0  0  0  0  0  0  0  0  0
   25.2894  -23.4125  -15.6202 C   0  0  0  0  0  0  0  0  0  0  0  0
   24.1511  -22.7528  -14.9083 C   0  0  0  0  0  0  0  0  0  0  0  0
   24.4210  -21.3766  -14.3935 C   0  0  0  0  0  0  0  0  0  0  0  0
   24.0572  -20.2468  -15.2751 C   0  0  2  0  0  0  0  0  0  0  0  0
   24.9421  -19.1300  -15.3181 N   0  0  0  0  0  0  0  0  0  0  0  0
   22.7503  -19.6963  -14.7378 C   0  0  0  0  0  0  0  0  0  0  0  0
   22.6950  -19.0362  -13.6738 O   0  0  0  0  0  0  0  0  0  0  0  0
   24.3569  -26.8566  -17.6338 O   0  0  0  0  0  0  0  0  0  0  0  0
   18.8883  -19.3863  -21.1158 C   0  0  0  0  0  0  0  0  0  0  0  0
   19.0639  -19.1162  -19.7761 C   0  0  0  0  0  0  0  0  0  0  0  0
   18.0394  -19.1479  -18.8537 C   0  0  0  0  0  0  0  0  0  0  0  0
   18.3021  -18.8638  -17.5286 C   0  0  0  0  0  0  0  0  0  0  0  0
   19.5687  -18.5408  -17.0632 C   0  0  0  0  0  0  0  0  0  0  0  0
   19.8429  -18.2321  -15.6406 C   0  0  1  0  0  0  0  0  0  0  0  0
   20.2737  -19.4518  -14.8613 N   0  0  0  0  0  0  0  0  0  0  0  0
   21.5353  -19.9178  -15.4375 C   0  0  0  0  0  0  0  0  0  0  0  0
   19.2946  -20.5500  -14.9050 O   0  0  0  0  0  0  0  0  0  0  0  0
   19.5120  -21.6490  -15.4742 C   0  0  0  0  0  0  0  0  0  0  0  0
   20.5823  -18.5116  -17.9875 C   0  0  0  0  0  0  0  0  0  0  0  0
   20.3442  -18.7911  -19.3130 O   0  0  0  0  0  0  0  0  0  0  0  0
  2  1  1  1
  2  3  1  0
  4  5  1  0
  4  2  1  0
  5  6  1  6
  7  8  2  0
  7  5  1  0
  9 10  1  0
 10 12  1  0
 10 11  2  0
 12 13  1  0
 13 14  1  0
 14 15  1  0
 16 15  1  1
 16 18  1  0
 16 17  1  0
 17  7  1  0
 18 27  1  0
 19 18  2  0
 21 20  1  0
 22 21  2  0
 23 22  1  0
 24 30  1  0
 24 23  2  0
 25 24  1  0
 26 25  1  1
 27 26  1  0
 28 26  1  0
 29 28  2  0
 30 31  2  0
 31 21  1  0
 32 28  1  0
M  END
$$$$
