LRY.pdb
     RDKit          3D

 32 32  0  0  1  0  0  0  0  0999 V2000
   28.2657  -17.2037  -15.1572 C   0  0  0  0  0  0  0  0  0  0  0  0
   27.9570  -18.0315  -16.4030 C   0  0  2  0  0  0  0  0  0  0  0  0
   28.9019  -17.5466  -17.4747 C   0  0  0  0  0  0  0  0  0  0  0  0
   26.5000  -17.9012  -16.7801 C   0  0  0  0  0  0  0  0  0  0  0  0
   26.2456  -18.7716  -17.9727 C   0  0  2  0  0  0  0  0  0  0  0  0
   26.4234  -18.0305  -19.2024 N   0  0  0  0  0  0  0  0  0  0  0  0
   24.9379  -19.4239  -17.9652 C   0  0  0  0  0  0  0  0  0  0  0  0
   23.9319  -18.8027  -18.3824 O   0  0  0  0  0  0  0  0  0  0  0  0
   25.6902  -25.5636  -16.5837 N   0  0  0  0  0  0  0  0  0  0  0  0
   24.3170  -25.9360  -16.6701 C   0  0  0  0  0  0  0  0  0  0  0  0
   23.7714  -26.5682  -15.7016 N   0  0  0  0  0  0  0  0  0  0  0  0
   23.5756  -25.6009  -17.8270 N   0  0  0  0  0  0  0  0  0  0  0  0
   24.1413  -24.8030  -18.9072 C   0  0  0  0  0  0  0  0  0  0  0  0
   24.3694  -23.3890  -18.4756 C   0  0  0  0  0  0  0  0  0  0  0  0
   23.2373  -22.7461  -17.7431 C   0  0  0  0  0  0  0  0  0  0  0  0
   23.4240  -21.3426  -17.3172 C   0  0  2  0  0  0  0  0  0  0  0  0
   24.7121  -20.7610  -17.5029 N   0  0  0  0  0  0  0  0  0  0  0  0
   23.1922  -21.3220  -15.8187 C   0  0  0  0  0  0  0  0  0  0  0  0
   24.1017  -21.5988  -15.0020 O   0  0  0  0  0  0  0  0  0  0  0  0
   22.7819  -26.8677  -15.6420 O   0  0  0  0  0  0  0  0  0  0  0  0
   22.0634  -19.1462   -7.6986 C   0  0  0  0  0  0  0  0  0  0  0  0
   22.1434  -19.2868   -9.0669 C   0  0  0  0  0  0  0  0  0  0  0  0
   21.1485  -18.8828   -9.9319 C   0  0  0  0  0  0  0  0  0  0  0  0
   21.3093  -19.0607  -11.2913 C   0  0  0  0  0  0  0  0  0  0  0  0
   22.4422  -19.6368  -11.8478 C   0  0  0  0  0  0  0  0  0  0  0  0
   22.6063  -19.8295  -13.3075 C   0  0  1  0  0  0  0  0  0  0  0  0
   21.7239  -20.9315  -13.8438 N   0  0  0  0  0  0  0  0  0  0  0  0
   21.9180  -20.9830  -15.2931 C   0  0  0  0  0  0  0  0  0  0  0  0
   20.2941  -20.7262  -13.5606 O   0  0  0  0  0  0  0  0  0  0  0  0
   19.6891  -21.2852  -12.6117 C   0  0  0  0  0  0  0  0  0  0  0  0
   23.4273  -20.0359  -10.9802 C   0  0  0  0  0  0  0  0  0  0  0  0
   23.2892  -19.8686   -9.6220 O   0  0  0  0  0  0  0  0  0  0  0  0
  2  1  1  1
  2  3  1  0
  4  5  1  0
  4  2  1  0
  5  6  1  6
  7  8  2  0
  7  5  1  0
  9 10  1  0
 10 12  1  0
 10 11  2  0
 12 13  1  0
 13 14  1  0
 14 15  1  0
 16 15  1  1
 16 18  1  0
 16 17  1  0
 17  7  1  0
 18 27  1  0
 19 18  2  0
 21 20  1  0
 22 21  2  0
 23 22  1  0
 24 30  1  0
 24 23  2  0
 25 24  1  0
 26 25  1  1
 27 26  1  0
 28 26  1  0
 29 28  2  0
 30 31  2  0
 31 21  1  0
 32 28  1  0
M  END
$$$$
