LRY.pdb
     RDKit          3D

 32 32  0  0  1  0  0  0  0  0999 V2000
   27.0843  -23.8674  -17.5088 C   0  0  0  0  0  0  0  0  0  0  0  0
   26.9208  -24.8830  -16.3799 C   0  0  2  0  0  0  0  0  0  0  0  0
   27.8837  -26.0049  -16.6811 C   0  0  0  0  0  0  0  0  0  0  0  0
   25.4831  -25.3345  -16.2752 C   0  0  0  0  0  0  0  0  0  0  0  0
   24.6427  -24.1439  -15.9275 C   0  0  2  0  0  0  0  0  0  0  0  0
   25.1674  -23.4612  -14.7649 N   0  0  0  0  0  0  0  0  0  0  0  0
   23.2274  -24.4511  -15.7323 C   0  0  0  0  0  0  0  0  0  0  0  0
   22.5979  -25.0700  -16.6227 O   0  0  0  0  0  0  0  0  0  0  0  0
   21.2176  -19.8150  -11.6612 N   0  0  0  0  0  0  0  0  0  0  0  0
   20.4977  -19.7384  -12.8891 C   0  0  0  0  0  0  0  0  0  0  0  0
   20.6897  -18.7470  -13.6736 N   0  0  0  0  0  0  0  0  0  0  0  0
   19.5796  -20.7610  -13.2234 N   0  0  0  0  0  0  0  0  0  0  0  0
   19.4370  -21.9688  -12.4208 C   0  0  0  0  0  0  0  0  0  0  0  0
   20.6882  -22.7882  -12.4461 C   0  0  0  0  0  0  0  0  0  0  0  0
   20.5477  -24.1657  -13.0067 C   0  0  0  0  0  0  0  0  0  0  0  0
   21.1079  -24.4024  -14.3545 C   0  0  2  0  0  0  0  0  0  0  0  0
   22.4822  -24.0873  -14.5641 N   0  0  0  0  0  0  0  0  0  0  0  0
   20.3444  -23.4900  -15.2949 C   0  0  0  0  0  0  0  0  0  0  0  0
   20.6987  -22.3064  -15.5055 O   0  0  0  0  0  0  0  0  0  0  0  0
   20.1552  -18.5303  -14.5338 O   0  0  0  0  0  0  0  0  0  0  0  0
   14.9163  -20.6366  -21.6024 C   0  0  0  0  0  0  0  0  0  0  0  0
   15.6054  -21.4254  -20.7071 C   0  0  0  0  0  0  0  0  0  0  0  0
   14.9988  -22.1180  -19.6807 C   0  0  0  0  0  0  0  0  0  0  0  0
   15.7644  -22.8866  -18.8271 C   0  0  0  0  0  0  0  0  0  0  0  0
   17.1417  -23.0033  -18.9477 C   0  0  0  0  0  0  0  0  0  0  0  0
   17.9581  -23.8260  -18.0252 C   0  0  1  0  0  0  0  0  0  0  0  0
   18.4248  -23.0449  -16.8199 N   0  0  0  0  0  0  0  0  0  0  0  0
   19.1892  -23.9605  -15.9725 C   0  0  0  0  0  0  0  0  0  0  0  0
   17.3219  -22.4726  -16.0306 O   0  0  0  0  0  0  0  0  0  0  0  0
   16.7981  -23.0559  -15.0486 C   0  0  0  0  0  0  0  0  0  0  0  0
   17.7373  -22.3111  -19.9717 C   0  0  0  0  0  0  0  0  0  0  0  0
   16.9948  -21.5390  -20.8344 O   0  0  0  0  0  0  0  0  0  0  0  0
  2  1  1  6
  2  3  1  0
  4  5  1  0
  4  2  1  0
  5  6  1  1
  7  8  2  0
  7  5  1  0
  9 10  1  0
 10 12  1  0
 10 11  2  0
 12 13  1  0
 13 14  1  0
 14 15  1  0
 16 15  1  1
 16 18  1  0
 16 17  1  0
 17  7  1  0
 18 27  1  0
 19 18  2  0
 21 20  1  0
 22 21  2  0
 23 22  1  0
 24 30  1  0
 24 23  2  0
 25 24  1  0
 26 25  1  6
 27 26  1  0
 28 26  1  0
 29 28  2  0
 30 31  2  0
 31 21  1  0
 32 28  1  0
M  END
$$$$
