LRY.pdb
     RDKit          3D

 32 32  0  0  1  0  0  0  0  0999 V2000
   29.6469  -18.0368  -18.2693 C   0  0  0  0  0  0  0  0  0  0  0  0
   28.8045  -16.7736  -18.4353 C   0  0  2  0  0  0  0  0  0  0  0  0
   29.7772  -15.6206  -18.4648 C   0  0  0  0  0  0  0  0  0  0  0  0
   27.7795  -16.6694  -17.3306 C   0  0  0  0  0  0  0  0  0  0  0  0
   26.9902  -17.9425  -17.3028 C   0  0  2  0  0  0  0  0  0  0  0  0
   26.5433  -18.3041  -18.6303 N   0  0  0  0  0  0  0  0  0  0  0  0
   25.8564  -17.9197  -16.3810 C   0  0  0  0  0  0  0  0  0  0  0  0
   26.0297  -17.5594  -15.1926 O   0  0  0  0  0  0  0  0  0  0  0  0
   19.2258  -14.9128  -17.2874 N   0  0  0  0  0  0  0  0  0  0  0  0
   20.2684  -14.0846  -17.7963 C   0  0  0  0  0  0  0  0  0  0  0  0
   20.0851  -12.8223  -17.8877 N   0  0  0  0  0  0  0  0  0  0  0  0
   21.4927  -14.6707  -18.1935 N   0  0  0  0  0  0  0  0  0  0  0  0
   21.7447  -16.1006  -18.0704 C   0  0  0  0  0  0  0  0  0  0  0  0
   21.7856  -16.5230  -16.6360 C   0  0  0  0  0  0  0  0  0  0  0  0
   22.0818  -17.9673  -16.3956 C   0  0  0  0  0  0  0  0  0  0  0  0
   23.4142  -18.2969  -15.8457 C   0  0  2  0  0  0  0  0  0  0  0  0
   24.5208  -18.2893  -16.7443 N   0  0  0  0  0  0  0  0  0  0  0  0
   23.3218  -19.7248  -15.3432 C   0  0  0  0  0  0  0  0  0  0  0  0
   23.8740  -20.6770  -15.9425 O   0  0  0  0  0  0  0  0  0  0  0  0
   20.7733  -12.1229  -18.2192 O   0  0  0  0  0  0  0  0  0  0  0  0
   25.7860  -19.4245   -8.4901 C   0  0  0  0  0  0  0  0  0  0  0  0
   25.3899  -19.9638   -9.6946 C   0  0  0  0  0  0  0  0  0  0  0  0
   25.9091  -19.5718  -10.9103 C   0  0  0  0  0  0  0  0  0  0  0  0
   25.4557  -20.1646  -12.0716 C   0  0  0  0  0  0  0  0  0  0  0  0
   24.4844  -21.1553  -12.0833 C   0  0  0  0  0  0  0  0  0  0  0  0
   23.9986  -21.7839  -13.3336 C   0  0  1  0  0  0  0  0  0  0  0  0
   22.5744  -21.3976  -13.6545 N   0  0  0  0  0  0  0  0  0  0  0  0
   22.5954  -20.0252  -14.1612 C   0  0  0  0  0  0  0  0  0  0  0  0
   21.6741  -21.4634  -12.4918 O   0  0  0  0  0  0  0  0  0  0  0  0
   21.3804  -22.5341  -11.9035 C   0  0  0  0  0  0  0  0  0  0  0  0
   23.9732  -21.5395  -10.8693 C   0  0  0  0  0  0  0  0  0  0  0  0
   24.4096  -20.9630   -9.6994 O   0  0  0  0  0  0  0  0  0  0  0  0
  2  1  1  1
  2  3  1  0
  4  5  1  0
  4  2  1  0
  5  6  1  6
  7  8  2  0
  7  5  1  0
  9 10  1  0
 10 12  1  0
 10 11  2  0
 12 13  1  0
 13 14  1  0
 14 15  1  0
 16 15  1  6
 16 18  1  0
 16 17  1  0
 17  7  1  0
 18 27  1  0
 19 18  2  0
 21 20  1  0
 22 21  2  0
 23 22  1  0
 24 30  1  0
 24 23  2  0
 25 24  1  0
 26 25  1  6
 27 26  1  0
 28 26  1  0
 29 28  2  0
 30 31  2  0
 31 21  1  0
 32 28  1  0
M  END
$$$$
