LRY.pdb
     RDKit          3D

 32 32  0  0  1  0  0  0  0  0999 V2000
   30.2098  -18.1615  -19.0216 C   0  0  0  0  0  0  0  0  0  0  0  0
   29.1866  -18.9377  -19.8482 C   0  0  2  0  0  0  0  0  0  0  0  0
   28.8849  -18.0827  -21.0543 C   0  0  0  0  0  0  0  0  0  0  0  0
   27.9668  -19.2601  -19.0176 C   0  0  0  0  0  0  0  0  0  0  0  0
   28.3998  -20.1051  -17.8586 C   0  0  2  0  0  0  0  0  0  0  0  0
   28.8517  -21.4047  -18.3052 N   0  0  0  0  0  0  0  0  0  0  0  0
   27.3825  -20.2575  -16.8205 C   0  0  0  0  0  0  0  0  0  0  0  0
   26.4513  -21.0819  -16.9801 O   0  0  0  0  0  0  0  0  0  0  0  0
   26.5138  -21.0644   -9.2751 N   0  0  0  0  0  0  0  0  0  0  0  0
   25.1672  -20.9975   -9.7379 C   0  0  0  0  0  0  0  0  0  0  0  0
   24.2527  -20.5571   -8.9600 N   0  0  0  0  0  0  0  0  0  0  0  0
   24.8605  -21.4195  -11.0524 N   0  0  0  0  0  0  0  0  0  0  0  0
   25.6144  -20.9590  -12.2112 C   0  0  0  0  0  0  0  0  0  0  0  0
   25.8608  -19.4849  -12.1476 C   0  0  0  0  0  0  0  0  0  0  0  0
   26.5393  -18.8909  -13.3385 C   0  0  0  0  0  0  0  0  0  0  0  0
   26.3121  -19.5535  -14.6406 C   0  0  2  0  0  0  0  0  0  0  0  0
   27.3689  -19.5132  -15.5965 N   0  0  0  0  0  0  0  0  0  0  0  0
   25.1589  -18.8163  -15.2936 C   0  0  0  0  0  0  0  0  0  0  0  0
   25.2457  -17.6120  -15.6299 O   0  0  0  0  0  0  0  0  0  0  0  0
   23.2493  -20.4456   -9.1910 O   0  0  0  0  0  0  0  0  0  0  0  0
   18.4006  -16.2348  -20.0039 C   0  0  0  0  0  0  0  0  0  0  0  0
   19.4285  -16.9303  -19.4054 C   0  0  0  0  0  0  0  0  0  0  0  0
   19.3007  -18.2201  -18.9350 C   0  0  0  0  0  0  0  0  0  0  0  0
   20.3825  -18.8450  -18.3477 C   0  0  0  0  0  0  0  0  0  0  0  0
   21.6190  -18.2329  -18.2012 C   0  0  0  0  0  0  0  0  0  0  0  0
   22.7746  -18.9074  -17.5653 C   0  0  1  0  0  0  0  0  0  0  0  0
   22.7918  -18.7254  -16.0663 N   0  0  0  0  0  0  0  0  0  0  0  0
   23.9307  -19.4819  -15.5454 C   0  0  0  0  0  0  0  0  0  0  0  0
   21.5636  -19.1963  -15.4055 O   0  0  0  0  0  0  0  0  0  0  0  0
   21.4028  -20.3757  -15.0030 C   0  0  0  0  0  0  0  0  0  0  0  0
   21.7376  -16.9497  -18.6720 C   0  0  0  0  0  0  0  0  0  0  0  0
   20.6736  -16.3071  -19.2608 O   0  0  0  0  0  0  0  0  0  0  0  0
  2  1  1  1
  2  3  1  0
  4  5  1  0
  4  2  1  0
  5  6  1  6
  7  8  2  0
  7  5  1  0
  9 10  1  0
 10 12  1  0
 10 11  2  0
 12 13  1  0
 13 14  1  0
 14 15  1  0
 16 15  1  1
 16 18  1  0
 16 17  1  0
 17  7  1  0
 18 27  1  0
 19 18  2  0
 21 20  1  0
 22 21  2  0
 23 22  1  0
 24 30  1  0
 24 23  2  0
 25 24  1  0
 26 25  1  6
 27 26  1  0
 28 26  1  0
 29 28  2  0
 30 31  2  0
 31 21  1  0
 32 28  1  0
M  END
$$$$
