LRY.pdb
     RDKit          3D

 32 32  0  0  1  0  0  0  0  0999 V2000
   44.0782  -13.0763  -14.4974 C   0  0  0  0  0  0  0  0  0  0  0  0
   43.0145  -14.0086  -13.9213 C   0  0  2  0  0  0  0  0  0  0  0  0
   41.9242  -14.0955  -14.9608 C   0  0  0  0  0  0  0  0  0  0  0  0
   42.5319  -13.5017  -12.5827 C   0  0  0  0  0  0  0  0  0  0  0  0
   43.6916  -13.5081  -11.6341 C   0  0  2  0  0  0  0  0  0  0  0  0
   44.1574  -14.8566  -11.3945 N   0  0  0  0  0  0  0  0  0  0  0  0
   43.4249  -12.8367  -10.3638 C   0  0  0  0  0  0  0  0  0  0  0  0
   42.7847  -11.7586  -10.3538 O   0  0  0  0  0  0  0  0  0  0  0  0
   44.1947   -8.3749   -3.9816 N   0  0  0  0  0  0  0  0  0  0  0  0
   45.2084   -9.3585   -3.7901 C   0  0  0  0  0  0  0  0  0  0  0  0
   46.3999   -8.9912   -3.5059 N   0  0  0  0  0  0  0  0  0  0  0  0
   44.8824  -10.7288   -3.9170 N   0  0  0  0  0  0  0  0  0  0  0  0
   45.3702  -11.5435   -5.0224 C   0  0  0  0  0  0  0  0  0  0  0  0
   45.0152  -10.9359   -6.3424 C   0  0  0  0  0  0  0  0  0  0  0  0
   45.0855  -11.8558   -7.5173 C   0  0  0  0  0  0  0  0  0  0  0  0
   43.8451  -12.5718   -7.8845 C   0  0  2  0  0  0  0  0  0  0  0  0
   43.8530  -13.3329   -9.0898 N   0  0  0  0  0  0  0  0  0  0  0  0
   42.7890  -11.5043   -8.0970 C   0  0  0  0  0  0  0  0  0  0  0  0
   42.9894  -10.5084   -8.8311 O   0  0  0  0  0  0  0  0  0  0  0  0
   47.2285   -9.6058   -3.4160 O   0  0  0  0  0  0  0  0  0  0  0  0
   35.3437   -6.8626   -7.1554 C   0  0  0  0  0  0  0  0  0  0  0  0
   36.2543   -7.8964   -7.1778 C   0  0  0  0  0  0  0  0  0  0  0  0
   36.2445   -8.9376   -6.2739 C   0  0  0  0  0  0  0  0  0  0  0  0
   37.1947   -9.9345   -6.3675 C   0  0  0  0  0  0  0  0  0  0  0  0
   38.1815   -9.9468   -7.3429 C   0  0  0  0  0  0  0  0  0  0  0  0
   39.2014  -11.0172   -7.4348 C   0  0  1  0  0  0  0  0  0  0  0  0
   40.6072  -10.4677   -7.4859 N   0  0  0  0  0  0  0  0  0  0  0  0
   41.5249  -11.6070   -7.4596 C   0  0  0  0  0  0  0  0  0  0  0  0
   40.9263   -9.5717   -6.3625 O   0  0  0  0  0  0  0  0  0  0  0  0
   40.9662   -9.9501   -5.1650 C   0  0  0  0  0  0  0  0  0  0  0  0
   38.1840   -8.9072   -8.2383 C   0  0  0  0  0  0  0  0  0  0  0  0
   37.2472   -7.9029   -8.1645 O   0  0  0  0  0  0  0  0  0  0  0  0
  2  1  1  6
  2  3  1  0
  4  5  1  0
  4  2  1  0
  5  6  1  1
  7  8  2  0
  7  5  1  0
  9 10  1  0
 10 12  1  0
 10 11  2  0
 12 13  1  0
 13 14  1  0
 14 15  1  0
 16 15  1  6
 16 18  1  0
 16 17  1  0
 17  7  1  0
 18 27  1  0
 19 18  2  0
 21 20  1  0
 22 21  2  0
 23 22  1  0
 24 30  1  0
 24 23  2  0
 25 24  1  0
 26 25  1  6
 27 26  1  0
 28 26  1  0
 29 28  2  0
 30 31  2  0
 31 21  1  0
 32 28  1  0
M  END
$$$$
