LRY.pdb
     RDKit          3D

 32 32  0  0  1  0  0  0  0  0999 V2000
   18.1272  -26.1093  -21.8875 C   0  0  0  0  0  0  0  0  0  0  0  0
   19.0282  -25.8273  -20.6870 C   0  0  2  0  0  0  0  0  0  0  0  0
   19.7388  -27.1227  -20.3813 C   0  0  0  0  0  0  0  0  0  0  0  0
   18.2183  -25.2960  -19.5278 C   0  0  0  0  0  0  0  0  0  0  0  0
   18.9993  -25.5206  -18.2692 C   0  0  2  0  0  0  0  0  0  0  0  0
   18.3652  -26.5200  -17.4373 N   0  0  0  0  0  0  0  0  0  0  0  0
   19.2430  -24.3052  -17.4952 C   0  0  0  0  0  0  0  0  0  0  0  0
   18.3363  -23.4460  -17.3869 O   0  0  0  0  0  0  0  0  0  0  0  0
   19.5861  -19.9066  -11.1282 N   0  0  0  0  0  0  0  0  0  0  0  0
   20.8041  -19.3190  -11.5786 C   0  0  0  0  0  0  0  0  0  0  0  0
   21.1851  -18.2005  -11.0895 N   0  0  0  0  0  0  0  0  0  0  0  0
   21.5757  -19.9815  -12.5613 N   0  0  0  0  0  0  0  0  0  0  0  0
   21.1516  -21.2388  -13.1638 C   0  0  0  0  0  0  0  0  0  0  0  0
   22.0641  -21.6416  -14.2785 C   0  0  0  0  0  0  0  0  0  0  0  0
   21.7122  -22.9162  -14.9735 C   0  0  0  0  0  0  0  0  0  0  0  0
   20.7235  -22.8324  -16.0696 C   0  0  2  0  0  0  0  0  0  0  0  0
   20.4778  -24.0128  -16.8303 N   0  0  0  0  0  0  0  0  0  0  0  0
   21.2785  -21.8296  -17.0626 C   0  0  0  0  0  0  0  0  0  0  0  0
   22.1373  -22.1476  -17.9183 O   0  0  0  0  0  0  0  0  0  0  0  0
   22.0568  -17.6921  -11.3220 O   0  0  0  0  0  0  0  0  0  0  0  0
   16.4612  -15.9635  -16.0314 C   0  0  0  0  0  0  0  0  0  0  0  0
   17.3644  -16.7531  -16.7091 C   0  0  0  0  0  0  0  0  0  0  0  0
   17.2545  -18.1244  -16.8032 C   0  0  0  0  0  0  0  0  0  0  0  0
   18.2047  -18.8411  -17.5024 C   0  0  0  0  0  0  0  0  0  0  0  0
   19.2888  -18.2443  -18.1299 C   0  0  0  0  0  0  0  0  0  0  0  0
   20.3078  -19.0198  -18.8746 C   0  0  1  0  0  0  0  0  0  0  0  0
   21.4180  -19.5170  -17.9796 N   0  0  0  0  0  0  0  0  0  0  0  0
   20.8324  -20.4821  -17.0488 C   0  0  0  0  0  0  0  0  0  0  0  0
   22.0718  -18.4468  -17.2088 O   0  0  0  0  0  0  0  0  0  0  0  0
   22.0900  -18.4103  -15.9529 C   0  0  0  0  0  0  0  0  0  0  0  0
   19.3906  -16.8795  -18.0315 C   0  0  0  0  0  0  0  0  0  0  0  0
   18.4558  -16.1448  -17.3401 O   0  0  0  0  0  0  0  0  0  0  0  0
  2  1  1  6
  2  3  1  0
  4  5  1  0
  4  2  1  0
  5  6  1  1
  7  8  2  0
  7  5  1  0
  9 10  1  0
 10 12  1  0
 10 11  2  0
 12 13  1  0
 13 14  1  0
 14 15  1  0
 16 15  1  1
 16 18  1  0
 16 17  1  0
 17  7  1  0
 18 27  1  0
 19 18  2  0
 21 20  1  0
 22 21  2  0
 23 22  1  0
 24 30  1  0
 24 23  2  0
 25 24  1  0
 26 25  1  6
 27 26  1  0
 28 26  1  0
 29 28  2  0
 30 31  2  0
 31 21  1  0
 32 28  1  0
M  END
$$$$
