LRY.pdb
     RDKit          3D

 32 32  0  0  1  0  0  0  0  0999 V2000
   27.7008  -28.7848  -19.2977 C   0  0  0  0  0  0  0  0  0  0  0  0
   27.6069  -29.0550  -17.7975 C   0  0  2  0  0  0  0  0  0  0  0  0
   26.5118  -30.0780  -17.6224 C   0  0  0  0  0  0  0  0  0  0  0  0
   27.3593  -27.7713  -17.0406 C   0  0  0  0  0  0  0  0  0  0  0  0
   28.5942  -26.9280  -17.1328 C   0  0  2  0  0  0  0  0  0  0  0  0
   29.6694  -27.4965  -16.3495 N   0  0  0  0  0  0  0  0  0  0  0  0
   28.3887  -25.5295  -16.7617 C   0  0  0  0  0  0  0  0  0  0  0  0
   28.4638  -25.1894  -15.5572 O   0  0  0  0  0  0  0  0  0  0  0  0
   30.0189  -18.3444  -17.6108 N   0  0  0  0  0  0  0  0  0  0  0  0
   30.3748  -19.0201  -18.8144 C   0  0  0  0  0  0  0  0  0  0  0  0
   31.6021  -19.0746  -19.1694 N   0  0  0  0  0  0  0  0  0  0  0  0
   29.3647  -19.6216  -19.6006 N   0  0  0  0  0  0  0  0  0  0  0  0
   27.9784  -19.6973  -19.1578 C   0  0  0  0  0  0  0  0  0  0  0  0
   27.8170  -20.6846  -18.0456 C   0  0  0  0  0  0  0  0  0  0  0  0
   28.1738  -22.0967  -18.3778 C   0  0  0  0  0  0  0  0  0  0  0  0
   27.8957  -23.1197  -17.3471 C   0  0  2  0  0  0  0  0  0  0  0  0
   28.0994  -24.4859  -17.6995 N   0  0  0  0  0  0  0  0  0  0  0  0
   26.4169  -23.0084  -17.0304 C   0  0  0  0  0  0  0  0  0  0  0  0
   25.5499  -23.6444  -17.6744 O   0  0  0  0  0  0  0  0  0  0  0  0
   31.9734  -19.5001  -20.0376 O   0  0  0  0  0  0  0  0  0  0  0  0
   19.0231  -21.4403  -12.5001 C   0  0  0  0  0  0  0  0  0  0  0  0
   20.3420  -21.4432  -12.8987 C   0  0  0  0  0  0  0  0  0  0  0  0
   21.1553  -20.3311  -12.8432 C   0  0  0  0  0  0  0  0  0  0  0  0
   22.4673  -20.4207  -13.2631 C   0  0  0  0  0  0  0  0  0  0  0  0
   23.0252  -21.5944  -13.7491 C   0  0  0  0  0  0  0  0  0  0  0  0
   24.4327  -21.6825  -14.2029 C   0  0  1  0  0  0  0  0  0  0  0  0
   24.5451  -22.1271  -15.6417 N   0  0  0  0  0  0  0  0  0  0  0  0
   25.9683  -22.1670  -15.9788 C   0  0  0  0  0  0  0  0  0  0  0  0
   23.8558  -21.2328  -16.5861 O   0  0  0  0  0  0  0  0  0  0  0  0
   24.3436  -20.1494  -16.9951 C   0  0  0  0  0  0  0  0  0  0  0  0
   22.2092  -22.6962  -13.8008 C   0  0  0  0  0  0  0  0  0  0  0  0
   20.8990  -22.6307  -13.3878 O   0  0  0  0  0  0  0  0  0  0  0  0
  2  1  1  6
  2  3  1  0
  4  5  1  0
  4  2  1  0
  5  6  1  1
  7  8  2  0
  7  5  1  0
  9 10  1  0
 10 12  1  0
 10 11  2  0
 12 13  1  0
 13 14  1  0
 14 15  1  0
 16 15  1  6
 16 18  1  0
 16 17  1  0
 17  7  1  0
 18 27  1  0
 19 18  2  0
 21 20  1  0
 22 21  2  0
 23 22  1  0
 24 30  1  0
 24 23  2  0
 25 24  1  0
 26 25  1  1
 27 26  1  0
 28 26  1  0
 29 28  2  0
 30 31  2  0
 31 21  1  0
 32 28  1  0
M  END
$$$$
