LRY.pdb
     RDKit          3D

 32 32  0  0  1  0  0  0  0  0999 V2000
   24.3646  -14.0442  -19.4441 C   0  0  0  0  0  0  0  0  0  0  0  0
   24.5174  -15.1290  -20.5083 C   0  0  2  0  0  0  0  0  0  0  0  0
   23.9735  -14.5425  -21.7876 C   0  0  0  0  0  0  0  0  0  0  0  0
   23.8156  -16.3962  -20.0800 C   0  0  0  0  0  0  0  0  0  0  0  0
   24.2798  -16.7445  -18.6988 C   0  0  2  0  0  0  0  0  0  0  0  0
   25.7211  -16.8596  -18.6503 N   0  0  0  0  0  0  0  0  0  0  0  0
   23.6619  -17.9495  -18.1495 C   0  0  0  0  0  0  0  0  0  0  0  0
   22.4144  -18.0737  -18.1737 O   0  0  0  0  0  0  0  0  0  0  0  0
   27.0293  -25.9731  -16.2886 N   0  0  0  0  0  0  0  0  0  0  0  0
   26.5099  -25.4660  -17.5154 C   0  0  0  0  0  0  0  0  0  0  0  0
   26.8191  -26.0374  -18.6168 N   0  0  0  0  0  0  0  0  0  0  0  0
   25.6587  -24.3367  -17.4978 N   0  0  0  0  0  0  0  0  0  0  0  0
   25.0677  -23.8292  -16.2663 C   0  0  0  0  0  0  0  0  0  0  0  0
   24.1118  -22.7124  -16.5431 C   0  0  0  0  0  0  0  0  0  0  0  0
   24.7323  -21.4170  -16.9533 C   0  0  0  0  0  0  0  0  0  0  0  0
   23.8202  -20.2724  -17.1634 C   0  0  2  0  0  0  0  0  0  0  0  0
   24.3968  -19.0329  -17.5676 N   0  0  0  0  0  0  0  0  0  0  0  0
   23.1792  -19.9912  -15.8181 C   0  0  0  0  0  0  0  0  0  0  0  0
   23.8453  -19.5866  -14.8366 O   0  0  0  0  0  0  0  0  0  0  0  0
   26.5016  -25.7621  -19.5633 O   0  0  0  0  0  0  0  0  0  0  0  0
   15.5538  -19.1966  -17.1892 C   0  0  0  0  0  0  0  0  0  0  0  0
   16.7605  -19.0774  -16.5349 C   0  0  0  0  0  0  0  0  0  0  0  0
   17.9532  -18.8266  -17.1797 C   0  0  0  0  0  0  0  0  0  0  0  0
   19.1186  -18.7217  -16.4473 C   0  0  0  0  0  0  0  0  0  0  0  0
   19.1569  -18.8580  -15.0670 C   0  0  0  0  0  0  0  0  0  0  0  0
   20.4118  -18.7492  -14.2875 C   0  0  1  0  0  0  0  0  0  0  0  0
   21.2064  -20.0335  -14.2967 N   0  0  0  0  0  0  0  0  0  0  0  0
   21.7850  -20.1820  -15.6324 C   0  0  0  0  0  0  0  0  0  0  0  0
   20.3969  -21.2245  -13.9920 O   0  0  0  0  0  0  0  0  0  0  0  0
   20.1750  -22.1415  -14.8220 C   0  0  0  0  0  0  0  0  0  0  0  0
   17.9657  -19.1072  -14.4333 C   0  0  0  0  0  0  0  0  0  0  0  0
   16.7922  -19.2157  -15.1423 O   0  0  0  0  0  0  0  0  0  0  0  0
  2  1  1  1
  2  3  1  0
  4  5  1  0
  4  2  1  0
  5  6  1  6
  7  8  2  0
  7  5  1  0
  9 10  1  0
 10 12  1  0
 10 11  2  0
 12 13  1  0
 13 14  1  0
 14 15  1  0
 16 15  1  1
 16 18  1  0
 16 17  1  0
 17  7  1  0
 18 27  1  0
 19 18  2  0
 21 20  1  0
 22 21  2  0
 23 22  1  0
 24 30  1  0
 24 23  2  0
 25 24  1  0
 26 25  1  1
 27 26  1  0
 28 26  1  0
 29 28  2  0
 30 31  2  0
 31 21  1  0
 32 28  1  0
M  END
$$$$
