LRY.pdb
     RDKit          3D

 32 32  0  0  1  0  0  0  0  0999 V2000
   13.5982   -2.3438  -15.9813 C   0  0  0  0  0  0  0  0  0  0  0  0
   13.1695   -2.6343  -14.5445 C   0  0  2  0  0  0  0  0  0  0  0  0
   13.0436   -1.2935  -13.8642 C   0  0  0  0  0  0  0  0  0  0  0  0
   14.1554   -3.5609  -13.8727 C   0  0  0  0  0  0  0  0  0  0  0  0
   14.2168   -4.8319  -14.6635 C   0  0  2  0  0  0  0  0  0  0  0  0
   13.1079   -5.7009  -14.3345 N   0  0  0  0  0  0  0  0  0  0  0  0
   15.4787   -5.5565  -14.5282 C   0  0  0  0  0  0  0  0  0  0  0  0
   15.6670   -6.2948  -13.5324 O   0  0  0  0  0  0  0  0  0  0  0  0
   20.2228   -9.8620  -20.3812 N   0  0  0  0  0  0  0  0  0  0  0  0
   20.8289   -8.6501  -19.9385 C   0  0  0  0  0  0  0  0  0  0  0  0
   21.7010   -8.0738  -20.6751 N   0  0  0  0  0  0  0  0  0  0  0  0
   20.4573   -8.1011  -18.6893 N   0  0  0  0  0  0  0  0  0  0  0  0
   19.5422   -8.7829  -17.7831 C   0  0  0  0  0  0  0  0  0  0  0  0
   19.2650   -7.9558  -16.5679 C   0  0  0  0  0  0  0  0  0  0  0  0
   18.0314   -7.1153  -16.6255 C   0  0  0  0  0  0  0  0  0  0  0  0
   17.7202   -6.2970  -15.4340 C   0  0  2  0  0  0  0  0  0  0  0  0
   16.5497   -5.4845  -15.4770 N   0  0  0  0  0  0  0  0  0  0  0  0
   18.8726   -5.3236  -15.2781 C   0  0  0  0  0  0  0  0  0  0  0  0
   18.8329   -4.1653  -15.7551 O   0  0  0  0  0  0  0  0  0  0  0  0
   22.2315   -7.2150  -20.4435 O   0  0  0  0  0  0  0  0  0  0  0  0
   23.9613  -10.4721  -15.1998 C   0  0  0  0  0  0  0  0  0  0  0  0
   23.4889   -9.2576  -14.7522 C   0  0  0  0  0  0  0  0  0  0  0  0
   22.5026   -9.1310  -13.7970 C   0  0  0  0  0  0  0  0  0  0  0  0
   22.0868   -7.8745  -13.4045 C   0  0  0  0  0  0  0  0  0  0  0  0
   22.6185   -6.7057  -13.9301 C   0  0  0  0  0  0  0  0  0  0  0  0
   22.1643   -5.3603  -13.5082 C   0  0  1  0  0  0  0  0  0  0  0  0
   21.1621   -4.7654  -14.4686 N   0  0  0  0  0  0  0  0  0  0  0  0
   20.0458   -5.7051  -14.5760 C   0  0  0  0  0  0  0  0  0  0  0  0
   21.7123   -4.5223  -15.8121 O   0  0  0  0  0  0  0  0  0  0  0  0
   22.5695   -3.6375  -16.0594 C   0  0  0  0  0  0  0  0  0  0  0  0
   23.5995   -6.8406  -14.8799 C   0  0  0  0  0  0  0  0  0  0  0  0
   24.0297   -8.0821  -15.2864 O   0  0  0  0  0  0  0  0  0  0  0  0
  2  1  1  6
  2  3  1  0
  4  5  1  0
  4  2  1  0
  5  6  1  1
  7  8  2  0
  7  5  1  0
  9 10  1  0
 10 12  1  0
 10 11  2  0
 12 13  1  0
 13 14  1  0
 14 15  1  0
 16 15  1  6
 16 18  1  0
 16 17  1  0
 17  7  1  0
 18 27  1  0
 19 18  2  0
 21 20  1  0
 22 21  2  0
 23 22  1  0
 24 30  1  0
 24 23  2  0
 25 24  1  0
 26 25  1  1
 27 26  1  0
 28 26  1  0
 29 28  2  0
 30 31  2  0
 31 21  1  0
 32 28  1  0
M  END
$$$$
