WWC.pdb
     RDKit          3D

 35 38  0  0  1  0  0  0  0  0999 V2000
   10.4676  -18.5332   21.4953 N   0  0  0  0  0  0  0  0  0  0  0  0
   11.5139  -17.6197   21.8120 C   0  0  1  0  0  0  0  0  0  0  0  0
   11.9284  -16.6978   20.7059 C   0  0  0  0  0  0  0  0  0  0  0  0
   12.3777  -17.3793   19.4783 C   0  0  0  0  0  0  0  0  0  0  0  0
   12.0146  -17.0233   18.1848 C   0  0  0  0  0  0  0  0  0  0  0  0
   12.6232  -17.8511   17.3500 N   0  0  0  0  0  0  0  0  0  0  0  0
   13.3773  -18.7459   18.0140 C   0  0  0  0  0  0  0  0  0  0  0  0
   14.1714  -19.7831   17.5633 C   0  0  0  0  0  0  0  0  0  0  0  0
   14.8264  -20.5399   18.5079 C   0  0  0  0  0  0  0  0  0  0  0  0
   14.6963  -20.2737   19.8682 C   0  0  0  0  0  0  0  0  0  0  0  0
   13.8998  -19.2367   20.2749 C   0  0  0  0  0  0  0  0  0  0  0  0
   13.2311  -18.4590   19.3662 C   0  0  0  0  0  0  0  0  0  0  0  0
   11.1146  -16.7376   22.9623 C   0  0  0  0  0  0  0  0  0  0  0  0
   11.8136  -15.7421   23.2651 O   0  0  0  0  0  0  0  0  0  0  0  0
    9.9614  -17.0298   23.6949 N   0  0  0  0  0  0  0  0  0  0  0  0
    9.6981  -16.2882   24.9389 C   0  0  1  0  0  0  0  0  0  0  0  0
    8.2218  -16.3979   25.1448 C   0  0  0  0  0  0  0  0  0  0  0  0
    7.4931  -15.2336   24.6300 C   0  0  0  0  0  0  0  0  0  0  0  0
    6.8127  -15.1519   23.4219 C   0  0  0  0  0  0  0  0  0  0  0  0
    6.3086  -13.9159   23.2977 N   0  0  0  0  0  0  0  0  0  0  0  0
    6.6363  -13.1841   24.3874 C   0  0  0  0  0  0  0  0  0  0  0  0
    6.3538  -11.8846   24.7517 C   0  0  0  0  0  0  0  0  0  0  0  0
    6.7912  -11.3585   25.9481 C   0  0  0  0  0  0  0  0  0  0  0  0
    7.5305  -12.1387   26.8122 C   0  0  0  0  0  0  0  0  0  0  0  0
    7.8011  -13.4288   26.4299 C   0  0  0  0  0  0  0  0  0  0  0  0
    7.3817  -13.9948   25.2384 C   0  0  0  0  0  0  0  0  0  0  0  0
   10.5409  -16.7996   26.0165 C   0  0  0  0  0  0  0  0  0  0  0  0
   11.0356  -17.9555   25.9234 O   0  0  0  0  0  0  0  0  0  0  0  0
   10.8192  -16.0377   27.1614 N   0  0  0  0  0  0  0  0  0  0  0  0
   11.7164  -16.5073   28.1891 C   0  0  1  0  0  0  0  0  0  0  0  0
   11.9986  -15.4348   29.2232 C   0  0  0  0  0  0  0  0  0  0  0  0
   10.3786  -14.7159   29.6980 S   0  0  0  0  0  0  0  0  0  0  0  0
   11.1807  -17.6906   28.8987 C   0  0  0  0  0  0  0  0  0  0  0  0
   11.9150  -18.4236   29.8110 O   0  0  0  0  0  0  0  0  0  0  0  0
    9.9992  -18.0436   28.6570 O   0  0  0  0  0  0  0  0  0  0  0  0
  2  1  1  6
  3  2  1  0
  4  5  2  0
  4  3  1  0
  6  5  1  0
  7 12  2  0
  7  6  1  0
  8  7  1  0
  9 10  1  0
  9  8  2  0
 10 11  2  0
 11 12  1  0
 12  4  1  0
 13  2  1  0
 14 13  2  0
 15 13  1  0
 16 27  1  0
 16 15  1  0
 16 17  1  1
 18 17  1  0
 19 18  2  0
 20 19  1  0
 21 20  1  0
 21 26  2  0
 22 21  1  0
 23 22  2  0
 23 24  1  0
 24 25  2  0
 25 26  1  0
 26 18  1  0
 27 29  1  0
 28 27  2  0
 29 30  1  0
 30 33  1  0
 30 31  1  1
 31 32  1  0
 33 35  2  0
 33 34  1  0
M  END
$$$$
