WWC.pdb
     RDKit          3D

 35 38  0  0  1  0  0  0  0  0999 V2000
    4.6764  -19.5791   23.5569 N   0  0  0  0  0  0  0  0  0  0  0  0
    5.9388  -19.4716   22.9055 C   0  0  1  0  0  0  0  0  0  0  0  0
    5.9883  -19.9801   21.4968 C   0  0  0  0  0  0  0  0  0  0  0  0
    6.3026  -21.4154   21.3759 C   0  0  0  0  0  0  0  0  0  0  0  0
    5.4044  -22.4032   20.9894 C   0  0  0  0  0  0  0  0  0  0  0  0
    6.0499  -23.5588   20.9830 N   0  0  0  0  0  0  0  0  0  0  0  0
    7.3362  -23.4007   21.3448 C   0  0  0  0  0  0  0  0  0  0  0  0
    8.3649  -24.3135   21.4800 C   0  0  0  0  0  0  0  0  0  0  0  0
    9.5916  -23.8350   21.8801 C   0  0  0  0  0  0  0  0  0  0  0  0
    9.7930  -22.4823   22.1402 C   0  0  0  0  0  0  0  0  0  0  0  0
    8.7481  -21.6091   21.9946 C   0  0  0  0  0  0  0  0  0  0  0  0
    7.5112  -22.0451   21.5976 C   0  0  0  0  0  0  0  0  0  0  0  0
    6.3820  -18.0360   22.8462 C   0  0  0  0  0  0  0  0  0  0  0  0
    5.5728  -17.1401   22.5086 O   0  0  0  0  0  0  0  0  0  0  0  0
    7.6997  -17.7013   23.1681 N   0  0  0  0  0  0  0  0  0  0  0  0
    8.1190  -16.2926   23.0883 C   0  0  1  0  0  0  0  0  0  0  0  0
    8.6783  -15.9825   24.4392 C   0  0  0  0  0  0  0  0  0  0  0  0
    7.6778  -15.4070   25.3445 C   0  0  0  0  0  0  0  0  0  0  0  0
    6.6891  -16.0993   26.0316 C   0  0  0  0  0  0  0  0  0  0  0  0
    5.9542  -15.2188   26.7259 N   0  0  0  0  0  0  0  0  0  0  0  0
    6.4307  -13.9700   26.5163 C   0  0  0  0  0  0  0  0  0  0  0  0
    6.0477  -12.7372   27.0009 C   0  0  0  0  0  0  0  0  0  0  0  0
    6.7158  -11.5839   26.6502 C   0  0  0  0  0  0  0  0  0  0  0  0
    7.7955  -11.6486   25.7947 C   0  0  0  0  0  0  0  0  0  0  0  0
    8.1596  -12.8852   25.3235 C   0  0  0  0  0  0  0  0  0  0  0  0
    7.5157  -14.0663   25.6501 C   0  0  0  0  0  0  0  0  0  0  0  0
    9.0208  -16.1004   21.9556 C   0  0  0  0  0  0  0  0  0  0  0  0
    9.7787  -17.0423   21.5978 O   0  0  0  0  0  0  0  0  0  0  0  0
    9.0697  -14.8900   21.2476 N   0  0  0  0  0  0  0  0  0  0  0  0
    9.9144  -14.7181   20.0906 C   0  0  1  0  0  0  0  0  0  0  0  0
    9.6119  -13.4244   19.3600 C   0  0  0  0  0  0  0  0  0  0  0  0
    7.8167  -13.4359   18.9810 S   0  0  0  0  0  0  0  0  0  0  0  0
   11.3513  -14.7124   20.4455 C   0  0  0  0  0  0  0  0  0  0  0  0
   11.8110  -14.7947   21.7458 O   0  0  0  0  0  0  0  0  0  0  0  0
   12.1924  -14.6283   19.5157 O   0  0  0  0  0  0  0  0  0  0  0  0
  2  1  1  6
  3  2  1  0
  4  5  2  0
  4  3  1  0
  6  5  1  0
  7 12  2  0
  7  6  1  0
  8  7  1  0
  9 10  1  0
  9  8  2  0
 10 11  2  0
 11 12  1  0
 12  4  1  0
 13  2  1  0
 14 13  2  0
 15 13  1  0
 16 27  1  0
 16 15  1  0
 16 17  1  1
 18 17  1  0
 19 18  2  0
 20 19  1  0
 21 20  1  0
 21 26  2  0
 22 21  1  0
 23 22  2  0
 23 24  1  0
 24 25  2  0
 25 26  1  0
 26 18  1  0
 27 29  1  0
 28 27  2  0
 29 30  1  0
 30 33  1  0
 30 31  1  1
 31 32  1  0
 33 35  2  0
 33 34  1  0
M  END
$$$$
