WWC.pdb
     RDKit          3D

 35 38  0  0  1  0  0  0  0  0999 V2000
    8.9252  -19.3124   22.5286 N   0  0  0  0  0  0  0  0  0  0  0  0
    9.8796  -18.3778   22.0338 C   0  0  1  0  0  0  0  0  0  0  0  0
    9.5603  -17.7655   20.7039 C   0  0  0  0  0  0  0  0  0  0  0  0
    9.2611  -18.7397   19.6387 C   0  0  0  0  0  0  0  0  0  0  0  0
    8.0184  -18.9200   19.0428 C   0  0  0  0  0  0  0  0  0  0  0  0
    8.1416  -19.8662   18.1252 N   0  0  0  0  0  0  0  0  0  0  0  0
    9.4026  -20.3324   18.0721 C   0  0  0  0  0  0  0  0  0  0  0  0
    9.9825  -21.3073   17.2828 C   0  0  0  0  0  0  0  0  0  0  0  0
   11.3208  -21.5665   17.4721 C   0  0  0  0  0  0  0  0  0  0  0  0
   12.0663  -20.8746   18.4226 C   0  0  0  0  0  0  0  0  0  0  0  0
   11.4550  -19.9154   19.1853 C   0  0  0  0  0  0  0  0  0  0  0  0
   10.1248  -19.6268   19.0274 C   0  0  0  0  0  0  0  0  0  0  0  0
   10.0419  -17.2309   22.9925 C   0  0  0  0  0  0  0  0  0  0  0  0
   10.5497  -16.1524   22.6046 O   0  0  0  0  0  0  0  0  0  0  0  0
    9.6255  -17.3692   24.3189 N   0  0  0  0  0  0  0  0  0  0  0  0
   10.0511  -16.3671   25.3097 C   0  0  1  0  0  0  0  0  0  0  0  0
    9.0075  -16.4182   26.3784 C   0  0  0  0  0  0  0  0  0  0  0  0
    7.8065  -15.6512   26.0302 C   0  0  0  0  0  0  0  0  0  0  0  0
    6.6298  -16.1565   25.4927 C   0  0  0  0  0  0  0  0  0  0  0  0
    5.7833  -15.1382   25.2833 N   0  0  0  0  0  0  0  0  0  0  0  0
    6.3679  -13.9802   25.6677 C   0  0  0  0  0  0  0  0  0  0  0  0
    5.9245  -12.6746   25.6748 C   0  0  0  0  0  0  0  0  0  0  0  0
    6.7136  -11.6463   26.1435 C   0  0  0  0  0  0  0  0  0  0  0  0
    7.9797  -11.9144   26.6200 C   0  0  0  0  0  0  0  0  0  0  0  0
    8.4016  -13.2203   26.6033 C   0  0  0  0  0  0  0  0  0  0  0  0
    7.6417  -14.2809   26.1411 C   0  0  0  0  0  0  0  0  0  0  0  0
   11.4236  -16.6311   25.7333 C   0  0  0  0  0  0  0  0  0  0  0  0
   11.6380  -17.4340   26.6814 O   0  0  0  0  0  0  0  0  0  0  0  0
   12.5199  -16.0137   25.1122 N   0  0  0  0  0  0  0  0  0  0  0  0
   13.8785  -16.4038   25.4019 C   0  0  1  0  0  0  0  0  0  0  0  0
   14.3182  -17.5827   24.5559 C   0  0  0  0  0  0  0  0  0  0  0  0
   14.0873  -17.0935   22.8026 S   0  0  0  0  0  0  0  0  0  0  0  0
   14.8365  -15.2992   25.1721 C   0  0  0  0  0  0  0  0  0  0  0  0
   14.4722  -14.0798   24.6345 O   0  0  0  0  0  0  0  0  0  0  0  0
   16.0403  -15.4829   25.4824 O   0  0  0  0  0  0  0  0  0  0  0  0
  2  1  1  1
  3  2  1  0
  4  5  2  0
  4  3  1  0
  6  5  1  0
  7 12  2  0
  7  6  1  0
  8  7  1  0
  9 10  1  0
  9  8  2  0
 10 11  2  0
 11 12  1  0
 12  4  1  0
 13  2  1  0
 14 13  2  0
 15 13  1  0
 16 27  1  0
 16 15  1  0
 16 17  1  1
 18 17  1  0
 19 18  2  0
 20 19  1  0
 21 20  1  0
 21 26  2  0
 22 21  1  0
 23 22  2  0
 23 24  1  0
 24 25  2  0
 25 26  1  0
 26 18  1  0
 27 29  1  0
 28 27  2  0
 29 30  1  0
 30 33  1  0
 30 31  1  6
 31 32  1  0
 33 35  2  0
 33 34  1  0
M  END
$$$$
