TLD.pdb
     RDKit          3D

 24 23  0  0  1  0  0  0  0  0999 V2000
   23.1244  -12.6728  -20.0765 C   0  0  0  0  0  0  0  0  0  0  0  0
   21.9214  -12.0422  -19.4537 C   0  0  1  0  0  0  0  0  0  0  0  0
   20.8201  -12.8598  -19.3418 O   0  0  0  0  0  0  0  0  0  0  0  0
   22.2505  -11.3228  -18.1437 C   0  0  2  0  0  0  0  0  0  0  0  0
   22.7342  -12.2477  -17.1685 N   0  0  0  0  0  0  0  0  0  0  0  0
   21.1225  -10.5349  -17.6366 C   0  0  0  0  0  0  0  0  0  0  0  0
   20.6964   -9.5853  -18.3287 O   0  0  0  0  0  0  0  0  0  0  0  0
   16.5038  -10.8395  -16.5816 C   0  0  0  0  0  0  0  0  0  0  0  0
   17.5275  -11.7196  -15.9040 C   0  0  2  0  0  0  0  0  0  0  0  0
   16.7458  -12.6616  -14.9921 C   0  0  0  0  0  0  0  0  0  0  0  0
   18.5032  -10.9780  -15.0640 C   0  0  0  0  0  0  0  0  0  0  0  0
   19.3944  -10.0581  -15.8432 C   0  0  2  0  0  0  0  0  0  0  0  0
   20.5176  -10.8178  -16.4076 N   0  0  0  0  0  0  0  0  0  0  0  0
   19.9785   -8.9936  -14.9803 C   0  0  0  0  0  0  0  0  0  0  0  0
   20.9106   -9.2691  -14.1901 O   0  0  0  0  0  0  0  0  0  0  0  0
   19.5133   -7.6649  -15.0213 N   0  0  0  0  0  0  0  0  0  0  0  0
   20.2180   -6.6442  -14.2612 C   0  0  1  0  0  0  0  0  0  0  0  0
   21.6698   -6.5874  -14.6566 C   0  0  0  0  0  0  0  0  0  0  0  0
   22.3257   -5.4360  -14.0106 C   0  0  0  0  0  0  0  0  0  0  0  0
   21.9906   -5.2473  -12.7821 O   0  0  0  0  0  0  0  0  0  0  0  0
   19.5182   -5.3730  -14.5983 C   0  0  0  0  0  0  0  0  0  0  0  0
   19.6677   -4.2383  -13.8378 O   0  0  0  0  0  0  0  0  0  0  0  0
   23.2243   -4.5705  -14.5626 O   0  0  0  0  0  0  0  0  0  0  0  0
   18.7522   -5.2682  -15.5977 O   0  0  0  0  0  0  0  0  0  0  0  0
  2  4  1  0
  2  1  1  1
  3  2  1  0
  4  5  1  1
  6  4  1  0
  6  7  2  0
  9  8  1  1
  9 11  1  0
  9 10  1  0
 12 11  1  1
 12 13  1  0
 13  6  1  0
 14 12  1  0
 15 14  2  0
 16 14  1  0
 17 16  1  0
 17 21  1  0
 17 18  1  6
 19 20  2  0
 19 18  1  0
 21 22  1  0
 23 19  1  0
 24 21  2  0
M  END
$$$$
