TLD.pdb
     RDKit          3D

 24 23  0  0  1  0  0  0  0  0999 V2000
   24.8318  -38.7288   -6.0746 C   0  0  0  0  0  0  0  0  0  0  0  0
   25.4790  -39.1494   -7.3539 C   0  0  1  0  0  0  0  0  0  0  0  0
   24.9396  -40.2686   -7.9459 O   0  0  0  0  0  0  0  0  0  0  0  0
   25.6393  -37.9880   -8.3375 C   0  0  2  0  0  0  0  0  0  0  0  0
   26.2474  -38.4349   -9.5503 N   0  0  0  0  0  0  0  0  0  0  0  0
   26.3584  -36.8517   -7.7527 C   0  0  0  0  0  0  0  0  0  0  0  0
   27.6074  -36.8862   -7.7203 O   0  0  0  0  0  0  0  0  0  0  0  0
   27.0249  -32.3680   -8.5851 C   0  0  0  0  0  0  0  0  0  0  0  0
   25.6403  -32.8272   -8.1929 C   0  0  2  0  0  0  0  0  0  0  0  0
   24.7392  -31.5989   -8.2873 C   0  0  0  0  0  0  0  0  0  0  0  0
   25.5469  -33.3552   -6.8073 C   0  0  0  0  0  0  0  0  0  0  0  0
   26.3471  -34.6027   -6.5813 C   0  0  2  0  0  0  0  0  0  0  0  0
   25.6860  -35.7400   -7.2344 N   0  0  0  0  0  0  0  0  0  0  0  0
   26.4548  -34.9345   -5.1331 C   0  0  0  0  0  0  0  0  0  0  0  0
   25.4887  -35.4663   -4.5389 O   0  0  0  0  0  0  0  0  0  0  0  0
   27.6238  -34.6680   -4.3942 N   0  0  0  0  0  0  0  0  0  0  0  0
   27.7463  -35.2010   -3.0462 C   0  0  1  0  0  0  0  0  0  0  0  0
   29.1933  -35.3761   -2.6680 C   0  0  0  0  0  0  0  0  0  0  0  0
   29.2976  -35.8920   -1.2910 C   0  0  0  0  0  0  0  0  0  0  0  0
   30.3737  -36.5550   -1.0464 O   0  0  0  0  0  0  0  0  0  0  0  0
   27.0821  -34.1882   -2.1788 C   0  0  0  0  0  0  0  0  0  0  0  0
   26.8311  -32.9101   -2.6166 O   0  0  0  0  0  0  0  0  0  0  0  0
   28.3976  -35.7476   -0.2759 O   0  0  0  0  0  0  0  0  0  0  0  0
   26.7141  -34.4472   -0.9982 O   0  0  0  0  0  0  0  0  0  0  0  0
  2  4  1  0
  2  1  1  1
  3  2  1  0
  4  5  1  6
  6  4  1  0
  6  7  2  0
  9  8  1  1
  9 11  1  0
  9 10  1  0
 12 11  1  1
 12 13  1  0
 13  6  1  0
 14 12  1  0
 15 14  2  0
 16 14  1  0
 17 16  1  0
 17 21  1  0
 17 18  1  1
 19 20  2  0
 19 18  1  0
 21 22  1  0
 23 19  1  0
 24 21  2  0
M  END
$$$$
