TLD.pdb
     RDKit          3D

 24 23  0  0  1  0  0  0  0  0999 V2000
   18.9957  -23.3678  -13.2088 C   0  0  0  0  0  0  0  0  0  0  0  0
   19.8862  -22.2082  -13.5168 C   0  0  1  0  0  0  0  0  0  0  0  0
   19.3845  -21.3067  -14.4275 O   0  0  0  0  0  0  0  0  0  0  0  0
   20.4180  -21.5278  -12.2534 C   0  0  2  0  0  0  0  0  0  0  0  0
   19.3489  -20.9443  -11.5071 N   0  0  0  0  0  0  0  0  0  0  0  0
   21.4766  -20.5550  -12.5422 C   0  0  0  0  0  0  0  0  0  0  0  0
   21.2050  -19.3369  -12.4748 O   0  0  0  0  0  0  0  0  0  0  0  0
   25.3320  -20.9616   -9.9280 C   0  0  0  0  0  0  0  0  0  0  0  0
   24.8857  -21.2324  -11.3455 C   0  0  2  0  0  0  0  0  0  0  0  0
   25.8592  -22.2629  -11.9113 C   0  0  0  0  0  0  0  0  0  0  0  0
   24.9205  -20.0392  -12.2301 C   0  0  0  0  0  0  0  0  0  0  0  0
   23.8467  -20.0316  -13.2763 C   0  0  2  0  0  0  0  0  0  0  0  0
   22.7716  -20.9542  -12.8888 N   0  0  0  0  0  0  0  0  0  0  0  0
   24.3599  -20.4909  -14.5971 C   0  0  0  0  0  0  0  0  0  0  0  0
   24.2033  -21.6827  -14.9498 O   0  0  0  0  0  0  0  0  0  0  0  0
   25.0260  -19.6190  -15.4800 N   0  0  0  0  0  0  0  0  0  0  0  0
   24.4496  -19.3621  -16.7907 C   0  0  1  0  0  0  0  0  0  0  0  0
   22.9737  -19.0836  -16.6826 C   0  0  0  0  0  0  0  0  0  0  0  0
   22.4172  -18.7795  -18.0133 C   0  0  0  0  0  0  0  0  0  0  0  0
   22.6041  -19.6979  -18.8959 O   0  0  0  0  0  0  0  0  0  0  0  0
   25.1861  -18.1712  -17.2993 C   0  0  0  0  0  0  0  0  0  0  0  0
   25.4492  -17.9970  -18.6368 O   0  0  0  0  0  0  0  0  0  0  0  0
   21.7452  -17.6568  -18.3995 O   0  0  0  0  0  0  0  0  0  0  0  0
   25.6075  -17.2595  -16.5328 O   0  0  0  0  0  0  0  0  0  0  0  0
  2  4  1  0
  2  1  1  1
  3  2  1  0
  4  5  1  6
  6  4  1  0
  6  7  2  0
  9  8  1  1
  9 11  1  0
  9 10  1  0
 12 11  1  1
 12 13  1  0
 13  6  1  0
 14 12  1  0
 15 14  2  0
 16 14  1  0
 17 16  1  0
 17 21  1  0
 17 18  1  1
 19 20  2  0
 19 18  1  0
 21 22  1  0
 23 19  1  0
 24 21  2  0
M  END
$$$$
