TLD.pdb
     RDKit          3D

 24 23  0  0  1  0  0  0  0  0999 V2000
   20.9662  -10.4100  -19.6402 C   0  0  0  0  0  0  0  0  0  0  0  0
   20.7406  -11.8552  -19.3357 C   0  0  1  0  0  0  0  0  0  0  0  0
   20.5275  -12.6609  -20.4308 O   0  0  0  0  0  0  0  0  0  0  0  0
   21.7986  -12.4251  -18.3881 C   0  0  2  0  0  0  0  0  0  0  0  0
   21.5691  -13.8155  -18.1542 N   0  0  0  0  0  0  0  0  0  0  0  0
   21.8961  -11.6696  -17.1351 C   0  0  0  0  0  0  0  0  0  0  0  0
   21.0333  -11.8616  -16.2515 O   0  0  0  0  0  0  0  0  0  0  0  0
   26.8206  -10.8981  -15.4999 C   0  0  0  0  0  0  0  0  0  0  0  0
   25.5173  -10.3869  -16.0672 C   0  0  2  0  0  0  0  0  0  0  0  0
   25.8070   -8.9925  -16.6163 C   0  0  0  0  0  0  0  0  0  0  0  0
   24.4269  -10.2645  -15.0654 C   0  0  0  0  0  0  0  0  0  0  0  0
   23.0839   -9.9775  -15.6668 C   0  0  2  0  0  0  0  0  0  0  0  0
   22.9224  -10.7468  -16.9074 N   0  0  0  0  0  0  0  0  0  0  0  0
   22.9352   -8.5390  -16.0239 C   0  0  0  0  0  0  0  0  0  0  0  0
   23.1817   -8.1546  -17.1904 O   0  0  0  0  0  0  0  0  0  0  0  0
   22.5198   -7.5782  -15.0817 N   0  0  0  0  0  0  0  0  0  0  0  0
   22.2964   -6.2086  -15.5184 C   0  0  1  0  0  0  0  0  0  0  0  0
   21.0040   -6.0931  -16.2824 C   0  0  0  0  0  0  0  0  0  0  0  0
   20.7613   -4.6882  -16.6570 C   0  0  0  0  0  0  0  0  0  0  0  0
   21.7477   -4.1132  -17.2517 O   0  0  0  0  0  0  0  0  0  0  0  0
   22.2499   -5.4144  -14.2589 C   0  0  0  0  0  0  0  0  0  0  0  0
   22.3781   -6.0036  -13.0240 O   0  0  0  0  0  0  0  0  0  0  0  0
   19.6332   -3.9512  -16.4437 O   0  0  0  0  0  0  0  0  0  0  0  0
   22.0910   -4.1610  -14.2562 O   0  0  0  0  0  0  0  0  0  0  0  0
  2  4  1  0
  2  1  1  6
  3  2  1  0
  4  5  1  1
  6  4  1  0
  6  7  2  0
  9  8  1  1
  9 11  1  0
  9 10  1  0
 12 11  1  6
 12 13  1  0
 13  6  1  0
 14 12  1  0
 15 14  2  0
 16 14  1  0
 17 16  1  0
 17 21  1  0
 17 18  1  1
 19 20  2  0
 19 18  1  0
 21 22  1  0
 23 19  1  0
 24 21  2  0
M  END
$$$$
