TLD.pdb
     RDKit          3D

 24 23  0  0  1  0  0  0  0  0999 V2000
   26.1003  -19.8255  -16.2803 C   0  0  0  0  0  0  0  0  0  0  0  0
   26.4621  -21.2429  -16.5847 C   0  0  1  0  0  0  0  0  0  0  0  0
   27.4589  -21.4079  -17.5191 O   0  0  0  0  0  0  0  0  0  0  0  0
   26.7048  -22.0689  -15.3194 C   0  0  2  0  0  0  0  0  0  0  0  0
   27.0018  -23.4258  -15.6527 N   0  0  0  0  0  0  0  0  0  0  0  0
   25.5970  -21.9715  -14.3637 C   0  0  0  0  0  0  0  0  0  0  0  0
   24.6180  -22.7363  -14.5019 O   0  0  0  0  0  0  0  0  0  0  0  0
   25.2892  -21.9487   -9.5705 C   0  0  0  0  0  0  0  0  0  0  0  0
   25.9129  -20.7955  -10.3209 C   0  0  2  0  0  0  0  0  0  0  0  0
   26.4288  -19.8247   -9.2619 C   0  0  0  0  0  0  0  0  0  0  0  0
   24.9642  -20.0562  -11.1931 C   0  0  0  0  0  0  0  0  0  0  0  0
   24.4934  -20.8449  -12.3780 C   0  0  2  0  0  0  0  0  0  0  0  0
   25.6091  -21.0510  -13.3106 N   0  0  0  0  0  0  0  0  0  0  0  0
   23.4249  -20.1282  -13.1288 C   0  0  0  0  0  0  0  0  0  0  0  0
   23.7212  -19.1668  -13.8752 O   0  0  0  0  0  0  0  0  0  0  0  0
   22.0698  -20.4985  -13.0288 N   0  0  0  0  0  0  0  0  0  0  0  0
   21.1359  -20.0497  -14.0499 C   0  0  1  0  0  0  0  0  0  0  0  0
   21.5735  -20.5082  -15.4159 C   0  0  0  0  0  0  0  0  0  0  0  0
   20.5664  -20.1294  -16.4236 C   0  0  0  0  0  0  0  0  0  0  0  0
   20.1980  -18.8967  -16.3772 O   0  0  0  0  0  0  0  0  0  0  0  0
   19.8345  -20.6652  -13.6669 C   0  0  0  0  0  0  0  0  0  0  0  0
   18.6566  -20.3141  -14.2815 O   0  0  0  0  0  0  0  0  0  0  0  0
   19.9963  -20.9259  -17.3732 O   0  0  0  0  0  0  0  0  0  0  0  0
   19.7420  -21.5403  -12.7602 O   0  0  0  0  0  0  0  0  0  0  0  0
  2  4  1  0
  2  1  1  1
  3  2  1  0
  4  5  1  6
  6  4  1  0
  6  7  2  0
  9  8  1  1
  9 11  1  0
  9 10  1  0
 12 11  1  1
 12 13  1  0
 13  6  1  0
 14 12  1  0
 15 14  2  0
 16 14  1  0
 17 16  1  0
 17 21  1  0
 17 18  1  6
 19 20  2  0
 19 18  1  0
 21 22  1  0
 23 19  1  0
 24 21  2  0
M  END
$$$$
