TLD.pdb
     RDKit          3D

 24 23  0  0  1  0  0  0  0  0999 V2000
   18.5615   -9.1314  -20.1850 C   0  0  0  0  0  0  0  0  0  0  0  0
   18.6788   -8.4199  -18.8764 C   0  0  1  0  0  0  0  0  0  0  0  0
   17.9108   -7.2847  -18.7530 O   0  0  0  0  0  0  0  0  0  0  0  0
   18.5227   -9.3636  -17.6818 C   0  0  2  0  0  0  0  0  0  0  0  0
   17.2378   -9.9876  -17.6970 N   0  0  0  0  0  0  0  0  0  0  0  0
   18.7921   -8.6998  -16.4024 C   0  0  0  0  0  0  0  0  0  0  0  0
   17.8252   -8.3892  -15.6738 O   0  0  0  0  0  0  0  0  0  0  0  0
   21.0149   -9.6375  -12.3964 C   0  0  0  0  0  0  0  0  0  0  0  0
   21.7592   -9.4823  -13.7017 C   0  0  2  0  0  0  0  0  0  0  0  0
   23.2078   -9.8699  -13.4171 C   0  0  0  0  0  0  0  0  0  0  0  0
   21.7555   -8.0977  -14.2405 C   0  0  0  0  0  0  0  0  0  0  0  0
   20.4212   -7.6566  -14.7628 C   0  0  2  0  0  0  0  0  0  0  0  0
   20.0938   -8.4079  -15.9816 N   0  0  0  0  0  0  0  0  0  0  0  0
   20.4216   -6.2126  -15.1283 C   0  0  0  0  0  0  0  0  0  0  0  0
   21.3648   -5.7372  -15.8016 O   0  0  0  0  0  0  0  0  0  0  0  0
   19.3816   -5.3467  -14.7380 N   0  0  0  0  0  0  0  0  0  0  0  0
   19.3182   -4.0120  -15.3133 C   0  0  1  0  0  0  0  0  0  0  0  0
   19.2056   -4.0791  -16.8133 C   0  0  0  0  0  0  0  0  0  0  0  0
   19.0315   -2.7248  -17.3689 C   0  0  0  0  0  0  0  0  0  0  0  0
   19.5689   -1.7854  -16.6716 O   0  0  0  0  0  0  0  0  0  0  0  0
   18.1023   -3.3989  -14.7092 C   0  0  0  0  0  0  0  0  0  0  0  0
   17.2650   -4.1093  -13.8830 O   0  0  0  0  0  0  0  0  0  0  0  0
   18.3764   -2.3701  -18.5119 O   0  0  0  0  0  0  0  0  0  0  0  0
   17.7751   -2.1971  -14.9218 O   0  0  0  0  0  0  0  0  0  0  0  0
  2  4  1  0
  2  1  1  6
  3  2  1  0
  4  5  1  1
  6  4  1  0
  6  7  2  0
  9  8  1  1
  9 11  1  0
  9 10  1  0
 12 11  1  6
 12 13  1  0
 13  6  1  0
 14 12  1  0
 15 14  2  0
 16 14  1  0
 17 16  1  0
 17 21  1  0
 17 18  1  6
 19 20  2  0
 19 18  1  0
 21 22  1  0
 23 19  1  0
 24 21  2  0
M  END
$$$$
