TLD.pdb
     RDKit          3D

 24 23  0  0  1  0  0  0  0  0999 V2000
   18.4924  -13.8921  -18.5580 C   0  0  0  0  0  0  0  0  0  0  0  0
   19.0389  -12.8121  -17.6819 C   0  0  1  0  0  0  0  0  0  0  0  0
   18.1149  -12.1798  -16.8817 O   0  0  0  0  0  0  0  0  0  0  0  0
   20.2764  -13.2621  -16.9020 C   0  0  2  0  0  0  0  0  0  0  0  0
   19.9541  -14.3427  -16.0252 N   0  0  0  0  0  0  0  0  0  0  0  0
   20.9247  -12.1562  -16.1901 C   0  0  0  0  0  0  0  0  0  0  0  0
   20.4539  -11.7944  -15.0902 O   0  0  0  0  0  0  0  0  0  0  0  0
   25.0677  -10.7803  -14.2483 C   0  0  0  0  0  0  0  0  0  0  0  0
   24.9831  -11.1280  -15.7158 C   0  0  2  0  0  0  0  0  0  0  0  0
   26.3996  -10.9971  -16.2691 C   0  0  0  0  0  0  0  0  0  0  0  0
   24.1018  -10.2268  -16.5023 C   0  0  0  0  0  0  0  0  0  0  0  0
   22.6561  -10.3052  -16.1128 C   0  0  2  0  0  0  0  0  0  0  0  0
   22.0473  -11.5019  -16.7080 N   0  0  0  0  0  0  0  0  0  0  0  0
   21.8860   -9.1313  -16.6107 C   0  0  0  0  0  0  0  0  0  0  0  0
   21.6360   -9.0191  -17.8330 O   0  0  0  0  0  0  0  0  0  0  0  0
   21.4200   -8.1253  -15.7423 N   0  0  0  0  0  0  0  0  0  0  0  0
   20.6241   -7.0348  -16.2843 C   0  0  1  0  0  0  0  0  0  0  0  0
   19.1529   -7.3138  -16.1251 C   0  0  0  0  0  0  0  0  0  0  0  0
   18.3659   -6.1512  -16.5747 C   0  0  0  0  0  0  0  0  0  0  0  0
   18.7985   -5.5942  -17.6516 O   0  0  0  0  0  0  0  0  0  0  0  0
   21.0340   -5.8403  -15.4941 C   0  0  0  0  0  0  0  0  0  0  0  0
   22.0291   -5.9020  -14.5484 O   0  0  0  0  0  0  0  0  0  0  0  0
   17.2585   -5.6154  -15.9848 O   0  0  0  0  0  0  0  0  0  0  0  0
   20.4921   -4.7095  -15.6491 O   0  0  0  0  0  0  0  0  0  0  0  0
  2  4  1  0
  2  1  1  1
  3  2  1  0
  4  5  1  1
  6  4  1  0
  6  7  2  0
  9  8  1  1
  9 11  1  0
  9 10  1  0
 12 11  1  6
 12 13  1  0
 13  6  1  0
 14 12  1  0
 15 14  2  0
 16 14  1  0
 17 16  1  0
 17 21  1  0
 17 18  1  1
 19 20  2  0
 19 18  1  0
 21 22  1  0
 23 19  1  0
 24 21  2  0
M  END
$$$$
