TLD.pdb
     RDKit          3D

 24 23  0  0  1  0  0  0  0  0999 V2000
   27.2915  -16.9322  -15.4151 C   0  0  0  0  0  0  0  0  0  0  0  0
   26.3857  -18.0022  -14.8980 C   0  0  1  0  0  0  0  0  0  0  0  0
   25.2376  -18.2050  -15.6291 O   0  0  0  0  0  0  0  0  0  0  0  0
   27.1299  -19.3069  -14.6050 C   0  0  2  0  0  0  0  0  0  0  0  0
   27.7590  -19.8047  -15.7868 N   0  0  0  0  0  0  0  0  0  0  0  0
   26.2697  -20.3157  -13.9782 C   0  0  0  0  0  0  0  0  0  0  0  0
   26.1176  -21.4143  -14.5546 O   0  0  0  0  0  0  0  0  0  0  0  0
   26.9084  -22.0776   -9.9419 C   0  0  0  0  0  0  0  0  0  0  0  0
   26.2138  -20.7379  -10.0089 C   0  0  2  0  0  0  0  0  0  0  0  0
   26.1042  -20.2401   -8.5702 C   0  0  0  0  0  0  0  0  0  0  0  0
   24.8422  -20.7943  -10.5772 C   0  0  0  0  0  0  0  0  0  0  0  0
   24.8096  -21.0757  -12.0494 C   0  0  2  0  0  0  0  0  0  0  0  0
   25.6208  -20.0799  -12.7618 N   0  0  0  0  0  0  0  0  0  0  0  0
   23.4278  -20.9849  -12.5982 C   0  0  0  0  0  0  0  0  0  0  0  0
   22.5051  -21.6604  -12.0866 O   0  0  0  0  0  0  0  0  0  0  0  0
   23.1148  -20.1525  -13.6902 N   0  0  0  0  0  0  0  0  0  0  0  0
   21.7492  -20.1250  -14.1910 C   0  0  1  0  0  0  0  0  0  0  0  0
   21.2718  -18.7081  -14.3697 C   0  0  0  0  0  0  0  0  0  0  0  0
   19.9109  -18.7003  -14.9365 C   0  0  0  0  0  0  0  0  0  0  0  0
   19.1488  -19.6487  -14.5158 O   0  0  0  0  0  0  0  0  0  0  0  0
   21.8122  -20.8404  -15.4962 C   0  0  0  0  0  0  0  0  0  0  0  0
   20.6781  -21.1693  -16.1992 O   0  0  0  0  0  0  0  0  0  0  0  0
   19.3880  -17.8196  -15.8378 O   0  0  0  0  0  0  0  0  0  0  0  0
   22.9066  -21.1825  -16.0268 O   0  0  0  0  0  0  0  0  0  0  0  0
  2  4  1  0
  2  1  1  6
  3  2  1  0
  4  5  1  6
  6  4  1  0
  6  7  2  0
  9  8  1  1
  9 11  1  0
  9 10  1  0
 12 11  1  1
 12 13  1  0
 13  6  1  0
 14 12  1  0
 15 14  2  0
 16 14  1  0
 17 16  1  0
 17 21  1  0
 17 18  1  6
 19 20  2  0
 19 18  1  0
 21 22  1  0
 23 19  1  0
 24 21  2  0
M  END
$$$$
