QLQ.pdb
     RDKit          3D

 27 26  0  0  1  0  0  0  0  0999 V2000
   24.4281  -18.5464  -17.5586 N   0  0  0  0  0  0  0  0  0  0  0  0
   25.8516  -18.5443  -17.7649 C   0  0  0  0  0  0  0  0  0  0  0  0
   26.3846  -17.5331  -18.2864 O   0  0  0  0  0  0  0  0  0  0  0  0
   26.5817  -19.7414  -17.3498 C   0  0  0  0  0  0  0  0  0  0  0  0
   25.7508  -20.7609  -16.6524 C   0  0  0  0  0  0  0  0  0  0  0  0
   26.3881  -21.2440  -15.4062 C   0  0  2  0  0  0  0  0  0  0  0  0
   27.1527  -22.4416  -15.6058 N   0  0  0  0  0  0  0  0  0  0  0  0
   25.3704  -21.5521  -14.3376 C   0  0  0  0  0  0  0  0  0  0  0  0
   24.5963  -22.5147  -14.4860 O   0  0  0  0  0  0  0  0  0  0  0  0
   25.9064  -20.1874   -8.7480 C   0  0  0  0  0  0  0  0  0  0  0  0
   25.2701  -21.0282   -9.8248 C   0  0  2  0  0  0  0  0  0  0  0  0
   26.4337  -21.7305  -10.5517 C   0  0  0  0  0  0  0  0  0  0  0  0
   24.5494  -20.2608  -10.8600 C   0  0  0  0  0  0  0  0  0  0  0  0
   24.3289  -20.8673  -12.1890 C   0  0  2  0  0  0  0  0  0  0  0  0
   25.3395  -20.7060  -13.1758 N   0  0  0  0  0  0  0  0  0  0  0  0
   23.0343  -20.4492  -12.8152 C   0  0  0  0  0  0  0  0  0  0  0  0
   22.9836  -19.6109  -13.7708 O   0  0  0  0  0  0  0  0  0  0  0  0
   20.3060  -24.1807  -15.9513 N   0  0  0  0  0  0  0  0  0  0  0  0
   19.4192  -23.1878  -15.4915 C   0  0  0  0  0  0  0  0  0  0  0  0
   18.2541  -23.5615  -15.1170 O   0  0  0  0  0  0  0  0  0  0  0  0
   19.8470  -21.7771  -15.4481 C   0  0  0  0  0  0  0  0  0  0  0  0
   20.9128  -21.5565  -14.4551 C   0  0  0  0  0  0  0  0  0  0  0  0
   20.5546  -20.8990  -13.1560 C   0  0  2  0  0  0  0  0  0  0  0  0
   21.8136  -20.9739  -12.3648 N   0  0  0  0  0  0  0  0  0  0  0  0
   19.4084  -21.3644  -12.4277 C   0  0  0  0  0  0  0  0  0  0  0  0
   18.1392  -20.8739  -12.6591 O   0  0  0  0  0  0  0  0  0  0  0  0
   19.5411  -22.2553  -11.5261 O   0  0  0  0  0  0  0  0  0  0  0  0
  2  1  1  0
  3  2  2  0
  4  2  1  0
  5  4  1  0
  6  7  1  6
  6  5  1  0
  8  6  1  0
  9  8  2  0
 11 10  1  1
 12 11  1  0
 13 11  1  0
 14 13  1  1
 14 15  1  0
 15  8  1  0
 16 24  1  0
 16 14  1  0
 17 16  2  0
 18 19  1  0
 19 21  1  0
 20 19  2  0
 21 22  1  0
 23 22  1  6
 23 24  1  0
 23 25  1  0
 25 26  1  0
 27 25  2  0
M  END
$$$$
