QLQ.pdb
     RDKit          3D

 27 26  0  0  1  0  0  0  0  0999 V2000
   26.5415  -16.0997  -14.5718 N   0  0  0  0  0  0  0  0  0  0  0  0
   26.8507  -15.9628  -15.9699 C   0  0  0  0  0  0  0  0  0  0  0  0
   27.6802  -15.0871  -16.3219 O   0  0  0  0  0  0  0  0  0  0  0  0
   26.1608  -16.8647  -16.8912 C   0  0  0  0  0  0  0  0  0  0  0  0
   25.2606  -17.8505  -16.2325 C   0  0  0  0  0  0  0  0  0  0  0  0
   26.0107  -18.9722  -15.6227 C   0  0  2  0  0  0  0  0  0  0  0  0
   26.7077  -19.7635  -16.5957 N   0  0  0  0  0  0  0  0  0  0  0  0
   25.1034  -19.9111  -14.8692 C   0  0  0  0  0  0  0  0  0  0  0  0
   24.4991  -20.8074  -15.4851 O   0  0  0  0  0  0  0  0  0  0  0  0
   26.2808  -22.2972  -11.0668 C   0  0  0  0  0  0  0  0  0  0  0  0
   25.7407  -20.9214  -10.7725 C   0  0  2  0  0  0  0  0  0  0  0  0
   25.6915  -20.8094   -9.2360 C   0  0  0  0  0  0  0  0  0  0  0  0
   24.3598  -20.6888  -11.2405 C   0  0  0  0  0  0  0  0  0  0  0  0
   24.0998  -20.5476  -12.6879 C   0  0  2  0  0  0  0  0  0  0  0  0
   24.9751  -19.7258  -13.4494 N   0  0  0  0  0  0  0  0  0  0  0  0
   22.7034  -20.0985  -12.9903 C   0  0  0  0  0  0  0  0  0  0  0  0
   22.2990  -18.9209  -12.7291 O   0  0  0  0  0  0  0  0  0  0  0  0
   20.2890  -21.3365  -18.0807 N   0  0  0  0  0  0  0  0  0  0  0  0
   19.1101  -20.7956  -17.5316 C   0  0  0  0  0  0  0  0  0  0  0  0
   18.1177  -20.6165  -18.3193 O   0  0  0  0  0  0  0  0  0  0  0  0
   19.0479  -20.4632  -16.0961 C   0  0  0  0  0  0  0  0  0  0  0  0
   20.3176  -20.7559  -15.4088 C   0  0  0  0  0  0  0  0  0  0  0  0
   20.3851  -20.5715  -13.9223 C   0  0  2  0  0  0  0  0  0  0  0  0
   21.7778  -20.9718  -13.5808 N   0  0  0  0  0  0  0  0  0  0  0  0
   19.4014  -21.2071  -13.0921 C   0  0  0  0  0  0  0  0  0  0  0  0
   18.2434  -20.5668  -12.6995 O   0  0  0  0  0  0  0  0  0  0  0  0
   19.5829  -22.4007  -12.6838 O   0  0  0  0  0  0  0  0  0  0  0  0
  2  1  1  0
  3  2  2  0
  4  2  1  0
  5  4  1  0
  6  7  1  6
  6  5  1  0
  8  6  1  0
  9  8  2  0
 11 10  1  1
 12 11  1  0
 13 11  1  0
 14 13  1  1
 14 15  1  0
 15  8  1  0
 16 24  1  0
 16 14  1  0
 17 16  2  0
 18 19  1  0
 19 21  1  0
 20 19  2  0
 21 22  1  0
 23 22  1  6
 23 24  1  0
 23 25  1  0
 25 26  1  0
 27 25  2  0
M  END
$$$$
