QLQ.pdb
     RDKit          3D

 27 26  0  0  1  0  0  0  0  0999 V2000
   23.2530  -31.4710  -18.3733 N   0  0  0  0  0  0  0  0  0  0  0  0
   24.1326  -32.5839  -18.6114 C   0  0  0  0  0  0  0  0  0  0  0  0
   23.7361  -33.7399  -18.3198 O   0  0  0  0  0  0  0  0  0  0  0  0
   25.4452  -32.2796  -19.1794 C   0  0  0  0  0  0  0  0  0  0  0  0
   25.6589  -30.8430  -19.5063 C   0  0  0  0  0  0  0  0  0  0  0  0
   26.9086  -30.3146  -18.9132 C   0  0  2  0  0  0  0  0  0  0  0  0
   27.7354  -31.3473  -18.3576 N   0  0  0  0  0  0  0  0  0  0  0  0
   26.6324  -29.3347  -17.8014 C   0  0  0  0  0  0  0  0  0  0  0  0
   26.8953  -29.6487  -16.6266 O   0  0  0  0  0  0  0  0  0  0  0  0
   28.7490  -26.3573  -15.7696 C   0  0  0  0  0  0  0  0  0  0  0  0
   28.3011  -26.0165  -17.1676 C   0  0  2  0  0  0  0  0  0  0  0  0
   28.9223  -24.6419  -17.4842 C   0  0  0  0  0  0  0  0  0  0  0  0
   26.8425  -25.8478  -17.3231 C   0  0  0  0  0  0  0  0  0  0  0  0
   25.9589  -27.0240  -17.1872 C   0  0  2  0  0  0  0  0  0  0  0  0
   26.0684  -28.0603  -18.1543 N   0  0  0  0  0  0  0  0  0  0  0  0
   24.5091  -26.6592  -17.0981 C   0  0  0  0  0  0  0  0  0  0  0  0
   23.7697  -26.5647  -18.1290 O   0  0  0  0  0  0  0  0  0  0  0  0
   20.2340  -26.2209  -12.4097 N   0  0  0  0  0  0  0  0  0  0  0  0
   20.6896  -24.9200  -12.6988 C   0  0  0  0  0  0  0  0  0  0  0  0
   20.1058  -23.9439  -12.1123 O   0  0  0  0  0  0  0  0  0  0  0  0
   21.8052  -24.7199  -13.6425 C   0  0  0  0  0  0  0  0  0  0  0  0
   22.2676  -25.9920  -14.2240 C   0  0  0  0  0  0  0  0  0  0  0  0
   22.4620  -26.0706  -15.7087 C   0  0  2  0  0  0  0  0  0  0  0  0
   23.9051  -26.4052  -15.8576 N   0  0  0  0  0  0  0  0  0  0  0  0
   22.0578  -24.9632  -16.5279 C   0  0  0  0  0  0  0  0  0  0  0  0
   20.7867  -24.8627  -17.0564 O   0  0  0  0  0  0  0  0  0  0  0  0
   22.8840  -24.0310  -16.7975 O   0  0  0  0  0  0  0  0  0  0  0  0
  2  1  1  0
  3  2  2  0
  4  2  1  0
  5  4  1  0
  6  7  1  1
  6  5  1  0
  8  6  1  0
  9  8  2  0
 11 10  1  1
 12 11  1  0
 13 11  1  0
 14 13  1  6
 14 15  1  0
 15  8  1  0
 16 24  1  0
 16 14  1  0
 17 16  2  0
 18 19  1  0
 19 21  1  0
 20 19  2  0
 21 22  1  0
 23 22  1  1
 23 24  1  0
 23 25  1  0
 25 26  1  0
 27 25  2  0
M  END
$$$$
