QLQ.pdb
     RDKit          3D

 27 26  0  0  1  0  0  0  0  0999 V2000
   27.1317  -16.8652  -15.3351 N   0  0  0  0  0  0  0  0  0  0  0  0
   27.7876  -17.1432  -16.5847 C   0  0  0  0  0  0  0  0  0  0  0  0
   28.6901  -16.3632  -16.9795 O   0  0  0  0  0  0  0  0  0  0  0  0
   27.3433  -18.3294  -17.3153 C   0  0  0  0  0  0  0  0  0  0  0  0
   26.4028  -19.2030  -16.5613 C   0  0  0  0  0  0  0  0  0  0  0  0
   27.0645  -19.8909  -15.4293 C   0  0  2  0  0  0  0  0  0  0  0  0
   28.0517  -20.8386  -15.8604 N   0  0  0  0  0  0  0  0  0  0  0  0
   26.0778  -20.6490  -14.5783 C   0  0  0  0  0  0  0  0  0  0  0  0
   25.6149  -21.7284  -14.9888 O   0  0  0  0  0  0  0  0  0  0  0  0
   26.1906  -22.3141  -10.1043 C   0  0  0  0  0  0  0  0  0  0  0  0
   25.9843  -20.8298  -10.2645 C   0  0  2  0  0  0  0  0  0  0  0  0
   25.7657  -20.2802   -8.8412 C   0  0  0  0  0  0  0  0  0  0  0  0
   24.7808  -20.4548  -11.0332 C   0  0  0  0  0  0  0  0  0  0  0  0
   24.7394  -20.7157  -12.4868 C   0  0  2  0  0  0  0  0  0  0  0  0
   25.7099  -20.0816  -13.3098 N   0  0  0  0  0  0  0  0  0  0  0  0
   23.3993  -20.4347  -13.0936 C   0  0  0  0  0  0  0  0  0  0  0  0
   23.0191  -19.2549  -13.3797 O   0  0  0  0  0  0  0  0  0  0  0  0
   20.7815  -24.5869  -16.5465 N   0  0  0  0  0  0  0  0  0  0  0  0
   19.8293  -23.5648  -16.7265 C   0  0  0  0  0  0  0  0  0  0  0  0
   18.9307  -23.7431  -17.6199 O   0  0  0  0  0  0  0  0  0  0  0  0
   19.8862  -22.3469  -15.8967 C   0  0  0  0  0  0  0  0  0  0  0  0
   21.0087  -22.3836  -14.9433 C   0  0  0  0  0  0  0  0  0  0  0  0
   21.1564  -21.2534  -13.9691 C   0  0  2  0  0  0  0  0  0  0  0  0
   22.5022  -21.4766  -13.3726 N   0  0  0  0  0  0  0  0  0  0  0  0
   20.1359  -21.0412  -12.9821 C   0  0  0  0  0  0  0  0  0  0  0  0
   18.9660  -20.3657  -13.2651 O   0  0  0  0  0  0  0  0  0  0  0  0
   20.2939  -21.4749  -11.7942 O   0  0  0  0  0  0  0  0  0  0  0  0
  2  1  1  0
  3  2  2  0
  4  2  1  0
  5  4  1  0
  6  7  1  6
  6  5  1  0
  8  6  1  0
  9  8  2  0
 11 10  1  1
 12 11  1  0
 13 11  1  0
 14 13  1  1
 14 15  1  0
 15  8  1  0
 16 24  1  0
 16 14  1  0
 17 16  2  0
 18 19  1  0
 19 21  1  0
 20 19  2  0
 21 22  1  0
 23 22  1  1
 23 24  1  0
 23 25  1  0
 25 26  1  0
 27 25  2  0
M  END
$$$$
