QLQ.pdb
     RDKit          3D

 27 26  0  0  1  0  0  0  0  0999 V2000
   25.4956  -18.8435  -20.2269 N   0  0  0  0  0  0  0  0  0  0  0  0
   25.3141  -17.5221  -19.6884 C   0  0  0  0  0  0  0  0  0  0  0  0
   25.6456  -16.5336  -20.3896 O   0  0  0  0  0  0  0  0  0  0  0  0
   24.7530  -17.4283  -18.3413 C   0  0  0  0  0  0  0  0  0  0  0  0
   24.3933  -18.7368  -17.7295 C   0  0  0  0  0  0  0  0  0  0  0  0
   25.4920  -19.2892  -16.9046 C   0  0  2  0  0  0  0  0  0  0  0  0
   26.3742  -20.1354  -17.6559 N   0  0  0  0  0  0  0  0  0  0  0  0
   24.9716  -20.1155  -15.7562 C   0  0  0  0  0  0  0  0  0  0  0  0
   24.4218  -21.2078  -15.9851 O   0  0  0  0  0  0  0  0  0  0  0  0
   25.3871  -20.2769   -9.4889 C   0  0  0  0  0  0  0  0  0  0  0  0
   24.8668  -20.8096  -10.7991 C   0  0  2  0  0  0  0  0  0  0  0  0
   25.4541  -22.2278  -10.9388 C   0  0  0  0  0  0  0  0  0  0  0  0
   25.3195  -20.0641  -11.9903 C   0  0  0  0  0  0  0  0  0  0  0  0
   24.6890  -20.3367  -13.2983 C   0  0  2  0  0  0  0  0  0  0  0  0
   25.1368  -19.5959  -14.4261 N   0  0  0  0  0  0  0  0  0  0  0  0
   23.1961  -20.2217  -13.2633 C   0  0  0  0  0  0  0  0  0  0  0  0
   22.6015  -19.0989  -13.3261 O   0  0  0  0  0  0  0  0  0  0  0  0
   19.6520  -25.0717  -14.4544 N   0  0  0  0  0  0  0  0  0  0  0  0
   18.7619  -24.0029  -14.6757 C   0  0  0  0  0  0  0  0  0  0  0  0
   17.6478  -24.2683  -15.2466 O   0  0  0  0  0  0  0  0  0  0  0  0
   19.1241  -22.6385  -14.2486 C   0  0  0  0  0  0  0  0  0  0  0  0
   20.4364  -22.6023  -13.5801 C   0  0  0  0  0  0  0  0  0  0  0  0
   20.9087  -21.3019  -13.0021 C   0  0  2  0  0  0  0  0  0  0  0  0
   22.3880  -21.3637  -13.1585 N   0  0  0  0  0  0  0  0  0  0  0  0
   20.5019  -20.9361  -11.6748 C   0  0  0  0  0  0  0  0  0  0  0  0
   19.4351  -20.0934  -11.4369 O   0  0  0  0  0  0  0  0  0  0  0  0
   21.1353  -21.3855  -10.6644 O   0  0  0  0  0  0  0  0  0  0  0  0
  2  1  1  0
  3  2  2  0
  4  2  1  0
  5  4  1  0
  6  7  1  6
  6  5  1  0
  8  6  1  0
  9  8  2  0
 11 10  1  1
 12 11  1  0
 13 11  1  0
 14 13  1  1
 14 15  1  0
 15  8  1  0
 16 24  1  0
 16 14  1  0
 17 16  2  0
 18 19  1  0
 19 21  1  0
 20 19  2  0
 21 22  1  0
 23 22  1  1
 23 24  1  0
 23 25  1  0
 25 26  1  0
 27 25  2  0
M  END
$$$$
