DHS.pdb
     RDKit          3D

 25 25  0  0  1  0  0  0  0  0999 V2000
   43.1614   -8.8074   -6.8975 N   0  0  0  0  0  0  0  0  0  0  0  0
   43.0181   -7.7115   -7.8389 C   0  0  1  0  0  0  0  0  0  0  0  0
   44.2213   -7.6192   -8.7241 C   0  0  0  0  0  0  0  0  0  0  0  0
   45.3634   -7.1596   -7.8933 C   0  0  0  0  0  0  0  0  0  0  0  0
   46.3855   -7.8958   -7.7663 O   0  0  0  0  0  0  0  0  0  0  0  0
   41.7570   -7.9025   -8.6001 C   0  0  0  0  0  0  0  0  0  0  0  0
   41.6054   -8.8760   -9.4163 O   0  0  0  0  0  0  0  0  0  0  0  0
   45.3904   -5.9476   -7.2283 O   0  0  0  0  0  0  0  0  0  0  0  0
   40.6613   -7.0113   -8.4559 N   0  0  0  0  0  0  0  0  0  0  0  0
   39.4219   -7.1988   -9.2531 C   0  0  1  0  0  0  0  0  0  0  0  0
   38.2854   -7.4944   -8.3342 C   0  0  0  0  0  0  0  0  0  0  0  0
   38.2577   -8.7917   -7.6882 C   0  0  0  0  0  0  0  0  0  0  0  0
   39.0935   -9.8764   -7.6773 C   0  0  0  0  0  0  0  0  0  0  0  0
   38.5691  -10.8035   -6.8216 N   0  0  0  0  0  0  0  0  0  0  0  0
   37.4513  -10.3075   -6.3222 C   0  0  0  0  0  0  0  0  0  0  0  0
   37.2467   -9.1096   -6.8246 N   0  0  0  0  0  0  0  0  0  0  0  0
   39.1254   -5.8371   -9.8577 C   0  0  0  0  0  0  0  0  0  0  0  0
   39.5466   -4.8285   -9.2964 O   0  0  0  0  0  0  0  0  0  0  0  0
   36.9597   -3.3912  -13.5211 O   0  0  0  0  0  0  0  0  0  0  0  0
   37.1868   -4.6267  -12.8719 C   0  0  0  0  0  0  0  0  0  0  0  0
   38.0524   -4.4084  -11.6414 C   0  0  2  0  0  0  0  0  0  0  0  0
   38.3786   -5.6902  -11.0486 N   0  0  0  0  0  0  0  0  0  0  0  0
   37.3168   -3.5467  -10.6702 C   0  0  0  0  0  0  0  0  0  0  0  0
   36.4663   -4.0376   -9.9095 O   0  0  0  0  0  0  0  0  0  0  0  0
   37.5722   -2.1872  -10.6034 O   0  0  0  0  0  0  0  0  0  0  0  0
  2  1  1  1
  2  3  1  0
  3  4  1  0
  4  5  2  0
  6  2  1  0
  7  6  2  0
  8  4  1  0
  9  6  1  0
 10 11  1  1
 10  9  1  0
 11 12  1  0
 12 13  2  0
 13 14  1  0
 15 14  1  0
 16 12  1  0
 16 15  2  0
 17 22  1  0
 17 10  1  0
 18 17  2  0
 19 20  1  0
 21 20  1  6
 21 22  1  0
 23 21  1  0
 23 25  1  0
 24 23  2  0
M  END
$$$$
