DHS.pdb
     RDKit          3D

 25 25  0  0  1  0  0  0  0  0999 V2000
   16.3904  -19.5756    2.3049 N   0  0  0  0  0  0  0  0  0  0  0  0
   16.1916  -19.1810    3.6878 C   0  0  1  0  0  0  0  0  0  0  0  0
   16.0357  -20.3868    4.5605 C   0  0  0  0  0  0  0  0  0  0  0  0
   14.9034  -21.1887    4.0306 C   0  0  0  0  0  0  0  0  0  0  0  0
   13.8159  -20.6169    3.7252 O   0  0  0  0  0  0  0  0  0  0  0  0
   17.3249  -18.3144    4.1010 C   0  0  0  0  0  0  0  0  0  0  0  0
   18.5204  -18.5356    3.7023 O   0  0  0  0  0  0  0  0  0  0  0  0
   14.9542  -22.5575    3.8414 O   0  0  0  0  0  0  0  0  0  0  0  0
   17.1320  -17.1996    4.9587 N   0  0  0  0  0  0  0  0  0  0  0  0
   18.2773  -16.3396    5.3530 C   0  0  1  0  0  0  0  0  0  0  0  0
   17.7868  -14.9562    5.6158 C   0  0  0  0  0  0  0  0  0  0  0  0
   18.7600  -13.9571    6.0103 C   0  0  0  0  0  0  0  0  0  0  0  0
   20.1218  -13.9479    6.1536 C   0  0  0  0  0  0  0  0  0  0  0  0
   20.5005  -12.6809    6.4970 N   0  0  0  0  0  0  0  0  0  0  0  0
   19.4116  -11.9360    6.5618 C   0  0  0  0  0  0  0  0  0  0  0  0
   18.3631  -12.6759    6.2752 N   0  0  0  0  0  0  0  0  0  0  0  0
   18.7393  -16.8798    6.6956 C   0  0  0  0  0  0  0  0  0  0  0  0
   17.9015  -17.2810    7.4998 O   0  0  0  0  0  0  0  0  0  0  0  0
   22.4696  -18.5557    9.3361 O   0  0  0  0  0  0  0  0  0  0  0  0
   22.0081  -17.9872    8.1265 C   0  0  0  0  0  0  0  0  0  0  0  0
   20.5878  -17.4766    8.3085 C   0  0  2  0  0  0  0  0  0  0  0  0
   20.1057  -16.9366    7.0527 N   0  0  0  0  0  0  0  0  0  0  0  0
   20.5740  -16.4329    9.3748 C   0  0  0  0  0  0  0  0  0  0  0  0
   20.7381  -15.2355    9.0877 O   0  0  0  0  0  0  0  0  0  0  0  0
   20.3781  -16.7846   10.6999 O   0  0  0  0  0  0  0  0  0  0  0  0
  2  1  1  6
  2  3  1  0
  3  4  1  0
  4  5  2  0
  6  2  1  0
  7  6  2  0
  8  4  1  0
  9  6  1  0
 10 11  1  1
 10  9  1  0
 11 12  1  0
 12 13  2  0
 13 14  1  0
 15 14  1  0
 16 12  1  0
 16 15  2  0
 17 22  1  0
 17 10  1  0
 18 17  2  0
 19 20  1  0
 21 20  1  6
 21 22  1  0
 23 21  1  0
 23 25  1  0
 24 23  2  0
M  END
$$$$
