DHS.pdb
     RDKit          3D

 25 25  0  0  1  0  0  0  0  0999 V2000
   17.7417   -8.8751  -16.3751 N   0  0  0  0  0  0  0  0  0  0  0  0
   18.3241   -9.3583  -15.1362 C   0  0  1  0  0  0  0  0  0  0  0  0
   18.0715  -10.8245  -14.9741 C   0  0  0  0  0  0  0  0  0  0  0  0
   16.6108  -11.0166  -14.7860 C   0  0  0  0  0  0  0  0  0  0  0  0
   15.8859  -10.0361  -14.4456 O   0  0  0  0  0  0  0  0  0  0  0  0
   19.7702   -9.0194  -15.1285 C   0  0  0  0  0  0  0  0  0  0  0  0
   20.5387   -9.3745  -14.1692 O   0  0  0  0  0  0  0  0  0  0  0  0
   15.9667  -12.2274  -14.9617 O   0  0  0  0  0  0  0  0  0  0  0  0
   20.3657   -8.2847  -16.1874 N   0  0  0  0  0  0  0  0  0  0  0  0
   21.8248   -8.0064  -16.1899 C   0  0  1  0  0  0  0  0  0  0  0  0
   22.4458   -8.6443  -17.3861 C   0  0  0  0  0  0  0  0  0  0  0  0
   22.5582  -10.0893  -17.4003 C   0  0  0  0  0  0  0  0  0  0  0  0
   22.2220  -11.0867  -16.5243 C   0  0  0  0  0  0  0  0  0  0  0  0
   22.5137  -12.2830  -17.1162 N   0  0  0  0  0  0  0  0  0  0  0  0
   23.0104  -12.0320  -18.3141 C   0  0  0  0  0  0  0  0  0  0  0  0
   23.0457  -10.7314  -18.5044 N   0  0  0  0  0  0  0  0  0  0  0  0
   21.9457   -6.5077  -16.4071 C   0  0  0  0  0  0  0  0  0  0  0  0
   21.0208   -5.9045  -16.9460 O   0  0  0  0  0  0  0  0  0  0  0  0
   25.5995   -4.7183  -16.0416 O   0  0  0  0  0  0  0  0  0  0  0  0
   24.5509   -3.8970  -15.5671 C   0  0  0  0  0  0  0  0  0  0  0  0
   23.2316   -4.3475  -16.1736 C   0  0  2  0  0  0  0  0  0  0  0  0
   23.0905   -5.7807  -16.0089 N   0  0  0  0  0  0  0  0  0  0  0  0
   23.2023   -3.9743  -17.6181 C   0  0  0  0  0  0  0  0  0  0  0  0
   23.2776   -4.8486  -18.4973 O   0  0  0  0  0  0  0  0  0  0  0  0
   23.0907   -2.6474  -17.9988 O   0  0  0  0  0  0  0  0  0  0  0  0
  2  1  1  6
  2  3  1  0
  3  4  1  0
  4  5  2  0
  6  2  1  0
  7  6  2  0
  8  4  1  0
  9  6  1  0
 10 11  1  6
 10  9  1  0
 11 12  1  0
 12 13  2  0
 13 14  1  0
 15 14  1  0
 16 12  1  0
 16 15  2  0
 17 22  1  0
 17 10  1  0
 18 17  2  0
 19 20  1  0
 21 20  1  6
 21 22  1  0
 23 21  1  0
 23 25  1  0
 24 23  2  0
M  END
$$$$
