DHS.pdb
     RDKit          3D

 25 25  0  0  1  0  0  0  0  0999 V2000
   23.2352   -9.9139  -18.9155 N   0  0  0  0  0  0  0  0  0  0  0  0
   22.7828   -8.5868  -19.2918 C   0  0  1  0  0  0  0  0  0  0  0  0
   21.8663   -8.6597  -20.4727 C   0  0  0  0  0  0  0  0  0  0  0  0
   22.6825   -9.0179  -21.6608 C   0  0  0  0  0  0  0  0  0  0  0  0
   22.1296   -9.5537  -22.6657 O   0  0  0  0  0  0  0  0  0  0  0  0
   22.1484   -7.9494  -18.1097 C   0  0  0  0  0  0  0  0  0  0  0  0
   20.9880   -8.2989  -17.6994 O   0  0  0  0  0  0  0  0  0  0  0  0
   24.0452   -8.8009  -21.7499 O   0  0  0  0  0  0  0  0  0  0  0  0
   22.8025   -6.9217  -17.3806 N   0  0  0  0  0  0  0  0  0  0  0  0
   22.1844   -6.3493  -16.1571 C   0  0  1  0  0  0  0  0  0  0  0  0
   22.9233   -6.8375  -14.9575 C   0  0  0  0  0  0  0  0  0  0  0  0
   22.7687   -8.2307  -14.5886 C   0  0  0  0  0  0  0  0  0  0  0  0
   23.6155   -9.3046  -14.5185 C   0  0  0  0  0  0  0  0  0  0  0  0
   22.9070  -10.3689  -14.0369 N   0  0  0  0  0  0  0  0  0  0  0  0
   21.6687   -9.9651  -13.8169 C   0  0  0  0  0  0  0  0  0  0  0  0
   21.5640   -8.6944  -14.1384 N   0  0  0  0  0  0  0  0  0  0  0  0
   22.4544   -4.8563  -16.2335 C   0  0  0  0  0  0  0  0  0  0  0  0
   23.5328   -4.4649  -16.6736 O   0  0  0  0  0  0  0  0  0  0  0  0
   21.7943   -0.8092  -17.7617 O   0  0  0  0  0  0  0  0  0  0  0  0
   21.7258   -2.2027  -17.5320 C   0  0  0  0  0  0  0  0  0  0  0  0
   21.6439   -2.4732  -16.0382 C   0  0  2  0  0  0  0  0  0  0  0  0
   21.5037   -3.8983  -15.8140 N   0  0  0  0  0  0  0  0  0  0  0  0
   20.4828   -1.7296  -15.4675 C   0  0  0  0  0  0  0  0  0  0  0  0
   19.3599   -2.2581  -15.4142 O   0  0  0  0  0  0  0  0  0  0  0  0
   20.6409   -0.4396  -14.9892 O   0  0  0  0  0  0  0  0  0  0  0  0
  2  1  1  1
  2  3  1  0
  3  4  1  0
  4  5  2  0
  6  2  1  0
  7  6  2  0
  8  4  1  0
  9  6  1  0
 10 11  1  1
 10  9  1  0
 11 12  1  0
 12 13  2  0
 13 14  1  0
 15 14  1  0
 16 12  1  0
 16 15  2  0
 17 22  1  0
 17 10  1  0
 18 17  2  0
 19 20  1  0
 21 20  1  6
 21 22  1  0
 23 21  1  0
 23 25  1  0
 24 23  2  0
M  END
$$$$
