DHS.pdb
     RDKit          3D

 25 25  0  0  1  0  0  0  0  0999 V2000
   24.8452  -16.5158  -17.1669 N   0  0  0  0  0  0  0  0  0  0  0  0
   25.8630  -17.3329  -16.5314 C   0  0  1  0  0  0  0  0  0  0  0  0
   26.7603  -16.4879  -15.6826 C   0  0  0  0  0  0  0  0  0  0  0  0
   27.6192  -15.6835  -16.5889 C   0  0  0  0  0  0  0  0  0  0  0  0
   27.8477  -16.0914  -17.7654 O   0  0  0  0  0  0  0  0  0  0  0  0
   25.1923  -18.4122  -15.7622 C   0  0  0  0  0  0  0  0  0  0  0  0
   24.1368  -18.1908  -15.0739 O   0  0  0  0  0  0  0  0  0  0  0  0
   28.2049  -14.4842  -16.2278 O   0  0  0  0  0  0  0  0  0  0  0  0
   25.6936  -19.7405  -15.7563 N   0  0  0  0  0  0  0  0  0  0  0  0
   25.0198  -20.8013  -14.9643 C   0  0  1  0  0  0  0  0  0  0  0  0
   25.2733  -22.1262  -15.5995 C   0  0  0  0  0  0  0  0  0  0  0  0
   24.8076  -23.3098  -14.9043 C   0  0  0  0  0  0  0  0  0  0  0  0
   24.1426  -23.5326  -13.7282 C   0  0  0  0  0  0  0  0  0  0  0  0
   23.9157  -24.8756  -13.6206 N   0  0  0  0  0  0  0  0  0  0  0  0
   24.4214  -25.4591  -14.6923 C   0  0  0  0  0  0  0  0  0  0  0  0
   24.9574  -24.5450  -15.4708 N   0  0  0  0  0  0  0  0  0  0  0  0
   25.7505  -20.8312  -13.6327 C   0  0  0  0  0  0  0  0  0  0  0  0
   26.9515  -20.5737  -13.6031 O   0  0  0  0  0  0  0  0  0  0  0  0
   26.4592  -19.2151   -9.6261 O   0  0  0  0  0  0  0  0  0  0  0  0
   25.9979  -19.4538  -10.9412 C   0  0  0  0  0  0  0  0  0  0  0  0
   25.6724  -20.9291  -11.1111 C   0  0  2  0  0  0  0  0  0  0  0  0
   25.0931  -21.1465  -12.4218 N   0  0  0  0  0  0  0  0  0  0  0  0
   24.7264  -21.3501  -10.0366 C   0  0  0  0  0  0  0  0  0  0  0  0
   23.5029  -21.3806  -10.2497 O   0  0  0  0  0  0  0  0  0  0  0  0
   25.1992  -21.7128   -8.7865 O   0  0  0  0  0  0  0  0  0  0  0  0
  2  1  1  1
  2  3  1  0
  3  4  1  0
  4  5  2  0
  6  2  1  0
  7  6  2  0
  8  4  1  0
  9  6  1  0
 10 11  1  6
 10  9  1  0
 11 12  1  0
 12 13  2  0
 13 14  1  0
 15 14  1  0
 16 12  1  0
 16 15  2  0
 17 22  1  0
 17 10  1  0
 18 17  2  0
 19 20  1  0
 21 20  1  1
 21 22  1  0
 23 21  1  0
 23 25  1  0
 24 23  2  0
M  END
$$$$
