DHS.pdb
     RDKit          3D

 25 25  0  0  1  0  0  0  0  0999 V2000
   17.4042  -11.7755  -17.4351 N   0  0  0  0  0  0  0  0  0  0  0  0
   18.1992  -11.2605  -16.3350 C   0  0  1  0  0  0  0  0  0  0  0  0
   19.4335  -12.0859  -16.1478 C   0  0  0  0  0  0  0  0  0  0  0  0
   19.0170  -13.4196  -15.6439 C   0  0  0  0  0  0  0  0  0  0  0  0
   17.8875  -13.5579  -15.0889 O   0  0  0  0  0  0  0  0  0  0  0  0
   18.4984   -9.8292  -16.5958 C   0  0  0  0  0  0  0  0  0  0  0  0
   18.5750   -9.3644  -17.7853 O   0  0  0  0  0  0  0  0  0  0  0  0
   19.7992  -14.5556  -15.7409 O   0  0  0  0  0  0  0  0  0  0  0  0
   18.7132   -8.9109  -15.5345 N   0  0  0  0  0  0  0  0  0  0  0  0
   18.8290   -7.4547  -15.8041 C   0  0  1  0  0  0  0  0  0  0  0  0
   17.6858   -6.7429  -15.1640 C   0  0  0  0  0  0  0  0  0  0  0  0
   16.3904   -6.8267  -15.8090 C   0  0  0  0  0  0  0  0  0  0  0  0
   15.9346   -6.5985  -17.0800 C   0  0  0  0  0  0  0  0  0  0  0  0
   14.6043   -6.9084  -17.1122 N   0  0  0  0  0  0  0  0  0  0  0  0
   14.2533   -7.3140  -15.9051 C   0  0  0  0  0  0  0  0  0  0  0  0
   15.3020   -7.2736  -15.1128 N   0  0  0  0  0  0  0  0  0  0  0  0
   20.0715   -7.0065  -15.0536 C   0  0  0  0  0  0  0  0  0  0  0  0
   20.3107   -7.4897  -13.9496 O   0  0  0  0  0  0  0  0  0  0  0  0
   24.2335   -4.4234  -15.2638 O   0  0  0  0  0  0  0  0  0  0  0  0
   23.0329   -4.8223  -15.8953 C   0  0  0  0  0  0  0  0  0  0  0  0
   22.1951   -5.6465  -14.9310 C   0  0  2  0  0  0  0  0  0  0  0  0
   20.9653   -6.0488  -15.5842 N   0  0  0  0  0  0  0  0  0  0  0  0
   21.9074   -4.8343  -13.7127 C   0  0  0  0  0  0  0  0  0  0  0  0
   22.6658   -4.8807  -12.7300 O   0  0  0  0  0  0  0  0  0  0  0  0
   20.7905   -4.0172  -13.6605 O   0  0  0  0  0  0  0  0  0  0  0  0
  2  1  1  6
  2  3  1  0
  3  4  1  0
  4  5  2  0
  6  2  1  0
  7  6  2  0
  8  4  1  0
  9  6  1  0
 10 11  1  1
 10  9  1  0
 11 12  1  0
 12 13  2  0
 13 14  1  0
 15 14  1  0
 16 12  1  0
 16 15  2  0
 17 22  1  0
 17 10  1  0
 18 17  2  0
 19 20  1  0
 21 20  1  6
 21 22  1  0
 23 21  1  0
 23 25  1  0
 24 23  2  0
M  END
$$$$
