DHS.pdb
     RDKit          3D

 25 25  0  0  1  0  0  0  0  0999 V2000
   20.3281  -12.3823  -15.8786 N   0  0  0  0  0  0  0  0  0  0  0  0
   20.1050  -11.0134  -16.3074 C   0  0  1  0  0  0  0  0  0  0  0  0
   18.6795  -10.6179  -16.0807 C   0  0  0  0  0  0  0  0  0  0  0  0
   17.8421  -11.3503  -17.0647 C   0  0  0  0  0  0  0  0  0  0  0  0
   18.3458  -11.7250  -18.1641 O   0  0  0  0  0  0  0  0  0  0  0  0
   21.0665  -10.1316  -15.5973 C   0  0  0  0  0  0  0  0  0  0  0  0
   21.1451  -10.1133  -14.3204 O   0  0  0  0  0  0  0  0  0  0  0  0
   16.5106  -11.6614  -16.8590 O   0  0  0  0  0  0  0  0  0  0  0  0
   21.9431   -9.2677  -16.3051 N   0  0  0  0  0  0  0  0  0  0  0  0
   22.8982   -8.3942  -15.5762 C   0  0  1  0  0  0  0  0  0  0  0  0
   24.2505   -8.5221  -16.1913 C   0  0  0  0  0  0  0  0  0  0  0  0
   25.0041   -9.7307  -15.9227 C   0  0  0  0  0  0  0  0  0  0  0  0
   24.7789  -10.8561  -15.1757 C   0  0  0  0  0  0  0  0  0  0  0  0
   25.8379  -11.7002  -15.3561 N   0  0  0  0  0  0  0  0  0  0  0  0
   26.6846  -11.1168  -16.1852 C   0  0  0  0  0  0  0  0  0  0  0  0
   26.2077   -9.9425  -16.5357 N   0  0  0  0  0  0  0  0  0  0  0  0
   22.4419   -6.9742  -15.8649 C   0  0  0  0  0  0  0  0  0  0  0  0
   22.0242   -6.6962  -16.9865 O   0  0  0  0  0  0  0  0  0  0  0  0
   19.8486   -3.4835  -15.4910 O   0  0  0  0  0  0  0  0  0  0  0  0
   20.4158   -4.7674  -15.3202 C   0  0  0  0  0  0  0  0  0  0  0  0
   21.9093   -4.6390  -15.0667 C   0  0  2  0  0  0  0  0  0  0  0  0
   22.4817   -5.9580  -14.8834 N   0  0  0  0  0  0  0  0  0  0  0  0
   22.1312   -3.7919  -13.8583 C   0  0  0  0  0  0  0  0  0  0  0  0
   22.4647   -4.3081  -12.7787 O   0  0  0  0  0  0  0  0  0  0  0  0
   21.9685   -2.4182  -13.9237 O   0  0  0  0  0  0  0  0  0  0  0  0
  2  1  1  1
  2  3  1  0
  3  4  1  0
  4  5  2  0
  6  2  1  0
  7  6  2  0
  8  4  1  0
  9  6  1  0
 10 11  1  6
 10  9  1  0
 11 12  1  0
 12 13  2  0
 13 14  1  0
 15 14  1  0
 16 12  1  0
 16 15  2  0
 17 22  1  0
 17 10  1  0
 18 17  2  0
 19 20  1  0
 21 20  1  1
 21 22  1  0
 23 21  1  0
 23 25  1  0
 24 23  2  0
M  END
$$$$
