NND.pdb
     RDKit          3D

 25 24  0  0  1  0  0  0  0  0999 V2000
   14.7354  -10.8690  -11.5763 N   0  0  0  0  0  0  0  0  0  0  0  0
   14.4225   -9.5124  -11.3691 C   0  0  0  0  0  0  0  0  0  0  0  0
   13.2290   -9.1521  -11.2268 O   0  0  0  0  0  0  0  0  0  0  0  0
   15.5679   -8.5420  -11.3279 C   0  0  0  0  0  0  0  0  0  0  0  0
   16.8923   -9.2818  -11.5692 C   0  0  2  0  0  0  0  0  0  0  0  0
   17.0030  -10.3672  -10.6225 N   0  0  0  0  0  0  0  0  0  0  0  0
   17.9658   -8.3066  -11.3179 C   0  0  0  0  0  0  0  0  0  0  0  0
   18.7024   -8.4541  -10.3066 O   0  0  0  0  0  0  0  0  0  0  0  0
   22.1211   -8.3516  -13.5890 N   0  0  0  0  0  0  0  0  0  0  0  0
   20.9014   -8.4987  -14.3455 C   0  0  0  0  0  0  0  0  0  0  0  0
   20.9953   -8.6213  -15.5837 O   0  0  0  0  0  0  0  0  0  0  0  0
   19.5873   -8.5044  -13.6843 C   0  0  0  0  0  0  0  0  0  0  0  0
   19.4136   -7.1716  -12.9557 C   0  0  2  0  0  0  0  0  0  0  0  0
   18.1776   -7.2019  -12.2055 N   0  0  0  0  0  0  0  0  0  0  0  0
   19.4491   -6.0348  -13.9043 C   0  0  0  0  0  0  0  0  0  0  0  0
   20.4577   -5.8035  -14.6184 O   0  0  0  0  0  0  0  0  0  0  0  0
   18.3590   -5.1446  -14.0659 N   0  0  0  0  0  0  0  0  0  0  0  0
   18.2850   -4.2553  -15.2232 C   0  0  1  0  0  0  0  0  0  0  0  0
   16.8200   -4.0524  -15.6035 C   0  0  0  0  0  0  0  0  0  0  0  0
   16.6204   -3.0474  -16.6545 C   0  0  0  0  0  0  0  0  0  0  0  0
   15.8353   -2.0717  -16.5194 O   0  0  0  0  0  0  0  0  0  0  0  0
   18.9822   -2.9880  -14.9307 C   0  0  0  0  0  0  0  0  0  0  0  0
   19.6779   -2.9101  -13.8571 O   0  0  0  0  0  0  0  0  0  0  0  0
   17.2948   -3.1328  -17.8574 O   0  0  0  0  0  0  0  0  0  0  0  0
   18.9706   -1.8503  -15.6998 O   0  0  0  0  0  0  0  0  0  0  0  0
  1  2  1  0
  2  3  2  0
  4  2  1  0
  5  4  1  0
  5  6  1  1
  7  8  2  0
  7  5  1  0
 10  9  1  0
 10 12  1  0
 11 10  2  0
 13 12  1  6
 13 14  1  0
 14  7  1  0
 15 13  1  0
 15 17  1  0
 16 15  2  0
 18 17  1  0
 18 22  1  0
 18 19  1  1
 19 20  1  0
 20 24  1  0
 20 21  2  0
 22 25  1  0
 23 22  2  0
M  END
$$$$
