NND.pdb
     RDKit          3D

 25 24  0  0  1  0  0  0  0  0999 V2000
   17.7061  -26.6333   -6.5210 N   0  0  0  0  0  0  0  0  0  0  0  0
   17.3541  -25.4173   -5.9056 C   0  0  0  0  0  0  0  0  0  0  0  0
   16.9034  -25.4072   -4.7345 O   0  0  0  0  0  0  0  0  0  0  0  0
   17.5431  -24.1618   -6.7075 C   0  0  0  0  0  0  0  0  0  0  0  0
   18.0508  -24.5088   -8.1151 C   0  0  2  0  0  0  0  0  0  0  0  0
   19.3570  -25.1159   -8.0067 N   0  0  0  0  0  0  0  0  0  0  0  0
   18.1662  -23.2342   -8.8422 C   0  0  0  0  0  0  0  0  0  0  0  0
   17.1216  -22.5769   -9.0948 O   0  0  0  0  0  0  0  0  0  0  0  0
   19.6190  -19.0052  -11.0502 N   0  0  0  0  0  0  0  0  0  0  0  0
   20.8341  -19.5412  -10.4861 C   0  0  0  0  0  0  0  0  0  0  0  0
   21.8589  -18.8307  -10.5292 O   0  0  0  0  0  0  0  0  0  0  0  0
   20.8696  -20.8807   -9.8791 C   0  0  0  0  0  0  0  0  0  0  0  0
   19.4743  -21.4947   -9.9953 C   0  0  2  0  0  0  0  0  0  0  0  0
   19.4444  -22.7400   -9.2606 N   0  0  0  0  0  0  0  0  0  0  0  0
   19.0911  -21.6875  -11.4129 C   0  0  0  0  0  0  0  0  0  0  0  0
   19.6990  -22.4997  -12.1554 O   0  0  0  0  0  0  0  0  0  0  0  0
   18.0252  -20.9757  -12.0162 N   0  0  0  0  0  0  0  0  0  0  0  0
   17.5819  -21.2993  -13.3707 C   0  0  1  0  0  0  0  0  0  0  0  0
   17.1858  -22.7731  -13.4272 C   0  0  0  0  0  0  0  0  0  0  0  0
   16.6355  -23.1834  -14.7246 C   0  0  0  0  0  0  0  0  0  0  0  0
   16.5917  -22.4099  -15.7177 O   0  0  0  0  0  0  0  0  0  0  0  0
   16.4867  -20.3955  -13.7722 C   0  0  0  0  0  0  0  0  0  0  0  0
   16.4149  -20.0345  -15.0000 O   0  0  0  0  0  0  0  0  0  0  0  0
   16.1314  -24.4560  -14.9128 O   0  0  0  0  0  0  0  0  0  0  0  0
   15.5074  -19.8827  -12.9574 O   0  0  0  0  0  0  0  0  0  0  0  0
  1  2  1  0
  2  3  2  0
  4  2  1  0
  5  4  1  0
  5  6  1  1
  7  8  2  0
  7  5  1  0
 10  9  1  0
 10 12  1  0
 11 10  2  0
 13 12  1  6
 13 14  1  0
 14  7  1  0
 15 13  1  0
 15 17  1  0
 16 15  2  0
 18 17  1  0
 18 22  1  0
 18 19  1  1
 19 20  1  0
 20 24  1  0
 20 21  2  0
 22 25  1  0
 23 22  2  0
M  END
$$$$
