NND.pdb
     RDKit          3D

 25 24  0  0  1  0  0  0  0  0999 V2000
   18.8981  -15.2177  -14.9433 N   0  0  0  0  0  0  0  0  0  0  0  0
   19.8833  -14.5719  -15.7137 C   0  0  0  0  0  0  0  0  0  0  0  0
   20.9581  -15.1585  -15.9883 O   0  0  0  0  0  0  0  0  0  0  0  0
   19.5854  -13.1756  -16.1790 C   0  0  0  0  0  0  0  0  0  0  0  0
   18.2060  -12.7342  -15.6669 C   0  0  2  0  0  0  0  0  0  0  0  0
   17.1961  -13.5960  -16.2359 N   0  0  0  0  0  0  0  0  0  0  0  0
   18.0017  -11.3598  -16.1526 C   0  0  0  0  0  0  0  0  0  0  0  0
   17.5514  -11.1823  -17.3157 O   0  0  0  0  0  0  0  0  0  0  0  0
   15.6935   -7.1719  -17.8118 N   0  0  0  0  0  0  0  0  0  0  0  0
   16.1465   -7.4611  -16.4728 C   0  0  0  0  0  0  0  0  0  0  0  0
   16.2551   -6.5070  -15.6760 O   0  0  0  0  0  0  0  0  0  0  0  0
   16.4714   -8.8337  -16.0551 C   0  0  0  0  0  0  0  0  0  0  0  0
   17.9807   -8.9186  -15.8265 C   0  0  2  0  0  0  0  0  0  0  0  0
   18.3079  -10.2335  -15.3215 N   0  0  0  0  0  0  0  0  0  0  0  0
   18.4439   -7.8508  -14.9106 C   0  0  0  0  0  0  0  0  0  0  0  0
   18.7200   -8.0885  -13.7073 O   0  0  0  0  0  0  0  0  0  0  0  0
   18.6038   -6.5067  -15.3285 N   0  0  0  0  0  0  0  0  0  0  0  0
   19.4134   -5.5725  -14.5490 C   0  0  1  0  0  0  0  0  0  0  0  0
   20.8221   -6.1416  -14.3949 C   0  0  0  0  0  0  0  0  0  0  0  0
   21.7350   -5.2573  -13.6605 C   0  0  0  0  0  0  0  0  0  0  0  0
   21.3554   -4.1787  -13.1323 O   0  0  0  0  0  0  0  0  0  0  0  0
   19.3993   -4.2410  -15.1848 C   0  0  0  0  0  0  0  0  0  0  0  0
   19.0806   -3.2276  -14.4677 O   0  0  0  0  0  0  0  0  0  0  0  0
   23.0720   -5.5754  -13.5182 O   0  0  0  0  0  0  0  0  0  0  0  0
   19.6977   -3.9555  -16.4946 O   0  0  0  0  0  0  0  0  0  0  0  0
  1  2  1  0
  2  3  2  0
  4  2  1  0
  5  4  1  0
  5  6  1  6
  7  8  2  0
  7  5  1  0
 10  9  1  0
 10 12  1  0
 11 10  2  0
 13 12  1  1
 13 14  1  0
 14  7  1  0
 15 13  1  0
 15 17  1  0
 16 15  2  0
 18 17  1  0
 18 22  1  0
 18 19  1  6
 19 20  1  0
 20 24  1  0
 20 21  2  0
 22 25  1  0
 23 22  2  0
M  END
$$$$
