NND.pdb
     RDKit          3D

 25 24  0  0  1  0  0  0  0  0999 V2000
   16.1088  -15.2575  -14.6390 N   0  0  0  0  0  0  0  0  0  0  0  0
   16.5647  -15.3652  -15.9663 C   0  0  0  0  0  0  0  0  0  0  0  0
   16.2230  -16.3419  -16.6762 O   0  0  0  0  0  0  0  0  0  0  0  0
   17.4612  -14.2732  -16.4753 C   0  0  0  0  0  0  0  0  0  0  0  0
   17.6831  -13.2213  -15.3781 C   0  0  2  0  0  0  0  0  0  0  0  0
   16.4546  -12.4895  -15.1739 N   0  0  0  0  0  0  0  0  0  0  0  0
   18.7170  -12.3038  -15.8837 C   0  0  0  0  0  0  0  0  0  0  0  0
   19.8741  -12.7490  -16.1074 O   0  0  0  0  0  0  0  0  0  0  0  0
   21.6317   -9.4871  -19.0457 N   0  0  0  0  0  0  0  0  0  0  0  0
   20.3659   -8.9673  -18.5884 C   0  0  0  0  0  0  0  0  0  0  0  0
   20.2038   -7.7302  -18.6061 O   0  0  0  0  0  0  0  0  0  0  0  0
   19.2978   -9.8614  -18.1153 C   0  0  0  0  0  0  0  0  0  0  0  0
   19.4897  -10.0824  -16.6147 C   0  0  2  0  0  0  0  0  0  0  0  0
   18.4209  -10.9222  -16.1213 N   0  0  0  0  0  0  0  0  0  0  0  0
   19.5516   -8.7934  -15.8879 C   0  0  0  0  0  0  0  0  0  0  0  0
   18.5138   -8.2280  -15.4591 O   0  0  0  0  0  0  0  0  0  0  0  0
   20.7728   -8.1224  -15.6320 N   0  0  0  0  0  0  0  0  0  0  0  0
   20.7936   -6.8666  -14.8847 C   0  0  1  0  0  0  0  0  0  0  0  0
   22.1981   -6.6397  -14.3297 C   0  0  0  0  0  0  0  0  0  0  0  0
   22.3270   -5.4052  -13.5462 C   0  0  0  0  0  0  0  0  0  0  0  0
   21.5908   -5.1504  -12.5564 O   0  0  0  0  0  0  0  0  0  0  0  0
   20.3315   -5.7603  -15.7450 C   0  0  0  0  0  0  0  0  0  0  0  0
   20.7257   -5.7321  -16.9643 O   0  0  0  0  0  0  0  0  0  0  0  0
   23.2754   -4.4538  -13.8692 O   0  0  0  0  0  0  0  0  0  0  0  0
   19.5033   -4.7281  -15.3778 O   0  0  0  0  0  0  0  0  0  0  0  0
  1  2  1  0
  2  3  2  0
  4  2  1  0
  5  4  1  0
  5  6  1  6
  7  8  2  0
  7  5  1  0
 10  9  1  0
 10 12  1  0
 11 10  2  0
 13 12  1  6
 13 14  1  0
 14  7  1  0
 15 13  1  0
 15 17  1  0
 16 15  2  0
 18 17  1  0
 18 22  1  0
 18 19  1  6
 19 20  1  0
 20 24  1  0
 20 21  2  0
 22 25  1  0
 23 22  2  0
M  END
$$$$
