NND.pdb
     RDKit          3D

 25 24  0  0  1  0  0  0  0  0999 V2000
   11.8086   -8.3811   -8.4865 N   0  0  0  0  0  0  0  0  0  0  0  0
   12.9594   -9.1170   -8.8263 C   0  0  0  0  0  0  0  0  0  0  0  0
   12.8753  -10.3431   -9.0800 O   0  0  0  0  0  0  0  0  0  0  0  0
   14.2630   -8.3727   -8.8685 C   0  0  0  0  0  0  0  0  0  0  0  0
   14.9135   -8.5300  -10.2511 C   0  0  2  0  0  0  0  0  0  0  0  0
   15.4078   -9.8805  -10.3865 N   0  0  0  0  0  0  0  0  0  0  0  0
   16.0470   -7.5917  -10.2873 C   0  0  0  0  0  0  0  0  0  0  0  0
   15.8225   -6.3564  -10.1838 O   0  0  0  0  0  0  0  0  0  0  0  0
   20.2895   -5.1082  -10.6667 N   0  0  0  0  0  0  0  0  0  0  0  0
   20.1014   -5.7741   -9.4006 C   0  0  0  0  0  0  0  0  0  0  0  0
   20.8134   -5.4135   -8.4415 O   0  0  0  0  0  0  0  0  0  0  0  0
   19.1045   -6.8439   -9.2399 C   0  0  0  0  0  0  0  0  0  0  0  0
   18.4370   -7.0821  -10.5945 C   0  0  2  0  0  0  0  0  0  0  0  0
   17.3902   -8.0674  -10.4377 N   0  0  0  0  0  0  0  0  0  0  0  0
   19.4285   -7.4960  -11.6139 C   0  0  0  0  0  0  0  0  0  0  0  0
   19.5870   -8.7032  -11.9272 O   0  0  0  0  0  0  0  0  0  0  0  0
   20.2531   -6.5666  -12.2944 N   0  0  0  0  0  0  0  0  0  0  0  0
   20.9877   -6.9580  -13.4956 C   0  0  1  0  0  0  0  0  0  0  0  0
   20.0178   -7.5963  -14.4876 C   0  0  0  0  0  0  0  0  0  0  0  0
   20.6320   -7.9259  -15.7793 C   0  0  0  0  0  0  0  0  0  0  0  0
   21.8532   -7.7309  -16.0188 O   0  0  0  0  0  0  0  0  0  0  0  0
   21.6957   -5.7910  -14.0563 C   0  0  0  0  0  0  0  0  0  0  0  0
   22.4542   -5.9706  -15.0738 O   0  0  0  0  0  0  0  0  0  0  0  0
   19.8829   -8.4703  -16.8047 O   0  0  0  0  0  0  0  0  0  0  0  0
   21.6326   -4.4974  -13.5994 O   0  0  0  0  0  0  0  0  0  0  0  0
  1  2  1  0
  2  3  2  0
  4  2  1  0
  5  4  1  0
  5  6  1  1
  7  8  2  0
  7  5  1  0
 10  9  1  0
 10 12  1  0
 11 10  2  0
 13 12  1  1
 13 14  1  0
 14  7  1  0
 15 13  1  0
 15 17  1  0
 16 15  2  0
 18 17  1  0
 18 22  1  0
 18 19  1  6
 19 20  1  0
 20 24  1  0
 20 21  2  0
 22 25  1  0
 23 22  2  0
M  END
$$$$
