NND.pdb
     RDKit          3D

 25 24  0  0  1  0  0  0  0  0999 V2000
   14.0003  -10.6797  -16.4255 N   0  0  0  0  0  0  0  0  0  0  0  0
   14.3387   -9.3138  -16.3922 C   0  0  0  0  0  0  0  0  0  0  0  0
   13.5769   -8.4597  -16.9067 O   0  0  0  0  0  0  0  0  0  0  0  0
   15.6307   -8.9425  -15.7228 C   0  0  0  0  0  0  0  0  0  0  0  0
   16.3889  -10.2111  -15.3038 C   0  0  2  0  0  0  0  0  0  0  0  0
   15.6998  -10.8244  -14.1923 N   0  0  0  0  0  0  0  0  0  0  0  0
   17.7240   -9.7727  -14.8656 C   0  0  0  0  0  0  0  0  0  0  0  0
   17.8901   -9.4213  -13.6673 O   0  0  0  0  0  0  0  0  0  0  0  0
   23.5717  -10.5551  -15.0690 N   0  0  0  0  0  0  0  0  0  0  0  0
   22.4932   -9.6297  -15.3182 C   0  0  0  0  0  0  0  0  0  0  0  0
   22.6727   -8.4319  -15.0180 O   0  0  0  0  0  0  0  0  0  0  0  0
   21.2215  -10.0777  -15.9063 C   0  0  0  0  0  0  0  0  0  0  0  0
   20.0929   -9.2500  -15.2910 C   0  0  2  0  0  0  0  0  0  0  0  0
   18.8251   -9.7426  -15.7819 N   0  0  0  0  0  0  0  0  0  0  0  0
   20.2679   -7.8081  -15.5808 C   0  0  0  0  0  0  0  0  0  0  0  0
   20.0167   -7.3286  -16.7155 O   0  0  0  0  0  0  0  0  0  0  0  0
   20.7250   -6.8866  -14.6068 N   0  0  0  0  0  0  0  0  0  0  0  0
   20.8557   -5.4661  -14.9246 C   0  0  1  0  0  0  0  0  0  0  0  0
   19.5375   -4.7615  -14.6114 C   0  0  0  0  0  0  0  0  0  0  0  0
   19.5864   -3.3085  -14.8136 C   0  0  0  0  0  0  0  0  0  0  0  0
   19.2293   -2.4882  -13.9270 O   0  0  0  0  0  0  0  0  0  0  0  0
   22.0014   -4.8895  -14.1948 C   0  0  0  0  0  0  0  0  0  0  0  0
   22.3870   -5.4640  -13.1159 O   0  0  0  0  0  0  0  0  0  0  0  0
   20.0309   -2.7711  -16.0064 O   0  0  0  0  0  0  0  0  0  0  0  0
   22.7225   -3.7761  -14.5501 O   0  0  0  0  0  0  0  0  0  0  0  0
  1  2  1  0
  2  3  2  0
  4  2  1  0
  5  4  1  0
  5  6  1  1
  7  8  2  0
  7  5  1  0
 10  9  1  0
 10 12  1  0
 11 10  2  0
 13 12  1  6
 13 14  1  0
 14  7  1  0
 15 13  1  0
 15 17  1  0
 16 15  2  0
 18 17  1  0
 18 22  1  0
 18 19  1  1
 19 20  1  0
 20 24  1  0
 20 21  2  0
 22 25  1  0
 23 22  2  0
M  END
$$$$
