NND.pdb
     RDKit          3D

 25 24  0  0  1  0  0  0  0  0999 V2000
   23.5431  -19.2689  -14.8322 N   0  0  0  0  0  0  0  0  0  0  0  0
   24.3896  -18.6481  -15.7699 C   0  0  0  0  0  0  0  0  0  0  0  0
   24.6256  -19.1989  -16.8724 O   0  0  0  0  0  0  0  0  0  0  0  0
   24.9811  -17.3215  -15.3886 C   0  0  0  0  0  0  0  0  0  0  0  0
   24.1205  -16.1809  -15.9527 C   0  0  2  0  0  0  0  0  0  0  0  0
   24.0526  -16.3105  -17.3898 N   0  0  0  0  0  0  0  0  0  0  0  0
   24.8129  -14.9281  -15.6100 C   0  0  0  0  0  0  0  0  0  0  0  0
   25.8515  -14.9776  -14.8987 O   0  0  0  0  0  0  0  0  0  0  0  0
   26.7362  -10.3990  -15.2194 N   0  0  0  0  0  0  0  0  0  0  0  0
   27.3311  -11.5224  -15.9018 C   0  0  0  0  0  0  0  0  0  0  0  0
   28.5503  -11.4670  -16.1612 O   0  0  0  0  0  0  0  0  0  0  0  0
   26.5314  -12.6971  -16.2820 C   0  0  0  0  0  0  0  0  0  0  0  0
   25.1045  -12.4880  -15.7746 C   0  0  2  0  0  0  0  0  0  0  0  0
   24.3201  -13.6653  -16.0743 N   0  0  0  0  0  0  0  0  0  0  0  0
   24.5026  -11.2673  -16.3589 C   0  0  0  0  0  0  0  0  0  0  0  0
   24.3464  -11.1385  -17.5997 O   0  0  0  0  0  0  0  0  0  0  0  0
   24.0687  -10.1779  -15.5640 N   0  0  0  0  0  0  0  0  0  0  0  0
   22.8133   -9.4903  -15.8590 C   0  0  1  0  0  0  0  0  0  0  0  0
   21.6826  -10.5155  -15.9079 C   0  0  0  0  0  0  0  0  0  0  0  0
   20.3726   -9.9297  -16.2165 C   0  0  0  0  0  0  0  0  0  0  0  0
   19.4838   -9.7570  -15.3408 O   0  0  0  0  0  0  0  0  0  0  0  0
   22.5776   -8.4236  -14.8670 C   0  0  0  0  0  0  0  0  0  0  0  0
   23.3168   -8.3917  -13.8204 O   0  0  0  0  0  0  0  0  0  0  0  0
   20.0532   -9.5396  -17.5029 O   0  0  0  0  0  0  0  0  0  0  0  0
   21.6296   -7.4325  -14.9394 O   0  0  0  0  0  0  0  0  0  0  0  0
  1  2  1  0
  2  3  2  0
  4  2  1  0
  5  4  1  0
  5  6  1  6
  7  8  2  0
  7  5  1  0
 10  9  1  0
 10 12  1  0
 11 10  2  0
 13 12  1  6
 13 14  1  0
 14  7  1  0
 15 13  1  0
 15 17  1  0
 16 15  2  0
 18 17  1  0
 18 22  1  0
 18 19  1  1
 19 20  1  0
 20 24  1  0
 20 21  2  0
 22 25  1  0
 23 22  2  0
M  END
$$$$
