KWY.pdb
     RDKit          3D

 36 38  0  0  1  0  0  0  0  0999 V2000
    8.0951  -18.0544   21.3344 N   0  0  0  0  0  0  0  0  0  0  0  0
    8.5007  -16.7429   20.9005 C   0  0  1  0  0  0  0  0  0  0  0  0
    7.4566  -16.1134   20.0357 C   0  0  0  0  0  0  0  0  0  0  0  0
    7.1714  -16.8430   18.7730 C   0  0  0  0  0  0  0  0  0  0  0  0
    8.3091  -17.0159   17.8286 C   0  0  0  0  0  0  0  0  0  0  0  0
    7.7190  -17.5477   16.5082 C   0  0  0  0  0  0  0  0  0  0  0  0
    8.7555  -17.5932   15.5053 N   0  0  0  0  0  0  0  0  0  0  0  0
    8.8977  -15.8907   22.0494 C   0  0  0  0  0  0  0  0  0  0  0  0
    9.1762  -14.6957   21.7993 O   0  0  0  0  0  0  0  0  0  0  0  0
    8.9572  -16.4024   23.3625 N   0  0  0  0  0  0  0  0  0  0  0  0
    9.4091  -15.4767   24.4884 C   0  0  1  0  0  0  0  0  0  0  0  0
    8.4289  -15.6523   25.5608 C   0  0  0  0  0  0  0  0  0  0  0  0
    7.1670  -14.9331   25.5437 C   0  0  0  0  0  0  0  0  0  0  0  0
    5.8726  -15.3573   25.4379 C   0  0  0  0  0  0  0  0  0  0  0  0
    5.0656  -14.2952   25.4995 N   0  0  0  0  0  0  0  0  0  0  0  0
    5.7817  -13.1508   25.6466 C   0  0  0  0  0  0  0  0  0  0  0  0
    5.4028  -11.8334   25.7676 C   0  0  0  0  0  0  0  0  0  0  0  0
    6.3509  -10.8617   25.9241 C   0  0  0  0  0  0  0  0  0  0  0  0
    7.6803  -11.2150   25.9582 C   0  0  0  0  0  0  0  0  0  0  0  0
    8.0432  -12.5333   25.8347 C   0  0  0  0  0  0  0  0  0  0  0  0
    7.1008  -13.5301   25.6765 C   0  0  0  0  0  0  0  0  0  0  0  0
   10.8129  -15.7736   24.6520 C   0  0  0  0  0  0  0  0  0  0  0  0
   11.4494  -15.2010   25.6585 O   0  0  0  0  0  0  0  0  0  0  0  0
   10.5340  -15.4214   30.2468 O   0  0  0  0  0  0  0  0  0  0  0  0
   11.0454  -16.0892   29.1297 C   0  0  0  0  0  0  0  0  0  0  0  0
   10.1898  -16.3258   28.0678 C   0  0  0  0  0  0  0  0  0  0  0  0
   10.6414  -16.9812   26.9427 C   0  0  0  0  0  0  0  0  0  0  0  0
   11.9633  -17.4299   26.8236 C   0  0  0  0  0  0  0  0  0  0  0  0
   12.3275  -18.1081   25.5793 C   0  0  0  0  0  0  0  0  0  0  0  0
   12.8557  -17.2222   24.5002 C   0  0  2  0  0  0  0  0  0  0  0  0
   11.6387  -16.5963   23.9017 N   0  0  0  0  0  0  0  0  0  0  0  0
   13.5537  -17.9095   23.4079 C   0  0  0  0  0  0  0  0  0  0  0  0
   14.6081  -18.5376   23.5443 O   0  0  0  0  0  0  0  0  0  0  0  0
   12.7852  -17.1819   27.8876 C   0  0  0  0  0  0  0  0  0  0  0  0
   12.3428  -16.5215   29.0294 C   0  0  0  0  0  0  0  0  0  0  0  0
   13.0005  -17.8581   22.1131 O   0  0  0  0  0  0  0  0  0  0  0  0
  2  1  1  1
  2  3  1  0
  4  3  1  0
  5  4  1  0
  6  5  1  0
  7  6  1  0
  8  9  2  0
  8  2  1  0
 10  8  1  0
 11 10  1  0
 11 12  1  1
 13 12  1  0
 14 13  2  0
 15 14  1  0
 16 15  1  0
 16 21  2  0
 17 16  1  0
 18 17  2  0
 18 19  1  0
 19 20  2  0
 20 21  1  0
 21 13  1  0
 22 23  2  0
 22 11  1  0
 25 24  1  0
 26 25  2  0
 27 26  1  0
 28 34  1  0
 28 27  2  0
 29 28  1  0
 30 29  1  1
 30 31  1  0
 31 22  1  0
 32 30  1  0
 33 32  2  0
 34 35  2  0
 35 25  1  0
 36 32  1  0
M  END
$$$$
