KWY.pdb
     RDKit          3D

 36 38  0  0  1  0  0  0  0  0999 V2000
    7.7928  -16.0751   19.3915 N   0  0  0  0  0  0  0  0  0  0  0  0
    8.5002  -14.8345   19.5742 C   0  0  1  0  0  0  0  0  0  0  0  0
    7.7003  -13.6773   19.0683 C   0  0  0  0  0  0  0  0  0  0  0  0
    7.8955  -13.3679   17.6281 C   0  0  0  0  0  0  0  0  0  0  0  0
    7.5422  -14.4416   16.6593 C   0  0  0  0  0  0  0  0  0  0  0  0
    7.8275  -13.8860   15.2505 C   0  0  0  0  0  0  0  0  0  0  0  0
    7.5515  -14.9071   14.2690 N   0  0  0  0  0  0  0  0  0  0  0  0
    8.9444  -14.6658   20.9806 C   0  0  0  0  0  0  0  0  0  0  0  0
    9.5986  -13.6322   21.2485 O   0  0  0  0  0  0  0  0  0  0  0  0
    8.6424  -15.6245   21.9702 N   0  0  0  0  0  0  0  0  0  0  0  0
    9.3266  -15.5126   23.3298 C   0  0  1  0  0  0  0  0  0  0  0  0
    8.4163  -16.1488   24.2828 C   0  0  0  0  0  0  0  0  0  0  0  0
    7.3287  -15.4010   24.8893 C   0  0  0  0  0  0  0  0  0  0  0  0
    6.1223  -15.7902   25.3989 C   0  0  0  0  0  0  0  0  0  0  0  0
    5.4865  -14.7141   25.8686 N   0  0  0  0  0  0  0  0  0  0  0  0
    6.2342  -13.5943   25.6920 C   0  0  0  0  0  0  0  0  0  0  0  0
    6.0138  -12.2757   26.0181 C   0  0  0  0  0  0  0  0  0  0  0  0
    6.9628  -11.3341   25.7343 C   0  0  0  0  0  0  0  0  0  0  0  0
    8.1333  -11.7189   25.1217 C   0  0  0  0  0  0  0  0  0  0  0  0
    8.3383  -13.0379   24.8009 C   0  0  0  0  0  0  0  0  0  0  0  0
    7.3925  -14.0045   25.0798 C   0  0  0  0  0  0  0  0  0  0  0  0
   10.6702  -15.9856   23.0924 C   0  0  0  0  0  0  0  0  0  0  0  0
   10.8448  -16.8932   22.1480 O   0  0  0  0  0  0  0  0  0  0  0  0
   10.4666  -16.3585   31.4377 O   0  0  0  0  0  0  0  0  0  0  0  0
   10.5749  -16.2200   30.0505 C   0  0  0  0  0  0  0  0  0  0  0  0
   10.3969  -14.9587   29.5089 C   0  0  0  0  0  0  0  0  0  0  0  0
   10.4913  -14.7660   28.1476 C   0  0  0  0  0  0  0  0  0  0  0  0
   10.7670  -15.8185   27.2648 C   0  0  0  0  0  0  0  0  0  0  0  0
   10.8483  -15.4904   25.8412 C   0  0  0  0  0  0  0  0  0  0  0  0
   12.0981  -15.9317   25.1546 C   0  0  2  0  0  0  0  0  0  0  0  0
   11.8582  -15.6295   23.7116 N   0  0  0  0  0  0  0  0  0  0  0  0
   12.3887  -17.3674   25.2393 C   0  0  0  0  0  0  0  0  0  0  0  0
   13.3602  -17.8453   25.8331 O   0  0  0  0  0  0  0  0  0  0  0  0
   10.9382  -17.0523   27.8281 C   0  0  0  0  0  0  0  0  0  0  0  0
   10.8458  -17.2613   29.2005 C   0  0  0  0  0  0  0  0  0  0  0  0
   11.5145  -18.2732   24.6064 O   0  0  0  0  0  0  0  0  0  0  0  0
  2  1  1  1
  2  3  1  0
  4  3  1  0
  5  4  1  0
  6  5  1  0
  7  6  1  0
  8  9  2  0
  8  2  1  0
 10  8  1  0
 11 10  1  0
 11 12  1  1
 13 12  1  0
 14 13  2  0
 15 14  1  0
 16 15  1  0
 16 21  2  0
 17 16  1  0
 18 17  2  0
 18 19  1  0
 19 20  2  0
 20 21  1  0
 21 13  1  0
 22 23  2  0
 22 11  1  0
 25 24  1  0
 26 25  2  0
 27 26  1  0
 28 34  1  0
 28 27  2  0
 29 28  1  0
 30 29  1  1
 30 31  1  0
 31 22  1  0
 32 30  1  0
 33 32  2  0
 34 35  2  0
 35 25  1  0
 36 32  1  0
M  END
$$$$
