KWY.pdb
     RDKit          3D

 36 38  0  0  1  0  0  0  0  0999 V2000
    6.7806  -16.0063   19.1162 N   0  0  0  0  0  0  0  0  0  0  0  0
    7.9934  -15.2692   19.3585 C   0  0  1  0  0  0  0  0  0  0  0  0
    8.0789  -14.0654   18.4762 C   0  0  0  0  0  0  0  0  0  0  0  0
    7.6027  -14.2784   17.0848 C   0  0  0  0  0  0  0  0  0  0  0  0
    8.6379  -14.6055   16.0661 C   0  0  0  0  0  0  0  0  0  0  0  0
    7.8959  -14.8686   14.7414 C   0  0  0  0  0  0  0  0  0  0  0  0
    8.3193  -13.9029   13.7563 N   0  0  0  0  0  0  0  0  0  0  0  0
    8.1543  -14.9488   20.7990 C   0  0  0  0  0  0  0  0  0  0  0  0
    7.6991  -13.8494   21.1896 O   0  0  0  0  0  0  0  0  0  0  0  0
    8.7890  -15.8416   21.6876 N   0  0  0  0  0  0  0  0  0  0  0  0
    8.8781  -15.4647   23.1637 C   0  0  1  0  0  0  0  0  0  0  0  0
    7.7905  -16.1893   23.8221 C   0  0  0  0  0  0  0  0  0  0  0  0
    6.8497  -15.4986   24.6869 C   0  0  0  0  0  0  0  0  0  0  0  0
    5.7302  -15.9224   25.3455 C   0  0  0  0  0  0  0  0  0  0  0  0
    5.2250  -14.8984   26.0377 N   0  0  0  0  0  0  0  0  0  0  0  0
    5.9771  -13.7807   25.8674 C   0  0  0  0  0  0  0  0  0  0  0  0
    5.8670  -12.5070   26.3765 C   0  0  0  0  0  0  0  0  0  0  0  0
    6.7925  -11.5571   26.0465 C   0  0  0  0  0  0  0  0  0  0  0  0
    7.8285  -11.8883   25.2036 C   0  0  0  0  0  0  0  0  0  0  0  0
    7.9244  -13.1628   24.7022 C   0  0  0  0  0  0  0  0  0  0  0  0
    7.0002  -14.1370   25.0241 C   0  0  0  0  0  0  0  0  0  0  0  0
   10.2688  -15.6629   23.4986 C   0  0  0  0  0  0  0  0  0  0  0  0
   10.9382  -16.5827   22.8263 O   0  0  0  0  0  0  0  0  0  0  0  0
    9.7365  -16.7325   30.6011 O   0  0  0  0  0  0  0  0  0  0  0  0
   10.4826  -16.3605   29.4784 C   0  0  0  0  0  0  0  0  0  0  0  0
   10.6424  -15.0092   29.2247 C   0  0  0  0  0  0  0  0  0  0  0  0
   11.3670  -14.5872   28.1310 C   0  0  0  0  0  0  0  0  0  0  0  0
   11.9647  -15.4898   27.2416 C   0  0  0  0  0  0  0  0  0  0  0  0
   12.7137  -14.9229   26.1198 C   0  0  0  0  0  0  0  0  0  0  0  0
   12.4179  -15.5239   24.7857 C   0  0  2  0  0  0  0  0  0  0  0  0
   11.0538  -15.0207   24.4436 N   0  0  0  0  0  0  0  0  0  0  0  0
   12.3431  -16.9890   24.7589 C   0  0  0  0  0  0  0  0  0  0  0  0
   11.2879  -17.6304   24.7612 O   0  0  0  0  0  0  0  0  0  0  0  0
   11.7903  -16.8173   27.5175 C   0  0  0  0  0  0  0  0  0  0  0  0
   11.0615  -17.2575   28.6179 C   0  0  0  0  0  0  0  0  0  0  0  0
   13.5427  -17.7274   24.7306 O   0  0  0  0  0  0  0  0  0  0  0  0
  2  1  1  1
  2  3  1  0
  4  3  1  0
  5  4  1  0
  6  5  1  0
  7  6  1  0
  8  9  2  0
  8  2  1  0
 10  8  1  0
 11 10  1  0
 11 12  1  1
 13 12  1  0
 14 13  2  0
 15 14  1  0
 16 15  1  0
 16 21  2  0
 17 16  1  0
 18 17  2  0
 18 19  1  0
 19 20  2  0
 20 21  1  0
 21 13  1  0
 22 23  2  0
 22 11  1  0
 25 24  1  0
 26 25  2  0
 27 26  1  0
 28 34  1  0
 28 27  2  0
 29 28  1  0
 30 29  1  1
 30 31  1  0
 31 22  1  0
 32 30  1  0
 33 32  2  0
 34 35  2  0
 35 25  1  0
 36 32  1  0
M  END
$$$$
