KWY.pdb
     RDKit          3D

 36 38  0  0  1  0  0  0  0  0999 V2000
    9.0638  -17.0491   20.4270 N   0  0  0  0  0  0  0  0  0  0  0  0
    9.9335  -15.9258   20.6609 C   0  0  1  0  0  0  0  0  0  0  0  0
    9.5276  -14.7476   19.8353 C   0  0  0  0  0  0  0  0  0  0  0  0
    9.2124  -15.0602   18.4171 C   0  0  0  0  0  0  0  0  0  0  0  0
    8.8295  -13.9135   17.5484 C   0  0  0  0  0  0  0  0  0  0  0  0
    8.5963  -14.4803   16.1346 C   0  0  0  0  0  0  0  0  0  0  0  0
    8.1184  -13.4280   15.2705 N   0  0  0  0  0  0  0  0  0  0  0  0
   10.0394  -15.6147   22.1085 C   0  0  0  0  0  0  0  0  0  0  0  0
   10.7356  -14.6232   22.4258 O   0  0  0  0  0  0  0  0  0  0  0  0
    9.3852  -16.3981   23.0820 N   0  0  0  0  0  0  0  0  0  0  0  0
    9.3506  -15.8960   24.5227 C   0  0  1  0  0  0  0  0  0  0  0  0
    7.9460  -15.9586   24.9285 C   0  0  0  0  0  0  0  0  0  0  0  0
    7.0369  -14.8625   24.6422 C   0  0  0  0  0  0  0  0  0  0  0  0
    6.0836  -14.6914   23.6785 C   0  0  0  0  0  0  0  0  0  0  0  0
    5.4958  -13.5064   23.8607 N   0  0  0  0  0  0  0  0  0  0  0  0
    6.0267  -12.8619   24.9315 C   0  0  0  0  0  0  0  0  0  0  0  0
    5.7462  -11.6449   25.5093 C   0  0  0  0  0  0  0  0  0  0  0  0
    6.4378  -11.2385   26.6158 C   0  0  0  0  0  0  0  0  0  0  0  0
    7.4121  -12.0561   27.1407 C   0  0  0  0  0  0  0  0  0  0  0  0
    7.6820  -13.2668   26.5525 C   0  0  0  0  0  0  0  0  0  0  0  0
    6.9942  -13.6960   25.4347 C   0  0  0  0  0  0  0  0  0  0  0  0
   10.3931  -16.6438   25.1856 C   0  0  0  0  0  0  0  0  0  0  0  0
   10.7857  -17.7766   24.6300 O   0  0  0  0  0  0  0  0  0  0  0  0
   15.6401  -19.7271   31.7575 O   0  0  0  0  0  0  0  0  0  0  0  0
   15.0004  -18.9590   30.7796 C   0  0  0  0  0  0  0  0  0  0  0  0
   13.6872  -18.5845   31.0057 C   0  0  0  0  0  0  0  0  0  0  0  0
   13.0087  -17.8286   30.0742 C   0  0  0  0  0  0  0  0  0  0  0  0
   13.6059  -17.4115   28.8774 C   0  0  0  0  0  0  0  0  0  0  0  0
   12.7874  -16.6083   27.9687 C   0  0  0  0  0  0  0  0  0  0  0  0
   11.9471  -17.3854   27.0104 C   0  0  2  0  0  0  0  0  0  0  0  0
   11.0833  -16.3590   26.3536 N   0  0  0  0  0  0  0  0  0  0  0  0
   11.0425  -18.3666   27.6199 C   0  0  0  0  0  0  0  0  0  0  0  0
   11.3170  -19.5602   27.7771 O   0  0  0  0  0  0  0  0  0  0  0  0
   14.9031  -17.7959   28.6816 C   0  0  0  0  0  0  0  0  0  0  0  0
   15.6000  -18.5589   29.6133 C   0  0  0  0  0  0  0  0  0  0  0  0
    9.7741  -17.9369   28.0578 O   0  0  0  0  0  0  0  0  0  0  0  0
  2  1  1  1
  2  3  1  0
  4  3  1  0
  5  4  1  0
  6  5  1  0
  7  6  1  0
  8  9  2  0
  8  2  1  0
 10  8  1  0
 11 10  1  0
 11 12  1  1
 13 12  1  0
 14 13  2  0
 15 14  1  0
 16 15  1  0
 16 21  2  0
 17 16  1  0
 18 17  2  0
 18 19  1  0
 19 20  2  0
 20 21  1  0
 21 13  1  0
 22 23  2  0
 22 11  1  0
 25 24  1  0
 26 25  2  0
 27 26  1  0
 28 34  1  0
 28 27  2  0
 29 28  1  0
 30 29  1  1
 30 31  1  0
 31 22  1  0
 32 30  1  0
 33 32  2  0
 34 35  2  0
 35 25  1  0
 36 32  1  0
M  END
$$$$
