KWY.pdb
     RDKit          3D

 36 38  0  0  1  0  0  0  0  0999 V2000
    8.2487  -15.8763   18.2282 N   0  0  0  0  0  0  0  0  0  0  0  0
    8.4762  -16.8642   19.2506 C   0  0  1  0  0  0  0  0  0  0  0  0
    9.5358  -17.8343   18.8376 C   0  0  0  0  0  0  0  0  0  0  0  0
    9.9315  -17.7526   17.4076 C   0  0  0  0  0  0  0  0  0  0  0  0
   11.3835  -17.8847   17.1066 C   0  0  0  0  0  0  0  0  0  0  0  0
   11.8104  -19.2923   17.5659 C   0  0  0  0  0  0  0  0  0  0  0  0
   12.6226  -19.9035   16.5417 N   0  0  0  0  0  0  0  0  0  0  0  0
    8.7461  -16.2307   20.5657 C   0  0  0  0  0  0  0  0  0  0  0  0
    9.3185  -15.1170   20.5517 O   0  0  0  0  0  0  0  0  0  0  0  0
    8.3740  -16.8534   21.7754 N   0  0  0  0  0  0  0  0  0  0  0  0
    8.4837  -16.0564   23.0722 C   0  0  1  0  0  0  0  0  0  0  0  0
    7.3477  -16.4790   23.8922 C   0  0  0  0  0  0  0  0  0  0  0  0
    6.6562  -15.5350   24.7527 C   0  0  0  0  0  0  0  0  0  0  0  0
    5.6002  -15.6788   25.6077 C   0  0  0  0  0  0  0  0  0  0  0  0
    5.3561  -14.5029   26.1913 N   0  0  0  0  0  0  0  0  0  0  0  0
    6.2251  -13.5555   25.7539 C   0  0  0  0  0  0  0  0  0  0  0  0
    6.3754  -12.2243   26.0685 C   0  0  0  0  0  0  0  0  0  0  0  0
    7.3660  -11.4906   25.4785 C   0  0  0  0  0  0  0  0  0  0  0  0
    8.2050  -12.0958   24.5712 C   0  0  0  0  0  0  0  0  0  0  0  0
    8.0419  -13.4244   24.2661 C   0  0  0  0  0  0  0  0  0  0  0  0
    7.0479  -14.1832   24.8517 C   0  0  0  0  0  0  0  0  0  0  0  0
    9.8569  -16.2324   23.4833 C   0  0  0  0  0  0  0  0  0  0  0  0
   10.5414  -17.2203   22.9343 O   0  0  0  0  0  0  0  0  0  0  0  0
    9.6745  -15.7312   30.7682 O   0  0  0  0  0  0  0  0  0  0  0  0
   10.3831  -15.6166   29.5681 C   0  0  0  0  0  0  0  0  0  0  0  0
   10.1412  -14.5079   28.7755 C   0  0  0  0  0  0  0  0  0  0  0  0
   10.8108  -14.3460   27.5819 C   0  0  0  0  0  0  0  0  0  0  0  0
   11.7505  -15.2789   27.1239 C   0  0  0  0  0  0  0  0  0  0  0  0
   12.4012  -14.9961   25.8442 C   0  0  0  0  0  0  0  0  0  0  0  0
   12.0148  -15.8971   24.7185 C   0  0  2  0  0  0  0  0  0  0  0  0
   10.6107  -15.5060   24.3921 N   0  0  0  0  0  0  0  0  0  0  0  0
   11.9872  -17.3284   25.0399 C   0  0  0  0  0  0  0  0  0  0  0  0
   10.9532  -17.9847   25.1978 O   0  0  0  0  0  0  0  0  0  0  0  0
   11.9688  -16.3631   27.9273 C   0  0  0  0  0  0  0  0  0  0  0  0
   11.3001  -16.5393   29.1346 C   0  0  0  0  0  0  0  0  0  0  0  0
   13.2100  -18.0134   25.1834 O   0  0  0  0  0  0  0  0  0  0  0  0
  2  1  1  6
  2  3  1  0
  4  3  1  0
  5  4  1  0
  6  5  1  0
  7  6  1  0
  8  9  2  0
  8  2  1  0
 10  8  1  0
 11 10  1  0
 11 12  1  1
 13 12  1  0
 14 13  2  0
 15 14  1  0
 16 15  1  0
 16 21  2  0
 17 16  1  0
 18 17  2  0
 18 19  1  0
 19 20  2  0
 20 21  1  0
 21 13  1  0
 22 23  2  0
 22 11  1  0
 25 24  1  0
 26 25  2  0
 27 26  1  0
 28 34  1  0
 28 27  2  0
 29 28  1  0
 30 29  1  1
 30 31  1  0
 31 22  1  0
 32 30  1  0
 33 32  2  0
 34 35  2  0
 35 25  1  0
 36 32  1  0
M  END
$$$$
