KWY.pdb
     RDKit          3D

 36 38  0  0  1  0  0  0  0  0999 V2000
    9.7948  -18.5501   19.5679 N   0  0  0  0  0  0  0  0  0  0  0  0
   10.8490  -17.5812   19.7187 C   0  0  1  0  0  0  0  0  0  0  0  0
   11.3152  -17.0794   18.3900 C   0  0  0  0  0  0  0  0  0  0  0  0
   11.6587  -18.1414   17.4091 C   0  0  0  0  0  0  0  0  0  0  0  0
   11.0033  -18.0574   16.0751 C   0  0  0  0  0  0  0  0  0  0  0  0
   11.6092  -19.1768   15.2065 C   0  0  0  0  0  0  0  0  0  0  0  0
   10.9685  -19.1784   13.9135 N   0  0  0  0  0  0  0  0  0  0  0  0
   10.4554  -16.4924   20.6478 C   0  0  0  0  0  0  0  0  0  0  0  0
   11.2533  -15.5349   20.7695 O   0  0  0  0  0  0  0  0  0  0  0  0
    9.2384  -16.5330   21.3597 N   0  0  0  0  0  0  0  0  0  0  0  0
    8.9287  -15.4084   22.3437 C   0  0  1  0  0  0  0  0  0  0  0  0
    7.5017  -15.5295   22.6446 C   0  0  0  0  0  0  0  0  0  0  0  0
    6.9797  -15.1577   23.9481 C   0  0  0  0  0  0  0  0  0  0  0  0
    6.4958  -15.9016   24.9869 C   0  0  0  0  0  0  0  0  0  0  0  0
    6.1602  -15.0800   25.9846 N   0  0  0  0  0  0  0  0  0  0  0  0
    6.4058  -13.7869   25.6504 C   0  0  0  0  0  0  0  0  0  0  0  0
    6.2398  -12.6074   26.3396 C   0  0  0  0  0  0  0  0  0  0  0  0
    6.5917  -11.4215   25.7586 C   0  0  0  0  0  0  0  0  0  0  0  0
    7.1101  -11.4220   24.4840 C   0  0  0  0  0  0  0  0  0  0  0  0
    7.2684  -12.6065   23.8082 C   0  0  0  0  0  0  0  0  0  0  0  0
    6.9197  -13.8152   24.3777 C   0  0  0  0  0  0  0  0  0  0  0  0
    9.9560  -15.5243   23.3520 C   0  0  0  0  0  0  0  0  0  0  0  0
   10.5540  -14.4155   23.7509 O   0  0  0  0  0  0  0  0  0  0  0  0
   10.5819  -15.5837   31.7754 O   0  0  0  0  0  0  0  0  0  0  0  0
   10.3421  -15.8141   30.4172 C   0  0  0  0  0  0  0  0  0  0  0  0
   10.5800  -14.7772   29.5317 C   0  0  0  0  0  0  0  0  0  0  0  0
   10.3590  -14.9496   28.1824 C   0  0  0  0  0  0  0  0  0  0  0  0
    9.8921  -16.1603   27.6539 C   0  0  0  0  0  0  0  0  0  0  0  0
    9.7006  -16.2252   26.2048 C   0  0  0  0  0  0  0  0  0  0  0  0
   10.9168  -16.5799   25.4152 C   0  0  2  0  0  0  0  0  0  0  0  0
   10.4376  -16.6498   24.0023 N   0  0  0  0  0  0  0  0  0  0  0  0
   11.5067  -17.8876   25.7228 C   0  0  0  0  0  0  0  0  0  0  0  0
   10.8521  -18.9175   25.9114 O   0  0  0  0  0  0  0  0  0  0  0  0
    9.6663  -17.1661   28.5519 C   0  0  0  0  0  0  0  0  0  0  0  0
    9.8851  -17.0060   29.9165 C   0  0  0  0  0  0  0  0  0  0  0  0
   12.9087  -17.9927   25.8149 O   0  0  0  0  0  0  0  0  0  0  0  0
  2  1  1  6
  2  3  1  0
  4  3  1  0
  5  4  1  0
  6  5  1  0
  7  6  1  0
  8  9  2  0
  8  2  1  0
 10  8  1  0
 11 10  1  0
 11 12  1  1
 13 12  1  0
 14 13  2  0
 15 14  1  0
 16 15  1  0
 16 21  2  0
 17 16  1  0
 18 17  2  0
 18 19  1  0
 19 20  2  0
 20 21  1  0
 21 13  1  0
 22 23  2  0
 22 11  1  0
 25 24  1  0
 26 25  2  0
 27 26  1  0
 28 34  1  0
 28 27  2  0
 29 28  1  0
 30 29  1  1
 30 31  1  0
 31 22  1  0
 32 30  1  0
 33 32  2  0
 34 35  2  0
 35 25  1  0
 36 32  1  0
M  END
$$$$
