KWY.pdb
     RDKit          3D

 36 38  0  0  1  0  0  0  0  0999 V2000
    8.1319  -16.8760   17.8250 N   0  0  0  0  0  0  0  0  0  0  0  0
    8.7531  -15.6245   18.1724 C   0  0  1  0  0  0  0  0  0  0  0  0
    8.3612  -14.5437   17.2170 C   0  0  0  0  0  0  0  0  0  0  0  0
    8.6348  -14.8467   15.7882 C   0  0  0  0  0  0  0  0  0  0  0  0
    7.5348  -14.5716   14.8234 C   0  0  0  0  0  0  0  0  0  0  0  0
    8.0898  -14.8629   13.4157 C   0  0  0  0  0  0  0  0  0  0  0  0
    7.0633  -14.6060   12.4346 N   0  0  0  0  0  0  0  0  0  0  0  0
    8.4991  -15.2689   19.5911 C   0  0  0  0  0  0  0  0  0  0  0  0
    7.8920  -14.1949   19.8064 O   0  0  0  0  0  0  0  0  0  0  0  0
    8.9205  -16.1024   20.6481 N   0  0  0  0  0  0  0  0  0  0  0  0
    8.8997  -15.5479   22.0697 C   0  0  1  0  0  0  0  0  0  0  0  0
    7.5216  -15.7082   22.5354 C   0  0  0  0  0  0  0  0  0  0  0  0
    7.1633  -15.4318   23.9157 C   0  0  0  0  0  0  0  0  0  0  0  0
    6.8654  -16.2527   24.9664 C   0  0  0  0  0  0  0  0  0  0  0  0
    6.6262  -15.5019   26.0444 N   0  0  0  0  0  0  0  0  0  0  0  0
    6.7555  -14.1817   25.7534 C   0  0  0  0  0  0  0  0  0  0  0  0
    6.6231  -13.0490   26.5235 C   0  0  0  0  0  0  0  0  0  0  0  0
    6.8296  -11.8175   25.9682 C   0  0  0  0  0  0  0  0  0  0  0  0
    7.1686  -11.7253   24.6378 C   0  0  0  0  0  0  0  0  0  0  0  0
    7.2955  -12.8641   23.8816 C   0  0  0  0  0  0  0  0  0  0  0  0
    7.0918  -14.1176   24.4239 C   0  0  0  0  0  0  0  0  0  0  0  0
   10.0251  -16.1816   22.7158 C   0  0  0  0  0  0  0  0  0  0  0  0
   10.0658  -17.5023   22.7239 O   0  0  0  0  0  0  0  0  0  0  0  0
   10.2884  -16.2469   31.1293 O   0  0  0  0  0  0  0  0  0  0  0  0
   10.2723  -15.9841   29.7560 C   0  0  0  0  0  0  0  0  0  0  0  0
   10.0254  -17.0405   28.8964 C   0  0  0  0  0  0  0  0  0  0  0  0
    9.9998  -16.8377   27.5335 C   0  0  0  0  0  0  0  0  0  0  0  0
   10.2181  -15.5758   26.9652 C   0  0  0  0  0  0  0  0  0  0  0  0
   10.1607  -15.4830   25.5061 C   0  0  0  0  0  0  0  0  0  0  0  0
   11.4053  -15.8922   24.7908 C   0  0  2  0  0  0  0  0  0  0  0  0
   11.1180  -15.6135   23.3518 N   0  0  0  0  0  0  0  0  0  0  0  0
   11.7434  -17.3170   24.8822 C   0  0  0  0  0  0  0  0  0  0  0  0
   12.6929  -17.8444   24.2947 O   0  0  0  0  0  0  0  0  0  0  0  0
   10.4590  -14.5518   27.8383 C   0  0  0  0  0  0  0  0  0  0  0  0
   10.4878  -14.7422   29.2162 C   0  0  0  0  0  0  0  0  0  0  0  0
   10.9425  -18.1523   25.6859 O   0  0  0  0  0  0  0  0  0  0  0  0
  2  1  1  6
  2  3  1  0
  4  3  1  0
  5  4  1  0
  6  5  1  0
  7  6  1  0
  8  9  2  0
  8  2  1  0
 10  8  1  0
 11 10  1  0
 11 12  1  1
 13 12  1  0
 14 13  2  0
 15 14  1  0
 16 15  1  0
 16 21  2  0
 17 16  1  0
 18 17  2  0
 18 19  1  0
 19 20  2  0
 20 21  1  0
 21 13  1  0
 22 23  2  0
 22 11  1  0
 25 24  1  0
 26 25  2  0
 27 26  1  0
 28 34  1  0
 28 27  2  0
 29 28  1  0
 30 29  1  1
 30 31  1  0
 31 22  1  0
 32 30  1  0
 33 32  2  0
 34 35  2  0
 35 25  1  0
 36 32  1  0
M  END
$$$$
