ERW.pdb
     RDKit          3D

 35 36  0  0  1  0  0  0  0  0999 V2000
   13.2624  -17.6959   19.8366 N   0  0  0  0  0  0  0  0  0  0  0  0
   13.5848  -16.3817   20.3337 C   0  0  1  0  0  0  0  0  0  0  0  0
   13.8260  -15.4077   19.2064 C   0  0  0  0  0  0  0  0  0  0  0  0
   14.4762  -16.0864   18.0209 C   0  0  0  0  0  0  0  0  0  0  0  0
   15.4430  -15.2281   17.3355 C   0  0  0  0  0  0  0  0  0  0  0  0
   16.0951  -15.6281   16.3221 O   0  0  0  0  0  0  0  0  0  0  0  0
   12.4609  -15.8069   21.1488 C   0  0  0  0  0  0  0  0  0  0  0  0
   12.5033  -14.6077   21.5823 O   0  0  0  0  0  0  0  0  0  0  0  0
   15.6904  -13.9312   17.7630 O   0  0  0  0  0  0  0  0  0  0  0  0
    6.5723  -13.5828   18.3384 N   0  0  0  0  0  0  0  0  0  0  0  0
    7.9229  -13.4947   18.7500 C   0  0  0  0  0  0  0  0  0  0  0  0
    8.6220  -12.4102   18.6482 N   0  0  0  0  0  0  0  0  0  0  0  0
    8.6136  -14.6178   19.3055 N   0  0  0  0  0  0  0  0  0  0  0  0
    7.9455  -15.7801   19.7346 C   0  0  0  0  0  0  0  0  0  0  0  0
    8.7949  -16.8966   20.2776 C   0  0  0  0  0  0  0  0  0  0  0  0
    8.8778  -16.6607   21.7701 C   0  0  0  0  0  0  0  0  0  0  0  0
   10.1832  -16.0782   22.2304 C   0  0  2  0  0  0  0  0  0  0  0  0
   11.3107  -16.5699   21.4670 N   0  0  0  0  0  0  0  0  0  0  0  0
   10.3706  -16.4440   23.6683 C   0  0  0  0  0  0  0  0  0  0  0  0
   11.0772  -17.4562   24.0001 O   0  0  0  0  0  0  0  0  0  0  0  0
    9.6306  -12.4346   18.9041 N   0  0  0  0  0  0  0  0  0  0  0  0
    9.7908  -15.7178   24.7366 C   0  0  1  0  0  0  0  0  0  0  0  0
    9.8563  -16.1845   26.1115 C   0  0  0  0  0  0  0  0  0  0  0  0
    9.2412  -15.1745   27.0045 C   0  0  0  0  0  0  0  0  0  0  0  0
    7.9224  -14.6693   26.6214 C   0  0  0  0  0  0  0  0  0  0  0  0
    6.7895  -15.3558   26.3083 N   0  0  0  0  0  0  0  0  0  0  0  0
    5.8357  -14.4392   26.0389 C   0  0  0  0  0  0  0  0  0  0  0  0
    6.3321  -13.1981   26.1705 C   0  0  0  0  0  0  0  0  0  0  0  0
    5.8120  -11.9140   26.0169 C   0  0  0  0  0  0  0  0  0  0  0  0
    6.5892  -10.7980   26.2246 C   0  0  0  0  0  0  0  0  0  0  0  0
    7.9155  -10.9106   26.5947 C   0  0  0  0  0  0  0  0  0  0  0  0
    8.4477  -12.1795   26.7522 C   0  0  0  0  0  0  0  0  0  0  0  0
    7.6531  -13.2988   26.5392 C   0  0  0  0  0  0  0  0  0  0  0  0
    9.3009  -17.5565   26.2412 O   0  0  0  0  0  0  0  0  0  0  0  0
    8.5377  -18.0290   25.3511 O   0  0  0  0  0  0  0  0  0  0  0  0
  2  3  1  0
  2  1  1  6
  4  3  1  0
  5  4  1  0
  5  6  2  0
  7  2  1  0
  8  7  2  0
  9  5  1  0
 10 11  1  0
 11 12  2  0
 11 13  1  0
 13 14  1  0
 15 14  1  0
 16 15  1  0
 17 16  1  6
 17 18  1  0
 18  7  1  0
 19 21  1  0
 19 17  1  0
 20 19  2  0
 22 21  1  0
 22 23  1  1
 23 24  1  0
 24 25  2  0
 24 32  1  0
 25 26  1  0
 26 27  1  0
 27 28  2  0
 29 28  1  0
 30 29  2  0
 31 32  2  0
 31 30  1  0
 32 27  1  0
 33 22  1  0
 34 33  2  0
 35 33  1  0
M  END
$$$$
