ERW.pdb
     RDKit          3D

 35 36  0  0  1  0  0  0  0  0999 V2000
    9.1811  -19.2846   20.0315 N   0  0  0  0  0  0  0  0  0  0  0  0
   10.5342  -18.8766   20.3160 C   0  0  1  0  0  0  0  0  0  0  0  0
   11.3668  -18.8068   19.0592 C   0  0  0  0  0  0  0  0  0  0  0  0
   10.5580  -19.1920   17.8399 C   0  0  0  0  0  0  0  0  0  0  0  0
   11.3605  -19.2349   16.6170 C   0  0  0  0  0  0  0  0  0  0  0  0
   12.0177  -20.2682   16.2817 O   0  0  0  0  0  0  0  0  0  0  0  0
   10.5822  -17.5040   20.9254 C   0  0  0  0  0  0  0  0  0  0  0  0
   11.6855  -16.9836   21.2990 O   0  0  0  0  0  0  0  0  0  0  0  0
   11.4380  -18.1434   15.7634 O   0  0  0  0  0  0  0  0  0  0  0  0
    8.5443  -12.2487   16.5055 N   0  0  0  0  0  0  0  0  0  0  0  0
    7.8798  -13.4742   16.7457 C   0  0  0  0  0  0  0  0  0  0  0  0
    8.0276  -14.5162   15.9924 N   0  0  0  0  0  0  0  0  0  0  0  0
    6.9829  -13.6387   17.8482 N   0  0  0  0  0  0  0  0  0  0  0  0
    7.4114  -13.5774   19.1877 C   0  0  0  0  0  0  0  0  0  0  0  0
    8.3417  -14.6615   19.6589 C   0  0  0  0  0  0  0  0  0  0  0  0
    8.4826  -14.4610   21.1522 C   0  0  0  0  0  0  0  0  0  0  0  0
    9.3514  -15.4803   21.8316 C   0  0  2  0  0  0  0  0  0  0  0  0
    9.4081  -16.7327   21.1078 N   0  0  0  0  0  0  0  0  0  0  0  0
    8.7908  -15.7296   23.1954 C   0  0  0  0  0  0  0  0  0  0  0  0
    7.6484  -15.2632   23.5294 O   0  0  0  0  0  0  0  0  0  0  0  0
    7.5468  -15.4010   16.2555 N   0  0  0  0  0  0  0  0  0  0  0  0
    9.4684  -16.4760   24.1895 C   0  0  1  0  0  0  0  0  0  0  0  0
    9.9524  -15.8655   25.4165 C   0  0  0  0  0  0  0  0  0  0  0  0
    8.8754  -15.8836   26.4341 C   0  0  0  0  0  0  0  0  0  0  0  0
    7.6404  -15.1724   26.1021 C   0  0  0  0  0  0  0  0  0  0  0  0
    6.4654  -15.6577   25.6158 N   0  0  0  0  0  0  0  0  0  0  0  0
    5.6275  -14.6069   25.4899 C   0  0  0  0  0  0  0  0  0  0  0  0
    6.2376  -13.4755   25.8794 C   0  0  0  0  0  0  0  0  0  0  0  0
    5.8603  -12.1358   25.9559 C   0  0  0  0  0  0  0  0  0  0  0  0
    6.7320  -11.1719   26.4075 C   0  0  0  0  0  0  0  0  0  0  0  0
    8.0148  -11.4985   26.8030 C   0  0  0  0  0  0  0  0  0  0  0  0
    8.4054  -12.8254   26.7337 C   0  0  0  0  0  0  0  0  0  0  0  0
    7.5164  -13.7895   26.2757 C   0  0  0  0  0  0  0  0  0  0  0  0
   11.2356  -16.4756   25.8514 O   0  0  0  0  0  0  0  0  0  0  0  0
   11.8410  -16.0425   26.8731 O   0  0  0  0  0  0  0  0  0  0  0  0
  2  3  1  0
  2  1  1  6
  4  3  1  0
  5  4  1  0
  5  6  2  0
  7  2  1  0
  8  7  2  0
  9  5  1  0
 10 11  1  0
 11 12  2  0
 11 13  1  0
 13 14  1  0
 15 14  1  0
 16 15  1  0
 17 16  1  6
 17 18  1  0
 18  7  1  0
 19 21  1  0
 19 17  1  0
 20 19  2  0
 22 21  1  0
 22 23  1  6
 23 24  1  0
 24 25  2  0
 24 32  1  0
 25 26  1  0
 26 27  1  0
 27 28  2  0
 29 28  1  0
 30 29  2  0
 31 32  2  0
 31 30  1  0
 32 27  1  0
 33 22  1  0
 34 33  2  0
 35 33  1  0
M  END
$$$$
