ERW.pdb
     RDKit          3D

 35 36  0  0  1  0  0  0  0  0999 V2000
    9.8038  -19.1573   20.7885 N   0  0  0  0  0  0  0  0  0  0  0  0
   11.1847  -18.7621   20.9107 C   0  0  1  0  0  0  0  0  0  0  0  0
   11.8745  -18.7394   19.5685 C   0  0  0  0  0  0  0  0  0  0  0  0
   10.9073  -18.3947   18.4573 C   0  0  0  0  0  0  0  0  0  0  0  0
   11.5281  -18.4321   17.1327 C   0  0  0  0  0  0  0  0  0  0  0  0
   10.8536  -18.2612   16.0707 O   0  0  0  0  0  0  0  0  0  0  0  0
   11.3160  -17.3742   21.4712 C   0  0  0  0  0  0  0  0  0  0  0  0
   12.4589  -16.8303   21.6319 O   0  0  0  0  0  0  0  0  0  0  0  0
   12.8890  -18.6551   16.9771 O   0  0  0  0  0  0  0  0  0  0  0  0
    9.4043  -13.5189   18.0581 N   0  0  0  0  0  0  0  0  0  0  0  0
    8.0455  -13.6350   18.4343 C   0  0  0  0  0  0  0  0  0  0  0  0
    7.1304  -14.0911   17.6406 N   0  0  0  0  0  0  0  0  0  0  0  0
    7.5893  -13.2422   19.7321 N   0  0  0  0  0  0  0  0  0  0  0  0
    7.0244  -14.1542   20.6435 C   0  0  0  0  0  0  0  0  0  0  0  0
    7.9461  -15.1786   21.2466 C   0  0  0  0  0  0  0  0  0  0  0  0
    9.1228  -14.4003   21.7941 C   0  0  0  0  0  0  0  0  0  0  0  0
   10.2262  -15.2574   22.3446 C   0  0  2  0  0  0  0  0  0  0  0  0
   10.1795  -16.6139   21.8412 N   0  0  0  0  0  0  0  0  0  0  0  0
   10.0908  -15.2844   23.8337 C   0  0  0  0  0  0  0  0  0  0  0  0
   10.1921  -14.2110   24.5203 O   0  0  0  0  0  0  0  0  0  0  0  0
    6.1772  -14.2684   18.0192 N   0  0  0  0  0  0  0  0  0  0  0  0
    9.8518  -16.4694   24.5707 C   0  0  2  0  0  0  0  0  0  0  0  0
   10.0068  -16.5240   26.0149 C   0  0  0  0  0  0  0  0  0  0  0  0
    8.6701  -16.5782   26.6522 C   0  0  0  0  0  0  0  0  0  0  0  0
    7.6637  -15.6378   26.1580 C   0  0  0  0  0  0  0  0  0  0  0  0
    6.5471  -15.8747   25.4167 N   0  0  0  0  0  0  0  0  0  0  0  0
    5.9388  -14.6842   25.2297 C   0  0  0  0  0  0  0  0  0  0  0  0
    6.6375  -13.7052   25.8277 C   0  0  0  0  0  0  0  0  0  0  0  0
    6.4811  -12.3258   25.9517 C   0  0  0  0  0  0  0  0  0  0  0  0
    7.3917  -11.5621   26.6448 C   0  0  0  0  0  0  0  0  0  0  0  0
    8.4955  -12.1369   27.2447 C   0  0  0  0  0  0  0  0  0  0  0  0
    8.6655  -13.5067   27.1315 C   0  0  0  0  0  0  0  0  0  0  0  0
    7.7394  -14.2671   26.4287 C   0  0  0  0  0  0  0  0  0  0  0  0
   10.9364  -17.6117   26.4155 O   0  0  0  0  0  0  0  0  0  0  0  0
   11.4730  -18.3538   25.5441 O   0  0  0  0  0  0  0  0  0  0  0  0
  2  3  1  0
  2  1  1  6
  4  3  1  0
  5  4  1  0
  5  6  2  0
  7  2  1  0
  8  7  2  0
  9  5  1  0
 10 11  1  0
 11 12  2  0
 11 13  1  0
 13 14  1  0
 15 14  1  0
 16 15  1  0
 17 16  1  6
 17 18  1  0
 18  7  1  0
 19 21  1  0
 19 17  1  0
 20 19  2  0
 22 21  1  0
 22 23  1  6
 23 24  1  0
 24 25  2  0
 24 32  1  0
 25 26  1  0
 26 27  1  0
 27 28  2  0
 29 28  1  0
 30 29  2  0
 31 32  2  0
 31 30  1  0
 32 27  1  0
 33 22  1  0
 34 33  2  0
 35 33  1  0
M  END
$$$$
