ERW.pdb
     RDKit          3D

 35 36  0  0  1  0  0  0  0  0999 V2000
    9.2426  -20.9526   22.7130 N   0  0  0  0  0  0  0  0  0  0  0  0
    9.9756  -20.5945   21.5246 C   0  0  1  0  0  0  0  0  0  0  0  0
    9.2937  -21.1056   20.2790 C   0  0  0  0  0  0  0  0  0  0  0  0
   10.0878  -20.7660   19.0368 C   0  0  0  0  0  0  0  0  0  0  0  0
    9.2462  -20.6120   17.8497 C   0  0  0  0  0  0  0  0  0  0  0  0
    7.9869  -20.7670   17.8955 O   0  0  0  0  0  0  0  0  0  0  0  0
   10.0759  -19.1039   21.3639 C   0  0  0  0  0  0  0  0  0  0  0  0
   11.0360  -18.5710   20.7143 O   0  0  0  0  0  0  0  0  0  0  0  0
    9.7890  -20.2860   16.6148 O   0  0  0  0  0  0  0  0  0  0  0  0
    8.8512  -13.4445   17.5444 N   0  0  0  0  0  0  0  0  0  0  0  0
    8.3025  -12.6068   18.5436 C   0  0  0  0  0  0  0  0  0  0  0  0
    8.7650  -11.4270   18.8071 N   0  0  0  0  0  0  0  0  0  0  0  0
    7.1904  -13.0204   19.3431 N   0  0  0  0  0  0  0  0  0  0  0  0
    7.0970  -14.3098   19.8999 C   0  0  0  0  0  0  0  0  0  0  0  0
    8.1182  -14.6817   20.9399 C   0  0  0  0  0  0  0  0  0  0  0  0
    8.0805  -16.1918   21.0305 C   0  0  0  0  0  0  0  0  0  0  0  0
    9.1768  -16.7866   21.8669 C   0  0  2  0  0  0  0  0  0  0  0  0
    9.1103  -18.2316   21.9236 N   0  0  0  0  0  0  0  0  0  0  0  0
    9.0504  -16.2375   23.2522 C   0  0  0  0  0  0  0  0  0  0  0  0
    7.9428  -16.3080   23.8863 O   0  0  0  0  0  0  0  0  0  0  0  0
    8.3558  -10.8904   19.5995 N   0  0  0  0  0  0  0  0  0  0  0  0
   10.1182  -15.6126   23.9407 C   0  0  1  0  0  0  0  0  0  0  0  0
   10.2608  -15.6994   25.3845 C   0  0  0  0  0  0  0  0  0  0  0  0
    9.0406  -16.3081   25.9645 C   0  0  0  0  0  0  0  0  0  0  0  0
    7.8148  -15.5107   25.9111 C   0  0  0  0  0  0  0  0  0  0  0  0
    6.5455  -15.8933   25.6025 N   0  0  0  0  0  0  0  0  0  0  0  0
    5.7669  -14.7956   25.7080 C   0  0  0  0  0  0  0  0  0  0  0  0
    6.5053  -13.7340   26.0712 C   0  0  0  0  0  0  0  0  0  0  0  0
    6.2326  -12.3894   26.3170 C   0  0  0  0  0  0  0  0  0  0  0  0
    7.2282  -11.5128   26.6821 C   0  0  0  0  0  0  0  0  0  0  0  0
    8.5363  -11.9354   26.8193 C   0  0  0  0  0  0  0  0  0  0  0  0
    8.8242  -13.2686   26.5794 C   0  0  0  0  0  0  0  0  0  0  0  0
    7.8105  -14.1441   26.2109 C   0  0  0  0  0  0  0  0  0  0  0  0
   11.5336  -16.3676   25.7603 O   0  0  0  0  0  0  0  0  0  0  0  0
   12.2061  -17.0029   24.8989 O   0  0  0  0  0  0  0  0  0  0  0  0
  2  3  1  0
  2  1  1  1
  4  3  1  0
  5  4  1  0
  5  6  2  0
  7  2  1  0
  8  7  2  0
  9  5  1  0
 10 11  1  0
 11 12  2  0
 11 13  1  0
 13 14  1  0
 15 14  1  0
 16 15  1  0
 17 16  1  6
 17 18  1  0
 18  7  1  0
 19 21  1  0
 19 17  1  0
 20 19  2  0
 22 21  1  0
 22 23  1  1
 23 24  1  0
 24 25  2  0
 24 32  1  0
 25 26  1  0
 26 27  1  0
 27 28  2  0
 29 28  1  0
 30 29  2  0
 31 32  2  0
 31 30  1  0
 32 27  1  0
 33 22  1  0
 34 33  2  0
 35 33  1  0
M  END
$$$$
