ERW.pdb
     RDKit          3D

 35 36  0  0  1  0  0  0  0  0999 V2000
    9.2735  -15.4316   17.8163 N   0  0  0  0  0  0  0  0  0  0  0  0
    8.5299  -16.6661   17.8534 C   0  0  1  0  0  0  0  0  0  0  0  0
    8.2331  -17.1749   16.4639 C   0  0  0  0  0  0  0  0  0  0  0  0
    8.8102  -16.2597   15.4065 C   0  0  0  0  0  0  0  0  0  0  0  0
    8.6307  -16.7764   14.0493 C   0  0  0  0  0  0  0  0  0  0  0  0
    7.6831  -16.3827   13.3014 O   0  0  0  0  0  0  0  0  0  0  0  0
    9.3012  -17.7566   18.5416 C   0  0  0  0  0  0  0  0  0  0  0  0
    8.8424  -18.9446   18.6188 O   0  0  0  0  0  0  0  0  0  0  0  0
    9.4934  -17.7232   13.5151 O   0  0  0  0  0  0  0  0  0  0  0  0
   17.3390  -19.5060   17.9768 N   0  0  0  0  0  0  0  0  0  0  0  0
   17.1221  -19.0945   19.3127 C   0  0  0  0  0  0  0  0  0  0  0  0
   18.0714  -18.6681   20.0823 N   0  0  0  0  0  0  0  0  0  0  0  0
   15.8219  -19.1318   19.9085 N   0  0  0  0  0  0  0  0  0  0  0  0
   14.7720  -19.9099   19.3852 C   0  0  0  0  0  0  0  0  0  0  0  0
   13.4419  -19.8218   20.0822 C   0  0  0  0  0  0  0  0  0  0  0  0
   12.7048  -18.6798   19.4169 C   0  0  0  0  0  0  0  0  0  0  0  0
   11.3052  -18.4731   19.9206 C   0  0  2  0  0  0  0  0  0  0  0  0
   10.5665  -17.5119   19.1294 N   0  0  0  0  0  0  0  0  0  0  0  0
   11.3897  -17.9824   21.3308 C   0  0  0  0  0  0  0  0  0  0  0  0
   11.9298  -18.6978   22.2421 O   0  0  0  0  0  0  0  0  0  0  0  0
   17.8591  -18.4682   21.0815 N   0  0  0  0  0  0  0  0  0  0  0  0
   10.8871  -16.7262   21.7478 C   0  0  1  0  0  0  0  0  0  0  0  0
   10.9839  -16.2757   23.1262 C   0  0  0  0  0  0  0  0  0  0  0  0
   10.4322  -14.9049   23.2366 C   0  0  0  0  0  0  0  0  0  0  0  0
    8.9913  -14.7538   23.0308 C   0  0  0  0  0  0  0  0  0  0  0  0
    7.9617  -15.0352   23.8754 N   0  0  0  0  0  0  0  0  0  0  0  0
    6.8222  -14.7098   23.2290 C   0  0  0  0  0  0  0  0  0  0  0  0
    7.1011  -14.2343   22.0041 C   0  0  0  0  0  0  0  0  0  0  0  0
    6.3355  -13.7651   20.9381 C   0  0  0  0  0  0  0  0  0  0  0  0
    6.9227  -13.3333   19.7712 C   0  0  0  0  0  0  0  0  0  0  0  0
    8.2953  -13.3487   19.6147 C   0  0  0  0  0  0  0  0  0  0  0  0
    9.0707  -13.8115   20.6648 C   0  0  0  0  0  0  0  0  0  0  0  0
    8.4662  -14.2452   21.8379 C   0  0  0  0  0  0  0  0  0  0  0  0
   10.3892  -17.2674   24.0594 O   0  0  0  0  0  0  0  0  0  0  0  0
    9.5812  -18.1438   23.6385 O   0  0  0  0  0  0  0  0  0  0  0  0
  2  3  1  0
  2  1  1  6
  4  3  1  0
  5  4  1  0
  5  6  2  0
  7  2  1  0
  8  7  2  0
  9  5  1  0
 10 11  1  0
 11 12  2  0
 11 13  1  0
 13 14  1  0
 15 14  1  0
 16 15  1  0
 17 16  1  6
 17 18  1  0
 18  7  1  0
 19 21  1  0
 19 17  1  0
 20 19  2  0
 22 21  1  0
 22 23  1  1
 23 24  1  0
 24 25  2  0
 24 32  1  0
 25 26  1  0
 26 27  1  0
 27 28  2  0
 29 28  1  0
 30 29  2  0
 31 32  2  0
 31 30  1  0
 32 27  1  0
 33 22  1  0
 34 33  2  0
 35 33  1  0
M  END
$$$$
