ERW.pdb
     RDKit          3D

 35 36  0  0  1  0  0  0  0  0999 V2000
   11.1749  -19.0993   18.6532 N   0  0  0  0  0  0  0  0  0  0  0  0
   12.4274  -18.5694   19.1314 C   0  0  1  0  0  0  0  0  0  0  0  0
   13.3130  -18.1291   17.9914 C   0  0  0  0  0  0  0  0  0  0  0  0
   12.5040  -17.5142   16.8704 C   0  0  0  0  0  0  0  0  0  0  0  0
   13.3292  -17.1047   15.7336 C   0  0  0  0  0  0  0  0  0  0  0  0
   12.9178  -17.2021   14.5363 O   0  0  0  0  0  0  0  0  0  0  0  0
   12.2222  -17.3560   19.9935 C   0  0  0  0  0  0  0  0  0  0  0  0
   13.2033  -16.6200   20.3450 O   0  0  0  0  0  0  0  0  0  0  0  0
   14.6041  -16.5868   15.9138 O   0  0  0  0  0  0  0  0  0  0  0  0
    7.6652  -15.4901   17.4132 N   0  0  0  0  0  0  0  0  0  0  0  0
    7.8320  -14.1639   17.8763 C   0  0  0  0  0  0  0  0  0  0  0  0
    8.1848  -13.1865   17.1046 N   0  0  0  0  0  0  0  0  0  0  0  0
    7.6261  -13.8160   19.2487 N   0  0  0  0  0  0  0  0  0  0  0  0
    7.2735  -14.7663   20.2254 C   0  0  0  0  0  0  0  0  0  0  0  0
    8.2983  -15.8150   20.5612 C   0  0  0  0  0  0  0  0  0  0  0  0
    9.5232  -15.0577   21.0262 C   0  0  0  0  0  0  0  0  0  0  0  0
   10.6782  -15.9344   21.4170 C   0  0  2  0  0  0  0  0  0  0  0  0
   10.9348  -16.9794   20.4486 N   0  0  0  0  0  0  0  0  0  0  0  0
   10.3572  -16.5600   22.7368 C   0  0  0  0  0  0  0  0  0  0  0  0
    9.7293  -17.6717   22.7994 O   0  0  0  0  0  0  0  0  0  0  0  0
    8.2221  -12.2229   17.4964 N   0  0  0  0  0  0  0  0  0  0  0  0
   10.7119  -15.9796   23.9786 C   0  0  2  0  0  0  0  0  0  0  0  0
    9.7128  -15.5570   24.9458 C   0  0  0  0  0  0  0  0  0  0  0  0
    8.5388  -15.0027   24.2315 C   0  0  0  0  0  0  0  0  0  0  0  0
    7.4300  -14.5214   25.0563 C   0  0  0  0  0  0  0  0  0  0  0  0
    6.2748  -15.1501   25.4068 N   0  0  0  0  0  0  0  0  0  0  0  0
    5.5831  -14.2951   26.1895 C   0  0  0  0  0  0  0  0  0  0  0  0
    6.2646  -13.1476   26.3415 C   0  0  0  0  0  0  0  0  0  0  0  0
    6.0324  -11.9534   27.0217 C   0  0  0  0  0  0  0  0  0  0  0  0
    6.9431  -10.9227   26.9889 C   0  0  0  0  0  0  0  0  0  0  0  0
    8.1233  -11.0355   26.2796 C   0  0  0  0  0  0  0  0  0  0  0  0
    8.3698  -12.2159   25.5984 C   0  0  0  0  0  0  0  0  0  0  0  0
    7.4424  -13.2493   25.6389 C   0  0  0  0  0  0  0  0  0  0  0  0
    9.4035  -16.6444   25.9100 O   0  0  0  0  0  0  0  0  0  0  0  0
    9.6805  -16.5155   27.1367 O   0  0  0  0  0  0  0  0  0  0  0  0
  2  3  1  0
  2  1  1  6
  4  3  1  0
  5  4  1  0
  5  6  2  0
  7  2  1  0
  8  7  2  0
  9  5  1  0
 10 11  1  0
 11 12  2  0
 11 13  1  0
 13 14  1  0
 15 14  1  0
 16 15  1  0
 17 16  1  6
 17 18  1  0
 18  7  1  0
 19 21  1  0
 19 17  1  0
 20 19  2  0
 22 21  1  0
 22 23  1  1
 23 24  1  0
 24 25  2  0
 24 32  1  0
 25 26  1  0
 26 27  1  0
 27 28  2  0
 29 28  1  0
 30 29  2  0
 31 32  2  0
 31 30  1  0
 32 27  1  0
 33 22  1  0
 34 33  2  0
 35 33  1  0
M  END
$$$$
