ERW.pdb
     RDKit          3D

 35 36  0  0  1  0  0  0  0  0999 V2000
    7.0003  -19.3904   21.6904 N   0  0  0  0  0  0  0  0  0  0  0  0
    8.3296  -19.3477   21.1342 C   0  0  1  0  0  0  0  0  0  0  0  0
    8.3140  -19.5901   19.6447 C   0  0  0  0  0  0  0  0  0  0  0  0
    6.9064  -19.8142   19.1372 C   0  0  0  0  0  0  0  0  0  0  0  0
    6.8205  -20.9044   18.1649 C   0  0  0  0  0  0  0  0  0  0  0  0
    7.8345  -21.3035   17.5132 O   0  0  0  0  0  0  0  0  0  0  0  0
    8.9695  -18.0025   21.3316 C   0  0  0  0  0  0  0  0  0  0  0  0
   10.2027  -17.8106   21.0666 O   0  0  0  0  0  0  0  0  0  0  0  0
    5.6216  -21.5558   17.9117 O   0  0  0  0  0  0  0  0  0  0  0  0
    7.8886  -15.2976   16.5597 N   0  0  0  0  0  0  0  0  0  0  0  0
    8.0307  -13.9825   17.0610 C   0  0  0  0  0  0  0  0  0  0  0  0
    7.6748  -12.9314   16.3948 N   0  0  0  0  0  0  0  0  0  0  0  0
    8.5924  -13.7273   18.3519 N   0  0  0  0  0  0  0  0  0  0  0  0
    8.4623  -14.6287   19.4252 C   0  0  0  0  0  0  0  0  0  0  0  0
    7.2491  -14.4786   20.3016 C   0  0  0  0  0  0  0  0  0  0  0  0
    7.7664  -14.4879   21.7237 C   0  0  0  0  0  0  0  0  0  0  0  0
    8.7731  -15.5658   22.0063 C   0  0  2  0  0  0  0  0  0  0  0  0
    8.2317  -16.8949   21.8167 N   0  0  0  0  0  0  0  0  0  0  0  0
    9.2209  -15.4190   23.4256 C   0  0  0  0  0  0  0  0  0  0  0  0
    9.5404  -14.2745   23.8967 O   0  0  0  0  0  0  0  0  0  0  0  0
    7.7983  -11.9935   16.8290 N   0  0  0  0  0  0  0  0  0  0  0  0
    9.3248  -16.5082   24.3241 C   0  0  1  0  0  0  0  0  0  0  0  0
    9.8161  -16.3437   25.6821 C   0  0  0  0  0  0  0  0  0  0  0  0
    8.6687  -16.2911   26.6183 C   0  0  0  0  0  0  0  0  0  0  0  0
    7.5902  -15.3580   26.2903 C   0  0  0  0  0  0  0  0  0  0  0  0
    6.3420  -15.6113   25.8101 N   0  0  0  0  0  0  0  0  0  0  0  0
    5.7190  -14.4202   25.6858 C   0  0  0  0  0  0  0  0  0  0  0  0
    6.5353  -13.4252   26.0703 C   0  0  0  0  0  0  0  0  0  0  0  0
    6.4205  -12.0382   26.1457 C   0  0  0  0  0  0  0  0  0  0  0  0
    7.4619  -11.2574   26.5915 C   0  0  0  0  0  0  0  0  0  0  0  0
    8.6609  -11.8219   26.9820 C   0  0  0  0  0  0  0  0  0  0  0  0
    8.7913  -13.1990   26.9137 C   0  0  0  0  0  0  0  0  0  0  0  0
    7.7328  -13.9767   26.4616 C   0  0  0  0  0  0  0  0  0  0  0  0
   10.8453  -17.3642   26.0093 O   0  0  0  0  0  0  0  0  0  0  0  0
   11.1093  -18.2960   25.1968 O   0  0  0  0  0  0  0  0  0  0  0  0
  2  3  1  0
  2  1  1  6
  4  3  1  0
  5  4  1  0
  5  6  2  0
  7  2  1  0
  8  7  2  0
  9  5  1  0
 10 11  1  0
 11 12  2  0
 11 13  1  0
 13 14  1  0
 15 14  1  0
 16 15  1  0
 17 16  1  1
 17 18  1  0
 18  7  1  0
 19 21  1  0
 19 17  1  0
 20 19  2  0
 22 21  1  0
 22 23  1  1
 23 24  1  0
 24 25  2  0
 24 32  1  0
 25 26  1  0
 26 27  1  0
 27 28  2  0
 29 28  1  0
 30 29  2  0
 31 32  2  0
 31 30  1  0
 32 27  1  0
 33 22  1  0
 34 33  2  0
 35 33  1  0
M  END
$$$$
