ERW.pdb
     RDKit          3D

 35 36  0  0  1  0  0  0  0  0999 V2000
    7.1304  -21.0435   21.4937 N   0  0  0  0  0  0  0  0  0  0  0  0
    6.5293  -19.7657   21.7836 C   0  0  1  0  0  0  0  0  0  0  0  0
    6.1179  -19.6637   23.2320 C   0  0  0  0  0  0  0  0  0  0  0  0
    7.1460  -20.2976   24.1432 C   0  0  0  0  0  0  0  0  0  0  0  0
    6.8268  -20.1311   25.5616 C   0  0  0  0  0  0  0  0  0  0  0  0
    5.7103  -19.6658   25.9478 O   0  0  0  0  0  0  0  0  0  0  0  0
    7.4886  -18.6348   21.5415 C   0  0  0  0  0  0  0  0  0  0  0  0
    8.7498  -18.8274   21.5296 O   0  0  0  0  0  0  0  0  0  0  0  0
    7.7336  -20.4778   26.5532 O   0  0  0  0  0  0  0  0  0  0  0  0
    7.6696  -15.2235   17.2876 N   0  0  0  0  0  0  0  0  0  0  0  0
    8.0353  -13.8910   16.9845 C   0  0  0  0  0  0  0  0  0  0  0  0
    8.7367  -13.5712   15.9448 N   0  0  0  0  0  0  0  0  0  0  0  0
    7.6541  -12.7978   17.8250 N   0  0  0  0  0  0  0  0  0  0  0  0
    7.2351  -12.9777   19.1567 C   0  0  0  0  0  0  0  0  0  0  0  0
    8.0733  -13.8784   20.0220 C   0  0  0  0  0  0  0  0  0  0  0  0
    7.1850  -15.0517   20.3747 C   0  0  0  0  0  0  0  0  0  0  0  0
    7.8968  -16.1768   21.0695 C   0  0  2  0  0  0  0  0  0  0  0  0
    7.0336  -17.3126   21.3151 N   0  0  0  0  0  0  0  0  0  0  0  0
    8.4095  -15.6617   22.3765 C   0  0  0  0  0  0  0  0  0  0  0  0
    7.6515  -14.9952   23.1608 O   0  0  0  0  0  0  0  0  0  0  0  0
    9.0538  -12.5861   15.8340 N   0  0  0  0  0  0  0  0  0  0  0  0
    9.7369  -15.8656   22.8252 C   0  0  1  0  0  0  0  0  0  0  0  0
   10.2022  -15.3675   24.1088 C   0  0  0  0  0  0  0  0  0  0  0  0
    9.3400  -15.9044   25.1877 C   0  0  0  0  0  0  0  0  0  0  0  0
    9.0044  -14.9919   26.2814 C   0  0  0  0  0  0  0  0  0  0  0  0
    9.5199  -14.9210   27.5392 N   0  0  0  0  0  0  0  0  0  0  0  0
    8.8923  -13.9028   28.1649 C   0  0  0  0  0  0  0  0  0  0  0  0
    7.9972  -13.3316   27.3424 C   0  0  0  0  0  0  0  0  0  0  0  0
    7.0953  -12.2751   27.4583 C   0  0  0  0  0  0  0  0  0  0  0  0
    6.2804  -11.9122   26.4110 C   0  0  0  0  0  0  0  0  0  0  0  0
    6.3277  -12.5830   25.2041 C   0  0  0  0  0  0  0  0  0  0  0  0
    7.2188  -13.6349   25.0721 C   0  0  0  0  0  0  0  0  0  0  0  0
    8.0362  -13.9922   26.1369 C   0  0  0  0  0  0  0  0  0  0  0  0
   11.6564  -15.6155   24.2871 O   0  0  0  0  0  0  0  0  0  0  0  0
   12.2821  -15.1056   25.2600 O   0  0  0  0  0  0  0  0  0  0  0  0
  2  3  1  0
  2  1  1  1
  4  3  1  0
  5  4  1  0
  5  6  2  0
  7  2  1  0
  8  7  2  0
  9  5  1  0
 10 11  1  0
 11 12  2  0
 11 13  1  0
 13 14  1  0
 15 14  1  0
 16 15  1  0
 17 16  1  1
 17 18  1  0
 18  7  1  0
 19 21  1  0
 19 17  1  0
 20 19  2  0
 22 21  1  0
 22 23  1  1
 23 24  1  0
 24 25  2  0
 24 32  1  0
 25 26  1  0
 26 27  1  0
 27 28  2  0
 29 28  1  0
 30 29  2  0
 31 32  2  0
 31 30  1  0
 32 27  1  0
 33 22  1  0
 34 33  2  0
 35 33  1  0
M  END
$$$$
