ERW.pdb
     RDKit          3D

 35 36  0  0  1  0  0  0  0  0999 V2000
   12.6636  -20.2448   19.1083 N   0  0  0  0  0  0  0  0  0  0  0  0
   12.9508  -18.8380   18.9795 C   0  0  1  0  0  0  0  0  0  0  0  0
   13.0603  -18.4261   17.5318 C   0  0  0  0  0  0  0  0  0  0  0  0
   14.1539  -19.1933   16.8214 C   0  0  0  0  0  0  0  0  0  0  0  0
   14.3199  -18.7840   15.4264 C   0  0  0  0  0  0  0  0  0  0  0  0
   13.5367  -19.1860   14.5115 O   0  0  0  0  0  0  0  0  0  0  0  0
   11.8586  -17.9934   19.5725 C   0  0  0  0  0  0  0  0  0  0  0  0
   11.8957  -16.7199   19.5045 O   0  0  0  0  0  0  0  0  0  0  0  0
   15.3448  -17.9322   15.0390 O   0  0  0  0  0  0  0  0  0  0  0  0
    9.0031  -22.4596   19.1054 N   0  0  0  0  0  0  0  0  0  0  0  0
    8.0530  -23.0251   19.9880 C   0  0  0  0  0  0  0  0  0  0  0  0
    7.8811  -24.3015   20.1157 N   0  0  0  0  0  0  0  0  0  0  0  0
    7.2043  -22.2092   20.8011 N   0  0  0  0  0  0  0  0  0  0  0  0
    7.2490  -20.8027   20.7675 C   0  0  0  0  0  0  0  0  0  0  0  0
    8.6092  -20.1606   20.7844 C   0  0  0  0  0  0  0  0  0  0  0  0
    8.3585  -18.6682   20.7877 C   0  0  0  0  0  0  0  0  0  0  0  0
    9.6056  -17.8338   20.7255 C   0  0  2  0  0  0  0  0  0  0  0  0
   10.7453  -18.5746   20.2276 N   0  0  0  0  0  0  0  0  0  0  0  0
    9.9053  -17.3476   22.1076 C   0  0  0  0  0  0  0  0  0  0  0  0
   10.5094  -18.0968   22.9490 O   0  0  0  0  0  0  0  0  0  0  0  0
    7.1303  -24.6485   20.7476 N   0  0  0  0  0  0  0  0  0  0  0  0
    9.5473  -16.0592   22.5728 C   0  0  2  0  0  0  0  0  0  0  0  0
    9.1604  -15.8173   23.9528 C   0  0  0  0  0  0  0  0  0  0  0  0
    8.4575  -14.5163   24.0467 C   0  0  0  0  0  0  0  0  0  0  0  0
    7.9117  -14.1529   25.3550 C   0  0  0  0  0  0  0  0  0  0  0  0
    6.6153  -14.0854   25.7641 N   0  0  0  0  0  0  0  0  0  0  0  0
    6.6311  -13.7175   27.0628 C   0  0  0  0  0  0  0  0  0  0  0  0
    7.8954  -13.5493   27.4839 C   0  0  0  0  0  0  0  0  0  0  0  0
    8.4843  -13.1817   28.6926 C   0  0  0  0  0  0  0  0  0  0  0  0
    9.8508  -13.0892   28.8235 C   0  0  0  0  0  0  0  0  0  0  0  0
   10.6897  -13.3589   27.7594 C   0  0  0  0  0  0  0  0  0  0  0  0
   10.1206  -13.7262   26.5514 C   0  0  0  0  0  0  0  0  0  0  0  0
    8.7395  -13.8157   26.4314 C   0  0  0  0  0  0  0  0  0  0  0  0
    8.4149  -16.9741   24.5132 O   0  0  0  0  0  0  0  0  0  0  0  0
    7.3951  -17.4305   23.9220 O   0  0  0  0  0  0  0  0  0  0  0  0
  2  3  1  0
  2  1  1  6
  4  3  1  0
  5  4  1  0
  5  6  2  0
  7  2  1  0
  8  7  2  0
  9  5  1  0
 10 11  1  0
 11 12  2  0
 11 13  1  0
 13 14  1  0
 15 14  1  0
 16 15  1  0
 17 16  1  1
 17 18  1  0
 18  7  1  0
 19 21  1  0
 19 17  1  0
 20 19  2  0
 22 21  1  0
 22 23  1  6
 23 24  1  0
 24 25  2  0
 24 32  1  0
 25 26  1  0
 26 27  1  0
 27 28  2  0
 29 28  1  0
 30 29  2  0
 31 32  2  0
 31 30  1  0
 32 27  1  0
 33 22  1  0
 34 33  2  0
 35 33  1  0
M  END
$$$$
