ERW.pdb
     RDKit          3D

 35 36  0  0  1  0  0  0  0  0999 V2000
    6.9557  -20.9881   21.6986 N   0  0  0  0  0  0  0  0  0  0  0  0
    6.5669  -19.6997   22.2154 C   0  0  1  0  0  0  0  0  0  0  0  0
    6.5932  -19.6781   23.7242 C   0  0  0  0  0  0  0  0  0  0  0  0
    6.8714  -21.0531   24.2906 C   0  0  0  0  0  0  0  0  0  0  0  0
    5.7282  -21.6109   25.0140 C   0  0  0  0  0  0  0  0  0  0  0  0
    5.0325  -20.9100   25.8120 O   0  0  0  0  0  0  0  0  0  0  0  0
    7.5061  -18.6164   21.7659 C   0  0  0  0  0  0  0  0  0  0  0  0
    8.7543  -18.8392   21.6235 O   0  0  0  0  0  0  0  0  0  0  0  0
    5.3500  -22.9370   24.8582 O   0  0  0  0  0  0  0  0  0  0  0  0
    8.7907  -15.4014   15.6345 N   0  0  0  0  0  0  0  0  0  0  0  0
    8.4314  -14.3467   16.5061 C   0  0  0  0  0  0  0  0  0  0  0  0
    8.1033  -13.1666   16.0877 N   0  0  0  0  0  0  0  0  0  0  0  0
    8.4158  -14.5182   17.9264 N   0  0  0  0  0  0  0  0  0  0  0  0
    7.9660  -13.5144   18.8048 C   0  0  0  0  0  0  0  0  0  0  0  0
    8.0120  -13.8221   20.2765 C   0  0  0  0  0  0  0  0  0  0  0  0
    7.1943  -15.0825   20.4580 C   0  0  0  0  0  0  0  0  0  0  0  0
    7.9047  -16.1760   21.2028 C   0  0  2  0  0  0  0  0  0  0  0  0
    7.0456  -17.3076   21.4807 N   0  0  0  0  0  0  0  0  0  0  0  0
    8.3984  -15.6090   22.4956 C   0  0  0  0  0  0  0  0  0  0  0  0
    7.7066  -14.7492   23.1405 O   0  0  0  0  0  0  0  0  0  0  0  0
    8.0036  -12.3958   16.7799 N   0  0  0  0  0  0  0  0  0  0  0  0
    9.6363  -15.9705   23.0801 C   0  0  1  0  0  0  0  0  0  0  0  0
   10.0482  -15.4746   24.3828 C   0  0  0  0  0  0  0  0  0  0  0  0
    8.9968  -15.7801   25.3813 C   0  0  0  0  0  0  0  0  0  0  0  0
    8.9238  -14.9060   26.5527 C   0  0  0  0  0  0  0  0  0  0  0  0
    9.6832  -14.9065   27.6823 N   0  0  0  0  0  0  0  0  0  0  0  0
    9.2348  -13.8971   28.4584 C   0  0  0  0  0  0  0  0  0  0  0  0
    8.2165  -13.2624   27.8547 C   0  0  0  0  0  0  0  0  0  0  0  0
    7.3991  -12.1839   28.1885 C   0  0  0  0  0  0  0  0  0  0  0  0
    6.4060  -11.7499   27.3410 C   0  0  0  0  0  0  0  0  0  0  0  0
    6.1839  -12.3684   26.1258 C   0  0  0  0  0  0  0  0  0  0  0  0
    6.9878  -13.4414   25.7786 C   0  0  0  0  0  0  0  0  0  0  0  0
    7.9870  -13.8707   26.6429 C   0  0  0  0  0  0  0  0  0  0  0  0
   11.4080  -15.9576   24.7371 O   0  0  0  0  0  0  0  0  0  0  0  0
   11.8960  -16.9783   24.1733 O   0  0  0  0  0  0  0  0  0  0  0  0
  2  3  1  0
  2  1  1  6
  4  3  1  0
  5  4  1  0
  5  6  2  0
  7  2  1  0
  8  7  2  0
  9  5  1  0
 10 11  1  0
 11 12  2  0
 11 13  1  0
 13 14  1  0
 15 14  1  0
 16 15  1  0
 17 16  1  1
 17 18  1  0
 18  7  1  0
 19 21  1  0
 19 17  1  0
 20 19  2  0
 22 21  1  0
 22 23  1  1
 23 24  1  0
 24 25  2  0
 24 32  1  0
 25 26  1  0
 26 27  1  0
 27 28  2  0
 29 28  1  0
 30 29  2  0
 31 32  2  0
 31 30  1  0
 32 27  1  0
 33 22  1  0
 34 33  2  0
 35 33  1  0
M  END
$$$$
