PFH.pdb
     RDKit          3D

 29 31  0  0  1  0  0  0  0  0999 V2000
    7.1950  -14.6697   20.2650 N   0  0  0  0  0  0  0  0  0  0  0  0
    6.6820  -13.6772   19.3521 C   0  0  0  0  0  0  0  0  0  0  0  0
    7.5065  -12.4305   19.5508 C   0  0  0  0  0  0  0  0  0  0  0  0
    8.7751  -12.8963   20.2010 C   0  0  0  0  0  0  0  0  0  0  0  0
    8.5730  -14.3482   20.5223 C   0  0  1  0  0  0  0  0  0  0  0  0
    8.9786  -14.6841   21.9129 C   0  0  0  0  0  0  0  0  0  0  0  0
   10.1942  -14.6897   22.1987 O   0  0  0  0  0  0  0  0  0  0  0  0
    8.0517  -15.0013   22.9416 N   0  0  0  0  0  0  0  0  0  0  0  0
    8.4416  -15.3059   24.3079 C   0  0  1  0  0  0  0  0  0  0  0  0
    7.3747  -15.0014   25.2776 C   0  0  0  0  0  0  0  0  0  0  0  0
    7.1993  -13.6295   25.7216 C   0  0  0  0  0  0  0  0  0  0  0  0
    8.1792  -12.6698   25.7114 C   0  0  0  0  0  0  0  0  0  0  0  0
    7.9063  -11.3971   26.1379 C   0  0  0  0  0  0  0  0  0  0  0  0
    6.6541  -11.0407   26.5865 C   0  0  0  0  0  0  0  0  0  0  0  0
    5.6489  -11.9825   26.6087 C   0  0  0  0  0  0  0  0  0  0  0  0
    5.9436  -13.2559   26.1758 C   0  0  0  0  0  0  0  0  0  0  0  0
    8.8840  -16.7130   24.4490 C   0  0  0  0  0  0  0  0  0  0  0  0
    8.4765  -17.5445   23.6004 O   0  0  0  0  0  0  0  0  0  0  0  0
    9.7360  -17.1508   25.4884 N   0  0  0  0  0  0  0  0  0  0  0  0
   10.7265  -18.1924   25.1858 C   0  0  1  0  0  0  0  0  0  0  0  0
   11.7057  -17.6924   24.1775 C   0  0  0  0  0  0  0  0  0  0  0  0
   12.7177  -18.7188   23.8639 C   0  0  0  0  0  0  0  0  0  0  0  0
   12.6798  -20.0621   24.3043 C   0  0  0  0  0  0  0  0  0  0  0  0
   13.7518  -20.7152   23.8370 N   0  0  0  0  0  0  0  0  0  0  0  0
   14.4729  -19.8560   23.1198 C   0  0  0  0  0  0  0  0  0  0  0  0
   13.8516  -18.6857   23.1450 N   0  0  0  0  0  0  0  0  0  0  0  0
   11.3850  -18.4880   26.4661 C   0  0  0  0  0  0  0  0  0  0  0  0
   11.4728  -17.5115   27.4443 O   0  0  0  0  0  0  0  0  0  0  0  0
   11.8753  -19.6010   26.7091 O   0  0  0  0  0  0  0  0  0  0  0  0
  1  5  1  0
  2  1  1  0
  3  2  1  0
  3  4  1  0
  5  4  1  0
  6  7  2  0
  5  6  1  1
  8  6  1  0
  9  8  1  0
  9 10  1  1
 11 10  1  0
 12 11  2  0
 13 12  1  0
 14 15  1  0
 14 13  2  0
 15 16  2  0
 16 11  1  0
 17  9  1  0
 17 18  2  0
 19 20  1  0
 19 17  1  0
 20 21  1  6
 21 22  1  0
 22 23  2  0
 22 26  1  0
 23 24  1  0
 24 25  1  0
 26 25  2  0
 27 20  1  0
 28 27  1  0
 29 27  2  0
M  END
$$$$
