PFH.pdb
     RDKit          3D

 29 31  0  0  1  0  0  0  0  0999 V2000
    7.4783  -15.4865   19.5349 N   0  0  0  0  0  0  0  0  0  0  0  0
    6.8958  -14.9569   18.3259 C   0  0  0  0  0  0  0  0  0  0  0  0
    7.3591  -13.5271   18.2054 C   0  0  0  0  0  0  0  0  0  0  0  0
    8.5825  -13.4350   19.0678 C   0  0  0  0  0  0  0  0  0  0  0  0
    8.6822  -14.7440   19.7951 C   0  0  1  0  0  0  0  0  0  0  0  0
    8.9305  -14.5675   21.2505 C   0  0  0  0  0  0  0  0  0  0  0  0
   10.0367  -14.1218   21.6209 O   0  0  0  0  0  0  0  0  0  0  0  0
    7.9708  -14.8807   22.2500 N   0  0  0  0  0  0  0  0  0  0  0  0
    8.1594  -14.5942   23.6621 C   0  0  1  0  0  0  0  0  0  0  0  0
    6.9194  -14.1351   24.3125 C   0  0  0  0  0  0  0  0  0  0  0  0
    7.0015  -13.5170   25.6246 C   0  0  0  0  0  0  0  0  0  0  0  0
    6.9075  -14.1894   26.8163 C   0  0  0  0  0  0  0  0  0  0  0  0
    7.0139  -13.5135   28.0029 C   0  0  0  0  0  0  0  0  0  0  0  0
    7.2165  -12.1520   28.0407 C   0  0  0  0  0  0  0  0  0  0  0  0
    7.3152  -11.4487   26.8602 C   0  0  0  0  0  0  0  0  0  0  0  0
    7.2055  -12.1465   25.6784 C   0  0  0  0  0  0  0  0  0  0  0  0
    8.7234  -15.7582   24.3851 C   0  0  0  0  0  0  0  0  0  0  0  0
    8.1127  -16.8526   24.3028 O   0  0  0  0  0  0  0  0  0  0  0  0
    9.9071  -15.6859   25.1542 N   0  0  0  0  0  0  0  0  0  0  0  0
   10.4106  -16.9175   25.7765 C   0  0  1  0  0  0  0  0  0  0  0  0
   11.8875  -17.0189   25.5927 C   0  0  0  0  0  0  0  0  0  0  0  0
   12.2332  -17.2476   24.1770 C   0  0  0  0  0  0  0  0  0  0  0  0
   12.2495  -16.2538   23.1712 C   0  0  0  0  0  0  0  0  0  0  0  0
   12.6068  -16.8058   22.0043 N   0  0  0  0  0  0  0  0  0  0  0  0
   12.8196  -18.1031   22.2143 C   0  0  0  0  0  0  0  0  0  0  0  0
   12.5958  -18.3478   23.4975 N   0  0  0  0  0  0  0  0  0  0  0  0
   10.0575  -16.8082   27.1990 C   0  0  0  0  0  0  0  0  0  0  0  0
   10.3895  -17.8259   28.0777 O   0  0  0  0  0  0  0  0  0  0  0  0
    9.4614  -15.8194   27.6519 O   0  0  0  0  0  0  0  0  0  0  0  0
  1  5  1  0
  2  1  1  0
  3  2  1  0
  3  4  1  0
  5  4  1  0
  6  7  2  0
  5  6  1  1
  8  6  1  0
  9  8  1  0
  9 10  1  1
 11 10  1  0
 12 11  2  0
 13 12  1  0
 14 15  1  0
 14 13  2  0
 15 16  2  0
 16 11  1  0
 17  9  1  0
 17 18  2  0
 19 20  1  0
 19 17  1  0
 20 21  1  1
 21 22  1  0
 22 23  2  0
 22 26  1  0
 23 24  1  0
 24 25  1  0
 26 25  2  0
 27 20  1  0
 28 27  1  0
 29 27  2  0
M  END
$$$$
