PFH.pdb
     RDKit          3D

 29 31  0  0  1  0  0  0  0  0999 V2000
    7.8237  -17.1853   19.6647 N   0  0  0  0  0  0  0  0  0  0  0  0
    7.2628  -17.1702   18.3355 C   0  0  0  0  0  0  0  0  0  0  0  0
    7.6220  -15.8402   17.7227 C   0  0  0  0  0  0  0  0  0  0  0  0
    8.7911  -15.3421   18.5189 C   0  0  0  0  0  0  0  0  0  0  0  0
    8.9537  -16.2956   19.6664 C   0  0  1  0  0  0  0  0  0  0  0  0
    9.1163  -15.5955   20.9681 C   0  0  0  0  0  0  0  0  0  0  0  0
   10.1766  -14.9729   21.1864 O   0  0  0  0  0  0  0  0  0  0  0  0
    8.1238  -15.5962   21.9844 N   0  0  0  0  0  0  0  0  0  0  0  0
    8.2964  -14.9530   23.2759 C   0  0  1  0  0  0  0  0  0  0  0  0
    7.0998  -14.2014   23.6935 C   0  0  0  0  0  0  0  0  0  0  0  0
    7.1477  -13.4315   24.9245 C   0  0  0  0  0  0  0  0  0  0  0  0
    7.8342  -12.2556   25.0886 C   0  0  0  0  0  0  0  0  0  0  0  0
    7.8024  -11.5970   26.2892 C   0  0  0  0  0  0  0  0  0  0  0  0
    7.0890  -12.0863   27.3605 C   0  0  0  0  0  0  0  0  0  0  0  0
    6.3890  -13.2654   27.2267 C   0  0  0  0  0  0  0  0  0  0  0  0
    6.4338  -13.9119   26.0119 C   0  0  0  0  0  0  0  0  0  0  0  0
    8.6889  -15.9256   24.3226 C   0  0  0  0  0  0  0  0  0  0  0  0
    7.9333  -16.9086   24.5235 O   0  0  0  0  0  0  0  0  0  0  0  0
    9.8656  -15.7922   25.0942 N   0  0  0  0  0  0  0  0  0  0  0  0
   10.2213  -16.8784   26.0168 C   0  0  1  0  0  0  0  0  0  0  0  0
   11.6935  -17.1172   25.9854 C   0  0  0  0  0  0  0  0  0  0  0  0
   12.1001  -17.7693   24.7262 C   0  0  0  0  0  0  0  0  0  0  0  0
   11.2151  -18.3240   23.7729 C   0  0  0  0  0  0  0  0  0  0  0  0
   11.9193  -18.8325   22.7533 N   0  0  0  0  0  0  0  0  0  0  0  0
   13.2104  -18.6303   23.0075 C   0  0  0  0  0  0  0  0  0  0  0  0
   13.3007  -18.0037   24.1719 N   0  0  0  0  0  0  0  0  0  0  0  0
    9.7844  -16.4216   27.3437 C   0  0  0  0  0  0  0  0  0  0  0  0
    9.9401  -17.2433   28.4477 O   0  0  0  0  0  0  0  0  0  0  0  0
    9.2711  -15.3058   27.5163 O   0  0  0  0  0  0  0  0  0  0  0  0
  1  5  1  0
  2  1  1  0
  3  2  1  0
  3  4  1  0
  5  4  1  0
  6  7  2  0
  5  6  1  1
  8  6  1  0
  9  8  1  0
  9 10  1  1
 11 10  1  0
 12 11  2  0
 13 12  1  0
 14 15  1  0
 14 13  2  0
 15 16  2  0
 16 11  1  0
 17  9  1  0
 17 18  2  0
 19 20  1  0
 19 17  1  0
 20 21  1  1
 21 22  1  0
 22 23  2  0
 22 26  1  0
 23 24  1  0
 24 25  1  0
 26 25  2  0
 27 20  1  0
 28 27  1  0
 29 27  2  0
M  END
$$$$
