PFH.pdb
     RDKit          3D

 29 31  0  0  1  0  0  0  0  0999 V2000
    7.4526  -15.2261   19.0945 N   0  0  0  0  0  0  0  0  0  0  0  0
    6.9742  -14.6519   17.8605 C   0  0  0  0  0  0  0  0  0  0  0  0
    7.5586  -13.2651   17.7662 C   0  0  0  0  0  0  0  0  0  0  0  0
    8.7427  -13.2728   18.6864 C   0  0  0  0  0  0  0  0  0  0  0  0
    8.6996  -14.5846   19.4142 C   0  0  1  0  0  0  0  0  0  0  0  0
    8.8914  -14.4274   20.8803 C   0  0  0  0  0  0  0  0  0  0  0  0
   10.0502  -14.2780   21.3212 O   0  0  0  0  0  0  0  0  0  0  0  0
    7.8205  -14.4381   21.8135 N   0  0  0  0  0  0  0  0  0  0  0  0
    7.9955  -14.2173   23.2391 C   0  0  1  0  0  0  0  0  0  0  0  0
    6.8475  -13.5196   23.8445 C   0  0  0  0  0  0  0  0  0  0  0  0
    6.9097  -13.1514   25.2484 C   0  0  0  0  0  0  0  0  0  0  0  0
    6.0947  -13.6563   26.2291 C   0  0  0  0  0  0  0  0  0  0  0  0
    6.2456  -13.2541   27.5298 C   0  0  0  0  0  0  0  0  0  0  0  0
    7.2089  -12.3401   27.8940 C   0  0  0  0  0  0  0  0  0  0  0  0
    8.0429  -11.8149   26.9315 C   0  0  0  0  0  0  0  0  0  0  0  0
    7.8750  -12.2320   25.6301 C   0  0  0  0  0  0  0  0  0  0  0  0
    8.2704  -15.4834   23.9584 C   0  0  0  0  0  0  0  0  0  0  0  0
    7.4034  -16.3904   23.9026 O   0  0  0  0  0  0  0  0  0  0  0  0
    9.4554  -15.7074   24.6955 N   0  0  0  0  0  0  0  0  0  0  0  0
    9.7303  -17.0677   25.1770 C   0  0  1  0  0  0  0  0  0  0  0  0
   10.9540  -17.6083   24.5169 C   0  0  0  0  0  0  0  0  0  0  0  0
   11.2642  -18.9667   25.0016 C   0  0  0  0  0  0  0  0  0  0  0  0
   10.3159  -19.8917   25.4963 C   0  0  0  0  0  0  0  0  0  0  0  0
   10.9388  -21.0240   25.8484 N   0  0  0  0  0  0  0  0  0  0  0  0
   12.2382  -20.8685   25.6033 C   0  0  0  0  0  0  0  0  0  0  0  0
   12.4138  -19.6529   25.1054 N   0  0  0  0  0  0  0  0  0  0  0  0
    9.9224  -16.9363   26.6282 C   0  0  0  0  0  0  0  0  0  0  0  0
   10.4702  -15.7784   27.1548 O   0  0  0  0  0  0  0  0  0  0  0  0
    9.6063  -17.8411   27.4154 O   0  0  0  0  0  0  0  0  0  0  0  0
  1  5  1  0
  2  1  1  0
  3  2  1  0
  3  4  1  0
  5  4  1  0
  6  7  2  0
  5  6  1  1
  8  6  1  0
  9  8  1  0
  9 10  1  1
 11 10  1  0
 12 11  2  0
 13 12  1  0
 14 15  1  0
 14 13  2  0
 15 16  2  0
 16 11  1  0
 17  9  1  0
 17 18  2  0
 19 20  1  0
 19 17  1  0
 20 21  1  6
 21 22  1  0
 22 23  2  0
 22 26  1  0
 23 24  1  0
 24 25  1  0
 26 25  2  0
 27 20  1  0
 28 27  1  0
 29 27  2  0
M  END
$$$$
