PFH.pdb
     RDKit          3D

 29 31  0  0  1  0  0  0  0  0999 V2000
    7.6036  -15.6341   19.4149 N   0  0  0  0  0  0  0  0  0  0  0  0
    7.0409  -15.1850   18.1646 C   0  0  0  0  0  0  0  0  0  0  0  0
    7.4790  -13.7547   17.9749 C   0  0  0  0  0  0  0  0  0  0  0  0
    8.6787  -13.5892   18.8594 C   0  0  0  0  0  0  0  0  0  0  0  0
    8.7859  -14.8531   19.6614 C   0  0  1  0  0  0  0  0  0  0  0  0
    8.9946  -14.5907   21.1100 C   0  0  0  0  0  0  0  0  0  0  0  0
   10.0137  -13.9625   21.4654 O   0  0  0  0  0  0  0  0  0  0  0  0
    8.0913  -15.0190   22.1192 N   0  0  0  0  0  0  0  0  0  0  0  0
    8.2097  -14.6389   23.5168 C   0  0  1  0  0  0  0  0  0  0  0  0
    6.9592  -14.0728   24.0528 C   0  0  0  0  0  0  0  0  0  0  0  0
    6.9749  -13.4529   25.3664 C   0  0  0  0  0  0  0  0  0  0  0  0
    6.5088  -14.0378   26.5160 C   0  0  0  0  0  0  0  0  0  0  0  0
    6.5840  -13.3726   27.7110 C   0  0  0  0  0  0  0  0  0  0  0  0
    7.1234  -12.1087   27.7992 C   0  0  0  0  0  0  0  0  0  0  0  0
    7.6001  -11.4947   26.6618 C   0  0  0  0  0  0  0  0  0  0  0  0
    7.5154  -12.1802   25.4707 C   0  0  0  0  0  0  0  0  0  0  0  0
    8.6661  -15.7727   24.3546 C   0  0  0  0  0  0  0  0  0  0  0  0
    7.9366  -16.7937   24.4085 O   0  0  0  0  0  0  0  0  0  0  0  0
    9.8752  -15.7505   25.0862 N   0  0  0  0  0  0  0  0  0  0  0  0
   10.2855  -16.9715   25.7922 C   0  0  1  0  0  0  0  0  0  0  0  0
   11.7729  -17.0859   25.7980 C   0  0  0  0  0  0  0  0  0  0  0  0
   12.2894  -17.3798   24.4478 C   0  0  0  0  0  0  0  0  0  0  0  0
   11.4936  -17.5709   23.2946 C   0  0  0  0  0  0  0  0  0  0  0  0
   12.2848  -17.8186   22.2426 N   0  0  0  0  0  0  0  0  0  0  0  0
   13.5467  -17.7952   22.6662 C   0  0  0  0  0  0  0  0  0  0  0  0
   13.5331  -17.5358   23.9658 N   0  0  0  0  0  0  0  0  0  0  0  0
    9.7574  -16.8293   27.1563 C   0  0  0  0  0  0  0  0  0  0  0  0
    9.9382  -17.8443   28.0810 O   0  0  0  0  0  0  0  0  0  0  0  0
    9.1433  -15.8144   27.5186 O   0  0  0  0  0  0  0  0  0  0  0  0
  1  5  1  0
  2  1  1  0
  3  2  1  0
  3  4  1  0
  5  4  1  0
  6  7  2  0
  5  6  1  1
  8  6  1  0
  9  8  1  0
  9 10  1  1
 11 10  1  0
 12 11  2  0
 13 12  1  0
 14 15  1  0
 14 13  2  0
 15 16  2  0
 16 11  1  0
 17  9  1  0
 17 18  2  0
 19 20  1  0
 19 17  1  0
 20 21  1  1
 21 22  1  0
 22 23  2  0
 22 26  1  0
 23 24  1  0
 24 25  1  0
 26 25  2  0
 27 20  1  0
 28 27  1  0
 29 27  2  0
M  END
$$$$
