PFH.pdb
     RDKit          3D

 29 31  0  0  1  0  0  0  0  0999 V2000
    7.3705  -15.2834   19.1325 N   0  0  0  0  0  0  0  0  0  0  0  0
    6.8857  -14.7039   17.9034 C   0  0  0  0  0  0  0  0  0  0  0  0
    7.5078  -13.3352   17.7883 C   0  0  0  0  0  0  0  0  0  0  0  0
    8.7082  -13.3708   18.6864 C   0  0  0  0  0  0  0  0  0  0  0  0
    8.6411  -14.6760   19.4243 C   0  0  1  0  0  0  0  0  0  0  0  0
    8.8649  -14.5146   20.8854 C   0  0  0  0  0  0  0  0  0  0  0  0
    9.9984  -14.1758   21.2851 O   0  0  0  0  0  0  0  0  0  0  0  0
    7.8520  -14.7263   21.8586 N   0  0  0  0  0  0  0  0  0  0  0  0
    8.0249  -14.4407   23.2729 C   0  0  1  0  0  0  0  0  0  0  0  0
    6.8002  -13.9031   23.8912 C   0  0  0  0  0  0  0  0  0  0  0  0
    6.8631  -13.3988   25.2520 C   0  0  0  0  0  0  0  0  0  0  0  0
    6.4861  -14.1016   26.3678 C   0  0  0  0  0  0  0  0  0  0  0  0
    6.5999  -13.5392   27.6116 C   0  0  0  0  0  0  0  0  0  0  0  0
    7.0908  -12.2642   27.7835 C   0  0  0  0  0  0  0  0  0  0  0  0
    7.4780  -11.5331   26.6819 C   0  0  0  0  0  0  0  0  0  0  0  0
    7.3556  -12.1163   25.4406 C   0  0  0  0  0  0  0  0  0  0  0  0
    8.5012  -15.6307   24.0163 C   0  0  0  0  0  0  0  0  0  0  0  0
    7.8125  -16.6790   23.9497 O   0  0  0  0  0  0  0  0  0  0  0  0
    9.6855  -15.6324   24.7879 N   0  0  0  0  0  0  0  0  0  0  0  0
   10.0911  -16.8845   25.4400 C   0  0  1  0  0  0  0  0  0  0  0  0
   11.5682  -17.0638   25.3334 C   0  0  0  0  0  0  0  0  0  0  0  0
   11.9695  -17.3603   23.9451 C   0  0  0  0  0  0  0  0  0  0  0  0
   11.0794  -17.6133   22.8759 C   0  0  0  0  0  0  0  0  0  0  0  0
   11.7796  -17.8441   21.7576 N   0  0  0  0  0  0  0  0  0  0  0  0
   13.0730  -17.7513   22.0591 C   0  0  0  0  0  0  0  0  0  0  0  0
   13.1687  -17.4661   23.3498 N   0  0  0  0  0  0  0  0  0  0  0  0
    9.6714  -16.7477   26.8419 C   0  0  0  0  0  0  0  0  0  0  0  0
    9.8721  -17.7894   27.7323 O   0  0  0  0  0  0  0  0  0  0  0  0
    9.1332  -15.7142   27.2668 O   0  0  0  0  0  0  0  0  0  0  0  0
  1  5  1  0
  2  1  1  0
  3  2  1  0
  3  4  1  0
  5  4  1  0
  6  7  2  0
  5  6  1  1
  8  6  1  0
  9  8  1  0
  9 10  1  1
 11 10  1  0
 12 11  2  0
 13 12  1  0
 14 15  1  0
 14 13  2  0
 15 16  2  0
 16 11  1  0
 17  9  1  0
 17 18  2  0
 19 20  1  0
 19 17  1  0
 20 21  1  1
 21 22  1  0
 22 23  2  0
 22 26  1  0
 23 24  1  0
 24 25  1  0
 26 25  2  0
 27 20  1  0
 28 27  1  0
 29 27  2  0
M  END
$$$$
