DEM.pdb
     RDKit          3D

 26 25  0  0  1  0  0  0  0  0999 V2000
    9.4565  -13.0172   18.6415 N   0  0  0  0  0  0  0  0  0  0  0  0
    8.1007  -13.3685   19.0411 C   0  0  1  0  0  0  0  0  0  0  0  0
    7.3600  -13.7150   17.7533 C   0  0  0  0  0  0  0  0  0  0  0  0
    8.3848  -13.9361   16.7016 C   0  0  0  0  0  0  0  0  0  0  0  0
    9.6146  -13.8256   16.9294 O   0  0  0  0  0  0  0  0  0  0  0  0
    8.1183  -14.5252   19.9805 C   0  0  0  0  0  0  0  0  0  0  0  0
    7.0245  -14.9594   20.4182 O   0  0  0  0  0  0  0  0  0  0  0  0
    7.9627  -14.2736   15.4362 O   0  0  0  0  0  0  0  0  0  0  0  0
    9.3471  -15.1190   20.3686 N   0  0  0  0  0  0  0  0  0  0  0  0
    9.3968  -16.1846   21.4098 C   0  0  1  0  0  0  0  0  0  0  0  0
   10.5748  -17.0549   21.1264 C   0  0  0  0  0  0  0  0  0  0  0  0
   10.3282  -18.3112   20.3722 C   0  0  0  0  0  0  0  0  0  0  0  0
   11.5174  -19.1443   20.1192 C   0  0  0  0  0  0  0  0  0  0  0  0
   12.2382  -19.4815   21.0789 O   0  0  0  0  0  0  0  0  0  0  0  0
    9.4690  -15.4705   22.7099 C   0  0  0  0  0  0  0  0  0  0  0  0
    9.8718  -14.2489   22.7616 O   0  0  0  0  0  0  0  0  0  0  0  0
   11.8218  -19.5392   18.8421 O   0  0  0  0  0  0  0  0  0  0  0  0
    6.0021  -11.4056   27.5699 C   0  0  0  0  0  0  0  0  0  0  0  0
    6.2019  -12.3896   26.0591 S   0  0  0  0  0  0  0  0  0  0  0  0
    7.6460  -13.4854   26.3272 C   0  0  0  0  0  0  0  0  0  0  0  0
    7.8515  -14.2429   25.0496 C   0  0  0  0  0  0  0  0  0  0  0  0
    9.0158  -15.1620   25.1622 C   0  0  2  0  0  0  0  0  0  0  0  0
    9.1207  -16.0144   23.9673 N   0  0  0  0  0  0  0  0  0  0  0  0
    8.8554  -16.0580   26.3247 C   0  0  0  0  0  0  0  0  0  0  0  0
    9.0845  -15.5924   27.6235 O   0  0  0  0  0  0  0  0  0  0  0  0
    8.5132  -17.2653   26.2394 O   0  0  0  0  0  0  0  0  0  0  0  0
  2  6  1  0
  2  3  1  0
  2  1  1  6
  3  4  1  0
  4  8  1  0
  4  5  2  0
  6  7  2  0
  9 10  1  0
  9  6  1  0
 10 11  1  6
 12 11  1  0
 12 13  1  0
 13 14  2  0
 15 16  2  0
 15 10  1  0
 17 13  1  0
 18 19  1  0
 20 21  1  0
 20 19  1  0
 22 21  1  6
 22 23  1  0
 22 24  1  0
 23 15  1  0
 24 25  1  0
 26 24  2  0
M  END
$$$$
