DEM.pdb
     RDKit          3D

 26 25  0  0  1  0  0  0  0  0999 V2000
    9.6368  -16.8607   19.0744 N   0  0  0  0  0  0  0  0  0  0  0  0
    8.2316  -16.5293   19.2667 C   0  0  1  0  0  0  0  0  0  0  0  0
    7.4561  -17.4050   18.2875 C   0  0  0  0  0  0  0  0  0  0  0  0
    8.0209  -17.1614   16.9360 C   0  0  0  0  0  0  0  0  0  0  0  0
    7.3035  -16.8401   15.9569 O   0  0  0  0  0  0  0  0  0  0  0  0
    7.8210  -16.7999   20.6734 C   0  0  0  0  0  0  0  0  0  0  0  0
    6.6250  -16.5991   20.9986 O   0  0  0  0  0  0  0  0  0  0  0  0
    9.3791  -17.2947   16.7598 O   0  0  0  0  0  0  0  0  0  0  0  0
    8.7650  -17.2740   21.6207 N   0  0  0  0  0  0  0  0  0  0  0  0
    8.3473  -17.6809   22.9925 C   0  0  1  0  0  0  0  0  0  0  0  0
    8.8239  -19.0748   23.2277 C   0  0  0  0  0  0  0  0  0  0  0  0
    7.9599  -20.1817   22.7416 C   0  0  0  0  0  0  0  0  0  0  0  0
    8.4974  -21.5400   22.9371 C   0  0  0  0  0  0  0  0  0  0  0  0
    8.5725  -22.3101   21.9595 O   0  0  0  0  0  0  0  0  0  0  0  0
    8.9424  -16.6738   23.9072 C   0  0  0  0  0  0  0  0  0  0  0  0
   10.1797  -16.3377   23.7911 O   0  0  0  0  0  0  0  0  0  0  0  0
    8.9073  -21.9454   24.1810 O   0  0  0  0  0  0  0  0  0  0  0  0
    6.2317  -10.5397   25.5299 C   0  0  0  0  0  0  0  0  0  0  0  0
    6.5116  -12.0109   26.5536 S   0  0  0  0  0  0  0  0  0  0  0  0
    7.7428  -13.0434   25.6726 C   0  0  0  0  0  0  0  0  0  0  0  0
    8.0506  -14.2032   26.5717 C   0  0  0  0  0  0  0  0  0  0  0  0
    8.9828  -15.1533   25.9075 C   0  0  2  0  0  0  0  0  0  0  0  0
    8.2600  -16.0031   24.9477 N   0  0  0  0  0  0  0  0  0  0  0  0
    9.6024  -16.0498   26.9038 C   0  0  0  0  0  0  0  0  0  0  0  0
   10.6030  -15.5825   27.7619 O   0  0  0  0  0  0  0  0  0  0  0  0
    9.2896  -17.2590   27.0515 O   0  0  0  0  0  0  0  0  0  0  0  0
  2  6  1  0
  2  3  1  0
  2  1  1  1
  3  4  1  0
  4  8  1  0
  4  5  2  0
  6  7  2  0
  9 10  1  0
  9  6  1  0
 10 11  1  1
 12 11  1  0
 12 13  1  0
 13 14  2  0
 15 16  2  0
 15 10  1  0
 17 13  1  0
 18 19  1  0
 20 21  1  0
 20 19  1  0
 22 21  1  1
 22 23  1  0
 22 24  1  0
 23 15  1  0
 24 25  1  0
 26 24  2  0
M  END
$$$$
