DEM.pdb
     RDKit          3D

 26 25  0  0  1  0  0  0  0  0999 V2000
    7.2258  -15.9334   18.7144 N   0  0  0  0  0  0  0  0  0  0  0  0
    8.1679  -15.2659   19.6023 C   0  0  1  0  0  0  0  0  0  0  0  0
    7.8171  -13.7822   19.5475 C   0  0  0  0  0  0  0  0  0  0  0  0
    8.1975  -13.2891   18.1995 C   0  0  0  0  0  0  0  0  0  0  0  0
    8.7186  -14.0353   17.3345 O   0  0  0  0  0  0  0  0  0  0  0  0
    8.0431  -15.7982   20.9885 C   0  0  0  0  0  0  0  0  0  0  0  0
    6.9583  -15.6339   21.5990 O   0  0  0  0  0  0  0  0  0  0  0  0
    7.9671  -11.9668   17.8965 O   0  0  0  0  0  0  0  0  0  0  0  0
    9.1296  -16.4751   21.6005 N   0  0  0  0  0  0  0  0  0  0  0  0
    8.9760  -17.1506   22.9204 C   0  0  1  0  0  0  0  0  0  0  0  0
    9.7437  -18.4290   22.8789 C   0  0  0  0  0  0  0  0  0  0  0  0
    9.2740  -19.4757   21.9346 C   0  0  0  0  0  0  0  0  0  0  0  0
   10.0547  -20.7259   21.9323 C   0  0  0  0  0  0  0  0  0  0  0  0
   11.1400  -20.7632   21.3199 O   0  0  0  0  0  0  0  0  0  0  0  0
    9.4709  -16.1781   23.9276 C   0  0  0  0  0  0  0  0  0  0  0  0
    9.9069  -15.0238   23.5604 O   0  0  0  0  0  0  0  0  0  0  0  0
    9.5872  -21.8302   22.5967 O   0  0  0  0  0  0  0  0  0  0  0  0
    6.7179  -11.2953   26.0472 C   0  0  0  0  0  0  0  0  0  0  0  0
    6.4698  -12.7224   27.1392 S   0  0  0  0  0  0  0  0  0  0  0  0
    8.0996  -13.5402   27.3216 C   0  0  0  0  0  0  0  0  0  0  0  0
    8.1950  -14.5546   26.2214 C   0  0  0  0  0  0  0  0  0  0  0  0
    9.5031  -15.2615   26.2671 C   0  0  2  0  0  0  0  0  0  0  0  0
    9.5149  -16.3913   25.3242 N   0  0  0  0  0  0  0  0  0  0  0  0
    9.7437  -15.8150   27.6145 C   0  0  0  0  0  0  0  0  0  0  0  0
   10.3805  -15.0514   28.5982 O   0  0  0  0  0  0  0  0  0  0  0  0
    9.4072  -16.9741   27.9684 O   0  0  0  0  0  0  0  0  0  0  0  0
  2  6  1  0
  2  3  1  0
  2  1  1  6
  3  4  1  0
  4  8  1  0
  4  5  2  0
  6  7  2  0
  9 10  1  0
  9  6  1  0
 10 11  1  6
 12 11  1  0
 12 13  1  0
 13 14  2  0
 15 16  2  0
 15 10  1  0
 17 13  1  0
 18 19  1  0
 20 21  1  0
 20 19  1  0
 22 21  1  1
 22 23  1  0
 22 24  1  0
 23 15  1  0
 24 25  1  0
 26 24  2  0
M  END
$$$$
