DEM.pdb
     RDKit          3D

 26 25  0  0  1  0  0  0  0  0999 V2000
    9.3299  -15.9903   18.9746 N   0  0  0  0  0  0  0  0  0  0  0  0
    8.0416  -16.3461   19.5536 C   0  0  1  0  0  0  0  0  0  0  0  0
    7.4457  -17.4057   18.6320 C   0  0  0  0  0  0  0  0  0  0  0  0
    7.4423  -16.8429   17.2578 C   0  0  0  0  0  0  0  0  0  0  0  0
    8.1314  -15.8422   16.9410 O   0  0  0  0  0  0  0  0  0  0  0  0
    8.2201  -16.8731   20.9359 C   0  0  0  0  0  0  0  0  0  0  0  0
    7.2068  -17.2694   21.5626 O   0  0  0  0  0  0  0  0  0  0  0  0
    6.6535  -17.4456   16.3049 O   0  0  0  0  0  0  0  0  0  0  0  0
    9.5093  -16.9236   21.5266 N   0  0  0  0  0  0  0  0  0  0  0  0
    9.7256  -17.5548   22.8595 C   0  0  1  0  0  0  0  0  0  0  0  0
   10.9821  -18.3564   22.7942 C   0  0  0  0  0  0  0  0  0  0  0  0
   12.2133  -17.6580   22.3421 C   0  0  0  0  0  0  0  0  0  0  0  0
   13.4326  -18.4849   22.2973 C   0  0  0  0  0  0  0  0  0  0  0  0
   13.6599  -19.2829   23.2277 O   0  0  0  0  0  0  0  0  0  0  0  0
    9.7719  -16.4325   23.8309 C   0  0  0  0  0  0  0  0  0  0  0  0
   10.6827  -15.5273   23.7388 O   0  0  0  0  0  0  0  0  0  0  0  0
   14.3019  -18.3724   21.2431 O   0  0  0  0  0  0  0  0  0  0  0  0
    6.0240  -11.1476   24.7576 C   0  0  0  0  0  0  0  0  0  0  0  0
    6.2575  -12.5253   25.9144 S   0  0  0  0  0  0  0  0  0  0  0  0
    7.7286  -13.4555   25.3410 C   0  0  0  0  0  0  0  0  0  0  0  0
    8.0011  -14.5057   26.3759 C   0  0  0  0  0  0  0  0  0  0  0  0
    9.1932  -15.3149   26.0058 C   0  0  2  0  0  0  0  0  0  0  0  0
    8.8728  -16.2359   24.9037 N   0  0  0  0  0  0  0  0  0  0  0  0
    9.6327  -16.1390   27.1494 C   0  0  0  0  0  0  0  0  0  0  0  0
   10.2289  -15.5492   28.2687 O   0  0  0  0  0  0  0  0  0  0  0  0
    9.5097  -17.3896   27.2027 O   0  0  0  0  0  0  0  0  0  0  0  0
  2  6  1  0
  2  3  1  0
  2  1  1  6
  3  4  1  0
  4  8  1  0
  4  5  2  0
  6  7  2  0
  9 10  1  0
  9  6  1  0
 10 11  1  6
 12 11  1  0
 12 13  1  0
 13 14  2  0
 15 16  2  0
 15 10  1  0
 17 13  1  0
 18 19  1  0
 20 21  1  0
 20 19  1  0
 22 21  1  1
 22 23  1  0
 22 24  1  0
 23 15  1  0
 24 25  1  0
 26 24  2  0
M  END
$$$$
