DEM.pdb
     RDKit          3D

 26 25  0  0  1  0  0  0  0  0999 V2000
    9.8963  -14.7774   18.4944 N   0  0  0  0  0  0  0  0  0  0  0  0
    8.5320  -14.7000   18.9985 C   0  0  1  0  0  0  0  0  0  0  0  0
    7.6441  -15.2668   17.8950 C   0  0  0  0  0  0  0  0  0  0  0  0
    7.9414  -14.5051   16.6555 C   0  0  0  0  0  0  0  0  0  0  0  0
    7.1530  -14.4791   15.6786 O   0  0  0  0  0  0  0  0  0  0  0  0
    8.3967  -15.4871   20.2565 C   0  0  0  0  0  0  0  0  0  0  0  0
    7.2660  -15.5654   20.7968 O   0  0  0  0  0  0  0  0  0  0  0  0
    9.1246  -13.8062   16.5839 O   0  0  0  0  0  0  0  0  0  0  0  0
    9.5244  -16.1319   20.8274 N   0  0  0  0  0  0  0  0  0  0  0  0
    9.3942  -16.9888   22.0401 C   0  0  1  0  0  0  0  0  0  0  0  0
   10.4564  -18.0348   21.9847 C   0  0  0  0  0  0  0  0  0  0  0  0
   10.5870  -18.9364   23.1586 C   0  0  0  0  0  0  0  0  0  0  0  0
   11.6650  -19.9379   23.0738 C   0  0  0  0  0  0  0  0  0  0  0  0
   11.9179  -20.6440   24.0696 O   0  0  0  0  0  0  0  0  0  0  0  0
    9.5119  -16.0653   23.1971 C   0  0  0  0  0  0  0  0  0  0  0  0
   10.5073  -15.2537   23.2851 O   0  0  0  0  0  0  0  0  0  0  0  0
   12.3771  -20.0854   21.9116 O   0  0  0  0  0  0  0  0  0  0  0  0
    6.5244  -11.1089   26.8016 C   0  0  0  0  0  0  0  0  0  0  0  0
    5.9902  -12.2432   25.4907 S   0  0  0  0  0  0  0  0  0  0  0  0
    7.4879  -13.1252   24.9099 C   0  0  0  0  0  0  0  0  0  0  0  0
    7.6450  -14.3281   25.7914 C   0  0  0  0  0  0  0  0  0  0  0  0
    8.8645  -15.0965   25.4235 C   0  0  2  0  0  0  0  0  0  0  0  0
    8.5976  -15.9719   24.2710 N   0  0  0  0  0  0  0  0  0  0  0  0
    9.2849  -15.9637   26.5420 C   0  0  0  0  0  0  0  0  0  0  0  0
    9.8303  -15.4145   27.7070 O   0  0  0  0  0  0  0  0  0  0  0  0
    9.1889  -17.2178   26.5334 O   0  0  0  0  0  0  0  0  0  0  0  0
  2  6  1  0
  2  3  1  0
  2  1  1  6
  3  4  1  0
  4  8  1  0
  4  5  2  0
  6  7  2  0
  9 10  1  0
  9  6  1  0
 10 11  1  1
 12 11  1  0
 12 13  1  0
 13 14  2  0
 15 16  2  0
 15 10  1  0
 17 13  1  0
 18 19  1  0
 20 21  1  0
 20 19  1  0
 22 21  1  1
 22 23  1  0
 22 24  1  0
 23 15  1  0
 24 25  1  0
 26 24  2  0
M  END
$$$$
