DEM.pdb
     RDKit          3D

 26 25  0  0  1  0  0  0  0  0999 V2000
    9.5366  -17.2821   18.8947 N   0  0  0  0  0  0  0  0  0  0  0  0
    8.1905  -16.9314   19.3265 C   0  0  1  0  0  0  0  0  0  0  0  0
    7.2457  -17.8025   18.5044 C   0  0  0  0  0  0  0  0  0  0  0  0
    8.0395  -18.3865   17.3936 C   0  0  0  0  0  0  0  0  0  0  0  0
    9.2887  -18.2766   17.3316 O   0  0  0  0  0  0  0  0  0  0  0  0
    8.0284  -17.1887   20.7853 C   0  0  0  0  0  0  0  0  0  0  0  0
    6.9001  -17.0063   21.3051 O   0  0  0  0  0  0  0  0  0  0  0  0
    7.3743  -19.0705   16.4021 O   0  0  0  0  0  0  0  0  0  0  0  0
    9.1284  -17.6299   21.5654 N   0  0  0  0  0  0  0  0  0  0  0  0
    8.9782  -17.9227   23.0192 C   0  0  1  0  0  0  0  0  0  0  0  0
    9.9899  -18.9540   23.3912 C   0  0  0  0  0  0  0  0  0  0  0  0
    9.4932  -20.3264   23.6703 C   0  0  0  0  0  0  0  0  0  0  0  0
   10.5341  -21.3454   23.8947 C   0  0  0  0  0  0  0  0  0  0  0  0
   10.1933  -22.5041   24.2039 O   0  0  0  0  0  0  0  0  0  0  0  0
    9.1572  -16.6205   23.7102 C   0  0  0  0  0  0  0  0  0  0  0  0
   10.0338  -15.7754   23.2923 O   0  0  0  0  0  0  0  0  0  0  0  0
   11.8586  -21.0164   23.7640 O   0  0  0  0  0  0  0  0  0  0  0  0
    6.3195  -10.1932   26.7592 C   0  0  0  0  0  0  0  0  0  0  0  0
    6.0488  -11.8132   25.9893 S   0  0  0  0  0  0  0  0  0  0  0  0
    7.6439  -12.7118   26.0698 C   0  0  0  0  0  0  0  0  0  0  0  0
    7.4143  -14.0495   25.4324 C   0  0  0  0  0  0  0  0  0  0  0  0
    8.6655  -14.8542   25.4286 C   0  0  2  0  0  0  0  0  0  0  0  0
    8.4268  -16.1806   24.8377 N   0  0  0  0  0  0  0  0  0  0  0  0
    9.1439  -15.0708   26.8085 C   0  0  0  0  0  0  0  0  0  0  0  0
    9.7410  -14.0320   27.5298 O   0  0  0  0  0  0  0  0  0  0  0  0
    9.0549  -16.1668   27.4191 O   0  0  0  0  0  0  0  0  0  0  0  0
  2  6  1  0
  2  3  1  0
  2  1  1  6
  3  4  1  0
  4  8  1  0
  4  5  2  0
  6  7  2  0
  9 10  1  0
  9  6  1  0
 10 11  1  1
 12 11  1  0
 12 13  1  0
 13 14  2  0
 15 16  2  0
 15 10  1  0
 17 13  1  0
 18 19  1  0
 20 21  1  0
 20 19  1  0
 22 21  1  1
 22 23  1  0
 22 24  1  0
 23 15  1  0
 24 25  1  0
 26 24  2  0
M  END
$$$$
