DEM.pdb
     RDKit          3D

 26 25  0  0  1  0  0  0  0  0999 V2000
   12.6785  -16.5661   18.1291 N   0  0  0  0  0  0  0  0  0  0  0  0
   12.8435  -16.0482   19.4804 C   0  0  1  0  0  0  0  0  0  0  0  0
   13.0522  -14.5444   19.3309 C   0  0  0  0  0  0  0  0  0  0  0  0
   14.4072  -14.3425   18.7580 C   0  0  0  0  0  0  0  0  0  0  0  0
   15.4188  -14.9399   19.2010 O   0  0  0  0  0  0  0  0  0  0  0  0
   11.6369  -16.3457   20.3026 C   0  0  0  0  0  0  0  0  0  0  0  0
   10.5060  -16.0759   19.8282 O   0  0  0  0  0  0  0  0  0  0  0  0
   14.5496  -13.4683   17.7049 O   0  0  0  0  0  0  0  0  0  0  0  0
   11.7686  -16.9212   21.5928 N   0  0  0  0  0  0  0  0  0  0  0  0
   10.5732  -17.3364   22.3807 C   0  0  1  0  0  0  0  0  0  0  0  0
   10.8053  -18.7233   22.8788 C   0  0  0  0  0  0  0  0  0  0  0  0
    9.7369  -19.3368   23.7094 C   0  0  0  0  0  0  0  0  0  0  0  0
    9.9709  -20.7344   24.1147 C   0  0  0  0  0  0  0  0  0  0  0  0
   11.0373  -21.0300   24.6888 O   0  0  0  0  0  0  0  0  0  0  0  0
   10.4304  -16.3217   23.4556 C   0  0  0  0  0  0  0  0  0  0  0  0
   11.4705  -15.8499   24.0495 O   0  0  0  0  0  0  0  0  0  0  0  0
    9.0239  -21.6925   23.8598 O   0  0  0  0  0  0  0  0  0  0  0  0
    6.0434  -11.2159   27.5302 C   0  0  0  0  0  0  0  0  0  0  0  0
    6.1165  -12.3993   26.1573 S   0  0  0  0  0  0  0  0  0  0  0  0
    7.7569  -13.2116   26.2444 C   0  0  0  0  0  0  0  0  0  0  0  0
    7.8703  -14.0786   25.0263 C   0  0  0  0  0  0  0  0  0  0  0  0
    9.1809  -14.7819   24.9990 C   0  0  2  0  0  0  0  0  0  0  0  0
    9.2090  -15.7843   23.9219 N   0  0  0  0  0  0  0  0  0  0  0  0
    9.4078  -15.4998   26.2692 C   0  0  0  0  0  0  0  0  0  0  0  0
   10.0399  -14.8678   27.3448 O   0  0  0  0  0  0  0  0  0  0  0  0
    9.0629  -16.6919   26.4738 O   0  0  0  0  0  0  0  0  0  0  0  0
  2  6  1  0
  2  3  1  0
  2  1  1  6
  3  4  1  0
  4  8  1  0
  4  5  2  0
  6  7  2  0
  9 10  1  0
  9  6  1  0
 10 11  1  1
 12 11  1  0
 12 13  1  0
 13 14  2  0
 15 16  2  0
 15 10  1  0
 17 13  1  0
 18 19  1  0
 20 21  1  0
 20 19  1  0
 22 21  1  1
 22 23  1  0
 22 24  1  0
 23 15  1  0
 24 25  1  0
 26 24  2  0
M  END
$$$$
