DEM.pdb
     RDKit          3D

 26 25  0  0  1  0  0  0  0  0999 V2000
    9.9124  -16.3610   18.9977 N   0  0  0  0  0  0  0  0  0  0  0  0
    8.6811  -16.5229   19.7587 C   0  0  1  0  0  0  0  0  0  0  0  0
    7.8625  -17.5729   19.0139 C   0  0  0  0  0  0  0  0  0  0  0  0
    7.6559  -17.0713   17.6316 C   0  0  0  0  0  0  0  0  0  0  0  0
    8.5860  -17.0224   16.7896 O   0  0  0  0  0  0  0  0  0  0  0  0
    8.9833  -16.9626   21.1500 C   0  0  0  0  0  0  0  0  0  0  0  0
    8.0255  -17.1740   21.9340 O   0  0  0  0  0  0  0  0  0  0  0  0
    6.3978  -16.6475   17.2696 O   0  0  0  0  0  0  0  0  0  0  0  0
   10.3259  -17.1369   21.5747 N   0  0  0  0  0  0  0  0  0  0  0  0
   10.6466  -17.6281   22.9450 C   0  0  1  0  0  0  0  0  0  0  0  0
   12.0773  -18.0501   22.9631 C   0  0  0  0  0  0  0  0  0  0  0  0
   12.4931  -19.0915   21.9880 C   0  0  0  0  0  0  0  0  0  0  0  0
   13.6779  -18.7638   21.1749 C   0  0  0  0  0  0  0  0  0  0  0  0
   13.5571  -18.6641   19.9381 O   0  0  0  0  0  0  0  0  0  0  0  0
   10.3356  -16.4988   23.8578 C   0  0  0  0  0  0  0  0  0  0  0  0
   10.6676  -15.2955   23.5432 O   0  0  0  0  0  0  0  0  0  0  0  0
   14.8945  -18.5729   21.7774 O   0  0  0  0  0  0  0  0  0  0  0  0
    7.0728  -10.8815   26.2792 C   0  0  0  0  0  0  0  0  0  0  0  0
    6.6400  -12.6391   26.1599 S   0  0  0  0  0  0  0  0  0  0  0  0
    8.1101  -13.5856   26.7088 C   0  0  0  0  0  0  0  0  0  0  0  0
    8.3043  -14.6899   25.7133 C   0  0  0  0  0  0  0  0  0  0  0  0
    9.5523  -15.4467   26.0011 C   0  0  2  0  0  0  0  0  0  0  0  0
    9.6745  -16.6057   25.1026 N   0  0  0  0  0  0  0  0  0  0  0  0
    9.5337  -15.9659   27.3832 C   0  0  0  0  0  0  0  0  0  0  0  0
    9.6881  -17.3328   27.6358 O   0  0  0  0  0  0  0  0  0  0  0  0
    9.3824  -15.2450   28.4027 O   0  0  0  0  0  0  0  0  0  0  0  0
  2  6  1  0
  2  3  1  0
  2  1  1  6
  3  4  1  0
  4  8  1  0
  4  5  2  0
  6  7  2  0
  9 10  1  0
  9  6  1  0
 10 11  1  6
 12 11  1  0
 12 13  1  0
 13 14  2  0
 15 16  2  0
 15 10  1  0
 17 13  1  0
 18 19  1  0
 20 21  1  0
 20 19  1  0
 22 21  1  6
 22 23  1  0
 22 24  1  0
 23 15  1  0
 24 25  1  0
 26 24  2  0
M  END
$$$$
