DEM.pdb
     RDKit          3D

 26 25  0  0  1  0  0  0  0  0999 V2000
    9.0479  -18.9493   19.5719 N   0  0  0  0  0  0  0  0  0  0  0  0
    9.6090  -17.7392   20.1567 C   0  0  1  0  0  0  0  0  0  0  0  0
    8.9227  -16.5743   19.4500 C   0  0  0  0  0  0  0  0  0  0  0  0
    9.4423  -16.5350   18.0595 C   0  0  0  0  0  0  0  0  0  0  0  0
   10.6683  -16.4457   17.8036 O   0  0  0  0  0  0  0  0  0  0  0  0
    9.3543  -17.7042   21.6246 C   0  0  0  0  0  0  0  0  0  0  0  0
    8.1651  -17.6900   22.0271 O   0  0  0  0  0  0  0  0  0  0  0  0
    8.5413  -16.5993   17.0214 O   0  0  0  0  0  0  0  0  0  0  0  0
   10.4358  -17.6875   22.5429 N   0  0  0  0  0  0  0  0  0  0  0  0
   10.2174  -17.9147   23.9998 C   0  0  1  0  0  0  0  0  0  0  0  0
   11.3291  -18.7705   24.5072 C   0  0  0  0  0  0  0  0  0  0  0  0
   11.4143  -18.9768   25.9762 C   0  0  0  0  0  0  0  0  0  0  0  0
   12.5605  -19.7793   26.4396 C   0  0  0  0  0  0  0  0  0  0  0  0
   12.3531  -20.7743   27.1616 O   0  0  0  0  0  0  0  0  0  0  0  0
   10.1646  -16.5628   24.6121 C   0  0  0  0  0  0  0  0  0  0  0  0
   11.0321  -15.6673   24.2916 O   0  0  0  0  0  0  0  0  0  0  0  0
   13.8360  -19.4300   26.0782 O   0  0  0  0  0  0  0  0  0  0  0  0
    6.1785  -11.8111   24.7044 C   0  0  0  0  0  0  0  0  0  0  0  0
    6.4146  -11.9591   26.4969 S   0  0  0  0  0  0  0  0  0  0  0  0
    8.0464  -12.7528   26.7530 C   0  0  0  0  0  0  0  0  0  0  0  0
    7.9908  -14.0798   26.0571 C   0  0  0  0  0  0  0  0  0  0  0  0
    9.2959  -14.7861   26.1622 C   0  0  2  0  0  0  0  0  0  0  0  0
    9.2104  -16.1256   25.5589 N   0  0  0  0  0  0  0  0  0  0  0  0
    9.6711  -14.9686   27.5785 C   0  0  0  0  0  0  0  0  0  0  0  0
    9.8331  -16.2495   28.1162 O   0  0  0  0  0  0  0  0  0  0  0  0
    9.8664  -14.0204   28.3815 O   0  0  0  0  0  0  0  0  0  0  0  0
  2  6  1  0
  2  3  1  0
  2  1  1  6
  3  4  1  0
  4  8  1  0
  4  5  2  0
  6  7  2  0
  9 10  1  0
  9  6  1  0
 10 11  1  1
 12 11  1  0
 12 13  1  0
 13 14  2  0
 15 16  2  0
 15 10  1  0
 17 13  1  0
 18 19  1  0
 20 21  1  0
 20 19  1  0
 22 21  1  1
 22 23  1  0
 22 24  1  0
 23 15  1  0
 24 25  1  0
 26 24  2  0
M  END
$$$$
