FTI.pdb
     RDKit          3D

 27 27  0  0  1  0  0  0  0  0999 V2000
    7.6121  -15.1959   20.1479 N   0  0  0  0  0  0  0  0  0  0  0  0
    7.8018  -14.6981   21.4662 C   0  0  1  0  0  0  0  0  0  0  0  0
    6.5660  -13.8802   21.8227 C   0  0  0  0  0  0  0  0  0  0  0  0
    6.7985  -13.3200   23.1774 C   0  0  0  0  0  0  0  0  0  0  0  0
    7.6324  -12.2546   23.4259 C   0  0  0  0  0  0  0  0  0  0  0  0
    7.7928  -11.7836   24.7201 C   0  0  0  0  0  0  0  0  0  0  0  0
    7.1445  -12.3391   25.8024 C   0  0  0  0  0  0  0  0  0  0  0  0
    6.3038  -13.4142   25.5432 C   0  0  0  0  0  0  0  0  0  0  0  0
    6.1275  -13.9049   24.2471 C   0  0  0  0  0  0  0  0  0  0  0  0
    8.1385  -15.6684   22.5069 C   0  0  0  0  0  0  0  0  0  0  0  0
    7.1902  -16.3946   22.9776 O   0  0  0  0  0  0  0  0  0  0  0  0
    9.1716  -18.8360   22.4421 C   0  0  0  0  0  0  0  0  0  0  0  0
   10.1151  -18.2328   23.4280 C   0  0  1  0  0  0  0  0  0  0  0  0
   11.3209  -18.0033   22.7921 O   0  0  0  0  0  0  0  0  0  0  0  0
    9.6447  -16.9572   24.0693 C   0  0  2  0  0  0  0  0  0  0  0  0
    9.3870  -15.9275   23.0798 N   0  0  0  0  0  0  0  0  0  0  0  0
   10.5739  -16.5152   25.1158 C   0  0  0  0  0  0  0  0  0  0  0  0
   11.6002  -15.7898   24.8328 O   0  0  0  0  0  0  0  0  0  0  0  0
    9.5472  -13.9987   29.6459 C   0  0  0  0  0  0  0  0  0  0  0  0
    9.8263  -15.2057   28.7958 C   0  0  0  0  0  0  0  0  0  0  0  0
   11.1498  -15.1824   28.0991 C   0  0  2  0  0  0  0  0  0  0  0  0
   11.0998  -14.0427   27.1059 C   0  0  0  0  0  0  0  0  0  0  0  0
   11.5219  -16.5010   27.4386 C   0  0  2  0  0  0  0  0  0  0  0  0
   10.4450  -16.8254   26.4976 N   0  0  0  0  0  0  0  0  0  0  0  0
   11.6094  -17.5247   28.5047 C   0  0  0  0  0  0  0  0  0  0  0  0
   10.7455  -18.4177   28.7061 O   0  0  0  0  0  0  0  0  0  0  0  0
   12.7187  -17.5020   29.3396 O   0  0  0  0  0  0  0  0  0  0  0  0
  2  3  1  0
  2  1  1  6
  4  9  2  0
  4  3  1  0
  5  4  1  0
  6  7  1  0
  6  5  2  0
  7  8  2  0
  8  9  1  0
 10  2  1  0
 11 10  2  0
 13 12  1  6
 14 13  1  0
 15 13  1  0
 15 16  1  6
 16 10  1  0
 17 18  2  0
 17 15  1  0
 19 20  1  0
 20 21  1  0
 21 23  1  0
 21 22  1  6
 23 24  1  6
 24 17  1  0
 25 23  1  0
 25 27  1  0
 26 25  2  0
M  END
$$$$
