FTI.pdb
     RDKit          3D

 27 27  0  0  1  0  0  0  0  0999 V2000
    7.9017  -17.9010   19.0118 N   0  0  0  0  0  0  0  0  0  0  0  0
    7.9678  -16.8569   19.9748 C   0  0  1  0  0  0  0  0  0  0  0  0
    6.8180  -15.8997   19.6832 C   0  0  0  0  0  0  0  0  0  0  0  0
    7.2277  -14.5684   20.1962 C   0  0  0  0  0  0  0  0  0  0  0  0
    7.9367  -13.6534   19.4530 C   0  0  0  0  0  0  0  0  0  0  0  0
    8.2771  -12.4260   20.0009 C   0  0  0  0  0  0  0  0  0  0  0  0
    7.9346  -12.0611   21.2853 C   0  0  0  0  0  0  0  0  0  0  0  0
    7.2183  -12.9902   22.0291 C   0  0  0  0  0  0  0  0  0  0  0  0
    6.8648  -14.2327   21.4970 C   0  0  0  0  0  0  0  0  0  0  0  0
    8.0157  -17.2465   21.3833 C   0  0  0  0  0  0  0  0  0  0  0  0
    7.3412  -18.2781   21.7423 O   0  0  0  0  0  0  0  0  0  0  0  0
    8.5683  -19.5525   23.0380 C   0  0  0  0  0  0  0  0  0  0  0  0
    9.3342  -18.5426   23.8250 C   0  0  1  0  0  0  0  0  0  0  0  0
   10.6373  -18.5288   23.3639 O   0  0  0  0  0  0  0  0  0  0  0  0
    8.7821  -17.1449   23.7860 C   0  0  2  0  0  0  0  0  0  0  0  0
    8.7156  -16.6366   22.4284 N   0  0  0  0  0  0  0  0  0  0  0  0
    9.5251  -16.2555   24.6865 C   0  0  0  0  0  0  0  0  0  0  0  0
   10.6408  -15.7222   24.3255 O   0  0  0  0  0  0  0  0  0  0  0  0
    7.1877  -12.2386   26.5499 C   0  0  0  0  0  0  0  0  0  0  0  0
    8.3061  -13.1500   26.1305 C   0  0  0  0  0  0  0  0  0  0  0  0
    8.9848  -13.8603   27.2585 C   0  0  2  0  0  0  0  0  0  0  0  0
    9.7128  -12.8060   28.0626 C   0  0  0  0  0  0  0  0  0  0  0  0
    9.9115  -14.9809   26.8126 C   0  0  2  0  0  0  0  0  0  0  0  0
    9.1090  -15.8997   25.9990 N   0  0  0  0  0  0  0  0  0  0  0  0
   10.4079  -15.6604   28.0309 C   0  0  0  0  0  0  0  0  0  0  0  0
    9.8178  -16.6126   28.6048 O   0  0  0  0  0  0  0  0  0  0  0  0
   11.6056  -15.2210   28.5792 O   0  0  0  0  0  0  0  0  0  0  0  0
  2  3  1  0
  2  1  1  6
  4  9  2  0
  4  3  1  0
  5  4  1  0
  6  7  1  0
  6  5  2  0
  7  8  2  0
  8  9  1  0
 10  2  1  0
 11 10  2  0
 13 12  1  6
 14 13  1  0
 15 13  1  0
 15 16  1  6
 16 10  1  0
 17 18  2  0
 17 15  1  0
 19 20  1  0
 20 21  1  0
 21 23  1  0
 21 22  1  6
 23 24  1  6
 24 17  1  0
 25 23  1  0
 25 27  1  0
 26 25  2  0
M  END
$$$$
