FTI.pdb
     RDKit          3D

 27 27  0  0  1  0  0  0  0  0999 V2000
    6.9107  -17.8910   19.8962 N   0  0  0  0  0  0  0  0  0  0  0  0
    7.4939  -17.0173   20.8544 C   0  0  1  0  0  0  0  0  0  0  0  0
    6.4934  -15.8966   21.1122 C   0  0  0  0  0  0  0  0  0  0  0  0
    7.2131  -14.6185   20.8852 C   0  0  0  0  0  0  0  0  0  0  0  0
    8.4412  -14.3305   21.4340 C   0  0  0  0  0  0  0  0  0  0  0  0
    9.0540  -13.1152   21.1693 C   0  0  0  0  0  0  0  0  0  0  0  0
    8.4849  -12.1521   20.3638 C   0  0  0  0  0  0  0  0  0  0  0  0
    7.2450  -12.4505   19.8131 C   0  0  0  0  0  0  0  0  0  0  0  0
    6.6097  -13.6687   20.0665 C   0  0  0  0  0  0  0  0  0  0  0  0
    7.9828  -17.6149   22.0961 C   0  0  0  0  0  0  0  0  0  0  0  0
    7.5436  -18.7787   22.4138 O   0  0  0  0  0  0  0  0  0  0  0  0
    9.3548  -19.9906   22.7820 C   0  0  0  0  0  0  0  0  0  0  0  0
   10.2081  -19.0613   23.5783 C   0  0  1  0  0  0  0  0  0  0  0  0
   11.2834  -18.6809   22.7973 O   0  0  0  0  0  0  0  0  0  0  0  0
    9.5121  -17.8319   24.0922 C   0  0  2  0  0  0  0  0  0  0  0  0
    8.8910  -17.0826   23.0159 N   0  0  0  0  0  0  0  0  0  0  0  0
   10.4174  -17.0098   24.9039 C   0  0  0  0  0  0  0  0  0  0  0  0
   11.2048  -16.1485   24.3583 O   0  0  0  0  0  0  0  0  0  0  0  0
    9.2214  -12.5386   27.7248 C   0  0  0  0  0  0  0  0  0  0  0  0
   10.3054  -13.5790   27.7187 C   0  0  0  0  0  0  0  0  0  0  0  0
    9.9643  -14.8272   26.9683 C   0  0  2  0  0  0  0  0  0  0  0  0
    8.6104  -15.2803   27.4682 C   0  0  0  0  0  0  0  0  0  0  0  0
   11.0131  -15.9225   27.0849 C   0  0  2  0  0  0  0  0  0  0  0  0
   10.5165  -17.0716   26.3211 N   0  0  0  0  0  0  0  0  0  0  0  0
   11.1418  -16.2657   28.5194 C   0  0  0  0  0  0  0  0  0  0  0  0
   11.7802  -15.5805   29.3604 O   0  0  0  0  0  0  0  0  0  0  0  0
   10.5160  -17.4200   28.9714 O   0  0  0  0  0  0  0  0  0  0  0  0
  2  3  1  0
  2  1  1  6
  4  9  2  0
  4  3  1  0
  5  4  1  0
  6  7  1  0
  6  5  2  0
  7  8  2  0
  8  9  1  0
 10  2  1  0
 11 10  2  0
 13 12  1  6
 14 13  1  0
 15 13  1  0
 15 16  1  6
 16 10  1  0
 17 18  2  0
 17 15  1  0
 19 20  1  0
 20 21  1  0
 21 23  1  0
 21 22  1  1
 23 24  1  6
 24 17  1  0
 25 23  1  0
 25 27  1  0
 26 25  2  0
M  END
$$$$
