FTI.pdb
     RDKit          3D

 27 27  0  0  1  0  0  0  0  0999 V2000
    7.5408  -15.3590   19.9953 N   0  0  0  0  0  0  0  0  0  0  0  0
    7.7707  -14.8183   21.2901 C   0  0  1  0  0  0  0  0  0  0  0  0
    6.6323  -13.8481   21.5835 C   0  0  0  0  0  0  0  0  0  0  0  0
    6.8709  -13.3056   22.9443 C   0  0  0  0  0  0  0  0  0  0  0  0
    6.3383  -13.8576   24.0862 C   0  0  0  0  0  0  0  0  0  0  0  0
    6.6131  -13.2965   25.3240 C   0  0  0  0  0  0  0  0  0  0  0  0
    7.4134  -12.1847   25.4784 C   0  0  0  0  0  0  0  0  0  0  0  0
    7.9479  -11.6335   24.3208 C   0  0  0  0  0  0  0  0  0  0  0  0
    7.6840  -12.1826   23.0635 C   0  0  0  0  0  0  0  0  0  0  0  0
    7.9824  -15.7653   22.3839 C   0  0  0  0  0  0  0  0  0  0  0  0
    7.2215  -16.7979   22.4372 O   0  0  0  0  0  0  0  0  0  0  0  0
    8.6687  -18.5707   22.6094 C   0  0  0  0  0  0  0  0  0  0  0  0
    9.6632  -18.0280   23.5801 C   0  0  1  0  0  0  0  0  0  0  0  0
   10.8348  -17.7584   22.8978 O   0  0  0  0  0  0  0  0  0  0  0  0
    9.2292  -16.7947   24.3220 C   0  0  2  0  0  0  0  0  0  0  0  0
    8.9271  -15.7050   23.4125 N   0  0  0  0  0  0  0  0  0  0  0  0
   10.2100  -16.4193   25.3473 C   0  0  0  0  0  0  0  0  0  0  0  0
   10.8455  -15.3006   25.2837 O   0  0  0  0  0  0  0  0  0  0  0  0
    9.1034  -13.3215   27.8774 C   0  0  0  0  0  0  0  0  0  0  0  0
   10.0610  -14.3531   27.3519 C   0  0  0  0  0  0  0  0  0  0  0  0
   10.1722  -15.5840   28.1945 C   0  0  2  0  0  0  0  0  0  0  0  0
   10.5263  -15.1254   29.5918 C   0  0  0  0  0  0  0  0  0  0  0  0
   11.1612  -16.6090   27.6610 C   0  0  2  0  0  0  0  0  0  0  0  0
   10.5481  -17.2163   26.4754 N   0  0  0  0  0  0  0  0  0  0  0  0
   11.3669  -17.6233   28.7198 C   0  0  0  0  0  0  0  0  0  0  0  0
   10.5242  -18.5036   29.0349 O   0  0  0  0  0  0  0  0  0  0  0  0
   12.5700  -17.6062   29.4129 O   0  0  0  0  0  0  0  0  0  0  0  0
  2  3  1  0
  2  1  1  6
  4  9  2  0
  4  3  1  0
  5  4  1  0
  6  7  1  0
  6  5  2  0
  7  8  2  0
  8  9  1  0
 10  2  1  0
 11 10  2  0
 13 12  1  6
 14 13  1  0
 15 13  1  0
 15 16  1  6
 16 10  1  0
 17 18  2  0
 17 15  1  0
 19 20  1  0
 20 21  1  0
 21 23  1  0
 21 22  1  1
 23 24  1  6
 24 17  1  0
 25 23  1  0
 25 27  1  0
 26 25  2  0
M  END
$$$$
