FTI.pdb
     RDKit          3D

 27 27  0  0  1  0  0  0  0  0999 V2000
    7.9478  -17.5998   19.1732 N   0  0  0  0  0  0  0  0  0  0  0  0
    8.0833  -16.6026   20.1777 C   0  0  1  0  0  0  0  0  0  0  0  0
    6.8038  -15.7743   20.1679 C   0  0  0  0  0  0  0  0  0  0  0  0
    7.0402  -14.6093   21.0566 C   0  0  0  0  0  0  0  0  0  0  0  0
    6.6780  -14.5803   22.3834 C   0  0  0  0  0  0  0  0  0  0  0  0
    6.9391  -13.4558   23.1516 C   0  0  0  0  0  0  0  0  0  0  0  0
    7.5593  -12.3336   22.6454 C   0  0  0  0  0  0  0  0  0  0  0  0
    7.9223  -12.3708   21.3051 C   0  0  0  0  0  0  0  0  0  0  0  0
    7.6688  -13.4932   20.5128 C   0  0  0  0  0  0  0  0  0  0  0  0
    8.4383  -17.0509   21.5234 C   0  0  0  0  0  0  0  0  0  0  0  0
    7.5527  -17.6961   22.1924 O   0  0  0  0  0  0  0  0  0  0  0  0
   11.2868  -18.7805   25.0512 C   0  0  0  0  0  0  0  0  0  0  0  0
   10.9912  -18.2859   23.6750 C   0  0  1  0  0  0  0  0  0  0  0  0
   10.6818  -19.3729   22.8790 O   0  0  0  0  0  0  0  0  0  0  0  0
    9.8834  -17.2740   23.5807 C   0  0  2  0  0  0  0  0  0  0  0  0
    9.6447  -16.8726   22.2067 N   0  0  0  0  0  0  0  0  0  0  0  0
   10.1312  -16.1315   24.4681 C   0  0  0  0  0  0  0  0  0  0  0  0
   11.1628  -15.3764   24.3100 O   0  0  0  0  0  0  0  0  0  0  0  0
    7.2921  -12.0633   25.2709 C   0  0  0  0  0  0  0  0  0  0  0  0
    8.4498  -13.0209   25.2767 C   0  0  0  0  0  0  0  0  0  0  0  0
    8.7129  -13.6697   26.5986 C   0  0  2  0  0  0  0  0  0  0  0  0
    9.1038  -12.5658   27.5561 C   0  0  0  0  0  0  0  0  0  0  0  0
    9.7547  -14.7765   26.5456 C   0  0  2  0  0  0  0  0  0  0  0  0
    9.2924  -15.7501   25.5512 N   0  0  0  0  0  0  0  0  0  0  0  0
    9.8183  -15.3938   27.8899 C   0  0  0  0  0  0  0  0  0  0  0  0
   10.5775  -15.0056   28.8158 O   0  0  0  0  0  0  0  0  0  0  0  0
    8.9843  -16.4730   28.1509 O   0  0  0  0  0  0  0  0  0  0  0  0
  2  3  1  0
  2  1  1  6
  4  9  2  0
  4  3  1  0
  5  4  1  0
  6  7  1  0
  6  5  2  0
  7  8  2  0
  8  9  1  0
 10  2  1  0
 11 10  2  0
 13 12  1  1
 14 13  1  0
 15 13  1  0
 15 16  1  6
 16 10  1  0
 17 18  2  0
 17 15  1  0
 19 20  1  0
 20 21  1  0
 21 23  1  0
 21 22  1  1
 23 24  1  6
 24 17  1  0
 25 23  1  0
 25 27  1  0
 26 25  2  0
M  END
$$$$
