FTI.pdb
     RDKit          3D

 27 27  0  0  1  0  0  0  0  0999 V2000
    8.8310  -17.8673   18.2568 N   0  0  0  0  0  0  0  0  0  0  0  0
    8.7093  -16.7384   19.1127 C   0  0  1  0  0  0  0  0  0  0  0  0
    7.7059  -15.7889   18.4686 C   0  0  0  0  0  0  0  0  0  0  0  0
    7.6138  -14.5989   19.3510 C   0  0  0  0  0  0  0  0  0  0  0  0
    6.7868  -14.5290   20.4480 C   0  0  0  0  0  0  0  0  0  0  0  0
    6.7617  -13.3834   21.2287 C   0  0  0  0  0  0  0  0  0  0  0  0
    7.5419  -12.2793   20.9592 C   0  0  0  0  0  0  0  0  0  0  0  0
    8.3746  -12.3578   19.8501 C   0  0  0  0  0  0  0  0  0  0  0  0
    8.4157  -13.5022   19.0498 C   0  0  0  0  0  0  0  0  0  0  0  0
    8.4009  -16.9937   20.5190 C   0  0  0  0  0  0  0  0  0  0  0  0
    7.5388  -17.9066   20.7864 O   0  0  0  0  0  0  0  0  0  0  0  0
    8.4688  -19.2198   22.3805 C   0  0  0  0  0  0  0  0  0  0  0  0
    9.1178  -18.1991   23.2538 C   0  0  1  0  0  0  0  0  0  0  0  0
   10.4866  -18.2854   23.0809 O   0  0  0  0  0  0  0  0  0  0  0  0
    8.6792  -16.7805   23.0185 C   0  0  2  0  0  0  0  0  0  0  0  0
    8.9295  -16.3659   21.6505 N   0  0  0  0  0  0  0  0  0  0  0  0
    9.2760  -15.8702   24.0030 C   0  0  0  0  0  0  0  0  0  0  0  0
   10.4775  -15.4281   23.8593 O   0  0  0  0  0  0  0  0  0  0  0  0
    6.3184  -12.1608   26.8456 C   0  0  0  0  0  0  0  0  0  0  0  0
    7.0571  -13.4147   26.4722 C   0  0  0  0  0  0  0  0  0  0  0  0
    8.5064  -13.2130   26.1621 C   0  0  2  0  0  0  0  0  0  0  0  0
    8.5711  -12.4455   24.8602 C   0  0  0  0  0  0  0  0  0  0  0  0
    9.3102  -14.5030   26.1062 C   0  0  2  0  0  0  0  0  0  0  0  0
    8.6184  -15.3963   25.1713 N   0  0  0  0  0  0  0  0  0  0  0  0
    9.3209  -15.0811   27.4693 C   0  0  0  0  0  0  0  0  0  0  0  0
    8.6711  -16.1026   27.8139 O   0  0  0  0  0  0  0  0  0  0  0  0
   10.1003  -14.4577   28.4347 O   0  0  0  0  0  0  0  0  0  0  0  0
  2  3  1  0
  2  1  1  6
  4  9  2  0
  4  3  1  0
  5  4  1  0
  6  7  1  0
  6  5  2  0
  7  8  2  0
  8  9  1  0
 10  2  1  0
 11 10  2  0
 13 12  1  6
 14 13  1  0
 15 13  1  0
 15 16  1  6
 16 10  1  0
 17 18  2  0
 17 15  1  0
 19 20  1  0
 20 21  1  0
 21 23  1  0
 21 22  1  6
 23 24  1  6
 24 17  1  0
 25 23  1  0
 25 27  1  0
 26 25  2  0
M  END
$$$$
