FTI.pdb
     RDKit          3D

 27 27  0  0  1  0  0  0  0  0999 V2000
    5.7317  -17.4099   20.4184 N   0  0  0  0  0  0  0  0  0  0  0  0
    6.4931  -16.6262   21.3284 C   0  0  1  0  0  0  0  0  0  0  0  0
    5.8458  -15.2476   21.3890 C   0  0  0  0  0  0  0  0  0  0  0  0
    6.8343  -14.2851   20.8418 C   0  0  0  0  0  0  0  0  0  0  0  0
    7.8431  -13.7244   21.5903 C   0  0  0  0  0  0  0  0  0  0  0  0
    8.7331  -12.8369   21.0048 C   0  0  0  0  0  0  0  0  0  0  0  0
    8.6615  -12.4752   19.6765 C   0  0  0  0  0  0  0  0  0  0  0  0
    7.6404  -13.0460   18.9273 C   0  0  0  0  0  0  0  0  0  0  0  0
    6.7327  -13.9423   19.4969 C   0  0  0  0  0  0  0  0  0  0  0  0
    6.7268  -17.1835   22.6598 C   0  0  0  0  0  0  0  0  0  0  0  0
    5.9000  -18.0647   23.0935 O   0  0  0  0  0  0  0  0  0  0  0  0
    6.6236  -19.5759   24.0373 C   0  0  0  0  0  0  0  0  0  0  0  0
    7.9139  -19.0857   24.6037 C   0  0  1  0  0  0  0  0  0  0  0  0
    8.9389  -19.5014   23.7746 O   0  0  0  0  0  0  0  0  0  0  0  0
    8.0068  -17.5976   24.7954 C   0  0  2  0  0  0  0  0  0  0  0  0
    7.7568  -16.8847   23.5564 N   0  0  0  0  0  0  0  0  0  0  0  0
    9.2822  -17.2211   25.4164 C   0  0  0  0  0  0  0  0  0  0  0  0
   10.3721  -17.1843   24.7307 O   0  0  0  0  0  0  0  0  0  0  0  0
    9.6033  -13.4412   29.4407 C   0  0  0  0  0  0  0  0  0  0  0  0
    9.6074  -14.8172   28.8374 C   0  0  0  0  0  0  0  0  0  0  0  0
   10.6246  -15.0201   27.7596 C   0  0  2  0  0  0  0  0  0  0  0  0
   10.2479  -14.0938   26.6246 C   0  0  0  0  0  0  0  0  0  0  0  0
   10.7562  -16.4639   27.3000 C   0  0  2  0  0  0  0  0  0  0  0  0
    9.4444  -16.8687   26.7845 N   0  0  0  0  0  0  0  0  0  0  0  0
   11.1257  -17.2760   28.4817 C   0  0  0  0  0  0  0  0  0  0  0  0
   12.2318  -17.2023   29.0778 O   0  0  0  0  0  0  0  0  0  0  0  0
   10.1908  -18.1800   28.9686 O   0  0  0  0  0  0  0  0  0  0  0  0
  2  3  1  0
  2  1  1  6
  4  9  2  0
  4  3  1  0
  5  4  1  0
  6  7  1  0
  6  5  2  0
  7  8  2  0
  8  9  1  0
 10  2  1  0
 11 10  2  0
 13 12  1  6
 14 13  1  0
 15 13  1  0
 15 16  1  6
 16 10  1  0
 17 18  2  0
 17 15  1  0
 19 20  1  0
 20 21  1  0
 21 23  1  0
 21 22  1  6
 23 24  1  1
 24 17  1  0
 25 23  1  0
 25 27  1  0
 26 25  2  0
M  END
$$$$
