FTI.pdb
     RDKit          3D

 27 27  0  0  1  0  0  0  0  0999 V2000
   13.1916  -17.5132   25.5580 N   0  0  0  0  0  0  0  0  0  0  0  0
   11.8702  -17.7053   25.0693 C   0  0  1  0  0  0  0  0  0  0  0  0
   10.9975  -18.0808   26.2612 C   0  0  0  0  0  0  0  0  0  0  0  0
   11.1001  -16.9662   27.2360 C   0  0  0  0  0  0  0  0  0  0  0  0
   11.8873  -17.0130   28.3631 C   0  0  0  0  0  0  0  0  0  0  0  0
   11.9357  -15.9269   29.2237 C   0  0  0  0  0  0  0  0  0  0  0  0
   11.2187  -14.7698   29.0064 C   0  0  0  0  0  0  0  0  0  0  0  0
   10.4266  -14.7301   27.8659 C   0  0  0  0  0  0  0  0  0  0  0  0
   10.3629  -15.8128   26.9853 C   0  0  0  0  0  0  0  0  0  0  0  0
   11.2849  -16.6243   24.2775 C   0  0  0  0  0  0  0  0  0  0  0  0
   11.8588  -15.4765   24.3150 O   0  0  0  0  0  0  0  0  0  0  0  0
    7.7220  -14.5602   21.4365 C   0  0  0  0  0  0  0  0  0  0  0  0
    8.5690  -15.7128   21.8607 C   0  0  1  0  0  0  0  0  0  0  0  0
    9.4750  -15.9816   20.8518 O   0  0  0  0  0  0  0  0  0  0  0  0
    9.3123  -15.5217   23.1534 C   0  0  2  0  0  0  0  0  0  0  0  0
   10.1534  -16.6645   23.4577 N   0  0  0  0  0  0  0  0  0  0  0  0
    8.3945  -15.1881   24.2490 C   0  0  0  0  0  0  0  0  0  0  0  0
    8.1878  -16.0102   25.2190 O   0  0  0  0  0  0  0  0  0  0  0  0
    6.9297   -9.8446   25.3099 C   0  0  0  0  0  0  0  0  0  0  0  0
    7.3827  -11.2612   25.5228 C   0  0  0  0  0  0  0  0  0  0  0  0
    6.3023  -12.2864   25.3845 C   0  0  2  0  0  0  0  0  0  0  0  0
    5.2520  -11.9557   26.4216 C   0  0  0  0  0  0  0  0  0  0  0  0
    6.7942  -13.7205   25.5057 C   0  0  2  0  0  0  0  0  0  0  0  0
    7.6669  -13.9708   24.3542 N   0  0  0  0  0  0  0  0  0  0  0  0
    5.6070  -14.6042   25.4626 C   0  0  0  0  0  0  0  0  0  0  0  0
    5.0693  -15.0221   24.4040 O   0  0  0  0  0  0  0  0  0  0  0  0
    5.0473  -15.0020   26.6696 O   0  0  0  0  0  0  0  0  0  0  0  0
  2  3  1  0
  2  1  1  1
  4  9  2  0
  4  3  1  0
  5  4  1  0
  6  7  1  0
  6  5  2  0
  7  8  2  0
  8  9  1  0
 10  2  1  0
 11 10  2  0
 13 12  1  6
 14 13  1  0
 15 13  1  0
 15 16  1  1
 16 10  1  0
 17 18  2  0
 17 15  1  0
 19 20  1  0
 20 21  1  0
 21 23  1  0
 21 22  1  1
 23 24  1  6
 24 17  1  0
 25 23  1  0
 25 27  1  0
 26 25  2  0
M  END
$$$$
