KHH.pdb
     RDKit          3D

 30 31  0  0  1  0  0  0  0  0999 V2000
   10.7098  -18.1757   17.9688 N   0  0  0  0  0  0  0  0  0  0  0  0
   11.7195  -17.1736   17.6457 C   0  0  1  0  0  0  0  0  0  0  0  0
   11.4671  -16.7312   16.2475 C   0  0  0  0  0  0  0  0  0  0  0  0
   11.1992  -17.8434   15.2876 C   0  0  0  0  0  0  0  0  0  0  0  0
   10.8888  -17.2812   13.9151 C   0  0  0  0  0  0  0  0  0  0  0  0
   10.5082  -18.3741   12.9398 C   0  0  0  0  0  0  0  0  0  0  0  0
   10.2024  -17.8595   11.6405 N   0  0  0  0  0  0  0  0  0  0  0  0
   11.7269  -16.1263   18.6633 C   0  0  0  0  0  0  0  0  0  0  0  0
   12.5533  -15.1526   18.6248 O   0  0  0  0  0  0  0  0  0  0  0  0
   10.7847  -16.1878   19.7346 N   0  0  0  0  0  0  0  0  0  0  0  0
   10.7599  -15.1527   20.7433 C   0  0  1  0  0  0  0  0  0  0  0  0
    9.3334  -14.7056   21.0351 C   0  0  0  0  0  0  0  0  0  0  0  0
    8.7140  -14.0090   19.9050 C   0  0  0  0  0  0  0  0  0  0  0  0
    9.3306  -13.7225   18.7076 C   0  0  0  0  0  0  0  0  0  0  0  0
    8.4342  -13.0847   17.9499 N   0  0  0  0  0  0  0  0  0  0  0  0
    7.3021  -12.9763   18.6445 C   0  0  0  0  0  0  0  0  0  0  0  0
    7.4659  -13.5363   19.8339 N   0  0  0  0  0  0  0  0  0  0  0  0
   11.3029  -15.6894   22.0134 C   0  0  0  0  0  0  0  0  0  0  0  0
   10.5217  -16.3465   22.7486 O   0  0  0  0  0  0  0  0  0  0  0  0
   12.6397  -15.4519   22.3458 N   0  0  0  0  0  0  0  0  0  0  0  0
   13.2929  -16.3268   23.3527 C   0  0  1  0  0  0  0  0  0  0  0  0
   13.1732  -17.6972   22.8074 C   0  0  0  0  0  0  0  0  0  0  0  0
   12.0678  -18.5315   23.3034 C   0  0  0  0  0  0  0  0  0  0  0  0
   11.0811  -18.2183   24.1935 C   0  0  0  0  0  0  0  0  0  0  0  0
   10.2048  -19.2684   24.3257 N   0  0  0  0  0  0  0  0  0  0  0  0
   10.6800  -20.2068   23.5047 C   0  0  0  0  0  0  0  0  0  0  0  0
   11.7805  -19.8089   22.8818 N   0  0  0  0  0  0  0  0  0  0  0  0
   14.7074  -15.8499   23.4682 C   0  0  0  0  0  0  0  0  0  0  0  0
   15.4847  -16.1566   24.6065 O   0  0  0  0  0  0  0  0  0  0  0  0
   15.2740  -15.1779   22.6058 O   0  0  0  0  0  0  0  0  0  0  0  0
  2  1  1  1
  2  3  1  0
  3  4  1  0
  4  5  1  0
  5  6  1  0
  7  6  1  0
  8  2  1  0
  8  9  2  0
 10  8  1  0
 11 10  1  0
 11 12  1  1
 13 12  1  0
 14 13  2  0
 15 16  1  0
 15 14  1  0
 16 17  2  0
 17 13  1  0
 18 11  1  0
 19 18  2  0
 20 18  1  0
 21 20  1  0
 21 28  1  0
 21 22  1  6
 23 24  2  0
 23 22  1  0
 25 24  1  0
 26 27  2  0
 26 25  1  0
 27 23  1  0
 28 29  1  0
 30 28  2  0
M  END
$$$$
