KHH.pdb
     RDKit          3D

 30 31  0  0  1  0  0  0  0  0999 V2000
   12.3113  -15.3658   14.9454 N   0  0  0  0  0  0  0  0  0  0  0  0
   13.7094  -15.5854   15.2996 C   0  0  1  0  0  0  0  0  0  0  0  0
   14.4992  -14.4954   14.6653 C   0  0  0  0  0  0  0  0  0  0  0  0
   15.5750  -14.9690   13.7443 C   0  0  0  0  0  0  0  0  0  0  0  0
   15.5275  -14.1889   12.4460 C   0  0  0  0  0  0  0  0  0  0  0  0
   16.6187  -14.6279   11.4936 C   0  0  0  0  0  0  0  0  0  0  0  0
   16.5376  -13.9604   10.2308 N   0  0  0  0  0  0  0  0  0  0  0  0
   13.8421  -15.7210   16.7475 C   0  0  0  0  0  0  0  0  0  0  0  0
   13.2070  -14.9643   17.5580 O   0  0  0  0  0  0  0  0  0  0  0  0
   14.7057  -16.7271   17.2778 N   0  0  0  0  0  0  0  0  0  0  0  0
   14.8625  -16.8729   18.7074 C   0  0  1  0  0  0  0  0  0  0  0  0
   14.8692  -18.3415   19.1112 C   0  0  0  0  0  0  0  0  0  0  0  0
   14.4051  -18.5554   20.4841 C   0  0  0  0  0  0  0  0  0  0  0  0
   13.2505  -18.0375   21.0273 C   0  0  0  0  0  0  0  0  0  0  0  0
   13.1898  -18.4622   22.2923 N   0  0  0  0  0  0  0  0  0  0  0  0
   14.2628  -19.2156   22.5317 C   0  0  0  0  0  0  0  0  0  0  0  0
   15.0053  -19.2759   21.4363 N   0  0  0  0  0  0  0  0  0  0  0  0
   16.1726  -16.3154   19.1187 C   0  0  0  0  0  0  0  0  0  0  0  0
   16.9103  -15.8383   18.2183 O   0  0  0  0  0  0  0  0  0  0  0  0
   16.5377  -16.3379   20.4677 N   0  0  0  0  0  0  0  0  0  0  0  0
   17.8183  -15.7039   20.8731 C   0  0  1  0  0  0  0  0  0  0  0  0
   17.6537  -14.2678   20.5570 C   0  0  0  0  0  0  0  0  0  0  0  0
   18.2028  -13.7859   19.2801 C   0  0  0  0  0  0  0  0  0  0  0  0
   18.7897  -14.4929   18.2705 C   0  0  0  0  0  0  0  0  0  0  0  0
   19.0986  -13.6617   17.2209 N   0  0  0  0  0  0  0  0  0  0  0  0
   18.6882  -12.4553   17.6167 C   0  0  0  0  0  0  0  0  0  0  0  0
   18.1526  -12.4875   18.8288 N   0  0  0  0  0  0  0  0  0  0  0  0
   17.9787  -15.9805   22.3357 C   0  0  0  0  0  0  0  0  0  0  0  0
   19.2310  -15.8247   22.9693 O   0  0  0  0  0  0  0  0  0  0  0  0
   17.0589  -16.3516   23.0654 O   0  0  0  0  0  0  0  0  0  0  0  0
  2  1  1  1
  2  3  1  0
  3  4  1  0
  4  5  1  0
  5  6  1  0
  7  6  1  0
  8  2  1  0
  8  9  2  0
 10  8  1  0
 11 10  1  0
 11 12  1  6
 13 12  1  0
 14 13  2  0
 15 16  1  0
 15 14  1  0
 16 17  2  0
 17 13  1  0
 18 11  1  0
 19 18  2  0
 20 18  1  0
 21 20  1  0
 21 28  1  0
 21 22  1  1
 23 24  2  0
 23 22  1  0
 25 24  1  0
 26 27  2  0
 26 25  1  0
 27 23  1  0
 28 29  1  0
 30 28  2  0
M  END
$$$$
