KHH.pdb
     RDKit          3D

 30 31  0  0  1  0  0  0  0  0999 V2000
    5.9528  -20.0272   20.8024 N   0  0  0  0  0  0  0  0  0  0  0  0
    6.2615  -18.6093   20.9520 C   0  0  1  0  0  0  0  0  0  0  0  0
    5.1007  -17.9773   21.6359 C   0  0  0  0  0  0  0  0  0  0  0  0
    3.8828  -17.8391   20.7829 C   0  0  0  0  0  0  0  0  0  0  0  0
    2.9888  -19.0506   20.9540 C   0  0  0  0  0  0  0  0  0  0  0  0
    1.6783  -18.8831   20.2158 C   0  0  0  0  0  0  0  0  0  0  0  0
    0.7760  -19.9661   20.4594 N   0  0  0  0  0  0  0  0  0  0  0  0
    7.5599  -18.4467   21.6000 C   0  0  0  0  0  0  0  0  0  0  0  0
    7.9120  -19.1640   22.5971 O   0  0  0  0  0  0  0  0  0  0  0  0
    8.4661  -17.4585   21.1085 N   0  0  0  0  0  0  0  0  0  0  0  0
    9.7203  -17.2189   21.7861 C   0  0  1  0  0  0  0  0  0  0  0  0
   10.6471  -16.3594   20.9362 C   0  0  0  0  0  0  0  0  0  0  0  0
   11.9949  -16.2492   21.4993 C   0  0  0  0  0  0  0  0  0  0  0  0
   12.4031  -16.7754   22.7046 C   0  0  0  0  0  0  0  0  0  0  0  0
   13.6923  -16.4585   22.8521 N   0  0  0  0  0  0  0  0  0  0  0  0
   14.0762  -15.7622   21.7826 C   0  0  0  0  0  0  0  0  0  0  0  0
   13.0487  -15.6317   20.9566 N   0  0  0  0  0  0  0  0  0  0  0  0
    9.4686  -16.4618   23.0350 C   0  0  0  0  0  0  0  0  0  0  0  0
    8.7977  -15.4013   22.9473 O   0  0  0  0  0  0  0  0  0  0  0  0
    9.9756  -16.9424   24.2456 N   0  0  0  0  0  0  0  0  0  0  0  0
    9.6693  -16.1995   25.4949 C   0  0  1  0  0  0  0  0  0  0  0  0
    8.1938  -16.2223   25.6042 C   0  0  0  0  0  0  0  0  0  0  0  0
    7.4890  -14.9319   25.5549 C   0  0  0  0  0  0  0  0  0  0  0  0
    7.9976  -13.6755   25.3921 C   0  0  0  0  0  0  0  0  0  0  0  0
    6.9818  -12.7521   25.3327 N   0  0  0  0  0  0  0  0  0  0  0  0
    5.8660  -13.4726   25.4602 C   0  0  0  0  0  0  0  0  0  0  0  0
    6.1241  -14.7659   25.5935 N   0  0  0  0  0  0  0  0  0  0  0  0
   10.3629  -16.9336   26.6002 C   0  0  0  0  0  0  0  0  0  0  0  0
   10.9902  -18.1762   26.3625 O   0  0  0  0  0  0  0  0  0  0  0  0
   10.4326  -16.5183   27.7573 O   0  0  0  0  0  0  0  0  0  0  0  0
  2  1  1  1
  2  3  1  0
  3  4  1  0
  4  5  1  0
  5  6  1  0
  7  6  1  0
  8  2  1  0
  8  9  2  0
 10  8  1  0
 11 10  1  0
 11 12  1  6
 13 12  1  0
 14 13  2  0
 15 16  1  0
 15 14  1  0
 16 17  2  0
 17 13  1  0
 18 11  1  0
 19 18  2  0
 20 18  1  0
 21 20  1  0
 21 28  1  0
 21 22  1  1
 23 24  2  0
 23 22  1  0
 25 24  1  0
 26 27  2  0
 26 25  1  0
 27 23  1  0
 28 29  1  0
 30 28  2  0
M  END
$$$$
