KHH.pdb
     RDKit          3D

 30 31  0  0  1  0  0  0  0  0999 V2000
    6.9976  -20.1835   14.1224 N   0  0  0  0  0  0  0  0  0  0  0  0
    7.6859  -21.4670   14.2051 C   0  0  1  0  0  0  0  0  0  0  0  0
    8.8882  -21.3771   13.3328 C   0  0  0  0  0  0  0  0  0  0  0  0
    8.6551  -20.6842   12.0307 C   0  0  0  0  0  0  0  0  0  0  0  0
    9.9318  -20.6691   11.2147 C   0  0  0  0  0  0  0  0  0  0  0  0
    9.7538  -19.9093    9.9180 C   0  0  0  0  0  0  0  0  0  0  0  0
   10.9560  -19.8682    9.1438 N   0  0  0  0  0  0  0  0  0  0  0  0
    7.9263  -21.8154   15.6027 C   0  0  0  0  0  0  0  0  0  0  0  0
    8.0915  -20.9234   16.5025 O   0  0  0  0  0  0  0  0  0  0  0  0
    7.9791  -23.1917   15.9795 N   0  0  0  0  0  0  0  0  0  0  0  0
    8.1716  -23.5612   17.3637 C   0  0  1  0  0  0  0  0  0  0  0  0
    7.6809  -24.9791   17.6260 C   0  0  0  0  0  0  0  0  0  0  0  0
    7.7968  -25.3692   19.0332 C   0  0  0  0  0  0  0  0  0  0  0  0
    7.0693  -24.8350   20.0732 C   0  0  0  0  0  0  0  0  0  0  0  0
    7.4683  -25.4546   21.1873 N   0  0  0  0  0  0  0  0  0  0  0  0
    8.4076  -26.3411   20.8584 C   0  0  0  0  0  0  0  0  0  0  0  0
    8.6116  -26.2938   19.5503 N   0  0  0  0  0  0  0  0  0  0  0  0
    9.6193  -23.5495   17.6800 C   0  0  0  0  0  0  0  0  0  0  0  0
   10.4258  -23.5581   16.7146 O   0  0  0  0  0  0  0  0  0  0  0  0
   10.0324  -23.5298   19.0152 N   0  0  0  0  0  0  0  0  0  0  0  0
   11.4729  -23.3272   19.3156 C   0  0  1  0  0  0  0  0  0  0  0  0
   11.7920  -21.9844   18.7822 C   0  0  0  0  0  0  0  0  0  0  0  0
   13.1441  -21.4595   19.0281 C   0  0  0  0  0  0  0  0  0  0  0  0
   14.2488  -22.1062   19.5027 C   0  0  0  0  0  0  0  0  0  0  0  0
   15.3312  -21.2599   19.5133 N   0  0  0  0  0  0  0  0  0  0  0  0
   14.8587  -20.1056   19.0392 C   0  0  0  0  0  0  0  0  0  0  0  0
   13.5695  -20.1834   18.7406 N   0  0  0  0  0  0  0  0  0  0  0  0
   11.6094  -23.4285   20.8031 C   0  0  0  0  0  0  0  0  0  0  0  0
   12.7709  -23.9783   21.3882 O   0  0  0  0  0  0  0  0  0  0  0  0
   10.7454  -23.0514   21.5954 O   0  0  0  0  0  0  0  0  0  0  0  0
  2  1  1  1
  2  3  1  0
  3  4  1  0
  4  5  1  0
  5  6  1  0
  7  6  1  0
  8  2  1  0
  8  9  2  0
 10  8  1  0
 11 10  1  0
 11 12  1  6
 13 12  1  0
 14 13  2  0
 15 16  1  0
 15 14  1  0
 16 17  2  0
 17 13  1  0
 18 11  1  0
 19 18  2  0
 20 18  1  0
 21 20  1  0
 21 28  1  0
 21 22  1  1
 23 24  2  0
 23 22  1  0
 25 24  1  0
 26 27  2  0
 26 25  1  0
 27 23  1  0
 28 29  1  0
 30 28  2  0
M  END
$$$$
