KHH.pdb
     RDKit          3D

 30 31  0  0  1  0  0  0  0  0999 V2000
    7.5205  -16.0976   19.4308 N   0  0  0  0  0  0  0  0  0  0  0  0
    7.6008  -15.0689   20.4621 C   0  0  1  0  0  0  0  0  0  0  0  0
    6.8215  -13.8982   19.9758 C   0  0  0  0  0  0  0  0  0  0  0  0
    7.0051  -13.5947   18.5252 C   0  0  0  0  0  0  0  0  0  0  0  0
    8.4789  -13.4362   18.2105 C   0  0  0  0  0  0  0  0  0  0  0  0
    8.7039  -13.1185   16.7480 C   0  0  0  0  0  0  0  0  0  0  0  0
   10.0746  -12.8264   16.4609 N   0  0  0  0  0  0  0  0  0  0  0  0
    7.1978  -15.6226   21.7519 C   0  0  0  0  0  0  0  0  0  0  0  0
    6.9151  -14.8756   22.7492 O   0  0  0  0  0  0  0  0  0  0  0  0
    7.1157  -17.0397   21.9078 N   0  0  0  0  0  0  0  0  0  0  0  0
    6.7707  -17.6128   23.1893 C   0  0  1  0  0  0  0  0  0  0  0  0
    6.2925  -19.0508   23.0358 C   0  0  0  0  0  0  0  0  0  0  0  0
    4.9983  -19.1497   22.3567 C   0  0  0  0  0  0  0  0  0  0  0  0
    4.2090  -18.0854   21.9819 C   0  0  0  0  0  0  0  0  0  0  0  0
    3.1212  -18.5936   21.3963 N   0  0  0  0  0  0  0  0  0  0  0  0
    3.2251  -19.9222   21.4040 C   0  0  0  0  0  0  0  0  0  0  0  0
    4.3640  -20.2663   21.9866 N   0  0  0  0  0  0  0  0  0  0  0  0
    7.9765  -17.6577   24.0495 C   0  0  0  0  0  0  0  0  0  0  0  0
    9.0947  -17.5112   23.4921 O   0  0  0  0  0  0  0  0  0  0  0  0
    7.8337  -17.8578   25.4255 N   0  0  0  0  0  0  0  0  0  0  0  0
    8.8666  -17.3067   26.3397 C   0  0  1  0  0  0  0  0  0  0  0  0
    8.3609  -15.9725   26.7319 C   0  0  0  0  0  0  0  0  0  0  0  0
    9.0926  -15.2513   27.7848 C   0  0  0  0  0  0  0  0  0  0  0  0
   10.2058  -15.6307   28.4780 C   0  0  0  0  0  0  0  0  0  0  0  0
   10.6073  -14.6264   29.3255 N   0  0  0  0  0  0  0  0  0  0  0  0
    9.7228  -13.6472   29.1275 C   0  0  0  0  0  0  0  0  0  0  0  0
    8.8115  -13.9783   28.2235 N   0  0  0  0  0  0  0  0  0  0  0  0
    8.9703  -18.2675   27.4832 C   0  0  0  0  0  0  0  0  0  0  0  0
    7.9130  -19.1543   27.7825 O   0  0  0  0  0  0  0  0  0  0  0  0
    9.9540  -18.3491   28.2194 O   0  0  0  0  0  0  0  0  0  0  0  0
  2  1  1  6
  2  3  1  0
  3  4  1  0
  4  5  1  0
  5  6  1  0
  7  6  1  0
  8  2  1  0
  8  9  2  0
 10  8  1  0
 11 10  1  0
 11 12  1  6
 13 12  1  0
 14 13  2  0
 15 16  1  0
 15 14  1  0
 16 17  2  0
 17 13  1  0
 18 11  1  0
 19 18  2  0
 20 18  1  0
 21 20  1  0
 21 28  1  0
 21 22  1  1
 23 24  2  0
 23 22  1  0
 25 24  1  0
 26 27  2  0
 26 25  1  0
 27 23  1  0
 28 29  1  0
 30 28  2  0
M  END
$$$$
