KHH.pdb
     RDKit          3D

 30 31  0  0  1  0  0  0  0  0999 V2000
   10.7090  -18.7033   19.1882 N   0  0  0  0  0  0  0  0  0  0  0  0
   11.7605  -17.6996   19.3111 C   0  0  1  0  0  0  0  0  0  0  0  0
   12.0683  -17.2162   17.9377 C   0  0  0  0  0  0  0  0  0  0  0  0
   11.7774  -18.2043   16.8565 C   0  0  0  0  0  0  0  0  0  0  0  0
   12.3291  -17.7063   15.5360 C   0  0  0  0  0  0  0  0  0  0  0  0
   12.0569  -18.6860   14.4150 C   0  0  0  0  0  0  0  0  0  0  0  0
   12.5481  -18.2191   13.1551 N   0  0  0  0  0  0  0  0  0  0  0  0
   11.3677  -16.6815   20.2814 C   0  0  0  0  0  0  0  0  0  0  0  0
   12.1518  -15.7302   20.6175 O   0  0  0  0  0  0  0  0  0  0  0  0
   10.0704  -16.7467   20.8747 N   0  0  0  0  0  0  0  0  0  0  0  0
    9.6305  -15.7094   21.7803 C   0  0  1  0  0  0  0  0  0  0  0  0
    8.1397  -15.4398   21.6224 C   0  0  0  0  0  0  0  0  0  0  0  0
    7.8063  -14.8297   20.3330 C   0  0  0  0  0  0  0  0  0  0  0  0
    7.8986  -13.4883   20.0357 C   0  0  0  0  0  0  0  0  0  0  0  0
    7.5065  -13.3419   18.7672 N   0  0  0  0  0  0  0  0  0  0  0  0
    7.1818  -14.5429   18.2893 C   0  0  0  0  0  0  0  0  0  0  0  0
    7.3619  -15.4513   19.2365 N   0  0  0  0  0  0  0  0  0  0  0  0
    9.8334  -16.1574   23.1783 C   0  0  0  0  0  0  0  0  0  0  0  0
   10.0415  -17.3828   23.3721 O   0  0  0  0  0  0  0  0  0  0  0  0
    9.7875  -15.2211   24.2150 N   0  0  0  0  0  0  0  0  0  0  0  0
   10.1083  -15.6656   25.5955 C   0  0  1  0  0  0  0  0  0  0  0  0
   10.1277  -14.4265   26.4040 C   0  0  0  0  0  0  0  0  0  0  0  0
   10.3292  -14.5650   27.8547 C   0  0  0  0  0  0  0  0  0  0  0  0
   10.6418  -15.6778   28.5810 C   0  0  0  0  0  0  0  0  0  0  0  0
   10.8090  -15.3533   29.9057 N   0  0  0  0  0  0  0  0  0  0  0  0
   10.5941  -14.0374   29.9581 C   0  0  0  0  0  0  0  0  0  0  0  0
   10.3079  -13.5345   28.7655 N   0  0  0  0  0  0  0  0  0  0  0  0
    9.0258  -16.6214   25.9906 C   0  0  0  0  0  0  0  0  0  0  0  0
    7.7731  -16.6066   25.3391 O   0  0  0  0  0  0  0  0  0  0  0  0
    9.1483  -17.4608   26.8832 O   0  0  0  0  0  0  0  0  0  0  0  0
  2  1  1  6
  2  3  1  0
  3  4  1  0
  4  5  1  0
  5  6  1  0
  7  6  1  0
  8  2  1  0
  8  9  2  0
 10  8  1  0
 11 10  1  0
 11 12  1  1
 13 12  1  0
 14 13  2  0
 15 16  1  0
 15 14  1  0
 16 17  2  0
 17 13  1  0
 18 11  1  0
 19 18  2  0
 20 18  1  0
 21 20  1  0
 21 28  1  0
 21 22  1  1
 23 24  2  0
 23 22  1  0
 25 24  1  0
 26 27  2  0
 26 25  1  0
 27 23  1  0
 28 29  1  0
 30 28  2  0
M  END
$$$$
