KHH.pdb
     RDKit          3D

 30 31  0  0  1  0  0  0  0  0999 V2000
    9.5411  -14.5960   18.2409 N   0  0  0  0  0  0  0  0  0  0  0  0
    8.6809  -14.0659   19.2931 C   0  0  1  0  0  0  0  0  0  0  0  0
    7.4054  -13.6501   18.6492 C   0  0  0  0  0  0  0  0  0  0  0  0
    7.1569  -14.2720   17.3146 C   0  0  0  0  0  0  0  0  0  0  0  0
    7.9280  -13.5277   16.2433 C   0  0  0  0  0  0  0  0  0  0  0  0
    7.5921  -14.0401   14.8594 C   0  0  0  0  0  0  0  0  0  0  0  0
    8.3381  -13.3721   13.8377 N   0  0  0  0  0  0  0  0  0  0  0  0
    8.5699  -15.0329   20.3817 C   0  0  0  0  0  0  0  0  0  0  0  0
    7.7768  -14.8528   21.3672 O   0  0  0  0  0  0  0  0  0  0  0  0
    9.3690  -16.2159   20.3481 N   0  0  0  0  0  0  0  0  0  0  0  0
    9.2811  -17.1849   21.4172 C   0  0  1  0  0  0  0  0  0  0  0  0
   10.2655  -18.3275   21.2036 C   0  0  0  0  0  0  0  0  0  0  0  0
   10.0395  -19.4503   22.1170 C   0  0  0  0  0  0  0  0  0  0  0  0
    9.0015  -19.5527   23.0161 C   0  0  0  0  0  0  0  0  0  0  0  0
    9.1517  -20.7164   23.6545 N   0  0  0  0  0  0  0  0  0  0  0  0
   10.2396  -21.3185   23.1747 C   0  0  0  0  0  0  0  0  0  0  0  0
   10.7836  -20.5536   22.2398 N   0  0  0  0  0  0  0  0  0  0  0  0
    9.6534  -16.5401   22.6984 C   0  0  0  0  0  0  0  0  0  0  0  0
   10.4650  -15.5801   22.6524 O   0  0  0  0  0  0  0  0  0  0  0  0
    9.1006  -17.0112   23.8926 N   0  0  0  0  0  0  0  0  0  0  0  0
    9.4691  -16.3402   25.1655 C   0  0  1  0  0  0  0  0  0  0  0  0
    8.1807  -15.9791   25.7972 C   0  0  0  0  0  0  0  0  0  0  0  0
    7.6060  -14.6661   25.4657 C   0  0  0  0  0  0  0  0  0  0  0  0
    8.1258  -13.6648   24.6969 C   0  0  0  0  0  0  0  0  0  0  0  0
    7.2275  -12.6310   24.5860 N   0  0  0  0  0  0  0  0  0  0  0  0
    6.1695  -13.0290   25.2950 C   0  0  0  0  0  0  0  0  0  0  0  0
    6.3545  -14.2274   25.8306 N   0  0  0  0  0  0  0  0  0  0  0  0
   10.2623  -17.3378   25.9512 C   0  0  0  0  0  0  0  0  0  0  0  0
   10.4846  -18.6403   25.4533 O   0  0  0  0  0  0  0  0  0  0  0  0
   10.7605  -17.0997   27.0518 O   0  0  0  0  0  0  0  0  0  0  0  0
  2  1  1  6
  2  3  1  0
  3  4  1  0
  4  5  1  0
  5  6  1  0
  7  6  1  0
  8  2  1  0
  8  9  2  0
 10  8  1  0
 11 10  1  0
 11 12  1  6
 13 12  1  0
 14 13  2  0
 15 16  1  0
 15 14  1  0
 16 17  2  0
 17 13  1  0
 18 11  1  0
 19 18  2  0
 20 18  1  0
 21 20  1  0
 21 28  1  0
 21 22  1  1
 23 24  2  0
 23 22  1  0
 25 24  1  0
 26 27  2  0
 26 25  1  0
 27 23  1  0
 28 29  1  0
 30 28  2  0
M  END
$$$$
