NYP.pdb
     RDKit          3D

 28 29  0  0  1  0  0  0  0  0999 V2000
   18.7965  -18.1080  -15.5589 N   0  0  0  0  0  0  0  0  0  0  0  0
   18.7637  -18.8531  -14.3465 C   0  0  0  0  0  0  0  0  0  0  0  0
   17.6731  -18.9198  -13.7237 O   0  0  0  0  0  0  0  0  0  0  0  0
   20.0150  -19.4993  -13.9002 C   0  0  0  0  0  0  0  0  0  0  0  0
   21.0793  -19.2352  -14.9459 C   0  0  2  0  0  0  0  0  0  0  0  0
   20.9473  -20.2633  -15.9758 N   0  0  0  0  0  0  0  0  0  0  0  0
   22.4457  -19.2482  -14.3638 C   0  0  0  0  0  0  0  0  0  0  0  0
   22.8078  -18.5234  -13.4270 O   0  0  0  0  0  0  0  0  0  0  0  0
   24.1056  -20.2292   -7.9459 O   0  0  0  0  0  0  0  0  0  0  0  0
   24.2701  -20.5731   -9.2904 C   0  0  0  0  0  0  0  0  0  0  0  0
   25.5087  -20.6025   -9.8903 C   0  0  0  0  0  0  0  0  0  0  0  0
   25.6180  -20.9481  -11.2201 C   0  0  0  0  0  0  0  0  0  0  0  0
   24.5199  -21.2764  -12.0074 C   0  0  0  0  0  0  0  0  0  0  0  0
   24.6927  -21.6658  -13.4576 C   0  0  0  0  0  0  0  0  0  0  0  0
   24.6822  -20.4421  -14.3098 C   0  0  2  0  0  0  0  0  0  0  0  0
   23.4040  -20.1359  -14.8995 N   0  0  0  0  0  0  0  0  0  0  0  0
   25.6516  -20.5085  -15.4023 C   0  0  0  0  0  0  0  0  0  0  0  0
   25.3760  -21.3204  -16.3853 O   0  0  0  0  0  0  0  0  0  0  0  0
   23.2942  -21.2419  -11.3917 C   0  0  0  0  0  0  0  0  0  0  0  0
   23.1674  -20.8949  -10.0506 C   0  0  0  0  0  0  0  0  0  0  0  0
   26.8687  -19.8163  -15.5656 N   0  0  0  0  0  0  0  0  0  0  0  0
   27.3536  -18.8525  -14.5655 C   0  0  0  0  0  0  0  0  0  0  0  0
   28.8493  -18.9918  -14.6598 C   0  0  0  0  0  0  0  0  0  0  0  0
   28.9922  -18.9388  -16.1896 C   0  0  0  0  0  0  0  0  0  0  0  0
   27.8171  -19.8659  -16.6257 C   0  0  1  0  0  0  0  0  0  0  0  0
   28.4033  -21.2153  -16.8714 C   0  0  0  0  0  0  0  0  0  0  0  0
   28.2941  -22.0735  -15.9611 O   0  0  0  0  0  0  0  0  0  0  0  0
   29.0508  -21.5756  -18.0324 O   0  0  0  0  0  0  0  0  0  0  0  0
  1  2  1  0
  2  3  2  0
  4  5  1  0
  4  2  1  0
  5  6  1  6
  7  5  1  0
  7  8  2  0
  9 10  1  0
 10 11  2  0
 11 12  1  0
 13 12  2  0
 13 14  1  0
 15 14  1  6
 15 16  1  0
 16  7  1  0
 17 15  1  0
 18 17  2  0
 19 13  1  0
 20 10  1  0
 20 19  2  0
 21 22  1  0
 21 17  1  0
 23 22  1  0
 24 23  1  0
 24 25  1  0
 25 21  1  0
 25 26  1  1
 27 26  2  0
 28 26  1  0
M  END
$$$$
