NYP.pdb
     RDKit          3D

 28 29  0  0  1  0  0  0  0  0999 V2000
   19.0593  -19.1906  -15.9644 N   0  0  0  0  0  0  0  0  0  0  0  0
   19.1641  -18.8350  -14.5900 C   0  0  0  0  0  0  0  0  0  0  0  0
   18.1203  -18.4636  -13.9949 O   0  0  0  0  0  0  0  0  0  0  0  0
   20.4942  -18.9264  -13.9536 C   0  0  0  0  0  0  0  0  0  0  0  0
   21.4929  -19.3516  -15.0108 C   0  0  2  0  0  0  0  0  0  0  0  0
   21.1671  -20.7229  -15.3961 N   0  0  0  0  0  0  0  0  0  0  0  0
   22.8923  -19.2627  -14.5210 C   0  0  0  0  0  0  0  0  0  0  0  0
   23.3617  -18.2766  -13.9368 O   0  0  0  0  0  0  0  0  0  0  0  0
   23.1143  -20.5968   -8.2173 O   0  0  0  0  0  0  0  0  0  0  0  0
   23.6936  -20.8257   -9.4684 C   0  0  0  0  0  0  0  0  0  0  0  0
   25.0164  -20.5429   -9.7233 C   0  0  0  0  0  0  0  0  0  0  0  0
   25.5405  -20.7867  -10.9746 C   0  0  0  0  0  0  0  0  0  0  0  0
   24.7886  -21.3153  -12.0180 C   0  0  0  0  0  0  0  0  0  0  0  0
   25.4134  -21.5812  -13.3684 C   0  0  0  0  0  0  0  0  0  0  0  0
   25.1247  -20.4426  -14.2872 C   0  0  2  0  0  0  0  0  0  0  0  0
   23.7549  -20.3615  -14.7257 N   0  0  0  0  0  0  0  0  0  0  0  0
   25.9573  -20.4638  -15.4888 C   0  0  0  0  0  0  0  0  0  0  0  0
   25.6142  -21.3015  -16.4280 O   0  0  0  0  0  0  0  0  0  0  0  0
   23.4727  -21.5910  -11.7446 C   0  0  0  0  0  0  0  0  0  0  0  0
   22.9289  -21.3503  -10.4870 C   0  0  0  0  0  0  0  0  0  0  0  0
   27.1020  -19.7028  -15.8012 N   0  0  0  0  0  0  0  0  0  0  0  0
   27.6334  -18.6864  -14.8799 C   0  0  0  0  0  0  0  0  0  0  0  0
   29.1151  -18.7364  -15.1401 C   0  0  0  0  0  0  0  0  0  0  0  0
   29.0825  -18.7131  -16.6770 C   0  0  0  0  0  0  0  0  0  0  0  0
   27.9273  -19.7209  -16.9607 C   0  0  1  0  0  0  0  0  0  0  0  0
   28.5670  -21.0377  -17.2467 C   0  0  0  0  0  0  0  0  0  0  0  0
   28.9393  -21.2619  -18.4248 O   0  0  0  0  0  0  0  0  0  0  0  0
   28.7758  -22.0159  -16.2999 O   0  0  0  0  0  0  0  0  0  0  0  0
  1  2  1  0
  2  3  2  0
  4  5  1  0
  4  2  1  0
  5  6  1  1
  7  5  1  0
  7  8  2  0
  9 10  1  0
 10 11  2  0
 11 12  1  0
 13 12  2  0
 13 14  1  0
 15 14  1  6
 15 16  1  0
 16  7  1  0
 17 15  1  0
 18 17  2  0
 19 13  1  0
 20 10  1  0
 20 19  2  0
 21 22  1  0
 21 17  1  0
 23 22  1  0
 24 23  1  0
 24 25  1  0
 25 21  1  0
 25 26  1  1
 27 26  2  0
 28 26  1  0
M  END
$$$$
