NYP.pdb
     RDKit          3D

 28 29  0  0  1  0  0  0  0  0999 V2000
   18.9158  -19.7559  -15.4133 N   0  0  0  0  0  0  0  0  0  0  0  0
   18.6667  -19.7994  -14.0125 C   0  0  0  0  0  0  0  0  0  0  0  0
   17.4703  -19.8324  -13.6262 O   0  0  0  0  0  0  0  0  0  0  0  0
   19.8321  -19.8028  -13.1046 C   0  0  0  0  0  0  0  0  0  0  0  0
   21.0415  -20.2617  -13.8939 C   0  0  2  0  0  0  0  0  0  0  0  0
   20.8944  -21.6966  -14.1275 N   0  0  0  0  0  0  0  0  0  0  0  0
   22.3122  -19.9737  -13.1810 C   0  0  0  0  0  0  0  0  0  0  0  0
   22.6146  -18.8636  -12.7225 O   0  0  0  0  0  0  0  0  0  0  0  0
   28.5098  -19.5162   -7.5639 O   0  0  0  0  0  0  0  0  0  0  0  0
   27.6124  -20.0835   -8.4726 C   0  0  0  0  0  0  0  0  0  0  0  0
   28.0322  -20.8876   -9.5081 C   0  0  0  0  0  0  0  0  0  0  0  0
   27.1071  -21.4233  -10.3781 C   0  0  0  0  0  0  0  0  0  0  0  0
   25.7409  -21.1906  -10.2646 C   0  0  0  0  0  0  0  0  0  0  0  0
   24.7637  -21.8151  -11.2340 C   0  0  0  0  0  0  0  0  0  0  0  0
   24.5373  -20.8912  -12.3825 C   0  0  2  0  0  0  0  0  0  0  0  0
   23.2451  -21.0190  -13.0062 N   0  0  0  0  0  0  0  0  0  0  0  0
   25.5379  -21.0482  -13.4369 C   0  0  0  0  0  0  0  0  0  0  0  0
   25.6004  -22.2132  -14.0203 O   0  0  0  0  0  0  0  0  0  0  0  0
   25.3419  -20.3874   -9.2264 C   0  0  0  0  0  0  0  0  0  0  0  0
   26.2633  -19.8391   -8.3401 C   0  0  0  0  0  0  0  0  0  0  0  0
   26.4702  -20.1159  -13.9356 N   0  0  0  0  0  0  0  0  0  0  0  0
   26.7096  -18.8259  -13.2701 C   0  0  0  0  0  0  0  0  0  0  0  0
   28.1653  -18.5661  -13.5509 C   0  0  0  0  0  0  0  0  0  0  0  0
   28.1727  -18.8842  -15.0551 C   0  0  0  0  0  0  0  0  0  0  0  0
   27.3081  -20.1812  -15.0843 C   0  0  1  0  0  0  0  0  0  0  0  0
   28.2587  -21.3307  -15.0944 C   0  0  0  0  0  0  0  0  0  0  0  0
   28.4874  -21.9083  -14.0031 O   0  0  0  0  0  0  0  0  0  0  0  0
   28.8945  -21.7962  -16.2241 O   0  0  0  0  0  0  0  0  0  0  0  0
  1  2  1  0
  2  3  2  0
  4  5  1  0
  4  2  1  0
  5  6  1  1
  7  5  1  0
  7  8  2  0
  9 10  1  0
 10 11  2  0
 11 12  1  0
 13 12  2  0
 13 14  1  0
 15 14  1  1
 15 16  1  0
 16  7  1  0
 17 15  1  0
 18 17  2  0
 19 13  1  0
 20 10  1  0
 20 19  2  0
 21 22  1  0
 21 17  1  0
 23 22  1  0
 24 23  1  0
 24 25  1  0
 25 21  1  0
 25 26  1  1
 27 26  2  0
 28 26  1  0
M  END
$$$$
