NYP.pdb
     RDKit          3D

 28 29  0  0  1  0  0  0  0  0999 V2000
   16.3345  -31.8841   -9.8414 N   0  0  0  0  0  0  0  0  0  0  0  0
   16.8150  -30.6150  -10.2712 C   0  0  0  0  0  0  0  0  0  0  0  0
   17.0563  -30.4587  -11.4956 O   0  0  0  0  0  0  0  0  0  0  0  0
   16.9984  -29.5647   -9.2486 C   0  0  0  0  0  0  0  0  0  0  0  0
   16.5215  -30.1143   -7.9195 C   0  0  2  0  0  0  0  0  0  0  0  0
   15.0867  -29.8542   -7.8265 N   0  0  0  0  0  0  0  0  0  0  0  0
   17.2412  -29.5009   -6.7742 C   0  0  0  0  0  0  0  0  0  0  0  0
   18.4728  -29.5081   -6.6443 O   0  0  0  0  0  0  0  0  0  0  0  0
   18.6897  -23.8553   -8.9844 O   0  0  0  0  0  0  0  0  0  0  0  0
   18.1704  -24.5601   -7.8950 C   0  0  0  0  0  0  0  0  0  0  0  0
   16.8429  -24.9165   -7.8217 C   0  0  0  0  0  0  0  0  0  0  0  0
   16.3794  -25.6114   -6.7254 C   0  0  0  0  0  0  0  0  0  0  0  0
   17.1987  -25.9809   -5.6643 C   0  0  0  0  0  0  0  0  0  0  0  0
   16.6469  -26.7580   -4.4912 C   0  0  0  0  0  0  0  0  0  0  0  0
   17.0376  -28.1922   -4.6117 C   0  0  2  0  0  0  0  0  0  0  0  0
   16.4901  -28.8658   -5.7613 N   0  0  0  0  0  0  0  0  0  0  0  0
   16.6629  -28.9783   -3.4374 C   0  0  0  0  0  0  0  0  0  0  0  0
   15.3889  -29.0721   -3.1738 O   0  0  0  0  0  0  0  0  0  0  0  0
   18.5184  -25.6171   -5.7557 C   0  0  0  0  0  0  0  0  0  0  0  0
   19.0013  -24.9155   -6.8555 C   0  0  0  0  0  0  0  0  0  0  0  0
   17.4817  -29.6687   -2.5208 N   0  0  0  0  0  0  0  0  0  0  0  0
   18.9371  -29.7745   -2.7071 C   0  0  0  0  0  0  0  0  0  0  0  0
   19.4572  -29.8025   -1.2949 C   0  0  0  0  0  0  0  0  0  0  0  0
   18.4879  -30.8428   -0.7103 C   0  0  0  0  0  0  0  0  0  0  0  0
   17.1385  -30.3653   -1.3280 C   0  0  1  0  0  0  0  0  0  0  0  0
   16.4647  -29.5289   -0.2929 C   0  0  0  0  0  0  0  0  0  0  0  0
   16.3984  -28.2913   -0.4952 O   0  0  0  0  0  0  0  0  0  0  0  0
   15.9105  -30.0307    0.8638 O   0  0  0  0  0  0  0  0  0  0  0  0
  1  2  1  0
  2  3  2  0
  4  5  1  0
  4  2  1  0
  5  6  1  1
  7  5  1  0
  7  8  2  0
  9 10  1  0
 10 11  2  0
 11 12  1  0
 13 12  2  0
 13 14  1  0
 15 14  1  1
 15 16  1  0
 16  7  1  0
 17 15  1  0
 18 17  2  0
 19 13  1  0
 20 10  1  0
 20 19  2  0
 21 22  1  0
 21 17  1  0
 23 22  1  0
 24 23  1  0
 24 25  1  0
 25 21  1  0
 25 26  1  1
 27 26  2  0
 28 26  1  0
M  END
$$$$
