NYP.pdb
     RDKit          3D

 28 29  0  0  1  0  0  0  0  0999 V2000
   30.3990  -20.3908  -19.5468 N   0  0  0  0  0  0  0  0  0  0  0  0
   29.1226  -20.8521  -19.9759 C   0  0  0  0  0  0  0  0  0  0  0  0
   28.7254  -20.5113  -21.1195 O   0  0  0  0  0  0  0  0  0  0  0  0
   28.3485  -21.7016  -19.0477 C   0  0  0  0  0  0  0  0  0  0  0  0
   29.1782  -21.9079  -17.7966 C   0  0  2  0  0  0  0  0  0  0  0  0
   30.0641  -23.0441  -18.0399 N   0  0  0  0  0  0  0  0  0  0  0  0
   28.3304  -22.1502  -16.6014 C   0  0  0  0  0  0  0  0  0  0  0  0
   27.8815  -23.2596  -16.2824 O   0  0  0  0  0  0  0  0  0  0  0  0
   23.8607  -20.8479   -9.1566 O   0  0  0  0  0  0  0  0  0  0  0  0
   24.7541  -20.6786  -10.2179 C   0  0  0  0  0  0  0  0  0  0  0  0
   26.0061  -21.2506  -10.2166 C   0  0  0  0  0  0  0  0  0  0  0  0
   26.8507  -21.0534  -11.2879 C   0  0  0  0  0  0  0  0  0  0  0  0
   26.4990  -20.2904  -12.3960 C   0  0  0  0  0  0  0  0  0  0  0  0
   27.4541  -20.1176  -13.5547 C   0  0  0  0  0  0  0  0  0  0  0  0
   27.1374  -21.1141  -14.6181 C   0  0  2  0  0  0  0  0  0  0  0  0
   28.0064  -21.0593  -15.7657 N   0  0  0  0  0  0  0  0  0  0  0  0
   25.7673  -20.9924  -15.1136 C   0  0  0  0  0  0  0  0  0  0  0  0
   25.4647  -19.8908  -15.7432 O   0  0  0  0  0  0  0  0  0  0  0  0
   25.2472  -19.7291  -12.3791 C   0  0  0  0  0  0  0  0  0  0  0  0
   24.3834  -19.9186  -11.3053 C   0  0  0  0  0  0  0  0  0  0  0  0
   24.6935  -21.9004  -15.0158 N   0  0  0  0  0  0  0  0  0  0  0  0
   24.8557  -23.2319  -14.4116 C   0  0  0  0  0  0  0  0  0  0  0  0
   23.5084  -23.4875  -13.7911 C   0  0  0  0  0  0  0  0  0  0  0  0
   22.6231  -23.0755  -14.9785 C   0  0  0  0  0  0  0  0  0  0  0  0
   23.3411  -21.7710  -15.4403 C   0  0  1  0  0  0  0  0  0  0  0  0
   22.6026  -20.6323  -14.8214 C   0  0  0  0  0  0  0  0  0  0  0  0
   21.8385  -19.9626  -15.5592 O   0  0  0  0  0  0  0  0  0  0  0  0
   22.7056  -20.2758  -13.4951 O   0  0  0  0  0  0  0  0  0  0  0  0
  1  2  1  0
  2  3  2  0
  4  5  1  0
  4  2  1  0
  5  6  1  6
  7  5  1  0
  7  8  2  0
  9 10  1  0
 10 11  2  0
 11 12  1  0
 13 12  2  0
 13 14  1  0
 15 14  1  1
 15 16  1  0
 16  7  1  0
 17 15  1  0
 18 17  2  0
 19 13  1  0
 20 10  1  0
 20 19  2  0
 21 22  1  0
 21 17  1  0
 23 22  1  0
 24 23  1  0
 24 25  1  0
 25 21  1  0
 25 26  1  1
 27 26  2  0
 28 26  1  0
M  END
$$$$
