NYP.pdb
     RDKit          3D

 28 29  0  0  1  0  0  0  0  0999 V2000
   19.1643   -9.3719  -15.4453 N   0  0  0  0  0  0  0  0  0  0  0  0
   19.0264   -9.0753  -14.0599 C   0  0  0  0  0  0  0  0  0  0  0  0
   19.9326   -9.4647  -13.2796 O   0  0  0  0  0  0  0  0  0  0  0  0
   17.8260   -8.3288  -13.6307 C   0  0  0  0  0  0  0  0  0  0  0  0
   17.3268   -8.9439  -12.3390 C   0  0  2  0  0  0  0  0  0  0  0  0
   16.7861  -10.2626  -12.6611 N   0  0  0  0  0  0  0  0  0  0  0  0
   16.2953   -8.0998  -11.6837 C   0  0  0  0  0  0  0  0  0  0  0  0
   15.1465   -7.9443  -12.1195 O   0  0  0  0  0  0  0  0  0  0  0  0
   10.2798   -8.9056   -7.2560 O   0  0  0  0  0  0  0  0  0  0  0  0
   11.5708   -8.4303   -7.5022 C   0  0  0  0  0  0  0  0  0  0  0  0
   11.9402   -7.1364   -7.2124 C   0  0  0  0  0  0  0  0  0  0  0  0
   13.2264   -6.7159   -7.4745 C   0  0  0  0  0  0  0  0  0  0  0  0
   14.1940   -7.5467   -8.0286 C   0  0  0  0  0  0  0  0  0  0  0  0
   15.5968   -7.0438   -8.2816 C   0  0  0  0  0  0  0  0  0  0  0  0
   15.7278   -6.6188   -9.7051 C   0  0  2  0  0  0  0  0  0  0  0  0
   16.6280   -7.4253  -10.4888 N   0  0  0  0  0  0  0  0  0  0  0  0
   16.1695   -5.2317   -9.8400 C   0  0  0  0  0  0  0  0  0  0  0  0
   17.3553   -4.9440   -9.3788 O   0  0  0  0  0  0  0  0  0  0  0  0
   13.8071   -8.8325   -8.3101 C   0  0  0  0  0  0  0  0  0  0  0  0
   12.5128   -9.2719   -8.0517 C   0  0  0  0  0  0  0  0  0  0  0  0
   15.4994   -4.1270  -10.4038 N   0  0  0  0  0  0  0  0  0  0  0  0
   14.2104   -4.2728  -11.0976 C   0  0  0  0  0  0  0  0  0  0  0  0
   13.5201   -2.9676  -10.8052 C   0  0  0  0  0  0  0  0  0  0  0  0
   14.6804   -2.0126  -11.1299 C   0  0  0  0  0  0  0  0  0  0  0  0
   15.8694   -2.7533  -10.4456 C   0  0  1  0  0  0  0  0  0  0  0  0
   16.0570   -2.1201   -9.1081 C   0  0  0  0  0  0  0  0  0  0  0  0
   15.7018   -2.7753   -8.0974 O   0  0  0  0  0  0  0  0  0  0  0  0
   16.5970   -0.8677   -8.9162 O   0  0  0  0  0  0  0  0  0  0  0  0
  1  2  1  0
  2  3  2  0
  4  5  1  0
  4  2  1  0
  5  6  1  6
  7  5  1  0
  7  8  2  0
  9 10  1  0
 10 11  2  0
 11 12  1  0
 13 12  2  0
 13 14  1  0
 15 14  1  1
 15 16  1  0
 16  7  1  0
 17 15  1  0
 18 17  2  0
 19 13  1  0
 20 10  1  0
 20 19  2  0
 21 22  1  0
 21 17  1  0
 23 22  1  0
 24 23  1  0
 24 25  1  0
 25 21  1  0
 25 26  1  1
 27 26  2  0
 28 26  1  0
M  END
$$$$
