NYP.pdb
     RDKit          3D

 28 29  0  0  1  0  0  0  0  0999 V2000
   24.2972  -15.1760  -21.9035 N   0  0  0  0  0  0  0  0  0  0  0  0
   23.8233  -15.2912  -20.5662 C   0  0  0  0  0  0  0  0  0  0  0  0
   22.6503  -14.9098  -20.3205 O   0  0  0  0  0  0  0  0  0  0  0  0
   24.7426  -15.8518  -19.5548 C   0  0  0  0  0  0  0  0  0  0  0  0
   24.2739  -15.3942  -18.1884 C   0  0  2  0  0  0  0  0  0  0  0  0
   24.5086  -13.9544  -18.1036 N   0  0  0  0  0  0  0  0  0  0  0  0
   24.9786  -16.1062  -17.0919 C   0  0  0  0  0  0  0  0  0  0  0  0
   26.1475  -15.8755  -16.7535 O   0  0  0  0  0  0  0  0  0  0  0  0
   26.3611  -21.6263  -10.3364 O   0  0  0  0  0  0  0  0  0  0  0  0
   25.7428  -20.8370  -11.3100 C   0  0  0  0  0  0  0  0  0  0  0  0
   25.0000  -21.3853  -12.3309 C   0  0  0  0  0  0  0  0  0  0  0  0
   24.4100  -20.5635  -13.2670 C   0  0  0  0  0  0  0  0  0  0  0  0
   24.5268  -19.1782  -13.2359 C   0  0  0  0  0  0  0  0  0  0  0  0
   23.8464  -18.3180  -14.2759 C   0  0  0  0  0  0  0  0  0  0  0  0
   24.8368  -17.9070  -15.3123 C   0  0  2  0  0  0  0  0  0  0  0  0
   24.2881  -17.1114  -16.3805 N   0  0  0  0  0  0  0  0  0  0  0  0
   25.5097  -19.0477  -15.9315 C   0  0  0  0  0  0  0  0  0  0  0  0
   24.7868  -19.8076  -16.7071 O   0  0  0  0  0  0  0  0  0  0  0  0
   25.2705  -18.6505  -12.2108 C   0  0  0  0  0  0  0  0  0  0  0  0
   25.8723  -19.4666  -11.2585 C   0  0  0  0  0  0  0  0  0  0  0  0
   26.8507  -19.4676  -15.8201 N   0  0  0  0  0  0  0  0  0  0  0  0
   27.8376  -18.7120  -15.0330 C   0  0  0  0  0  0  0  0  0  0  0  0
   28.7548  -19.7888  -14.5182 C   0  0  0  0  0  0  0  0  0  0  0  0
   28.9650  -20.5624  -15.8301 C   0  0  0  0  0  0  0  0  0  0  0  0
   27.5094  -20.5946  -16.3875 C   0  0  1  0  0  0  0  0  0  0  0  0
   26.9298  -21.9129  -15.9986 C   0  0  0  0  0  0  0  0  0  0  0  0
   27.4565  -22.9465  -16.4794 O   0  0  0  0  0  0  0  0  0  0  0  0
   25.8592  -22.0636  -15.1454 O   0  0  0  0  0  0  0  0  0  0  0  0
  1  2  1  0
  2  3  2  0
  4  5  1  0
  4  2  1  0
  5  6  1  1
  7  5  1  0
  7  8  2  0
  9 10  1  0
 10 11  2  0
 11 12  1  0
 13 12  2  0
 13 14  1  0
 15 14  1  1
 15 16  1  0
 16  7  1  0
 17 15  1  0
 18 17  2  0
 19 13  1  0
 20 10  1  0
 20 19  2  0
 21 22  1  0
 21 17  1  0
 23 22  1  0
 24 23  1  0
 24 25  1  0
 25 21  1  0
 25 26  1  1
 27 26  2  0
 28 26  1  0
M  END
$$$$
