NYP.pdb
     RDKit          3D

 28 29  0  0  1  0  0  0  0  0999 V2000
   31.2417  -21.7840  -20.1407 N   0  0  0  0  0  0  0  0  0  0  0  0
   30.1179  -22.5011  -19.6416 C   0  0  0  0  0  0  0  0  0  0  0  0
   29.3835  -23.0985  -20.4695 O   0  0  0  0  0  0  0  0  0  0  0  0
   29.8892  -22.4956  -18.1821 C   0  0  0  0  0  0  0  0  0  0  0  0
   28.6332  -21.6942  -17.9062 C   0  0  2  0  0  0  0  0  0  0  0  0
   28.9715  -20.2811  -18.0608 N   0  0  0  0  0  0  0  0  0  0  0  0
   28.0924  -21.9586  -16.5484 C   0  0  0  0  0  0  0  0  0  0  0  0
   28.0660  -23.0774  -16.0177 O   0  0  0  0  0  0  0  0  0  0  0  0
   24.2529  -20.6985   -8.7427 O   0  0  0  0  0  0  0  0  0  0  0  0
   25.0331  -20.5495   -9.8926 C   0  0  0  0  0  0  0  0  0  0  0  0
   26.1837  -21.2778  -10.0938 C   0  0  0  0  0  0  0  0  0  0  0  0
   26.9186  -21.0938  -11.2452 C   0  0  0  0  0  0  0  0  0  0  0  0
   26.5529  -20.1916  -12.2381 C   0  0  0  0  0  0  0  0  0  0  0  0
   27.3830  -20.0380  -13.4918 C   0  0  0  0  0  0  0  0  0  0  0  0
   26.8966  -20.9870  -14.5344 C   0  0  2  0  0  0  0  0  0  0  0  0
   27.5720  -20.8789  -15.8022 N   0  0  0  0  0  0  0  0  0  0  0  0
   25.4657  -20.8469  -14.7994 C   0  0  0  0  0  0  0  0  0  0  0  0
   25.0499  -19.6707  -15.1803 O   0  0  0  0  0  0  0  0  0  0  0  0
   25.4031  -19.4754  -12.0197 C   0  0  0  0  0  0  0  0  0  0  0  0
   24.6506  -19.6496  -10.8628 C   0  0  0  0  0  0  0  0  0  0  0  0
   24.4373  -21.8066  -14.7059 N   0  0  0  0  0  0  0  0  0  0  0  0
   24.7236  -23.2306  -14.4725 C   0  0  0  0  0  0  0  0  0  0  0  0
   23.5318  -23.6884  -13.6752 C   0  0  0  0  0  0  0  0  0  0  0  0
   22.4219  -23.0627  -14.5355 C   0  0  0  0  0  0  0  0  0  0  0  0
   23.0264  -21.6527  -14.8133 C   0  0  1  0  0  0  0  0  0  0  0  0
   22.4256  -20.7234  -13.8131 C   0  0  0  0  0  0  0  0  0  0  0  0
   23.1334  -20.3842  -12.8329 O   0  0  0  0  0  0  0  0  0  0  0  0
   21.1487  -20.2149  -13.9020 O   0  0  0  0  0  0  0  0  0  0  0  0
  1  2  1  0
  2  3  2  0
  4  5  1  0
  4  2  1  0
  5  6  1  1
  7  5  1  0
  7  8  2  0
  9 10  1  0
 10 11  2  0
 11 12  1  0
 13 12  2  0
 13 14  1  0
 15 14  1  1
 15 16  1  0
 16  7  1  0
 17 15  1  0
 18 17  2  0
 19 13  1  0
 20 10  1  0
 20 19  2  0
 21 22  1  0
 21 17  1  0
 23 22  1  0
 24 23  1  0
 24 25  1  0
 25 21  1  0
 25 26  1  1
 27 26  2  0
 28 26  1  0
M  END
$$$$
