QSY.pdb
     RDKit          3D

 28 28  0  0  1  0  0  0  0  0999 V2000
   34.2031  -36.8701   -6.4292 N   0  0  0  0  0  0  0  0  0  0  0  0
   34.9723  -36.3608   -7.4996 C   0  0  0  0  0  0  0  0  0  0  0  0
   35.4473  -37.0729   -8.4105 O   0  0  0  0  0  0  0  0  0  0  0  0
   35.2273  -34.8881   -7.5370 C   0  0  0  0  0  0  0  0  0  0  0  0
   34.6105  -34.2703   -6.3251 C   0  0  0  0  0  0  0  0  0  0  0  0
   33.1028  -34.1286   -6.5238 C   0  0  2  0  0  0  0  0  0  0  0  0
   32.9352  -32.6811   -6.8159 N   0  0  0  0  0  0  0  0  0  0  0  0
   32.3317  -34.4063   -5.3131 C   0  0  0  0  0  0  0  0  0  0  0  0
   32.4010  -33.6015   -4.3333 O   0  0  0  0  0  0  0  0  0  0  0  0
   30.2421  -37.9046   -4.6179 O   0  0  0  0  0  0  0  0  0  0  0  0
   29.6558  -36.7375   -4.1332 C   0  0  0  0  0  0  0  0  0  0  0  0
   30.7195  -35.6703   -3.8747 C   0  0  2  0  0  0  0  0  0  0  0  0
   31.4702  -35.5296   -5.1062 N   0  0  0  0  0  0  0  0  0  0  0  0
   31.5082  -35.9652   -2.6885 C   0  0  0  0  0  0  0  0  0  0  0  0
   32.5436  -36.6827   -2.8532 O   0  0  0  0  0  0  0  0  0  0  0  0
   37.7218  -37.0449   -3.1583 O   0  0  0  0  0  0  0  0  0  0  0  0
   36.6357  -36.5217   -2.4692 C   0  0  0  0  0  0  0  0  0  0  0  0
   35.7463  -35.6502   -3.0561 C   0  0  0  0  0  0  0  0  0  0  0  0
   34.6821  -35.1592   -2.3243 C   0  0  0  0  0  0  0  0  0  0  0  0
   34.4428  -35.4920   -1.0071 C   0  0  0  0  0  0  0  0  0  0  0  0
   33.3249  -34.9800   -0.1921 C   0  0  0  0  0  0  0  0  0  0  0  0
   32.1647  -35.9072   -0.2538 C   0  0  2  0  0  0  0  0  0  0  0  0
   31.2588  -35.5439   -1.3601 N   0  0  0  0  0  0  0  0  0  0  0  0
   31.3811  -35.8524    0.9867 C   0  0  0  0  0  0  0  0  0  0  0  0
   30.1416  -35.5531    0.9221 O   0  0  0  0  0  0  0  0  0  0  0  0
   35.3658  -36.3810   -0.4393 C   0  0  0  0  0  0  0  0  0  0  0  0
   36.4312  -36.8785   -1.1566 C   0  0  0  0  0  0  0  0  0  0  0  0
   31.8959  -36.1085    2.2429 O   0  0  0  0  0  0  0  0  0  0  0  0
  2  1  1  0
  3  2  2  0
  4  2  1  0
  5  6  1  0
  5  4  1  0
  6  8  1  0
  6  7  1  1
  8  9  2  0
 10 11  1  0
 12 11  1  6
 13 12  1  0
 13  8  1  0
 14 12  1  0
 14 15  2  0
 16 17  1  0
 17 27  2  0
 17 18  1  0
 18 19  2  0
 19 20  1  0
 20 21  1  0
 22 21  1  1
 22 23  1  0
 22 24  1  0
 23 14  1  0
 24 28  1  0
 25 24  2  0
 26 20  2  0
 27 26  1  0
M  END
$$$$
