QSY.pdb
     RDKit          3D

 28 28  0  0  1  0  0  0  0  0999 V2000
   18.2815  -11.6676  -20.7963 N   0  0  0  0  0  0  0  0  0  0  0  0
   18.1878  -13.0190  -20.3942 C   0  0  0  0  0  0  0  0  0  0  0  0
   18.2503  -13.9828  -21.1877 O   0  0  0  0  0  0  0  0  0  0  0  0
   18.0038  -13.3027  -18.9379 C   0  0  0  0  0  0  0  0  0  0  0  0
   17.9243  -12.0015  -18.2088 C   0  0  0  0  0  0  0  0  0  0  0  0
   18.8957  -12.0057  -17.0302 C   0  0  2  0  0  0  0  0  0  0  0  0
   18.3895  -13.1138  -16.1792 N   0  0  0  0  0  0  0  0  0  0  0  0
   18.8288  -10.7891  -16.2220 C   0  0  0  0  0  0  0  0  0  0  0  0
   17.6996  -10.2543  -15.9954 O   0  0  0  0  0  0  0  0  0  0  0  0
   22.1453   -8.6961  -14.6422 O   0  0  0  0  0  0  0  0  0  0  0  0
   20.9107   -8.6666  -13.9974 C   0  0  0  0  0  0  0  0  0  0  0  0
   19.7737   -8.8141  -15.0088 C   0  0  2  0  0  0  0  0  0  0  0  0
   19.9421  -10.1113  -15.6322 N   0  0  0  0  0  0  0  0  0  0  0  0
   19.7074   -7.6827  -15.9207 C   0  0  0  0  0  0  0  0  0  0  0  0
   19.2860   -6.5845  -15.4407 O   0  0  0  0  0  0  0  0  0  0  0  0
   21.9766   -2.2766  -13.6853 O   0  0  0  0  0  0  0  0  0  0  0  0
   21.7652   -3.0919  -14.7893 C   0  0  0  0  0  0  0  0  0  0  0  0
   20.6912   -2.9190  -15.6330 C   0  0  0  0  0  0  0  0  0  0  0  0
   20.5282   -3.7591  -16.7178 C   0  0  0  0  0  0  0  0  0  0  0  0
   21.3932   -4.7898  -17.0222 C   0  0  0  0  0  0  0  0  0  0  0  0
   21.2455   -5.7123  -18.1638 C   0  0  0  0  0  0  0  0  0  0  0  0
   19.9434   -6.4260  -18.0948 C   0  0  2  0  0  0  0  0  0  0  0  0
   20.0602   -7.6579  -17.2915 N   0  0  0  0  0  0  0  0  0  0  0  0
   19.4883   -6.8206  -19.4339 C   0  0  0  0  0  0  0  0  0  0  0  0
   19.2400   -8.0515  -19.6644 O   0  0  0  0  0  0  0  0  0  0  0  0
   22.4757   -4.9389  -16.1445 C   0  0  0  0  0  0  0  0  0  0  0  0
   22.6510   -4.1090  -15.0593 C   0  0  0  0  0  0  0  0  0  0  0  0
   19.3030   -5.9403  -20.4823 O   0  0  0  0  0  0  0  0  0  0  0  0
  2  1  1  0
  3  2  2  0
  4  2  1  0
  5  6  1  0
  5  4  1  0
  6  8  1  0
  6  7  1  1
  8  9  2  0
 10 11  1  0
 12 11  1  1
 13 12  1  0
 13  8  1  0
 14 12  1  0
 14 15  2  0
 16 17  1  0
 17 27  2  0
 17 18  1  0
 18 19  2  0
 19 20  1  0
 20 21  1  0
 22 21  1  6
 22 23  1  0
 22 24  1  0
 23 14  1  0
 24 28  1  0
 25 24  2  0
 26 20  2  0
 27 26  1  0
M  END
$$$$
