QSY.pdb
     RDKit          3D

 28 28  0  0  1  0  0  0  0  0999 V2000
   20.7152  -13.7668  -22.1766 N   0  0  0  0  0  0  0  0  0  0  0  0
   21.5357  -14.9135  -22.0832 C   0  0  0  0  0  0  0  0  0  0  0  0
   21.3210  -15.9710  -22.7141 O   0  0  0  0  0  0  0  0  0  0  0  0
   22.7236  -14.8499  -21.1777 C   0  0  0  0  0  0  0  0  0  0  0  0
   22.8360  -13.4602  -20.6418 C   0  0  0  0  0  0  0  0  0  0  0  0
   24.1073  -13.3265  -19.8058 C   0  0  2  0  0  0  0  0  0  0  0  0
   24.1905  -14.6349  -19.1061 N   0  0  0  0  0  0  0  0  0  0  0  0
   24.0121  -12.2995  -18.7696 C   0  0  0  0  0  0  0  0  0  0  0  0
   23.3286  -12.5316  -17.7249 O   0  0  0  0  0  0  0  0  0  0  0  0
   26.5500   -9.0533  -18.3001 O   0  0  0  0  0  0  0  0  0  0  0  0
   25.8539   -9.6631  -17.2588 C   0  0  0  0  0  0  0  0  0  0  0  0
   24.4538  -10.0720  -17.7167 C   0  0  2  0  0  0  0  0  0  0  0  0
   24.6338  -11.0115  -18.8050 N   0  0  0  0  0  0  0  0  0  0  0  0
   23.6207   -8.9173  -18.0149 C   0  0  0  0  0  0  0  0  0  0  0  0
   23.7245   -8.4222  -19.1803 O   0  0  0  0  0  0  0  0  0  0  0  0
   19.7806   -9.8126  -22.8815 O   0  0  0  0  0  0  0  0  0  0  0  0
   19.9774   -9.2460  -21.6292 C   0  0  0  0  0  0  0  0  0  0  0  0
   20.2913  -10.0033  -20.5234 C   0  0  0  0  0  0  0  0  0  0  0  0
   20.4766   -9.3881  -19.3001 C   0  0  0  0  0  0  0  0  0  0  0  0
   20.3649   -8.0270  -19.1051 C   0  0  0  0  0  0  0  0  0  0  0  0
   20.5448   -7.3372  -17.8136 C   0  0  0  0  0  0  0  0  0  0  0  0
   21.9829   -7.0519  -17.5686 C   0  0  2  0  0  0  0  0  0  0  0  0
   22.6989   -8.2735  -17.1546 N   0  0  0  0  0  0  0  0  0  0  0  0
   22.1475   -6.0652  -16.4937 C   0  0  0  0  0  0  0  0  0  0  0  0
   22.7942   -6.3968  -15.4441 O   0  0  0  0  0  0  0  0  0  0  0  0
   20.0447   -7.2847  -20.2501 C   0  0  0  0  0  0  0  0  0  0  0  0
   19.8574   -7.8843  -21.4758 C   0  0  0  0  0  0  0  0  0  0  0  0
   21.6466   -4.7784  -16.5368 O   0  0  0  0  0  0  0  0  0  0  0  0
  2  1  1  0
  3  2  2  0
  4  2  1  0
  5  6  1  0
  5  4  1  0
  6  8  1  0
  6  7  1  1
  8  9  2  0
 10 11  1  0
 12 11  1  6
 13 12  1  0
 13  8  1  0
 14 12  1  0
 14 15  2  0
 16 17  1  0
 17 27  2  0
 17 18  1  0
 18 19  2  0
 19 20  1  0
 20 21  1  0
 22 21  1  1
 22 23  1  0
 22 24  1  0
 23 14  1  0
 24 28  1  0
 25 24  2  0
 26 20  2  0
 27 26  1  0
M  END
$$$$
