QSY.pdb
     RDKit          3D

 28 28  0  0  1  0  0  0  0  0999 V2000
   24.7264  -21.7690   -8.4130 N   0  0  0  0  0  0  0  0  0  0  0  0
   25.7936  -20.9212   -8.7863 C   0  0  0  0  0  0  0  0  0  0  0  0
   26.7668  -20.6666   -8.0444 O   0  0  0  0  0  0  0  0  0  0  0  0
   25.7481  -20.2989  -10.1448 C   0  0  0  0  0  0  0  0  0  0  0  0
   24.4190  -20.5972  -10.7576 C   0  0  0  0  0  0  0  0  0  0  0  0
   24.5926  -21.5527  -11.9365 C   0  0  2  0  0  0  0  0  0  0  0  0
   25.9937  -22.0245  -11.7854 N   0  0  0  0  0  0  0  0  0  0  0  0
   24.5095  -20.8880  -13.2361 C   0  0  0  0  0  0  0  0  0  0  0  0
   25.5757  -20.6586  -13.8866 O   0  0  0  0  0  0  0  0  0  0  0  0
   21.1351  -18.9444  -14.8952 O   0  0  0  0  0  0  0  0  0  0  0  0
   21.9169  -19.7730  -15.6971 C   0  0  0  0  0  0  0  0  0  0  0  0
   23.3555  -19.8164  -15.1817 C   0  0  2  0  0  0  0  0  0  0  0  0
   23.3087  -20.4543  -13.8815 N   0  0  0  0  0  0  0  0  0  0  0  0
   23.9847  -18.5052  -15.2159 C   0  0  0  0  0  0  0  0  0  0  0  0
   23.7668  -17.7397  -14.2257 O   0  0  0  0  0  0  0  0  0  0  0  0
   28.8241  -11.3279  -16.7924 O   0  0  0  0  0  0  0  0  0  0  0  0
   28.3244  -12.6041  -16.5693 C   0  0  0  0  0  0  0  0  0  0  0  0
   28.5192  -13.6338  -17.4619 C   0  0  0  0  0  0  0  0  0  0  0  0
   27.9998  -14.8851  -17.1905 C   0  0  0  0  0  0  0  0  0  0  0  0
   27.2779  -15.1820  -16.0531 C   0  0  0  0  0  0  0  0  0  0  0  0
   26.6996  -16.5014  -15.7354 C   0  0  0  0  0  0  0  0  0  0  0  0
   25.2861  -16.5762  -16.1890 C   0  0  2  0  0  0  0  0  0  0  0  0
   24.8194  -17.9751  -16.2291 N   0  0  0  0  0  0  0  0  0  0  0  0
   25.1389  -16.0290  -17.5436 C   0  0  0  0  0  0  0  0  0  0  0  0
   25.2455  -16.8161  -18.5431 O   0  0  0  0  0  0  0  0  0  0  0  0
   27.0975  -14.1127  -15.1650 C   0  0  0  0  0  0  0  0  0  0  0  0
   27.6096  -12.8603  -15.4223 C   0  0  0  0  0  0  0  0  0  0  0  0
   24.8858  -14.6995  -17.8213 O   0  0  0  0  0  0  0  0  0  0  0  0
  2  1  1  0
  3  2  2  0
  4  2  1  0
  5  6  1  0
  5  4  1  0
  6  8  1  0
  6  7  1  1
  8  9  2  0
 10 11  1  0
 12 11  1  1
 13 12  1  0
 13  8  1  0
 14 12  1  0
 14 15  2  0
 16 17  1  0
 17 27  2  0
 17 18  1  0
 18 19  2  0
 19 20  1  0
 20 21  1  0
 22 21  1  6
 22 23  1  0
 22 24  1  0
 23 14  1  0
 24 28  1  0
 25 24  2  0
 26 20  2  0
 27 26  1  0
M  END
$$$$
