QSY.pdb
     RDKit          3D

 28 28  0  0  1  0  0  0  0  0999 V2000
   23.0692  -18.3111  -15.3635 N   0  0  0  0  0  0  0  0  0  0  0  0
   23.3393  -18.2345  -16.7485 C   0  0  0  0  0  0  0  0  0  0  0  0
   22.9026  -17.3274  -17.4893 O   0  0  0  0  0  0  0  0  0  0  0  0
   24.1951  -19.3011  -17.3527 C   0  0  0  0  0  0  0  0  0  0  0  0
   24.6101  -20.2439  -16.2711 C   0  0  0  0  0  0  0  0  0  0  0  0
   26.0861  -20.0359  -15.9381 C   0  0  2  0  0  0  0  0  0  0  0  0
   26.7830  -20.6163  -17.1153 N   0  0  0  0  0  0  0  0  0  0  0  0
   26.5275  -20.7961  -14.7698 C   0  0  0  0  0  0  0  0  0  0  0  0
   26.2018  -22.0189  -14.6641 O   0  0  0  0  0  0  0  0  0  0  0  0
   29.4401  -19.6293  -12.2210 O   0  0  0  0  0  0  0  0  0  0  0  0
   29.0452  -20.9647  -12.1836 C   0  0  0  0  0  0  0  0  0  0  0  0
   27.5566  -21.0931  -12.5074 C   0  0  2  0  0  0  0  0  0  0  0  0
   27.3217  -20.2921  -13.6918 N   0  0  0  0  0  0  0  0  0  0  0  0
   26.7213  -20.7767  -11.3591 C   0  0  0  0  0  0  0  0  0  0  0  0
   26.1167  -19.6596  -11.3816 O   0  0  0  0  0  0  0  0  0  0  0  0
   29.1113  -19.8484   -3.8523 O   0  0  0  0  0  0  0  0  0  0  0  0
   28.4072  -19.7715   -5.0467 C   0  0  0  0  0  0  0  0  0  0  0  0
   28.5142  -18.6903   -5.8920 C   0  0  0  0  0  0  0  0  0  0  0  0
   27.7906  -18.6649   -7.0689 C   0  0  0  0  0  0  0  0  0  0  0  0
   26.9432  -19.6783   -7.4664 C   0  0  0  0  0  0  0  0  0  0  0  0
   26.1476  -19.6808   -8.7087 C   0  0  0  0  0  0  0  0  0  0  0  0
   25.7281  -21.0633   -9.0585 C   0  0  2  0  0  0  0  0  0  0  0  0
   26.4985  -21.5719  -10.2093 N   0  0  0  0  0  0  0  0  0  0  0  0
   24.3088  -21.1034   -9.4326 C   0  0  0  0  0  0  0  0  0  0  0  0
   23.4266  -20.8952   -8.5336 O   0  0  0  0  0  0  0  0  0  0  0  0
   26.8568  -20.7640   -6.5843 C   0  0  0  0  0  0  0  0  0  0  0  0
   27.5722  -20.8032   -5.4079 C   0  0  0  0  0  0  0  0  0  0  0  0
   23.8491  -21.3520  -10.7115 O   0  0  0  0  0  0  0  0  0  0  0  0
  2  1  1  0
  3  2  2  0
  4  2  1  0
  5  6  1  0
  5  4  1  0
  6  8  1  0
  6  7  1  6
  8  9  2  0
 10 11  1  0
 12 11  1  1
 13 12  1  0
 13  8  1  0
 14 12  1  0
 14 15  2  0
 16 17  1  0
 17 27  2  0
 17 18  1  0
 18 19  2  0
 19 20  1  0
 20 21  1  0
 22 21  1  6
 22 23  1  0
 22 24  1  0
 23 14  1  0
 24 28  1  0
 25 24  2  0
 26 20  2  0
 27 26  1  0
M  END
$$$$
