QSY.pdb
     RDKit          3D

 28 28  0  0  1  0  0  0  0  0999 V2000
   28.3887  -29.3443  -17.1373 N   0  0  0  0  0  0  0  0  0  0  0  0
   28.2832  -29.0864  -18.5226 C   0  0  0  0  0  0  0  0  0  0  0  0
   28.6329  -29.8986  -19.4061 O   0  0  0  0  0  0  0  0  0  0  0  0
   27.7214  -27.7673  -18.9462 C   0  0  0  0  0  0  0  0  0  0  0  0
   27.3602  -26.9919  -17.7218 C   0  0  0  0  0  0  0  0  0  0  0  0
   28.2235  -25.7353  -17.6285 C   0  0  2  0  0  0  0  0  0  0  0  0
   29.4840  -26.2359  -17.0212 N   0  0  0  0  0  0  0  0  0  0  0  0
   27.6844  -24.7306  -16.7133 C   0  0  0  0  0  0  0  0  0  0  0  0
   27.0512  -25.1074  -15.6791 O   0  0  0  0  0  0  0  0  0  0  0  0
   27.2816  -20.6953  -17.5347 O   0  0  0  0  0  0  0  0  0  0  0  0
   27.7102  -21.0077  -16.2465 C   0  0  0  0  0  0  0  0  0  0  0  0
   27.2608  -22.4164  -15.8586 C   0  0  2  0  0  0  0  0  0  0  0  0
   27.8014  -23.3124  -16.8609 N   0  0  0  0  0  0  0  0  0  0  0  0
   25.8218  -22.4921  -15.6588 C   0  0  0  0  0  0  0  0  0  0  0  0
   25.1189  -22.8008  -16.6710 O   0  0  0  0  0  0  0  0  0  0  0  0
   25.6853  -19.8611   -8.9378 O   0  0  0  0  0  0  0  0  0  0  0  0
   25.0489  -20.5806   -9.9405 C   0  0  0  0  0  0  0  0  0  0  0  0
   23.7526  -20.3172  -10.3216 C   0  0  0  0  0  0  0  0  0  0  0  0
   23.1670  -21.0641  -11.3257 C   0  0  0  0  0  0  0  0  0  0  0  0
   23.8111  -22.0861  -11.9920 C   0  0  0  0  0  0  0  0  0  0  0  0
   23.2151  -22.9109  -13.0599 C   0  0  0  0  0  0  0  0  0  0  0  0
   23.6386  -22.4206  -14.3978 C   0  0  2  0  0  0  0  0  0  0  0  0
   25.1040  -22.2618  -14.4605 N   0  0  0  0  0  0  0  0  0  0  0  0
   23.0456  -21.1094  -14.6893 C   0  0  0  0  0  0  0  0  0  0  0  0
   21.7785  -21.0187  -14.8164 O   0  0  0  0  0  0  0  0  0  0  0  0
   25.1289  -22.3288  -11.5808 C   0  0  0  0  0  0  0  0  0  0  0  0
   25.7255  -21.5922  -10.5815 C   0  0  0  0  0  0  0  0  0  0  0  0
   23.7720  -19.9435  -14.8364 O   0  0  0  0  0  0  0  0  0  0  0  0
  2  1  1  0
  3  2  2  0
  4  2  1  0
  5  6  1  0
  5  4  1  0
  6  8  1  0
  6  7  1  1
  8  9  2  0
 10 11  1  0
 12 11  1  6
 13 12  1  0
 13  8  1  0
 14 12  1  0
 14 15  2  0
 16 17  1  0
 17 27  2  0
 17 18  1  0
 18 19  2  0
 19 20  1  0
 20 21  1  0
 22 21  1  1
 22 23  1  0
 22 24  1  0
 23 14  1  0
 24 28  1  0
 25 24  2  0
 26 20  2  0
 27 26  1  0
M  END
$$$$
