KTQ.pdb
     RDKit          3D

 26 25  0  0  1  0  0  0  0  0999 V2000
   20.1005  -16.6641  -17.3732 N   0  0  0  0  0  0  0  0  0  0  0  0
   20.8490  -16.5455  -16.1480 C   0  0  1  0  0  0  0  0  0  0  0  0
   19.9922  -15.9486  -15.0791 C   0  0  0  0  0  0  0  0  0  0  0  0
   18.6473  -15.4800  -15.4853 C   0  0  0  0  0  0  0  0  0  0  0  0
   18.4447  -14.0279  -15.6798 C   0  0  0  0  0  0  0  0  0  0  0  0
   17.0717  -13.6184  -16.1266 C   0  0  0  0  0  0  0  0  0  0  0  0
   16.9317  -12.1918  -16.2894 N   0  0  0  0  0  0  0  0  0  0  0  0
   21.2350  -17.9413  -15.7280 C   0  0  0  0  0  0  0  0  0  0  0  0
   20.3728  -18.8484  -15.6121 O   0  0  0  0  0  0  0  0  0  0  0  0
   22.4795  -20.3937  -17.5167 C   0  0  0  0  0  0  0  0  0  0  0  0
   23.5941  -20.2093  -16.5082 C   0  0  1  0  0  0  0  0  0  0  0  0
   24.5533  -19.4041  -17.1074 O   0  0  0  0  0  0  0  0  0  0  0  0
   23.0718  -19.6023  -15.2167 C   0  0  2  0  0  0  0  0  0  0  0  0
   22.5896  -18.2430  -15.4579 N   0  0  0  0  0  0  0  0  0  0  0  0
   24.1467  -19.5197  -14.1962 C   0  0  0  0  0  0  0  0  0  0  0  0
   24.2302  -18.5209  -13.4011 O   0  0  0  0  0  0  0  0  0  0  0  0
   23.4191  -20.8678   -9.4368 N   0  0  0  0  0  0  0  0  0  0  0  0
   24.7940  -20.6579   -9.1860 C   0  0  0  0  0  0  0  0  0  0  0  0
   25.2203  -20.5772   -8.0076 O   0  0  0  0  0  0  0  0  0  0  0  0
   25.7422  -20.5379  -10.3052 C   0  0  0  0  0  0  0  0  0  0  0  0
   25.1472  -20.4784  -11.6560 C   0  0  0  0  0  0  0  0  0  0  0  0
   26.0367  -20.5259  -12.8369 C   0  0  2  0  0  0  0  0  0  0  0  0
   25.1427  -20.5120  -14.0211 N   0  0  0  0  0  0  0  0  0  0  0  0
   27.0604  -21.5361  -12.9374 C   0  0  0  0  0  0  0  0  0  0  0  0
   28.3415  -21.3694  -13.4546 O   0  0  0  0  0  0  0  0  0  0  0  0
   26.8285  -22.7331  -12.5321 O   0  0  0  0  0  0  0  0  0  0  0  0
  2  1  1  6
  3  2  1  0
  4  3  1  0
  4  5  1  0
  5  6  1  0
  6  7  1  0
  8  2  1  0
  8  9  2  0
 11 10  1  6
 11 13  1  0
 12 11  1  0
 13 14  1  6
 14  8  1  0
 15 23  1  0
 15 13  1  0
 16 15  2  0
 17 18  1  0
 18 19  2  0
 18 20  1  0
 20 21  1  0
 22 21  1  1
 22 23  1  0
 22 24  1  0
 24 25  1  0
 26 24  2  0
M  END
$$$$
