KTQ.pdb
     RDKit          3D

 26 25  0  0  1  0  0  0  0  0999 V2000
   20.7413  -11.8671  -17.9027 N   0  0  0  0  0  0  0  0  0  0  0  0
   19.4951  -11.3070  -18.3595 C   0  0  1  0  0  0  0  0  0  0  0  0
   18.4119  -12.3334  -18.2810 C   0  0  0  0  0  0  0  0  0  0  0  0
   18.7536  -13.7009  -18.7351 C   0  0  0  0  0  0  0  0  0  0  0  0
   17.7137  -14.7481  -18.6365 C   0  0  0  0  0  0  0  0  0  0  0  0
   18.1290  -16.1192  -19.0837 C   0  0  0  0  0  0  0  0  0  0  0  0
   17.0587  -17.0843  -19.0175 N   0  0  0  0  0  0  0  0  0  0  0  0
   19.1498  -10.1746  -17.4258 C   0  0  0  0  0  0  0  0  0  0  0  0
   18.0110   -9.6429  -17.4399 O   0  0  0  0  0  0  0  0  0  0  0  0
   18.7354  -10.2162  -13.9237 C   0  0  0  0  0  0  0  0  0  0  0  0
   19.8670   -9.2306  -14.1277 C   0  0  1  0  0  0  0  0  0  0  0  0
   21.0488   -9.9118  -13.8694 O   0  0  0  0  0  0  0  0  0  0  0  0
   19.8433   -8.6496  -15.5316 C   0  0  2  0  0  0  0  0  0  0  0  0
   20.1194   -9.6964  -16.5146 N   0  0  0  0  0  0  0  0  0  0  0  0
   20.8839   -7.6029  -15.6905 C   0  0  0  0  0  0  0  0  0  0  0  0
   21.7482   -7.6652  -16.6317 O   0  0  0  0  0  0  0  0  0  0  0  0
   23.4666   -3.2030  -17.8299 N   0  0  0  0  0  0  0  0  0  0  0  0
   22.1718   -2.7280  -17.5214 C   0  0  0  0  0  0  0  0  0  0  0  0
   21.8277   -1.5643  -17.8443 O   0  0  0  0  0  0  0  0  0  0  0  0
   21.2102   -3.5961  -16.8228 C   0  0  0  0  0  0  0  0  0  0  0  0
   21.6667   -4.9715  -16.5367 C   0  0  0  0  0  0  0  0  0  0  0  0
   21.9373   -5.3634  -15.1363 C   0  0  2  0  0  0  0  0  0  0  0  0
   21.0043   -6.4780  -14.8377 N   0  0  0  0  0  0  0  0  0  0  0  0
   21.9525   -4.3695  -14.0920 C   0  0  0  0  0  0  0  0  0  0  0  0
   23.0373   -3.5870  -13.7081 O   0  0  0  0  0  0  0  0  0  0  0  0
   20.8918   -4.1387  -13.4045 O   0  0  0  0  0  0  0  0  0  0  0  0
  2  1  1  1
  3  2  1  0
  4  3  1  0
  4  5  1  0
  5  6  1  0
  6  7  1  0
  8  2  1  0
  8  9  2  0
 11 10  1  6
 11 13  1  0
 12 11  1  0
 13 14  1  6
 14  8  1  0
 15 23  1  0
 15 13  1  0
 16 15  2  0
 17 18  1  0
 18 19  2  0
 18 20  1  0
 20 21  1  0
 22 21  1  6
 22 23  1  0
 22 24  1  0
 24 25  1  0
 26 24  2  0
M  END
$$$$
