KTQ.pdb
     RDKit          3D

 26 25  0  0  1  0  0  0  0  0999 V2000
   25.5039  -18.8332  -19.1093 N   0  0  0  0  0  0  0  0  0  0  0  0
   25.0347  -18.5510  -17.7767 C   0  0  1  0  0  0  0  0  0  0  0  0
   23.5643  -18.8012  -17.6868 C   0  0  0  0  0  0  0  0  0  0  0  0
   22.9062  -19.3552  -18.8923 C   0  0  0  0  0  0  0  0  0  0  0  0
   21.4338  -19.4943  -18.8806 C   0  0  0  0  0  0  0  0  0  0  0  0
   20.8362  -20.1704  -20.0799 C   0  0  0  0  0  0  0  0  0  0  0  0
   19.4112  -20.3652  -19.9681 N   0  0  0  0  0  0  0  0  0  0  0  0
   25.7403  -19.5060  -16.8473 C   0  0  0  0  0  0  0  0  0  0  0  0
   26.4765  -20.4227  -17.2915 O   0  0  0  0  0  0  0  0  0  0  0  0
   28.2432  -20.1667  -16.1273 C   0  0  0  0  0  0  0  0  0  0  0  0
   27.8437  -19.8875  -14.6935 C   0  0  1  0  0  0  0  0  0  0  0  0
   28.1924  -18.5707  -14.4250 O   0  0  0  0  0  0  0  0  0  0  0  0
   26.3601  -20.1357  -14.4780 C   0  0  2  0  0  0  0  0  0  0  0  0
   25.5758  -19.3743  -15.4493 N   0  0  0  0  0  0  0  0  0  0  0  0
   25.9398  -19.6973  -13.1234 C   0  0  0  0  0  0  0  0  0  0  0  0
   25.3053  -18.6001  -12.9492 O   0  0  0  0  0  0  0  0  0  0  0  0
   21.3100  -21.2157  -12.0505 N   0  0  0  0  0  0  0  0  0  0  0  0
   21.4658  -20.3970  -10.9092 C   0  0  0  0  0  0  0  0  0  0  0  0
   20.4600  -19.9790  -10.2843 O   0  0  0  0  0  0  0  0  0  0  0  0
   22.8109  -20.0307  -10.4372 C   0  0  0  0  0  0  0  0  0  0  0  0
   23.9412  -20.5378  -11.2419 C   0  0  0  0  0  0  0  0  0  0  0  0
   25.3216  -20.3393  -10.7490 C   0  0  2  0  0  0  0  0  0  0  0  0
   26.1981  -20.4361  -11.9425 N   0  0  0  0  0  0  0  0  0  0  0  0
   25.8187  -21.1179   -9.6420 C   0  0  0  0  0  0  0  0  0  0  0  0
   25.6559  -20.8338   -8.2895 O   0  0  0  0  0  0  0  0  0  0  0  0
   26.4927  -22.1903   -9.8578 O   0  0  0  0  0  0  0  0  0  0  0  0
  2  1  1  6
  3  2  1  0
  4  3  1  0
  4  5  1  0
  5  6  1  0
  6  7  1  0
  8  2  1  0
  8  9  2  0
 11 10  1  6
 11 13  1  0
 12 11  1  0
 13 14  1  6
 14  8  1  0
 15 23  1  0
 15 13  1  0
 16 15  2  0
 17 18  1  0
 18 19  2  0
 18 20  1  0
 20 21  1  0
 22 21  1  6
 22 23  1  0
 22 24  1  0
 24 25  1  0
 26 24  2  0
M  END
$$$$
