KTQ.pdb
     RDKit          3D

 26 25  0  0  1  0  0  0  0  0999 V2000
   25.6781  -21.6041  -11.0606 N   0  0  0  0  0  0  0  0  0  0  0  0
   24.7946  -21.4320  -12.1854 C   0  0  1  0  0  0  0  0  0  0  0  0
   23.3911  -21.2380  -11.7104 C   0  0  0  0  0  0  0  0  0  0  0  0
   23.0043  -21.9410  -10.4657 C   0  0  0  0  0  0  0  0  0  0  0  0
   23.0296  -21.1789   -9.1983 C   0  0  0  0  0  0  0  0  0  0  0  0
   22.6305  -21.9460   -7.9717 C   0  0  0  0  0  0  0  0  0  0  0  0
   22.6342  -21.1408   -6.7746 N   0  0  0  0  0  0  0  0  0  0  0  0
   25.2329  -20.1820  -12.9058 C   0  0  0  0  0  0  0  0  0  0  0  0
   26.2402  -19.5319  -12.5282 O   0  0  0  0  0  0  0  0  0  0  0  0
   27.3303  -19.2577  -14.3221 C   0  0  0  0  0  0  0  0  0  0  0  0
   26.3517  -18.9846  -15.4450 C   0  0  1  0  0  0  0  0  0  0  0  0
   26.3330  -20.1155  -16.2501 O   0  0  0  0  0  0  0  0  0  0  0  0
   24.9715  -18.6527  -14.9026 C   0  0  2  0  0  0  0  0  0  0  0  0
   24.5028  -19.7264  -14.0275 N   0  0  0  0  0  0  0  0  0  0  0  0
   23.9871  -18.5141  -16.0051 C   0  0  0  0  0  0  0  0  0  0  0  0
   22.9545  -19.2665  -16.0699 O   0  0  0  0  0  0  0  0  0  0  0  0
   19.8596  -17.8371  -17.2538 N   0  0  0  0  0  0  0  0  0  0  0  0
   19.7367  -16.4361  -17.1149 C   0  0  0  0  0  0  0  0  0  0  0  0
   18.6388  -15.8689  -17.3379 O   0  0  0  0  0  0  0  0  0  0  0  0
   20.8946  -15.6275  -16.7008 C   0  0  0  0  0  0  0  0  0  0  0  0
   22.1503  -16.3677  -16.4606 C   0  0  0  0  0  0  0  0  0  0  0  0
   22.9206  -16.8728  -17.6178 C   0  0  2  0  0  0  0  0  0  0  0  0
   24.1044  -17.5634  -17.0491 N   0  0  0  0  0  0  0  0  0  0  0  0
   23.2725  -15.9882  -18.7005 C   0  0  0  0  0  0  0  0  0  0  0  0
   24.3530  -15.1120  -18.7372 O   0  0  0  0  0  0  0  0  0  0  0  0
   22.5537  -15.9524  -19.7650 O   0  0  0  0  0  0  0  0  0  0  0  0
  2  1  1  1
  3  2  1  0
  4  3  1  0
  4  5  1  0
  5  6  1  0
  6  7  1  0
  8  2  1  0
  8  9  2  0
 11 10  1  1
 11 13  1  0
 12 11  1  0
 13 14  1  1
 14  8  1  0
 15 23  1  0
 15 13  1  0
 16 15  2  0
 17 18  1  0
 18 19  2  0
 18 20  1  0
 20 21  1  0
 22 21  1  1
 22 23  1  0
 22 24  1  0
 24 25  1  0
 26 24  2  0
M  END
$$$$
