KTQ.pdb
     RDKit          3D

 26 25  0  0  1  0  0  0  0  0999 V2000
   20.3259  -20.9502  -14.7430 N   0  0  0  0  0  0  0  0  0  0  0  0
   20.7120  -20.6389  -13.3903 C   0  0  1  0  0  0  0  0  0  0  0  0
   20.7245  -21.8822  -12.5614 C   0  0  0  0  0  0  0  0  0  0  0  0
   19.4084  -22.4467  -12.1844 C   0  0  0  0  0  0  0  0  0  0  0  0
   18.4988  -22.8779  -13.2681 C   0  0  0  0  0  0  0  0  0  0  0  0
   17.1865  -23.4543  -12.8231 C   0  0  0  0  0  0  0  0  0  0  0  0
   16.2902  -23.7328  -13.9187 N   0  0  0  0  0  0  0  0  0  0  0  0
   22.1140  -20.0868  -13.4459 C   0  0  0  0  0  0  0  0  0  0  0  0
   22.8013  -19.9484  -12.4027 O   0  0  0  0  0  0  0  0  0  0  0  0
   25.2504  -21.2755  -14.7338 C   0  0  0  0  0  0  0  0  0  0  0  0
   24.9313  -20.0506  -15.5651 C   0  0  1  0  0  0  0  0  0  0  0  0
   24.3731  -20.5018  -16.7535 O   0  0  0  0  0  0  0  0  0  0  0  0
   23.9973  -19.1101  -14.8219 C   0  0  2  0  0  0  0  0  0  0  0  0
   22.6728  -19.7156  -14.6904 N   0  0  0  0  0  0  0  0  0  0  0  0
   23.8325  -17.8327  -15.5601 C   0  0  0  0  0  0  0  0  0  0  0  0
   22.8124  -17.6238  -16.3033 O   0  0  0  0  0  0  0  0  0  0  0  0
   27.3498  -12.6626  -14.6868 N   0  0  0  0  0  0  0  0  0  0  0  0
   26.6675  -12.3169  -15.8752 C   0  0  0  0  0  0  0  0  0  0  0  0
   26.8557  -11.1984  -16.4141 O   0  0  0  0  0  0  0  0  0  0  0  0
   25.7328  -13.2685  -16.4973 C   0  0  0  0  0  0  0  0  0  0  0  0
   25.5631  -14.5603  -15.8013 C   0  0  0  0  0  0  0  0  0  0  0  0
   24.6292  -15.5619  -16.3604 C   0  0  2  0  0  0  0  0  0  0  0  0
   24.7644  -16.7670  -15.5052 N   0  0  0  0  0  0  0  0  0  0  0  0
   24.6616  -15.8832  -17.7655 C   0  0  0  0  0  0  0  0  0  0  0  0
   23.8588  -15.3332  -18.7603 O   0  0  0  0  0  0  0  0  0  0  0  0
   25.4879  -16.7619  -18.2082 O   0  0  0  0  0  0  0  0  0  0  0  0
  2  1  1  6
  3  2  1  0
  4  3  1  0
  4  5  1  0
  5  6  1  0
  6  7  1  0
  8  2  1  0
  8  9  2  0
 11 10  1  1
 11 13  1  0
 12 11  1  0
 13 14  1  6
 14  8  1  0
 15 23  1  0
 15 13  1  0
 16 15  2  0
 17 18  1  0
 18 19  2  0
 18 20  1  0
 20 21  1  0
 22 21  1  6
 22 23  1  0
 22 24  1  0
 24 25  1  0
 26 24  2  0
M  END
$$$$
