KTQ.pdb
     RDKit          3D

 26 25  0  0  1  0  0  0  0  0999 V2000
   29.3564  -22.9094  -16.9295 N   0  0  0  0  0  0  0  0  0  0  0  0
   27.9247  -22.8605  -17.0825 C   0  0  1  0  0  0  0  0  0  0  0  0
   27.3116  -24.1278  -16.5815 C   0  0  0  0  0  0  0  0  0  0  0  0
   27.8626  -25.3936  -17.1175 C   0  0  0  0  0  0  0  0  0  0  0  0
   27.2446  -26.6637  -16.6786 C   0  0  0  0  0  0  0  0  0  0  0  0
   27.8808  -27.9136  -17.2128 C   0  0  0  0  0  0  0  0  0  0  0  0
   27.2587  -29.1193  -16.7223 N   0  0  0  0  0  0  0  0  0  0  0  0
   27.4271  -21.7193  -16.2317 C   0  0  0  0  0  0  0  0  0  0  0  0
   28.2126  -21.0536  -15.5109 O   0  0  0  0  0  0  0  0  0  0  0  0
   27.7499  -19.0736  -15.9782 C   0  0  0  0  0  0  0  0  0  0  0  0
   26.2537  -18.9498  -16.1767 C   0  0  1  0  0  0  0  0  0  0  0  0
   26.0380  -18.7853  -17.5382 O   0  0  0  0  0  0  0  0  0  0  0  0
   25.5245  -20.1661  -15.6306 C   0  0  2  0  0  0  0  0  0  0  0  0
   26.0533  -21.3858  -16.2396 N   0  0  0  0  0  0  0  0  0  0  0  0
   24.0753  -20.1021  -15.9462 C   0  0  0  0  0  0  0  0  0  0  0  0
   23.6326  -20.4373  -17.0987 O   0  0  0  0  0  0  0  0  0  0  0  0
   22.3466  -22.4118  -12.7821 N   0  0  0  0  0  0  0  0  0  0  0  0
   21.5034  -22.8774  -13.8164 C   0  0  0  0  0  0  0  0  0  0  0  0
   21.3952  -24.1078  -14.0432 O   0  0  0  0  0  0  0  0  0  0  0  0
   20.7380  -21.9236  -14.6353 C   0  0  0  0  0  0  0  0  0  0  0  0
   20.9714  -20.4926  -14.3526 C   0  0  0  0  0  0  0  0  0  0  0  0
   21.6453  -19.6584  -15.3714 C   0  0  2  0  0  0  0  0  0  0  0  0
   23.0877  -19.6767  -15.0236 N   0  0  0  0  0  0  0  0  0  0  0  0
   21.1687  -18.3274  -15.6541 C   0  0  0  0  0  0  0  0  0  0  0  0
   19.9909  -17.9916  -16.3148 O   0  0  0  0  0  0  0  0  0  0  0  0
   21.8566  -17.3045  -15.2916 O   0  0  0  0  0  0  0  0  0  0  0  0
  2  1  1  1
  3  2  1  0
  4  3  1  0
  4  5  1  0
  5  6  1  0
  6  7  1  0
  8  2  1  0
  8  9  2  0
 11 10  1  6
 11 13  1  0
 12 11  1  0
 13 14  1  6
 14  8  1  0
 15 23  1  0
 15 13  1  0
 16 15  2  0
 17 18  1  0
 18 19  2  0
 18 20  1  0
 20 21  1  0
 22 21  1  1
 22 23  1  0
 22 24  1  0
 24 25  1  0
 26 24  2  0
M  END
$$$$
