KTQ.pdb
     RDKit          3D

 26 25  0  0  1  0  0  0  0  0999 V2000
   25.4798  -21.9323  -11.6715 N   0  0  0  0  0  0  0  0  0  0  0  0
   24.4529  -21.5716  -12.6154 C   0  0  1  0  0  0  0  0  0  0  0  0
   23.2110  -21.1637  -11.8914 C   0  0  0  0  0  0  0  0  0  0  0  0
   21.9688  -21.8946  -12.2321 C   0  0  0  0  0  0  0  0  0  0  0  0
   20.7074  -21.4604  -11.5935 C   0  0  0  0  0  0  0  0  0  0  0  0
   19.4609  -22.1249  -12.1007 C   0  0  0  0  0  0  0  0  0  0  0  0
   18.2642  -21.6607  -11.4422 N   0  0  0  0  0  0  0  0  0  0  0  0
   24.9639  -20.3859  -13.3942 C   0  0  0  0  0  0  0  0  0  0  0  0
   26.0634  -19.8462  -13.1121 O   0  0  0  0  0  0  0  0  0  0  0  0
   26.9394  -20.0359  -15.3425 C   0  0  0  0  0  0  0  0  0  0  0  0
   25.8420  -19.4938  -16.2343 C   0  0  1  0  0  0  0  0  0  0  0  0
   25.3966  -20.5508  -17.0166 O   0  0  0  0  0  0  0  0  0  0  0  0
   24.7179  -18.8839  -15.4135 C   0  0  2  0  0  0  0  0  0  0  0  0
   24.1982  -19.8660  -14.4630 N   0  0  0  0  0  0  0  0  0  0  0  0
   23.5907  -18.4665  -16.2847 C   0  0  0  0  0  0  0  0  0  0  0  0
   22.3781  -18.7228  -15.9677 O   0  0  0  0  0  0  0  0  0  0  0  0
   21.4123  -14.1995  -15.0570 N   0  0  0  0  0  0  0  0  0  0  0  0
   20.6622  -14.2445  -16.2539 C   0  0  0  0  0  0  0  0  0  0  0  0
   19.6502  -13.5152  -16.3979 O   0  0  0  0  0  0  0  0  0  0  0  0
   21.0640  -15.1436  -17.3477 C   0  0  0  0  0  0  0  0  0  0  0  0
   22.1968  -16.0476  -17.0614 C   0  0  0  0  0  0  0  0  0  0  0  0
   22.6591  -16.9778  -18.1145 C   0  0  2  0  0  0  0  0  0  0  0  0
   23.7577  -17.7682  -17.5061 N   0  0  0  0  0  0  0  0  0  0  0  0
   23.0033  -16.4823  -19.4239 C   0  0  0  0  0  0  0  0  0  0  0  0
   22.1211  -16.2080  -20.4646 O   0  0  0  0  0  0  0  0  0  0  0  0
   24.2313  -16.2561  -19.7266 O   0  0  0  0  0  0  0  0  0  0  0  0
  2  1  1  1
  3  2  1  0
  4  3  1  0
  4  5  1  0
  5  6  1  0
  6  7  1  0
  8  2  1  0
  8  9  2  0
 11 10  1  1
 11 13  1  0
 12 11  1  0
 13 14  1  1
 14  8  1  0
 15 23  1  0
 15 13  1  0
 16 15  2  0
 17 18  1  0
 18 19  2  0
 18 20  1  0
 20 21  1  0
 22 21  1  1
 22 23  1  0
 22 24  1  0
 24 25  1  0
 26 24  2  0
M  END
$$$$
