KTQ.pdb
     RDKit          3D

 26 25  0  0  1  0  0  0  0  0999 V2000
   22.4546  -20.9248   -9.1754 N   0  0  0  0  0  0  0  0  0  0  0  0
   22.0926  -21.0822  -10.5609 C   0  0  1  0  0  0  0  0  0  0  0  0
   20.7598  -20.4570  -10.8171 C   0  0  0  0  0  0  0  0  0  0  0  0
   19.5665  -21.2730  -10.4956 C   0  0  0  0  0  0  0  0  0  0  0  0
   19.6188  -22.7244  -10.7754 C   0  0  0  0  0  0  0  0  0  0  0  0
   18.4114  -23.5103  -10.3548 C   0  0  0  0  0  0  0  0  0  0  0  0
   18.5858  -24.9352  -10.4979 N   0  0  0  0  0  0  0  0  0  0  0  0
   23.1290  -20.3501  -11.3754 C   0  0  0  0  0  0  0  0  0  0  0  0
   23.4788  -19.1788  -11.0833 O   0  0  0  0  0  0  0  0  0  0  0  0
   26.5751  -20.8634  -11.7065 C   0  0  0  0  0  0  0  0  0  0  0  0
   26.0825  -21.0265  -13.1292 C   0  0  1  0  0  0  0  0  0  0  0  0
   26.0150  -22.3902  -13.3807 O   0  0  0  0  0  0  0  0  0  0  0  0
   24.7376  -20.3471  -13.3265 C   0  0  2  0  0  0  0  0  0  0  0  0
   23.7229  -20.9862  -12.4897 N   0  0  0  0  0  0  0  0  0  0  0  0
   24.2880  -20.4593  -14.7368 C   0  0  0  0  0  0  0  0  0  0  0  0
   23.1312  -20.9210  -15.0287 O   0  0  0  0  0  0  0  0  0  0  0  0
   21.6490  -16.5544  -15.6788 N   0  0  0  0  0  0  0  0  0  0  0  0
   21.7925  -16.7201  -17.0750 C   0  0  0  0  0  0  0  0  0  0  0  0
   21.1107  -16.0282  -17.8708 O   0  0  0  0  0  0  0  0  0  0  0  0
   22.7485  -17.7024  -17.6109 C   0  0  0  0  0  0  0  0  0  0  0  0
   23.5296  -18.4596  -16.6115 C   0  0  0  0  0  0  0  0  0  0  0  0
   24.4800  -19.4942  -17.0743 C   0  0  2  0  0  0  0  0  0  0  0  0
   25.0794  -20.0749  -15.8473 N   0  0  0  0  0  0  0  0  0  0  0  0
   25.4735  -19.1773  -18.0699 C   0  0  0  0  0  0  0  0  0  0  0  0
   25.4058  -19.4657  -19.4296 O   0  0  0  0  0  0  0  0  0  0  0  0
   26.5564  -18.5737  -17.7324 O   0  0  0  0  0  0  0  0  0  0  0  0
  2  1  1  1
  3  2  1  0
  4  3  1  0
  4  5  1  0
  5  6  1  0
  6  7  1  0
  8  2  1  0
  8  9  2  0
 11 10  1  1
 11 13  1  0
 12 11  1  0
 13 14  1  1
 14  8  1  0
 15 23  1  0
 15 13  1  0
 16 15  2  0
 17 18  1  0
 18 19  2  0
 18 20  1  0
 20 21  1  0
 22 21  1  1
 22 23  1  0
 22 24  1  0
 24 25  1  0
 26 24  2  0
M  END
$$$$
