KTQ.pdb
     RDKit          3D

 26 25  0  0  1  0  0  0  0  0999 V2000
   17.1144  -11.2596  -19.5016 N   0  0  0  0  0  0  0  0  0  0  0  0
   17.1526  -10.3872  -18.3557 C   0  0  1  0  0  0  0  0  0  0  0  0
   17.5693  -11.1526  -17.1419 C   0  0  0  0  0  0  0  0  0  0  0  0
   16.7226  -12.3044  -16.7554 C   0  0  0  0  0  0  0  0  0  0  0  0
   17.1824  -13.1655  -15.6443 C   0  0  0  0  0  0  0  0  0  0  0  0
   16.2966  -14.3324  -15.3182 C   0  0  0  0  0  0  0  0  0  0  0  0
   16.8369  -15.1815  -14.2845 N   0  0  0  0  0  0  0  0  0  0  0  0
   18.1928   -9.3323  -18.6366 C   0  0  0  0  0  0  0  0  0  0  0  0
   19.2620   -9.6147  -19.2338 O   0  0  0  0  0  0  0  0  0  0  0  0
   17.7537   -6.6487  -20.8401 C   0  0  0  0  0  0  0  0  0  0  0  0
   18.1192   -5.9487  -19.5479 C   0  0  1  0  0  0  0  0  0  0  0  0
   16.9376   -5.4692  -18.9988 O   0  0  0  0  0  0  0  0  0  0  0  0
   18.8438   -6.8892  -18.5994 C   0  0  2  0  0  0  0  0  0  0  0  0
   17.9685   -7.9988  -18.2240 N   0  0  0  0  0  0  0  0  0  0  0  0
   19.2342   -6.1870  -17.3510 C   0  0  0  0  0  0  0  0  0  0  0  0
   18.8250   -6.5906  -16.2081 O   0  0  0  0  0  0  0  0  0  0  0  0
   22.5754   -7.5995  -13.9474 N   0  0  0  0  0  0  0  0  0  0  0  0
   22.6682   -6.2911  -13.4212 C   0  0  0  0  0  0  0  0  0  0  0  0
   23.3475   -6.0676  -12.3890 O   0  0  0  0  0  0  0  0  0  0  0  0
   21.9734   -5.1748  -14.0824 C   0  0  0  0  0  0  0  0  0  0  0  0
   21.2265   -5.5123  -15.3114 C   0  0  0  0  0  0  0  0  0  0  0  0
   20.5236   -4.4370  -16.0445 C   0  0  2  0  0  0  0  0  0  0  0  0
   20.0697   -5.0432  -17.3206 N   0  0  0  0  0  0  0  0  0  0  0  0
   21.1565   -3.1568  -16.2430 C   0  0  0  0  0  0  0  0  0  0  0  0
   21.5529   -2.6077  -17.4587 O   0  0  0  0  0  0  0  0  0  0  0  0
   21.4137   -2.4006  -15.2366 O   0  0  0  0  0  0  0  0  0  0  0  0
  2  1  1  6
  3  2  1  0
  4  3  1  0
  4  5  1  0
  5  6  1  0
  6  7  1  0
  8  2  1  0
  8  9  2  0
 11 10  1  6
 11 13  1  0
 12 11  1  0
 13 14  1  1
 14  8  1  0
 15 23  1  0
 15 13  1  0
 16 15  2  0
 17 18  1  0
 18 19  2  0
 18 20  1  0
 20 21  1  0
 22 21  1  6
 22 23  1  0
 22 24  1  0
 24 25  1  0
 26 24  2  0
M  END
$$$$
