CKN.pdb
     RDKit          3D

 24 23  0  0  1  0  0  0  0  0999 V2000
    7.7540  -14.7723   18.7256 N   0  0  0  0  0  0  0  0  0  0  0  0
    8.5059  -14.2733   19.8551 C   0  0  1  0  0  0  0  0  0  0  0  0
    7.9299  -12.9589   20.3354 C   0  0  0  0  0  0  0  0  0  0  0  0
    8.5953  -11.6889   19.1877 S   0  0  0  0  0  0  0  0  0  0  0  0
    8.5399  -15.3216   20.8949 C   0  0  0  0  0  0  0  0  0  0  0  0
    7.4474  -15.8417   21.2436 O   0  0  0  0  0  0  0  0  0  0  0  0
    9.6981  -15.7959   21.5365 N   0  0  0  0  0  0  0  0  0  0  0  0
    9.7642  -16.7424   22.6045 C   0  0  1  0  0  0  0  0  0  0  0  0
   10.5538  -17.9814   22.2084 C   0  0  0  0  0  0  0  0  0  0  0  0
   10.6445  -18.9762   23.3048 C   0  0  0  0  0  0  0  0  0  0  0  0
   11.4054  -20.2142   22.9771 C   0  0  0  0  0  0  0  0  0  0  0  0
   11.5504  -21.2130   24.0862 C   0  0  0  0  0  0  0  0  0  0  0  0
   12.2704  -22.3943   23.7478 N   0  0  0  0  0  0  0  0  0  0  0  0
   10.2898  -16.1571   23.8636 C   0  0  0  0  0  0  0  0  0  0  0  0
   11.4516  -15.6416   23.8565 O   0  0  0  0  0  0  0  0  0  0  0  0
   11.0472  -14.2217   28.5346 N   0  0  0  0  0  0  0  0  0  0  0  0
    9.6631  -14.1462   28.2474 C   0  0  0  0  0  0  0  0  0  0  0  0
    8.9166  -13.4852   29.0223 O   0  0  0  0  0  0  0  0  0  0  0  0
    9.0520  -14.8147   27.0694 C   0  0  0  0  0  0  0  0  0  0  0  0
   10.1268  -15.4940   26.2500 C   0  0  2  0  0  0  0  0  0  0  0  0
    9.5831  -16.1354   25.0713 N   0  0  0  0  0  0  0  0  0  0  0  0
   10.8539  -16.5017   27.0932 C   0  0  0  0  0  0  0  0  0  0  0  0
   10.8608  -17.8589   26.8149 O   0  0  0  0  0  0  0  0  0  0  0  0
   11.4986  -16.1319   28.1099 O   0  0  0  0  0  0  0  0  0  0  0  0
  2  5  1  0
  2  1  1  6
  3  2  1  0
  4  3  1  0
  5  6  2  0
  7  8  1  0
  7  5  1  0
  9 10  1  0
  8  9  1  6
 10 11  1  0
 11 12  1  0
 13 12  1  0
 14  8  1  0
 14 15  2  0
 16 17  1  0
 17 18  2  0
 17 19  1  0
 20 19  1  1
 20 21  1  0
 20 22  1  0
 21 14  1  0
 22 24  2  0
 22 23  1  0
M  END
$$$$
