CKN.pdb
     RDKit          3D

 24 23  0  0  1  0  0  0  0  0999 V2000
    8.1802  -12.7975   17.7532 N   0  0  0  0  0  0  0  0  0  0  0  0
    8.4303  -14.1752   18.1132 C   0  0  1  0  0  0  0  0  0  0  0  0
    9.0362  -14.9254   16.9470 C   0  0  0  0  0  0  0  0  0  0  0  0
    7.6362  -15.8216   16.1662 S   0  0  0  0  0  0  0  0  0  0  0  0
    9.2657  -14.1966   19.3310 C   0  0  0  0  0  0  0  0  0  0  0  0
   10.3016  -13.4808   19.3479 O   0  0  0  0  0  0  0  0  0  0  0  0
    9.0027  -14.9540   20.4866 N   0  0  0  0  0  0  0  0  0  0  0  0
    9.8878  -15.1858   21.5837 C   0  0  1  0  0  0  0  0  0  0  0  0
    9.1700  -15.8389   22.7557 C   0  0  0  0  0  0  0  0  0  0  0  0
   10.0582  -16.0497   23.9246 C   0  0  0  0  0  0  0  0  0  0  0  0
    9.4252  -16.7313   25.0880 C   0  0  0  0  0  0  0  0  0  0  0  0
   10.2818  -16.8852   26.3092 C   0  0  0  0  0  0  0  0  0  0  0  0
    9.7273  -17.6965   27.3403 N   0  0  0  0  0  0  0  0  0  0  0  0
   11.0934  -15.9622   21.1993 C   0  0  0  0  0  0  0  0  0  0  0  0
   11.0812  -16.6008   20.1003 O   0  0  0  0  0  0  0  0  0  0  0  0
   15.3024  -14.6352   18.5985 N   0  0  0  0  0  0  0  0  0  0  0  0
   15.0739  -14.5628   19.9936 C   0  0  0  0  0  0  0  0  0  0  0  0
   16.0642  -14.4299   20.7658 O   0  0  0  0  0  0  0  0  0  0  0  0
   13.7137  -14.6376   20.5873 C   0  0  0  0  0  0  0  0  0  0  0  0
   13.5687  -15.9185   21.3785 C   0  0  2  0  0  0  0  0  0  0  0  0
   12.2553  -16.0389   21.9757 N   0  0  0  0  0  0  0  0  0  0  0  0
   14.6249  -15.9849   22.4441 C   0  0  0  0  0  0  0  0  0  0  0  0
   14.6008  -15.1990   23.5848 O   0  0  0  0  0  0  0  0  0  0  0  0
   15.5938  -16.7812   22.3289 O   0  0  0  0  0  0  0  0  0  0  0  0
  2  5  1  0
  2  1  1  6
  3  2  1  0
  4  3  1  0
  5  6  2  0
  7  8  1  0
  7  5  1  0
  9 10  1  0
  8  9  1  1
 10 11  1  0
 11 12  1  0
 13 12  1  0
 14  8  1  0
 14 15  2  0
 16 17  1  0
 17 18  2  0
 17 19  1  0
 20 19  1  1
 20 21  1  0
 20 22  1  0
 21 14  1  0
 22 24  2  0
 22 23  1  0
M  END
$$$$
