CKN.pdb
     RDKit          3D

 24 23  0  0  1  0  0  0  0  0999 V2000
    8.2504  -17.3090   15.2730 N   0  0  0  0  0  0  0  0  0  0  0  0
    8.3921  -18.5233   16.0447 C   0  0  1  0  0  0  0  0  0  0  0  0
    9.8477  -18.9277   16.1328 C   0  0  0  0  0  0  0  0  0  0  0  0
    9.9606  -20.5314   15.2449 S   0  0  0  0  0  0  0  0  0  0  0  0
    7.7522  -18.3194   17.3601 C   0  0  0  0  0  0  0  0  0  0  0  0
    8.0258  -17.2650   17.9917 O   0  0  0  0  0  0  0  0  0  0  0  0
    6.8535  -19.2090   17.9759 N   0  0  0  0  0  0  0  0  0  0  0  0
    6.2699  -19.0820   19.2737 C   0  0  1  0  0  0  0  0  0  0  0  0
    5.0768  -20.0106   19.4459 C   0  0  0  0  0  0  0  0  0  0  0  0
    4.5116  -19.9671   20.8164 C   0  0  0  0  0  0  0  0  0  0  0  0
    3.3886  -20.9122   21.0702 C   0  0  0  0  0  0  0  0  0  0  0  0
    2.6883  -20.7668   22.3882 C   0  0  0  0  0  0  0  0  0  0  0  0
    1.5787  -21.6380   22.5844 N   0  0  0  0  0  0  0  0  0  0  0  0
    7.2529  -19.2707   20.3701 C   0  0  0  0  0  0  0  0  0  0  0  0
    6.8455  -19.1982   21.5720 O   0  0  0  0  0  0  0  0  0  0  0  0
   11.3124  -19.8887   23.3937 N   0  0  0  0  0  0  0  0  0  0  0  0
   10.7718  -18.6161   23.0901 C   0  0  0  0  0  0  0  0  0  0  0  0
   11.1839  -17.6111   23.7342 O   0  0  0  0  0  0  0  0  0  0  0  0
    9.7370  -18.4147   22.0428 C   0  0  0  0  0  0  0  0  0  0  0  0
    9.5216  -19.7028   21.2797 C   0  0  2  0  0  0  0  0  0  0  0  0
    8.6138  -19.5256   20.1659 N   0  0  0  0  0  0  0  0  0  0  0  0
    8.9986  -20.7646   22.2040 C   0  0  0  0  0  0  0  0  0  0  0  0
    8.2737  -20.4815   23.3502 O   0  0  0  0  0  0  0  0  0  0  0  0
    9.2101  -21.9814   21.9574 O   0  0  0  0  0  0  0  0  0  0  0  0
  2  5  1  0
  2  1  1  6
  3  2  1  0
  4  3  1  0
  5  6  2  0
  7  8  1  0
  7  5  1  0
  9 10  1  0
  8  9  1  1
 10 11  1  0
 11 12  1  0
 13 12  1  0
 14  8  1  0
 14 15  2  0
 16 17  1  0
 17 18  2  0
 17 19  1  0
 20 19  1  1
 20 21  1  0
 20 22  1  0
 21 14  1  0
 22 24  2  0
 22 23  1  0
M  END
$$$$
