CKN.pdb
     RDKit          3D

 24 23  0  0  1  0  0  0  0  0999 V2000
    6.4080  -14.3986   19.7483 N   0  0  0  0  0  0  0  0  0  0  0  0
    7.8193  -14.2424   19.4764 C   0  0  1  0  0  0  0  0  0  0  0  0
    8.2208  -12.7872   19.5813 C   0  0  0  0  0  0  0  0  0  0  0  0
    7.9014  -12.0743   17.9192 S   0  0  0  0  0  0  0  0  0  0  0  0
    8.5721  -15.1326   20.3831 C   0  0  0  0  0  0  0  0  0  0  0  0
    8.2662  -15.1252   21.6046 O   0  0  0  0  0  0  0  0  0  0  0  0
    9.6118  -15.9981   19.9979 N   0  0  0  0  0  0  0  0  0  0  0  0
   10.4582  -16.7629   20.8578 C   0  0  1  0  0  0  0  0  0  0  0  0
   10.5355  -18.2181   20.4199 C   0  0  0  0  0  0  0  0  0  0  0  0
   11.4051  -19.0349   21.3010 C   0  0  0  0  0  0  0  0  0  0  0  0
   10.6998  -20.0737   22.1025 C   0  0  0  0  0  0  0  0  0  0  0  0
   11.5638  -20.9316   22.9779 C   0  0  0  0  0  0  0  0  0  0  0  0
   10.8608  -21.8419   23.8180 N   0  0  0  0  0  0  0  0  0  0  0  0
   11.8153  -16.1783   21.0016 C   0  0  0  0  0  0  0  0  0  0  0  0
   12.6874  -16.4390   20.1144 O   0  0  0  0  0  0  0  0  0  0  0  0
   13.7690  -16.6944   26.0542 N   0  0  0  0  0  0  0  0  0  0  0  0
   13.3881  -17.4582   24.9248 C   0  0  0  0  0  0  0  0  0  0  0  0
   13.8779  -18.6129   24.7786 O   0  0  0  0  0  0  0  0  0  0  0  0
   12.4342  -16.9551   23.9026 C   0  0  0  0  0  0  0  0  0  0  0  0
   13.0716  -15.8325   23.1143 C   0  0  2  0  0  0  0  0  0  0  0  0
   12.2025  -15.3504   22.0615 N   0  0  0  0  0  0  0  0  0  0  0  0
   14.3771  -16.2924   22.5316 C   0  0  0  0  0  0  0  0  0  0  0  0
   15.3848  -15.4218   22.1495 O   0  0  0  0  0  0  0  0  0  0  0  0
   14.6015  -17.5207   22.3675 O   0  0  0  0  0  0  0  0  0  0  0  0
  2  5  1  0
  2  1  1  1
  3  2  1  0
  4  3  1  0
  5  6  2  0
  7  8  1  0
  7  5  1  0
  9 10  1  0
  8  9  1  6
 10 11  1  0
 11 12  1  0
 13 12  1  0
 14  8  1  0
 14 15  2  0
 16 17  1  0
 17 18  2  0
 17 19  1  0
 20 19  1  6
 20 21  1  0
 20 22  1  0
 21 14  1  0
 22 24  2  0
 22 23  1  0
M  END
$$$$
