CKN.pdb
     RDKit          3D

 24 23  0  0  1  0  0  0  0  0999 V2000
    7.5993  -16.9534   12.9741 N   0  0  0  0  0  0  0  0  0  0  0  0
    6.6897  -17.9895   13.4092 C   0  0  1  0  0  0  0  0  0  0  0  0
    7.0869  -19.3249   12.8186 C   0  0  0  0  0  0  0  0  0  0  0  0
    8.9069  -19.4316   13.0397 S   0  0  0  0  0  0  0  0  0  0  0  0
    6.6447  -17.9833   14.8854 C   0  0  0  0  0  0  0  0  0  0  0  0
    7.3970  -17.1781   15.4948 O   0  0  0  0  0  0  0  0  0  0  0  0
    5.8258  -18.8064   15.6794 N   0  0  0  0  0  0  0  0  0  0  0  0
    5.7421  -18.8184   17.1054 C   0  0  1  0  0  0  0  0  0  0  0  0
    4.4340  -19.4296   17.5857 C   0  0  0  0  0  0  0  0  0  0  0  0
    4.3179  -19.4425   19.0643 C   0  0  0  0  0  0  0  0  0  0  0  0
    3.1131  -20.1352   19.6003 C   0  0  0  0  0  0  0  0  0  0  0  0
    2.9812  -20.1700   21.0937 C   0  0  0  0  0  0  0  0  0  0  0  0
    1.8538  -20.8877   21.5861 N   0  0  0  0  0  0  0  0  0  0  0  0
    6.9055  -19.4810   17.7469 C   0  0  0  0  0  0  0  0  0  0  0  0
    7.3351  -20.5700   17.2515 O   0  0  0  0  0  0  0  0  0  0  0  0
   11.9778  -19.5328   19.1270 N   0  0  0  0  0  0  0  0  0  0  0  0
   11.1070  -18.9975   20.1063 C   0  0  0  0  0  0  0  0  0  0  0  0
   11.4694  -19.0135   21.3159 O   0  0  0  0  0  0  0  0  0  0  0  0
    9.7816  -18.4171   19.7682 C   0  0  0  0  0  0  0  0  0  0  0  0
    8.8507  -19.5085   19.2885 C   0  0  2  0  0  0  0  0  0  0  0  0
    7.5679  -18.9808   18.8736 N   0  0  0  0  0  0  0  0  0  0  0  0
    8.6588  -20.5310   20.3717 C   0  0  0  0  0  0  0  0  0  0  0  0
    7.5483  -20.5583   21.1997 O   0  0  0  0  0  0  0  0  0  0  0  0
    9.5283  -21.4211   20.5658 O   0  0  0  0  0  0  0  0  0  0  0  0
  2  5  1  0
  2  1  1  1
  3  2  1  0
  4  3  1  0
  5  6  2  0
  7  8  1  0
  7  5  1  0
  9 10  1  0
  8  9  1  6
 10 11  1  0
 11 12  1  0
 13 12  1  0
 14  8  1  0
 14 15  2  0
 16 17  1  0
 17 18  2  0
 17 19  1  0
 20 19  1  1
 20 21  1  0
 20 22  1  0
 21 14  1  0
 22 24  2  0
 22 23  1  0
M  END
$$$$
