CKN.pdb
     RDKit          3D

 24 23  0  0  1  0  0  0  0  0999 V2000
    9.4589  -21.4689   16.5598 N   0  0  0  0  0  0  0  0  0  0  0  0
   10.1429  -20.9471   17.7218 C   0  0  1  0  0  0  0  0  0  0  0  0
    9.3049  -21.1507   18.9652 C   0  0  0  0  0  0  0  0  0  0  0  0
   10.0954  -20.1139   20.2586 S   0  0  0  0  0  0  0  0  0  0  0  0
   11.4792  -21.5714   17.7980 C   0  0  0  0  0  0  0  0  0  0  0  0
   11.5388  -22.8203   17.9476 O   0  0  0  0  0  0  0  0  0  0  0  0
   12.7048  -20.8862   17.7165 N   0  0  0  0  0  0  0  0  0  0  0  0
   14.0123  -21.4390   17.8767 C   0  0  1  0  0  0  0  0  0  0  0  0
   14.9410  -21.0206   16.7462 C   0  0  0  0  0  0  0  0  0  0  0  0
   14.7088  -21.7916   15.5006 C   0  0  0  0  0  0  0  0  0  0  0  0
   15.5735  -21.4121   14.3487 C   0  0  0  0  0  0  0  0  0  0  0  0
   15.3584  -22.1819   13.0799 C   0  0  0  0  0  0  0  0  0  0  0  0
   16.0194  -21.6567   11.9328 N   0  0  0  0  0  0  0  0  0  0  0  0
   14.6122  -21.1300   19.1992 C   0  0  0  0  0  0  0  0  0  0  0  0
   14.4909  -19.9525   19.6624 O   0  0  0  0  0  0  0  0  0  0  0  0
   13.9466  -21.5274   23.9328 N   0  0  0  0  0  0  0  0  0  0  0  0
   14.1892  -22.4235   22.8641 C   0  0  0  0  0  0  0  0  0  0  0  0
   13.2093  -23.0211   22.3374 O   0  0  0  0  0  0  0  0  0  0  0  0
   15.5525  -22.6904   22.3366 C   0  0  0  0  0  0  0  0  0  0  0  0
   15.8885  -21.6898   21.2531 C   0  0  2  0  0  0  0  0  0  0  0  0
   15.3105  -22.0595   19.9782 N   0  0  0  0  0  0  0  0  0  0  0  0
   17.3787  -21.5578   21.1218 C   0  0  0  0  0  0  0  0  0  0  0  0
   18.0752  -20.4223   21.5026 O   0  0  0  0  0  0  0  0  0  0  0  0
   18.0605  -22.5041   20.6468 O   0  0  0  0  0  0  0  0  0  0  0  0
  2  5  1  0
  2  1  1  6
  3  2  1  0
  4  3  1  0
  5  6  2  0
  7  8  1  0
  7  5  1  0
  9 10  1  0
  8  9  1  6
 10 11  1  0
 11 12  1  0
 13 12  1  0
 14  8  1  0
 14 15  2  0
 16 17  1  0
 17 18  2  0
 17 19  1  0
 20 19  1  1
 20 21  1  0
 20 22  1  0
 21 14  1  0
 22 24  2  0
 22 23  1  0
M  END
$$$$
