CKN.pdb
     RDKit          3D

 24 23  0  0  1  0  0  0  0  0999 V2000
    5.2904  -14.3130   26.7079 N   0  0  0  0  0  0  0  0  0  0  0  0
    6.2693  -13.4828   26.0425 C   0  0  1  0  0  0  0  0  0  0  0  0
    7.2887  -12.9674   27.0350 C   0  0  0  0  0  0  0  0  0  0  0  0
    7.0821  -11.1425   27.0397 S   0  0  0  0  0  0  0  0  0  0  0  0
    6.8609  -14.2556   24.9315 C   0  0  0  0  0  0  0  0  0  0  0  0
    7.0433  -15.4896   25.1033 O   0  0  0  0  0  0  0  0  0  0  0  0
    7.2420  -13.7286   23.6844 N   0  0  0  0  0  0  0  0  0  0  0  0
    7.8363  -14.4374   22.5957 C   0  0  1  0  0  0  0  0  0  0  0  0
    7.8764  -13.5924   21.3309 C   0  0  0  0  0  0  0  0  0  0  0  0
    8.3514  -14.3534   20.1497 C   0  0  0  0  0  0  0  0  0  0  0  0
    8.1670  -13.6707   18.8388 C   0  0  0  0  0  0  0  0  0  0  0  0
    8.5875  -14.4457   17.6259 C   0  0  0  0  0  0  0  0  0  0  0  0
    8.5188  -13.7309   16.3958 N   0  0  0  0  0  0  0  0  0  0  0  0
    9.1826  -14.9721   22.9207 C   0  0  0  0  0  0  0  0  0  0  0  0
   10.0167  -14.2088   23.5015 O   0  0  0  0  0  0  0  0  0  0  0  0
    9.2223  -18.9048   25.3334 N   0  0  0  0  0  0  0  0  0  0  0  0
   10.3702  -18.1790   24.9339 C   0  0  0  0  0  0  0  0  0  0  0  0
   10.9994  -17.5109   25.8013 O   0  0  0  0  0  0  0  0  0  0  0  0
   10.8651  -18.1711   23.5328 C   0  0  0  0  0  0  0  0  0  0  0  0
   10.9107  -16.7516   23.0126 C   0  0  2  0  0  0  0  0  0  0  0  0
    9.5991  -16.2753   22.6263 N   0  0  0  0  0  0  0  0  0  0  0  0
   11.8526  -16.6633   21.8462 C   0  0  0  0  0  0  0  0  0  0  0  0
   13.1215  -16.1144   21.9368 O   0  0  0  0  0  0  0  0  0  0  0  0
   11.5064  -17.0986   20.7162 O   0  0  0  0  0  0  0  0  0  0  0  0
  2  5  1  0
  2  1  1  1
  3  2  1  0
  4  3  1  0
  5  6  2  0
  7  8  1  0
  7  5  1  0
  9 10  1  0
  8  9  1  6
 10 11  1  0
 11 12  1  0
 13 12  1  0
 14  8  1  0
 14 15  2  0
 16 17  1  0
 17 18  2  0
 17 19  1  0
 20 19  1  6
 20 21  1  0
 20 22  1  0
 21 14  1  0
 22 24  2  0
 22 23  1  0
M  END
$$$$
