CKN.pdb
     RDKit          3D

 24 23  0  0  1  0  0  0  0  0999 V2000
    8.1488  -12.7663   17.4401 N   0  0  0  0  0  0  0  0  0  0  0  0
    7.9458  -14.1466   17.8193 C   0  0  1  0  0  0  0  0  0  0  0  0
    8.7549  -15.0646   16.9291 C   0  0  0  0  0  0  0  0  0  0  0  0
   10.4970  -14.8557   17.4716 S   0  0  0  0  0  0  0  0  0  0  0  0
    8.2565  -14.2878   19.2562 C   0  0  0  0  0  0  0  0  0  0  0  0
    9.1683  -13.5639   19.7362 O   0  0  0  0  0  0  0  0  0  0  0  0
    7.6161  -15.1691   20.1458 N   0  0  0  0  0  0  0  0  0  0  0  0
    7.9563  -15.4110   21.5120 C   0  0  1  0  0  0  0  0  0  0  0  0
    6.8679  -16.1943   22.2313 C   0  0  0  0  0  0  0  0  0  0  0  0
    6.4569  -17.4127   21.4921 C   0  0  0  0  0  0  0  0  0  0  0  0
    5.4923  -18.2939   22.2074 C   0  0  0  0  0  0  0  0  0  0  0  0
    5.1396  -19.5802   21.5220 C   0  0  0  0  0  0  0  0  0  0  0  0
    4.2384  -20.4205   22.2364 N   0  0  0  0  0  0  0  0  0  0  0  0
    9.2777  -16.0689   21.6707 C   0  0  0  0  0  0  0  0  0  0  0  0
    9.5871  -17.0122   20.8769 O   0  0  0  0  0  0  0  0  0  0  0  0
   13.0039  -14.2107   20.3633 N   0  0  0  0  0  0  0  0  0  0  0  0
   13.0396  -15.4026   21.1262 C   0  0  0  0  0  0  0  0  0  0  0  0
   13.4145  -16.4711   20.5673 O   0  0  0  0  0  0  0  0  0  0  0  0
   12.6526  -15.4475   22.5601 C   0  0  0  0  0  0  0  0  0  0  0  0
   11.4896  -16.3960   22.7485 C   0  0  2  0  0  0  0  0  0  0  0  0
   10.2156  -15.7155   22.6474 N   0  0  0  0  0  0  0  0  0  0  0  0
   11.5996  -17.0839   24.0789 C   0  0  0  0  0  0  0  0  0  0  0  0
   11.9877  -16.4330   25.2387 O   0  0  0  0  0  0  0  0  0  0  0  0
   11.3346  -18.3107   24.1831 O   0  0  0  0  0  0  0  0  0  0  0  0
  2  5  1  0
  2  1  1  6
  3  2  1  0
  4  3  1  0
  5  6  2  0
  7  8  1  0
  7  5  1  0
  9 10  1  0
  8  9  1  6
 10 11  1  0
 11 12  1  0
 13 12  1  0
 14  8  1  0
 14 15  2  0
 16 17  1  0
 17 18  2  0
 17 19  1  0
 20 19  1  1
 20 21  1  0
 20 22  1  0
 21 14  1  0
 22 24  2  0
 22 23  1  0
M  END
$$$$
