HTS.pdb
     RDKit          3D

 24 24  0  0  1  0  0  0  0  0999 V2000
    8.5943  -16.8405   20.2648 N   0  0  0  0  0  0  0  0  0  0  0  0
    8.2084  -15.6564   20.9764 C   0  0  1  0  0  0  0  0  0  0  0  0
    7.0132  -15.0275   20.2994 C   0  0  0  0  0  0  0  0  0  0  0  0
    7.4797  -14.2187   19.1528 C   0  0  0  0  0  0  0  0  0  0  0  0
    8.4201  -13.2001   19.1319 C   0  0  0  0  0  0  0  0  0  0  0  0
    8.5033  -12.7703   17.8622 N   0  0  0  0  0  0  0  0  0  0  0  0
    7.6638  -13.4636   17.0746 C   0  0  0  0  0  0  0  0  0  0  0  0
    7.0424  -14.3453   17.8667 N   0  0  0  0  0  0  0  0  0  0  0  0
    7.9526  -15.9289   22.4108 C   0  0  0  0  0  0  0  0  0  0  0  0
    6.8934  -16.5674   22.6975 O   0  0  0  0  0  0  0  0  0  0  0  0
    7.6518  -18.0446   23.9172 C   0  0  0  0  0  0  0  0  0  0  0  0
    8.6948  -17.4398   24.8125 C   0  0  1  0  0  0  0  0  0  0  0  0
    9.9487  -17.8525   24.3888 O   0  0  0  0  0  0  0  0  0  0  0  0
    8.5747  -15.9231   24.7923 C   0  0  2  0  0  0  0  0  0  0  0  0
    8.8316  -15.5083   23.4335 N   0  0  0  0  0  0  0  0  0  0  0  0
    9.6005  -15.3828   25.7267 C   0  0  0  0  0  0  0  0  0  0  0  0
   10.8075  -15.4101   25.3703 O   0  0  0  0  0  0  0  0  0  0  0  0
    8.4621  -13.0309   28.8591 O   0  0  0  0  0  0  0  0  0  0  0  0
    9.8075  -13.0124   28.5765 C   0  0  0  0  0  0  0  0  0  0  0  0
   10.2898  -14.2599   27.8711 C   0  0  2  0  0  0  0  0  0  0  0  0
    9.3226  -14.8341   26.9987 N   0  0  0  0  0  0  0  0  0  0  0  0
   10.6470  -15.2397   28.9194 C   0  0  0  0  0  0  0  0  0  0  0  0
   11.4744  -14.9798   29.8323 O   0  0  0  0  0  0  0  0  0  0  0  0
   10.0463  -16.4849   28.8899 O   0  0  0  0  0  0  0  0  0  0  0  0
  2  1  1  6
  3  2  1  0
  4  5  2  0
  4  3  1  0
  6  5  1  0
  7  8  2  0
  7  6  1  0
  8  4  1  0
  9 10  2  0
  9  2  1  0
 12 11  1  6
 12 14  1  0
 13 12  1  0
 14 15  1  6
 15  9  1  0
 16 14  1  0
 17 16  2  0
 18 19  1  0
 20 19  1  1
 20 22  1  0
 20 21  1  0
 21 16  1  0
 22 24  1  0
 23 22  2  0
M  END
$$$$
