HTS.pdb
     RDKit          3D

 24 24  0  0  1  0  0  0  0  0999 V2000
    8.6802  -16.7950   17.5969 N   0  0  0  0  0  0  0  0  0  0  0  0
    9.1850  -16.4455   18.8932 C   0  0  1  0  0  0  0  0  0  0  0  0
    8.0800  -15.8234   19.7144 C   0  0  0  0  0  0  0  0  0  0  0  0
    7.6916  -14.5350   19.1015 C   0  0  0  0  0  0  0  0  0  0  0  0
    8.1097  -13.2544   19.4296 C   0  0  0  0  0  0  0  0  0  0  0  0
    7.4815  -12.4115   18.5937 N   0  0  0  0  0  0  0  0  0  0  0  0
    6.6854  -13.0908   17.7509 C   0  0  0  0  0  0  0  0  0  0  0  0
    6.8174  -14.3849   18.0650 N   0  0  0  0  0  0  0  0  0  0  0  0
    9.8003  -17.6055   19.5810 C   0  0  0  0  0  0  0  0  0  0  0  0
    9.0241  -18.5459   19.9342 O   0  0  0  0  0  0  0  0  0  0  0  0
   12.1197  -20.0166   18.3387 C   0  0  0  0  0  0  0  0  0  0  0  0
   12.7707  -19.4354   19.5608 C   0  0  1  0  0  0  0  0  0  0  0  0
   13.6743  -18.4589   19.1703 O   0  0  0  0  0  0  0  0  0  0  0  0
   11.7083  -18.8672   20.4900 C   0  0  2  0  0  0  0  0  0  0  0  0
   11.1858  -17.6864   19.8441 N   0  0  0  0  0  0  0  0  0  0  0  0
   12.3768  -18.5298   21.7770 C   0  0  0  0  0  0  0  0  0  0  0  0
   12.9194  -17.3996   21.8907 O   0  0  0  0  0  0  0  0  0  0  0  0
   12.6189  -21.3160   24.8787 O   0  0  0  0  0  0  0  0  0  0  0  0
   12.6764  -19.9984   25.2671 C   0  0  0  0  0  0  0  0  0  0  0  0
   13.0503  -19.0575   24.1440 C   0  0  2  0  0  0  0  0  0  0  0  0
   12.4510  -19.3891   22.8962 N   0  0  0  0  0  0  0  0  0  0  0  0
   14.5220  -19.1072   24.0092 C   0  0  0  0  0  0  0  0  0  0  0  0
   15.0911  -19.6144   23.0070 O   0  0  0  0  0  0  0  0  0  0  0  0
   15.2952  -18.5753   25.0247 O   0  0  0  0  0  0  0  0  0  0  0  0
  2  1  1  6
  3  2  1  0
  4  5  2  0
  4  3  1  0
  6  5  1  0
  7  8  2  0
  7  6  1  0
  8  4  1  0
  9 10  2  0
  9  2  1  0
 12 11  1  6
 12 14  1  0
 13 12  1  0
 14 15  1  6
 15  9  1  0
 16 14  1  0
 17 16  2  0
 18 19  1  0
 20 19  1  1
 20 22  1  0
 20 21  1  0
 21 16  1  0
 22 24  1  0
 23 22  2  0
M  END
$$$$
