HTS.pdb
     RDKit          3D

 24 24  0  0  1  0  0  0  0  0999 V2000
    8.2752  -16.7656   18.4117 N   0  0  0  0  0  0  0  0  0  0  0  0
    8.8325  -16.4702   19.6999 C   0  0  1  0  0  0  0  0  0  0  0  0
    7.9119  -15.5325   20.4452 C   0  0  0  0  0  0  0  0  0  0  0  0
    8.0136  -14.1831   19.8490 C   0  0  0  0  0  0  0  0  0  0  0  0
    7.0600  -13.4728   19.1360 C   0  0  0  0  0  0  0  0  0  0  0  0
    7.6168  -12.2973   18.8014 N   0  0  0  0  0  0  0  0  0  0  0  0
    8.8758  -12.2239   19.2654 C   0  0  0  0  0  0  0  0  0  0  0  0
    9.1124  -13.3763   19.9032 N   0  0  0  0  0  0  0  0  0  0  0  0
    9.1179  -17.6999   20.4769 C   0  0  0  0  0  0  0  0  0  0  0  0
    8.1498  -18.4976   20.6718 O   0  0  0  0  0  0  0  0  0  0  0  0
   10.7156  -20.5884   19.6940 C   0  0  0  0  0  0  0  0  0  0  0  0
   11.4762  -20.1134   20.8987 C   0  0  1  0  0  0  0  0  0  0  0  0
   12.6187  -19.4494   20.4789 O   0  0  0  0  0  0  0  0  0  0  0  0
   10.5903  -19.2109   21.7447 C   0  0  2  0  0  0  0  0  0  0  0  0
   10.4007  -17.9953   20.9891 N   0  0  0  0  0  0  0  0  0  0  0  0
   11.3115  -18.9487   23.0207 C   0  0  0  0  0  0  0  0  0  0  0  0
   12.0624  -17.9405   23.0870 O   0  0  0  0  0  0  0  0  0  0  0  0
   10.6763  -21.3472   26.3401 O   0  0  0  0  0  0  0  0  0  0  0  0
   11.3739  -20.1898   26.5931 C   0  0  0  0  0  0  0  0  0  0  0  0
   11.9993  -19.5836   25.3571 C   0  0  2  0  0  0  0  0  0  0  0  0
   11.2182  -19.7523   24.1791 N   0  0  0  0  0  0  0  0  0  0  0  0
   13.3129  -20.2368   25.1715 C   0  0  0  0  0  0  0  0  0  0  0  0
   13.6156  -20.8567   24.1181 O   0  0  0  0  0  0  0  0  0  0  0  0
   14.2378  -20.1598   26.1966 O   0  0  0  0  0  0  0  0  0  0  0  0
  2  1  1  6
  3  2  1  0
  4  5  2  0
  4  3  1  0
  6  5  1  0
  7  8  2  0
  7  6  1  0
  8  4  1  0
  9 10  2  0
  9  2  1  0
 12 11  1  6
 12 14  1  0
 13 12  1  0
 14 15  1  6
 15  9  1  0
 16 14  1  0
 17 16  2  0
 18 19  1  0
 20 19  1  1
 20 22  1  0
 20 21  1  0
 21 16  1  0
 22 24  1  0
 23 22  2  0
M  END
$$$$
