HTS.pdb
     RDKit          3D

 24 24  0  0  1  0  0  0  0  0999 V2000
    9.1114  -15.5247   20.6714 N   0  0  0  0  0  0  0  0  0  0  0  0
    8.3318  -14.5671   21.4012 C   0  0  1  0  0  0  0  0  0  0  0  0
    7.0739  -14.2461   20.6285 C   0  0  0  0  0  0  0  0  0  0  0  0
    7.4355  -13.9297   19.2300 C   0  0  0  0  0  0  0  0  0  0  0  0
    7.9684  -12.7590   18.7127 C   0  0  0  0  0  0  0  0  0  0  0  0
    8.1237  -12.9497   17.3923 N   0  0  0  0  0  0  0  0  0  0  0  0
    7.7165  -14.1820   17.0437 C   0  0  0  0  0  0  0  0  0  0  0  0
    7.2980  -14.7749   18.1680 N   0  0  0  0  0  0  0  0  0  0  0  0
    8.0335  -15.0275   22.7782 C   0  0  0  0  0  0  0  0  0  0  0  0
    7.1666  -14.3699   23.4321 O   0  0  0  0  0  0  0  0  0  0  0  0
    7.3272  -18.5625   24.0728 C   0  0  0  0  0  0  0  0  0  0  0  0
    8.4482  -17.9654   24.8740 C   0  0  1  0  0  0  0  0  0  0  0  0
    9.6521  -18.4859   24.4245 O   0  0  0  0  0  0  0  0  0  0  0  0
    8.4196  -16.4491   24.7502 C   0  0  2  0  0  0  0  0  0  0  0  0
    8.6710  -16.1451   23.3614 N   0  0  0  0  0  0  0  0  0  0  0  0
    9.4965  -15.9105   25.6262 C   0  0  0  0  0  0  0  0  0  0  0  0
   10.6599  -15.8164   25.1546 O   0  0  0  0  0  0  0  0  0  0  0  0
    8.6795  -13.4637   28.7561 O   0  0  0  0  0  0  0  0  0  0  0  0
    9.9876  -13.5747   28.3477 C   0  0  0  0  0  0  0  0  0  0  0  0
   10.3295  -14.9395   27.7936 C   0  0  2  0  0  0  0  0  0  0  0  0
    9.3136  -15.4907   26.9628 N   0  0  0  0  0  0  0  0  0  0  0  0
   10.5546  -15.8327   28.9504 C   0  0  0  0  0  0  0  0  0  0  0  0
    9.8861  -16.8844   29.1310 O   0  0  0  0  0  0  0  0  0  0  0  0
   11.5366  -15.4943   29.8631 O   0  0  0  0  0  0  0  0  0  0  0  0
  2  1  1  6
  3  2  1  0
  4  5  2  0
  4  3  1  0
  6  5  1  0
  7  8  2  0
  7  6  1  0
  8  4  1  0
  9 10  2  0
  9  2  1  0
 12 11  1  6
 12 14  1  0
 13 12  1  0
 14 15  1  6
 15  9  1  0
 16 14  1  0
 17 16  2  0
 18 19  1  0
 20 19  1  1
 20 22  1  0
 20 21  1  0
 21 16  1  0
 22 24  1  0
 23 22  2  0
M  END
$$$$
