HTS.pdb
     RDKit          3D

 24 24  0  0  1  0  0  0  0  0999 V2000
   13.3802  -15.3361   16.9756 N   0  0  0  0  0  0  0  0  0  0  0  0
   13.5768  -15.0461   18.3665 C   0  0  1  0  0  0  0  0  0  0  0  0
   14.1603  -13.6606   18.5157 C   0  0  0  0  0  0  0  0  0  0  0  0
   15.6007  -13.7065   18.1847 C   0  0  0  0  0  0  0  0  0  0  0  0
   16.6268  -14.3562   18.8534 C   0  0  0  0  0  0  0  0  0  0  0  0
   17.7576  -14.1051   18.1736 N   0  0  0  0  0  0  0  0  0  0  0  0
   17.5028  -13.3288   17.1068 C   0  0  0  0  0  0  0  0  0  0  0  0
   16.1863  -13.0889   17.1185 N   0  0  0  0  0  0  0  0  0  0  0  0
   12.3289  -15.2088   19.1496 C   0  0  0  0  0  0  0  0  0  0  0  0
   11.2338  -15.0078   18.5396 O   0  0  0  0  0  0  0  0  0  0  0  0
   10.2888  -17.0466   19.1829 C   0  0  0  0  0  0  0  0  0  0  0  0
   10.5516  -17.1421   20.6583 C   0  0  1  0  0  0  0  0  0  0  0  0
   11.4625  -18.1614   20.8901 O   0  0  0  0  0  0  0  0  0  0  0  0
   11.0687  -15.8085   21.1772 C   0  0  2  0  0  0  0  0  0  0  0  0
   12.3295  -15.5706   20.5151 N   0  0  0  0  0  0  0  0  0  0  0  0
   11.2469  -15.9425   22.6495 C   0  0  0  0  0  0  0  0  0  0  0  0
   12.3540  -16.3566   23.0826 O   0  0  0  0  0  0  0  0  0  0  0  0
    9.3827  -15.4199   27.1727 O   0  0  0  0  0  0  0  0  0  0  0  0
    9.2339  -15.2631   25.8150 C   0  0  0  0  0  0  0  0  0  0  0  0
   10.4308  -15.7366   25.0214 C   0  0  2  0  0  0  0  0  0  0  0  0
   10.2586  -15.6372   23.6119 N   0  0  0  0  0  0  0  0  0  0  0  0
   10.6620  -17.1503   25.3882 C   0  0  0  0  0  0  0  0  0  0  0  0
   10.0489  -18.1002   24.8338 O   0  0  0  0  0  0  0  0  0  0  0  0
   11.5867  -17.4320   26.3769 O   0  0  0  0  0  0  0  0  0  0  0  0
  2  1  1  6
  3  2  1  0
  4  5  2  0
  4  3  1  0
  6  5  1  0
  7  8  2  0
  7  6  1  0
  8  4  1  0
  9 10  2  0
  9  2  1  0
 12 11  1  6
 12 14  1  0
 13 12  1  0
 14 15  1  6
 15  9  1  0
 16 14  1  0
 17 16  2  0
 18 19  1  0
 20 19  1  1
 20 22  1  0
 20 21  1  0
 21 16  1  0
 22 24  1  0
 23 22  2  0
M  END
$$$$
