HTS.pdb
     RDKit          3D

 24 24  0  0  1  0  0  0  0  0999 V2000
    8.2571  -17.1942   19.5487 N   0  0  0  0  0  0  0  0  0  0  0  0
    8.5051  -16.5244   20.7926 C   0  0  1  0  0  0  0  0  0  0  0  0
    7.5221  -15.3894   20.9595 C   0  0  0  0  0  0  0  0  0  0  0  0
    7.9059  -14.2833   20.0563 C   0  0  0  0  0  0  0  0  0  0  0  0
    7.2550  -13.8194   18.9234 C   0  0  0  0  0  0  0  0  0  0  0  0
    7.9860  -12.8010   18.4414 N   0  0  0  0  0  0  0  0  0  0  0  0
    9.0687  -12.5938   19.2100 C   0  0  0  0  0  0  0  0  0  0  0  0
    9.0147  -13.5003   20.1929 N   0  0  0  0  0  0  0  0  0  0  0  0
    8.4726  -17.4589   21.9428 C   0  0  0  0  0  0  0  0  0  0  0  0
    7.3313  -17.8546   22.3334 O   0  0  0  0  0  0  0  0  0  0  0  0
    8.5285  -20.5801   22.0868 C   0  0  0  0  0  0  0  0  0  0  0  0
    9.7326  -20.2575   22.9243 C   0  0  1  0  0  0  0  0  0  0  0  0
   10.8571  -20.2452   22.1132 O   0  0  0  0  0  0  0  0  0  0  0  0
    9.5346  -18.9174   23.6171 C   0  0  2  0  0  0  0  0  0  0  0  0
    9.6442  -17.9051   22.5936 N   0  0  0  0  0  0  0  0  0  0  0  0
   10.6132  -18.7784   24.6342 C   0  0  0  0  0  0  0  0  0  0  0  0
   11.6348  -18.1067   24.3345 O   0  0  0  0  0  0  0  0  0  0  0  0
   10.2776  -20.6761   28.2969 O   0  0  0  0  0  0  0  0  0  0  0  0
   11.1901  -19.6477   28.2893 C   0  0  0  0  0  0  0  0  0  0  0  0
   11.6138  -19.2316   26.8987 C   0  0  2  0  0  0  0  0  0  0  0  0
   10.5804  -19.3481   25.9268 N   0  0  0  0  0  0  0  0  0  0  0  0
   12.7482  -20.0985   26.5139 C   0  0  0  0  0  0  0  0  0  0  0  0
   12.6998  -20.8725   25.5219 O   0  0  0  0  0  0  0  0  0  0  0  0
   13.9011  -20.0523   27.2759 O   0  0  0  0  0  0  0  0  0  0  0  0
  2  1  1  6
  3  2  1  0
  4  5  2  0
  4  3  1  0
  6  5  1  0
  7  8  2  0
  7  6  1  0
  8  4  1  0
  9 10  2  0
  9  2  1  0
 12 11  1  6
 12 14  1  0
 13 12  1  0
 14 15  1  6
 15  9  1  0
 16 14  1  0
 17 16  2  0
 18 19  1  0
 20 19  1  1
 20 22  1  0
 20 21  1  0
 21 16  1  0
 22 24  1  0
 23 22  2  0
M  END
$$$$
