HTS.pdb
     RDKit          3D

 24 24  0  0  1  0  0  0  0  0999 V2000
   10.4935  -16.1855   18.5012 N   0  0  0  0  0  0  0  0  0  0  0  0
   11.0089  -15.7015   19.7492 C   0  0  1  0  0  0  0  0  0  0  0  0
    9.8756  -15.1553   20.5856 C   0  0  0  0  0  0  0  0  0  0  0  0
    9.1523  -14.1287   19.8048 C   0  0  0  0  0  0  0  0  0  0  0  0
    9.4970  -12.8051   19.5781 C   0  0  0  0  0  0  0  0  0  0  0  0
    8.5294  -12.2743   18.8128 N   0  0  0  0  0  0  0  0  0  0  0  0
    7.5870  -13.1929   18.5412 C   0  0  0  0  0  0  0  0  0  0  0  0
    7.9720  -14.3216   19.1486 N   0  0  0  0  0  0  0  0  0  0  0  0
   11.7799  -16.7407   20.4722 C   0  0  0  0  0  0  0  0  0  0  0  0
   11.1755  -17.8232   20.7451 O   0  0  0  0  0  0  0  0  0  0  0  0
   14.1199  -18.9745   19.4720 C   0  0  0  0  0  0  0  0  0  0  0  0
   14.8284  -18.1927   20.5407 C   0  0  1  0  0  0  0  0  0  0  0  0
   15.5640  -17.1788   19.9464 O   0  0  0  0  0  0  0  0  0  0  0  0
   13.8148  -17.6354   21.5293 C   0  0  2  0  0  0  0  0  0  0  0  0
   13.1284  -16.5606   20.8525 N   0  0  0  0  0  0  0  0  0  0  0  0
   14.5726  -17.1358   22.7097 C   0  0  0  0  0  0  0  0  0  0  0  0
   14.9459  -15.9336   22.7156 O   0  0  0  0  0  0  0  0  0  0  0  0
   14.1708  -18.3108   26.6678 O   0  0  0  0  0  0  0  0  0  0  0  0
   15.4649  -18.2944   26.2038 C   0  0  0  0  0  0  0  0  0  0  0  0
   15.6472  -17.4481   24.9641 C   0  0  2  0  0  0  0  0  0  0  0  0
   14.9100  -17.9146   23.8393 N   0  0  0  0  0  0  0  0  0  0  0  0
   17.0904  -17.4571   24.6418 C   0  0  0  0  0  0  0  0  0  0  0  0
   17.5399  -17.9461   23.5721 O   0  0  0  0  0  0  0  0  0  0  0  0
   17.9727  -16.9067   25.5533 O   0  0  0  0  0  0  0  0  0  0  0  0
  2  1  1  6
  3  2  1  0
  4  5  2  0
  4  3  1  0
  6  5  1  0
  7  8  2  0
  7  6  1  0
  8  4  1  0
  9 10  2  0
  9  2  1  0
 12 11  1  6
 12 14  1  0
 13 12  1  0
 14 15  1  6
 15  9  1  0
 16 14  1  0
 17 16  2  0
 18 19  1  0
 20 19  1  1
 20 22  1  0
 20 21  1  0
 21 16  1  0
 22 24  1  0
 23 22  2  0
M  END
$$$$
