HTS.pdb
     RDKit          3D

 24 24  0  0  1  0  0  0  0  0999 V2000
   12.8619  -14.0930   16.9786 N   0  0  0  0  0  0  0  0  0  0  0  0
   12.8378  -14.9333   18.1408 C   0  0  1  0  0  0  0  0  0  0  0  0
   14.2511  -15.1825   18.6129 C   0  0  0  0  0  0  0  0  0  0  0  0
   15.0002  -15.8779   17.5443 C   0  0  0  0  0  0  0  0  0  0  0  0
   14.9218  -17.2044   17.1486 C   0  0  0  0  0  0  0  0  0  0  0  0
   15.7946  -17.3643   16.1404 N   0  0  0  0  0  0  0  0  0  0  0  0
   16.4240  -16.2071   15.8749 C   0  0  0  0  0  0  0  0  0  0  0  0
   15.9357  -15.3045   16.7337 N   0  0  0  0  0  0  0  0  0  0  0  0
   11.9859  -14.3708   19.2155 C   0  0  0  0  0  0  0  0  0  0  0  0
   12.3137  -13.2347   19.6773 O   0  0  0  0  0  0  0  0  0  0  0  0
    8.5077  -13.3363   19.2135 C   0  0  0  0  0  0  0  0  0  0  0  0
    8.6432  -14.3801   20.2847 C   0  0  1  0  0  0  0  0  0  0  0  0
    8.2390  -15.6049   19.7760 O   0  0  0  0  0  0  0  0  0  0  0  0
   10.0826  -14.4317   20.7751 C   0  0  2  0  0  0  0  0  0  0  0  0
   10.8541  -15.0477   19.7216 N   0  0  0  0  0  0  0  0  0  0  0  0
   10.1015  -15.2573   22.0141 C   0  0  0  0  0  0  0  0  0  0  0  0
   10.6012  -16.4113   21.9562 O   0  0  0  0  0  0  0  0  0  0  0  0
    7.7346  -14.3527   25.3099 O   0  0  0  0  0  0  0  0  0  0  0  0
    8.9258  -14.9607   25.6288 C   0  0  0  0  0  0  0  0  0  0  0  0
    9.5903  -15.6344   24.4495 C   0  0  2  0  0  0  0  0  0  0  0  0
    9.5964  -14.8424   23.2667 N   0  0  0  0  0  0  0  0  0  0  0  0
    8.8512  -16.8896   24.1947 C   0  0  0  0  0  0  0  0  0  0  0  0
    8.1964  -17.0843   23.1370 O   0  0  0  0  0  0  0  0  0  0  0  0
    8.8849  -17.8813   25.1577 O   0  0  0  0  0  0  0  0  0  0  0  0
  2  1  1  6
  3  2  1  0
  4  5  2  0
  4  3  1  0
  6  5  1  0
  7  8  2  0
  7  6  1  0
  8  4  1  0
  9 10  2  0
  9  2  1  0
 12 11  1  6
 12 14  1  0
 13 12  1  0
 14 15  1  6
 15  9  1  0
 16 14  1  0
 17 16  2  0
 18 19  1  0
 20 19  1  1
 20 22  1  0
 20 21  1  0
 21 16  1  0
 22 24  1  0
 23 22  2  0
M  END
$$$$
