HTS.pdb
     RDKit          3D

 24 24  0  0  1  0  0  0  0  0999 V2000
   13.9117  -14.2360   17.2119 N   0  0  0  0  0  0  0  0  0  0  0  0
   13.2848  -15.1507   18.1216 C   0  0  1  0  0  0  0  0  0  0  0  0
   14.3400  -15.9990   18.7919 C   0  0  0  0  0  0  0  0  0  0  0  0
   14.9229  -16.9206   17.7933 C   0  0  0  0  0  0  0  0  0  0  0  0
   14.5762  -17.0933   16.4620 C   0  0  0  0  0  0  0  0  0  0  0  0
   15.3873  -18.0421   15.9662 N   0  0  0  0  0  0  0  0  0  0  0  0
   16.2320  -18.4815   16.9144 C   0  0  0  0  0  0  0  0  0  0  0  0
   15.9444  -17.7943   18.0261 N   0  0  0  0  0  0  0  0  0  0  0  0
   12.4265  -14.4525   19.1080 C   0  0  0  0  0  0  0  0  0  0  0  0
   12.9573  -13.5074   19.7689 O   0  0  0  0  0  0  0  0  0  0  0  0
    8.9230  -12.9822   18.6619 C   0  0  0  0  0  0  0  0  0  0  0  0
    8.9150  -13.9419   19.8169 C   0  0  1  0  0  0  0  0  0  0  0  0
    8.3808  -15.1504   19.3967 O   0  0  0  0  0  0  0  0  0  0  0  0
   10.3288  -14.1172   20.3514 C   0  0  2  0  0  0  0  0  0  0  0  0
   11.0751  -14.8029   19.3231 N   0  0  0  0  0  0  0  0  0  0  0  0
   10.2375  -14.9359   21.5917 C   0  0  0  0  0  0  0  0  0  0  0  0
   10.7498  -16.0858   21.5883 O   0  0  0  0  0  0  0  0  0  0  0  0
    7.6273  -13.9354   24.6922 O   0  0  0  0  0  0  0  0  0  0  0  0
    8.7542  -14.6151   25.0899 C   0  0  0  0  0  0  0  0  0  0  0  0
    9.4613  -15.3208   23.9548 C   0  0  2  0  0  0  0  0  0  0  0  0
    9.6135  -14.5187   22.7887 N   0  0  0  0  0  0  0  0  0  0  0  0
    8.6607  -16.5192   23.6240 C   0  0  0  0  0  0  0  0  0  0  0  0
    8.4560  -17.4440   24.4536 O   0  0  0  0  0  0  0  0  0  0  0  0
    8.1201  -16.6210   22.3553 O   0  0  0  0  0  0  0  0  0  0  0  0
  2  1  1  6
  3  2  1  0
  4  5  2  0
  4  3  1  0
  6  5  1  0
  7  8  2  0
  7  6  1  0
  8  4  1  0
  9 10  2  0
  9  2  1  0
 12 11  1  6
 12 14  1  0
 13 12  1  0
 14 15  1  6
 15  9  1  0
 16 14  1  0
 17 16  2  0
 18 19  1  0
 20 19  1  1
 20 22  1  0
 20 21  1  0
 21 16  1  0
 22 24  1  0
 23 22  2  0
M  END
$$$$
