HTS.pdb
     RDKit          3D

 24 24  0  0  1  0  0  0  0  0999 V2000
    9.3310  -15.8768   15.2230 N   0  0  0  0  0  0  0  0  0  0  0  0
    8.8904  -16.5268   16.4233 C   0  0  1  0  0  0  0  0  0  0  0  0
    9.2502  -17.9929   16.3647 C   0  0  0  0  0  0  0  0  0  0  0  0
    8.5320  -18.6201   15.2345 C   0  0  0  0  0  0  0  0  0  0  0  0
    7.1672  -18.7851   15.0550 C   0  0  0  0  0  0  0  0  0  0  0  0
    6.9999  -19.4089   13.8774 N   0  0  0  0  0  0  0  0  0  0  0  0
    8.1888  -19.6491   13.2990 C   0  0  0  0  0  0  0  0  0  0  0  0
    9.1193  -19.1661   14.1308 N   0  0  0  0  0  0  0  0  0  0  0  0
    9.4294  -15.8725   17.6393 C   0  0  0  0  0  0  0  0  0  0  0  0
   10.6627  -15.5719   17.6350 O   0  0  0  0  0  0  0  0  0  0  0  0
    7.6494  -13.0022   19.5590 C   0  0  0  0  0  0  0  0  0  0  0  0
    8.1049  -14.0646   20.5177 C   0  0  1  0  0  0  0  0  0  0  0  0
    7.0215  -14.8594   20.8597 O   0  0  0  0  0  0  0  0  0  0  0  0
    9.2176  -14.8872   19.8850 C   0  0  2  0  0  0  0  0  0  0  0  0
    8.6283  -15.5848   18.7666 N   0  0  0  0  0  0  0  0  0  0  0  0
    9.7102  -15.8392   20.9185 C   0  0  0  0  0  0  0  0  0  0  0  0
    9.2979  -17.0280   20.8816 O   0  0  0  0  0  0  0  0  0  0  0  0
   13.4123  -15.9632   22.7053 O   0  0  0  0  0  0  0  0  0  0  0  0
   12.3702  -16.0053   23.6011 C   0  0  0  0  0  0  0  0  0  0  0  0
   11.0533  -16.4007   22.9717 C   0  0  2  0  0  0  0  0  0  0  0  0
   10.6165  -15.5096   21.9511 N   0  0  0  0  0  0  0  0  0  0  0  0
   10.0480  -16.4346   24.0556 C   0  0  0  0  0  0  0  0  0  0  0  0
    9.0492  -15.6681   24.0738 O   0  0  0  0  0  0  0  0  0  0  0  0
   10.2175  -17.3440   25.0834 O   0  0  0  0  0  0  0  0  0  0  0  0
  2  1  1  6
  3  2  1  0
  4  5  2  0
  4  3  1  0
  6  5  1  0
  7  8  2  0
  7  6  1  0
  8  4  1  0
  9 10  2  0
  9  2  1  0
 12 11  1  6
 12 14  1  0
 13 12  1  0
 14 15  1  6
 15  9  1  0
 16 14  1  0
 17 16  2  0
 18 19  1  0
 20 19  1  1
 20 22  1  0
 20 21  1  0
 21 16  1  0
 22 24  1  0
 23 22  2  0
M  END
$$$$
