TWA.pdb
     RDKit          3D

 27 28  0  0  1  0  0  0  0  0999 V2000
   27.1070  -20.3444  -16.6037 C   0  0  0  0  0  0  0  0  0  0  0  0
   26.9580  -21.0737  -15.3000 C   0  0  1  0  0  0  0  0  0  0  0  0
   28.1689  -21.5907  -14.8420 O   0  0  0  0  0  0  0  0  0  0  0  0
   26.4478  -20.1360  -14.2432 C   0  0  2  0  0  0  0  0  0  0  0  0
   27.3253  -19.0235  -14.0006 N   0  0  0  0  0  0  0  0  0  0  0  0
   26.1349  -20.8167  -12.9726 C   0  0  0  0  0  0  0  0  0  0  0  0
   25.4030  -21.8416  -12.9144 O   0  0  0  0  0  0  0  0  0  0  0  0
   26.6589  -20.3266  -11.7617 N   0  0  0  0  0  0  0  0  0  0  0  0
   26.3336  -20.7119  -10.4363 C   0  0  1  0  0  0  0  0  0  0  0  0
   27.3485  -20.3674   -9.3608 C   0  0  0  0  0  0  0  0  0  0  0  0
   26.8435  -20.5697   -7.9796 C   0  0  0  0  0  0  0  0  0  0  0  0
   25.7664  -21.2637   -7.4997 C   0  0  0  0  0  0  0  0  0  0  0  0
   25.7295  -21.1599   -6.1459 N   0  0  0  0  0  0  0  0  0  0  0  0
   26.7467  -20.4208   -5.7164 C   0  0  0  0  0  0  0  0  0  0  0  0
   27.1892  -20.0028   -4.4641 C   0  0  0  0  0  0  0  0  0  0  0  0
   28.3191  -19.2218   -4.3460 C   0  0  0  0  0  0  0  0  0  0  0  0
   29.0409  -18.8328   -5.4536 C   0  0  0  0  0  0  0  0  0  0  0  0
   28.5729  -19.2671   -6.6937 C   0  0  0  0  0  0  0  0  0  0  0  0
   27.4479  -20.0448   -6.8159 C   0  0  0  0  0  0  0  0  0  0  0  0
   24.9966  -20.3436   -9.9595 C   0  0  0  0  0  0  0  0  0  0  0  0
   24.7029  -19.0965   -9.9390 O   0  0  0  0  0  0  0  0  0  0  0  0
   22.3086  -19.6231   -8.7028 C   0  0  0  0  0  0  0  0  0  0  0  0
   22.5800  -20.8771   -9.4632 C   0  0  2  0  0  0  0  0  0  0  0  0
   23.9901  -21.2096   -9.5188 N   0  0  0  0  0  0  0  0  0  0  0  0
   21.9714  -20.8125  -10.8054 C   0  0  0  0  0  0  0  0  0  0  0  0
   22.6322  -21.0248  -11.8318 O   0  0  0  0  0  0  0  0  0  0  0  0
   20.6250  -20.5055  -10.9151 O   0  0  0  0  0  0  0  0  0  0  0  0
  2  1  1  6
  2  4  1  0
  3  2  1  0
  4  5  1  1
  6  4  1  0
  7  6  2  0
  8  6  1  0
  9 20  1  0
  9  8  1  0
  9 10  1  1
 11 10  1  0
 12 11  2  0
 13 12  1  0
 14 13  1  0
 14 19  2  0
 15 16  2  0
 15 14  1  0
 16 17  1  0
 17 18  2  0
 19 18  1  0
 19 11  1  0
 20 21  2  0
 23 22  1  6
 24 23  1  0
 24 20  1  0
 25 27  1  0
 25 23  1  0
 26 25  2  0
M  END
$$$$
