TWA.pdb
     RDKit          3D

 27 28  0  0  1  0  0  0  0  0999 V2000
   28.0773  -15.6356  -18.8982 C   0  0  0  0  0  0  0  0  0  0  0  0
   27.2445  -16.5729  -18.0724 C   0  0  1  0  0  0  0  0  0  0  0  0
   26.0128  -16.8474  -18.6648 O   0  0  0  0  0  0  0  0  0  0  0  0
   27.9594  -17.8836  -17.9068 C   0  0  2  0  0  0  0  0  0  0  0  0
   28.2981  -18.5067  -19.1572 N   0  0  0  0  0  0  0  0  0  0  0  0
   27.2246  -18.8357  -17.0527 C   0  0  0  0  0  0  0  0  0  0  0  0
   26.4425  -19.7053  -17.5234 O   0  0  0  0  0  0  0  0  0  0  0  0
   27.3820  -18.7964  -15.6546 N   0  0  0  0  0  0  0  0  0  0  0  0
   26.7269  -19.5763  -14.6680 C   0  0  1  0  0  0  0  0  0  0  0  0
   27.4245  -19.6973  -13.3248 C   0  0  0  0  0  0  0  0  0  0  0  0
   26.7694  -20.6545  -12.3984 C   0  0  0  0  0  0  0  0  0  0  0  0
   26.4189  -21.9683  -12.5495 C   0  0  0  0  0  0  0  0  0  0  0  0
   25.8495  -22.4185  -11.4014 N   0  0  0  0  0  0  0  0  0  0  0  0
   25.8131  -21.4454  -10.4973 C   0  0  0  0  0  0  0  0  0  0  0  0
   25.3568  -21.3485   -9.1855 C   0  0  0  0  0  0  0  0  0  0  0  0
   25.4699  -20.1629   -8.4910 C   0  0  0  0  0  0  0  0  0  0  0  0
   26.0332  -19.0451   -9.0675 C   0  0  0  0  0  0  0  0  0  0  0  0
   26.4807  -19.1734  -10.3824 C   0  0  0  0  0  0  0  0  0  0  0  0
   26.3698  -20.3521  -11.0778 C   0  0  0  0  0  0  0  0  0  0  0  0
   25.3088  -19.2813  -14.4389 C   0  0  0  0  0  0  0  0  0  0  0  0
   24.9939  -18.0635  -14.1945 O   0  0  0  0  0  0  0  0  0  0  0  0
   21.9221  -19.8963  -15.1857 C   0  0  0  0  0  0  0  0  0  0  0  0
   22.8881  -19.8809  -14.0495 C   0  0  2  0  0  0  0  0  0  0  0  0
   24.2447  -20.1894  -14.4576 N   0  0  0  0  0  0  0  0  0  0  0  0
   22.4224  -20.7602  -12.9602 C   0  0  0  0  0  0  0  0  0  0  0  0
   22.8972  -21.8916  -12.7875 O   0  0  0  0  0  0  0  0  0  0  0  0
   21.4277  -20.3035  -12.1112 O   0  0  0  0  0  0  0  0  0  0  0  0
  2  1  1  6
  2  4  1  0
  3  2  1  0
  4  5  1  6
  6  4  1  0
  7  6  2  0
  8  6  1  0
  9 20  1  0
  9  8  1  0
  9 10  1  1
 11 10  1  0
 12 11  2  0
 13 12  1  0
 14 13  1  0
 14 19  2  0
 15 16  2  0
 15 14  1  0
 16 17  1  0
 17 18  2  0
 19 18  1  0
 19 11  1  0
 20 21  2  0
 23 22  1  6
 24 23  1  0
 24 20  1  0
 25 27  1  0
 25 23  1  0
 26 25  2  0
M  END
$$$$
