TWA.pdb
     RDKit          3D

 27 28  0  0  1  0  0  0  0  0999 V2000
   28.6892  -19.5126  -15.9042 C   0  0  0  0  0  0  0  0  0  0  0  0
   27.7115  -19.7498  -14.7899 C   0  0  1  0  0  0  0  0  0  0  0  0
   26.3971  -19.4910  -15.1757 O   0  0  0  0  0  0  0  0  0  0  0  0
   27.7712  -21.1855  -14.3524 C   0  0  2  0  0  0  0  0  0  0  0  0
   27.4093  -22.1106  -15.3915 N   0  0  0  0  0  0  0  0  0  0  0  0
   26.9723  -21.4514  -13.1412 C   0  0  0  0  0  0  0  0  0  0  0  0
   25.8328  -21.9891  -13.1846 O   0  0  0  0  0  0  0  0  0  0  0  0
   27.4748  -21.1024  -11.8736 N   0  0  0  0  0  0  0  0  0  0  0  0
   26.7821  -21.0201  -10.6390 C   0  0  1  0  0  0  0  0  0  0  0  0
   27.6061  -20.6371   -9.4225 C   0  0  0  0  0  0  0  0  0  0  0  0
   26.8217  -20.5912   -8.1631 C   0  0  0  0  0  0  0  0  0  0  0  0
   25.5232  -20.9249   -7.8901 C   0  0  0  0  0  0  0  0  0  0  0  0
   25.2713  -20.7164   -6.5717 N   0  0  0  0  0  0  0  0  0  0  0  0
   26.3607  -20.2566   -5.9655 C   0  0  0  0  0  0  0  0  0  0  0  0
   26.6679  -19.8863   -4.6590 C   0  0  0  0  0  0  0  0  0  0  0  0
   27.9319  -19.4400   -4.3369 C   0  0  0  0  0  0  0  0  0  0  0  0
   28.9237  -19.3467   -5.2892 C   0  0  0  0  0  0  0  0  0  0  0  0
   28.5855  -19.7248   -6.5886 C   0  0  0  0  0  0  0  0  0  0  0  0
   27.3279  -20.1694   -6.9137 C   0  0  0  0  0  0  0  0  0  0  0  0
   25.5438  -20.2345  -10.6371 C   0  0  0  0  0  0  0  0  0  0  0  0
   25.6559  -18.9605  -10.7175 O   0  0  0  0  0  0  0  0  0  0  0  0
   23.1705  -19.7551  -12.5421 C   0  0  0  0  0  0  0  0  0  0  0  0
   23.0666  -20.0446  -11.0827 C   0  0  2  0  0  0  0  0  0  0  0  0
   24.2352  -20.7229  -10.5571 N   0  0  0  0  0  0  0  0  0  0  0  0
   21.8201  -20.7755  -10.7859 C   0  0  0  0  0  0  0  0  0  0  0  0
   20.7124  -20.2223  -10.8344 O   0  0  0  0  0  0  0  0  0  0  0  0
   21.8960  -22.1159  -10.4442 O   0  0  0  0  0  0  0  0  0  0  0  0
  2  1  1  6
  2  4  1  0
  3  2  1  0
  4  5  1  6
  6  4  1  0
  7  6  2  0
  8  6  1  0
  9 20  1  0
  9  8  1  0
  9 10  1  1
 11 10  1  0
 12 11  2  0
 13 12  1  0
 14 13  1  0
 14 19  2  0
 15 16  2  0
 15 14  1  0
 16 17  1  0
 17 18  2  0
 19 18  1  0
 19 11  1  0
 20 21  2  0
 23 22  1  6
 24 23  1  0
 24 20  1  0
 25 27  1  0
 25 23  1  0
 26 25  2  0
M  END
$$$$
