TWA.pdb
     RDKit          3D

 27 28  0  0  1  0  0  0  0  0999 V2000
   28.4482  -17.8503  -15.5223 C   0  0  0  0  0  0  0  0  0  0  0  0
   27.3801  -18.6462  -14.8297 C   0  0  1  0  0  0  0  0  0  0  0  0
   26.3147  -18.9501  -15.6758 O   0  0  0  0  0  0  0  0  0  0  0  0
   27.9462  -19.9498  -14.3432 C   0  0  2  0  0  0  0  0  0  0  0  0
   28.4851  -20.7633  -15.3988 N   0  0  0  0  0  0  0  0  0  0  0  0
   26.9838  -20.7329  -13.5456 C   0  0  0  0  0  0  0  0  0  0  0  0
   26.4618  -21.7998  -13.9684 O   0  0  0  0  0  0  0  0  0  0  0  0
   26.6141  -20.2976  -12.2591 N   0  0  0  0  0  0  0  0  0  0  0  0
   25.6834  -20.8796  -11.3614 C   0  0  1  0  0  0  0  0  0  0  0  0
   25.8404  -20.5217   -9.8942 C   0  0  0  0  0  0  0  0  0  0  0  0
   27.1818  -20.8410   -9.3443 C   0  0  0  0  0  0  0  0  0  0  0  0
   28.2206  -21.5720   -9.8528 C   0  0  0  0  0  0  0  0  0  0  0  0
   29.2524  -21.5648   -8.9694 N   0  0  0  0  0  0  0  0  0  0  0  0
   28.9292  -20.8528   -7.8951 C   0  0  0  0  0  0  0  0  0  0  0  0
   29.5851  -20.5156   -6.7141 C   0  0  0  0  0  0  0  0  0  0  0  0
   28.9618  -19.7315   -5.7669 C   0  0  0  0  0  0  0  0  0  0  0  0
   27.6808  -19.2601   -5.9563 C   0  0  0  0  0  0  0  0  0  0  0  0
   27.0501  -19.6147   -7.1488 C   0  0  0  0  0  0  0  0  0  0  0  0
   27.6670  -20.3957   -8.0947 C   0  0  0  0  0  0  0  0  0  0  0  0
   24.2674  -20.7668  -11.7261 C   0  0  0  0  0  0  0  0  0  0  0  0
   23.7642  -19.5892  -11.7713 O   0  0  0  0  0  0  0  0  0  0  0  0
   21.5364  -22.8114  -13.2904 C   0  0  0  0  0  0  0  0  0  0  0  0
   22.0340  -21.6371  -12.5172 C   0  0  2  0  0  0  0  0  0  0  0  0
   23.3904  -21.8119  -12.0356 N   0  0  0  0  0  0  0  0  0  0  0  0
   21.0979  -21.2975  -11.4289 C   0  0  0  0  0  0  0  0  0  0  0  0
   21.4404  -21.3350  -10.2387 O   0  0  0  0  0  0  0  0  0  0  0  0
   19.8025  -20.9277  -11.7521 O   0  0  0  0  0  0  0  0  0  0  0  0
  2  1  1  6
  2  4  1  0
  3  2  1  0
  4  5  1  6
  6  4  1  0
  7  6  2  0
  8  6  1  0
  9 20  1  0
  9  8  1  0
  9 10  1  1
 11 10  1  0
 12 11  2  0
 13 12  1  0
 14 13  1  0
 14 19  2  0
 15 16  2  0
 15 14  1  0
 16 17  1  0
 17 18  2  0
 19 18  1  0
 19 11  1  0
 20 21  2  0
 23 22  1  1
 24 23  1  0
 24 20  1  0
 25 27  1  0
 25 23  1  0
 26 25  2  0
M  END
$$$$
