TWA.pdb
     RDKit          3D

 27 28  0  0  1  0  0  0  0  0999 V2000
   22.6000  -15.5770  -18.5755 C   0  0  0  0  0  0  0  0  0  0  0  0
   24.0044  -15.0511  -18.5062 C   0  0  1  0  0  0  0  0  0  0  0  0
   24.8161  -15.5767  -19.5103 O   0  0  0  0  0  0  0  0  0  0  0  0
   24.0018  -13.5583  -18.6736 C   0  0  2  0  0  0  0  0  0  0  0  0
   25.3212  -12.9964  -18.7728 N   0  0  0  0  0  0  0  0  0  0  0  0
   23.2363  -12.8629  -17.6219 C   0  0  0  0  0  0  0  0  0  0  0  0
   22.1526  -13.3134  -17.1613 O   0  0  0  0  0  0  0  0  0  0  0  0
   23.7085  -11.6473  -17.0922 N   0  0  0  0  0  0  0  0  0  0  0  0
   23.0745  -10.7795  -16.1670 C   0  0  1  0  0  0  0  0  0  0  0  0
   23.9835   -9.8873  -15.3405 C   0  0  0  0  0  0  0  0  0  0  0  0
   23.2533   -9.0108  -14.3908 C   0  0  0  0  0  0  0  0  0  0  0  0
   22.5108   -9.2980  -13.2780 C   0  0  0  0  0  0  0  0  0  0  0  0
   22.0499   -8.1427  -12.7324 N   0  0  0  0  0  0  0  0  0  0  0  0
   22.4641   -7.1024  -13.4478 C   0  0  0  0  0  0  0  0  0  0  0  0
   22.2996   -5.7232  -13.3505 C   0  0  0  0  0  0  0  0  0  0  0  0
   22.8790   -4.8822  -14.2766 C   0  0  0  0  0  0  0  0  0  0  0  0
   23.6330   -5.3749  -15.3196 C   0  0  0  0  0  0  0  0  0  0  0  0
   23.7796   -6.7602  -15.3903 C   0  0  0  0  0  0  0  0  0  0  0  0
   23.2040   -7.6014  -14.4704 C   0  0  0  0  0  0  0  0  0  0  0  0
   21.9645   -9.9729  -16.6845 C   0  0  0  0  0  0  0  0  0  0  0  0
   22.1900   -9.2632  -17.7274 O   0  0  0  0  0  0  0  0  0  0  0  0
   18.3665   -9.9803  -17.0014 C   0  0  0  0  0  0  0  0  0  0  0  0
   19.5812   -9.1461  -16.7706 C   0  0  2  0  0  0  0  0  0  0  0  0
   20.6688   -9.8884  -16.1637 N   0  0  0  0  0  0  0  0  0  0  0  0
   19.2401   -7.9336  -16.0027 C   0  0  0  0  0  0  0  0  0  0  0  0
   18.4153   -7.1083  -16.4197 O   0  0  0  0  0  0  0  0  0  0  0  0
   19.8616   -7.7172  -14.7837 O   0  0  0  0  0  0  0  0  0  0  0  0
  2  1  1  6
  2  4  1  0
  3  2  1  0
  4  5  1  1
  6  4  1  0
  7  6  2  0
  8  6  1  0
  9 20  1  0
  9  8  1  0
  9 10  1  6
 11 10  1  0
 12 11  2  0
 13 12  1  0
 14 13  1  0
 14 19  2  0
 15 16  2  0
 15 14  1  0
 16 17  1  0
 17 18  2  0
 19 18  1  0
 19 11  1  0
 20 21  2  0
 23 22  1  1
 24 23  1  0
 24 20  1  0
 25 27  1  0
 25 23  1  0
 26 25  2  0
M  END
$$$$
