TWA.pdb
     RDKit          3D

 27 28  0  0  1  0  0  0  0  0999 V2000
   29.1674  -22.9885  -17.7192 C   0  0  0  0  0  0  0  0  0  0  0  0
   27.8025  -22.6349  -17.2036 C   0  0  1  0  0  0  0  0  0  0  0  0
   26.7957  -22.9453  -18.1164 O   0  0  0  0  0  0  0  0  0  0  0  0
   27.5141  -23.4044  -15.9461 C   0  0  2  0  0  0  0  0  0  0  0  0
   27.5659  -24.8293  -16.1288 N   0  0  0  0  0  0  0  0  0  0  0  0
   26.2344  -23.0235  -15.3193 C   0  0  0  0  0  0  0  0  0  0  0  0
   25.3085  -23.8531  -15.1092 O   0  0  0  0  0  0  0  0  0  0  0  0
   26.0085  -21.6900  -14.9301 N   0  0  0  0  0  0  0  0  0  0  0  0
   24.8676  -21.1338  -14.2976 C   0  0  1  0  0  0  0  0  0  0  0  0
   25.1161  -19.9816  -13.3405 C   0  0  0  0  0  0  0  0  0  0  0  0
   25.3979  -20.4145  -11.9488 C   0  0  0  0  0  0  0  0  0  0  0  0
   26.5728  -20.6919  -11.3049 C   0  0  0  0  0  0  0  0  0  0  0  0
   26.3110  -21.0409  -10.0186 N   0  0  0  0  0  0  0  0  0  0  0  0
   25.0023  -21.0027   -9.7920 C   0  0  0  0  0  0  0  0  0  0  0  0
   24.1956  -21.2528   -8.6851 C   0  0  0  0  0  0  0  0  0  0  0  0
   22.8266  -21.1150   -8.7714 C   0  0  0  0  0  0  0  0  0  0  0  0
   22.2174  -20.7287   -9.9456 C   0  0  0  0  0  0  0  0  0  0  0  0
   23.0518  -20.4855  -11.0366 C   0  0  0  0  0  0  0  0  0  0  0  0
   24.4156  -20.6218  -10.9552 C   0  0  0  0  0  0  0  0  0  0  0  0
   23.7414  -20.7878  -15.1710 C   0  0  0  0  0  0  0  0  0  0  0  0
   23.9800  -20.0008  -16.1536 O   0  0  0  0  0  0  0  0  0  0  0  0
   20.8636  -21.8270  -16.8515 C   0  0  0  0  0  0  0  0  0  0  0  0
   21.3230  -20.7802  -15.8937 C   0  0  2  0  0  0  0  0  0  0  0  0
   22.4177  -21.2251  -15.0535 N   0  0  0  0  0  0  0  0  0  0  0  0
   20.1888  -20.2670  -15.1022 C   0  0  0  0  0  0  0  0  0  0  0  0
   20.1612  -20.3589  -13.8669 O   0  0  0  0  0  0  0  0  0  0  0  0
   19.1291  -19.6675  -15.7631 O   0  0  0  0  0  0  0  0  0  0  0  0
  2  1  1  6
  2  4  1  0
  3  2  1  0
  4  5  1  6
  6  4  1  0
  7  6  2  0
  8  6  1  0
  9 20  1  0
  9  8  1  0
  9 10  1  6
 11 10  1  0
 12 11  2  0
 13 12  1  0
 14 13  1  0
 14 19  2  0
 15 16  2  0
 15 14  1  0
 16 17  1  0
 17 18  2  0
 19 18  1  0
 19 11  1  0
 20 21  2  0
 23 22  1  1
 24 23  1  0
 24 20  1  0
 25 27  1  0
 25 23  1  0
 26 25  2  0
M  END
$$$$
