TWA.pdb
     RDKit          3D

 27 28  0  0  1  0  0  0  0  0999 V2000
   11.8903  -15.2229    5.9324 C   0  0  0  0  0  0  0  0  0  0  0  0
   13.0412  -16.1606    5.7086 C   0  0  1  0  0  0  0  0  0  0  0  0
   12.9925  -17.2686    6.5531 O   0  0  0  0  0  0  0  0  0  0  0  0
   13.0157  -16.6762    4.2980 C   0  0  2  0  0  0  0  0  0  0  0  0
   11.7843  -17.3349    3.9571 N   0  0  0  0  0  0  0  0  0  0  0  0
   14.1592  -17.5540    3.9856 C   0  0  0  0  0  0  0  0  0  0  0  0
   14.0535  -18.8086    3.9210 O   0  0  0  0  0  0  0  0  0  0  0  0
   15.4302  -16.9989    3.7456 N   0  0  0  0  0  0  0  0  0  0  0  0
   16.6396  -17.6643    3.4211 C   0  0  1  0  0  0  0  0  0  0  0  0
   17.7010  -16.8382    2.7167 C   0  0  0  0  0  0  0  0  0  0  0  0
   18.4482  -17.5906    1.6778 C   0  0  0  0  0  0  0  0  0  0  0  0
   18.1069  -18.6813    0.9256 C   0  0  0  0  0  0  0  0  0  0  0  0
   19.1347  -18.9963    0.0953 N   0  0  0  0  0  0  0  0  0  0  0  0
   20.1428  -18.1494    0.2743 C   0  0  0  0  0  0  0  0  0  0  0  0
   21.4060  -18.0019   -0.2925 C   0  0  0  0  0  0  0  0  0  0  0  0
   22.2429  -16.9862    0.1182 C   0  0  0  0  0  0  0  0  0  0  0  0
   21.8600  -16.0920    1.0943 C   0  0  0  0  0  0  0  0  0  0  0  0
   20.5893  -16.2657    1.6429 C   0  0  0  0  0  0  0  0  0  0  0  0
   19.7527  -17.2759    1.2371 C   0  0  0  0  0  0  0  0  0  0  0  0
   17.2743  -18.4272    4.5009 C   0  0  0  0  0  0  0  0  0  0  0  0
   17.6224  -17.7808    5.5511 O   0  0  0  0  0  0  0  0  0  0  0  0
   19.4691  -20.4537    5.8904 C   0  0  0  0  0  0  0  0  0  0  0  0
   17.9950  -20.5392    5.6803 C   0  0  2  0  0  0  0  0  0  0  0  0
   17.5467  -19.7993    4.5168 N   0  0  0  0  0  0  0  0  0  0  0  0
   17.2723  -20.1417    6.9034 C   0  0  0  0  0  0  0  0  0  0  0  0
   16.3601  -19.3036    6.8784 O   0  0  0  0  0  0  0  0  0  0  0  0
   17.6274  -20.7241    8.1091 O   0  0  0  0  0  0  0  0  0  0  0  0
  2  1  1  1
  2  4  1  0
  3  2  1  0
  4  5  1  1
  6  4  1  0
  7  6  2  0
  8  6  1  0
  9 20  1  0
  9  8  1  0
  9 10  1  1
 11 10  1  0
 12 11  2  0
 13 12  1  0
 14 13  1  0
 14 19  2  0
 15 16  2  0
 15 14  1  0
 16 17  1  0
 17 18  2  0
 19 18  1  0
 19 11  1  0
 20 21  2  0
 23 22  1  1
 24 23  1  0
 24 20  1  0
 25 27  1  0
 25 23  1  0
 26 25  2  0
M  END
$$$$
