TWA.pdb
     RDKit          3D

 27 28  0  0  1  0  0  0  0  0999 V2000
   21.6557  -12.4361    7.6073 C   0  0  0  0  0  0  0  0  0  0  0  0
   20.7052  -11.4836    6.9416 C   0  0  1  0  0  0  0  0  0  0  0  0
   21.3688  -10.4663    6.2574 O   0  0  0  0  0  0  0  0  0  0  0  0
   19.8630  -12.2177    5.9374 C   0  0  2  0  0  0  0  0  0  0  0  0
   18.9362  -11.3656    5.2435 N   0  0  0  0  0  0  0  0  0  0  0  0
   19.1490  -13.3703    6.5184 C   0  0  0  0  0  0  0  0  0  0  0  0
   18.1462  -13.2379    7.2709 O   0  0  0  0  0  0  0  0  0  0  0  0
   19.5804  -14.6808    6.2402 N   0  0  0  0  0  0  0  0  0  0  0  0
   19.0636  -15.9060    6.7330 C   0  0  1  0  0  0  0  0  0  0  0  0
   18.8246  -17.0023    5.7101 C   0  0  0  0  0  0  0  0  0  0  0  0
   17.7619  -16.6766    4.7262 C   0  0  0  0  0  0  0  0  0  0  0  0
   17.0377  -15.5347    4.5172 C   0  0  0  0  0  0  0  0  0  0  0  0
   16.1827  -15.7261    3.4793 N   0  0  0  0  0  0  0  0  0  0  0  0
   16.3189  -16.9563    2.9960 C   0  0  0  0  0  0  0  0  0  0  0  0
   15.7190  -17.6710    1.9626 C   0  0  0  0  0  0  0  0  0  0  0  0
   16.0956  -18.9710    1.7001 C   0  0  0  0  0  0  0  0  0  0  0  0
   17.0694  -19.5998    2.4455 C   0  0  0  0  0  0  0  0  0  0  0  0
   17.6516  -18.8582    3.4734 C   0  0  0  0  0  0  0  0  0  0  0  0
   17.2793  -17.5635    3.7384 C   0  0  0  0  0  0  0  0  0  0  0  0
   19.7499  -16.4838    7.8931 C   0  0  0  0  0  0  0  0  0  0  0  0
   21.0285  -16.5533    7.8449 O   0  0  0  0  0  0  0  0  0  0  0  0
   19.0720  -17.7007   11.4033 C   0  0  0  0  0  0  0  0  0  0  0  0
   19.8859  -17.5883   10.1586 C   0  0  2  0  0  0  0  0  0  0  0  0
   19.1609  -16.9743    9.0634 N   0  0  0  0  0  0  0  0  0  0  0  0
   20.4483  -18.9001    9.7858 C   0  0  0  0  0  0  0  0  0  0  0  0
   20.0024  -19.5535    8.8321 O   0  0  0  0  0  0  0  0  0  0  0  0
   21.5029  -19.4102   10.5253 O   0  0  0  0  0  0  0  0  0  0  0  0
  2  1  1  6
  2  4  1  0
  3  2  1  0
  4  5  1  1
  6  4  1  0
  7  6  2  0
  8  6  1  0
  9 20  1  0
  9  8  1  0
  9 10  1  6
 11 10  1  0
 12 11  2  0
 13 12  1  0
 14 13  1  0
 14 19  2  0
 15 16  2  0
 15 14  1  0
 16 17  1  0
 17 18  2  0
 19 18  1  0
 19 11  1  0
 20 21  2  0
 23 22  1  1
 24 23  1  0
 24 20  1  0
 25 27  1  0
 25 23  1  0
 26 25  2  0
M  END
$$$$
