VVR.pdb
     RDKit          3D

 26 25  0  0  1  0  0  0  0  0999 V2000
   18.8224  -21.1164  -13.3634 C   0  0  0  0  0  0  0  0  0  0  0  0
   20.0207  -21.1860  -14.2671 C   0  0  1  0  0  0  0  0  0  0  0  0
   19.7781  -20.5362  -15.5911 C   0  0  0  0  0  0  0  0  0  0  0  0
   21.2539  -20.6648  -13.5606 C   0  0  2  0  0  0  0  0  0  0  0  0
   22.4333  -20.7367  -14.3694 N   0  0  0  0  0  0  0  0  0  0  0  0
   21.4794  -21.3548  -12.2692 C   0  0  0  0  0  0  0  0  0  0  0  0
   21.8939  -22.5516  -12.2562 O   0  0  0  0  0  0  0  0  0  0  0  0
   21.3104  -19.2061   -8.6778 C   0  0  0  0  0  0  0  0  0  0  0  0
   22.1069  -20.4566   -8.7670 C   0  0  1  0  0  0  0  0  0  0  0  0
   22.2949  -21.0587   -7.3917 C   0  0  0  0  0  0  0  0  0  0  0  0
   21.5569  -21.4620   -9.7535 C   0  0  2  0  0  0  0  0  0  0  0  0
   21.2559  -20.7490  -11.0027 N   0  0  0  0  0  0  0  0  0  0  0  0
   20.2651  -21.9686   -9.2263 C   0  0  0  0  0  0  0  0  0  0  0  0
   19.1839  -21.4158   -9.6234 O   0  0  0  0  0  0  0  0  0  0  0  0
   16.5661  -28.3213  -12.2991 N   0  0  0  0  0  0  0  0  0  0  0  0
   15.6219  -28.0623  -11.2771 C   0  0  0  0  0  0  0  0  0  0  0  0
   14.5022  -28.7073  -11.3389 N   0  0  0  0  0  0  0  0  0  0  0  0
   15.9006  -27.1359  -10.2379 N   0  0  0  0  0  0  0  0  0  0  0  0
   17.1846  -26.5227  -10.1216 C   0  0  0  0  0  0  0  0  0  0  0  0
   17.3277  -25.4755   -9.0991 C   0  0  0  0  0  0  0  0  0  0  0  0
   18.5564  -24.6967   -9.0215 C   0  0  0  0  0  0  0  0  0  0  0  0
   18.7134  -23.5909   -8.0385 C   0  0  2  0  0  0  0  0  0  0  0  0
   20.1066  -23.0174   -8.3198 N   0  0  0  0  0  0  0  0  0  0  0  0
   18.7418  -23.9552   -6.6076 C   0  0  0  0  0  0  0  0  0  0  0  0
   19.8729  -24.0173   -5.9838 O   0  0  0  0  0  0  0  0  0  0  0  0
   17.6687  -24.2442   -5.8082 O   0  0  0  0  0  0  0  0  0  0  0  0
  2  4  1  0
  2  1  1  1
  3  2  1  0
  4  5  1  6
  6  7  2  0
  6  4  1  0
  9  8  1  1
  9 11  1  0
 10  9  1  0
 11 12  1  6
 12  6  1  0
 13 23  1  0
 13 11  1  0
 14 13  2  0
 16 15  1  0
 17 16  2  0
 18 16  1  0
 19 20  1  0
 19 18  1  0
 20 21  1  0
 22 23  1  0
 22 21  1  6
 24 22  1  0
 25 24  2  0
 26 24  1  0
M  END
$$$$
