VVR.pdb
     RDKit          3D

 26 25  0  0  1  0  0  0  0  0999 V2000
   21.4786  -16.4566  -17.4643 C   0  0  0  0  0  0  0  0  0  0  0  0
   22.1488  -17.6005  -16.7574 C   0  0  1  0  0  0  0  0  0  0  0  0
   21.2521  -18.7871  -16.6101 C   0  0  0  0  0  0  0  0  0  0  0  0
   23.4749  -17.9286  -17.4098 C   0  0  2  0  0  0  0  0  0  0  0  0
   23.3370  -18.3669  -18.7659 N   0  0  0  0  0  0  0  0  0  0  0  0
   24.2392  -18.9276  -16.6271 C   0  0  0  0  0  0  0  0  0  0  0  0
   24.0757  -20.1638  -16.8495 O   0  0  0  0  0  0  0  0  0  0  0  0
   27.9552  -19.1858  -16.4042 C   0  0  0  0  0  0  0  0  0  0  0  0
   27.4231  -19.2128  -15.0177 C   0  0  1  0  0  0  0  0  0  0  0  0
   27.6860  -17.8919  -14.3284 C   0  0  0  0  0  0  0  0  0  0  0  0
   25.9684  -19.6164  -14.9296 C   0  0  2  0  0  0  0  0  0  0  0  0
   25.1731  -18.5858  -15.6113 N   0  0  0  0  0  0  0  0  0  0  0  0
   25.5674  -19.5929  -13.5007 C   0  0  0  0  0  0  0  0  0  0  0  0
   25.2895  -18.4681  -12.9621 O   0  0  0  0  0  0  0  0  0  0  0  0
   21.0401  -22.8308  -13.3721 N   0  0  0  0  0  0  0  0  0  0  0  0
   20.2334  -21.6715  -13.2807 C   0  0  0  0  0  0  0  0  0  0  0  0
   19.2106  -21.6077  -14.0703 N   0  0  0  0  0  0  0  0  0  0  0  0
   20.5416  -20.6333  -12.3626 N   0  0  0  0  0  0  0  0  0  0  0  0
   21.8659  -20.1101  -12.2585 C   0  0  0  0  0  0  0  0  0  0  0  0
   22.5795  -20.3615  -10.9974 C   0  0  0  0  0  0  0  0  0  0  0  0
   23.8018  -21.1539  -10.9980 C   0  0  0  0  0  0  0  0  0  0  0  0
   25.1367  -20.5213  -11.1762 C   0  0  2  0  0  0  0  0  0  0  0  0
   25.4565  -20.7040  -12.6639 N   0  0  0  0  0  0  0  0  0  0  0  0
   26.2783  -21.1380  -10.4707 C   0  0  0  0  0  0  0  0  0  0  0  0
   27.0603  -21.9505  -11.1036 O   0  0  0  0  0  0  0  0  0  0  0  0
   26.6426  -20.9461   -9.1652 O   0  0  0  0  0  0  0  0  0  0  0  0
  2  4  1  0
  2  1  1  6
  3  2  1  0
  4  5  1  6
  6  7  2  0
  6  4  1  0
  9  8  1  6
  9 11  1  0
 10  9  1  0
 11 12  1  6
 12  6  1  0
 13 23  1  0
 13 11  1  0
 14 13  2  0
 16 15  1  0
 17 16  2  0
 18 16  1  0
 19 20  1  0
 19 18  1  0
 20 21  1  0
 22 23  1  0
 22 21  1  1
 24 22  1  0
 25 24  2  0
 26 24  1  0
M  END
$$$$
