VVR.pdb
     RDKit          3D

 26 25  0  0  1  0  0  0  0  0999 V2000
   13.5707  -21.8080    1.5513 C   0  0  0  0  0  0  0  0  0  0  0  0
   14.8191  -22.4402    1.0043 C   0  0  1  0  0  0  0  0  0  0  0  0
   15.6940  -23.0025    2.0778 C   0  0  0  0  0  0  0  0  0  0  0  0
   14.4804  -23.4419   -0.0790 C   0  0  2  0  0  0  0  0  0  0  0  0
   13.6684  -24.5224    0.3936 N   0  0  0  0  0  0  0  0  0  0  0  0
   15.6975  -23.9702   -0.7379 C   0  0  0  0  0  0  0  0  0  0  0  0
   16.4794  -23.1813   -1.3466 O   0  0  0  0  0  0  0  0  0  0  0  0
   16.6697  -28.0652   -0.4819 C   0  0  0  0  0  0  0  0  0  0  0  0
   17.7494  -27.0635   -0.6744 C   0  0  1  0  0  0  0  0  0  0  0  0
   18.9404  -27.6997   -1.3571 C   0  0  0  0  0  0  0  0  0  0  0  0
   17.2972  -25.8064   -1.3827 C   0  0  2  0  0  0  0  0  0  0  0  0
   16.0616  -25.3444   -0.7352 N   0  0  0  0  0  0  0  0  0  0  0  0
   16.9423  -26.1642   -2.7789 C   0  0  0  0  0  0  0  0  0  0  0  0
   15.7802  -26.6418   -3.0110 O   0  0  0  0  0  0  0  0  0  0  0  0
   19.9473  -23.2764  -10.4916 N   0  0  0  0  0  0  0  0  0  0  0  0
   18.8046  -24.0188  -10.8741 C   0  0  0  0  0  0  0  0  0  0  0  0
   18.6338  -24.2171  -12.1410 N   0  0  0  0  0  0  0  0  0  0  0  0
   17.8948  -24.5172   -9.9047 N   0  0  0  0  0  0  0  0  0  0  0  0
   18.1702  -24.4044   -8.5084 C   0  0  0  0  0  0  0  0  0  0  0  0
   17.6215  -25.4556   -7.6386 C   0  0  0  0  0  0  0  0  0  0  0  0
   17.8188  -25.3844   -6.1971 C   0  0  0  0  0  0  0  0  0  0  0  0
   17.2619  -26.4201   -5.2855 C   0  0  2  0  0  0  0  0  0  0  0  0
   17.7691  -26.0250   -3.8942 N   0  0  0  0  0  0  0  0  0  0  0  0
   17.7286  -27.8088   -5.4722 C   0  0  0  0  0  0  0  0  0  0  0  0
   18.8225  -28.1998   -4.9039 O   0  0  0  0  0  0  0  0  0  0  0  0
   17.1181  -28.7934   -6.2015 O   0  0  0  0  0  0  0  0  0  0  0  0
  2  4  1  0
  2  1  1  1
  3  2  1  0
  4  5  1  1
  6  7  2  0
  6  4  1  0
  9  8  1  6
  9 11  1  0
 10  9  1  0
 11 12  1  1
 12  6  1  0
 13 23  1  0
 13 11  1  0
 14 13  2  0
 16 15  1  0
 17 16  2  0
 18 16  1  0
 19 20  1  0
 19 18  1  0
 20 21  1  0
 22 23  1  0
 22 21  1  6
 24 22  1  0
 25 24  2  0
 26 24  1  0
M  END
$$$$
