VVR.pdb
     RDKit          3D

 26 25  0  0  1  0  0  0  0  0999 V2000
   27.3960  -33.9225   -3.4462 C   0  0  0  0  0  0  0  0  0  0  0  0
   26.8369  -34.3459   -4.7749 C   0  0  1  0  0  0  0  0  0  0  0  0
   25.6549  -33.5285   -5.1857 C   0  0  0  0  0  0  0  0  0  0  0  0
   27.9277  -34.3916   -5.8236 C   0  0  2  0  0  0  0  0  0  0  0  0
   27.4576  -34.8406   -7.0993 N   0  0  0  0  0  0  0  0  0  0  0  0
   29.0765  -35.2176   -5.3848 C   0  0  0  0  0  0  0  0  0  0  0  0
   29.0031  -36.4810   -5.4376 O   0  0  0  0  0  0  0  0  0  0  0  0
   33.7036  -34.6834   -3.8915 C   0  0  0  0  0  0  0  0  0  0  0  0
   32.7014  -34.7644   -4.9847 C   0  0  1  0  0  0  0  0  0  0  0  0
   33.3423  -35.3005   -6.2461 C   0  0  0  0  0  0  0  0  0  0  0  0
   31.4539  -35.5342   -4.6138 C   0  0  2  0  0  0  0  0  0  0  0  0
   30.2948  -34.6750   -4.8927 N   0  0  0  0  0  0  0  0  0  0  0  0
   31.4727  -35.7673   -3.1480 C   0  0  0  0  0  0  0  0  0  0  0  0
   31.1494  -34.8053   -2.3718 O   0  0  0  0  0  0  0  0  0  0  0  0
   31.4984  -42.4683    2.0287 N   0  0  0  0  0  0  0  0  0  0  0  0
   30.6150  -41.6587    2.7818 C   0  0  0  0  0  0  0  0  0  0  0  0
   30.4261  -41.9927    4.0173 N   0  0  0  0  0  0  0  0  0  0  0  0
   29.9712  -40.5356    2.1987 N   0  0  0  0  0  0  0  0  0  0  0  0
   30.2142  -40.1695    0.8403 C   0  0  0  0  0  0  0  0  0  0  0  0
   30.9679  -38.9271    0.6144 C   0  0  0  0  0  0  0  0  0  0  0  0
   31.1162  -38.4008   -0.7358 C   0  0  0  0  0  0  0  0  0  0  0  0
   31.7425  -37.0748   -0.9874 C   0  0  2  0  0  0  0  0  0  0  0  0
   31.8129  -36.9630   -2.5143 N   0  0  0  0  0  0  0  0  0  0  0  0
   33.1357  -36.8867   -0.5348 C   0  0  0  0  0  0  0  0  0  0  0  0
   34.1095  -37.0575   -1.3685 O   0  0  0  0  0  0  0  0  0  0  0  0
   33.5550  -36.5279    0.7179 O   0  0  0  0  0  0  0  0  0  0  0  0
  2  4  1  0
  2  1  1  1
  3  2  1  0
  4  5  1  6
  6  7  2  0
  6  4  1  0
  9  8  1  1
  9 11  1  0
 10  9  1  0
 11 12  1  1
 12  6  1  0
 13 23  1  0
 13 11  1  0
 14 13  2  0
 16 15  1  0
 17 16  2  0
 18 16  1  0
 19 20  1  0
 19 18  1  0
 20 21  1  0
 22 23  1  0
 22 21  1  6
 24 22  1  0
 25 24  2  0
 26 24  1  0
M  END
$$$$
