VVR.pdb
     RDKit          3D

 26 25  0  0  1  0  0  0  0  0999 V2000
   27.7108  -20.4682  -15.5882 C   0  0  0  0  0  0  0  0  0  0  0  0
   26.3608  -19.9441  -15.1880 C   0  0  1  0  0  0  0  0  0  0  0  0
   25.7048  -19.1593  -16.2779 C   0  0  0  0  0  0  0  0  0  0  0  0
   25.4928  -21.0605  -14.6476 C   0  0  2  0  0  0  0  0  0  0  0  0
   25.2036  -22.0662  -15.6248 N   0  0  0  0  0  0  0  0  0  0  0  0
   24.2343  -20.5427  -14.0621 C   0  0  0  0  0  0  0  0  0  0  0  0
   24.2754  -19.7598  -13.0673 O   0  0  0  0  0  0  0  0  0  0  0  0
   21.6165  -18.2914  -15.2263 C   0  0  0  0  0  0  0  0  0  0  0  0
   20.9427  -19.5622  -14.8557 C   0  0  1  0  0  0  0  0  0  0  0  0
   20.5696  -20.3406  -16.0983 C   0  0  0  0  0  0  0  0  0  0  0  0
   21.7259  -20.4053  -13.8747 C   0  0  2  0  0  0  0  0  0  0  0  0
   22.9421  -20.8734  -14.5537 N   0  0  0  0  0  0  0  0  0  0  0  0
   20.9213  -21.6110  -13.5553 C   0  0  0  0  0  0  0  0  0  0  0  0
   20.9666  -22.6058  -14.3559 O   0  0  0  0  0  0  0  0  0  0  0  0
   18.6747  -25.0966   -5.9075 N   0  0  0  0  0  0  0  0  0  0  0  0
   18.5914  -26.1460   -6.8535 C   0  0  0  0  0  0  0  0  0  0  0  0
   18.6043  -27.3535   -6.3894 N   0  0  0  0  0  0  0  0  0  0  0  0
   18.4989  -25.8751   -8.2442 N   0  0  0  0  0  0  0  0  0  0  0  0
   18.4481  -24.5344   -8.7323 C   0  0  0  0  0  0  0  0  0  0  0  0
   18.4755  -24.3602  -10.1923 C   0  0  0  0  0  0  0  0  0  0  0  0
   19.2091  -23.2468  -10.7790 C   0  0  0  0  0  0  0  0  0  0  0  0
   19.2977  -23.0667  -12.2533 C   0  0  2  0  0  0  0  0  0  0  0  0
   20.1014  -21.7750  -12.4383 N   0  0  0  0  0  0  0  0  0  0  0  0
   18.0362  -22.8292  -12.9838 C   0  0  0  0  0  0  0  0  0  0  0  0
   17.5794  -21.6249  -13.1002 O   0  0  0  0  0  0  0  0  0  0  0  0
   17.2473  -23.7665  -13.5945 O   0  0  0  0  0  0  0  0  0  0  0  0
  2  4  1  0
  2  1  1  6
  3  2  1  0
  4  5  1  6
  6  7  2  0
  6  4  1  0
  9  8  1  6
  9 11  1  0
 10  9  1  0
 11 12  1  6
 12  6  1  0
 13 23  1  0
 13 11  1  0
 14 13  2  0
 16 15  1  0
 17 16  2  0
 18 16  1  0
 19 20  1  0
 19 18  1  0
 20 21  1  0
 22 23  1  0
 22 21  1  1
 24 22  1  0
 25 24  2  0
 26 24  1  0
M  END
$$$$
