VVR.pdb
     RDKit          3D

 26 25  0  0  1  0  0  0  0  0999 V2000
   19.8273  -32.1778  -11.1122 C   0  0  0  0  0  0  0  0  0  0  0  0
   19.8277  -30.7293  -10.7134 C   0  0  1  0  0  0  0  0  0  0  0  0
   19.8205  -30.5435   -9.2303 C   0  0  0  0  0  0  0  0  0  0  0  0
   20.9496  -29.9848  -11.4052 C   0  0  2  0  0  0  0  0  0  0  0  0
   22.2353  -30.5705  -11.1727 N   0  0  0  0  0  0  0  0  0  0  0  0
   20.9684  -28.5511  -11.0326 C   0  0  0  0  0  0  0  0  0  0  0  0
   21.8591  -28.1146  -10.2449 O   0  0  0  0  0  0  0  0  0  0  0  0
   20.9427  -25.3947  -13.3581 C   0  0  0  0  0  0  0  0  0  0  0  0
   19.8453  -25.3507  -12.3582 C   0  0  1  0  0  0  0  0  0  0  0  0
   18.5267  -25.7061  -13.0096 C   0  0  0  0  0  0  0  0  0  0  0  0
   20.1090  -26.1848  -11.1248 C   0  0  2  0  0  0  0  0  0  0  0  0
   20.0269  -27.6000  -11.5121 N   0  0  0  0  0  0  0  0  0  0  0  0
   19.0105  -25.9401  -10.1571 C   0  0  0  0  0  0  0  0  0  0  0  0
   17.9440  -26.6370  -10.2538 O   0  0  0  0  0  0  0  0  0  0  0  0
   16.8884  -27.9293   -2.9241 N   0  0  0  0  0  0  0  0  0  0  0  0
   16.1529  -26.7215   -2.8660 C   0  0  0  0  0  0  0  0  0  0  0  0
   15.1569  -26.6830   -2.0413 N   0  0  0  0  0  0  0  0  0  0  0  0
   16.5001  -25.6108   -3.6793 N   0  0  0  0  0  0  0  0  0  0  0  0
   17.3501  -25.7663   -4.8158 C   0  0  0  0  0  0  0  0  0  0  0  0
   17.5578  -24.5764   -5.6546 C   0  0  0  0  0  0  0  0  0  0  0  0
   18.3990  -24.6597   -6.8410 C   0  0  0  0  0  0  0  0  0  0  0  0
   17.8141  -24.8595   -8.1945 C   0  0  2  0  0  0  0  0  0  0  0  0
   19.0253  -25.0040   -9.1224 N   0  0  0  0  0  0  0  0  0  0  0  0
   17.0358  -23.7429   -8.7678 C   0  0  0  0  0  0  0  0  0  0  0  0
   17.6332  -22.8439   -9.4802 O   0  0  0  0  0  0  0  0  0  0  0  0
   15.6898  -23.5265   -8.6445 O   0  0  0  0  0  0  0  0  0  0  0  0
  2  4  1  0
  2  1  1  1
  3  2  1  0
  4  5  1  1
  6  7  2  0
  6  4  1  0
  9  8  1  6
  9 11  1  0
 10  9  1  0
 11 12  1  6
 12  6  1  0
 13 23  1  0
 13 11  1  0
 14 13  2  0
 16 15  1  0
 17 16  2  0
 18 16  1  0
 19 20  1  0
 19 18  1  0
 20 21  1  0
 22 23  1  0
 22 21  1  1
 24 22  1  0
 25 24  2  0
 26 24  1  0
M  END
$$$$
