VVR.pdb
     RDKit          3D

 26 25  0  0  1  0  0  0  0  0999 V2000
   21.5755  -19.6309  -19.2842 C   0  0  0  0  0  0  0  0  0  0  0  0
   21.8299  -19.8229  -17.8159 C   0  0  1  0  0  0  0  0  0  0  0  0
   22.3258  -18.5785  -17.1530 C   0  0  0  0  0  0  0  0  0  0  0  0
   20.6161  -20.4207  -17.1369 C   0  0  2  0  0  0  0  0  0  0  0  0
   19.4510  -19.5959  -17.2480 N   0  0  0  0  0  0  0  0  0  0  0  0
   20.8829  -20.7360  -15.7142 C   0  0  0  0  0  0  0  0  0  0  0  0
   21.7565  -21.6020  -15.4120 O   0  0  0  0  0  0  0  0  0  0  0  0
   19.2110  -18.4113  -12.6407 C   0  0  0  0  0  0  0  0  0  0  0  0
   20.4317  -19.2232  -12.4020 C   0  0  1  0  0  0  0  0  0  0  0  0
   20.5878  -19.5150  -10.9256 C   0  0  0  0  0  0  0  0  0  0  0  0
   20.5011  -20.4818  -13.2371 C   0  0  2  0  0  0  0  0  0  0  0  0
   20.2057  -20.1154  -14.6292 N   0  0  0  0  0  0  0  0  0  0  0  0
   19.4159  -21.3921  -12.7933 C   0  0  0  0  0  0  0  0  0  0  0  0
   18.2234  -21.1602  -13.1889 O   0  0  0  0  0  0  0  0  0  0  0  0
   21.0012  -29.4087  -10.4872 N   0  0  0  0  0  0  0  0  0  0  0  0
   19.6494  -28.9973  -10.4067 C   0  0  0  0  0  0  0  0  0  0  0  0
   18.8005  -29.8642   -9.9580 N   0  0  0  0  0  0  0  0  0  0  0  0
   19.2545  -27.6924  -10.8029 N   0  0  0  0  0  0  0  0  0  0  0  0
   20.1819  -26.7949  -11.4134 C   0  0  0  0  0  0  0  0  0  0  0  0
   19.6342  -25.5381  -11.9454 C   0  0  0  0  0  0  0  0  0  0  0  0
   18.9223  -24.6230  -11.0633 C   0  0  0  0  0  0  0  0  0  0  0  0
   18.3508  -23.3454  -11.5682 C   0  0  2  0  0  0  0  0  0  0  0  0
   19.5698  -22.5073  -11.9689 N   0  0  0  0  0  0  0  0  0  0  0  0
   17.6192  -22.5017  -10.6017 C   0  0  0  0  0  0  0  0  0  0  0  0
   18.2627  -21.6310   -9.8945 O   0  0  0  0  0  0  0  0  0  0  0  0
   16.2742  -22.5149  -10.3475 O   0  0  0  0  0  0  0  0  0  0  0  0
  2  4  1  0
  2  1  1  6
  3  2  1  0
  4  5  1  1
  6  7  2  0
  6  4  1  0
  9  8  1  1
  9 11  1  0
 10  9  1  0
 11 12  1  6
 12  6  1  0
 13 23  1  0
 13 11  1  0
 14 13  2  0
 16 15  1  0
 17 16  2  0
 18 16  1  0
 19 20  1  0
 19 18  1  0
 20 21  1  0
 22 23  1  0
 22 21  1  1
 24 22  1  0
 25 24  2  0
 26 24  1  0
M  END
$$$$
