VVR.pdb
     RDKit          3D

 26 25  0  0  1  0  0  0  0  0999 V2000
   26.2404  -17.0683  -16.9855 C   0  0  0  0  0  0  0  0  0  0  0  0
   25.5854  -18.1783  -16.2134 C   0  0  1  0  0  0  0  0  0  0  0  0
   24.4016  -18.7499  -16.9249 C   0  0  0  0  0  0  0  0  0  0  0  0
   26.6043  -19.2228  -15.8105 C   0  0  2  0  0  0  0  0  0  0  0  0
   27.2468  -19.8383  -16.9322 N   0  0  0  0  0  0  0  0  0  0  0  0
   26.0111  -20.2580  -14.9323 C   0  0  0  0  0  0  0  0  0  0  0  0
   25.5195  -21.3099  -15.4385 O   0  0  0  0  0  0  0  0  0  0  0  0
   25.4963  -19.6658  -10.7216 C   0  0  0  0  0  0  0  0  0  0  0  0
   25.8100  -21.0104  -11.2691 C   0  0  1  0  0  0  0  0  0  0  0  0
   25.2820  -22.0887  -10.3483 C   0  0  0  0  0  0  0  0  0  0  0  0
   25.3510  -21.2112  -12.6958 C   0  0  2  0  0  0  0  0  0  0  0  0
   25.9527  -20.1507  -13.5160 N   0  0  0  0  0  0  0  0  0  0  0  0
   23.8814  -21.0080  -12.7420 C   0  0  0  0  0  0  0  0  0  0  0  0
   23.4334  -19.8302  -12.9531 O   0  0  0  0  0  0  0  0  0  0  0  0
   17.2383  -24.7165  -12.7103 N   0  0  0  0  0  0  0  0  0  0  0  0
   16.6302  -24.0155  -13.7789 C   0  0  0  0  0  0  0  0  0  0  0  0
   15.6612  -24.6131  -14.3933 N   0  0  0  0  0  0  0  0  0  0  0  0
   17.0711  -22.7183  -14.1511 N   0  0  0  0  0  0  0  0  0  0  0  0
   18.4571  -22.4397  -14.3507 C   0  0  0  0  0  0  0  0  0  0  0  0
   19.3970  -23.0356  -13.3895 C   0  0  0  0  0  0  0  0  0  0  0  0
   20.8177  -22.7242  -13.4717 C   0  0  0  0  0  0  0  0  0  0  0  0
   21.4241  -21.6432  -12.6485 C   0  0  2  0  0  0  0  0  0  0  0  0
   22.9131  -21.9992  -12.5777 N   0  0  0  0  0  0  0  0  0  0  0  0
   20.9965  -21.5448  -11.2383 C   0  0  0  0  0  0  0  0  0  0  0  0
   20.0001  -20.7835  -10.9217 O   0  0  0  0  0  0  0  0  0  0  0  0
   21.5408  -22.1951  -10.1637 O   0  0  0  0  0  0  0  0  0  0  0  0
  2  4  1  0
  2  1  1  6
  3  2  1  0
  4  5  1  6
  6  7  2  0
  6  4  1  0
  9  8  1  1
  9 11  1  0
 10  9  1  0
 11 12  1  6
 12  6  1  0
 13 23  1  0
 13 11  1  0
 14 13  2  0
 16 15  1  0
 17 16  2  0
 18 16  1  0
 19 20  1  0
 19 18  1  0
 20 21  1  0
 22 23  1  0
 22 21  1  6
 24 22  1  0
 25 24  2  0
 26 24  1  0
M  END
$$$$
