VVR.pdb
     RDKit          3D

 26 25  0  0  1  0  0  0  0  0999 V2000
   29.4779  -27.7264  -23.3937 C   0  0  0  0  0  0  0  0  0  0  0  0
   29.0950  -27.9754  -21.9624 C   0  0  1  0  0  0  0  0  0  0  0  0
   29.4536  -29.3523  -21.5047 C   0  0  0  0  0  0  0  0  0  0  0  0
   29.6407  -26.8846  -21.0656 C   0  0  2  0  0  0  0  0  0  0  0  0
   31.0635  -26.7498  -21.1525 N   0  0  0  0  0  0  0  0  0  0  0  0
   29.2329  -27.0789  -19.6548 C   0  0  0  0  0  0  0  0  0  0  0  0
   30.0281  -27.6302  -18.8374 O   0  0  0  0  0  0  0  0  0  0  0  0
   27.9187  -24.3028  -17.3063 C   0  0  0  0  0  0  0  0  0  0  0  0
   27.0107  -25.4779  -17.2804 C   0  0  1  0  0  0  0  0  0  0  0  0
   25.7617  -25.1944  -18.0859 C   0  0  0  0  0  0  0  0  0  0  0  0
   27.6728  -26.7707  -17.7009 C   0  0  2  0  0  0  0  0  0  0  0  0
   27.9714  -26.6775  -19.1368 N   0  0  0  0  0  0  0  0  0  0  0  0
   26.6883  -27.8694  -17.5376 C   0  0  0  0  0  0  0  0  0  0  0  0
   25.9358  -28.1680  -18.5261 O   0  0  0  0  0  0  0  0  0  0  0  0
   25.0728  -34.1263  -11.5888 N   0  0  0  0  0  0  0  0  0  0  0  0
   24.1641  -34.3699  -12.6461 C   0  0  0  0  0  0  0  0  0  0  0  0
   23.1601  -35.1435  -12.3871 N   0  0  0  0  0  0  0  0  0  0  0  0
   24.3551  -33.7880  -13.9270 N   0  0  0  0  0  0  0  0  0  0  0  0
   25.1482  -32.6123  -14.0918 C   0  0  0  0  0  0  0  0  0  0  0  0
   25.3186  -32.1162  -15.4656 C   0  0  0  0  0  0  0  0  0  0  0  0
   26.0530  -30.8818  -15.7081 C   0  0  0  0  0  0  0  0  0  0  0  0
   25.4016  -29.7025  -16.3397 C   0  0  2  0  0  0  0  0  0  0  0  0
   26.4978  -28.6324  -16.3849 N   0  0  0  0  0  0  0  0  0  0  0  0
   24.2902  -29.0672  -15.6032 C   0  0  0  0  0  0  0  0  0  0  0  0
   24.5297  -28.0694  -14.8162 O   0  0  0  0  0  0  0  0  0  0  0  0
   22.9656  -29.4091  -15.6527 O   0  0  0  0  0  0  0  0  0  0  0  0
  2  4  1  0
  2  1  1  6
  3  2  1  0
  4  5  1  1
  6  7  2  0
  6  4  1  0
  9  8  1  6
  9 11  1  0
 10  9  1  0
 11 12  1  6
 12  6  1  0
 13 23  1  0
 13 11  1  0
 14 13  2  0
 16 15  1  0
 17 16  2  0
 18 16  1  0
 19 20  1  0
 19 18  1  0
 20 21  1  0
 22 23  1  0
 22 21  1  1
 24 22  1  0
 25 24  2  0
 26 24  1  0
M  END
$$$$
