ARH.pdb
     RDKit          3D

 27 27  0  0  1  0  0  0  0  0999 V2000
   31.1811  -37.5818  -16.4960 C   0  0  0  0  0  0  0  0  0  0  0  0
   32.3809  -36.6770  -16.4900 C   0  0  2  0  0  0  0  0  0  0  0  0
   33.3339  -37.1538  -15.5065 N   0  0  0  0  0  0  0  0  0  0  0  0
   31.9846  -35.2722  -16.2107 C   0  0  0  0  0  0  0  0  0  0  0  0
   31.9911  -34.8662  -15.0265 O   0  0  0  0  0  0  0  0  0  0  0  0
   35.1098  -28.6700  -20.2941 N   0  0  0  0  0  0  0  0  0  0  0  0
   35.3873  -29.5880  -19.2304 C   0  0  0  0  0  0  0  0  0  0  0  0
   36.6129  -29.8798  -18.9561 N   0  0  0  0  0  0  0  0  0  0  0  0
   34.3434  -30.1703  -18.4870 N   0  0  0  0  0  0  0  0  0  0  0  0
   32.9491  -29.9358  -18.7802 C   0  0  0  0  0  0  0  0  0  0  0  0
   32.1133  -30.6993  -17.8220 C   0  0  0  0  0  0  0  0  0  0  0  0
   32.2621  -32.1894  -17.9048 C   0  0  0  0  0  0  0  0  0  0  0  0
   31.3711  -32.9462  -16.9727 C   0  0  2  0  0  0  0  0  0  0  0  0
   31.5986  -34.3694  -17.2296 N   0  0  0  0  0  0  0  0  0  0  0  0
   29.9326  -32.6813  -17.2635 C   0  0  0  0  0  0  0  0  0  0  0  0
   29.3900  -33.1357  -18.3203 O   0  0  0  0  0  0  0  0  0  0  0  0
   36.8313  -30.5974  -18.2374 N   0  0  0  0  0  0  0  0  0  0  0  0
   29.1078  -31.9292  -16.4045 C   0  0  2  0  0  0  0  0  0  0  0  0
   27.6785  -31.7309  -16.5699 C   0  0  0  0  0  0  0  0  0  0  0  0
   27.0215  -31.2810  -15.3163 C   0  0  0  0  0  0  0  0  0  0  0  0
   26.8373  -32.3666  -14.3370 C   0  0  0  0  0  0  0  0  0  0  0  0
   27.1958  -33.6958  -14.4609 N   0  0  0  0  0  0  0  0  0  0  0  0
   26.8386  -34.3691  -13.3588 C   0  0  0  0  0  0  0  0  0  0  0  0
   26.2564  -33.5027  -12.5255 N   0  0  0  0  0  0  0  0  0  0  0  0
   26.2495  -32.2858  -13.1068 C   0  0  0  0  0  0  0  0  0  0  0  0
   27.5106  -30.7478  -17.6564 O   0  0  0  0  0  0  0  0  0  0  0  0
   28.3641  -29.8265  -17.8973 O   0  0  0  0  0  0  0  0  0  0  0  0
  2  1  1  1
  3  2  1  0
  4  5  2  0
  4  2  1  0
  7  9  1  0
  7  6  1  0
  8  7  2  0
 10  9  1  0
 11 10  1  0
 11 12  1  0
 13 12  1  6
 13 14  1  0
 14  4  1  0
 15 13  1  0
 16 15  2  0
 17 15  1  0
 18 25  1  0
 18 17  1  0
 18 19  1  1
 20 19  1  0
 20 24  1  0
 21 20  2  0
 22 21  1  0
 22 23  1  0
 23 24  2  0
 25 27  1  0
 26 25  2  0
M  END
$$$$
