ARH.pdb
     RDKit          3D

 27 27  0  0  1  0  0  0  0  0999 V2000
   27.9129  -25.7661  -16.3222 C   0  0  0  0  0  0  0  0  0  0  0  0
   28.3557  -27.1719  -16.6145 C   0  0  2  0  0  0  0  0  0  0  0  0
   29.5244  -27.1362  -17.4722 N   0  0  0  0  0  0  0  0  0  0  0  0
   27.2585  -27.9544  -17.2411 C   0  0  0  0  0  0  0  0  0  0  0  0
   27.1712  -27.9805  -18.4896 O   0  0  0  0  0  0  0  0  0  0  0  0
   27.5901  -33.0750  -13.4653 N   0  0  0  0  0  0  0  0  0  0  0  0
   26.2797  -32.5565  -13.2095 C   0  0  0  0  0  0  0  0  0  0  0  0
   25.9887  -32.1416  -12.0239 N   0  0  0  0  0  0  0  0  0  0  0  0
   25.3138  -32.4958  -14.2317 N   0  0  0  0  0  0  0  0  0  0  0  0
   25.5596  -32.9798  -15.5697 C   0  0  0  0  0  0  0  0  0  0  0  0
   25.8164  -31.8270  -16.4668 C   0  0  0  0  0  0  0  0  0  0  0  0
   24.9683  -30.6194  -16.1987 C   0  0  0  0  0  0  0  0  0  0  0  0
   25.2418  -29.4652  -17.1088 C   0  0  2  0  0  0  0  0  0  0  0  0
   26.3039  -28.6744  -16.4845 N   0  0  0  0  0  0  0  0  0  0  0  0
   24.0527  -28.5726  -17.2244 C   0  0  0  0  0  0  0  0  0  0  0  0
   23.6416  -27.9064  -16.2220 O   0  0  0  0  0  0  0  0  0  0  0  0
   25.0593  -31.7194  -11.8312 N   0  0  0  0  0  0  0  0  0  0  0  0
   23.3303  -28.4177  -18.4237 C   0  0  1  0  0  0  0  0  0  0  0  0
   22.2085  -27.5163  -18.6204 C   0  0  0  0  0  0  0  0  0  0  0  0
   22.4870  -26.4841  -19.6514 C   0  0  0  0  0  0  0  0  0  0  0  0
   23.4926  -25.4953  -19.2242 C   0  0  0  0  0  0  0  0  0  0  0  0
   23.5027  -24.7341  -18.0705 N   0  0  0  0  0  0  0  0  0  0  0  0
   24.5795  -23.9367  -18.0597 C   0  0  0  0  0  0  0  0  0  0  0  0
   25.2652  -24.1665  -19.1826 N   0  0  0  0  0  0  0  0  0  0  0  0
   24.6167  -25.1090  -19.8968 C   0  0  0  0  0  0  0  0  0  0  0  0
   21.0515  -28.3543  -18.9867 O   0  0  0  0  0  0  0  0  0  0  0  0
   21.1714  -29.5455  -19.4362 O   0  0  0  0  0  0  0  0  0  0  0  0
  2  1  1  6
  3  2  1  0
  4  5  2  0
  4  2  1  0
  7  9  1  0
  7  6  1  0
  8  7  2  0
 10  9  1  0
 11 10  1  0
 11 12  1  0
 13 12  1  1
 13 14  1  0
 14  4  1  0
 15 13  1  0
 16 15  2  0
 17 15  1  0
 18 25  1  0
 18 17  1  0
 18 19  1  1
 20 19  1  0
 20 24  1  0
 21 20  2  0
 22 21  1  0
 22 23  1  0
 23 24  2  0
 25 27  1  0
 26 25  2  0
M  END
$$$$
