ARH.pdb
     RDKit          3D

 27 27  0  0  1  0  0  0  0  0999 V2000
   19.0720  -25.1469  -10.0858 C   0  0  0  0  0  0  0  0  0  0  0  0
   18.5653  -24.8504  -11.4690 C   0  0  2  0  0  0  0  0  0  0  0  0
   18.8412  -25.9827  -12.3319 N   0  0  0  0  0  0  0  0  0  0  0  0
   19.1818  -23.6090  -12.0052 C   0  0  0  0  0  0  0  0  0  0  0  0
   18.9459  -22.5209  -11.4330 O   0  0  0  0  0  0  0  0  0  0  0  0
   26.3123  -24.2068  -16.0895 N   0  0  0  0  0  0  0  0  0  0  0  0
   25.1082  -23.5772  -16.5426 C   0  0  0  0  0  0  0  0  0  0  0  0
   24.9457  -23.3668  -17.8042 N   0  0  0  0  0  0  0  0  0  0  0  0
   24.1082  -23.1889  -15.6312 N   0  0  0  0  0  0  0  0  0  0  0  0
   24.2597  -23.3197  -14.2012 C   0  0  0  0  0  0  0  0  0  0  0  0
   23.0270  -22.8361  -13.5331 C   0  0  0  0  0  0  0  0  0  0  0  0
   21.8263  -22.7322  -14.4258 C   0  0  0  0  0  0  0  0  0  0  0  0
   20.5635  -22.3677  -13.7132 C   0  0  2  0  0  0  0  0  0  0  0  0
   20.0277  -23.6034  -13.1395 N   0  0  0  0  0  0  0  0  0  0  0  0
   19.5348  -21.8529  -14.6623 C   0  0  0  0  0  0  0  0  0  0  0  0
   18.7409  -22.6511  -15.2541 O   0  0  0  0  0  0  0  0  0  0  0  0
   24.0695  -22.9311  -18.1530 N   0  0  0  0  0  0  0  0  0  0  0  0
   19.3846  -20.4830  -14.9533 C   0  0  1  0  0  0  0  0  0  0  0  0
   18.2451  -19.8854  -15.6270 C   0  0  0  0  0  0  0  0  0  0  0  0
   16.9588  -20.2137  -14.9609 C   0  0  0  0  0  0  0  0  0  0  0  0
   15.7927  -19.5964  -15.6171 C   0  0  0  0  0  0  0  0  0  0  0  0
   15.7739  -18.7943  -16.7426 N   0  0  0  0  0  0  0  0  0  0  0  0
   14.5172  -18.4139  -17.0105 C   0  0  0  0  0  0  0  0  0  0  0  0
   13.7237  -18.9532  -16.0812 N   0  0  0  0  0  0  0  0  0  0  0  0
   14.4848  -19.6720  -15.2310 C   0  0  0  0  0  0  0  0  0  0  0  0
   18.4870  -18.4309  -15.6584 O   0  0  0  0  0  0  0  0  0  0  0  0
   17.6269  -17.5932  -16.0987 O   0  0  0  0  0  0  0  0  0  0  0  0
  2  1  1  1
  3  2  1  0
  4  5  2  0
  4  2  1  0
  7  9  1  0
  7  6  1  0
  8  7  2  0
 10  9  1  0
 11 10  1  0
 11 12  1  0
 13 12  1  6
 13 14  1  0
 14  4  1  0
 15 13  1  0
 16 15  2  0
 17 15  1  0
 18 25  1  0
 18 17  1  0
 18 19  1  6
 20 19  1  0
 20 24  1  0
 21 20  2  0
 22 21  1  0
 22 23  1  0
 23 24  2  0
 25 27  1  0
 26 25  2  0
M  END
$$$$
