ARH.pdb
     RDKit          3D

 27 27  0  0  1  0  0  0  0  0999 V2000
   31.6444  -14.3835  -21.4408 C   0  0  0  0  0  0  0  0  0  0  0  0
   32.5507  -14.7094  -20.2874 C   0  0  2  0  0  0  0  0  0  0  0  0
   32.2993  -16.0693  -19.8515 N   0  0  0  0  0  0  0  0  0  0  0  0
   32.3560  -13.7474  -19.1714 C   0  0  0  0  0  0  0  0  0  0  0  0
   31.4871  -13.9945  -18.3048 O   0  0  0  0  0  0  0  0  0  0  0  0
   37.9607   -9.2510  -14.0546 N   0  0  0  0  0  0  0  0  0  0  0  0
   36.7220   -8.5321  -14.0344 C   0  0  0  0  0  0  0  0  0  0  0  0
   36.6218   -7.4739  -13.3046 N   0  0  0  0  0  0  0  0  0  0  0  0
   35.6216   -8.9660  -14.7974 N   0  0  0  0  0  0  0  0  0  0  0  0
   35.7231  -10.0031  -15.7969 C   0  0  0  0  0  0  0  0  0  0  0  0
   34.3887  -10.2291  -16.4037 C   0  0  0  0  0  0  0  0  0  0  0  0
   34.3363  -11.3345  -17.4159 C   0  0  0  0  0  0  0  0  0  0  0  0
   32.9603  -11.6471  -17.9101 C   0  0  2  0  0  0  0  0  0  0  0  0
   33.1135  -12.5589  -19.0451 N   0  0  0  0  0  0  0  0  0  0  0  0
   32.2802  -10.4254  -18.4289 C   0  0  0  0  0  0  0  0  0  0  0  0
   32.7972   -9.7459  -19.3714 O   0  0  0  0  0  0  0  0  0  0  0  0
   35.7416   -6.9221  -13.3019 N   0  0  0  0  0  0  0  0  0  0  0  0
   31.0524   -9.9619  -17.9173 C   0  0  2  0  0  0  0  0  0  0  0  0
   30.3303   -8.7939  -18.3906 C   0  0  0  0  0  0  0  0  0  0  0  0
   28.8605   -8.9344  -18.2294 C   0  0  0  0  0  0  0  0  0  0  0  0
   28.1135   -7.7409  -18.6640 C   0  0  0  0  0  0  0  0  0  0  0  0
   28.5270   -6.7448  -19.5284 N   0  0  0  0  0  0  0  0  0  0  0  0
   27.5654   -5.8197  -19.6516 C   0  0  0  0  0  0  0  0  0  0  0  0
   26.5392   -6.1973  -18.8845 N   0  0  0  0  0  0  0  0  0  0  0  0
   26.8592   -7.3600  -18.2807 C   0  0  0  0  0  0  0  0  0  0  0  0
   30.8533   -7.6390  -17.6371 O   0  0  0  0  0  0  0  0  0  0  0  0
   31.0544   -7.6670  -16.3745 O   0  0  0  0  0  0  0  0  0  0  0  0
  2  1  1  6
  3  2  1  0
  4  5  2  0
  4  2  1  0
  7  9  1  0
  7  6  1  0
  8  7  2  0
 10  9  1  0
 11 10  1  0
 11 12  1  0
 13 12  1  6
 13 14  1  0
 14  4  1  0
 15 13  1  0
 16 15  2  0
 17 15  1  0
 18 25  1  0
 18 17  1  0
 18 19  1  1
 20 19  1  0
 20 24  1  0
 21 20  2  0
 22 21  1  0
 22 23  1  0
 23 24  2  0
 25 27  1  0
 26 25  2  0
M  END
$$$$
