ARH.pdb
     RDKit          3D

 27 27  0  0  1  0  0  0  0  0999 V2000
   23.8523  -20.3152   -8.3181 C   0  0  0  0  0  0  0  0  0  0  0  0
   25.1997  -20.5960   -8.9211 C   0  0  2  0  0  0  0  0  0  0  0  0
   26.2092  -19.8359   -8.2098 N   0  0  0  0  0  0  0  0  0  0  0  0
   25.2105  -20.2701  -10.3710 C   0  0  0  0  0  0  0  0  0  0  0  0
   25.5081  -19.1075  -10.7272 O   0  0  0  0  0  0  0  0  0  0  0  0
   26.9478  -25.4441  -17.4545 N   0  0  0  0  0  0  0  0  0  0  0  0
   26.6238  -24.1278  -17.9169 C   0  0  0  0  0  0  0  0  0  0  0  0
   26.7228  -23.8617  -19.1746 N   0  0  0  0  0  0  0  0  0  0  0  0
   26.2015  -23.1294  -17.0189 N   0  0  0  0  0  0  0  0  0  0  0  0
   26.1186  -23.3440  -15.5934 C   0  0  0  0  0  0  0  0  0  0  0  0
   25.6706  -22.0921  -14.9362 C   0  0  0  0  0  0  0  0  0  0  0  0
   25.6011  -22.1567  -13.4394 C   0  0  0  0  0  0  0  0  0  0  0  0
   25.0318  -20.9311  -12.7997 C   0  0  2  0  0  0  0  0  0  0  0  0
   24.8975  -21.2211  -11.3710 N   0  0  0  0  0  0  0  0  0  0  0  0
   23.6610  -20.6403  -13.3101 C   0  0  0  0  0  0  0  0  0  0  0  0
   22.6914  -21.4197  -13.0456 O   0  0  0  0  0  0  0  0  0  0  0  0
   26.4540  -22.9246  -19.5335 N   0  0  0  0  0  0  0  0  0  0  0  0
   23.3653  -19.5106  -14.0977 C   0  0  2  0  0  0  0  0  0  0  0  0
   22.0408  -19.1242  -14.5517 C   0  0  0  0  0  0  0  0  0  0  0  0
   22.0335  -17.7887  -15.2015 C   0  0  0  0  0  0  0  0  0  0  0  0
   20.7091  -17.4048  -15.7214 C   0  0  0  0  0  0  0  0  0  0  0  0
   19.5228  -18.1088  -15.6345 N   0  0  0  0  0  0  0  0  0  0  0  0
   18.5446  -17.4319  -16.2514 C   0  0  0  0  0  0  0  0  0  0  0  0
   19.0743  -16.3053  -16.7354 N   0  0  0  0  0  0  0  0  0  0  0  0
   20.3855  -16.2773  -16.4209 C   0  0  0  0  0  0  0  0  0  0  0  0
   21.5842  -20.1812  -15.4733 O   0  0  0  0  0  0  0  0  0  0  0  0
   22.3313  -20.6788  -16.3841 O   0  0  0  0  0  0  0  0  0  0  0  0
  2  1  1  1
  3  2  1  0
  4  5  2  0
  4  2  1  0
  7  9  1  0
  7  6  1  0
  8  7  2  0
 10  9  1  0
 11 10  1  0
 11 12  1  0
 13 12  1  6
 13 14  1  0
 14  4  1  0
 15 13  1  0
 16 15  2  0
 17 15  1  0
 18 25  1  0
 18 17  1  0
 18 19  1  6
 20 19  1  0
 20 24  1  0
 21 20  2  0
 22 21  1  0
 22 23  1  0
 23 24  2  0
 25 27  1  0
 26 25  2  0
M  END
$$$$
