FCE.pdb
     RDKit          3D

 27 27  0  0  1  0  0  0  0  0999 V2000
   23.9337  -13.2624  -18.0832 N   0  0  0  0  0  0  0  0  0  0  0  0
   23.8171  -12.6125  -16.8170 C   0  0  1  0  0  0  0  0  0  0  0  0
   25.2180  -12.1899  -16.3493 C   0  0  0  0  0  0  0  0  0  0  0  0
   25.9578  -13.4472  -16.0601 C   0  0  0  0  0  0  0  0  0  0  0  0
   26.8909  -13.9323  -16.9724 C   0  0  0  0  0  0  0  0  0  0  0  0
   27.5847  -15.0918  -16.7112 C   0  0  0  0  0  0  0  0  0  0  0  0
   27.3921  -15.8168  -15.5526 C   0  0  0  0  0  0  0  0  0  0  0  0
   26.4745  -15.3520  -14.6411 C   0  0  0  0  0  0  0  0  0  0  0  0
   25.7734  -14.1765  -14.9097 C   0  0  0  0  0  0  0  0  0  0  0  0
   22.8821  -11.4850  -16.9026 C   0  0  0  0  0  0  0  0  0  0  0  0
   22.8359  -10.7603  -17.9309 O   0  0  0  0  0  0  0  0  0  0  0  0
   22.0055  -11.1555  -15.8643 N   0  0  0  0  0  0  0  0  0  0  0  0
   21.0233  -10.0992  -15.9162 C   0  0  1  0  0  0  0  0  0  0  0  0
   19.7735  -10.3441  -15.1600 C   0  0  0  0  0  0  0  0  0  0  0  0
   18.7032   -8.8968  -15.0067 S   0  0  0  0  0  0  0  0  0  0  0  0
   21.6886   -8.8815  -15.3354 C   0  0  0  0  0  0  0  0  0  0  0  0
   22.4098   -8.9618  -14.2822 O   0  0  0  0  0  0  0  0  0  0  0  0
   21.5761   -7.5885  -15.8953 N   0  0  0  0  0  0  0  0  0  0  0  0
   22.3072   -6.4465  -15.3085 C   0  0  1  0  0  0  0  0  0  0  0  0
   22.3736   -5.3249  -16.3234 C   0  0  0  0  0  0  0  0  0  0  0  0
   23.0267   -4.0767  -15.8236 C   0  0  0  0  0  0  0  0  0  0  0  0
   22.9910   -2.9782  -16.8253 C   0  0  0  0  0  0  0  0  0  0  0  0
   22.5174   -3.2399  -17.9715 O   0  0  0  0  0  0  0  0  0  0  0  0
   21.6348   -6.0906  -14.0624 C   0  0  0  0  0  0  0  0  0  0  0  0
   20.2532   -6.1762  -13.8723 O   0  0  0  0  0  0  0  0  0  0  0  0
   23.4422   -1.6845  -16.5806 O   0  0  0  0  0  0  0  0  0  0  0  0
   22.2979   -5.6797  -13.0825 O   0  0  0  0  0  0  0  0  0  0  0  0
  2  1  1  6
  2 10  1  0
  3  2  1  0
  4  3  1  0
  5  4  2  0
  6  5  1  0
  7  8  1  0
  7  6  2  0
  8  9  2  0
  9  4  1  0
 10 11  2  0
 10 12  1  0
 12 13  1  0
 13 14  1  1
 15 14  1  0
 16 13  1  0
 16 17  2  0
 18 16  1  0
 19 18  1  0
 19 20  1  6
 21 20  1  0
 22 23  2  0
 22 21  1  0
 24 19  1  0
 25 24  1  0
 26 22  1  0
 27 24  2  0
M  END
$$$$
