FCE.pdb
     RDKit          3D

 27 27  0  0  1  0  0  0  0  0999 V2000
   21.7353  -34.1722  -11.5691 N   0  0  0  0  0  0  0  0  0  0  0  0
   22.7131  -33.1514  -11.3662 C   0  0  1  0  0  0  0  0  0  0  0  0
   21.9938  -31.8013  -11.2251 C   0  0  0  0  0  0  0  0  0  0  0  0
   21.4470  -31.4779  -12.5698 C   0  0  0  0  0  0  0  0  0  0  0  0
   22.2841  -30.9675  -13.5582 C   0  0  0  0  0  0  0  0  0  0  0  0
   21.7887  -30.6705  -14.8074 C   0  0  0  0  0  0  0  0  0  0  0  0
   20.4614  -30.8613  -15.1346 C   0  0  0  0  0  0  0  0  0  0  0  0
   19.6211  -31.3646  -14.1705 C   0  0  0  0  0  0  0  0  0  0  0  0
   20.1272  -31.6641  -12.9057 C   0  0  0  0  0  0  0  0  0  0  0  0
   23.5559  -33.4703  -10.2083 C   0  0  0  0  0  0  0  0  0  0  0  0
   23.1258  -34.2000   -9.2772 O   0  0  0  0  0  0  0  0  0  0  0  0
   24.8617  -32.9886  -10.0742 N   0  0  0  0  0  0  0  0  0  0  0  0
   25.8631  -33.5488   -9.1986 C   0  0  1  0  0  0  0  0  0  0  0  0
   27.2704  -33.3155   -9.5971 C   0  0  0  0  0  0  0  0  0  0  0  0
   27.6306  -33.7207  -11.3204 S   0  0  0  0  0  0  0  0  0  0  0  0
   25.6470  -32.9094   -7.8543 C   0  0  0  0  0  0  0  0  0  0  0  0
   25.4706  -31.6475   -7.7436 O   0  0  0  0  0  0  0  0  0  0  0  0
   25.6179  -33.6338   -6.6409 N   0  0  0  0  0  0  0  0  0  0  0  0
   25.4509  -32.9354   -5.3496 C   0  0  1  0  0  0  0  0  0  0  0  0
   24.0999  -33.2889   -4.7647 C   0  0  0  0  0  0  0  0  0  0  0  0
   24.1416  -34.3406   -3.7034 C   0  0  0  0  0  0  0  0  0  0  0  0
   23.6826  -33.8323   -2.3834 C   0  0  0  0  0  0  0  0  0  0  0  0
   23.7616  -34.6150   -1.3896 O   0  0  0  0  0  0  0  0  0  0  0  0
   26.5852  -33.2996   -4.5055 C   0  0  0  0  0  0  0  0  0  0  0  0
   26.9775  -32.5770   -3.3758 O   0  0  0  0  0  0  0  0  0  0  0  0
   23.1759  -32.5531   -2.1736 O   0  0  0  0  0  0  0  0  0  0  0  0
   27.2733  -34.3108   -4.7749 O   0  0  0  0  0  0  0  0  0  0  0  0
  2  1  1  1
  2 10  1  0
  3  2  1  0
  4  3  1  0
  5  4  2  0
  6  5  1  0
  7  8  1  0
  7  6  2  0
  8  9  2  0
  9  4  1  0
 10 11  2  0
 10 12  1  0
 12 13  1  0
 13 14  1  6
 15 14  1  0
 16 13  1  0
 16 17  2  0
 18 16  1  0
 19 18  1  0
 19 20  1  1
 21 20  1  0
 22 23  2  0
 22 21  1  0
 24 19  1  0
 25 24  1  0
 26 22  1  0
 27 24  2  0
M  END
$$$$
