FCE.pdb
     RDKit          3D

 27 27  0  0  1  0  0  0  0  0999 V2000
   26.0895  -14.6490  -16.8061 N   0  0  0  0  0  0  0  0  0  0  0  0
   24.8218  -13.9962  -16.7283 C   0  0  1  0  0  0  0  0  0  0  0  0
   24.2900  -14.1224  -15.2926 C   0  0  0  0  0  0  0  0  0  0  0  0
   23.5171  -15.3921  -15.2446 C   0  0  0  0  0  0  0  0  0  0  0  0
   22.3728  -15.5411  -16.0234 C   0  0  0  0  0  0  0  0  0  0  0  0
   21.6540  -16.7143  -15.9903 C   0  0  0  0  0  0  0  0  0  0  0  0
   22.0267  -17.7809  -15.1974 C   0  0  0  0  0  0  0  0  0  0  0  0
   23.1541  -17.6506  -14.4223 C   0  0  0  0  0  0  0  0  0  0  0  0
   23.8796  -16.4599  -14.4587 C   0  0  0  0  0  0  0  0  0  0  0  0
   24.9338  -12.6023  -17.1725 C   0  0  0  0  0  0  0  0  0  0  0  0
   26.0167  -11.9714  -17.0549 O   0  0  0  0  0  0  0  0  0  0  0  0
   23.8621  -11.9065  -17.7403 N   0  0  0  0  0  0  0  0  0  0  0  0
   23.9470  -10.5858  -18.3166 C   0  0  1  0  0  0  0  0  0  0  0  0
   23.8347  -10.5185  -19.7919 C   0  0  0  0  0  0  0  0  0  0  0  0
   25.1328  -11.4108  -20.6764 S   0  0  0  0  0  0  0  0  0  0  0  0
   22.8094   -9.7987  -17.7260 C   0  0  0  0  0  0  0  0  0  0  0  0
   21.6437  -10.3111  -17.6058 O   0  0  0  0  0  0  0  0  0  0  0  0
   22.9366   -8.4685  -17.2653 N   0  0  0  0  0  0  0  0  0  0  0  0
   21.8279   -7.8114  -16.5426 C   0  0  1  0  0  0  0  0  0  0  0  0
   22.3886   -6.7096  -15.6687 C   0  0  0  0  0  0  0  0  0  0  0  0
   21.3559   -5.9187  -14.9322 C   0  0  0  0  0  0  0  0  0  0  0  0
   21.9507   -4.8132  -14.1350 C   0  0  0  0  0  0  0  0  0  0  0  0
   23.2075   -4.6576  -14.1876 O   0  0  0  0  0  0  0  0  0  0  0  0
   20.8647   -7.3556  -17.5408 C   0  0  0  0  0  0  0  0  0  0  0  0
   19.4834   -7.3271  -17.3322 O   0  0  0  0  0  0  0  0  0  0  0  0
   21.2134   -3.9407  -13.3399 O   0  0  0  0  0  0  0  0  0  0  0  0
   21.2575   -6.9596  -18.6621 O   0  0  0  0  0  0  0  0  0  0  0  0
  2  1  1  1
  2 10  1  0
  3  2  1  0
  4  3  1  0
  5  4  2  0
  6  5  1  0
  7  8  1  0
  7  6  2  0
  8  9  2  0
  9  4  1  0
 10 11  2  0
 10 12  1  0
 12 13  1  0
 13 14  1  6
 15 14  1  0
 16 13  1  0
 16 17  2  0
 18 16  1  0
 19 18  1  0
 19 20  1  6
 21 20  1  0
 22 23  2  0
 22 21  1  0
 24 19  1  0
 25 24  1  0
 26 22  1  0
 27 24  2  0
M  END
$$$$
