FCE.pdb
     RDKit          3D

 27 27  0  0  1  0  0  0  0  0999 V2000
   15.7562  -17.8747    3.9481 N   0  0  0  0  0  0  0  0  0  0  0  0
   17.0100  -18.5447    3.8133 C   0  0  1  0  0  0  0  0  0  0  0  0
   18.0996  -17.6893    4.4775 C   0  0  0  0  0  0  0  0  0  0  0  0
   18.2955  -16.5069    3.5969 C   0  0  0  0  0  0  0  0  0  0  0  0
   18.9547  -16.6468    2.3787 C   0  0  0  0  0  0  0  0  0  0  0  0
   19.1358  -15.5598    1.5543 C   0  0  0  0  0  0  0  0  0  0  0  0
   18.6805  -14.3007    1.8898 C   0  0  0  0  0  0  0  0  0  0  0  0
   18.0275  -14.1449    3.0890 C   0  0  0  0  0  0  0  0  0  0  0  0
   17.8461  -15.2492    3.9216 C   0  0  0  0  0  0  0  0  0  0  0  0
   16.9313  -19.8991    4.3722 C   0  0  0  0  0  0  0  0  0  0  0  0
   16.0869  -20.1833    5.2615 O   0  0  0  0  0  0  0  0  0  0  0  0
   17.7761  -20.9332    3.9574 N   0  0  0  0  0  0  0  0  0  0  0  0
   17.9326  -22.1958    4.6390 C   0  0  1  0  0  0  0  0  0  0  0  0
   18.4227  -23.3198    3.8082 C   0  0  0  0  0  0  0  0  0  0  0  0
   18.8688  -24.7972    4.7473 S   0  0  0  0  0  0  0  0  0  0  0  0
   18.9329  -21.9566    5.7366 C   0  0  0  0  0  0  0  0  0  0  0  0
   19.9809  -21.2522    5.5334 O   0  0  0  0  0  0  0  0  0  0  0  0
   18.7948  -22.4733    7.0450 N   0  0  0  0  0  0  0  0  0  0  0  0
   19.8302  -22.2211    8.0685 C   0  0  1  0  0  0  0  0  0  0  0  0
   19.1852  -21.5841    9.2811 C   0  0  0  0  0  0  0  0  0  0  0  0
   18.5310  -22.5520   10.2136 C   0  0  0  0  0  0  0  0  0  0  0  0
   17.3104  -21.9893   10.8499 C   0  0  0  0  0  0  0  0  0  0  0  0
   16.4177  -22.8021   11.2356 O   0  0  0  0  0  0  0  0  0  0  0  0
   20.4958  -23.4920    8.3397 C   0  0  0  0  0  0  0  0  0  0  0  0
   19.9246  -24.7402    8.0786 O   0  0  0  0  0  0  0  0  0  0  0  0
   17.0911  -20.6294   11.0492 O   0  0  0  0  0  0  0  0  0  0  0  0
   21.6459  -23.5089    8.8353 O   0  0  0  0  0  0  0  0  0  0  0  0
  2  1  1  1
  2 10  1  0
  3  2  1  0
  4  3  1  0
  5  4  2  0
  6  5  1  0
  7  8  1  0
  7  6  2  0
  8  9  2  0
  9  4  1  0
 10 11  2  0
 10 12  1  0
 12 13  1  0
 13 14  1  6
 15 14  1  0
 16 13  1  0
 16 17  2  0
 18 16  1  0
 19 18  1  0
 19 20  1  1
 21 20  1  0
 22 23  2  0
 22 21  1  0
 24 19  1  0
 25 24  1  0
 26 22  1  0
 27 24  2  0
M  END
$$$$
