FCE.pdb
     RDKit          3D

 27 27  0  0  1  0  0  0  0  0999 V2000
   21.0372  -11.9528  -20.3040 N   0  0  0  0  0  0  0  0  0  0  0  0
   21.3326  -10.5743  -20.0766 C   0  0  1  0  0  0  0  0  0  0  0  0
   20.6225   -9.7349  -21.1496 C   0  0  0  0  0  0  0  0  0  0  0  0
   21.4689   -9.8159  -22.3697 C   0  0  0  0  0  0  0  0  0  0  0  0
   21.3800  -10.9245  -23.2072 C   0  0  0  0  0  0  0  0  0  0  0  0
   22.1549  -11.0061  -24.3417 C   0  0  0  0  0  0  0  0  0  0  0  0
   23.0418  -10.0101  -24.6975 C   0  0  0  0  0  0  0  0  0  0  0  0
   23.1420   -8.9086  -23.8819 C   0  0  0  0  0  0  0  0  0  0  0  0
   22.3549   -8.8299  -22.7330 C   0  0  0  0  0  0  0  0  0  0  0  0
   20.9579  -10.1870  -18.7119 C   0  0  0  0  0  0  0  0  0  0  0  0
   19.9505  -10.6914  -18.1504 O   0  0  0  0  0  0  0  0  0  0  0  0
   21.6848   -9.2505  -17.9705 N   0  0  0  0  0  0  0  0  0  0  0  0
   21.4086   -8.8865  -16.6013 C   0  0  1  0  0  0  0  0  0  0  0  0
   22.5273   -9.0695  -15.6480 C   0  0  0  0  0  0  0  0  0  0  0  0
   22.2002   -8.4331  -13.9892 S   0  0  0  0  0  0  0  0  0  0  0  0
   21.0479   -7.4263  -16.6222 C   0  0  0  0  0  0  0  0  0  0  0  0
   21.7990   -6.5685  -17.2016 O   0  0  0  0  0  0  0  0  0  0  0  0
   19.8797   -6.9021  -16.0235 N   0  0  0  0  0  0  0  0  0  0  0  0
   19.5535   -5.4655  -16.1376 C   0  0  1  0  0  0  0  0  0  0  0  0
   18.0591   -5.2814  -15.9792 C   0  0  0  0  0  0  0  0  0  0  0  0
   17.6148   -3.8554  -15.9181 C   0  0  0  0  0  0  0  0  0  0  0  0
   16.7398   -3.4848  -17.0618 C   0  0  0  0  0  0  0  0  0  0  0  0
   16.3430   -4.4143  -17.8268 O   0  0  0  0  0  0  0  0  0  0  0  0
   20.3552   -4.7549  -15.1456 C   0  0  0  0  0  0  0  0  0  0  0  0
   20.8788   -3.4744  -15.3415 O   0  0  0  0  0  0  0  0  0  0  0  0
   16.3294   -2.1844  -17.3405 O   0  0  0  0  0  0  0  0  0  0  0  0
   20.6122   -5.2887  -14.0422 O   0  0  0  0  0  0  0  0  0  0  0  0
  2  1  1  6
  2 10  1  0
  3  2  1  0
  4  3  1  0
  5  4  2  0
  6  5  1  0
  7  8  1  0
  7  6  2  0
  8  9  2  0
  9  4  1  0
 10 11  2  0
 10 12  1  0
 12 13  1  0
 13 14  1  1
 15 14  1  0
 16 13  1  0
 16 17  2  0
 18 16  1  0
 19 18  1  0
 19 20  1  1
 21 20  1  0
 22 23  2  0
 22 21  1  0
 24 19  1  0
 25 24  1  0
 26 22  1  0
 27 24  2  0
M  END
$$$$
