FCE.pdb
     RDKit          3D

 27 27  0  0  1  0  0  0  0  0999 V2000
   25.5174  -12.3022  -18.6740 N   0  0  0  0  0  0  0  0  0  0  0  0
   25.8540  -13.1022  -17.5399 C   0  0  1  0  0  0  0  0  0  0  0  0
   25.0250  -12.6258  -16.3375 C   0  0  0  0  0  0  0  0  0  0  0  0
   25.5725  -11.2974  -15.9539 C   0  0  0  0  0  0  0  0  0  0  0  0
   24.7283  -10.1934  -15.8706 C   0  0  0  0  0  0  0  0  0  0  0  0
   25.2244   -8.9611  -15.5109 C   0  0  0  0  0  0  0  0  0  0  0  0
   26.5593   -8.7640  -15.2205 C   0  0  0  0  0  0  0  0  0  0  0  0
   27.4066   -9.8433  -15.2978 C   0  0  0  0  0  0  0  0  0  0  0  0
   26.8998  -11.0904  -15.6628 C   0  0  0  0  0  0  0  0  0  0  0  0
   25.6568  -14.5252  -17.8385 C   0  0  0  0  0  0  0  0  0  0  0  0
   24.7868  -14.8969  -18.6688 O   0  0  0  0  0  0  0  0  0  0  0  0
   26.4097  -15.5324  -17.2270 N   0  0  0  0  0  0  0  0  0  0  0  0
   26.2890  -16.9423  -17.5116 C   0  0  1  0  0  0  0  0  0  0  0  0
   27.5486  -17.7198  -17.4598 C   0  0  0  0  0  0  0  0  0  0  0  0
   27.3178  -19.5107  -17.5144 S   0  0  0  0  0  0  0  0  0  0  0  0
   25.3542  -17.4993  -16.4731 C   0  0  0  0  0  0  0  0  0  0  0  0
   25.4795  -17.1912  -15.2381 O   0  0  0  0  0  0  0  0  0  0  0  0
   24.2895  -18.3794  -16.7727 N   0  0  0  0  0  0  0  0  0  0  0  0
   23.4437  -18.9339  -15.6956 C   0  0  1  0  0  0  0  0  0  0  0  0
   22.0291  -18.4205  -15.8607 C   0  0  0  0  0  0  0  0  0  0  0  0
   21.0611  -18.9374  -14.8456 C   0  0  0  0  0  0  0  0  0  0  0  0
   19.6568  -18.5622  -15.1590 C   0  0  0  0  0  0  0  0  0  0  0  0
   19.2489  -18.7409  -16.3457 O   0  0  0  0  0  0  0  0  0  0  0  0
   23.5655  -20.3880  -15.7487 C   0  0  0  0  0  0  0  0  0  0  0  0
   23.3319  -21.2283  -14.6571 O   0  0  0  0  0  0  0  0  0  0  0  0
   18.7657  -18.0310  -14.2310 O   0  0  0  0  0  0  0  0  0  0  0  0
   23.8969  -20.9549  -16.8151 O   0  0  0  0  0  0  0  0  0  0  0  0
  2  1  1  6
  2 10  1  0
  3  2  1  0
  4  3  1  0
  5  4  2  0
  6  5  1  0
  7  8  1  0
  7  6  2  0
  8  9  2  0
  9  4  1  0
 10 11  2  0
 10 12  1  0
 12 13  1  0
 13 14  1  1
 15 14  1  0
 16 13  1  0
 16 17  2  0
 18 16  1  0
 19 18  1  0
 19 20  1  6
 21 20  1  0
 22 23  2  0
 22 21  1  0
 24 19  1  0
 25 24  1  0
 26 22  1  0
 27 24  2  0
M  END
$$$$
