FCE.pdb
     RDKit          3D

 27 27  0  0  1  0  0  0  0  0999 V2000
   23.4862   -9.1005  -17.7402 N   0  0  0  0  0  0  0  0  0  0  0  0
   22.9912   -8.4211  -16.5858 C   0  0  1  0  0  0  0  0  0  0  0  0
   24.1373   -7.6100  -15.9624 C   0  0  0  0  0  0  0  0  0  0  0  0
   25.2174   -8.5845  -15.6533 C   0  0  0  0  0  0  0  0  0  0  0  0
   25.0493   -9.5082  -14.6253 C   0  0  0  0  0  0  0  0  0  0  0  0
   26.0406  -10.4178  -14.3354 C   0  0  0  0  0  0  0  0  0  0  0  0
   27.2282  -10.4573  -15.0377 C   0  0  0  0  0  0  0  0  0  0  0  0
   27.4106   -9.5523  -16.0558 C   0  0  0  0  0  0  0  0  0  0  0  0
   26.4034   -8.6321  -16.3463 C   0  0  0  0  0  0  0  0  0  0  0  0
   21.8324   -7.5917  -16.9354 C   0  0  0  0  0  0  0  0  0  0  0  0
   21.8777   -6.7956  -17.9094 O   0  0  0  0  0  0  0  0  0  0  0  0
   20.6331   -7.6361  -16.2181 N   0  0  0  0  0  0  0  0  0  0  0  0
   19.3951   -7.0252  -16.6397 C   0  0  1  0  0  0  0  0  0  0  0  0
   18.1764   -7.8466  -16.4564 C   0  0  0  0  0  0  0  0  0  0  0  0
   18.2322   -9.4518  -17.2834 S   0  0  0  0  0  0  0  0  0  0  0  0
   19.2439   -5.7762  -15.8151 C   0  0  0  0  0  0  0  0  0  0  0  0
   19.5685   -5.7578  -14.5781 O   0  0  0  0  0  0  0  0  0  0  0  0
   18.7491   -4.5562  -16.3296 N   0  0  0  0  0  0  0  0  0  0  0  0
   18.4506   -3.4237  -15.4288 C   0  0  1  0  0  0  0  0  0  0  0  0
   18.5154   -2.1322  -16.2162 C   0  0  0  0  0  0  0  0  0  0  0  0
   18.1716   -0.9095  -15.4279 C   0  0  0  0  0  0  0  0  0  0  0  0
   18.2332    0.3294  -16.2480 C   0  0  0  0  0  0  0  0  0  0  0  0
   17.3023    1.1778  -16.1065 O   0  0  0  0  0  0  0  0  0  0  0  0
   17.1542   -3.6866  -14.8107 C   0  0  0  0  0  0  0  0  0  0  0  0
   16.7644   -3.1709  -13.5719 O   0  0  0  0  0  0  0  0  0  0  0  0
   19.2489    0.6138  -17.1562 O   0  0  0  0  0  0  0  0  0  0  0  0
   16.3140   -4.4117  -15.3908 O   0  0  0  0  0  0  0  0  0  0  0  0
  2  1  1  6
  2 10  1  0
  3  2  1  0
  4  3  1  0
  5  4  2  0
  6  5  1  0
  7  8  1  0
  7  6  2  0
  8  9  2  0
  9  4  1  0
 10 11  2  0
 10 12  1  0
 12 13  1  0
 13 14  1  1
 15 14  1  0
 16 13  1  0
 16 17  2  0
 18 16  1  0
 19 18  1  0
 19 20  1  6
 21 20  1  0
 22 23  2  0
 22 21  1  0
 24 19  1  0
 25 24  1  0
 26 22  1  0
 27 24  2  0
M  END
$$$$
