FCE.pdb
     RDKit          3D

 27 27  0  0  1  0  0  0  0  0999 V2000
   25.5598  -24.2092  -20.5050 N   0  0  0  0  0  0  0  0  0  0  0  0
   25.6397  -25.4922  -19.8830 C   0  0  1  0  0  0  0  0  0  0  0  0
   24.9874  -26.5301  -20.8090 C   0  0  0  0  0  0  0  0  0  0  0  0
   23.5353  -26.2103  -20.8357 C   0  0  0  0  0  0  0  0  0  0  0  0
   22.6853  -26.7485  -19.8733 C   0  0  0  0  0  0  0  0  0  0  0  0
   21.3410  -26.4540  -19.8862 C   0  0  0  0  0  0  0  0  0  0  0  0
   20.7807  -25.6252  -20.8372 C   0  0  0  0  0  0  0  0  0  0  0  0
   21.6056  -25.0853  -21.7947 C   0  0  0  0  0  0  0  0  0  0  0  0
   22.9674  -25.3865  -21.7781 C   0  0  0  0  0  0  0  0  0  0  0  0
   27.0323  -25.8183  -19.5554 C   0  0  0  0  0  0  0  0  0  0  0  0
   27.9853  -25.2900  -20.1858 O   0  0  0  0  0  0  0  0  0  0  0  0
   27.3745  -26.7201  -18.5432 N   0  0  0  0  0  0  0  0  0  0  0  0
   28.7155  -26.9531  -18.0629 C   0  0  1  0  0  0  0  0  0  0  0  0
   28.9676  -26.5823  -16.6513 C   0  0  0  0  0  0  0  0  0  0  0  0
   28.8492  -24.8109  -16.3169 S   0  0  0  0  0  0  0  0  0  0  0  0
   28.9601  -28.4302  -18.2078 C   0  0  0  0  0  0  0  0  0  0  0  0
   28.0646  -29.2832  -17.8818 O   0  0  0  0  0  0  0  0  0  0  0  0
   30.1643  -28.9769  -18.7067 N   0  0  0  0  0  0  0  0  0  0  0  0
   30.3005  -30.4328  -18.9188 C   0  0  1  0  0  0  0  0  0  0  0  0
   31.5117  -30.6970  -19.7879 C   0  0  0  0  0  0  0  0  0  0  0  0
   31.3548  -30.2728  -21.2126 C   0  0  0  0  0  0  0  0  0  0  0  0
   32.5584  -30.5782  -22.0307 C   0  0  0  0  0  0  0  0  0  0  0  0
   33.5507  -31.1073  -21.4461 O   0  0  0  0  0  0  0  0  0  0  0  0
   30.3559  -31.0631  -17.6029 C   0  0  0  0  0  0  0  0  0  0  0  0
   30.2356  -32.4394  -17.3942 O   0  0  0  0  0  0  0  0  0  0  0  0
   32.6598  -30.3216  -23.3949 O   0  0  0  0  0  0  0  0  0  0  0  0
   30.5188  -30.3657  -16.5755 O   0  0  0  0  0  0  0  0  0  0  0  0
  2  1  1  6
  2 10  1  0
  3  2  1  0
  4  3  1  0
  5  4  2  0
  6  5  1  0
  7  8  1  0
  7  6  2  0
  8  9  2  0
  9  4  1  0
 10 11  2  0
 10 12  1  0
 12 13  1  0
 13 14  1  1
 15 14  1  0
 16 13  1  0
 16 17  2  0
 18 16  1  0
 19 18  1  0
 19 20  1  1
 21 20  1  0
 22 23  2  0
 22 21  1  0
 24 19  1  0
 25 24  1  0
 26 22  1  0
 27 24  2  0
M  END
$$$$
