IYY.pdb
     RDKit          3D

 33 34  0  0  1  0  0  0  0  0999 V2000
   29.7297  -32.9828  -17.4817 C   0  0  0  0  0  0  0  0  0  0  0  0
   28.3758  -33.5975  -17.2444 C   0  0  0  0  0  0  0  0  0  0  0  0
   27.7414  -33.1492  -15.9575 C   0  0  2  0  0  0  0  0  0  0  0  0
   28.5685  -33.4454  -14.7507 C   0  0  0  0  0  0  0  0  0  0  0  0
   26.3255  -33.6372  -15.8075 C   0  0  2  0  0  0  0  0  0  0  0  0
   25.4514  -33.1440  -16.8328 N   0  0  0  0  0  0  0  0  0  0  0  0
   25.7918  -33.2571  -14.4669 C   0  0  0  0  0  0  0  0  0  0  0  0
   24.8977  -32.3766  -14.3398 O   0  0  0  0  0  0  0  0  0  0  0  0
   21.8329  -33.5670   -6.8539 O   0  0  0  0  0  0  0  0  0  0  0  0
   22.4337  -33.7296   -8.1167 C   0  0  0  0  0  0  0  0  0  0  0  0
   23.0533  -34.9030   -8.4740 C   0  0  0  0  0  0  0  0  0  0  0  0
   23.6425  -35.0814   -9.6950 C   0  0  0  0  0  0  0  0  0  0  0  0
   23.6198  -34.0362  -10.6238 C   0  0  0  0  0  0  0  0  0  0  0  0
   24.2470  -34.1890  -11.9352 C   0  0  0  0  0  0  0  0  0  0  0  0
   25.6080  -33.5664  -12.0001 C   0  0  2  0  0  0  0  0  0  0  0  0
   26.2689  -33.8714  -13.2758 N   0  0  0  0  0  0  0  0  0  0  0  0
   26.5272  -33.8993  -10.9256 C   0  0  0  0  0  0  0  0  0  0  0  0
   27.2159  -34.9432  -10.9862 O   0  0  0  0  0  0  0  0  0  0  0  0
   23.0055  -32.8543  -10.2865 C   0  0  0  0  0  0  0  0  0  0  0  0
   22.4231  -32.7162   -9.0440 C   0  0  0  0  0  0  0  0  0  0  0  0
   27.1749  -33.7110   -2.3266 O   0  0  0  0  0  0  0  0  0  0  0  0
   27.2297  -33.3274   -3.6660 C   0  0  0  0  0  0  0  0  0  0  0  0
   26.1290  -32.7699   -4.2660 C   0  0  0  0  0  0  0  0  0  0  0  0
   26.1914  -32.3872   -5.6108 C   0  0  0  0  0  0  0  0  0  0  0  0
   27.3356  -32.5592   -6.3440 C   0  0  0  0  0  0  0  0  0  0  0  0
   27.4073  -32.1644   -7.7492 C   0  0  0  0  0  0  0  0  0  0  0  0
   27.5184  -33.3578   -8.6734 C   0  0  2  0  0  0  0  0  0  0  0  0
   26.6587  -33.0585   -9.8036 N   0  0  0  0  0  0  0  0  0  0  0  0
   27.1073  -34.6278   -8.0605 C   0  0  0  0  0  0  0  0  0  0  0  0
   25.8157  -35.1196   -8.1804 O   0  0  0  0  0  0  0  0  0  0  0  0
   28.4277  -33.1166   -5.7345 C   0  0  0  0  0  0  0  0  0  0  0  0
   28.3909  -33.5067   -4.3941 C   0  0  0  0  0  0  0  0  0  0  0  0
   27.9244  -35.3255   -7.3942 O   0  0  0  0  0  0  0  0  0  0  0  0
  2  1  1  0
  3  2  1  0
  3  4  1  1
  5  3  1  0
  5  6  1  6
  7  5  1  0
  8  7  2  0
  9 10  1  0
 10 11  2  0
 10 20  1  0
 11 12  1  0
 12 13  2  0
 13 14  1  0
 15 14  1  1
 15 16  1  0
 16  7  1  0
 17 15  1  0
 17 28  1  0
 18 17  2  0
 19 13  1  0
 20 19  2  0
 21 22  1  0
 22 32  2  0
 23 24  2  0
 23 22  1  0
 24 25  1  0
 25 26  1  0
 25 31  2  0
 27 29  1  0
 27 28  1  0
 27 26  1  1
 29 30  1  0
 32 31  1  0
 33 29  2  0
M  END
$$$$
