IYY.pdb
     RDKit          3D

 33 34  0  0  1  0  0  0  0  0999 V2000
   28.6251  -17.6094  -16.9752 C   0  0  0  0  0  0  0  0  0  0  0  0
   27.5234  -18.6171  -16.7809 C   0  0  0  0  0  0  0  0  0  0  0  0
   26.9760  -18.6305  -15.3810 C   0  0  2  0  0  0  0  0  0  0  0  0
   28.0293  -18.7524  -14.3304 C   0  0  0  0  0  0  0  0  0  0  0  0
   25.8742  -19.6395  -15.1983 C   0  0  2  0  0  0  0  0  0  0  0  0
   24.8134  -19.4898  -16.1528 N   0  0  0  0  0  0  0  0  0  0  0  0
   25.3216  -19.5500  -13.8152 C   0  0  0  0  0  0  0  0  0  0  0  0
   24.8243  -18.4785  -13.3731 O   0  0  0  0  0  0  0  0  0  0  0  0
   18.9912  -19.2468  -14.0730 O   0  0  0  0  0  0  0  0  0  0  0  0
   20.1224  -19.7823  -13.4284 C   0  0  0  0  0  0  0  0  0  0  0  0
   21.0188  -20.5836  -14.0939 C   0  0  0  0  0  0  0  0  0  0  0  0
   22.1235  -21.1134  -13.4865 C   0  0  0  0  0  0  0  0  0  0  0  0
   22.3601  -20.8358  -12.1364 C   0  0  0  0  0  0  0  0  0  0  0  0
   23.5263  -21.3922  -11.4531 C   0  0  0  0  0  0  0  0  0  0  0  0
   24.7446  -20.5325  -11.5979 C   0  0  2  0  0  0  0  0  0  0  0  0
   25.3323  -20.6691  -12.9369 N   0  0  0  0  0  0  0  0  0  0  0  0
   25.8003  -20.7309  -10.6200 C   0  0  0  0  0  0  0  0  0  0  0  0
   26.6413  -21.6452  -10.7774 O   0  0  0  0  0  0  0  0  0  0  0  0
   21.4760  -20.0368  -11.4525 C   0  0  0  0  0  0  0  0  0  0  0  0
   20.3740  -19.5226  -12.1032 C   0  0  0  0  0  0  0  0  0  0  0  0
   30.0505  -19.3873   -2.9587 O   0  0  0  0  0  0  0  0  0  0  0  0
   29.2819  -19.2574   -4.1147 C   0  0  0  0  0  0  0  0  0  0  0  0
   29.7974  -18.6178   -5.2136 C   0  0  0  0  0  0  0  0  0  0  0  0
   29.0200  -18.4912   -6.3706 C   0  0  0  0  0  0  0  0  0  0  0  0
   27.7479  -18.9957   -6.4281 C   0  0  0  0  0  0  0  0  0  0  0  0
   26.9295  -18.8650   -7.6317 C   0  0  0  0  0  0  0  0  0  0  0  0
   26.7692  -20.1821   -8.3599 C   0  0  2  0  0  0  0  0  0  0  0  0
   25.8957  -19.9032   -9.4848 N   0  0  0  0  0  0  0  0  0  0  0  0
   26.1912  -21.2527   -7.5369 C   0  0  0  0  0  0  0  0  0  0  0  0
   26.9774  -22.2204   -6.9287 O   0  0  0  0  0  0  0  0  0  0  0  0
   27.2440  -19.6320   -5.3253 C   0  0  0  0  0  0  0  0  0  0  0  0
   27.9995  -19.7713   -4.1590 C   0  0  0  0  0  0  0  0  0  0  0  0
   24.9431  -21.3318   -7.3518 O   0  0  0  0  0  0  0  0  0  0  0  0
  2  1  1  0
  3  2  1  0
  3  4  1  1
  5  3  1  0
  5  6  1  6
  7  5  1  0
  8  7  2  0
  9 10  1  0
 10 11  2  0
 10 20  1  0
 11 12  1  0
 12 13  2  0
 13 14  1  0
 15 14  1  1
 15 16  1  0
 16  7  1  0
 17 15  1  0
 17 28  1  0
 18 17  2  0
 19 13  1  0
 20 19  2  0
 21 22  1  0
 22 32  2  0
 23 24  2  0
 23 22  1  0
 24 25  1  0
 25 26  1  0
 25 31  2  0
 27 29  1  0
 27 28  1  0
 27 26  1  1
 29 30  1  0
 32 31  1  0
 33 29  2  0
M  END
$$$$
