IYY.pdb
     RDKit          3D

 33 34  0  0  1  0  0  0  0  0999 V2000
   26.3732  -18.7888  -21.4534 C   0  0  0  0  0  0  0  0  0  0  0  0
   27.2031  -18.3249  -20.2858 C   0  0  0  0  0  0  0  0  0  0  0  0
   26.7292  -18.8747  -18.9695 C   0  0  2  0  0  0  0  0  0  0  0  0
   25.9323  -17.8992  -18.1685 C   0  0  0  0  0  0  0  0  0  0  0  0
   27.8406  -19.4939  -18.1652 C   0  0  2  0  0  0  0  0  0  0  0  0
   28.5477  -20.5165  -18.8812 N   0  0  0  0  0  0  0  0  0  0  0  0
   27.3009  -20.0540  -16.8918 C   0  0  0  0  0  0  0  0  0  0  0  0
   26.6285  -21.1210  -16.8747 O   0  0  0  0  0  0  0  0  0  0  0  0
   25.0922  -21.1301   -8.4243 O   0  0  0  0  0  0  0  0  0  0  0  0
   25.7431  -20.7540   -9.6146 C   0  0  0  0  0  0  0  0  0  0  0  0
   25.6255  -19.4858  -10.1304 C   0  0  0  0  0  0  0  0  0  0  0  0
   26.2493  -19.1004  -11.2845 C   0  0  0  0  0  0  0  0  0  0  0  0
   27.0401  -20.0243  -11.9751 C   0  0  0  0  0  0  0  0  0  0  0  0
   27.7147  -19.6492  -13.2164 C   0  0  0  0  0  0  0  0  0  0  0  0
   26.8981  -19.9596  -14.4334 C   0  0  2  0  0  0  0  0  0  0  0  0
   27.5219  -19.4083  -15.6435 N   0  0  0  0  0  0  0  0  0  0  0  0
   25.5088  -19.5359  -14.4097 C   0  0  0  0  0  0  0  0  0  0  0  0
   25.2181  -18.3227  -14.5171 O   0  0  0  0  0  0  0  0  0  0  0  0
   27.1709  -21.2980  -11.4765 C   0  0  0  0  0  0  0  0  0  0  0  0
   26.5245  -21.6454  -10.3088 C   0  0  0  0  0  0  0  0  0  0  0  0
   21.2810  -15.0310  -17.3900 O   0  0  0  0  0  0  0  0  0  0  0  0
   21.5522  -16.3008  -16.8821 C   0  0  0  0  0  0  0  0  0  0  0  0
   20.7911  -16.8080  -15.8594 C   0  0  0  0  0  0  0  0  0  0  0  0
   21.0692  -18.0835  -15.3546 C   0  0  0  0  0  0  0  0  0  0  0  0
   22.0915  -18.8396  -15.8639 C   0  0  0  0  0  0  0  0  0  0  0  0
   22.3892  -20.1710  -15.3402 C   0  0  0  0  0  0  0  0  0  0  0  0
   23.0911  -20.1147  -14.0005 C   0  0  2  0  0  0  0  0  0  0  0  0
   24.4711  -20.4769  -14.2664 N   0  0  0  0  0  0  0  0  0  0  0  0
   22.5262  -21.0212  -12.9921 C   0  0  0  0  0  0  0  0  0  0  0  0
   21.4126  -20.6818  -12.2377 O   0  0  0  0  0  0  0  0  0  0  0  0
   22.8442  -18.3230  -16.8844 C   0  0  0  0  0  0  0  0  0  0  0  0
   22.5870  -17.0531  -17.4055 C   0  0  0  0  0  0  0  0  0  0  0  0
   23.0403  -22.1552  -12.7731 O   0  0  0  0  0  0  0  0  0  0  0  0
  2  1  1  0
  3  2  1  0
  3  4  1  1
  5  3  1  0
  5  6  1  6
  7  5  1  0
  8  7  2  0
  9 10  1  0
 10 11  2  0
 10 20  1  0
 11 12  1  0
 12 13  2  0
 13 14  1  0
 15 14  1  1
 15 16  1  0
 16  7  1  0
 17 15  1  0
 17 28  1  0
 18 17  2  0
 19 13  1  0
 20 19  2  0
 21 22  1  0
 22 32  2  0
 23 24  2  0
 23 22  1  0
 24 25  1  0
 25 26  1  0
 25 31  2  0
 27 29  1  0
 27 28  1  0
 27 26  1  6
 29 30  1  0
 32 31  1  0
 33 29  2  0
M  END
$$$$
