IYY.pdb
     RDKit          3D

 33 34  0  0  1  0  0  0  0  0999 V2000
   29.8454  -16.6897  -17.3099 C   0  0  0  0  0  0  0  0  0  0  0  0
   29.4699  -18.0797  -17.7503 C   0  0  0  0  0  0  0  0  0  0  0  0
   28.0248  -18.4083  -17.4985 C   0  0  2  0  0  0  0  0  0  0  0  0
   27.6306  -18.3008  -16.0629 C   0  0  0  0  0  0  0  0  0  0  0  0
   27.6157  -19.7256  -18.1011 C   0  0  2  0  0  0  0  0  0  0  0  0
   27.9236  -19.8218  -19.4991 N   0  0  0  0  0  0  0  0  0  0  0  0
   26.1561  -19.9536  -17.8915 C   0  0  0  0  0  0  0  0  0  0  0  0
   25.2904  -19.1977  -18.4111 O   0  0  0  0  0  0  0  0  0  0  0  0
   18.0901  -22.9274  -17.3386 O   0  0  0  0  0  0  0  0  0  0  0  0
   19.4733  -22.7160  -17.4940 C   0  0  0  0  0  0  0  0  0  0  0  0
   19.9650  -21.5994  -18.1262 C   0  0  0  0  0  0  0  0  0  0  0  0
   21.3042  -21.3751  -18.2873 C   0  0  0  0  0  0  0  0  0  0  0  0
   22.2179  -22.3116  -17.7935 C   0  0  0  0  0  0  0  0  0  0  0  0
   23.6564  -22.1083  -17.9554 C   0  0  0  0  0  0  0  0  0  0  0  0
   24.2318  -21.1999  -16.9124 C   0  0  2  0  0  0  0  0  0  0  0  0
   25.6793  -21.0330  -17.0967 N   0  0  0  0  0  0  0  0  0  0  0  0
   23.9933  -21.5670  -15.5273 C   0  0  0  0  0  0  0  0  0  0  0  0
   24.5693  -22.5619  -15.0309 O   0  0  0  0  0  0  0  0  0  0  0  0
   21.7473  -23.4353  -17.1581 C   0  0  0  0  0  0  0  0  0  0  0  0
   20.3883  -23.6228  -17.0168 C   0  0  0  0  0  0  0  0  0  0  0  0
   29.0425  -20.1938  -12.3868 O   0  0  0  0  0  0  0  0  0  0  0  0
   27.6494  -20.1477  -12.4221 C   0  0  0  0  0  0  0  0  0  0  0  0
   27.0126  -19.2820  -13.2749 C   0  0  0  0  0  0  0  0  0  0  0  0
   25.6139  -19.2412  -13.3050 C   0  0  0  0  0  0  0  0  0  0  0  0
   24.8640  -20.0528  -12.4956 C   0  0  0  0  0  0  0  0  0  0  0  0
   23.4034  -20.0140  -12.5197 C   0  0  0  0  0  0  0  0  0  0  0  0
   22.8149  -21.1404  -13.3415 C   0  0  2  0  0  0  0  0  0  0  0  0
   23.1155  -20.8146  -14.7235 N   0  0  0  0  0  0  0  0  0  0  0  0
   21.3649  -21.3062  -13.1754 C   0  0  0  0  0  0  0  0  0  0  0  0
   20.8221  -22.0347  -12.1271 O   0  0  0  0  0  0  0  0  0  0  0  0
   25.5105  -20.9127  -11.6486 C   0  0  0  0  0  0  0  0  0  0  0  0
   26.9049  -20.9724  -11.5998 C   0  0  0  0  0  0  0  0  0  0  0  0
   20.5510  -20.7857  -13.9908 O   0  0  0  0  0  0  0  0  0  0  0  0
  2  1  1  0
  3  2  1  0
  3  4  1  1
  5  3  1  0
  5  6  1  6
  7  5  1  0
  8  7  2  0
  9 10  1  0
 10 11  2  0
 10 20  1  0
 11 12  1  0
 12 13  2  0
 13 14  1  0
 15 14  1  6
 15 16  1  0
 16  7  1  0
 17 15  1  0
 17 28  1  0
 18 17  2  0
 19 13  1  0
 20 19  2  0
 21 22  1  0
 22 32  2  0
 23 24  2  0
 23 22  1  0
 24 25  1  0
 25 26  1  0
 25 31  2  0
 27 29  1  0
 27 28  1  0
 27 26  1  1
 29 30  1  0
 32 31  1  0
 33 29  2  0
M  END
$$$$
