IYY.pdb
     RDKit          3D

 33 34  0  0  1  0  0  0  0  0999 V2000
   27.7298  -13.1837  -18.1998 C   0  0  0  0  0  0  0  0  0  0  0  0
   26.4936  -13.7856  -17.5861 C   0  0  0  0  0  0  0  0  0  0  0  0
   25.3655  -12.8021  -17.4459 C   0  0  2  0  0  0  0  0  0  0  0  0
   25.7312  -11.5832  -16.6657 C   0  0  0  0  0  0  0  0  0  0  0  0
   24.0992  -13.4396  -16.9402 C   0  0  2  0  0  0  0  0  0  0  0  0
   23.7138  -14.5964  -17.6964 N   0  0  0  0  0  0  0  0  0  0  0  0
   22.9877  -12.4441  -16.9435 C   0  0  0  0  0  0  0  0  0  0  0  0
   22.4239  -12.0905  -18.0150 O   0  0  0  0  0  0  0  0  0  0  0  0
   17.2858  -15.2240  -17.8237 O   0  0  0  0  0  0  0  0  0  0  0  0
   18.0157  -14.2353  -17.1367 C   0  0  0  0  0  0  0  0  0  0  0  0
   17.7933  -12.8963  -17.3511 C   0  0  0  0  0  0  0  0  0  0  0  0
   18.4909  -11.9206  -16.6945 C   0  0  0  0  0  0  0  0  0  0  0  0
   19.4708  -12.2880  -15.7667 C   0  0  0  0  0  0  0  0  0  0  0  0
   20.2414  -11.2716  -15.0528 C   0  0  0  0  0  0  0  0  0  0  0  0
   21.4595  -10.8350  -15.8077 C   0  0  2  0  0  0  0  0  0  0  0  0
   22.5171  -11.8518  -15.7387 N   0  0  0  0  0  0  0  0  0  0  0  0
   22.0371   -9.5576  -15.4272 C   0  0  0  0  0  0  0  0  0  0  0  0
   22.8011   -9.4811  -14.4381 O   0  0  0  0  0  0  0  0  0  0  0  0
   19.7089  -13.6217  -15.5375 C   0  0  0  0  0  0  0  0  0  0  0  0
   18.9825  -14.5738  -16.2214 C   0  0  0  0  0  0  0  0  0  0  0  0
   24.2804   -1.0876  -16.7663 O   0  0  0  0  0  0  0  0  0  0  0  0
   23.8502   -2.4090  -16.8792 C   0  0  0  0  0  0  0  0  0  0  0  0
   24.7407   -3.4381  -16.7050 C   0  0  0  0  0  0  0  0  0  0  0  0
   24.3017   -4.7621  -16.8199 C   0  0  0  0  0  0  0  0  0  0  0  0
   22.9938   -5.0527  -17.1044 C   0  0  0  0  0  0  0  0  0  0  0  0
   22.5288   -6.4325  -17.2283 C   0  0  0  0  0  0  0  0  0  0  0  0
   22.3517   -7.0993  -15.8812 C   0  0  2  0  0  0  0  0  0  0  0  0
   21.7494   -8.3900  -16.1599 N   0  0  0  0  0  0  0  0  0  0  0  0
   21.5015   -6.3464  -14.9496 C   0  0  0  0  0  0  0  0  0  0  0  0
   22.0312   -5.4774  -14.0069 O   0  0  0  0  0  0  0  0  0  0  0  0
   22.1142   -4.0175  -17.2760 C   0  0  0  0  0  0  0  0  0  0  0  0
   22.5273   -2.6879  -17.1666 C   0  0  0  0  0  0  0  0  0  0  0  0
   20.2430   -6.4650  -14.9734 O   0  0  0  0  0  0  0  0  0  0  0  0
  2  1  1  0
  3  2  1  0
  3  4  1  1
  5  3  1  0
  5  6  1  6
  7  5  1  0
  8  7  2  0
  9 10  1  0
 10 11  2  0
 10 20  1  0
 11 12  1  0
 12 13  2  0
 13 14  1  0
 15 14  1  1
 15 16  1  0
 16  7  1  0
 17 15  1  0
 17 28  1  0
 18 17  2  0
 19 13  1  0
 20 19  2  0
 21 22  1  0
 22 32  2  0
 23 24  2  0
 23 22  1  0
 24 25  1  0
 25 26  1  0
 25 31  2  0
 27 29  1  0
 27 28  1  0
 27 26  1  6
 29 30  1  0
 32 31  1  0
 33 29  2  0
M  END
$$$$
