IYY.pdb
     RDKit          3D

 33 34  0  0  1  0  0  0  0  0999 V2000
   23.0292  -20.6729  -21.7008 C   0  0  0  0  0  0  0  0  0  0  0  0
   23.5706  -19.7391  -20.6510 C   0  0  0  0  0  0  0  0  0  0  0  0
   23.2936  -20.2037  -19.2485 C   0  0  2  0  0  0  0  0  0  0  0  0
   21.8618  -20.5497  -19.0072 C   0  0  0  0  0  0  0  0  0  0  0  0
   23.8312  -19.2589  -18.2073 C   0  0  2  0  0  0  0  0  0  0  0  0
   25.2296  -18.9825  -18.3704 N   0  0  0  0  0  0  0  0  0  0  0  0
   23.5835  -19.8066  -16.8417 C   0  0  0  0  0  0  0  0  0  0  0  0
   24.4134  -20.5716  -16.2787 O   0  0  0  0  0  0  0  0  0  0  0  0
   22.0115  -20.5787   -8.3870 O   0  0  0  0  0  0  0  0  0  0  0  0
   22.1721  -20.1597   -9.7214 C   0  0  0  0  0  0  0  0  0  0  0  0
   21.2144  -19.4104  -10.3615 C   0  0  0  0  0  0  0  0  0  0  0  0
   21.3510  -18.9933  -11.6565 C   0  0  0  0  0  0  0  0  0  0  0  0
   22.5057  -19.3368  -12.3667 C   0  0  0  0  0  0  0  0  0  0  0  0
   22.6813  -18.9152  -13.7552 C   0  0  0  0  0  0  0  0  0  0  0  0
   22.2597  -19.9668  -14.7354 C   0  0  2  0  0  0  0  0  0  0  0  0
   22.4011  -19.4892  -16.1171 N   0  0  0  0  0  0  0  0  0  0  0  0
   20.9181  -20.5014  -14.5785 C   0  0  0  0  0  0  0  0  0  0  0  0
   19.9302  -19.8582  -15.0004 O   0  0  0  0  0  0  0  0  0  0  0  0
   23.4757  -20.0857  -11.7453 C   0  0  0  0  0  0  0  0  0  0  0  0
   23.2981  -20.4858  -10.4375 C   0  0  0  0  0  0  0  0  0  0  0  0
   14.8125  -26.2561  -11.7314 O   0  0  0  0  0  0  0  0  0  0  0  0
   16.0058  -25.5978  -12.0257 C   0  0  0  0  0  0  0  0  0  0  0  0
   16.8827  -25.2832  -11.0184 C   0  0  0  0  0  0  0  0  0  0  0  0
   18.0787  -24.6223  -11.3214 C   0  0  0  0  0  0  0  0  0  0  0  0
   18.3931  -24.2815  -12.6102 C   0  0  0  0  0  0  0  0  0  0  0  0
   19.6387  -23.5893  -12.9337 C   0  0  0  0  0  0  0  0  0  0  0  0
   19.3937  -22.2531  -13.6008 C   0  0  2  0  0  0  0  0  0  0  0  0
   20.7068  -21.7452  -13.9530 N   0  0  0  0  0  0  0  0  0  0  0  0
   18.6977  -21.2794  -12.7491 C   0  0  0  0  0  0  0  0  0  0  0  0
   19.2679  -20.7746  -11.5897 O   0  0  0  0  0  0  0  0  0  0  0  0
   17.5104  -24.6008  -13.6071 C   0  0  0  0  0  0  0  0  0  0  0  0
   16.3106  -25.2599  -13.3309 C   0  0  0  0  0  0  0  0  0  0  0  0
   17.5414  -20.8626  -13.0452 O   0  0  0  0  0  0  0  0  0  0  0  0
  2  1  1  0
  3  2  1  0
  3  4  1  6
  5  3  1  0
  5  6  1  6
  7  5  1  0
  8  7  2  0
  9 10  1  0
 10 11  2  0
 10 20  1  0
 11 12  1  0
 12 13  2  0
 13 14  1  0
 15 14  1  1
 15 16  1  0
 16  7  1  0
 17 15  1  0
 17 28  1  0
 18 17  2  0
 19 13  1  0
 20 19  2  0
 21 22  1  0
 22 32  2  0
 23 24  2  0
 23 22  1  0
 24 25  1  0
 25 26  1  0
 25 31  2  0
 27 29  1  0
 27 28  1  0
 27 26  1  1
 29 30  1  0
 32 31  1  0
 33 29  2  0
M  END
$$$$
