IYY.pdb
     RDKit          3D

 33 34  0  0  1  0  0  0  0  0999 V2000
   25.5732  -32.6849   -9.1294 C   0  0  0  0  0  0  0  0  0  0  0  0
   26.9350  -33.2901   -9.3441 C   0  0  0  0  0  0  0  0  0  0  0  0
   27.5927  -33.7318   -8.0667 C   0  0  2  0  0  0  0  0  0  0  0  0
   27.5205  -32.7146   -6.9767 C   0  0  0  0  0  0  0  0  0  0  0  0
   28.9952  -34.2350   -8.2798 C   0  0  2  0  0  0  0  0  0  0  0  0
   29.0570  -35.3648   -9.1620 N   0  0  0  0  0  0  0  0  0  0  0  0
   29.6183  -34.5858   -6.9702 C   0  0  0  0  0  0  0  0  0  0  0  0
   29.4351  -35.7131   -6.4350 O   0  0  0  0  0  0  0  0  0  0  0  0
   35.9062  -36.7487   -8.0746 O   0  0  0  0  0  0  0  0  0  0  0  0
   35.0478  -35.9758   -7.2697 C   0  0  0  0  0  0  0  0  0  0  0  0
   34.6788  -36.3845   -6.0106 C   0  0  0  0  0  0  0  0  0  0  0  0
   33.8467  -35.6489   -5.2130 C   0  0  0  0  0  0  0  0  0  0  0  0
   33.3457  -34.4321   -5.6866 C   0  0  0  0  0  0  0  0  0  0  0  0
   32.4471  -33.6241   -4.8643 C   0  0  0  0  0  0  0  0  0  0  0  0
   31.0172  -34.0568   -4.9757 C   0  0  2  0  0  0  0  0  0  0  0  0
   30.4450  -33.6637   -6.2700 N   0  0  0  0  0  0  0  0  0  0  0  0
   30.1174  -33.6041   -3.9290 C   0  0  0  0  0  0  0  0  0  0  0  0
   29.8763  -32.3833   -3.7899 O   0  0  0  0  0  0  0  0  0  0  0  0
   33.7022  -34.0051   -6.9430 C   0  0  0  0  0  0  0  0  0  0  0  0
   34.5442  -34.7778   -7.7149 C   0  0  0  0  0  0  0  0  0  0  0  0
   23.2006  -33.3281    1.2993 O   0  0  0  0  0  0  0  0  0  0  0  0
   24.1902  -33.5876    0.3521 C   0  0  0  0  0  0  0  0  0  0  0  0
   24.6267  -32.5853   -0.4769 C   0  0  0  0  0  0  0  0  0  0  0  0
   25.6205  -32.8533   -1.4253 C   0  0  0  0  0  0  0  0  0  0  0  0
   26.1690  -34.1029   -1.5432 C   0  0  0  0  0  0  0  0  0  0  0  0
   27.2051  -34.3906   -2.5327 C   0  0  0  0  0  0  0  0  0  0  0  0
   28.5966  -34.1399   -1.9930 C   0  0  2  0  0  0  0  0  0  0  0  0
   29.5044  -34.5250   -3.0579 N   0  0  0  0  0  0  0  0  0  0  0  0
   28.9104  -34.8991   -0.7753 C   0  0  0  0  0  0  0  0  0  0  0  0
   29.7406  -36.0103   -0.7935 O   0  0  0  0  0  0  0  0  0  0  0  0
   25.7255  -35.0951   -0.7104 C   0  0  0  0  0  0  0  0  0  0  0  0
   24.7351  -34.8533    0.2441 C   0  0  0  0  0  0  0  0  0  0  0  0
   28.4295  -34.5638    0.3448 O   0  0  0  0  0  0  0  0  0  0  0  0
  2  1  1  0
  3  2  1  0
  3  4  1  1
  5  3  1  0
  5  6  1  6
  7  5  1  0
  8  7  2  0
  9 10  1  0
 10 11  2  0
 10 20  1  0
 11 12  1  0
 12 13  2  0
 13 14  1  0
 15 14  1  1
 15 16  1  0
 16  7  1  0
 17 15  1  0
 17 28  1  0
 18 17  2  0
 19 13  1  0
 20 19  2  0
 21 22  1  0
 22 32  2  0
 23 24  2  0
 23 22  1  0
 24 25  1  0
 25 26  1  0
 25 31  2  0
 27 29  1  0
 27 28  1  0
 27 26  1  6
 29 30  1  0
 32 31  1  0
 33 29  2  0
M  END
$$$$
