IYY.pdb
     RDKit          3D

 33 34  0  0  1  0  0  0  0  0999 V2000
   19.1461  -13.5515  -19.9912 C   0  0  0  0  0  0  0  0  0  0  0  0
   20.6321  -13.4147  -19.7905 C   0  0  0  0  0  0  0  0  0  0  0  0
   20.9919  -12.5372  -18.6244 C   0  0  2  0  0  0  0  0  0  0  0  0
   20.3286  -11.2003  -18.6577 C   0  0  0  0  0  0  0  0  0  0  0  0
   22.4787  -12.4267  -18.4181 C   0  0  2  0  0  0  0  0  0  0  0  0
   23.1220  -13.7023  -18.2847 N   0  0  0  0  0  0  0  0  0  0  0  0
   22.7687  -11.5900  -17.2171 C   0  0  0  0  0  0  0  0  0  0  0  0
   22.7780  -12.0846  -16.0569 O   0  0  0  0  0  0  0  0  0  0  0  0
   29.1530  -11.9913  -17.2737 O   0  0  0  0  0  0  0  0  0  0  0  0
   28.0402  -11.1629  -17.0338 C   0  0  0  0  0  0  0  0  0  0  0  0
   27.5543  -10.9587  -15.7648 C   0  0  0  0  0  0  0  0  0  0  0  0
   26.4753  -10.1582  -15.5104 C   0  0  0  0  0  0  0  0  0  0  0  0
   25.8336   -9.5176  -16.5752 C   0  0  0  0  0  0  0  0  0  0  0  0
   24.6723   -8.6615  -16.3409 C   0  0  0  0  0  0  0  0  0  0  0  0
   23.4129   -9.4436  -16.1250 C   0  0  2  0  0  0  0  0  0  0  0  0
   23.0466  -10.1994  -17.3300 N   0  0  0  0  0  0  0  0  0  0  0  0
   22.2471   -8.6925  -15.6925 C   0  0  0  0  0  0  0  0  0  0  0  0
   21.4400   -8.2406  -16.5363 O   0  0  0  0  0  0  0  0  0  0  0  0
   26.3035   -9.7085  -17.8522 C   0  0  0  0  0  0  0  0  0  0  0  0
   27.3950  -10.5242  -18.0648 C   0  0  0  0  0  0  0  0  0  0  0  0
   16.0894   -6.1490   -9.8881 O   0  0  0  0  0  0  0  0  0  0  0  0
   17.2594   -6.6094  -10.4905 C   0  0  0  0  0  0  0  0  0  0  0  0
   18.2881   -5.7385  -10.7469 C   0  0  0  0  0  0  0  0  0  0  0  0
   19.4598   -6.2079  -11.3518 C   0  0  0  0  0  0  0  0  0  0  0  0
   19.6008   -7.5264  -11.6949 C   0  0  0  0  0  0  0  0  0  0  0  0
   20.8201   -8.0231  -12.3290 C   0  0  0  0  0  0  0  0  0  0  0  0
   20.8296   -7.7758  -13.8221 C   0  0  2  0  0  0  0  0  0  0  0  0
   22.0060   -8.4612  -14.3245 N   0  0  0  0  0  0  0  0  0  0  0  0
   20.8878   -6.3553  -14.1916 C   0  0  0  0  0  0  0  0  0  0  0  0
   19.7649   -5.6562  -14.6094 O   0  0  0  0  0  0  0  0  0  0  0  0
   18.5676   -8.3863  -11.4341 C   0  0  0  0  0  0  0  0  0  0  0  0
   17.3884   -7.9428  -10.8315 C   0  0  0  0  0  0  0  0  0  0  0  0
   21.9751   -5.7123  -14.1419 O   0  0  0  0  0  0  0  0  0  0  0  0
  2  1  1  0
  3  2  1  0
  3  4  1  6
  5  3  1  0
  5  6  1  1
  7  5  1  0
  8  7  2  0
  9 10  1  0
 10 11  2  0
 10 20  1  0
 11 12  1  0
 12 13  2  0
 13 14  1  0
 15 14  1  6
 15 16  1  0
 16  7  1  0
 17 15  1  0
 17 28  1  0
 18 17  2  0
 19 13  1  0
 20 19  2  0
 21 22  1  0
 22 32  2  0
 23 24  2  0
 23 22  1  0
 24 25  1  0
 25 26  1  0
 25 31  2  0
 27 29  1  0
 27 28  1  0
 27 26  1  1
 29 30  1  0
 32 31  1  0
 33 29  2  0
M  END
$$$$
