IYY.pdb
     RDKit          3D

 33 34  0  0  1  0  0  0  0  0999 V2000
   27.6112  -17.7867  -21.0255 C   0  0  0  0  0  0  0  0  0  0  0  0
   26.2463  -18.2366  -21.4745 C   0  0  0  0  0  0  0  0  0  0  0  0
   25.2124  -18.1612  -20.3860 C   0  0  2  0  0  0  0  0  0  0  0  0
   25.6372  -18.8171  -19.1142 C   0  0  0  0  0  0  0  0  0  0  0  0
   23.8563  -18.6310  -20.8400 C   0  0  2  0  0  0  0  0  0  0  0  0
   23.3405  -17.8714  -21.9425 N   0  0  0  0  0  0  0  0  0  0  0  0
   22.8910  -18.5851  -19.7032 C   0  0  0  0  0  0  0  0  0  0  0  0
   22.4064  -17.4946  -19.2948 O   0  0  0  0  0  0  0  0  0  0  0  0
   16.5057  -20.0444  -13.9846 O   0  0  0  0  0  0  0  0  0  0  0  0
   17.4138  -20.0374  -15.0605 C   0  0  0  0  0  0  0  0  0  0  0  0
   17.6758  -18.8930  -15.7746 C   0  0  0  0  0  0  0  0  0  0  0  0
   18.5540  -18.8648  -16.8223 C   0  0  0  0  0  0  0  0  0  0  0  0
   19.2167  -20.0401  -17.1902 C   0  0  0  0  0  0  0  0  0  0  0  0
   20.1556  -20.0484  -18.3104 C   0  0  0  0  0  0  0  0  0  0  0  0
   21.5441  -19.6612  -17.9024 C   0  0  2  0  0  0  0  0  0  0  0  0
   22.4768  -19.7691  -19.0320 N   0  0  0  0  0  0  0  0  0  0  0  0
   22.1152  -20.3797  -16.7764 C   0  0  0  0  0  0  0  0  0  0  0  0
   22.5957  -21.5247  -16.9378 O   0  0  0  0  0  0  0  0  0  0  0  0
   18.9689  -21.1956  -16.4892 C   0  0  0  0  0  0  0  0  0  0  0  0
   18.0755  -21.1803  -15.4387 C   0  0  0  0  0  0  0  0  0  0  0  0
   25.8026  -21.6297   -8.9022 O   0  0  0  0  0  0  0  0  0  0  0  0
   25.2555  -21.1106  -10.0749 C   0  0  0  0  0  0  0  0  0  0  0  0
   25.8688  -21.3428  -11.2800 C   0  0  0  0  0  0  0  0  0  0  0  0
   25.3138  -20.8185  -12.4531 C   0  0  0  0  0  0  0  0  0  0  0  0
   24.1645  -20.0741  -12.4219 C   0  0  0  0  0  0  0  0  0  0  0  0
   23.5807  -19.5214  -13.6422 C   0  0  0  0  0  0  0  0  0  0  0  0
   22.6331  -20.4921  -14.3133 C   0  0  2  0  0  0  0  0  0  0  0  0
   22.1381  -19.8043  -15.4914 N   0  0  0  0  0  0  0  0  0  0  0  0
   21.5039  -20.9042  -13.4689 C   0  0  0  0  0  0  0  0  0  0  0  0
   21.4423  -22.1599  -12.8826 O   0  0  0  0  0  0  0  0  0  0  0  0
   23.5612  -19.8489  -11.2135 C   0  0  0  0  0  0  0  0  0  0  0  0
   24.0950  -20.3610  -10.0289 C   0  0  0  0  0  0  0  0  0  0  0  0
   20.5373  -20.1210  -13.2442 O   0  0  0  0  0  0  0  0  0  0  0  0
  2  1  1  0
  3  2  1  0
  3  4  1  1
  5  3  1  0
  5  6  1  6
  7  5  1  0
  8  7  2  0
  9 10  1  0
 10 11  2  0
 10 20  1  0
 11 12  1  0
 12 13  2  0
 13 14  1  0
 15 14  1  6
 15 16  1  0
 16  7  1  0
 17 15  1  0
 17 28  1  0
 18 17  2  0
 19 13  1  0
 20 19  2  0
 21 22  1  0
 22 32  2  0
 23 24  2  0
 23 22  1  0
 24 25  1  0
 25 26  1  0
 25 31  2  0
 27 29  1  0
 27 28  1  0
 27 26  1  1
 29 30  1  0
 32 31  1  0
 33 29  2  0
M  END
$$$$
