IYY.pdb
     RDKit          3D

 33 34  0  0  1  0  0  0  0  0999 V2000
   16.6313  -13.5487    2.6123 C   0  0  0  0  0  0  0  0  0  0  0  0
   17.5808  -14.7144    2.5310 C   0  0  0  0  0  0  0  0  0  0  0  0
   17.5386  -15.5961    3.7476 C   0  0  2  0  0  0  0  0  0  0  0  0
   17.6566  -14.8449    5.0322 C   0  0  0  0  0  0  0  0  0  0  0  0
   18.5130  -16.7406    3.6692 C   0  0  2  0  0  0  0  0  0  0  0  0
   18.3239  -17.5585    2.5057 N   0  0  0  0  0  0  0  0  0  0  0  0
   18.4140  -17.5829    4.8968 C   0  0  0  0  0  0  0  0  0  0  0  0
   18.3490  -17.0667    6.0458 O   0  0  0  0  0  0  0  0  0  0  0  0
   14.0942  -21.4878    1.5804 O   0  0  0  0  0  0  0  0  0  0  0  0
   15.0351  -21.4107    2.6248 C   0  0  0  0  0  0  0  0  0  0  0  0
   16.3831  -21.5399    2.3911 C   0  0  0  0  0  0  0  0  0  0  0  0
   17.3130  -21.4680    3.3910 C   0  0  0  0  0  0  0  0  0  0  0  0
   16.8873  -21.2552    4.7060 C   0  0  0  0  0  0  0  0  0  0  0  0
   17.8531  -21.1814    5.8007 C   0  0  0  0  0  0  0  0  0  0  0  0
   18.3185  -19.7824    6.0664 C   0  0  2  0  0  0  0  0  0  0  0  0
   18.3889  -19.0034    4.8232 N   0  0  0  0  0  0  0  0  0  0  0  0
   19.5869  -19.6397    6.7599 C   0  0  0  0  0  0  0  0  0  0  0  0
   20.6557  -19.5729    6.1112 O   0  0  0  0  0  0  0  0  0  0  0  0
   15.5436  -21.1235    4.9615 C   0  0  0  0  0  0  0  0  0  0  0  0
   14.6389  -21.2023    3.9236 C   0  0  0  0  0  0  0  0  0  0  0  0
   25.3261  -15.4503   11.4167 O   0  0  0  0  0  0  0  0  0  0  0  0
   24.2987  -16.0274   10.6715 C   0  0  0  0  0  0  0  0  0  0  0  0
   23.0906  -15.3873   10.5569 C   0  0  0  0  0  0  0  0  0  0  0  0
   22.0639  -15.9727    9.8071 C   0  0  0  0  0  0  0  0  0  0  0  0
   22.2420  -17.1784    9.1820 C   0  0  0  0  0  0  0  0  0  0  0  0
   21.1738  -17.7967    8.3997 C   0  0  0  0  0  0  0  0  0  0  0  0
   20.8167  -19.1763    8.9095 C   0  0  2  0  0  0  0  0  0  0  0  0
   19.6359  -19.5746    8.1657 N   0  0  0  0  0  0  0  0  0  0  0  0
   20.5351  -19.2258   10.3503 C   0  0  0  0  0  0  0  0  0  0  0  0
   21.4568  -19.7145   11.2647 O   0  0  0  0  0  0  0  0  0  0  0  0
   23.4519  -17.8078    9.3033 C   0  0  0  0  0  0  0  0  0  0  0  0
   24.4921  -17.2447   10.0457 C   0  0  0  0  0  0  0  0  0  0  0  0
   19.4307  -18.8208   10.8136 O   0  0  0  0  0  0  0  0  0  0  0  0
  2  1  1  0
  3  2  1  0
  3  4  1  1
  5  3  1  0
  5  6  1  6
  7  5  1  0
  8  7  2  0
  9 10  1  0
 10 11  2  0
 10 20  1  0
 11 12  1  0
 12 13  2  0
 13 14  1  0
 15 14  1  6
 15 16  1  0
 16  7  1  0
 17 15  1  0
 17 28  1  0
 18 17  2  0
 19 13  1  0
 20 19  2  0
 21 22  1  0
 22 32  2  0
 23 24  2  0
 23 22  1  0
 24 25  1  0
 25 26  1  0
 25 31  2  0
 27 29  1  0
 27 28  1  0
 27 26  1  6
 29 30  1  0
 32 31  1  0
 33 29  2  0
M  END
$$$$
