KVC.pdb
     RDKit          3D

 23 22  0  0  1  0  0  0  0  0999 V2000
    7.3199  -16.6619   21.5201 N   0  0  0  0  0  0  0  0  0  0  0  0
    7.0199  -16.8733   22.9123 C   0  0  1  0  0  0  0  0  0  0  0  0
    7.2789  -18.2933   23.3227 C   0  0  0  0  0  0  0  0  0  0  0  0
    6.3305  -19.2252   22.6370 C   0  0  0  0  0  0  0  0  0  0  0  0
    5.2828  -19.8192   23.5457 C   0  0  0  0  0  0  0  0  0  0  0  0
    4.4212  -20.7328   22.6711 C   0  0  0  0  0  0  0  0  0  0  0  0
    3.3206  -21.1981   23.5127 N   0  0  0  0  0  0  0  0  0  0  0  0
    7.7358  -15.9063   23.7905 C   0  0  0  0  0  0  0  0  0  0  0  0
    8.9521  -15.7143   23.5412 O   0  0  0  0  0  0  0  0  0  0  0  0
    6.2937  -12.5116   25.2609 C   0  0  0  0  0  0  0  0  0  0  0  0
    6.9970  -13.2886   26.3035 C   0  0  2  0  0  0  0  0  0  0  0  0
    7.6845  -12.3399   27.2619 C   0  0  0  0  0  0  0  0  0  0  0  0
    7.9320  -14.3009   25.7220 C   0  0  2  0  0  0  0  0  0  0  0  0
    7.1477  -15.2181   24.8483 N   0  0  0  0  0  0  0  0  0  0  0  0
    8.6366  -15.1468   26.7145 C   0  0  0  0  0  0  0  0  0  0  0  0
    7.9906  -16.0609   27.3565 O   0  0  0  0  0  0  0  0  0  0  0  0
    9.9940  -15.0634   27.0467 N   0  0  0  0  0  0  0  0  0  0  0  0
   10.6434  -15.9543   27.9943 C   0  0  1  0  0  0  0  0  0  0  0  0
   12.1189  -15.9869   27.5666 C   0  0  0  0  0  0  0  0  0  0  0  0
   12.2970  -16.3590   25.8216 S   0  0  0  0  0  0  0  0  0  0  0  0
   10.6155  -15.3251   29.3240 C   0  0  0  0  0  0  0  0  0  0  0  0
   10.1942  -14.1457   29.5210 O   0  0  0  0  0  0  0  0  0  0  0  0
   11.0575  -16.0138   30.4298 O   0  0  0  0  0  0  0  0  0  0  0  0
  2  1  1  6
  2  3  1  0
  3  4  1  0
  4  5  1  0
  5  6  1  0
  6  7  1  0
  8  2  1  0
  8 14  1  0
  9  8  2  0
 11 10  1  6
 11 13  1  0
 11 12  1  0
 13 14  1  6
 15 17  1  0
 15 13  1  0
 16 15  2  0
 18 17  1  0
 18 21  1  0
 18 19  1  6
 20 19  1  0
 21 23  1  0
 22 21  2  0
M  END
$$$$
