KVC.pdb
     RDKit          3D

 23 22  0  0  1  0  0  0  0  0999 V2000
    7.5654  -18.4573   17.3086 N   0  0  0  0  0  0  0  0  0  0  0  0
    6.9860  -18.0914   18.5748 C   0  0  1  0  0  0  0  0  0  0  0  0
    6.7588  -19.2928   19.4449 C   0  0  0  0  0  0  0  0  0  0  0  0
    5.6379  -20.1287   18.9132 C   0  0  0  0  0  0  0  0  0  0  0  0
    5.2578  -21.2886   19.8000 C   0  0  0  0  0  0  0  0  0  0  0  0
    4.2177  -22.1010   19.0254 C   0  0  0  0  0  0  0  0  0  0  0  0
    3.8504  -23.2291   19.8791 N   0  0  0  0  0  0  0  0  0  0  0  0
    7.7863  -17.0477   19.2740 C   0  0  0  0  0  0  0  0  0  0  0  0
    9.0350  -17.1839   19.2459 O   0  0  0  0  0  0  0  0  0  0  0  0
    6.8651  -13.1486   19.3405 C   0  0  0  0  0  0  0  0  0  0  0  0
    7.3035  -13.6430   20.6628 C   0  0  2  0  0  0  0  0  0  0  0  0
    8.0422  -12.5422   21.3934 C   0  0  0  0  0  0  0  0  0  0  0  0
    8.1005  -14.9046   20.5604 C   0  0  2  0  0  0  0  0  0  0  0  0
    7.2424  -15.9540   19.9420 N   0  0  0  0  0  0  0  0  0  0  0  0
    8.5840  -15.4475   21.8521 C   0  0  0  0  0  0  0  0  0  0  0  0
    7.7383  -15.8645   22.7330 O   0  0  0  0  0  0  0  0  0  0  0  0
    9.9234  -15.5686   22.2410 N   0  0  0  0  0  0  0  0  0  0  0  0
   10.3393  -16.1008   23.5283 C   0  0  1  0  0  0  0  0  0  0  0  0
   10.1916  -17.6247   23.3979 C   0  0  0  0  0  0  0  0  0  0  0  0
   10.5599  -18.4627   24.9397 S   0  0  0  0  0  0  0  0  0  0  0  0
   11.7772  -15.8412   23.7005 C   0  0  0  0  0  0  0  0  0  0  0  0
   12.5296  -15.4666   22.7514 O   0  0  0  0  0  0  0  0  0  0  0  0
   12.3711  -16.0003   24.9311 O   0  0  0  0  0  0  0  0  0  0  0  0
  2  1  1  6
  2  3  1  0
  3  4  1  0
  4  5  1  0
  5  6  1  0
  6  7  1  0
  8  2  1  0
  8 14  1  0
  9  8  2  0
 11 10  1  6
 11 13  1  0
 11 12  1  0
 13 14  1  1
 15 17  1  0
 15 13  1  0
 16 15  2  0
 18 17  1  0
 18 21  1  0
 18 19  1  6
 20 19  1  0
 21 23  1  0
 22 21  2  0
M  END
$$$$
