KVC.pdb
     RDKit          3D

 23 22  0  0  1  0  0  0  0  0999 V2000
   10.1430  -17.4942   16.6614 N   0  0  0  0  0  0  0  0  0  0  0  0
    9.1086  -17.4672   17.6624 C   0  0  1  0  0  0  0  0  0  0  0  0
    8.8360  -18.8371   18.2108 C   0  0  0  0  0  0  0  0  0  0  0  0
    7.9666  -19.6189   17.2777 C   0  0  0  0  0  0  0  0  0  0  0  0
    8.6294  -20.8428   16.6953 C   0  0  0  0  0  0  0  0  0  0  0  0
    7.5646  -21.5511   15.8549 C   0  0  0  0  0  0  0  0  0  0  0  0
    8.1527  -22.8154   15.4170 N   0  0  0  0  0  0  0  0  0  0  0  0
    9.4058  -16.4887   18.7456 C   0  0  0  0  0  0  0  0  0  0  0  0
   10.6182  -16.2991   19.0149 O   0  0  0  0  0  0  0  0  0  0  0  0
    7.6530  -12.9101   19.4905 C   0  0  0  0  0  0  0  0  0  0  0  0
    7.7081  -13.8142   20.6588 C   0  0  2  0  0  0  0  0  0  0  0  0
    7.8052  -12.9939   21.9273 C   0  0  0  0  0  0  0  0  0  0  0  0
    8.8021  -14.8273   20.5405 C   0  0  2  0  0  0  0  0  0  0  0  0
    8.4387  -15.7877   19.4609 N   0  0  0  0  0  0  0  0  0  0  0  0
    9.0519  -15.6263   21.7636 C   0  0  0  0  0  0  0  0  0  0  0  0
    8.1927  -16.5116   22.1418 O   0  0  0  0  0  0  0  0  0  0  0  0
   10.1747  -15.5256   22.5938 N   0  0  0  0  0  0  0  0  0  0  0  0
   10.3451  -16.3047   23.8093 C   0  0  1  0  0  0  0  0  0  0  0  0
   11.8608  -16.3274   24.0609 C   0  0  0  0  0  0  0  0  0  0  0  0
   12.7077  -17.4211   22.9200 S   0  0  0  0  0  0  0  0  0  0  0  0
    9.7542  -15.5585   24.9312 C   0  0  0  0  0  0  0  0  0  0  0  0
    9.3321  -14.3680   24.8223 O   0  0  0  0  0  0  0  0  0  0  0  0
    9.6358  -16.1428   26.1709 O   0  0  0  0  0  0  0  0  0  0  0  0
  2  1  1  6
  2  3  1  0
  3  4  1  0
  4  5  1  0
  5  6  1  0
  6  7  1  0
  8  2  1  0
  8 14  1  0
  9  8  2  0
 11 10  1  6
 11 13  1  0
 11 12  1  0
 13 14  1  6
 15 17  1  0
 15 13  1  0
 16 15  2  0
 18 17  1  0
 18 21  1  0
 18 19  1  1
 20 19  1  0
 21 23  1  0
 22 21  2  0
M  END
$$$$
