KVC.pdb
     RDKit          3D

 23 22  0  0  1  0  0  0  0  0999 V2000
    9.6850  -17.4248   16.4431 N   0  0  0  0  0  0  0  0  0  0  0  0
    8.7542  -17.5037   17.5387 C   0  0  1  0  0  0  0  0  0  0  0  0
    8.5842  -18.9158   18.0172 C   0  0  0  0  0  0  0  0  0  0  0  0
    8.1577  -19.8085   16.8952 C   0  0  0  0  0  0  0  0  0  0  0  0
    7.0274  -20.7444   17.2459 C   0  0  0  0  0  0  0  0  0  0  0  0
    6.6717  -21.4923   15.9591 C   0  0  0  0  0  0  0  0  0  0  0  0
    5.6875  -22.5085   16.3265 N   0  0  0  0  0  0  0  0  0  0  0  0
    9.1232  -16.5850   18.6517 C   0  0  0  0  0  0  0  0  0  0  0  0
   10.3505  -16.4415   18.8788 O   0  0  0  0  0  0  0  0  0  0  0  0
    7.2068  -13.1388   19.6845 C   0  0  0  0  0  0  0  0  0  0  0  0
    7.5151  -14.0299   20.8229 C   0  0  2  0  0  0  0  0  0  0  0  0
    7.7627  -13.1974   22.0626 C   0  0  0  0  0  0  0  0  0  0  0  0
    8.6419  -14.9661   20.5209 C   0  0  2  0  0  0  0  0  0  0  0  0
    8.2066  -15.8916   19.4374 N   0  0  0  0  0  0  0  0  0  0  0  0
    9.0794  -15.8087   21.6591 C   0  0  0  0  0  0  0  0  0  0  0  0
    8.3295  -16.7742   22.0719 O   0  0  0  0  0  0  0  0  0  0  0  0
   10.2779  -15.6697   22.3692 N   0  0  0  0  0  0  0  0  0  0  0  0
   10.7001  -16.5858   23.4160 C   0  0  1  0  0  0  0  0  0  0  0  0
   12.2356  -16.5280   23.4031 C   0  0  0  0  0  0  0  0  0  0  0  0
   12.9085  -17.0804   21.8356 S   0  0  0  0  0  0  0  0  0  0  0  0
   10.2798  -16.0387   24.7155 C   0  0  0  0  0  0  0  0  0  0  0  0
    9.6580  -14.9401   24.8334 O   0  0  0  0  0  0  0  0  0  0  0  0
   10.5543  -16.7189   25.8792 O   0  0  0  0  0  0  0  0  0  0  0  0
  2  1  1  6
  2  3  1  0
  3  4  1  0
  4  5  1  0
  5  6  1  0
  6  7  1  0
  8  2  1  0
  8 14  1  0
  9  8  2  0
 11 10  1  6
 11 13  1  0
 11 12  1  0
 13 14  1  6
 15 17  1  0
 15 13  1  0
 16 15  2  0
 18 17  1  0
 18 21  1  0
 18 19  1  1
 20 19  1  0
 21 23  1  0
 22 21  2  0
M  END
$$$$
