KVC.pdb
     RDKit          3D

 23 22  0  0  1  0  0  0  0  0999 V2000
    8.0933  -17.4824   16.1929 N   0  0  0  0  0  0  0  0  0  0  0  0
    7.6075  -17.6504   17.5378 C   0  0  1  0  0  0  0  0  0  0  0  0
    7.7024  -19.0801   17.9838 C   0  0  0  0  0  0  0  0  0  0  0  0
    6.6913  -19.9250   17.2755 C   0  0  0  0  0  0  0  0  0  0  0  0
    6.6795  -21.3696   17.7109 C   0  0  0  0  0  0  0  0  0  0  0  0
    5.6827  -22.0870   16.7981 C   0  0  0  0  0  0  0  0  0  0  0  0
    5.7213  -23.5003   17.1686 N   0  0  0  0  0  0  0  0  0  0  0  0
    8.2820  -16.7286   18.4940 C   0  0  0  0  0  0  0  0  0  0  0  0
    9.5058  -16.5179   18.3034 O   0  0  0  0  0  0  0  0  0  0  0  0
    7.0100  -13.2822   19.8370 C   0  0  0  0  0  0  0  0  0  0  0  0
    7.4669  -14.1302   20.9583 C   0  0  2  0  0  0  0  0  0  0  0  0
    8.0744  -13.2577   22.0357 C   0  0  0  0  0  0  0  0  0  0  0  0
    8.3892  -15.2180   20.5071 C   0  0  2  0  0  0  0  0  0  0  0  0
    7.6483  -16.1010   19.5630 N   0  0  0  0  0  0  0  0  0  0  0  0
    8.9129  -16.0851   21.5891 C   0  0  0  0  0  0  0  0  0  0  0  0
    8.1105  -16.8552   22.2433 O   0  0  0  0  0  0  0  0  0  0  0  0
   10.2492  -16.1692   21.9983 N   0  0  0  0  0  0  0  0  0  0  0  0
   10.7072  -17.0448   23.0645 C   0  0  1  0  0  0  0  0  0  0  0  0
   12.2293  -17.1408   22.8775 C   0  0  0  0  0  0  0  0  0  0  0  0
   12.9965  -15.5209   22.8288 S   0  0  0  0  0  0  0  0  0  0  0  0
   10.4941  -16.3663   24.3525 C   0  0  0  0  0  0  0  0  0  0  0  0
   10.1071  -15.1624   24.4428 O   0  0  0  0  0  0  0  0  0  0  0  0
   10.7133  -17.0330   25.5356 O   0  0  0  0  0  0  0  0  0  0  0  0
  2  1  1  6
  2  3  1  0
  3  4  1  0
  4  5  1  0
  5  6  1  0
  6  7  1  0
  8  2  1  0
  8 14  1  0
  9  8  2  0
 11 10  1  6
 11 13  1  0
 11 12  1  0
 13 14  1  6
 15 17  1  0
 15 13  1  0
 16 15  2  0
 18 17  1  0
 18 21  1  0
 18 19  1  6
 20 19  1  0
 21 23  1  0
 22 21  2  0
M  END
$$$$
