KVC.pdb
     RDKit          3D

 23 22  0  0  1  0  0  0  0  0999 V2000
    8.7988  -17.7248   16.4945 N   0  0  0  0  0  0  0  0  0  0  0  0
    8.0801  -17.7687   17.7412 C   0  0  1  0  0  0  0  0  0  0  0  0
    7.9823  -19.1688   18.2724 C   0  0  0  0  0  0  0  0  0  0  0  0
    7.3260  -20.0700   17.2749 C   0  0  0  0  0  0  0  0  0  0  0  0
    7.1721  -21.4973   17.7393 C   0  0  0  0  0  0  0  0  0  0  0  0
    6.6139  -22.2803   16.5490 C   0  0  0  0  0  0  0  0  0  0  0  0
    6.4594  -23.6633   16.9958 N   0  0  0  0  0  0  0  0  0  0  0  0
    8.6548  -16.8352   18.7498 C   0  0  0  0  0  0  0  0  0  0  0  0
    9.9073  -16.7405   18.7787 O   0  0  0  0  0  0  0  0  0  0  0  0
    7.1387  -13.2379   19.8796 C   0  0  0  0  0  0  0  0  0  0  0  0
    7.5223  -14.1140   21.0068 C   0  0  2  0  0  0  0  0  0  0  0  0
    7.9769  -13.2642   22.1741 C   0  0  0  0  0  0  0  0  0  0  0  0
    8.5363  -15.1389   20.6085 C   0  0  2  0  0  0  0  0  0  0  0  0
    7.9007  -16.0784   19.6425 N   0  0  0  0  0  0  0  0  0  0  0  0
    9.0697  -15.9591   21.7218 C   0  0  0  0  0  0  0  0  0  0  0  0
    8.3348  -16.8745   22.2576 O   0  0  0  0  0  0  0  0  0  0  0  0
   10.3478  -15.8489   22.2825 N   0  0  0  0  0  0  0  0  0  0  0  0
   10.8150  -16.6778   23.3816 C   0  0  1  0  0  0  0  0  0  0  0  0
   12.2156  -17.1489   22.9603 C   0  0  0  0  0  0  0  0  0  0  0  0
   13.0535  -18.0142   24.2886 S   0  0  0  0  0  0  0  0  0  0  0  0
   11.0078  -15.8236   24.5639 C   0  0  0  0  0  0  0  0  0  0  0  0
   11.2236  -14.5767   24.4868 O   0  0  0  0  0  0  0  0  0  0  0  0
   10.9592  -16.3631   25.8283 O   0  0  0  0  0  0  0  0  0  0  0  0
  2  1  1  6
  2  3  1  0
  3  4  1  0
  4  5  1  0
  5  6  1  0
  6  7  1  0
  8  2  1  0
  8 14  1  0
  9  8  2  0
 11 10  1  6
 11 13  1  0
 11 12  1  0
 13 14  1  6
 15 17  1  0
 15 13  1  0
 16 15  2  0
 18 17  1  0
 18 21  1  0
 18 19  1  6
 20 19  1  0
 21 23  1  0
 22 21  2  0
M  END
$$$$
