KVC.pdb
     RDKit          3D

 23 22  0  0  1  0  0  0  0  0999 V2000
    7.1953  -16.3856   21.4649 N   0  0  0  0  0  0  0  0  0  0  0  0
    6.7782  -16.5624   22.8315 C   0  0  1  0  0  0  0  0  0  0  0  0
    6.8895  -17.9960   23.2609 C   0  0  0  0  0  0  0  0  0  0  0  0
    6.0162  -18.8714   22.4189 C   0  0  0  0  0  0  0  0  0  0  0  0
    6.1024  -20.3391   22.7579 C   0  0  0  0  0  0  0  0  0  0  0  0
    5.1593  -21.0607   21.7928 C   0  0  0  0  0  0  0  0  0  0  0  0
    3.9124  -21.2877   22.5207 N   0  0  0  0  0  0  0  0  0  0  0  0
    7.5046  -15.6510   23.7592 C   0  0  0  0  0  0  0  0  0  0  0  0
    8.7181  -15.4438   23.5081 O   0  0  0  0  0  0  0  0  0  0  0  0
    6.0085  -12.3529   25.3583 C   0  0  0  0  0  0  0  0  0  0  0  0
    6.7529  -13.1379   26.3657 C   0  0  2  0  0  0  0  0  0  0  0  0
    7.4312  -12.1969   27.3382 C   0  0  0  0  0  0  0  0  0  0  0  0
    7.7051  -14.1064   25.7391 C   0  0  2  0  0  0  0  0  0  0  0  0
    6.9291  -15.0293   24.8639 N   0  0  0  0  0  0  0  0  0  0  0  0
    8.4606  -14.9506   26.6949 C   0  0  0  0  0  0  0  0  0  0  0  0
    7.8471  -15.8557   27.3800 O   0  0  0  0  0  0  0  0  0  0  0  0
    9.8357  -14.8745   26.9470 N   0  0  0  0  0  0  0  0  0  0  0  0
   10.5226  -15.7230   27.9069 C   0  0  1  0  0  0  0  0  0  0  0  0
   12.0063  -15.6527   27.5133 C   0  0  0  0  0  0  0  0  0  0  0  0
   12.2449  -15.9599   25.7629 S   0  0  0  0  0  0  0  0  0  0  0  0
   10.4213  -15.1030   29.2374 C   0  0  0  0  0  0  0  0  0  0  0  0
    9.9214  -13.9535   29.4271 O   0  0  0  0  0  0  0  0  0  0  0  0
   10.8779  -15.7676   30.3520 O   0  0  0  0  0  0  0  0  0  0  0  0
  2  1  1  6
  2  3  1  0
  3  4  1  0
  4  5  1  0
  5  6  1  0
  6  7  1  0
  8  2  1  0
  8 14  1  0
  9  8  2  0
 11 10  1  6
 11 13  1  0
 11 12  1  0
 13 14  1  6
 15 17  1  0
 15 13  1  0
 16 15  2  0
 18 17  1  0
 18 21  1  0
 18 19  1  6
 20 19  1  0
 21 23  1  0
 22 21  2  0
M  END
$$$$
