QFE.pdb
     RDKit          3D

 30 30  0  0  1  0  0  0  0  0999 V2000
   26.5855  -22.5025  -19.1072 N   0  0  0  0  0  0  0  0  0  0  0  0
   27.7465  -21.6930  -19.1186 C   0  0  0  0  0  0  0  0  0  0  0  0
   28.3245  -21.4850  -20.2051 O   0  0  0  0  0  0  0  0  0  0  0  0
   28.2892  -21.0897  -17.8782 C   0  0  0  0  0  0  0  0  0  0  0  0
   27.4863  -21.5196  -16.6951 C   0  0  0  0  0  0  0  0  0  0  0  0
   26.8892  -20.3933  -15.9229 C   0  0  2  0  0  0  0  0  0  0  0  0
   27.8453  -19.3662  -15.5738 N   0  0  0  0  0  0  0  0  0  0  0  0
   26.2562  -20.9806  -14.6967 C   0  0  0  0  0  0  0  0  0  0  0  0
   25.7399  -22.1337  -14.8650 O   0  0  0  0  0  0  0  0  0  0  0  0
   26.2272  -20.3202  -13.4491 N   0  0  0  0  0  0  0  0  0  0  0  0
   25.3943  -20.7818  -12.3859 C   0  0  1  0  0  0  0  0  0  0  0  0
   25.8961  -20.3742  -11.0210 C   0  0  0  0  0  0  0  0  0  0  0  0
   27.2884  -20.7712  -10.7788 C   0  0  0  0  0  0  0  0  0  0  0  0
   28.1825  -20.7809  -11.8170 C   0  0  0  0  0  0  0  0  0  0  0  0
   29.4905  -21.1623  -11.5514 C   0  0  0  0  0  0  0  0  0  0  0  0
   29.9070  -21.5259  -10.2898 C   0  0  0  0  0  0  0  0  0  0  0  0
   29.0049  -21.5147   -9.2491 C   0  0  0  0  0  0  0  0  0  0  0  0
   27.6855  -21.1307   -9.5140 C   0  0  0  0  0  0  0  0  0  0  0  0
   23.9931  -20.2741  -12.5049 C   0  0  0  0  0  0  0  0  0  0  0  0
   23.7714  -19.0577  -12.3922 O   0  0  0  0  0  0  0  0  0  0  0  0
   22.9290  -21.1443  -12.7408 N   0  0  0  0  0  0  0  0  0  0  0  0
   21.5510  -20.7346  -13.0063 C   0  0  1  0  0  0  0  0  0  0  0  0
   21.2928  -20.5466  -14.4476 C   0  0  0  0  0  0  0  0  0  0  0  0
   21.2693  -21.8630  -15.1715 C   0  0  0  0  0  0  0  0  0  0  0  0
   20.9083  -21.6865  -16.6097 C   0  0  0  0  0  0  0  0  0  0  0  0
   21.8359  -21.6811  -17.4504 O   0  0  0  0  0  0  0  0  0  0  0  0
   20.6924  -21.7116  -12.3228 C   0  0  0  0  0  0  0  0  0  0  0  0
   21.1682  -22.9635  -11.9407 O   0  0  0  0  0  0  0  0  0  0  0  0
   19.6116  -21.5316  -17.0408 O   0  0  0  0  0  0  0  0  0  0  0  0
   19.4993  -21.4738  -12.0498 O   0  0  0  0  0  0  0  0  0  0  0  0
  2  1  1  0
  3  2  2  0
  4  2  1  0
  5  4  1  0
  6  5  1  0
  6  7  1  1
  8  6  1  0
  8  9  2  0
 10  8  1  0
 11 10  1  0
 11 12  1  1
 13 14  2  0
 13 12  1  0
 15 14  1  0
 16 15  2  0
 17 16  1  0
 17 18  2  0
 18 13  1  0
 19 11  1  0
 20 19  2  0
 21 19  1  0
 22 23  1  6
 22 21  1  0
 24 25  1  0
 24 23  1  0
 25 29  1  0
 26 25  2  0
 27 22  1  0
 27 28  1  0
 30 27  2  0
M  END
$$$$
