QFE.pdb
     RDKit          3D

 30 30  0  0  1  0  0  0  0  0999 V2000
   28.3739  -19.4769  -19.0717 N   0  0  0  0  0  0  0  0  0  0  0  0
   28.0299  -20.5337  -19.9483 C   0  0  0  0  0  0  0  0  0  0  0  0
   28.5741  -20.5861  -21.0704 O   0  0  0  0  0  0  0  0  0  0  0  0
   27.0446  -21.5737  -19.5678 C   0  0  0  0  0  0  0  0  0  0  0  0
   26.5564  -21.3445  -18.1756 C   0  0  0  0  0  0  0  0  0  0  0  0
   27.4765  -21.8489  -17.1171 C   0  0  2  0  0  0  0  0  0  0  0  0
   28.0923  -23.1149  -17.4474 N   0  0  0  0  0  0  0  0  0  0  0  0
   26.6828  -21.9494  -15.8485 C   0  0  0  0  0  0  0  0  0  0  0  0
   25.8567  -22.9193  -15.8133 O   0  0  0  0  0  0  0  0  0  0  0  0
   26.8289  -21.0486  -14.7712 N   0  0  0  0  0  0  0  0  0  0  0  0
   25.9716  -21.1114  -13.6318 C   0  0  1  0  0  0  0  0  0  0  0  0
   26.4146  -20.2062  -12.5069 C   0  0  0  0  0  0  0  0  0  0  0  0
   25.6181  -20.3760  -11.2856 C   0  0  0  0  0  0  0  0  0  0  0  0
   26.0210  -21.2723  -10.3308 C   0  0  0  0  0  0  0  0  0  0  0  0
   25.2432  -21.4070   -9.1890 C   0  0  0  0  0  0  0  0  0  0  0  0
   24.0936  -20.6738   -8.9936 C   0  0  0  0  0  0  0  0  0  0  0  0
   23.6922  -19.7740   -9.9560 C   0  0  0  0  0  0  0  0  0  0  0  0
   24.4745  -19.6361  -11.1082 C   0  0  0  0  0  0  0  0  0  0  0  0
   24.5627  -20.7368  -13.9636 C   0  0  0  0  0  0  0  0  0  0  0  0
   24.3470  -19.7843  -14.7303 O   0  0  0  0  0  0  0  0  0  0  0  0
   23.4846  -21.4400  -13.4263 N   0  0  0  0  0  0  0  0  0  0  0  0
   22.0771  -21.1714  -13.7166 C   0  0  1  0  0  0  0  0  0  0  0  0
   21.5389  -22.0753  -14.7522 C   0  0  0  0  0  0  0  0  0  0  0  0
   20.0968  -21.7700  -15.0436 C   0  0  0  0  0  0  0  0  0  0  0  0
   19.5475  -22.6844  -16.0885 C   0  0  0  0  0  0  0  0  0  0  0  0
   19.1272  -22.1742  -17.1516 O   0  0  0  0  0  0  0  0  0  0  0  0
   21.3797  -21.1896  -12.4235 C   0  0  0  0  0  0  0  0  0  0  0  0
   20.5283  -20.1576  -12.0363 O   0  0  0  0  0  0  0  0  0  0  0  0
   19.4865  -24.0491  -15.9296 O   0  0  0  0  0  0  0  0  0  0  0  0
   21.5118  -22.1238  -11.6086 O   0  0  0  0  0  0  0  0  0  0  0  0
  2  1  1  0
  3  2  2  0
  4  2  1  0
  5  4  1  0
  6  5  1  0
  6  7  1  6
  8  6  1  0
  8  9  2  0
 10  8  1  0
 11 10  1  0
 11 12  1  1
 13 14  2  0
 13 12  1  0
 15 14  1  0
 16 15  2  0
 17 16  1  0
 17 18  2  0
 18 13  1  0
 19 11  1  0
 20 19  2  0
 21 19  1  0
 22 23  1  6
 22 21  1  0
 24 25  1  0
 24 23  1  0
 25 29  1  0
 26 25  2  0
 27 22  1  0
 27 28  1  0
 30 27  2  0
M  END
$$$$
