QFE.pdb
     RDKit          3D

 30 30  0  0  1  0  0  0  0  0999 V2000
   17.0045  -11.5886  -14.2234 N   0  0  0  0  0  0  0  0  0  0  0  0
   17.6612  -12.6574  -14.8790 C   0  0  0  0  0  0  0  0  0  0  0  0
   17.5905  -13.8011  -14.3843 O   0  0  0  0  0  0  0  0  0  0  0  0
   18.4264  -12.4522  -16.1317 C   0  0  0  0  0  0  0  0  0  0  0  0
   18.4536  -11.0041  -16.4946 C   0  0  0  0  0  0  0  0  0  0  0  0
   17.1292  -10.4531  -16.8993 C   0  0  2  0  0  0  0  0  0  0  0  0
   16.5375  -11.1470  -18.0215 N   0  0  0  0  0  0  0  0  0  0  0  0
   17.3278   -8.9989  -17.2077 C   0  0  0  0  0  0  0  0  0  0  0  0
   18.1817   -8.7610  -18.1235 O   0  0  0  0  0  0  0  0  0  0  0  0
   16.6311   -7.9653  -16.5444 N   0  0  0  0  0  0  0  0  0  0  0  0
   16.8788   -6.5926  -16.8468 C   0  0  1  0  0  0  0  0  0  0  0  0
   15.6132   -5.7878  -17.0248 C   0  0  0  0  0  0  0  0  0  0  0  0
   14.8916   -6.1181  -18.2597 C   0  0  0  0  0  0  0  0  0  0  0  0
   13.9355   -7.0995  -18.2460 C   0  0  0  0  0  0  0  0  0  0  0  0
   13.2735   -7.3856  -19.4322 C   0  0  0  0  0  0  0  0  0  0  0  0
   13.5487   -6.7184  -20.6054 C   0  0  0  0  0  0  0  0  0  0  0  0
   14.5105   -5.7326  -20.6146 C   0  0  0  0  0  0  0  0  0  0  0  0
   15.1795   -5.4420  -19.4202 C   0  0  0  0  0  0  0  0  0  0  0  0
   17.6800   -5.9151  -15.7817 C   0  0  0  0  0  0  0  0  0  0  0  0
   17.4012   -6.1117  -14.5879 O   0  0  0  0  0  0  0  0  0  0  0  0
   18.7370   -5.0650  -16.1063 N   0  0  0  0  0  0  0  0  0  0  0  0
   19.5813   -4.3661  -15.1386 C   0  0  1  0  0  0  0  0  0  0  0  0
   20.9214   -4.9746  -15.0256 C   0  0  0  0  0  0  0  0  0  0  0  0
   21.1061   -5.6376  -13.6899 C   0  0  0  0  0  0  0  0  0  0  0  0
   22.4740   -6.2216  -13.5570 C   0  0  0  0  0  0  0  0  0  0  0  0
   22.5682   -7.4181  -13.2008 O   0  0  0  0  0  0  0  0  0  0  0  0
   19.5509   -2.9464  -15.5161 C   0  0  0  0  0  0  0  0  0  0  0  0
   20.0187   -1.9514  -14.6613 O   0  0  0  0  0  0  0  0  0  0  0  0
   23.6202   -5.5043  -13.8078 O   0  0  0  0  0  0  0  0  0  0  0  0
   19.1076   -2.5587  -16.6150 O   0  0  0  0  0  0  0  0  0  0  0  0
  2  1  1  0
  3  2  2  0
  4  2  1  0
  5  4  1  0
  6  5  1  0
  6  7  1  6
  8  6  1  0
  8  9  2  0
 10  8  1  0
 11 10  1  0
 11 12  1  1
 13 14  2  0
 13 12  1  0
 15 14  1  0
 16 15  2  0
 17 16  1  0
 17 18  2  0
 18 13  1  0
 19 11  1  0
 20 19  2  0
 21 19  1  0
 22 23  1  6
 22 21  1  0
 24 25  1  0
 24 23  1  0
 25 29  1  0
 26 25  2  0
 27 22  1  0
 27 28  1  0
 30 27  2  0
M  END
$$$$
